=
 OpenBabel10232408113D

 38 43  0  0  1  0  0  0  0  0999 V2000
  185.2100  177.9210  138.1100 C   0  0  0  0  0  0  0  0  0  0  0  0
  182.9200  177.5480  137.0590 C   0  0  0  0  0  0  0  0  0  0  0  0
  186.5090  177.8740  137.9380 N   0  0  0  0  0  0  0  0  0  0  0  0
  182.1610  178.4860  137.6470 C   0  0  0  0  0  3  0  0  0  0  0  0
  189.0480  178.2830  141.8130 N   0  0  0  0  0  2  0  0  0  0  0  0
  183.7500  179.5810  139.2350 C   0  0  0  0  0  3  0  0  0  0  0  0
  185.4970  179.0620  141.7070 C   0  0  0  0  0  3  0  0  0  0  0  0
  187.0430  178.3900  140.2040 C   0  0  0  0  0  0  0  0  0  0  0  0
  184.3510  177.5110  137.0350 N   0  0  0  0  0  0  0  0  0  0  0  0
  186.8340  179.1140  142.3340 C   0  0  0  0  0  3  0  0  0  0  0  0
  184.5940  178.3600  139.4290 C   0  0  2  0  0  3  0  0  0  0  0  0
  185.4750  177.0810  134.9150 C   0  0  0  0  0  1  0  0  0  0  0  0
  183.4120  175.9070  135.6440 C   0  0  0  0  0  0  0  0  0  0  0  0
  182.6550  179.6070  138.4710 C   0  0  0  0  0  3  0  0  0  0  0  0
  190.8330  177.5010  139.5280 C   0  0  0  0  0  2  0  0  0  0  0  0
  183.2720  174.7470  134.7240 C   0  0  0  0  0  1  0  0  0  0  0  0
  189.4330  176.8990  141.5470 C   0  0  1  0  0  3  0  0  0  0  0  0
  182.3730  176.5230  136.1930 C   0  0  0  0  0  3  0  0  0  0  0  0
  188.9050  178.3580  138.5740 C   0  0  0  0  0  2  0  0  0  0  0  0
  185.6490  178.5940  140.4720 C   0  0  0  0  0  0  0  0  0  0  0  0
  187.7410  178.7350  141.4380 C   0  0  0  0  0  0  0  0  0  0  0  0
  189.6620  177.1310  138.7390 N   0  0  0  0  0  2  0  0  0  0  0  0
  187.4750  178.1680  138.9610 C   0  0  0  0  0  0  0  0  0  0  0  0
  184.7300  176.4700  136.0910 C   0  0  2  0  0  3  0  0  0  0  0  0
  190.8060  176.8250  140.8920 C   0  0  0  0  0  2  0  0  0  0  0  0
  189.4560  176.0970  142.8420 C   0  0  0  0  0  2  0  0  0  0  0  0
  191.1740  175.8590  143.4050 S   0  0  0  0  0  0  0  0  0  0  0  0
  191.1970  177.4030  144.3750 C   0  0  0  0  0  2  0  0  0  0  0  0
  189.3360  177.1150  147.6540 N   0  0  0  0  0  0  0  0  0  0  0  0
  187.5540  177.9410  146.6470 C   0  0  0  0  0  0  0  0  0  0  0  0
  188.5950  177.9020  145.7390 C   0  0  0  0  0  3  0  0  0  0  0  0
  188.0410  177.4410  147.8430 C   0  0  0  0  0  3  0  0  0  0  0  0
  190.9480  177.1400  145.8280 C   0  0  0  0  0  0  0  0  0  0  0  0
  189.6560  177.3930  146.3990 N   0  0  0  0  0  0  0  0  0  0  0  0
  191.8810  176.6860  146.5510 O   0  0  0  0  0  0  0  0  0  0  0  0
  186.1870  178.4190  146.3920 C   0  0  0  0  0  0  0  0  0  0  0  0
  185.6320  179.4170  147.1880 O   0  0  0  0  0  1  0  0  0  0  0  0
  185.5190  177.9410  145.4360 O   0  0  0  0  0  0  0  0  0  0  0  0
  1 11  1  0  0  0  0
  2  4  2  0  0  0  0
  3  1  2  0  0  0  0
  3 23  1  0  0  0  0
  4 14  1  0  0  0  0
  7 10  1  0  0  0  0
  8 20  1  0  0  0  0
  8 21  1  0  0  0  0
  9  2  1  0  0  0  0
  9  1  1  0  0  0  0
 11  6  1  6  0  0  0
 11 20  1  0  0  0  0
 13 24  1  0  0  0  0
 13 18  2  0  0  0  0
 14  6  2  0  0  0  0
 15 25  1  0  0  0  0
 16 13  1  0  0  0  0
 17  5  1  0  0  0  0
 17 26  1  1  0  0  0
 18  2  1  0  0  0  0
 19 22  1  0  0  0  0
 19 23  1  0  0  0  0
 20  7  2  0  0  0  0
 21  5  1  0  0  0  0
 21 10  2  0  0  0  0
 22 15  1  0  0  0  0
 23  8  2  0  0  0  0
 24 12  1  6  0  0  0
 24  9  1  0  0  0  0
 25 17  1  0  0  0  0
 26 27  1  0  0  0  0
 27 28  1  0  0  0  0
 28 33  1  0  0  0  0
 29 32  2  0  0  0  0
 30 32  1  0  0  0  0
 31 34  1  0  0  0  0
 31 30  2  0  0  0  0
 33 34  1  0  0  0  0
 33 35  2  0  0  0  0
 34 29  1  0  0  0  0
 36 30  1  0  0  0  0
 36 37  1  0  0  0  0
 38 36  2  0  0  0  0
M  END
>  <MODEL>
1

>  <REMARK>
 VINA RESULT:      -9.4      0.000      0.000
  Name = 
  5 active torsions:
  status: ('A' for Active; 'I' for Inactive)
    1  A    between atoms: C_6  and  C_16
    2  A    between atoms: C_9  and  C_25
    3  A    between atoms: C_25  and  S_28
    4  A    between atoms: C_27  and  C_34
    5  A    between atoms: S_28  and  C_34
                            x       y       z     vdW  Elec       q    Type
                         _______ _______ _______ _____ _____    ______ ____

>  <TORSDO>
F 5

$$$$
=
 OpenBabel10232408113D

 38 43  0  0  1  0  0  0  0  0999 V2000
  191.1160  175.8110  137.5520 C   0  0  0  0  0  0  0  0  0  0  0  0
  191.3900  174.4260  135.4320 C   0  0  0  0  0  0  0  0  0  0  0  0
  191.6800  176.2360  138.6560 N   0  0  0  0  0  0  0  0  0  0  0  0
  190.6350  175.0860  134.5400 C   0  0  0  0  0  3  0  0  0  0  0  0
  188.8030  178.2120  141.7300 N   0  0  0  0  0  2  0  0  0  0  0  0
  189.6630  176.9490  135.8940 C   0  0  0  0  0  3  0  0  0  0  0  0
  187.8360  177.5480  138.2870 C   0  0  0  0  0  3  0  0  0  0  0  0
  189.7140  177.2810  139.5110 C   0  0  0  0  0  0  0  0  0  0  0  0
  191.8540  174.9340  136.6870 N   0  0  0  0  0  0  0  0  0  0  0  0
  187.6560  178.2090  139.5970 C   0  0  0  0  0  2  0  0  0  0  0  0
  189.6910  176.1910  137.1840 C   0  0  0  0  0  0  0  0  0  0  0  0
  194.1980  174.6250  137.2800 C   0  0  0  0  0  1  0  0  0  0  0  0
  192.8180  172.8880  136.1620 C   0  0  0  0  0  0  0  0  0  0  0  0
  190.0520  176.4290  134.7260 C   0  0  0  0  0  3  0  0  0  0  0  0
  191.4940  177.8070  142.9990 C   0  0  0  0  0  2  0  0  0  0  0  0
  193.6010  171.6300  136.2740 C   0  0  0  0  0  1  0  0  0  0  0  0
  189.1170  177.0560  142.5660 C   0  0  1  0  0  3  0  0  0  0  0  0
  192.0000  173.1430  135.1480 C   0  0  0  0  0  3  0  0  0  0  0  0
  191.8380  177.6950  140.7120 C   0  0  0  0  0  2  0  0  0  0  0  0
  189.0360  176.9790  138.2850 C   0  0  0  0  0  0  0  0  0  0  0  0
  188.7730  178.0630  140.3050 C   0  0  0  0  0  0  0  0  0  0  0  0
  191.8660  176.8940  141.9230 N   0  0  0  0  0  2  0  0  0  0  0  0
  191.0190  177.0390  139.6490 C   0  0  0  0  0  0  0  0  0  0  0  0
  192.8250  173.9770  137.1960 C   0  0  2  0  0  3  0  0  0  0  0  0
  190.1620  177.4050  143.6180 C   0  0  0  0  0  2  0  0  0  0  0  0
  187.8620  176.5480  143.2620 C   0  0  0  0  0  2  0  0  0  0  0  0
  186.8650  177.9500  143.8660 S   0  0  0  0  0  0  0  0  0  0  0  0
  186.3240  177.0740  145.3710 C   0  0  0  0  0  2  0  0  0  0  0  0
  188.3460  178.5070  148.2280 N   0  0  0  0  0  0  0  0  0  0  0  0
  190.0580  177.2890  147.5490 C   0  0  0  0  0  0  0  0  0  0  0  0
  188.9760  177.0240  146.7310 C   0  0  0  0  0  3  0  0  0  0  0  0
  189.6400  178.2240  148.4810 C   0  0  0  0  0  3  0  0  0  0  0  0
  186.6490  177.8580  146.6060 C   0  0  0  0  0  0  0  0  0  0  0  0
  187.9600  177.7880  147.1840 N   0  0  0  0  0  0  0  0  0  0  0  0
  185.7630  178.5890  147.1340 O   0  0  0  0  0  0  0  0  0  0  0  0
  191.3990  176.6960  147.4470 C   0  0  0  0  0  0  0  0  0  0  0  0
  191.7560  175.9560  146.3230 O   0  0  0  0  0  0  0  0  0  0  0  0
  192.2390  176.8740  148.3690 O   0  0  0  0  0  1  0  0  0  0  0  0
  1  3  1  0  0  0  0
  2  9  1  0  0  0  0
  3 23  2  0  0  0  0
  4 14  1  0  0  0  0
  4  2  2  0  0  0  0
  5 17  1  0  0  0  0
  6 11  1  0  0  0  0
  7 10  1  0  0  0  0
  8 23  1  0  0  0  0
  8 21  2  0  0  0  0
  9 24  1  0  0  0  0
  9  1  1  0  0  0  0
 10 21  1  0  0  0  0
 11  1  2  0  0  0  0
 11 20  1  0  0  0  0
 13 16  1  0  0  0  0
 13 24  1  0  0  0  0
 14  6  2  0  0  0  0
 15 25  1  0  0  0  0
 17 26  1  1  0  0  0
 17 25  1  0  0  0  0
 18  2  1  0  0  0  0
 18 13  2  0  0  0  0
 19 22  1  0  0  0  0
 20  7  2  0  0  0  0
 20  8  1  0  0  0  0
 21  5  1  0  0  0  0
 22 15  1  0  0  0  0
 23 19  1  0  0  0  0
 24 12  1  6  0  0  0
 26 27  1  0  0  0  0
 27 28  1  0  0  0  0
 28 33  1  0  0  0  0
 29 32  2  0  0  0  0
 30 32  1  0  0  0  0
 31 34  1  0  0  0  0
 31 30  2  0  0  0  0
 33 35  2  0  0  0  0
 33 34  1  0  0  0  0
 34 29  1  0  0  0  0
 36 30  1  0  0  0  0
 36 38  1  0  0  0  0
 37 36  2  0  0  0  0
M  END
>  <MODEL>
2

>  <REMARK>
 VINA RESULT:      -9.1      3.263      5.965
  Name = 
  5 active torsions:
  status: ('A' for Active; 'I' for Inactive)
    1  A    between atoms: C_6  and  C_16
    2  A    between atoms: C_9  and  C_25
    3  A    between atoms: C_25  and  S_28
    4  A    between atoms: C_27  and  C_34
    5  A    between atoms: S_28  and  C_34
                            x       y       z     vdW  Elec       q    Type
                         _______ _______ _______ _____ _____    ______ ____

>  <TORSDO>
F 5

$$$$
=
 OpenBabel10232408113D

 38 43  0  0  1  0  0  0  0  0999 V2000
  190.7340  176.2260  138.0330 C   0  0  0  0  0  0  0  0  0  0  0  0
  190.6720  174.9780  135.8140 C   0  0  0  0  0  0  0  0  0  0  0  0
  191.4550  176.5610  139.0750 N   0  0  0  0  0  0  0  0  0  0  0  0
  189.8300  175.7170  135.0750 C   0  0  0  0  0  3  0  0  0  0  0  0
  189.0870  178.4080  142.6270 N   0  0  0  0  0  2  0  0  0  0  0  0
  189.1160  177.5120  136.6610 C   0  0  0  0  0  3  0  0  0  0  0  0
  187.6460  178.0020  139.3120 C   0  0  0  0  0  3  0  0  0  0  0  0
  189.6600  177.6020  140.2520 C   0  0  0  0  0  0  0  0  0  0  0  0
  191.3170  175.3890  137.0240 N   0  0  0  0  0  0  0  0  0  0  0  0
  187.6670  178.5790  140.6720 C   0  0  0  0  0  2  0  0  0  0  0  0
  189.2870  176.6700  137.8860 C   0  0  0  0  0  0  0  0  0  0  0  0
  193.7070  174.9760  137.2740 C   0  0  0  0  0  1  0  0  0  0  0  0
  192.1270  173.3560  136.2470 C   0  0  0  0  0  0  0  0  0  0  0  0
  189.3260  177.0610  135.4220 C   0  0  0  0  0  3  0  0  0  0  0  0
  191.9070  177.8450  143.4930 C   0  0  0  0  0  2  0  0  0  0  0  0
  192.8720  172.0720  136.1740 C   0  0  0  0  0  1  0  0  0  0  0  0
  189.4670  177.1910  143.3400 C   0  0  1  0  0  3  0  0  0  0  0  0
  191.1920  173.7000  135.3710 C   0  0  0  0  0  3  0  0  0  0  0  0
  191.9390  177.8750  141.1780 C   0  0  0  0  0  2  0  0  0  0  0  0
  188.8140  177.4010  139.1120 C   0  0  0  0  0  0  0  0  0  0  0  0
  188.8630  178.3550  141.2130 C   0  0  0  0  0  0  0  0  0  0  0  0
  192.0980  176.9960  142.3220 N   0  0  0  0  0  2  0  0  0  0  0  0
  190.9620  177.3150  140.1960 C   0  0  0  0  0  0  0  0  0  0  0  0
  192.3120  174.3740  137.3370 C   0  0  2  0  0  3  0  0  0  0  0  0
  190.6550  177.4400  144.2600 C   0  0  0  0  0  2  0  0  0  0  0  0
  188.2980  176.6730  144.1660 C   0  0  0  0  0  2  0  0  0  0  0  0
  188.0660  177.7100  145.6480 S   0  0  0  0  0  0  0  0  0  0  0  0
  186.3820  177.0860  145.9680 C   0  0  0  0  0  2  0  0  0  0  0  0
  183.7760  179.5560  144.7810 N   0  0  0  0  0  0  0  0  0  0  0  0
  184.0710  178.7910  142.7310 C   0  0  0  0  0  0  0  0  0  0  0  0
  184.9400  178.1300  143.5780 C   0  0  0  0  0  3  0  0  0  0  0  0
  183.3490  179.6810  143.5070 C   0  0  0  0  0  3  0  0  0  0  0  0
  185.3850  178.2030  146.0110 C   0  0  0  0  0  0  0  0  0  0  0  0
  184.7230  178.6300  144.8120 N   0  0  0  0  0  0  0  0  0  0  0  0
  185.1220  178.7650  147.1130 O   0  0  0  0  0  0  0  0  0  0  0  0
  183.9350  178.5870  141.2810 C   0  0  0  0  0  0  0  0  0  0  0  0
  184.3660  179.5670  140.3910 O   0  0  0  0  0  0  0  0  0  0  0  0
  183.4490  177.5120  140.8380 O   0  0  0  0  0  1  0  0  0  0  0  0
  1  3  1  0  0  0  0
  2  9  1  0  0  0  0
  3 23  2  0  0  0  0
  4 14  1  0  0  0  0
  4  2  2  0  0  0  0
  5 17  1  0  0  0  0
  6 11  1  0  0  0  0
  7 10  1  0  0  0  0
  8 21  2  0  0  0  0
  9 24  1  0  0  0  0
  9  1  1  0  0  0  0
 10 21  1  0  0  0  0
 11  1  2  0  0  0  0
 11 20  1  0  0  0  0
 13 24  1  0  0  0  0
 14  6  2  0  0  0  0
 15 25  1  0  0  0  0
 16 13  1  0  0  0  0
 17 26  1  1  0  0  0
 17 25  1  0  0  0  0
 18  2  1  0  0  0  0
 18 13  2  0  0  0  0
 19 22  1  0  0  0  0
 20  7  2  0  0  0  0
 20  8  1  0  0  0  0
 21  5  1  0  0  0  0
 22 15  1  0  0  0  0
 23  8  1  0  0  0  0
 23 19  1  0  0  0  0
 24 12  1  6  0  0  0
 26 27  1  0  0  0  0
 27 28  1  0  0  0  0
 28 33  1  0  0  0  0
 29 34  1  0  0  0  0
 30 32  1  0  0  0  0
 30 31  2  0  0  0  0
 31 34  1  0  0  0  0
 32 29  2  0  0  0  0
 33 35  2  0  0  0  0
 34 33  1  0  0  0  0
 36 30  1  0  0  0  0
 37 36  2  0  0  0  0
 38 36  1  0  0  0  0
M  END
>  <MODEL>
3

>  <REMARK>
 VINA RESULT:      -8.9      3.421      5.880
  Name = 
  5 active torsions:
  status: ('A' for Active; 'I' for Inactive)
    1  A    between atoms: C_6  and  C_16
    2  A    between atoms: C_9  and  C_25
    3  A    between atoms: C_25  and  S_28
    4  A    between atoms: C_27  and  C_34
    5  A    between atoms: S_28  and  C_34
                            x       y       z     vdW  Elec       q    Type
                         _______ _______ _______ _____ _____    ______ ____

>  <TORSDO>
F 5

$$$$
=
 OpenBabel10232408113D

 38 43  0  0  1  0  0  0  0  0999 V2000
  183.2150  177.4590  138.9620 C   0  0  0  0  0  0  0  0  0  0  0  0
  180.8650  176.5430  138.6120 C   0  0  0  0  0  0  0  0  0  0  0  0
  184.3850  177.6950  138.4200 N   0  0  0  0  0  0  0  0  0  0  0  0
  180.1170  177.3130  139.4170 C   0  0  0  0  0  3  0  0  0  0  0  0
  187.7730  178.8210  141.4020 N   0  0  0  0  0  2  0  0  0  0  0  0
  181.8070  178.8000  140.5030 C   0  0  0  0  0  3  0  0  0  0  0  0
  184.2610  178.7870  142.3490 C   0  0  0  0  0  3  0  0  0  0  0  0
  185.4190  178.4130  140.4470 C   0  0  0  0  0  0  0  0  0  0  0  0
  182.1980  176.8240  138.1730 N   0  0  0  0  0  0  0  0  0  0  0  0
  185.6740  179.1620  142.5630 C   0  0  0  0  0  3  0  0  0  0  0  0
  182.9220  177.8060  140.4140 C   0  0  2  0  0  3  0  0  0  0  0  0
  182.7320  176.5660  135.8090 C   0  0  0  0  0  1  0  0  0  0  0  0
  181.2850  174.9940  137.0760 C   0  0  0  0  0  0  0  0  0  0  0  0
  180.5620  178.5500  140.0900 C   0  0  0  0  0  3  0  0  0  0  0  0
  188.9530  178.3590  138.6790 C   0  0  0  0  0  2  0  0  0  0  0  0
  181.1500  173.7950  136.2070 C   0  0  0  0  0  1  0  0  0  0  0  0
  188.3660  177.5470  141.0030 C   0  0  1  0  0  3  0  0  0  0  0  0
  180.3370  175.3870  137.9170 C   0  0  0  0  0  3  0  0  0  0  0  0
  186.6910  178.7260  138.3470 C   0  0  0  0  0  2  0  0  0  0  0  0
  184.1530  178.3130  141.1120 C   0  0  0  0  0  0  0  0  0  0  0  0
  186.3470  178.9560  141.4330 C   0  0  0  0  0  0  0  0  0  0  0  0
  187.7190  177.7050  138.2550 N   0  0  0  0  0  2  0  0  0  0  0  0
  185.5140  178.2390  139.1270 C   0  0  0  0  0  0  0  0  0  0  0  0
  182.5140  175.8540  137.1350 C   0  0  2  0  0  3  0  0  0  0  0  0
  189.4720  177.7530  139.9760 C   0  0  0  0  0  2  0  0  0  0  0  0
  188.9390  176.8260  142.2150 C   0  0  0  0  0  2  0  0  0  0  0  0
  190.2060  177.8610  143.0220 S   0  0  0  0  0  0  0  0  0  0  0  0
  190.7580  176.5270  144.1360 C   0  0  0  0  0  2  0  0  0  0  0  0
  189.5500  177.7810  147.4930 N   0  0  0  0  0  0  0  0  0  0  0  0
  187.5220  177.9430  146.6370 C   0  0  0  0  0  0  0  0  0  0  0  0
  188.3860  177.5140  145.6470 C   0  0  0  0  0  3  0  0  0  0  0  0
  188.2740  178.1040  147.7880 C   0  0  0  0  0  3  0  0  0  0  0  0
  190.8030  176.9890  145.5610 C   0  0  0  0  0  0  0  0  0  0  0  0
  189.6070  177.4320  146.2170 N   0  0  0  0  0  0  0  0  0  0  0  0
  191.9010  176.9790  146.1870 O   0  0  0  0  0  0  0  0  0  0  0  0
  186.0780  178.1810  146.4960 C   0  0  0  0  0  0  0  0  0  0  0  0
  185.4350  179.1020  147.3190 O   0  0  0  0  0  1  0  0  0  0  0  0
  185.4210  177.5680  145.6130 O   0  0  0  0  0  0  0  0  0  0  0  0
  1 11  1  0  0  0  0
  2  4  2  0  0  0  0
  3  1  2  0  0  0  0
  3 23  1  0  0  0  0
  4 14  1  0  0  0  0
  5 21  1  0  0  0  0
  7 10  1  0  0  0  0
  8 20  1  0  0  0  0
  8 21  1  0  0  0  0
  9  2  1  0  0  0  0
  9  1  1  0  0  0  0
 11  6  1  6  0  0  0
 11 20  1  0  0  0  0
 13 24  1  0  0  0  0
 13 18  2  0  0  0  0
 14  6  2  0  0  0  0
 15 25  1  0  0  0  0
 16 13  1  0  0  0  0
 17  5  1  0  0  0  0
 17 26  1  1  0  0  0
 18  2  1  0  0  0  0
 19 23  1  0  0  0  0
 20  7  2  0  0  0  0
 21 10  2  0  0  0  0
 22 19  1  0  0  0  0
 22 15  1  0  0  0  0
 23  8  2  0  0  0  0
 24 12  1  6  0  0  0
 24  9  1  0  0  0  0
 25 17  1  0  0  0  0
 26 27  1  0  0  0  0
 27 28  1  0  0  0  0
 28 33  1  0  0  0  0
 29 32  2  0  0  0  0
 30 32  1  0  0  0  0
 31 34  1  0  0  0  0
 31 30  2  0  0  0  0
 33 35  2  0  0  0  0
 33 34  1  0  0  0  0
 34 29  1  0  0  0  0
 36 30  1  0  0  0  0
 36 37  1  0  0  0  0
 38 36  2  0  0  0  0
M  END
>  <MODEL>
4

>  <REMARK>
 VINA RESULT:      -8.4      1.549      1.884
  Name = 
  5 active torsions:
  status: ('A' for Active; 'I' for Inactive)
    1  A    between atoms: C_6  and  C_16
    2  A    between atoms: C_9  and  C_25
    3  A    between atoms: C_25  and  S_28
    4  A    between atoms: C_27  and  C_34
    5  A    between atoms: S_28  and  C_34
                            x       y       z     vdW  Elec       q    Type
                         _______ _______ _______ _____ _____    ______ ____

>  <TORSDO>
F 5

$$$$
=
 OpenBabel10232408113D

 38 43  0  0  1  0  0  0  0  0999 V2000
  187.5960  174.1910  136.0890 C   0  0  0  0  0  0  0  0  0  0  0  0
  186.1280  172.4130  135.0060 C   0  0  0  0  0  0  0  0  0  0  0  0
  188.8160  174.5550  136.4010 N   0  0  0  0  0  0  0  0  0  0  0  0
  185.1220  173.1300  134.4820 C   0  0  0  0  0  3  0  0  0  0  0  0
  189.1340  178.1610  139.3210 N   0  0  0  0  0  2  0  0  0  0  0  0
  185.6720  175.4660  135.1800 C   0  0  0  0  0  3  0  0  0  0  0  0
  186.0350  177.2710  137.6360 C   0  0  0  0  0  3  0  0  0  0  0  0
  188.1540  176.4910  137.6270 C   0  0  0  0  0  0  0  0  0  0  0  0
  187.3910  172.9240  135.4450 N   0  0  0  0  0  0  0  0  0  0  0  0
  186.8960  178.2030  138.3960 C   0  0  0  0  0  3  0  0  0  0  0  0
  186.3930  175.0570  136.4260 C   0  0  2  0  0  3  0  0  0  0  0  0
  189.4250  171.7760  134.7460 C   0  0  0  0  0  1  0  0  0  0  0  0
  187.3450  170.6030  135.4300 C   0  0  0  0  0  0  0  0  0  0  0  0
  185.0850  174.6000  134.3500 C   0  0  0  0  0  3  0  0  0  0  0  0
  191.8470  176.9220  138.9660 C   0  0  0  0  0  2  0  0  0  0  0  0
  187.7410  169.1850  135.6330 C   0  0  0  0  0  1  0  0  0  0  0  0
  189.6860  177.1840  140.2570 C   0  0  1  0  0  3  0  0  0  0  0  0
  186.1340  170.9640  135.0270 C   0  0  0  0  0  3  0  0  0  0  0  0
  190.5700  176.2000  137.1750 C   0  0  0  0  0  2  0  0  0  0  0  0
  186.7950  176.2580  137.2350 C   0  0  0  0  0  0  0  0  0  0  0  0
  188.1460  177.7460  138.3700 C   0  0  0  0  0  0  0  0  0  0  0  0
  191.2290  175.7360  138.3820 N   0  0  0  0  0  2  0  0  0  0  0  0
  189.1460  175.7500  137.1290 C   0  0  0  0  0  0  0  0  0  0  0  0
  188.2450  171.7740  135.7040 C   0  0  2  0  0  3  0  0  0  0  0  0
  191.2060  177.2650  140.3040 C   0  0  0  0  0  2  0  0  0  0  0  0
  189.1310  177.4170  141.6550 C   0  0  0  0  0  2  0  0  0  0  0  0
  189.8960  176.2580  142.8380 S   0  0  0  0  0  0  0  0  0  0  0  0
  190.5830  177.5870  143.8800 C   0  0  0  0  0  2  0  0  0  0  0  0
  188.8580  177.2070  147.2240 N   0  0  0  0  0  0  0  0  0  0  0  0
  187.0260  178.0300  146.3060 C   0  0  0  0  0  0  0  0  0  0  0  0
  188.0310  178.0230  145.3570 C   0  0  0  0  0  3  0  0  0  0  0  0
  187.5670  177.5120  147.4710 C   0  0  0  0  0  3  0  0  0  0  0  0
  190.3950  177.2910  145.3370 C   0  0  0  0  0  0  0  0  0  0  0  0
  189.1240  177.5150  145.9630 N   0  0  0  0  0  0  0  0  0  0  0  0
  191.3620  176.8350  146.0120 O   0  0  0  0  0  0  0  0  0  0  0  0
  185.6450  178.4940  146.1160 C   0  0  0  0  0  0  0  0  0  0  0  0
  185.1770  178.8030  144.8410 O   0  0  0  0  0  0  0  0  0  0  0  0
  184.8700  178.5930  147.1050 O   0  0  0  0  0  1  0  0  0  0  0  0
  1  3  2  0  0  0  0
  1 11  1  0  0  0  0
  2 18  1  0  0  0  0
  2  9  1  0  0  0  0
  3 23  1  0  0  0  0
  4  2  2  0  0  0  0
  5 17  1  0  0  0  0
  7 10  1  0  0  0  0
  8 21  1  0  0  0  0
  9 24  1  0  0  0  0
  9  1  1  0  0  0  0
 11  6  1  6  0  0  0
 11 20  1  0  0  0  0
 13 16  1  0  0  0  0
 13 24  1  0  0  0  0
 14  4  1  0  0  0  0
 14  6  2  0  0  0  0
 15 25  1  0  0  0  0
 17 25  1  0  0  0  0
 17 26  1  1  0  0  0
 18 13  2  0  0  0  0
 19 22  1  0  0  0  0
 20  8  1  0  0  0  0
 20  7  2  0  0  0  0
 21 10  2  0  0  0  0
 21  5  1  0  0  0  0
 22 15  1  0  0  0  0
 23 19  1  0  0  0  0
 23  8  2  0  0  0  0
 24 12  1  6  0  0  0
 26 27  1  0  0  0  0
 27 28  1  0  0  0  0
 28 33  1  0  0  0  0
 29 32  2  0  0  0  0
 30 32  1  0  0  0  0
 31 34  1  0  0  0  0
 31 30  2  0  0  0  0
 33 34  1  0  0  0  0
 33 35  2  0  0  0  0
 34 29  1  0  0  0  0
 36 30  1  0  0  0  0
 36 38  1  0  0  0  0
 37 36  2  0  0  0  0
M  END
>  <MODEL>
5

>  <REMARK>
 VINA RESULT:      -8.2      2.924      4.050
  Name = 
  5 active torsions:
  status: ('A' for Active; 'I' for Inactive)
    1  A    between atoms: C_6  and  C_16
    2  A    between atoms: C_9  and  C_25
    3  A    between atoms: C_25  and  S_28
    4  A    between atoms: C_27  and  C_34
    5  A    between atoms: S_28  and  C_34
                            x       y       z     vdW  Elec       q    Type
                         _______ _______ _______ _____ _____    ______ ____

>  <TORSDO>
F 5

$$$$
=
 OpenBabel10232408113D

 38 43  0  0  1  0  0  0  0  0999 V2000
  184.6690  174.6910  136.3560 C   0  0  0  0  0  0  0  0  0  0  0  0
  182.6720  173.1520  135.9960 C   0  0  0  0  0  0  0  0  0  0  0  0
  185.9570  174.8640  136.1850 N   0  0  0  0  0  0  0  0  0  0  0  0
  181.6560  174.0120  135.8190 C   0  0  0  0  0  3  0  0  0  0  0  0
  187.8240  178.4110  138.5430 N   0  0  0  0  0  2  0  0  0  0  0  0
  182.7470  176.2410  136.1120 C   0  0  0  0  0  3  0  0  0  0  0  0
  184.2320  177.9970  138.1460 C   0  0  0  0  0  3  0  0  0  0  0  0
  186.0680  176.8950  137.4310 C   0  0  0  0  0  0  0  0  0  0  0  0
  184.0660  173.4650  135.9170 N   0  0  0  0  0  0  0  0  0  0  0  0
  185.4320  178.7920  138.4800 C   0  0  0  0  0  3  0  0  0  0  0  0
  183.8060  175.7390  137.0420 C   0  0  2  0  0  3  0  0  0  0  0  0
  185.5210  172.0040  134.6150 C   0  0  0  0  0  1  0  0  0  0  0  0
  183.6900  171.1800  136.0780 C   0  0  0  0  0  0  0  0  0  0  0  0
  181.7810  175.4670  135.6100 C   0  0  0  0  0  3  0  0  0  0  0  0
  190.0160  176.7590  137.3250 C   0  0  0  0  0  2  0  0  0  0  0  0
  183.9290  169.7190  136.2220 C   0  0  0  0  0  1  0  0  0  0  0  0
  188.5350  177.3720  139.2830 C   0  0  1  0  0  3  0  0  0  0  0  0
  182.4790  171.7210  136.1120 C   0  0  0  0  0  3  0  0  0  0  0  0
  188.0850  176.2240  136.1640 C   0  0  0  0  0  2  0  0  0  0  0  0
  184.6410  176.8730  137.5690 C   0  0  0  0  0  0  0  0  0  0  0  0
  186.5090  178.1450  138.0400 C   0  0  0  0  0  0  0  0  0  0  0  0
  189.0670  175.6770  137.0830 N   0  0  0  0  0  2  0  0  0  0  0  0
  186.6950  176.0020  136.6620 C   0  0  0  0  0  0  0  0  0  0  0  0
  184.7840  172.1990  135.9310 C   0  0  2  0  0  3  0  0  0  0  0  0
  189.9630  177.2150  138.7770 C   0  0  0  0  0  2  0  0  0  0  0  0
  188.5670  177.7060  140.7680 C   0  0  0  0  0  2  0  0  0  0  0  0
  190.1940  177.2810  141.4740 S   0  0  0  0  0  0  0  0  0  0  0  0
  189.4940  176.1350  142.7080 C   0  0  0  0  0  2  0  0  0  0  0  0
  188.9220  177.5480  146.1680 N   0  0  0  0  0  0  0  0  0  0  0  0
  186.8390  177.9820  145.5820 C   0  0  0  0  0  0  0  0  0  0  0  0
  187.4980  177.4380  144.4960 C   0  0  0  0  0  3  0  0  0  0  0  0
  187.7510  178.0410  146.6210 C   0  0  0  0  0  3  0  0  0  0  0  0
  189.7890  176.5880  144.1050 C   0  0  0  0  0  0  0  0  0  0  0  0
  188.7610  177.1910  144.9030 N   0  0  0  0  0  0  0  0  0  0  0  0
  190.9500  176.4310  144.5820 O   0  0  0  0  0  0  0  0  0  0  0  0
  185.4340  178.4150  145.6270 C   0  0  0  0  0  0  0  0  0  0  0  0
  184.6630  178.4200  144.4670 O   0  0  0  0  0  0  0  0  0  0  0  0
  184.9150  178.7610  146.7220 O   0  0  0  0  0  1  0  0  0  0  0  0
  1 11  1  0  0  0  0
  2 18  1  0  0  0  0
  3  1  2  0  0  0  0
  3 23  1  0  0  0  0
  4  2  2  0  0  0  0
  5 17  1  0  0  0  0
  7 10  1  0  0  0  0
  8 20  1  0  0  0  0
  8 21  1  0  0  0  0
  9 24  1  0  0  0  0
  9  2  1  0  0  0  0
  9  1  1  0  0  0  0
 11  6  1  6  0  0  0
 11 20  1  0  0  0  0
 13 18  2  0  0  0  0
 13 16  1  0  0  0  0
 14  4  1  0  0  0  0
 14  6  2  0  0  0  0
 15 25  1  0  0  0  0
 17 26  1  1  0  0  0
 19 23  1  0  0  0  0
 19 22  1  0  0  0  0
 20  7  2  0  0  0  0
 21 10  2  0  0  0  0
 21  5  1  0  0  0  0
 22 15  1  0  0  0  0
 23  8  2  0  0  0  0
 24 12  1  6  0  0  0
 24 13  1  0  0  0  0
 25 17  1  0  0  0  0
 26 27  1  0  0  0  0
 27 28  1  0  0  0  0
 28 33  1  0  0  0  0
 29 32  2  0  0  0  0
 30 36  1  0  0  0  0
 30 32  1  0  0  0  0
 31 34  1  0  0  0  0
 31 30  2  0  0  0  0
 33 35  2  0  0  0  0
 33 34  1  0  0  0  0
 34 29  1  0  0  0  0
 36 38  1  0  0  0  0
 37 36  2  0  0  0  0
M  END
>  <MODEL>
6

>  <REMARK>
 VINA RESULT:      -8.2      2.214      3.438
  Name = 
  5 active torsions:
  status: ('A' for Active; 'I' for Inactive)
    1  A    between atoms: C_6  and  C_16
    2  A    between atoms: C_9  and  C_25
    3  A    between atoms: C_25  and  S_28
    4  A    between atoms: C_27  and  C_34
    5  A    between atoms: S_28  and  C_34
                            x       y       z     vdW  Elec       q    Type
                         _______ _______ _______ _____ _____    ______ ____

>  <TORSDO>
F 5

$$$$
=
 OpenBabel10232408113D

 38 43  0  0  1  0  0  0  0  0999 V2000
  188.6940  177.9360  142.1520 C   0  0  0  0  0  0  0  0  0  0  0  0
  188.8310  178.0160  144.6940 C   0  0  0  0  0  0  0  0  0  0  0  0
  187.9500  178.1470  141.0930 N   0  0  0  0  0  0  0  0  0  0  0  0
  190.1180  178.3220  144.9180 C   0  0  0  0  0  3  0  0  0  0  0  0
  189.6210  176.4260  137.1090 N   0  0  0  0  0  2  0  0  0  0  0  0
  191.0840  178.4130  142.6140 C   0  0  0  0  0  3  0  0  0  0  0  0
  191.6420  176.7120  140.1190 C   0  0  0  0  0  3  0  0  0  0  0  0
  189.5270  177.2540  139.5430 C   0  0  0  0  0  0  0  0  0  0  0  0
  188.1310  178.1610  143.4540 N   0  0  0  0  0  0  0  0  0  0  0  0
  191.4770  176.5260  138.6630 C   0  0  0  0  0  3  0  0  0  0  0  0
  190.1210  177.4230  142.0370 C   0  0  2  0  0  3  0  0  0  0  0  0
  185.9350  179.2180  143.4640 C   0  0  0  0  0  1  0  0  0  0  0  0
  186.7050  177.6200  145.2040 C   0  0  0  0  0  0  0  0  0  0  0  0
  191.0900  178.7700  143.9010 C   0  0  0  0  0  3  0  0  0  0  0  0
  186.8050  177.3770  136.6810 C   0  0  0  0  0  2  0  0  0  0  0  0
  185.4820  177.2390  145.9580 C   0  0  0  0  0  1  0  0  0  0  0  0
  188.4680  175.5320  137.1650 C   0  0  1  0  0  3  0  0  0  0  0  0
  187.9110  177.6640  145.7560 C   0  0  0  0  0  3  0  0  0  0  0  0
  187.5490  178.4140  138.6140 C   0  0  0  0  0  2  0  0  0  0  0  0
  190.4710  177.1000  140.6120 C   0  0  0  0  0  0  0  0  0  0  0  0
  190.2340  176.8640  138.3270 C   0  0  0  0  0  0  0  0  0  0  0  0
  186.6020  177.4270  138.1260 N   0  0  0  0  0  2  0  0  0  0  0  0
  188.3610  177.8720  139.7430 C   0  0  0  0  0  0  0  0  0  0  0  0
  186.7200  177.9450  143.7370 C   0  0  2  0  0  3  0  0  0  0  0  0
  187.3480  176.0200  136.2550 C   0  0  0  0  0  2  0  0  0  0  0  0
  188.8680  174.1230  136.7510 C   0  0  0  0  0  2  0  0  0  0  0  0
  189.2470  174.0740  134.9670 S   0  0  0  0  0  0  0  0  0  0  0  0
  190.9570  173.4960  135.2240 C   0  0  0  0  0  2  0  0  0  0  0  0
  194.0400  175.5430  136.0020 N   0  0  0  0  0  0  0  0  0  0  0  0
  194.6290  173.9940  137.4600 C   0  0  0  0  0  0  0  0  0  0  0  0
  193.4130  173.6400  136.9070 C   0  0  0  0  0  3  0  0  0  0  0  0
  195.0050  175.1910  136.8770 C   0  0  0  0  0  3  0  0  0  0  0  0
  191.9300  174.6360  135.1940 C   0  0  0  0  0  0  0  0  0  0  0  0
  193.0970  174.6130  136.0270 N   0  0  0  0  0  0  0  0  0  0  0  0
  191.7210  175.6160  134.4240 O   0  0  0  0  0  0  0  0  0  0  0  0
  195.3820  173.2410  138.4730 C   0  0  0  0  0  0  0  0  0  0  0  0
  196.1050  173.9130  139.4550 O   0  0  0  0  0  1  0  0  0  0  0  0
  195.3570  171.9810  138.4710 O   0  0  0  0  0  0  0  0  0  0  0  0
  1  9  1  0  0  0  0
  2  4  2  0  0  0  0
  2 18  1  0  0  0  0
  3  1  2  0  0  0  0
  5 17  1  0  0  0  0
  5 21  1  0  0  0  0
  6 14  2  0  0  0  0
  7 20  2  0  0  0  0
  8 23  2  0  0  0  0
  8 20  1  0  0  0  0
  9 24  1  0  0  0  0
  9  2  1  0  0  0  0
 10  7  1  0  0  0  0
 11  1  1  0  0  0  0
 11  6  1  6  0  0  0
 13 18  2  0  0  0  0
 13 16  1  0  0  0  0
 14  4  1  0  0  0  0
 15 22  1  0  0  0  0
 17 26  1  6  0  0  0
 19 23  1  0  0  0  0
 20 11  1  0  0  0  0
 21 10  2  0  0  0  0
 21  8  1  0  0  0  0
 22 19  1  0  0  0  0
 23  3  1  0  0  0  0
 24 12  1  1  0  0  0
 24 13  1  0  0  0  0
 25 15  1  0  0  0  0
 25 17  1  0  0  0  0
 27 28  1  0  0  0  0
 27 26  1  0  0  0  0
 29 34  1  0  0  0  0
 29 32  2  0  0  0  0
 30 36  1  0  0  0  0
 31 30  2  0  0  0  0
 32 30  1  0  0  0  0
 33 28  1  0  0  0  0
 33 34  1  0  0  0  0
 34 31  1  0  0  0  0
 35 33  2  0  0  0  0
 36 37  1  0  0  0  0
 38 36  2  0  0  0  0
M  END
>  <MODEL>
7

>  <REMARK>
 VINA RESULT:      -8.0      4.471      8.963
  Name = 
  5 active torsions:
  status: ('A' for Active; 'I' for Inactive)
    1  A    between atoms: C_6  and  C_16
    2  A    between atoms: C_9  and  C_25
    3  A    between atoms: C_25  and  S_28
    4  A    between atoms: C_27  and  C_34
    5  A    between atoms: S_28  and  C_34
                            x       y       z     vdW  Elec       q    Type
                         _______ _______ _______ _____ _____    ______ ____

>  <TORSDO>
F 5

$$$$
=
 OpenBabel10232408113D

 38 43  0  0  1  0  0  0  0  0999 V2000
  186.0290  175.0980  136.0630 C   0  0  0  0  0  0  0  0  0  0  0  0
  183.5600  174.5690  135.7310 C   0  0  0  0  0  0  0  0  0  0  0  0
  187.2480  174.6190  136.1240 N   0  0  0  0  0  0  0  0  0  0  0  0
  183.0950  175.6680  135.1160 C   0  0  0  0  0  3  0  0  0  0  0  0
  190.4650  177.5570  137.7510 N   0  0  0  0  0  2  0  0  0  0  0  0
  185.1090  177.1450  135.0050 C   0  0  0  0  0  3  0  0  0  0  0  0
  187.1450  178.6500  136.7410 C   0  0  0  0  0  3  0  0  0  0  0  0
  188.2570  176.6840  136.7580 C   0  0  0  0  0  0  0  0  0  0  0  0
  184.9340  174.1910  135.8620 N   0  0  0  0  0  0  0  0  0  0  0  0
  188.5610  178.8990  137.0880 C   0  0  0  0  0  3  0  0  0  0  0  0
  185.7430  176.5810  136.2380 C   0  0  2  0  0  3  0  0  0  0  0  0
  185.5710  171.8950  135.3470 C   0  0  0  0  0  1  0  0  0  0  0  0
  183.4950  172.5100  136.5640 C   0  0  0  0  0  0  0  0  0  0  0  0
  183.9180  176.7520  134.5450 C   0  0  0  0  0  3  0  0  0  0  0  0
  191.6490  174.8070  137.5220 C   0  0  0  0  0  2  0  0  0  0  0  0
  182.9910  171.2410  137.1510 C   0  0  0  0  0  1  0  0  0  0  0  0
  190.5450  176.6340  138.8810 C   0  0  1  0  0  3  0  0  0  0  0  0
  182.6950  173.5020  136.1930 C   0  0  0  0  0  3  0  0  0  0  0  0
  189.7660  174.8110  136.1760 C   0  0  0  0  0  2  0  0  0  0  0  0
  186.9920  177.3380  136.5950 C   0  0  0  0  0  0  0  0  0  0  0  0
  189.2130  177.7390  137.0780 C   0  0  0  0  0  0  0  0  0  0  0  0
  190.3110  174.2400  137.3940 N   0  0  0  0  0  2  0  0  0  0  0  0
  188.4160  175.4050  136.4130 C   0  0  0  0  0  0  0  0  0  0  0  0
  184.9500  172.8290  136.3740 C   0  0  2  0  0  3  0  0  0  0  0  0
  191.7450  175.7050  138.7480 C   0  0  0  0  0  2  0  0  0  0  0  0
  190.6550  177.4050  140.1890 C   0  0  0  0  0  2  0  0  0  0  0  0
  189.6470  176.6020  141.4800 S   0  0  0  0  0  0  0  0  0  0  0  0
  188.9790  178.1770  142.1090 C   0  0  0  0  0  2  0  0  0  0  0  0
  185.2400  178.0190  142.6460 N   0  0  0  0  0  0  0  0  0  0  0  0
  184.9710  178.7870  140.5940 C   0  0  0  0  0  0  0  0  0  0  0  0
  186.3250  178.7160  140.8650 C   0  0  0  0  0  3  0  0  0  0  0  0
  184.3090  178.3440  141.7260 C   0  0  0  0  0  3  0  0  0  0  0  0
  187.6690  177.9760  142.8070 C   0  0  0  0  0  0  0  0  0  0  0  0
  186.4360  178.2440  142.1250 N   0  0  0  0  0  0  0  0  0  0  0  0
  187.6540  177.5600  144.0010 O   0  0  0  0  0  0  0  0  0  0  0  0
  184.3520  179.2440  139.3420 C   0  0  0  0  0  0  0  0  0  0  0  0
  183.7510  178.3300  138.4810 O   0  0  0  0  0  0  0  0  0  0  0  0
  184.3430  180.4710  139.0530 O   0  0  0  0  0  1  0  0  0  0  0  0
  1  3  2  0  0  0  0
  1 11  1  0  0  0  0
  2  9  1  0  0  0  0
  2 18  1  0  0  0  0
  3 23  1  0  0  0  0
  4  2  2  0  0  0  0
  5 17  1  0  0  0  0
  7 10  1  0  0  0  0
  8 21  1  0  0  0  0
  9  1  1  0  0  0  0
  9 24  1  0  0  0  0
 11  6  1  6  0  0  0
 11 20  1  0  0  0  0
 13 16  1  0  0  0  0
 14  6  2  0  0  0  0
 14  4  1  0  0  0  0
 15 25  1  0  0  0  0
 17 26  1  1  0  0  0
 18 13  2  0  0  0  0
 19 23  1  0  0  0  0
 19 22  1  0  0  0  0
 20  7  2  0  0  0  0
 20  8  1  0  0  0  0
 21 10  2  0  0  0  0
 21  5  1  0  0  0  0
 22 15  1  0  0  0  0
 23  8  2  0  0  0  0
 24 12  1  6  0  0  0
 24 13  1  0  0  0  0
 25 17  1  0  0  0  0
 26 27  1  0  0  0  0
 27 28  1  0  0  0  0
 28 33  1  0  0  0  0
 30 31  2  0  0  0  0
 30 32  1  0  0  0  0
 31 34  1  0  0  0  0
 32 29  2  0  0  0  0
 33 35  2  0  0  0  0
 34 29  1  0  0  0  0
 34 33  1  0  0  0  0
 36 30  1  0  0  0  0
 37 36  2  0  0  0  0
 38 36  1  0  0  0  0
M  END
>  <MODEL>
8

>  <REMARK>
 VINA RESULT:      -8.0      2.897      4.789
  Name = 
  5 active torsions:
  status: ('A' for Active; 'I' for Inactive)
    1  A    between atoms: C_6  and  C_16
    2  A    between atoms: C_9  and  C_25
    3  A    between atoms: C_25  and  S_28
    4  A    between atoms: C_27  and  C_34
    5  A    between atoms: S_28  and  C_34
                            x       y       z     vdW  Elec       q    Type
                         _______ _______ _______ _____ _____    ______ ____

>  <TORSDO>
F 5

$$$$
=
 OpenBabel10232408113D

 38 43  0  0  1  0  0  0  0  0999 V2000
  186.0540  175.0840  136.0360 C   0  0  0  0  0  0  0  0  0  0  0  0
  183.5850  174.5670  135.6890 C   0  0  0  0  0  0  0  0  0  0  0  0
  187.2700  174.5990  136.1100 N   0  0  0  0  0  0  0  0  0  0  0  0
  183.1320  175.6630  135.0610 C   0  0  0  0  0  3  0  0  0  0  0  0
  190.4910  177.5310  137.7400 N   0  0  0  0  0  2  0  0  0  0  0  0
  185.1540  177.1280  134.9550 C   0  0  0  0  0  3  0  0  0  0  0  0
  187.1860  178.6350  136.6960 C   0  0  0  0  0  3  0  0  0  0  0  0
  188.2860  176.6640  136.7360 C   0  0  0  0  0  0  0  0  0  0  0  0
  184.9560  174.1820  135.8340 N   0  0  0  0  0  0  0  0  0  0  0  0
  188.6000  178.8790  137.0510 C   0  0  0  0  0  3  0  0  0  0  0  0
  185.7760  176.5710  136.1970 C   0  0  2  0  0  3  0  0  0  0  0  0
  185.5840  171.8790  135.3410 C   0  0  0  0  0  1  0  0  0  0  0  0
  183.5020  172.5150  136.5370 C   0  0  0  0  0  0  0  0  0  0  0  0
  183.9650  176.7390  134.4890 C   0  0  0  0  0  3  0  0  0  0  0  0
  191.6620  174.7730  137.5410 C   0  0  0  0  0  2  0  0  0  0  0  0
  182.9860  171.2530  137.1300 C   0  0  0  0  0  1  0  0  0  0  0  0
  190.5570  176.6170  138.8770 C   0  0  1  0  0  3  0  0  0  0  0  0
  182.7110  173.5090  136.1520 C   0  0  0  0  0  3  0  0  0  0  0  0
  189.7890  174.7770  136.1800 C   0  0  0  0  0  2  0  0  0  0  0  0
  187.0260  177.3230  136.5580 C   0  0  0  0  0  0  0  0  0  0  0  0
  189.2460  177.7150  137.0550 C   0  0  0  0  0  0  0  0  0  0  0  0
  190.3210  174.2130  137.4070 N   0  0  0  0  0  2  0  0  0  0  0  0
  188.4410  175.3810  136.4020 C   0  0  0  0  0  0  0  0  0  0  0  0
  184.9600  172.8240  136.3560 C   0  0  2  0  0  3  0  0  0  0  0  0
  191.7530  175.6800  138.7610 C   0  0  0  0  0  2  0  0  0  0  0  0
  190.6610  177.3970  140.1800 C   0  0  0  0  0  2  0  0  0  0  0  0
  189.6780  176.5820  141.4830 S   0  0  0  0  0  0  0  0  0  0  0  0
  188.9970  178.1500  142.1170 C   0  0  0  0  0  2  0  0  0  0  0  0
  186.6910  177.6510  145.0720 N   0  0  0  0  0  0  0  0  0  0  0  0
  188.4670  177.6580  146.3840 C   0  0  0  0  0  0  0  0  0  0  0  0
  188.8860  177.7880  145.0730 C   0  0  0  0  0  3  0  0  0  0  0  0
  187.0850  177.5750  146.3600 C   0  0  0  0  0  3  0  0  0  0  0  0
  187.7320  177.9230  142.8880 C   0  0  0  0  0  0  0  0  0  0  0  0
  187.7700  177.7770  144.3140 N   0  0  0  0  0  0  0  0  0  0  0  0
  186.6270  177.8690  142.2750 O   0  0  0  0  0  0  0  0  0  0  0  0
  189.3240  177.6200  147.5770 C   0  0  0  0  0  0  0  0  0  0  0  0
  190.5920  177.0480  147.5130 O   0  0  0  0  0  0  0  0  0  0  0  0
  188.9220  178.1260  148.6600 O   0  0  0  0  0  1  0  0  0  0  0  0
  1  3  2  0  0  0  0
  1 11  1  0  0  0  0
  2  9  1  0  0  0  0
  2 18  1  0  0  0  0
  3 23  1  0  0  0  0
  4  2  2  0  0  0  0
  5 17  1  0  0  0  0
  7 10  1  0  0  0  0
  8 21  1  0  0  0  0
  9  1  1  0  0  0  0
  9 24  1  0  0  0  0
 10 21  2  0  0  0  0
 11  6  1  6  0  0  0
 11 20  1  0  0  0  0
 13 16  1  0  0  0  0
 14  6  2  0  0  0  0
 14  4  1  0  0  0  0
 15 25  1  0  0  0  0
 17 26  1  1  0  0  0
 18 13  2  0  0  0  0
 19 23  1  0  0  0  0
 19 22  1  0  0  0  0
 20  7  2  0  0  0  0
 20  8  1  0  0  0  0
 21  5  1  0  0  0  0
 22 15  1  0  0  0  0
 23  8  2  0  0  0  0
 24 12  1  6  0  0  0
 24 13  1  0  0  0  0
 25 17  1  0  0  0  0
 26 27  1  0  0  0  0
 27 28  1  0  0  0  0
 28 33  1  0  0  0  0
 29 32  2  0  0  0  0
 30 36  1  0  0  0  0
 31 30  2  0  0  0  0
 32 30  1  0  0  0  0
 33 34  1  0  0  0  0
 34 29  1  0  0  0  0
 34 31  1  0  0  0  0
 35 33  2  0  0  0  0
 36 38  1  0  0  0  0
 37 36  2  0  0  0  0
M  END
>  <MODEL>
9

>  <REMARK>
 VINA RESULT:      -7.9      2.560      4.002
  Name = 
  5 active torsions:
  status: ('A' for Active; 'I' for Inactive)
    1  A    between atoms: C_6  and  C_16
    2  A    between atoms: C_9  and  C_25
    3  A    between atoms: C_25  and  S_28
    4  A    between atoms: C_27  and  C_34
    5  A    between atoms: S_28  and  C_34
                            x       y       z     vdW  Elec       q    Type
                         _______ _______ _______ _____ _____    ______ ____

>  <TORSDO>
F 5

$$$$
