=
 OpenBabel10232410443D

 56 60  0  0  1  0  0  0  0  0999 V2000
  189.8650  176.6550  135.1260 C   0  0  0  0  0  2  0  0  0  0  0  0
  188.7380  177.3180  134.3490 C   0  0  0  0  0  2  0  0  0  0  0  0
  189.3590  175.5160  136.0260 C   0  0  2  0  0  3  0  0  0  0  0  0
  186.6080  178.5760  134.5760 C   0  0  0  0  0  1  0  0  0  0  0  0
  187.2200  176.9400  136.3560 C   0  0  2  0  0  3  0  0  0  0  0  0
  187.8480  175.5360  136.3000 C   0  0  0  0  0  2  0  0  0  0  0  0
  187.7600  177.9490  135.3330 C   0  0  1  0  0  3  0  0  0  0  0  0
  187.1210  178.5530  140.3270 C   0  0  0  0  0  0  0  0  0  0  0  0
  185.9180  178.3460  139.6500 C   0  0  0  0  0  3  0  0  0  0  0  0
  185.9380  177.8200  138.3560 C   0  0  0  0  0  0  0  0  0  0  0  0
  187.1110  179.0870  141.6470 N   0  0  0  0  0  1  0  0  0  0  0  0
  188.3010  178.2470  139.7270 N   0  0  0  0  0  0  0  0  0  0  0  0
  187.1680  177.5060  137.7490 C   0  0  0  0  0  0  0  0  0  0  0  0
  188.3500  177.7360  138.4670 C   0  0  0  0  0  3  0  0  0  0  0  0
  183.6410  177.4930  137.0880 C   0  0  0  0  0  0  0  0  0  0  0  0
  184.6930  177.6250  137.6610 C   0  0  0  0  0  0  0  0  0  0  0  0
  182.3470  177.3670  136.4020 C   0  0  2  0  0  3  0  0  0  0  0  0
  181.1780  177.6430  137.3620 C   0  0  2  0  0  3  0  0  0  0  0  0
  180.2910  176.3740  139.3380 C   0  0  0  0  0  3  0  0  0  0  0  0
  181.5200  178.7540  138.3610 C   0  0  0  0  0  2  0  0  0  0  0  0
  180.7380  176.3780  138.0710 C   0  0  0  0  0  3  0  0  0  0  0  0
  180.2930  177.6110  140.2000 C   0  0  0  0  0  2  0  0  0  0  0  0
  180.6440  179.9720  140.2160 O   0  0  0  0  0  1  0  0  0  0  0  0
  180.3900  178.8910  139.3720 C   0  0  1  0  0  3  0  0  0  0  0  0
  182.5660  173.3210  134.7070 O   0  0  0  0  0  0  0  0  0  0  0  0
  181.5410  175.8220  134.7810 O   0  0  0  0  0  0  0  0  0  0  0  0
  183.8450  172.6300  136.4750 O   0  0  0  0  0  1  0  0  0  0  0  0
  183.0200  174.9180  136.3600 N   0  0  0  0  0  2  0  0  0  0  0  0
  183.1160  173.6020  135.8040 C   0  0  0  0  0  0  0  0  0  0  0  0
  182.2630  175.9990  135.7980 C   0  0  0  0  0  0  0  0  0  0  0  0
  190.1430  175.4620  137.3300 C   0  0  0  0  0  2  0  0  0  0  0  0
  193.0740  173.6500  135.9300 C   0  0  0  0  0  3  0  0  0  0  0  0
  194.1490  174.2340  136.5940 C   0  0  0  0  0  2  0  0  0  0  0  0
  191.8150  174.0810  136.1940 N   0  0  0  0  0  0  0  0  0  0  0  0
  191.5680  175.0760  137.0890 C   0  0  2  0  0  3  0  0  0  0  0  0
  193.9170  175.2250  137.4920 N   0  0  0  0  0  0  0  0  0  0  0  0
  192.6630  175.6770  137.7640 C   0  0  0  0  0  0  0  0  0  0  0  0
  192.1170  176.5770  139.9570 C   0  0  0  0  0  3  0  0  0  0  0  0
  192.5330  176.7240  138.7420 N   0  0  0  0  0  0  0  0  0  0  0  0
  192.0420  177.7460  140.8770 C   0  0  0  0  0  2  0  0  0  0  0  0
  191.7100  177.3050  142.2950 C   0  0  0  0  0  2  0  0  0  0  0  0
  188.9230  177.1800  144.3680 C   0  0  2  0  0  3  0  0  0  0  0  0
  189.6220  176.1510  142.4320 O   0  0  0  0  0  0  0  0  0  0  0  0
  190.0080  177.9060  143.8840 O   0  0  0  0  0  0  0  0  0  0  0  0
  190.2200  177.4110  142.5840 C   0  0  1  0  0  3  0  0  0  0  0  0
  188.5540  176.1740  143.3220 C   0  0  0  0  0  2  0  0  0  0  0  0
  187.7480  178.0710  144.8310 C   0  0  0  0  0  2  0  0  0  0  0  0
  186.9980  177.6320  146.0260 N   0  0  0  0  0  0  0  0  0  0  0  0
  185.5360  179.0930  147.1410 O   0  0  0  0  0  1  0  0  0  0  0  0
  185.6420  178.1970  146.0700 C   0  0  1  0  0  3  0  0  0  0  0  0
  185.3170  178.9390  144.7740 C   0  0  0  0  0  2  0  0  0  0  0  0
  182.8270  178.9030  144.8880 C   0  0  0  0  0  1  0  0  0  0  0  0
  183.9680  178.8750  142.6990 C   0  0  0  0  0  1  0  0  0  0  0  0
  184.0450  178.4020  144.1340 C   0  0  0  0  0  3  0  0  0  0  0  0
  187.7380  177.9660  147.2410 C   0  0  0  0  0  2  0  0  0  0  0  0
  188.1810  176.7990  147.8620 O   0  0  0  0  0  1  0  0  0  0  0  0
  1  3  1  0  0  0  0
  2  1  1  0  0  0  0
  2  7  1  0  0  0  0
  3  6  1  0  0  0  0
  3 31  1  1  0  0  0
  5 13  1  1  0  0  0
  6  5  1  0  0  0  0
  7  4  1  6  0  0  0
  7  5  1  0  0  0  0
  8 11  1  0  0  0  0
  9  8  2  0  0  0  0
 10  9  1  0  0  0  0
 12  8  1  0  0  0  0
 13 10  2  0  0  0  0
 13 14  1  0  0  0  0
 14 12  2  0  0  0  0
 15 16  3  0  0  0  0
 16 10  1  0  0  0  0
 17 15  1  1  0  0  0
 18 17  1  1  0  0  0
 18 21  1  0  0  0  0
 18 20  1  0  0  0  0
 19 22  1  0  0  0  0
 20 24  1  0  0  0  0
 21 19  2  0  0  0  0
 24 22  1  0  0  0  0
 24 23  1  1  0  0  0
 25 29  2  0  0  0  0
 26 30  2  0  0  0  0
 29 28  1  0  0  0  0
 29 27  1  0  0  0  0
 30 28  1  0  0  0  0
 30 17  1  0  0  0  0
 32 34  2  0  0  0  0
 32 33  1  0  0  0  0
 33 36  1  0  0  0  0
 34 35  1  0  0  0  0
 35 31  1  1  0  0  0
 35 37  1  0  0  0  0
 36 37  2  0  0  0  0
 37 39  1  0  0  0  0
 38 40  1  0  0  0  0
 39 38  2  0  0  0  0
 40 41  1  0  0  0  0
 42 47  1  6  0  0  0
 43 45  1  0  0  0  0
 43 46  1  0  0  0  0
 44 42  1  0  0  0  0
 45 41  1  1  0  0  0
 45 44  1  0  0  0  0
 46 42  1  0  0  0  0
 47 48  1  0  0  0  0
 48 50  1  0  0  0  0
 48 55  1  0  0  0  0
 50 49  1  1  0  0  0
 51 50  1  0  0  0  0
 53 54  1  0  0  0  0
 54 51  1  0  0  0  0
 54 52  1  0  0  0  0
 55 56  1  0  0  0  0
M  END
>  <MODEL>
1

>  <REMARK>
 VINA RESULT:      -6.8      0.000      0.000
  Name = 
  17 active torsions:
  status: ('A' for Active; 'I' for Inactive)
    1  A    between atoms: C_2  and  C_31
    2  A    between atoms: C_4  and  C_51
    3  A    between atoms: C_12  and  C_22
    4  A    between atoms: C_12  and  C_43
    5  A    between atoms: C_13  and  C_41
    6  A    between atoms: C_21  and  C_23
    7  A    between atoms: C_21  and  C_45
    8  A    between atoms: C_26  and  C_31
    9  A    between atoms: C_31  and  C_49
   10  A    between atoms: C_32  and  C_33
   11  A    between atoms: C_32  and  C_52
   12  A    between atoms: C_33  and  N_55
   13  A    between atoms: C_35  and  N_55
   14  A    between atoms: C_38  and  C_39
   15  A    between atoms: C_45  and  C_48
   16  A    between atoms: C_47  and  N_54
   17  A    between atoms: C_51  and  N_55
                            x       y       z     vdW  Elec       q    Type
                         _______ _______ _______ _____ _____    ______ ____

>  <TORSDO>
F 17

$$$$
=
 OpenBabel10232410443D

 56 60  0  0  1  0  0  0  0  0999 V2000
  188.7860  174.8140  135.1130 C   0  0  0  0  0  2  0  0  0  0  0  0
  189.8040  173.6840  135.0760 C   0  0  0  0  0  2  0  0  0  0  0  0
  189.4250  176.1820  134.8260 C   0  0  2  0  0  3  0  0  0  0  0  0
  191.8850  172.8190  136.1190 C   0  0  0  0  0  1  0  0  0  0  0  0
  191.5190  175.2850  136.0630 C   0  0  2  0  0  3  0  0  0  0  0  0
  190.9540  176.2230  134.9800 C   0  0  0  0  0  2  0  0  0  0  0  0
  190.8390  173.9120  136.1710 C   0  0  1  0  0  3  0  0  0  0  0  0
  191.9150  177.2040  139.8760 C   0  0  0  0  0  0  0  0  0  0  0  0
  193.0580  176.7090  139.2450 C   0  0  0  0  0  3  0  0  0  0  0  0
  192.9400  176.0820  138.0020 C   0  0  0  0  0  0  0  0  0  0  0  0
  192.0240  177.8450  141.1420 N   0  0  0  0  0  1  0  0  0  0  0  0
  190.6990  177.0720  139.2830 N   0  0  0  0  0  0  0  0  0  0  0  0
  191.6750  175.9560  137.4000 C   0  0  0  0  0  0  0  0  0  0  0  0
  190.5560  176.4650  138.0740 C   0  0  0  0  0  3  0  0  0  0  0  0
  195.0970  175.1310  136.8040 C   0  0  0  0  0  0  0  0  0  0  0  0
  194.1220  175.5620  137.3670 C   0  0  0  0  0  0  0  0  0  0  0  0
  196.2670  174.6080  136.0840 C   0  0  2  0  0  3  0  0  0  0  0  0
  196.0680  173.1360  135.6890 C   0  0  2  0  0  3  0  0  0  0  0  0
  197.5160  171.5260  134.4190 C   0  0  0  0  0  3  0  0  0  0  0  0
  196.2600  172.2000  136.8870 C   0  0  0  0  0  2  0  0  0  0  0  0
  196.9710  172.7480  134.5350 C   0  0  0  0  0  3  0  0  0  0  0  0
  197.3650  170.4690  135.4830 C   0  0  0  0  0  2  0  0  0  0  0  0
  196.2540  169.9000  137.5170 O   0  0  0  0  0  1  0  0  0  0  0  0
  196.1910  170.7540  136.4160 C   0  0  1  0  0  3  0  0  0  0  0  0
  199.5410  175.4230  138.8980 O   0  0  0  0  0  0  0  0  0  0  0  0
  198.5960  174.9860  136.4020 O   0  0  0  0  0  0  0  0  0  0  0  0
  198.1570  174.9760  140.6660 O   0  0  0  0  0  1  0  0  0  0  0  0
  197.3470  174.7840  138.3770 N   0  0  0  0  0  2  0  0  0  0  0  0
  198.4010  175.0700  139.3030 C   0  0  0  0  0  0  0  0  0  0  0  0
  197.4770  174.7950  136.9480 C   0  0  0  0  0  0  0  0  0  0  0  0
  188.7710  177.2760  135.6590 C   0  0  0  0  0  2  0  0  0  0  0  0
  185.2830  176.8310  134.4460 C   0  0  0  0  0  3  0  0  0  0  0  0
  184.5380  176.8520  135.6210 C   0  0  0  0  0  2  0  0  0  0  0  0
  186.6320  176.9630  134.5100 N   0  0  0  0  0  0  0  0  0  0  0  0
  187.2840  177.1110  135.6950 C   0  0  2  0  0  3  0  0  0  0  0  0
  185.1750  177.0020  136.8100 N   0  0  0  0  0  0  0  0  0  0  0  0
  186.5270  177.1280  136.8970 C   0  0  0  0  0  0  0  0  0  0  0  0
  187.0640  178.3740  138.9150 C   0  0  0  0  0  3  0  0  0  0  0  0
  187.0960  177.2930  138.2070 N   0  0  0  0  0  0  0  0  0  0  0  0
  187.6810  178.4100  140.2700 C   0  0  0  0  0  2  0  0  0  0  0  0
  186.6200  178.5380  141.3520 C   0  0  0  0  0  2  0  0  0  0  0  0
  188.9810  177.2680  143.5640 C   0  0  2  0  0  3  0  0  0  0  0  0
  186.7110  177.0740  143.2380 O   0  0  0  0  0  0  0  0  0  0  0  0
  188.6010  178.2830  142.6900 O   0  0  0  0  0  0  0  0  0  0  0  0
  187.1960  178.2920  142.7380 C   0  0  1  0  0  3  0  0  0  0  0  0
  187.7290  176.6210  144.0700 C   0  0  0  0  0  2  0  0  0  0  0  0
  189.9410  177.7440  144.6770 C   0  0  0  0  0  2  0  0  0  0  0  0
  190.3940  176.7360  145.6570 N   0  0  0  0  0  0  0  0  0  0  0  0
  191.1890  177.3760  147.7720 O   0  0  0  0  0  1  0  0  0  0  0  0
  190.0320  177.0960  147.0340 C   0  0  1  0  0  3  0  0  0  0  0  0
  189.1250  178.3260  147.0570 C   0  0  0  0  0  2  0  0  0  0  0  0
  186.6350  178.3540  147.1720 C   0  0  0  0  0  1  0  0  0  0  0  0
  187.9150  176.6720  148.4470 C   0  0  0  0  0  1  0  0  0  0  0  0
  187.9130  178.1020  147.9500 C   0  0  0  0  0  3  0  0  0  0  0  0
  191.8360  176.5260  145.5380 C   0  0  0  0  0  2  0  0  0  0  0  0
  192.1390  175.1830  145.7650 O   0  0  0  0  0  1  0  0  0  0  0  0
  2  1  1  0  0  0  0
  2  7  1  0  0  0  0
  3  6  1  0  0  0  0
  3  1  1  0  0  0  0
  3 31  1  1  0  0  0
  5  7  1  0  0  0  0
  5 13  1  1  0  0  0
  6  5  1  0  0  0  0
  7  4  1  6  0  0  0
  8 11  1  0  0  0  0
  9  8  2  0  0  0  0
 10  9  1  0  0  0  0
 12  8  1  0  0  0  0
 13 10  2  0  0  0  0
 13 14  1  0  0  0  0
 14 12  2  0  0  0  0
 15 16  3  0  0  0  0
 16 10  1  0  0  0  0
 17 15  1  1  0  0  0
 17 30  1  0  0  0  0
 18 17  1  1  0  0  0
 18 20  1  0  0  0  0
 19 21  2  0  0  0  0
 19 22  1  0  0  0  0
 21 18  1  0  0  0  0
 22 24  1  0  0  0  0
 24 20  1  0  0  0  0
 24 23  1  1  0  0  0
 25 29  2  0  0  0  0
 26 30  2  0  0  0  0
 28 29  1  0  0  0  0
 29 27  1  0  0  0  0
 30 28  1  0  0  0  0
 32 34  2  0  0  0  0
 32 33  1  0  0  0  0
 33 36  1  0  0  0  0
 34 35  1  0  0  0  0
 35 31  1  6  0  0  0
 35 37  1  0  0  0  0
 36 37  2  0  0  0  0
 37 39  1  0  0  0  0
 38 40  1  0  0  0  0
 39 38  2  0  0  0  0
 40 41  1  0  0  0  0
 42 46  1  0  0  0  0
 42 47  1  1  0  0  0
 43 46  1  0  0  0  0
 44 45  1  0  0  0  0
 44 42  1  0  0  0  0
 45 41  1  6  0  0  0
 45 43  1  0  0  0  0
 47 48  1  0  0  0  0
 48 50  1  0  0  0  0
 50 51  1  0  0  0  0
 50 49  1  1  0  0  0
 51 54  1  0  0  0  0
 52 54  1  0  0  0  0
 54 53  1  0  0  0  0
 55 48  1  0  0  0  0
 55 56  1  0  0  0  0
M  END
>  <MODEL>
2

>  <REMARK>
 VINA RESULT:      -6.5      3.626      9.651
  Name = 
  17 active torsions:
  status: ('A' for Active; 'I' for Inactive)
    1  A    between atoms: C_2  and  C_31
    2  A    between atoms: C_4  and  C_51
    3  A    between atoms: C_12  and  C_22
    4  A    between atoms: C_12  and  C_43
    5  A    between atoms: C_13  and  C_41
    6  A    between atoms: C_21  and  C_23
    7  A    between atoms: C_21  and  C_45
    8  A    between atoms: C_26  and  C_31
    9  A    between atoms: C_31  and  C_49
   10  A    between atoms: C_32  and  C_33
   11  A    between atoms: C_32  and  C_52
   12  A    between atoms: C_33  and  N_55
   13  A    between atoms: C_35  and  N_55
   14  A    between atoms: C_38  and  C_39
   15  A    between atoms: C_45  and  C_48
   16  A    between atoms: C_47  and  N_54
   17  A    between atoms: C_51  and  N_55
                            x       y       z     vdW  Elec       q    Type
                         _______ _______ _______ _____ _____    ______ ____

>  <TORSDO>
F 17

$$$$
=
 OpenBabel10232410443D

 56 60  0  0  1  0  0  0  0  0999 V2000
  185.2590  174.3860  135.8080 C   0  0  0  0  0  2  0  0  0  0  0  0
  186.4070  173.3870  135.8240 C   0  0  0  0  0  2  0  0  0  0  0  0
  185.6360  175.6930  135.0930 C   0  0  2  0  0  3  0  0  0  0  0  0
  188.7410  173.0200  136.5920 C   0  0  0  0  0  1  0  0  0  0  0  0
  188.0190  175.3440  136.0500 C   0  0  2  0  0  3  0  0  0  0  0  0
  187.1460  175.9200  134.9200 C   0  0  0  0  0  2  0  0  0  0  0  0
  187.5730  173.9830  136.6040 C   0  0  1  0  0  3  0  0  0  0  0  0
  188.7880  178.1950  139.1580 C   0  0  0  0  0  0  0  0  0  0  0  0
  189.8670  177.5540  138.5440 C   0  0  0  0  0  3  0  0  0  0  0  0
  189.6270  176.6250  137.5300 C   0  0  0  0  0  0  0  0  0  0  0  0
  189.0210  179.1450  140.1920 N   0  0  0  0  0  1  0  0  0  0  0  0
  187.5170  177.9100  138.7710 N   0  0  0  0  0  0  0  0  0  0  0  0
  188.3060  176.3420  137.1390 C   0  0  0  0  0  0  0  0  0  0  0  0
  187.2560  177.0070  137.7870 C   0  0  0  0  0  3  0  0  0  0  0  0
  191.6580  175.3800  136.3820 C   0  0  0  0  0  0  0  0  0  0  0  0
  190.7440  175.9590  136.9140 C   0  0  0  0  0  0  0  0  0  0  0  0
  192.7470  174.6480  135.7190 C   0  0  2  0  0  3  0  0  0  0  0  0
  193.4070  173.6420  136.6750 C   0  0  2  0  0  3  0  0  0  0  0  0
  195.2930  172.0150  136.3630 C   0  0  0  0  0  3  0  0  0  0  0  0
  194.3190  174.3430  137.6880 C   0  0  0  0  0  2  0  0  0  0  0  0
  194.1540  172.5660  135.9130 C   0  0  0  0  0  3  0  0  0  0  0  0
  195.9870  172.4980  137.6110 C   0  0  0  0  0  2  0  0  0  0  0  0
  195.7990  173.9280  139.5120 O   0  0  0  0  0  1  0  0  0  0  0  0
  195.0530  173.2980  138.5170 C   0  0  1  0  0  3  0  0  0  0  0  0
  195.8220  177.5790  134.6000 O   0  0  0  0  0  0  0  0  0  0  0  0
  193.3320  176.5440  134.4030 O   0  0  0  0  0  0  0  0  0  0  0  0
  197.4180  176.3440  135.6800 O   0  0  0  0  0  1  0  0  0  0  0  0
  195.1060  175.5840  135.5990 N   0  0  0  0  0  2  0  0  0  0  0  0
  196.1110  176.5450  135.2590 C   0  0  0  0  0  0  0  0  0  0  0  0
  193.7330  175.6440  135.1890 C   0  0  0  0  0  0  0  0  0  0  0  0
  184.9850  176.8920  135.7690 C   0  0  0  0  0  2  0  0  0  0  0  0
  181.4210  176.4230  134.8140 C   0  0  0  0  0  3  0  0  0  0  0  0
  180.7700  176.3830  136.0430 C   0  0  0  0  0  2  0  0  0  0  0  0
  182.7680  176.5800  134.7780 N   0  0  0  0  0  0  0  0  0  0  0  0
  183.5080  176.6950  135.9140 C   0  0  2  0  0  3  0  0  0  0  0  0
  181.4960  176.4990  137.1840 N   0  0  0  0  0  0  0  0  0  0  0  0
  182.8480  176.6490  137.1700 C   0  0  0  0  0  0  0  0  0  0  0  0
  183.1050  177.4780  139.4430 C   0  0  0  0  0  3  0  0  0  0  0  0
  183.5150  176.7750  138.4380 N   0  0  0  0  0  0  0  0  0  0  0  0
  183.8860  177.5130  140.7110 C   0  0  0  0  0  2  0  0  0  0  0  0
  184.1850  178.9430  141.1300 C   0  0  0  0  0  2  0  0  0  0  0  0
  186.7580  177.6300  143.0630 C   0  0  2  0  0  3  0  0  0  0  0  0
  184.6560  178.4910  143.4290 O   0  0  0  0  0  0  0  0  0  0  0  0
  186.3650  178.2700  141.8910 O   0  0  0  0  0  0  0  0  0  0  0  0
  185.2160  178.9990  142.2480 C   0  0  1  0  0  3  0  0  0  0  0  0
  185.7400  177.9520  144.1130 C   0  0  0  0  0  2  0  0  0  0  0  0
  188.2130  177.9490  143.4760 C   0  0  0  0  0  2  0  0  0  0  0  0
  189.0720  176.8090  143.8590 N   0  0  0  0  0  0  0  0  0  0  0  0
  191.1360  177.8220  144.3380 O   0  0  0  0  0  1  0  0  0  0  0  0
  190.0360  177.1670  144.9080 C   0  0  1  0  0  3  0  0  0  0  0  0
  189.3980  178.0900  145.9460 C   0  0  0  0  0  2  0  0  0  0  0  0
  188.3190  176.9980  147.9090 C   0  0  0  0  0  1  0  0  0  0  0  0
  190.6610  176.4720  147.3310 C   0  0  0  0  0  1  0  0  0  0  0  0
  189.6140  177.5650  147.3570 C   0  0  0  0  0  3  0  0  0  0  0  0
  189.7580  176.2730  142.6840 C   0  0  0  0  0  2  0  0  0  0  0  0
  190.3060  175.0260  142.9840 O   0  0  0  0  0  1  0  0  0  0  0  0
  1  2  1  0  0  0  0
  2  7  1  0  0  0  0
  3 31  1  1  0  0  0
  3  1  1  0  0  0  0
  5  7  1  0  0  0  0
  5 13  1  1  0  0  0
  6  3  1  0  0  0  0
  6  5  1  0  0  0  0
  7  4  1  6  0  0  0
  8 11  1  0  0  0  0
  9  8  2  0  0  0  0
 10  9  1  0  0  0  0
 12  8  1  0  0  0  0
 13 10  2  0  0  0  0
 13 14  1  0  0  0  0
 14 12  2  0  0  0  0
 15 16  3  0  0  0  0
 16 10  1  0  0  0  0
 17 15  1  1  0  0  0
 18 17  1  6  0  0  0
 18 20  1  0  0  0  0
 19 22  1  0  0  0  0
 20 24  1  0  0  0  0
 21 19  2  0  0  0  0
 21 18  1  0  0  0  0
 22 24  1  0  0  0  0
 24 23  1  1  0  0  0
 25 29  2  0  0  0  0
 26 30  2  0  0  0  0
 29 28  1  0  0  0  0
 29 27  1  0  0  0  0
 30 28  1  0  0  0  0
 30 17  1  0  0  0  0
 32 33  1  0  0  0  0
 33 36  1  0  0  0  0
 34 32  2  0  0  0  0
 34 35  1  0  0  0  0
 35 31  1  6  0  0  0
 35 37  1  0  0  0  0
 37 36  2  0  0  0  0
 37 39  1  0  0  0  0
 38 40  1  0  0  0  0
 39 38  2  0  0  0  0
 40 41  1  0  0  0  0
 42 47  1  1  0  0  0
 42 46  1  0  0  0  0
 43 46  1  0  0  0  0
 44 45  1  0  0  0  0
 44 42  1  0  0  0  0
 45 41  1  6  0  0  0
 45 43  1  0  0  0  0
 47 48  1  0  0  0  0
 48 50  1  0  0  0  0
 50 49  1  6  0  0  0
 50 51  1  0  0  0  0
 51 54  1  0  0  0  0
 53 54  1  0  0  0  0
 54 52  1  0  0  0  0
 55 56  1  0  0  0  0
 55 48  1  0  0  0  0
M  END
>  <MODEL>
3

>  <REMARK>
 VINA RESULT:      -6.4      3.117      8.918
  Name = 
  17 active torsions:
  status: ('A' for Active; 'I' for Inactive)
    1  A    between atoms: C_2  and  C_31
    2  A    between atoms: C_4  and  C_51
    3  A    between atoms: C_12  and  C_22
    4  A    between atoms: C_12  and  C_43
    5  A    between atoms: C_13  and  C_41
    6  A    between atoms: C_21  and  C_23
    7  A    between atoms: C_21  and  C_45
    8  A    between atoms: C_26  and  C_31
    9  A    between atoms: C_31  and  C_49
   10  A    between atoms: C_32  and  C_33
   11  A    between atoms: C_32  and  C_52
   12  A    between atoms: C_33  and  N_55
   13  A    between atoms: C_35  and  N_55
   14  A    between atoms: C_38  and  C_39
   15  A    between atoms: C_45  and  C_48
   16  A    between atoms: C_47  and  N_54
   17  A    between atoms: C_51  and  N_55
                            x       y       z     vdW  Elec       q    Type
                         _______ _______ _______ _____ _____    ______ ____

>  <TORSDO>
F 17

$$$$
=
 OpenBabel10232410443D

 56 60  0  0  1  0  0  0  0  0999 V2000
  186.7750  177.1760  136.8020 C   0  0  0  0  0  2  0  0  0  0  0  0
  185.6980  177.7630  135.9010 C   0  0  0  0  0  2  0  0  0  0  0  0
  187.5830  176.0740  136.1010 C   0  0  2  0  0  3  0  0  0  0  0  0
  183.6490  177.2230  134.6040 C   0  0  0  0  0  1  0  0  0  0  0  0
  185.3790  175.4490  134.8890 C   0  0  2  0  0  3  0  0  0  0  0  0
  186.9180  175.4880  134.8450 C   0  0  0  0  0  2  0  0  0  0  0  0
  184.7040  176.6660  135.5370 C   0  0  1  0  0  3  0  0  0  0  0  0
  183.8600  171.7100  136.3350 C   0  0  0  0  0  0  0  0  0  0  0  0
  183.5170  172.8860  137.0060 C   0  0  0  0  0  3  0  0  0  0  0  0
  184.0050  174.1100  136.5420 C   0  0  0  0  0  0  0  0  0  0  0  0
  183.3670  170.4580  136.7980 N   0  0  0  0  0  1  0  0  0  0  0  0
  184.6670  171.7610  135.2420 N   0  0  0  0  0  0  0  0  0  0  0  0
  184.8380  174.1460  135.4090 C   0  0  0  0  0  0  0  0  0  0  0  0
  185.1580  172.9390  134.7720 C   0  0  0  0  0  3  0  0  0  0  0  0
  183.3400  176.3060  137.8560 C   0  0  0  0  0  0  0  0  0  0  0  0
  183.6580  175.3140  137.2490 C   0  0  0  0  0  0  0  0  0  0  0  0
  182.9200  177.4980  138.6070 C   0  0  2  0  0  3  0  0  0  0  0  0
  182.3450  178.5740  137.6720 C   0  0  2  0  0  3  0  0  0  0  0  0
  180.0850  178.8480  136.6150 C   0  0  0  0  0  3  0  0  0  0  0  0
  182.0320  179.8690  138.4300 C   0  0  0  0  0  2  0  0  0  0  0  0
  181.1290  178.0630  136.9260 C   0  0  0  0  0  3  0  0  0  0  0  0
  179.9830  180.2800  137.0780 C   0  0  0  0  0  2  0  0  0  0  0  0
  181.1510  182.0670  138.1440 O   0  0  0  0  0  1  0  0  0  0  0  0
  181.3380  180.8490  137.4920 C   0  0  1  0  0  3  0  0  0  0  0  0
  186.0720  179.3020  141.0780 O   0  0  0  0  0  0  0  0  0  0  0  0
  185.2150  178.0940  138.8150 O   0  0  0  0  0  0  0  0  0  0  0  0
  184.6730  179.3110  142.8890 O   0  0  0  0  0  1  0  0  0  0  0  0
  183.9320  178.4050  140.7530 N   0  0  0  0  0  2  0  0  0  0  0  0
  184.9450  179.0140  141.5610 C   0  0  0  0  0  0  0  0  0  0  0  0
  184.0950  178.0040  139.3860 C   0  0  0  0  0  0  0  0  0  0  0  0
  187.9590  174.9670  137.0770 C   0  0  0  0  0  2  0  0  0  0  0  0
  190.1180  172.6300  135.1500 C   0  0  0  0  0  3  0  0  0  0  0  0
  191.3680  172.8040  135.7360 C   0  0  0  0  0  3  0  0  0  0  0  0
  189.0620  173.3490  135.6080 N   0  0  0  0  0  0  0  0  0  0  0  0
  189.1890  174.2430  136.6260 C   0  0  0  0  0  0  0  0  0  0  0  0
  191.5080  173.6900  136.7540 N   0  0  0  0  0  0  0  0  0  0  0  0
  190.4640  174.4260  137.2230 C   0  0  0  0  0  0  0  0  0  0  0  0
  191.6630  176.2150  138.3540 C   0  0  0  0  0  3  0  0  0  0  0  0
  190.7230  175.3280  138.3130 N   0  0  0  0  0  0  0  0  0  0  0  0
  191.8160  177.1010  139.5420 C   0  0  0  0  0  2  0  0  0  0  0  0
  190.4620  177.5730  140.0500 C   0  0  0  0  0  2  0  0  0  0  0  0
  191.6260  176.6610  143.1960 C   0  0  2  0  0  3  0  0  0  0  0  0
  189.9340  176.0100  141.7790 O   0  0  0  0  0  0  0  0  0  0  0  0
  191.5120  177.6410  142.2120 O   0  0  0  0  0  0  0  0  0  0  0  0
  190.3100  177.3410  141.5460 C   0  0  1  0  0  3  0  0  0  0  0  0
  190.4750  175.7200  143.0270 C   0  0  0  0  0  2  0  0  0  0  0  0
  191.7660  177.2400  144.6220 C   0  0  0  0  0  2  0  0  0  0  0  0
  190.8950  176.6710  145.6710 N   0  0  0  0  0  0  0  0  0  0  0  0
  189.8140  178.7180  145.2710 O   0  0  0  0  0  1  0  0  0  0  0  0
  189.9100  177.6430  146.1640 C   0  0  1  0  0  3  0  0  0  0  0  0
  188.5310  177.0000  146.3090 C   0  0  0  0  0  2  0  0  0  0  0  0
  186.6220  177.2430  144.7240 C   0  0  0  0  0  1  0  0  0  0  0  0
  186.5190  178.2870  146.9590 C   0  0  0  0  0  1  0  0  0  0  0  0
  187.4340  177.9280  145.8090 C   0  0  0  0  0  3  0  0  0  0  0  0
  191.7020  176.1460  146.7710 C   0  0  0  0  0  2  0  0  0  0  0  0
  191.8290  177.1140  147.7680 O   0  0  0  0  0  1  0  0  0  0  0  0
  2  1  1  0  0  0  0
  3  1  1  0  0  0  0
  3 31  1  1  0  0  0
  5 13  1  1  0  0  0
  5  7  1  0  0  0  0
  6  5  1  0  0  0  0
  6  3  1  0  0  0  0
  7  4  1  6  0  0  0
  7  2  1  0  0  0  0
  8 11  1  0  0  0  0
  8  9  1  0  0  0  0
 10  9  2  0  0  0  0
 10 16  1  0  0  0  0
 12  8  2  0  0  0  0
 13 10  1  0  0  0  0
 14 12  1  0  0  0  0
 14 13  2  0  0  0  0
 16 15  3  0  0  0  0
 17 15  1  6  0  0  0
 17 30  1  0  0  0  0
 18 20  1  0  0  0  0
 18 17  1  1  0  0  0
 19 21  2  0  0  0  0
 19 22  1  0  0  0  0
 21 18  1  0  0  0  0
 22 24  1  0  0  0  0
 24 23  1  1  0  0  0
 24 20  1  0  0  0  0
 25 29  2  0  0  0  0
 26 30  2  0  0  0  0
 28 29  1  0  0  0  0
 29 27  1  0  0  0  0
 30 28  1  0  0  0  0
 32 34  1  0  0  0  0
 32 33  2  0  0  0  0
 33 36  1  0  0  0  0
 34 35  2  0  0  0  0
 35 31  1  0  0  0  0
 35 37  1  0  0  0  0
 36 37  2  0  0  0  0
 37 39  1  0  0  0  0
 38 40  1  0  0  0  0
 39 38  2  0  0  0  0
 40 41  1  0  0  0  0
 42 47  1  1  0  0  0
 43 46  1  0  0  0  0
 44 42  1  0  0  0  0
 45 41  1  6  0  0  0
 45 43  1  0  0  0  0
 45 44  1  0  0  0  0
 46 42  1  0  0  0  0
 47 48  1  0  0  0  0
 48 50  1  0  0  0  0
 48 55  1  0  0  0  0
 50 49  1  6  0  0  0
 50 51  1  0  0  0  0
 52 54  1  0  0  0  0
 54 51  1  0  0  0  0
 54 53  1  0  0  0  0
 55 56  1  0  0  0  0
M  END
>  <MODEL>
4

>  <REMARK>
 VINA RESULT:      -6.3      2.628      4.481
  Name = 
  17 active torsions:
  status: ('A' for Active; 'I' for Inactive)
    1  A    between atoms: C_2  and  C_31
    2  A    between atoms: C_4  and  C_51
    3  A    between atoms: C_12  and  C_22
    4  A    between atoms: C_12  and  C_43
    5  A    between atoms: C_13  and  C_41
    6  A    between atoms: C_21  and  C_23
    7  A    between atoms: C_21  and  C_45
    8  A    between atoms: C_26  and  C_31
    9  A    between atoms: C_31  and  C_49
   10  A    between atoms: C_32  and  C_33
   11  A    between atoms: C_32  and  C_52
   12  A    between atoms: C_33  and  N_55
   13  A    between atoms: C_35  and  N_55
   14  A    between atoms: C_38  and  C_39
   15  A    between atoms: C_45  and  C_48
   16  A    between atoms: C_47  and  N_54
   17  A    between atoms: C_51  and  N_55
                            x       y       z     vdW  Elec       q    Type
                         _______ _______ _______ _____ _____    ______ ____

>  <TORSDO>
F 17

$$$$
=
 OpenBabel10232410443D

 56 60  0  0  1  0  0  0  0  0999 V2000
  186.1700  174.4170  135.8380 C   0  0  0  0  0  2  0  0  0  0  0  0
  187.2260  173.3490  135.5930 C   0  0  0  0  0  2  0  0  0  0  0  0
  186.6260  175.8050  135.3610 C   0  0  2  0  0  3  0  0  0  0  0  0
  189.5520  172.6620  136.1300 C   0  0  0  0  0  1  0  0  0  0  0  0
  189.0110  175.0960  136.0840 C   0  0  2  0  0  3  0  0  0  0  0  0
  188.1400  175.9450  135.1390 C   0  0  0  0  0  2  0  0  0  0  0  0
  188.4750  173.6920  136.3970 C   0  0  1  0  0  3  0  0  0  0  0  0
  190.1710  177.2250  139.6190 C   0  0  0  0  0  0  0  0  0  0  0  0
  191.1560  176.5970  138.8530 C   0  0  0  0  0  3  0  0  0  0  0  0
  190.7890  175.9020  137.6980 C   0  0  0  0  0  0  0  0  0  0  0  0
  190.5350  177.9380  140.7960 N   0  0  0  0  0  1  0  0  0  0  0  0
  188.8670  177.1540  139.2420 N   0  0  0  0  0  0  0  0  0  0  0  0
  189.4350  175.8390  137.3210 C   0  0  0  0  0  0  0  0  0  0  0  0
  188.4830  176.4810  138.1250 C   0  0  0  0  0  3  0  0  0  0  0  0
  192.6410  174.6700  136.2680 C   0  0  0  0  0  0  0  0  0  0  0  0
  191.8090  175.2460  136.9240 C   0  0  0  0  0  0  0  0  0  0  0  0
  193.6310  173.9390  135.4650 C   0  0  2  0  0  3  0  0  0  0  0  0
  193.8900  172.5360  136.0390 C   0  0  2  0  0  3  0  0  0  0  0  0
  193.0420  170.2680  135.3790 C   0  0  0  0  0  3  0  0  0  0  0  0
  195.2780  172.0160  135.6480 C   0  0  0  0  0  2  0  0  0  0  0  0
  192.8010  171.5650  135.6310 C   0  0  0  0  0  3  0  0  0  0  0  0
  194.4350  169.6910  135.3720 C   0  0  0  0  0  2  0  0  0  0  0  0
  196.7270  170.1340  135.8670 O   0  0  0  0  0  1  0  0  0  0  0  0
  195.4290  170.5760  136.1200 C   0  0  1  0  0  3  0  0  0  0  0  0
  197.2420  176.4260  135.7370 O   0  0  0  0  0  0  0  0  0  0  0  0
  195.0870  175.4910  134.3980 O   0  0  0  0  0  0  0  0  0  0  0  0
  197.8470  175.3680  137.6750 O   0  0  0  0  0  1  0  0  0  0  0  0
  195.8240  174.7180  136.4850 N   0  0  0  0  0  2  0  0  0  0  0  0
  196.9910  175.5390  136.5950 C   0  0  0  0  0  0  0  0  0  0  0  0
  194.8850  174.7560  135.4010 C   0  0  0  0  0  0  0  0  0  0  0  0
  186.1140  176.8970  136.2910 C   0  0  0  0  0  2  0  0  0  0  0  0
  182.9950  177.4680  134.3480 C   0  0  0  0  0  3  0  0  0  0  0  0
  182.0870  177.8670  135.3230 C   0  0  0  0  0  2  0  0  0  0  0  0
  184.2670  177.1620  134.7060 N   0  0  0  0  0  0  0  0  0  0  0  0
  184.6840  177.2280  136.0000 C   0  0  2  0  0  3  0  0  0  0  0  0
  182.4910  177.9410  136.6170 N   0  0  0  0  0  0  0  0  0  0  0  0
  183.7590  177.6310  136.9990 C   0  0  0  0  0  0  0  0  0  0  0  0
  183.7240  178.7260  139.1710 C   0  0  0  0  0  3  0  0  0  0  0  0
  184.0820  177.7550  138.3950 N   0  0  0  0  0  0  0  0  0  0  0  0
  184.1140  178.7280  140.6080 C   0  0  0  0  0  2  0  0  0  0  0  0
  185.6120  178.9340  140.7690 C   0  0  0  0  0  2  0  0  0  0  0  0
  185.5360  177.7850  144.0480 C   0  0  2  0  0  3  0  0  0  0  0  0
  185.1340  179.7700  142.9560 O   0  0  0  0  0  0  0  0  0  0  0  0
  186.0470  177.6570  142.7590 O   0  0  0  0  0  0  0  0  0  0  0  0
  186.0240  178.9620  142.2330 C   0  0  1  0  0  3  0  0  0  0  0  0
  185.1330  179.2160  144.2310 C   0  0  0  0  0  2  0  0  0  0  0  0
  186.4900  177.2530  145.1410 C   0  0  0  0  0  2  0  0  0  0  0  0
  187.1420  178.2510  146.0140 N   0  0  0  0  0  0  0  0  0  0  0  0
  188.7300  177.3650  147.5000 O   0  0  0  0  0  1  0  0  0  0  0  0
  188.5620  177.9500  146.2390 C   0  0  1  0  0  3  0  0  0  0  0  0
  189.0920  176.9860  145.1770 C   0  0  0  0  0  2  0  0  0  0  0  0
  191.3810  176.9500  146.1620 C   0  0  0  0  0  1  0  0  0  0  0  0
  191.0340  176.2890  143.8090 C   0  0  0  0  0  1  0  0  0  0  0  0
  190.5710  177.2210  144.9080 C   0  0  0  0  0  3  0  0  0  0  0  0
  186.4270  178.3570  147.2850 C   0  0  0  0  0  2  0  0  0  0  0  0
  185.8510  179.6220  147.4000 O   0  0  0  0  0  1  0  0  0  0  0  0
  2  1  1  0  0  0  0
  2  7  1  0  0  0  0
  3  1  1  0  0  0  0
  3 31  1  1  0  0  0
  5  7  1  0  0  0  0
  5 13  1  1  0  0  0
  6  3  1  0  0  0  0
  6  5  1  0  0  0  0
  7  4  1  6  0  0  0
  8 11  1  0  0  0  0
  9  8  2  0  0  0  0
 10  9  1  0  0  0  0
 12  8  1  0  0  0  0
 13 10  2  0  0  0  0
 13 14  1  0  0  0  0
 14 12  2  0  0  0  0
 15 16  3  0  0  0  0
 16 10  1  0  0  0  0
 17 15  1  1  0  0  0
 18 17  1  6  0  0  0
 19 21  2  0  0  0  0
 20 18  1  0  0  0  0
 20 24  1  0  0  0  0
 21 18  1  0  0  0  0
 22 19  1  0  0  0  0
 22 24  1  0  0  0  0
 24 23  1  6  0  0  0
 25 29  2  0  0  0  0
 26 30  2  0  0  0  0
 28 29  1  0  0  0  0
 29 27  1  0  0  0  0
 30 17  1  0  0  0  0
 30 28  1  0  0  0  0
 32 34  2  0  0  0  0
 32 33  1  0  0  0  0
 33 36  1  0  0  0  0
 34 35  1  0  0  0  0
 35 31  1  6  0  0  0
 35 37  1  0  0  0  0
 36 37  2  0  0  0  0
 37 39  1  0  0  0  0
 38 40  1  0  0  0  0
 39 38  2  0  0  0  0
 40 41  1  0  0  0  0
 42 46  1  0  0  0  0
 42 47  1  1  0  0  0
 43 46  1  0  0  0  0
 44 42  1  0  0  0  0
 45 41  1  6  0  0  0
 45 44  1  0  0  0  0
 45 43  1  0  0  0  0
 47 48  1  0  0  0  0
 48 50  1  0  0  0  0
 48 55  1  0  0  0  0
 50 49  1  1  0  0  0
 51 50  1  0  0  0  0
 53 54  1  0  0  0  0
 54 51  1  0  0  0  0
 54 52  1  0  0  0  0
 55 56  1  0  0  0  0
M  END
>  <MODEL>
5

>  <REMARK>
 VINA RESULT:      -6.2      3.422      9.130
  Name = 
  17 active torsions:
  status: ('A' for Active; 'I' for Inactive)
    1  A    between atoms: C_2  and  C_31
    2  A    between atoms: C_4  and  C_51
    3  A    between atoms: C_12  and  C_22
    4  A    between atoms: C_12  and  C_43
    5  A    between atoms: C_13  and  C_41
    6  A    between atoms: C_21  and  C_23
    7  A    between atoms: C_21  and  C_45
    8  A    between atoms: C_26  and  C_31
    9  A    between atoms: C_31  and  C_49
   10  A    between atoms: C_32  and  C_33
   11  A    between atoms: C_32  and  C_52
   12  A    between atoms: C_33  and  N_55
   13  A    between atoms: C_35  and  N_55
   14  A    between atoms: C_38  and  C_39
   15  A    between atoms: C_45  and  C_48
   16  A    between atoms: C_47  and  N_54
   17  A    between atoms: C_51  and  N_55
                            x       y       z     vdW  Elec       q    Type
                         _______ _______ _______ _____ _____    ______ ____

>  <TORSDO>
F 17

$$$$
=
 OpenBabel10232410443D

 56 60  0  0  1  0  0  0  0  0999 V2000
  187.9630  177.9210  139.1220 C   0  0  0  0  0  2  0  0  0  0  0  0
  186.8490  178.8300  139.6190 C   0  0  0  0  0  2  0  0  0  0  0  0
  187.9170  177.7230  137.5990 C   0  0  2  0  0  3  0  0  0  0  0  0
  184.3830  179.0950  139.7590 C   0  0  0  0  0  1  0  0  0  0  0  0
  185.3380  177.8500  137.8210 C   0  0  2  0  0  3  0  0  0  0  0  0
  186.5780  178.0960  136.9420 C   0  0  0  0  0  2  0  0  0  0  0  0
  185.5050  178.1820  139.3100 C   0  0  1  0  0  3  0  0  0  0  0  0
  183.6160  173.9750  137.1900 C   0  0  0  0  0  0  0  0  0  0  0  0
  182.7730  175.0850  137.2740 C   0  0  0  0  0  3  0  0  0  0  0  0
  183.3240  176.3530  137.4780 C   0  0  0  0  0  0  0  0  0  0  0  0
  183.0650  172.6790  136.9810 N   0  0  0  0  0  1  0  0  0  0  0  0
  184.9610  174.1310  137.3110 N   0  0  0  0  0  0  0  0  0  0  0  0
  184.7180  176.4970  137.5990 C   0  0  0  0  0  0  0  0  0  0  0  0
  185.5220  175.3530  137.5120 C   0  0  0  0  0  3  0  0  0  0  0  0
  181.6830  178.4190  137.6570 C   0  0  0  0  0  0  0  0  0  0  0  0
  182.4460  177.4880  137.5780 C   0  0  0  0  0  0  0  0  0  0  0  0
  180.7240  179.5300  137.7430 C   0  0  2  0  0  3  0  0  0  0  0  0
  181.1690  180.7200  136.8770 C   0  0  2  0  0  3  0  0  0  0  0  0
  180.7750  181.2820  134.4630 C   0  0  0  0  0  3  0  0  0  0  0  0
  180.3570  181.9810  137.1950 C   0  0  0  0  0  2  0  0  0  0  0  0
  181.1080  180.3810  135.4020 C   0  0  0  0  0  3  0  0  0  0  0  0
  180.3260  182.6790  134.8060 C   0  0  0  0  0  2  0  0  0  0  0  0
  180.0850  184.2670  136.5720 O   0  0  0  0  0  1  0  0  0  0  0  0
  180.7380  183.0860  136.2190 C   0  0  1  0  0  3  0  0  0  0  0  0
  180.0010  180.2700  142.0120 O   0  0  0  0  0  0  0  0  0  0  0  0
  180.4210  181.1270  139.4810 O   0  0  0  0  0  0  0  0  0  0  0  0
  180.3930  178.0640  142.4800 O   0  0  0  0  0  1  0  0  0  0  0  0
  180.5710  178.9000  140.1990 N   0  0  0  0  0  2  0  0  0  0  0  0
  180.3150  179.1260  141.5890 C   0  0  0  0  0  0  0  0  0  0  0  0
  180.5720  179.9120  139.1830 C   0  0  0  0  0  0  0  0  0  0  0  0
  188.3270  176.3070  137.2200 C   0  0  0  0  0  2  0  0  0  0  0  0
  190.6880  176.2620  134.3460 C   0  0  0  0  0  3  0  0  0  0  0  0
  191.9340  176.2380  134.9650 C   0  0  0  0  0  2  0  0  0  0  0  0
  189.5660  176.2900  135.1080 N   0  0  0  0  0  0  0  0  0  0  0  0
  189.6210  176.3020  136.4680 C   0  0  2  0  0  3  0  0  0  0  0  0
  192.0030  176.2460  136.3200 N   0  0  0  0  0  0  0  0  0  0  0  0
  190.8910  176.2830  137.1030 C   0  0  0  0  0  0  0  0  0  0  0  0
  191.7430  177.1550  139.2070 C   0  0  0  0  0  3  0  0  0  0  0  0
  191.0810  176.2770  138.5280 N   0  0  0  0  0  0  0  0  0  0  0  0
  191.8530  177.0410  140.6880 C   0  0  0  0  0  2  0  0  0  0  0  0
  190.4860  177.1390  141.3470 C   0  0  0  0  0  2  0  0  0  0  0  0
  189.3250  177.7280  144.5700 C   0  0  2  0  0  3  0  0  0  0  0  0
  191.1980  178.2510  143.3390 O   0  0  0  0  0  0  0  0  0  0  0  0
  189.3090  176.9250  143.4330 O   0  0  0  0  0  0  0  0  0  0  0  0
  190.5860  177.0810  142.8640 C   0  0  1  0  0  3  0  0  0  0  0  0
  190.6460  178.4320  144.6030 C   0  0  0  0  0  2  0  0  0  0  0  0
  188.9850  176.9610  145.8670 C   0  0  0  0  0  2  0  0  0  0  0  0
  187.7130  177.2980  146.5390 N   0  0  0  0  0  0  0  0  0  0  0  0
  185.8910  177.0080  145.0860 O   0  0  0  0  0  1  0  0  0  0  0  0
  186.7630  177.9570  145.6330 C   0  0  1  0  0  3  0  0  0  0  0  0
  185.9410  179.0100  146.3750 C   0  0  0  0  0  2  0  0  0  0  0  0
  185.3610  179.6430  144.0340 C   0  0  0  0  0  1  0  0  0  0  0  0
  183.6160  178.7800  145.5530 C   0  0  0  0  0  1  0  0  0  0  0  0
  184.8760  179.6160  145.4720 C   0  0  0  0  0  3  0  0  0  0  0  0
  187.9660  178.1260  147.7170 C   0  0  0  0  0  2  0  0  0  0  0  0
  189.3280  178.1180  148.0180 O   0  0  0  0  0  1  0  0  0  0  0  0
  1  2  1  0  0  0  0
  3 31  1  1  0  0  0
  3  1  1  0  0  0  0
  5 13  1  1  0  0  0
  5  7  1  0  0  0  0
  6  3  1  0  0  0  0
  6  5  1  0  0  0  0
  7  2  1  0  0  0  0
  7  4  1  6  0  0  0
  8  9  2  0  0  0  0
  8 12  1  0  0  0  0
  9 10  1  0  0  0  0
 10 16  1  0  0  0  0
 10 13  2  0  0  0  0
 11  8  1  0  0  0  0
 12 14  2  0  0  0  0
 14 13  1  0  0  0  0
 16 15  3  0  0  0  0
 17 15  1  1  0  0  0
 17 30  1  0  0  0  0
 18 20  1  0  0  0  0
 18 17  1  1  0  0  0
 19 22  1  0  0  0  0
 19 21  2  0  0  0  0
 21 18  1  0  0  0  0
 22 24  1  0  0  0  0
 24 23  1  1  0  0  0
 24 20  1  0  0  0  0
 28 29  1  0  0  0  0
 29 25  2  0  0  0  0
 29 27  1  0  0  0  0
 30 26  2  0  0  0  0
 30 28  1  0  0  0  0
 32 33  1  0  0  0  0
 32 34  2  0  0  0  0
 33 36  1  0  0  0  0
 34 35  1  0  0  0  0
 35 37  1  0  0  0  0
 35 31  1  1  0  0  0
 36 37  2  0  0  0  0
 37 39  1  0  0  0  0
 38 40  1  0  0  0  0
 39 38  2  0  0  0  0
 40 41  1  0  0  0  0
 42 46  1  0  0  0  0
 42 47  1  1  0  0  0
 43 46  1  0  0  0  0
 44 42  1  0  0  0  0
 45 41  1  6  0  0  0
 45 43  1  0  0  0  0
 45 44  1  0  0  0  0
 47 48  1  0  0  0  0
 48 55  1  0  0  0  0
 50 49  1  1  0  0  0
 50 51  1  0  0  0  0
 50 48  1  0  0  0  0
 52 54  1  0  0  0  0
 54 53  1  0  0  0  0
 54 51  1  0  0  0  0
 55 56  1  0  0  0  0
M  END
>  <MODEL>
6

>  <REMARK>
 VINA RESULT:      -5.3      2.653      4.383
  Name = 
  17 active torsions:
  status: ('A' for Active; 'I' for Inactive)
    1  A    between atoms: C_2  and  C_31
    2  A    between atoms: C_4  and  C_51
    3  A    between atoms: C_12  and  C_22
    4  A    between atoms: C_12  and  C_43
    5  A    between atoms: C_13  and  C_41
    6  A    between atoms: C_21  and  C_23
    7  A    between atoms: C_21  and  C_45
    8  A    between atoms: C_26  and  C_31
    9  A    between atoms: C_31  and  C_49
   10  A    between atoms: C_32  and  C_33
   11  A    between atoms: C_32  and  C_52
   12  A    between atoms: C_33  and  N_55
   13  A    between atoms: C_35  and  N_55
   14  A    between atoms: C_38  and  C_39
   15  A    between atoms: C_45  and  C_48
   16  A    between atoms: C_47  and  N_54
   17  A    between atoms: C_51  and  N_55
                            x       y       z     vdW  Elec       q    Type
                         _______ _______ _______ _____ _____    ______ ____

>  <TORSDO>
F 17

$$$$
=
 OpenBabel10232410443D

 56 60  0  0  1  0  0  0  0  0999 V2000
  190.1830  176.7110  136.2230 C   0  0  0  0  0  2  0  0  0  0  0  0
  189.3510  177.9840  136.2660 C   0  0  0  0  0  2  0  0  0  0  0  0
  189.5850  175.5950  137.0920 C   0  0  2  0  0  3  0  0  0  0  0  0
  188.4680  179.7590  137.7640 C   0  0  0  0  0  1  0  0  0  0  0  0
  188.8220  177.4760  138.7040 C   0  0  2  0  0  3  0  0  0  0  0  0
  188.5590  176.0700  138.1340 C   0  0  0  0  0  2  0  0  0  0  0  0
  189.3300  178.5160  137.6950 C   0  0  1  0  0  3  0  0  0  0  0  0
  191.1810  177.4020  142.2820 C   0  0  0  0  0  0  0  0  0  0  0  0
  189.8630  177.8570  142.3490 C   0  0  0  0  0  3  0  0  0  0  0  0
  189.0850  177.8850  141.1890 C   0  0  0  0  0  0  0  0  0  0  0  0
  191.9820  177.3690  143.4580 N   0  0  0  0  0  1  0  0  0  0  0  0
  191.7000  176.9920  141.0950 N   0  0  0  0  0  0  0  0  0  0  0  0
  189.6360  177.4560  139.9680 C   0  0  0  0  0  0  0  0  0  0  0  0
  190.9650  177.0110  139.9500 C   0  0  0  0  0  3  0  0  0  0  0  0
  186.6080  178.7970  141.3580 C   0  0  0  0  0  0  0  0  0  0  0  0
  187.7320  178.3700  141.2660 C   0  0  0  0  0  0  0  0  0  0  0  0
  185.2480  179.3360  141.5020 C   0  0  2  0  0  3  0  0  0  0  0  0
  184.8930  179.5690  142.9790 C   0  0  2  0  0  3  0  0  0  0  0  0
  182.9400  178.8370  144.3730 C   0  0  0  0  0  3  0  0  0  0  0  0
  185.7480  178.6990  143.9070 C   0  0  0  0  0  2  0  0  0  0  0  0
  183.4140  179.3570  143.2300 C   0  0  0  0  0  3  0  0  0  0  0  0
  183.8430  178.3160  145.4620 C   0  0  0  0  0  2  0  0  0  0  0  0
  186.1070  178.1610  146.2030 O   0  0  0  0  0  1  0  0  0  0  0  0
  185.2640  178.8630  145.3410 C   0  0  1  0  0  3  0  0  0  0  0  0
  182.1720  176.9380  139.4790 O   0  0  0  0  0  1  0  0  0  0  0  0
  184.0820  177.2650  141.3660 O   0  0  0  0  0  0  0  0  0  0  0  0
  182.0450  178.4850  137.7980 O   0  0  0  0  0  0  0  0  0  0  0  0
  183.6120  178.7800  139.6390 N   0  0  0  0  0  2  0  0  0  0  0  0
  182.5920  178.0170  138.9850 C   0  0  0  0  0  0  0  0  0  0  0  0
  184.2930  178.3900  140.8400 C   0  0  0  0  0  0  0  0  0  0  0  0
  190.6810  174.7710  137.7540 C   0  0  0  0  0  2  0  0  0  0  0  0
  193.9830  175.6830  136.3040 C   0  0  0  0  0  3  0  0  0  0  0  0
  194.1720  174.7150  135.3230 C   0  0  0  0  0  3  0  0  0  0  0  0
  192.8550  175.6550  137.0590 N   0  0  0  0  0  0  0  0  0  0  0  0
  191.9010  174.7010  136.8890 C   0  0  0  0  0  0  0  0  0  0  0  0
  193.2260  173.7590  135.1410 N   0  0  0  0  0  0  0  0  0  0  0  0
  192.0930  173.7080  135.8920 C   0  0  0  0  0  0  0  0  0  0  0  0
  189.9720  172.8170  135.1020 C   0  0  0  0  0  3  0  0  0  0  0  0
  191.1520  172.6580  135.6060 N   0  0  0  0  0  0  0  0  0  0  0  0
  189.0980  171.6400  134.8400 C   0  0  0  0  0  2  0  0  0  0  0  0
  187.6760  172.0750  134.5200 C   0  0  0  0  0  2  0  0  0  0  0  0
  184.8020  172.6990  136.3720 C   0  0  2  0  0  3  0  0  0  0  0  0
  187.0740  172.7440  136.7330 O   0  0  0  0  0  0  0  0  0  0  0  0
  185.4030  172.0400  135.3030 O   0  0  0  0  0  0  0  0  0  0  0  0
  186.7400  171.8570  135.6990 C   0  0  1  0  0  3  0  0  0  0  0  0
  185.8680  172.9700  137.3880 C   0  0  0  0  0  2  0  0  0  0  0  0
  183.5680  171.9570  136.9330 C   0  0  0  0  0  2  0  0  0  0  0  0
  182.5290  171.5460  135.9670 N   0  0  0  0  0  0  0  0  0  0  0  0
  180.6630  171.3510  137.3800 O   0  0  0  0  0  1  0  0  0  0  0  0
  181.2050  172.0800  136.3140 C   0  0  1  0  0  3  0  0  0  0  0  0
  181.2970  173.5500  136.7210 C   0  0  0  0  0  2  0  0  0  0  0  0
  180.8790  175.9120  136.0430 C   0  0  0  0  0  1  0  0  0  0  0  0
  181.8330  174.3090  134.4250 C   0  0  0  0  0  1  0  0  0  0  0  0
  180.8700  174.4660  135.5830 C   0  0  0  0  0  3  0  0  0  0  0  0
  182.4870  170.0890  135.8550 C   0  0  0  0  0  2  0  0  0  0  0  0
  182.8860  169.7010  134.5760 O   0  0  0  0  0  1  0  0  0  0  0  0
  1  2  1  0  0  0  0
  1  3  1  0  0  0  0
  2  7  1  0  0  0  0
  3 31  1  1  0  0  0
  3  6  1  0  0  0  0
  5 13  1  1  0  0  0
  6  5  1  0  0  0  0
  7  4  1  6  0  0  0
  7  5  1  0  0  0  0
  8  9  1  0  0  0  0
  8 11  1  0  0  0  0
 10 16  1  0  0  0  0
 10  9  2  0  0  0  0
 12  8  2  0  0  0  0
 13 10  1  0  0  0  0
 14 13  2  0  0  0  0
 14 12  1  0  0  0  0
 16 15  3  0  0  0  0
 17 15  1  1  0  0  0
 18 17  1  6  0  0  0
 18 21  1  0  0  0  0
 18 20  1  0  0  0  0
 19 22  1  0  0  0  0
 20 24  1  0  0  0  0
 21 19  2  0  0  0  0
 24 22  1  0  0  0  0
 24 23  1  1  0  0  0
 27 29  2  0  0  0  0
 28 30  1  0  0  0  0
 29 25  1  0  0  0  0
 29 28  1  0  0  0  0
 30 26  2  0  0  0  0
 30 17  1  0  0  0  0
 32 34  1  0  0  0  0
 33 32  2  0  0  0  0
 35 34  2  0  0  0  0
 35 31  1  0  0  0  0
 36 33  1  0  0  0  0
 36 37  2  0  0  0  0
 37 35  1  0  0  0  0
 38 39  2  0  0  0  0
 39 37  1  0  0  0  0
 40 38  1  0  0  0  0
 41 40  1  0  0  0  0
 42 47  1  1  0  0  0
 42 46  1  0  0  0  0
 43 46  1  0  0  0  0
 44 45  1  0  0  0  0
 44 42  1  0  0  0  0
 45 41  1  6  0  0  0
 45 43  1  0  0  0  0
 48 50  1  0  0  0  0
 48 47  1  0  0  0  0
 50 51  1  0  0  0  0
 50 49  1  1  0  0  0
 53 54  1  0  0  0  0
 54 52  1  0  0  0  0
 54 51  1  0  0  0  0
 55 48  1  0  0  0  0
 56 55  1  0  0  0  0
M  END
>  <MODEL>
7

>  <REMARK>
 VINA RESULT:      -5.2      2.423      7.333
  Name = 
  17 active torsions:
  status: ('A' for Active; 'I' for Inactive)
    1  A    between atoms: C_2  and  C_31
    2  A    between atoms: C_4  and  C_51
    3  A    between atoms: C_12  and  C_22
    4  A    between atoms: C_12  and  C_43
    5  A    between atoms: C_13  and  C_41
    6  A    between atoms: C_21  and  C_23
    7  A    between atoms: C_21  and  C_45
    8  A    between atoms: C_26  and  C_31
    9  A    between atoms: C_31  and  C_49
   10  A    between atoms: C_32  and  C_33
   11  A    between atoms: C_32  and  C_52
   12  A    between atoms: C_33  and  N_55
   13  A    between atoms: C_35  and  N_55
   14  A    between atoms: C_38  and  C_39
   15  A    between atoms: C_45  and  C_48
   16  A    between atoms: C_47  and  N_54
   17  A    between atoms: C_51  and  N_55
                            x       y       z     vdW  Elec       q    Type
                         _______ _______ _______ _____ _____    ______ ____

>  <TORSDO>
F 17

$$$$
=
 OpenBabel10232410443D

 56 60  0  0  1  0  0  0  0  0999 V2000
  187.3380  179.1450  142.9270 C   0  0  0  0  0  2  0  0  0  0  0  0
  187.1120  179.1800  141.4230 C   0  0  0  0  0  2  0  0  0  0  0  0
  186.7900  177.8610  143.5680 C   0  0  2  0  0  3  0  0  0  0  0  0
  185.3720  179.1560  139.6500 C   0  0  0  0  0  1  0  0  0  0  0  0
  184.9040  177.9690  141.7930 C   0  0  2  0  0  3  0  0  0  0  0  0
  185.7820  177.0890  142.7020 C   0  0  0  0  0  2  0  0  0  0  0  0
  185.6140  179.1670  141.1450 C   0  0  1  0  0  3  0  0  0  0  0  0
  181.2000  179.0740  143.6470 C   0  0  0  0  0  0  0  0  0  0  0  0
  181.1820  178.5720  142.3440 C   0  0  0  0  0  3  0  0  0  0  0  0
  182.3830  178.2080  141.7310 C   0  0  0  0  0  0  0  0  0  0  0  0
  179.9820  179.4460  144.2820 N   0  0  0  0  0  1  0  0  0  0  0  0
  182.3800  179.2080  144.3080 N   0  0  0  0  0  0  0  0  0  0  0  0
  183.5960  178.3520  142.4300 C   0  0  0  0  0  0  0  0  0  0  0  0
  183.5630  178.8640  143.7340 C   0  0  0  0  0  3  0  0  0  0  0  0
  182.3020  177.2710  139.2600 C   0  0  0  0  0  0  0  0  0  0  0  0
  182.3560  177.7060  140.3830 C   0  0  0  0  0  0  0  0  0  0  0  0
  182.2040  176.7210  137.9000 C   0  0  2  0  0  3  0  0  0  0  0  0
  183.5610  176.1860  137.4150 C   0  0  2  0  0  3  0  0  0  0  0  0
  184.1990  174.7520  135.4560 C   0  0  0  0  0  3  0  0  0  0  0  0
  184.3940  177.2860  136.7470 C   0  0  0  0  0  2  0  0  0  0  0  0
  183.3860  174.9920  136.4980 C   0  0  0  0  0  3  0  0  0  0  0  0
  185.2880  175.7090  135.0420 C   0  0  0  0  0  2  0  0  0  0  0  0
  186.4740  177.6880  135.6520 O   0  0  0  0  0  1  0  0  0  0  0  0
  185.6610  176.6770  136.1630 C   0  0  1  0  0  3  0  0  0  0  0  0
  180.4310  180.0380  135.6300 O   0  0  0  0  0  0  0  0  0  0  0  0
  181.2360  177.4660  135.8570 O   0  0  0  0  0  0  0  0  0  0  0  0
  181.1060  181.5220  137.2370 O   0  0  0  0  0  1  0  0  0  0  0  0
  181.6290  179.1520  137.4390 N   0  0  0  0  0  2  0  0  0  0  0  0
  181.0340  180.2370  136.7180 C   0  0  0  0  0  0  0  0  0  0  0  0
  181.6690  177.7880  136.9950 C   0  0  0  0  0  0  0  0  0  0  0  0
  186.2090  178.1440  144.9470 C   0  0  0  0  0  2  0  0  0  0  0  0
  187.8780  178.3700  148.2630 C   0  0  0  0  0  3  0  0  0  0  0  0
  189.0690  177.6790  148.0620 C   0  0  0  0  0  2  0  0  0  0  0  0
  186.9940  178.4860  147.2400 N   0  0  0  0  0  0  0  0  0  0  0  0
  187.2340  177.9390  146.0180 C   0  0  2  0  0  3  0  0  0  0  0  0
  189.3220  177.1310  146.8460 N   0  0  0  0  0  0  0  0  0  0  0  0
  188.4460  177.2280  145.8100 C   0  0  0  0  0  0  0  0  0  0  0  0
  189.9420  176.7960  143.9420 C   0  0  0  0  0  3  0  0  0  0  0  0
  188.8220  176.6200  144.5620 N   0  0  0  0  0  0  0  0  0  0  0  0
  190.2140  176.0920  142.6580 C   0  0  0  0  0  2  0  0  0  0  0  0
  190.6540  177.0700  141.5800 C   0  0  0  0  0  2  0  0  0  0  0  0
  190.8160  177.0450  138.1080 C   0  0  2  0  0  3  0  0  0  0  0  0
  189.2350  177.5220  139.7110 O   0  0  0  0  0  0  0  0  0  0  0  0
  191.2980  176.5590  139.3210 O   0  0  0  0  0  0  0  0  0  0  0  0
  190.2000  176.6270  140.1970 C   0  0  1  0  0  3  0  0  0  0  0  0
  189.4010  177.4810  138.3310 C   0  0  0  0  0  2  0  0  0  0  0  0
  190.9950  176.0530  136.9360 C   0  0  0  0  0  2  0  0  0  0  0  0
  191.8520  174.8730  137.1740 N   0  0  0  0  0  0  0  0  0  0  0  0
  193.1320  176.0110  135.5670 O   0  0  0  0  0  1  0  0  0  0  0  0
  193.1710  175.0070  136.5440 C   0  0  1  0  0  3  0  0  0  0  0  0
  194.2370  175.3700  137.5770 C   0  0  0  0  0  2  0  0  0  0  0  0
  194.9820  173.1650  138.4710 C   0  0  0  0  0  1  0  0  0  0  0  0
  195.6110  173.8520  136.1840 C   0  0  0  0  0  1  0  0  0  0  0  0
  195.3610  174.3440  137.5940 C   0  0  0  0  0  3  0  0  0  0  0  0
  191.1790  173.6580  136.7160 C   0  0  0  0  0  2  0  0  0  0  0  0
  189.9410  173.5360  137.3460 O   0  0  0  0  0  1  0  0  0  0  0  0
  1  3  1  0  0  0  0
  2  1  1  0  0  0  0
  3 31  1  1  0  0  0
  5 13  1  1  0  0  0
  5  6  1  0  0  0  0
  6  3  1  0  0  0  0
  7  4  1  6  0  0  0
  7  2  1  0  0  0  0
  7  5  1  0  0  0  0
  8 11  1  0  0  0  0
  8 12  1  0  0  0  0
  9  8  2  0  0  0  0
 10  9  1  0  0  0  0
 10 13  2  0  0  0  0
 13 14  1  0  0  0  0
 14 12  2  0  0  0  0
 15 16  3  0  0  0  0
 16 10  1  0  0  0  0
 17 15  1  1  0  0  0
 18 17  1  6  0  0  0
 19 21  2  0  0  0  0
 20 18  1  0  0  0  0
 21 18  1  0  0  0  0
 22 19  1  0  0  0  0
 22 24  1  0  0  0  0
 24 23  1  6  0  0  0
 24 20  1  0  0  0  0
 25 29  2  0  0  0  0
 26 30  2  0  0  0  0
 29 27  1  0  0  0  0
 29 28  1  0  0  0  0
 30 28  1  0  0  0  0
 30 17  1  0  0  0  0
 33 32  1  0  0  0  0
 34 32  2  0  0  0  0
 35 31  1  6  0  0  0
 35 34  1  0  0  0  0
 36 33  1  0  0  0  0
 37 35  1  0  0  0  0
 37 36  2  0  0  0  0
 38 39  2  0  0  0  0
 39 37  1  0  0  0  0
 40 38  1  0  0  0  0
 41 40  1  0  0  0  0
 42 47  1  6  0  0  0
 42 46  1  0  0  0  0
 42 44  1  0  0  0  0
 43 45  1  0  0  0  0
 44 45  1  0  0  0  0
 45 41  1  1  0  0  0
 46 43  1  0  0  0  0
 47 48  1  0  0  0  0
 50 49  1  6  0  0  0
 50 48  1  0  0  0  0
 50 51  1  0  0  0  0
 51 54  1  0  0  0  0
 53 54  1  0  0  0  0
 54 52  1  0  0  0  0
 55 48  1  0  0  0  0
 55 56  1  0  0  0  0
M  END
>  <MODEL>
8

>  <REMARK>
 VINA RESULT:      -5.2      2.771      8.228
  Name = 
  17 active torsions:
  status: ('A' for Active; 'I' for Inactive)
    1  A    between atoms: C_2  and  C_31
    2  A    between atoms: C_4  and  C_51
    3  A    between atoms: C_12  and  C_22
    4  A    between atoms: C_12  and  C_43
    5  A    between atoms: C_13  and  C_41
    6  A    between atoms: C_21  and  C_23
    7  A    between atoms: C_21  and  C_45
    8  A    between atoms: C_26  and  C_31
    9  A    between atoms: C_31  and  C_49
   10  A    between atoms: C_32  and  C_33
   11  A    between atoms: C_32  and  C_52
   12  A    between atoms: C_33  and  N_55
   13  A    between atoms: C_35  and  N_55
   14  A    between atoms: C_38  and  C_39
   15  A    between atoms: C_45  and  C_48
   16  A    between atoms: C_47  and  N_54
   17  A    between atoms: C_51  and  N_55
                            x       y       z     vdW  Elec       q    Type
                         _______ _______ _______ _____ _____    ______ ____

>  <TORSDO>
F 17

$$$$
=
 OpenBabel10232410443D

 56 60  0  0  1  0  0  0  0  0999 V2000
  187.9110  179.0240  142.8460 C   0  0  0  0  0  2  0  0  0  0  0  0
  187.8410  178.8020  141.3420 C   0  0  0  0  0  2  0  0  0  0  0  0
  187.2320  177.8920  143.6330 C   0  0  2  0  0  3  0  0  0  0  0  0
  186.2910  178.5300  139.4210 C   0  0  0  0  0  1  0  0  0  0  0  0
  185.5450  177.7540  141.6700 C   0  0  2  0  0  3  0  0  0  0  0  0
  186.2770  177.0160  142.8060 C   0  0  0  0  0  2  0  0  0  0  0  0
  186.3800  178.7940  140.9090 C   0  0  1  0  0  3  0  0  0  0  0  0
  181.7370  179.2960  142.8940 C   0  0  0  0  0  0  0  0  0  0  0  0
  181.8290  178.5960  141.6890 C   0  0  0  0  0  3  0  0  0  0  0  0
  183.0650  178.0880  141.2810 C   0  0  0  0  0  0  0  0  0  0  0  0
  180.4820  179.8160  143.3190 N   0  0  0  0  0  1  0  0  0  0  0  0
  182.8440  179.4820  143.6590 N   0  0  0  0  0  0  0  0  0  0  0  0
  184.2010  178.2880  142.0850 C   0  0  0  0  0  0  0  0  0  0  0  0
  184.0600  179.0010  143.2840 C   0  0  0  0  0  3  0  0  0  0  0  0
  183.1910  176.7880  138.9820 C   0  0  0  0  0  0  0  0  0  0  0  0
  183.1520  177.3820  140.0300 C   0  0  0  0  0  0  0  0  0  0  0  0
  183.2000  176.0570  137.7070 C   0  0  2  0  0  3  0  0  0  0  0  0
  182.4510  174.7200  137.8240 C   0  0  2  0  0  3  0  0  0  0  0  0
  180.0400  174.1770  138.2650 C   0  0  0  0  0  3  0  0  0  0  0  0
  182.2360  174.0730  136.4510 C   0  0  0  0  0  2  0  0  0  0  0  0
  181.1400  174.8860  138.5660 C   0  0  0  0  0  3  0  0  0  0  0  0
  179.9820  173.2350  137.0890 C   0  0  0  0  0  2  0  0  0  0  0  0
  181.2660  172.1750  135.3800 O   0  0  0  0  0  1  0  0  0  0  0  0
  181.3730  172.8290  136.6070 C   0  0  1  0  0  3  0  0  0  0  0  0
  187.4200  175.2050  136.8330 O   0  0  0  0  0  0  0  0  0  0  0  0
  185.2810  176.8590  136.8760 O   0  0  0  0  0  0  0  0  0  0  0  0
  187.0590  172.9710  137.1750 O   0  0  0  0  0  1  0  0  0  0  0  0
  185.2290  174.5670  137.3660 N   0  0  0  0  0  2  0  0  0  0  0  0
  186.6070  174.2820  137.1060 C   0  0  0  0  0  0  0  0  0  0  0  0
  184.6230  175.8650  137.2820 C   0  0  0  0  0  0  0  0  0  0  0  0
  186.5300  178.4330  144.8710 C   0  0  0  0  0  2  0  0  0  0  0  0
  187.3270  178.0930  148.4880 C   0  0  0  0  0  3  0  0  0  0  0  0
  188.6270  177.6000  148.4780 C   0  0  0  0  0  2  0  0  0  0  0  0
  186.6960  178.3370  147.3120 N   0  0  0  0  0  0  0  0  0  0  0  0
  187.2990  178.1070  146.1130 C   0  0  2  0  0  3  0  0  0  0  0  0
  189.2410  177.3690  147.2890 N   0  0  0  0  0  0  0  0  0  0  0  0
  188.6240  177.5990  146.0980 C   0  0  0  0  0  0  0  0  0  0  0  0
  190.5370  176.7710  144.8440 C   0  0  0  0  0  3  0  0  0  0  0  0
  189.3730  177.3300  144.9000 N   0  0  0  0  0  0  0  0  0  0  0  0
  191.2010  176.5350  143.5320 C   0  0  0  0  0  2  0  0  0  0  0  0
  190.1750  176.3830  142.4200 C   0  0  0  0  0  2  0  0  0  0  0  0
  191.6100  176.3820  139.2540 C   0  0  2  0  0  3  0  0  0  0  0  0
  191.9760  177.4440  141.2620 O   0  0  0  0  0  0  0  0  0  0  0  0
  190.4840  176.1690  140.0450 O   0  0  0  0  0  0  0  0  0  0  0  0
  190.6370  177.0480  141.1320 C   0  0  1  0  0  3  0  0  0  0  0  0
  192.4780  177.3730  139.9670 C   0  0  0  0  0  2  0  0  0  0  0  0
  191.2710  176.7720  137.7970 C   0  0  0  0  0  2  0  0  0  0  0  0
  191.0060  175.6720  136.8480 N   0  0  0  0  0  0  0  0  0  0  0  0
  191.9410  173.9640  135.5360 O   0  0  0  0  0  1  0  0  0  0  0  0
  192.2130  174.8910  136.5500 C   0  0  1  0  0  3  0  0  0  0  0  0
  193.3540  175.8000  136.0910 C   0  0  0  0  0  2  0  0  0  0  0  0
  194.5430  174.5990  137.9240 C   0  0  0  0  0  1  0  0  0  0  0  0
  195.2470  174.2890  135.5780 C   0  0  0  0  0  1  0  0  0  0  0  0
  194.7000  175.2840  136.5780 C   0  0  0  0  0  3  0  0  0  0  0  0
  190.4110  176.1960  135.6190 C   0  0  0  0  0  2  0  0  0  0  0  0
  189.7170  177.3740  135.8930 O   0  0  0  0  0  1  0  0  0  0  0  0
  1  3  1  0  0  0  0
  2  1  1  0  0  0  0
  3 31  1  1  0  0  0
  5 13  1  1  0  0  0
  5  6  1  0  0  0  0
  6  3  1  0  0  0  0
  7  4  1  6  0  0  0
  7  2  1  0  0  0  0
  7  5  1  0  0  0  0
  8 11  1  0  0  0  0
  8 12  1  0  0  0  0
  9  8  2  0  0  0  0
 10  9  1  0  0  0  0
 10 13  2  0  0  0  0
 13 14  1  0  0  0  0
 14 12  2  0  0  0  0
 15 16  3  0  0  0  0
 16 10  1  0  0  0  0
 17 15  1  1  0  0  0
 18 17  1  6  0  0  0
 18 21  1  0  0  0  0
 19 21  2  0  0  0  0
 20 24  1  0  0  0  0
 20 18  1  0  0  0  0
 22 19  1  0  0  0  0
 24 23  1  6  0  0  0
 24 22  1  0  0  0  0
 25 29  2  0  0  0  0
 26 30  2  0  0  0  0
 29 27  1  0  0  0  0
 29 28  1  0  0  0  0
 30 28  1  0  0  0  0
 30 17  1  0  0  0  0
 33 32  1  0  0  0  0
 34 32  2  0  0  0  0
 35 31  1  1  0  0  0
 35 34  1  0  0  0  0
 36 33  1  0  0  0  0
 37 35  1  0  0  0  0
 37 36  2  0  0  0  0
 38 39  2  0  0  0  0
 39 37  1  0  0  0  0
 40 38  1  0  0  0  0
 41 40  1  0  0  0  0
 42 47  1  6  0  0  0
 42 46  1  0  0  0  0
 42 44  1  0  0  0  0
 44 45  1  0  0  0  0
 45 43  1  0  0  0  0
 45 41  1  1  0  0  0
 46 43  1  0  0  0  0
 48 47  1  0  0  0  0
 50 49  1  6  0  0  0
 50 48  1  0  0  0  0
 51 50  1  0  0  0  0
 51 54  1  0  0  0  0
 53 54  1  0  0  0  0
 54 52  1  0  0  0  0
 55 56  1  0  0  0  0
 55 48  1  0  0  0  0
M  END
>  <MODEL>
9

>  <REMARK>
 VINA RESULT:      -5.1      2.792      7.966
  Name = 
  17 active torsions:
  status: ('A' for Active; 'I' for Inactive)
    1  A    between atoms: C_2  and  C_31
    2  A    between atoms: C_4  and  C_51
    3  A    between atoms: C_12  and  C_22
    4  A    between atoms: C_12  and  C_43
    5  A    between atoms: C_13  and  C_41
    6  A    between atoms: C_21  and  C_23
    7  A    between atoms: C_21  and  C_45
    8  A    between atoms: C_26  and  C_31
    9  A    between atoms: C_31  and  C_49
   10  A    between atoms: C_32  and  C_33
   11  A    between atoms: C_32  and  C_52
   12  A    between atoms: C_33  and  N_55
   13  A    between atoms: C_35  and  N_55
   14  A    between atoms: C_38  and  C_39
   15  A    between atoms: C_45  and  C_48
   16  A    between atoms: C_47  and  N_54
   17  A    between atoms: C_51  and  N_55
                            x       y       z     vdW  Elec       q    Type
                         _______ _______ _______ _____ _____    ______ ____

>  <TORSDO>
F 17

$$$$
