=
 OpenBabel10232410283D

 43 47  0  0  1  0  0  0  0  0999 V2000
  191.5570  175.7710  138.3920 C   0  0  0  0  0  3  0  0  0  0  0  0
  189.3970  176.0700  137.7440 C   0  0  1  0  0  3  0  0  0  0  0  0
  189.7120  177.1820  138.3980 C   0  0  1  0  0  3  0  0  0  0  0  0
  189.5280  177.2800  140.8060 C   0  0  1  0  0  3  0  0  0  0  0  0
  188.5970  178.0670  139.4480 S   0  0  0  0  0  0  0  0  0  0  0  0
  191.1100  177.1160  138.8850 C   0  0  1  0  0  3  0  0  0  0  0  0
  190.5700  175.2140  137.7070 C   0  0  0  0  0  0  0  0  0  0  0  0
  191.0060  177.1720  140.4080 C   0  0  0  0  0  2  0  0  0  0  0  0
  191.8670  173.3900  136.5280 C   0  0  0  0  0  1  0  0  0  0  0  0
  190.6540  173.9080  137.1330 N   0  0  0  0  0  2  0  0  0  0  0  0
  188.1240  175.7000  137.3060 O   0  0  0  0  0  0  0  0  0  0  0  0
  187.1150  176.6260  137.1610 N   0  0  0  0  0  2  0  0  0  0  0  0
  184.0210  175.0440  136.0780 C   0  0  1  0  0  3  0  0  0  0  0  0
  184.9320  177.1370  136.3730 N   0  0  0  0  0  0  0  0  0  0  0  0
  185.4910  173.8830  137.3820 C   0  0  0  0  0  3  0  0  0  0  0  0
  185.4770  174.8580  136.2480 C   0  0  2  0  0  3  0  0  0  0  0  0
  184.2950  173.5440  137.7370 N   0  0  0  0  0  0  0  0  0  0  0  0
  185.8550  176.2570  136.6090 C   0  0  0  0  0  0  0  0  0  0  0  0
  183.3710  174.2990  136.9660 C   0  0  0  0  0  2  0  0  0  0  0  0
  183.7360  176.4960  135.8380 C   0  0  2  0  0  3  0  0  0  0  0  0
  182.4970  177.0060  136.5180 C   0  0  0  0  0  0  0  0  0  0  0  0
  182.6240  177.7980  137.7000 N   0  0  0  0  0  2  0  0  0  0  0  0
  181.3590  176.7850  136.0190 O   0  0  0  0  0  0  0  0  0  0  0  0
  181.4280  179.8300  138.2460 C   0  0  0  0  0  1  0  0  0  0  0  0
  181.4690  178.3230  138.4140 C   0  0  2  0  0  3  0  0  0  0  0  0
  181.5730  177.9690  139.8890 C   0  0  0  0  0  2  0  0  0  0  0  0
  183.0160  177.6730  140.2560 C   0  0  0  0  0  2  0  0  0  0  0  0
  184.9550  178.9660  140.2680 C   0  0  0  0  0  1  0  0  0  0  0  0
  183.8120  178.5730  142.2570 C   0  0  0  0  0  1  0  0  0  0  0  0
  183.6270  178.8540  140.8430 N   0  0  0  0  0  0  0  0  0  0  0  0
  189.3900  178.0530  142.0330 N   0  0  0  0  0  2  0  0  0  0  0  0
  189.6570  177.1400  145.4580 C   0  0  0  0  0  0  0  0  0  0  0  0
  188.6200  177.3700  146.2790 C   0  0  0  0  0  0  0  0  0  0  0  0
  188.7290  177.5600  143.2040 C   0  0  0  0  0  0  0  0  0  0  0  0
  187.4530  177.8770  143.4510 C   0  0  0  0  0  3  0  0  0  0  0  0
  186.6950  177.4490  144.6390 C   0  0  0  0  0  3  0  0  0  0  0  0
  189.4550  176.5920  144.0740 C   0  0  0  0  0  2  0  0  0  0  0  0
  187.2010  177.2230  145.8590 C   0  0  0  0  0  3  0  0  0  0  0  0
  188.9030  177.7490  147.5970 O   0  0  0  0  0  0  0  0  0  0  0  0
  187.9400  178.3460  148.4530 C   0  0  0  0  0  1  0  0  0  0  0  0
  190.9540  177.3740  145.9340 O   0  0  0  0  0  0  0  0  0  0  0  0
  191.7950  176.3470  146.4390 C   0  0  0  0  0  2  0  0  0  0  0  0
  192.1350  176.6220  147.7650 O   0  0  0  0  0  1  0  0  0  0  0  0
  2 11  1  1  0  0  0
  2  3  1  0  0  0  0
  3  6  1  0  0  0  0
  3  5  1  1  0  0  0
  4 31  1  1  0  0  0
  5  4  1  0  0  0  0
  6  1  1  1  0  0  0
  6  8  1  0  0  0  0
  7  2  1  0  0  0  0
  7  1  2  0  0  0  0
  8  4  1  0  0  0  0
  9 10  1  0  0  0  0
 10  7  1  0  0  0  0
 12 11  1  0  0  0  0
 13 16  1  0  0  0  0
 13 19  1  1  0  0  0
 14 18  2  0  0  0  0
 15 17  2  0  0  0  0
 16 18  1  0  0  0  0
 16 15  1  1  0  0  0
 18 12  1  0  0  0  0
 19 17  1  0  0  0  0
 20 13  1  0  0  0  0
 20 14  1  0  0  0  0
 20 21  1  1  0  0  0
 21 22  1  0  0  0  0
 22 25  1  0  0  0  0
 23 21  2  0  0  0  0
 25 24  1  1  0  0  0
 25 26  1  0  0  0  0
 26 27  1  0  0  0  0
 27 30  1  0  0  0  0
 28 30  1  0  0  0  0
 30 29  1  0  0  0  0
 31 34  1  0  0  0  0
 32 41  1  0  0  0  0
 32 33  2  0  0  0  0
 33 39  1  0  0  0  0
 34 35  2  0  0  0  0
 34 37  1  0  0  0  0
 35 36  1  0  0  0  0
 36 38  2  0  0  0  0
 37 32  1  0  0  0  0
 38 33  1  0  0  0  0
 39 40  1  0  0  0  0
 41 42  1  0  0  0  0
 42 43  1  0  0  0  0
M  END
>  <MODEL>
1

>  <REMARK>
 VINA RESULT:      -7.6      0.000      0.000
  Name = 
  13 active torsions:
  status: ('A' for Active; 'I' for Inactive)
    1  A    between atoms: C_2  and  O_18
    2  A    between atoms: O_4  and  C_12
    3  A    between atoms: C_6  and  C_14
    4  A    between atoms: C_6  and  N_25
    5  A    between atoms: C_8  and  O_11
    6  A    between atoms: N_10  and  O_11
    7  A    between atoms: C_13  and  C_41
    8  A    between atoms: C_14  and  C_22
    9  A    between atoms: C_15  and  N_23
   10  A    between atoms: N_17  and  C_22
   11  A    between atoms: O_18  and  C_30
   12  A    between atoms: N_23  and  C_28
   13  A    between atoms: N_26  and  C_38
                            x       y       z     vdW  Elec       q    Type
                         _______ _______ _______ _____ _____    ______ ____

>  <TORSDO>
F 13

$$$$
=
 OpenBabel10232410283D

 43 47  0  0  1  0  0  0  0  0999 V2000
  191.0580  173.7440  134.9760 C   0  0  0  0  0  3  0  0  0  0  0  0
  190.7770  175.4520  136.4510 C   0  0  1  0  0  3  0  0  0  0  0  0
  192.0580  175.5090  136.1050 C   0  0  1  0  0  3  0  0  0  0  0  0
  193.6950  174.1370  137.2370 C   0  0  1  0  0  3  0  0  0  0  0  0
  193.3690  175.9330  137.2150 S   0  0  0  0  0  0  0  0  0  0  0  0
  192.3800  174.4330  135.1390 C   0  0  1  0  0  3  0  0  0  0  0  0
  190.1510  174.3740  135.7060 C   0  0  0  0  0  0  0  0  0  0  0  0
  193.4120  173.5560  135.8460 C   0  0  0  0  0  2  0  0  0  0  0  0
  188.3350  173.0010  136.8110 C   0  0  0  0  0  1  0  0  0  0  0  0
  188.7900  173.9470  135.8080 N   0  0  0  0  0  2  0  0  0  0  0  0
  190.1630  176.1830  137.4700 O   0  0  0  0  0  0  0  0  0  0  0  0
  190.2950  175.8270  138.7940 N   0  0  0  0  0  2  0  0  0  0  0  0
  188.9350  178.3900  140.9910 C   0  0  1  0  0  3  0  0  0  0  0  0
  190.1790  176.4550  141.0820 N   0  0  0  0  0  0  0  0  0  0  0  0
  188.0270  178.0730  138.9210 C   0  0  0  0  0  3  0  0  0  0  0  0
  189.3550  178.0840  139.6080 C   0  0  2  0  0  3  0  0  0  0  0  0
  187.0650  178.3700  139.7330 N   0  0  0  0  0  0  0  0  0  0  0  0
  189.9640  176.7400  139.8360 C   0  0  0  0  0  0  0  0  0  0  0  0
  187.6130  178.5190  141.0350 C   0  0  0  0  0  2  0  0  0  0  0  0
  189.7230  177.5420  141.9420 C   0  0  2  0  0  3  0  0  0  0  0  0
  188.9340  177.0170  143.1070 C   0  0  0  0  0  0  0  0  0  0  0  0
  188.8410  177.8000  144.2990 N   0  0  0  0  0  2  0  0  0  0  0  0
  188.3130  175.9210  143.0160 O   0  0  0  0  0  0  0  0  0  0  0  0
  186.7990  178.1300  145.5530 C   0  0  0  0  0  1  0  0  0  0  0  0
  188.0980  177.3540  145.4680 C   0  0  2  0  0  3  0  0  0  0  0  0
  188.9260  177.5910  146.7220 C   0  0  0  0  0  2  0  0  0  0  0  0
  189.8840  176.4350  146.9440 C   0  0  0  0  0  2  0  0  0  0  0  0
  191.6990  176.4010  145.4820 C   0  0  0  0  0  1  0  0  0  0  0  0
  192.0530  176.2040  147.7740 C   0  0  0  0  0  1  0  0  0  0  0  0
  191.2540  176.8910  146.7740 N   0  0  0  0  0  0  0  0  0  0  0  0
  195.0750  173.8740  137.6230 N   0  0  0  0  0  2  0  0  0  0  0  0
  198.1570  172.2940  136.8240 C   0  0  0  0  0  0  0  0  0  0  0  0
  198.3950  171.0550  137.2820 C   0  0  0  0  0  0  0  0  0  0  0  0
  195.7590  172.6550  137.3150 C   0  0  0  0  0  0  0  0  0  0  0  0
  195.3840  171.5010  137.8780 C   0  0  0  0  0  3  0  0  0  0  0  0
  196.0420  170.2020  137.6540 C   0  0  0  0  0  3  0  0  0  0  0  0
  196.8170  172.6810  136.2650 C   0  0  0  0  0  2  0  0  0  0  0  0
  197.3410  170.0110  137.3890 C   0  0  0  0  0  3  0  0  0  0  0  0
  199.7060  170.7390  137.6570 O   0  0  0  0  0  0  0  0  0  0  0  0
  200.0730  169.4760  138.1940 C   0  0  0  0  0  1  0  0  0  0  0  0
  199.2060  173.2240  136.8280 O   0  0  0  0  0  0  0  0  0  0  0  0
  199.4760  174.0890  137.9220 C   0  0  0  0  0  2  0  0  0  0  0  0
  198.5390  175.1230  137.9530 O   0  0  0  0  0  1  0  0  0  0  0  0
  1  7  2  0  0  0  0
  2 11  1  1  0  0  0
  3  2  1  0  0  0  0
  3  5  1  1  0  0  0
  4 31  1  6  0  0  0
  5  4  1  0  0  0  0
  6  1  1  1  0  0  0
  6  8  1  0  0  0  0
  6  3  1  0  0  0  0
  7 10  1  0  0  0  0
  7  2  1  0  0  0  0
  8  4  1  0  0  0  0
 10  9  1  0  0  0  0
 11 12  1  0  0  0  0
 12 18  1  0  0  0  0
 13 19  1  6  0  0  0
 13 20  1  0  0  0  0
 14 20  1  0  0  0  0
 15 17  2  0  0  0  0
 16 15  1  6  0  0  0
 16 18  1  0  0  0  0
 16 13  1  0  0  0  0
 17 19  1  0  0  0  0
 18 14  2  0  0  0  0
 20 21  1  1  0  0  0
 21 22  1  0  0  0  0
 22 25  1  0  0  0  0
 23 21  2  0  0  0  0
 25 24  1  1  0  0  0
 25 26  1  0  0  0  0
 26 27  1  0  0  0  0
 28 30  1  0  0  0  0
 30 27  1  0  0  0  0
 30 29  1  0  0  0  0
 32 41  1  0  0  0  0
 32 33  2  0  0  0  0
 33 38  1  0  0  0  0
 33 39  1  0  0  0  0
 34 31  1  0  0  0  0
 34 35  2  0  0  0  0
 36 35  1  0  0  0  0
 37 32  1  0  0  0  0
 37 34  1  0  0  0  0
 38 36  2  0  0  0  0
 39 40  1  0  0  0  0
 41 42  1  0  0  0  0
 42 43  1  0  0  0  0
M  END
>  <MODEL>
2

>  <REMARK>
 VINA RESULT:      -7.0      4.708      9.370
  Name = 
  13 active torsions:
  status: ('A' for Active; 'I' for Inactive)
    1  A    between atoms: C_2  and  O_18
    2  A    between atoms: O_4  and  C_12
    3  A    between atoms: C_6  and  C_14
    4  A    between atoms: C_6  and  N_25
    5  A    between atoms: C_8  and  O_11
    6  A    between atoms: N_10  and  O_11
    7  A    between atoms: C_13  and  C_41
    8  A    between atoms: C_14  and  C_22
    9  A    between atoms: C_15  and  N_23
   10  A    between atoms: N_17  and  C_22
   11  A    between atoms: O_18  and  C_30
   12  A    between atoms: N_23  and  C_28
   13  A    between atoms: N_26  and  C_38
                            x       y       z     vdW  Elec       q    Type
                         _______ _______ _______ _____ _____    ______ ____

>  <TORSDO>
F 13

$$$$
=
 OpenBabel10232410283D

 43 47  0  0  1  0  0  0  0  0999 V2000
  187.2290  176.5850  136.1500 C   0  0  0  0  0  3  0  0  0  0  0  0
  188.8060  177.8630  137.1760 C   0  0  1  0  0  3  0  0  0  0  0  0
  189.4950  177.0090  136.4300 C   0  0  1  0  0  3  0  0  0  0  0  0
  190.0220  174.8020  137.2640 C   0  0  1  0  0  3  0  0  0  0  0  0
  191.0330  176.2810  136.9160 S   0  0  0  0  0  0  0  0  0  0  0  0
  188.5770  176.1020  135.7020 C   0  0  1  0  0  3  0  0  0  0  0  0
  187.3910  177.6200  136.9600 C   0  0  0  0  0  0  0  0  0  0  0  0
  188.8980  174.7030  136.2250 C   0  0  0  0  0  2  0  0  0  0  0  0
  185.0030  177.6790  137.7950 C   0  0  0  0  0  1  0  0  0  0  0  0
  186.3030  178.2940  137.5980 N   0  0  0  0  0  2  0  0  0  0  0  0
  189.3300  178.7370  138.1310 O   0  0  0  0  0  0  0  0  0  0  0  0
  188.7450  178.8910  139.3680 N   0  0  0  0  0  2  0  0  0  0  0  0
  190.2810  176.7000  141.8350 C   0  0  1  0  0  3  0  0  0  0  0  0
  188.4710  178.1010  141.5920 N   0  0  0  0  0  0  0  0  0  0  0  0
  191.5300  177.5100  140.1050 C   0  0  0  0  0  3  0  0  0  0  0  0
  190.1560  176.9930  140.3920 C   0  0  2  0  0  3  0  0  0  0  0  0
  192.2880  177.4610  141.1510 N   0  0  0  0  0  0  0  0  0  0  0  0
  189.0860  178.0340  140.4530 C   0  0  0  0  0  0  0  0  0  0  0  0
  191.5070  177.0070  142.2460 C   0  0  0  0  0  2  0  0  0  0  0  0
  189.0310  177.1400  142.5350 C   0  0  2  0  0  3  0  0  0  0  0  0
  189.2610  177.7710  143.8800 C   0  0  0  0  0  0  0  0  0  0  0  0
  188.6310  177.2090  145.0330 N   0  0  0  0  0  2  0  0  0  0  0  0
  190.0450  178.7530  143.9980 O   0  0  0  0  0  0  0  0  0  0  0  0
  189.8050  176.9240  147.1290 C   0  0  0  0  0  1  0  0  0  0  0  0
  188.8030  177.7670  146.3650 C   0  0  2  0  0  3  0  0  0  0  0  0
  187.4690  177.7750  147.0940 C   0  0  0  0  0  2  0  0  0  0  0  0
  186.3460  177.4210  146.1360 C   0  0  0  0  0  2  0  0  0  0  0  0
  184.4280  178.7390  146.2650 C   0  0  0  0  0  1  0  0  0  0  0  0
  185.4820  178.4230  144.2140 C   0  0  0  0  0  1  0  0  0  0  0  0
  185.7300  178.6360  145.6300 N   0  0  0  0  0  0  0  0  0  0  0  0
  190.8470  173.6010  137.2320 N   0  0  0  0  0  2  0  0  0  0  0  0
  194.3810  173.2470  137.1000 C   0  0  0  0  0  0  0  0  0  0  0  0
  194.9270  172.5030  136.1250 C   0  0  0  0  0  0  0  0  0  0  0  0
  192.0140  173.4700  136.4140 C   0  0  0  0  0  0  0  0  0  0  0  0
  191.9650  172.8020  135.2570 C   0  0  0  0  0  3  0  0  0  0  0  0
  193.1150  172.5830  134.3620 C   0  0  0  0  0  3  0  0  0  0  0  0
  193.2510  174.1970  136.8210 C   0  0  0  0  0  2  0  0  0  0  0  0
  194.3950  172.4620  134.7370 C   0  0  0  0  0  3  0  0  0  0  0  0
  196.0640  171.7480  136.4410 O   0  0  0  0  0  0  0  0  0  0  0  0
  197.3120  171.9200  135.7840 C   0  0  0  0  0  1  0  0  0  0  0  0
  194.9190  173.1610  138.3910 O   0  0  0  0  0  0  0  0  0  0  0  0
  196.0290  173.9340  138.8250 C   0  0  0  0  0  2  0  0  0  0  0  0
  195.5910  174.9740  139.6470 O   0  0  0  0  0  1  0  0  0  0  0  0
  1  7  2  0  0  0  0
  2 11  1  1  0  0  0
  3  5  1  1  0  0  0
  3  2  1  0  0  0  0
  4 31  1  6  0  0  0
  5  4  1  0  0  0  0
  6  1  1  1  0  0  0
  6  8  1  0  0  0  0
  6  3  1  0  0  0  0
  7  2  1  0  0  0  0
  7 10  1  0  0  0  0
  8  4  1  0  0  0  0
 10  9  1  0  0  0  0
 11 12  1  0  0  0  0
 12 18  1  0  0  0  0
 13 19  1  1  0  0  0
 13 20  1  0  0  0  0
 14 20  1  0  0  0  0
 15 17  2  0  0  0  0
 16 15  1  1  0  0  0
 16 18  1  0  0  0  0
 16 13  1  0  0  0  0
 17 19  1  0  0  0  0
 18 14  2  0  0  0  0
 20 21  1  1  0  0  0
 21 23  2  0  0  0  0
 21 22  1  0  0  0  0
 22 25  1  0  0  0  0
 25 26  1  0  0  0  0
 25 24  1  1  0  0  0
 27 26  1  0  0  0  0
 29 30  1  0  0  0  0
 30 27  1  0  0  0  0
 30 28  1  0  0  0  0
 32 41  1  0  0  0  0
 33 39  1  0  0  0  0
 33 32  2  0  0  0  0
 34 37  1  0  0  0  0
 34 31  1  0  0  0  0
 35 34  2  0  0  0  0
 36 38  2  0  0  0  0
 36 35  1  0  0  0  0
 37 32  1  0  0  0  0
 38 33  1  0  0  0  0
 40 39  1  0  0  0  0
 41 42  1  0  0  0  0
 42 43  1  0  0  0  0
M  END
>  <MODEL>
3

>  <REMARK>
 VINA RESULT:      -6.9      3.179      8.735
  Name = 
  13 active torsions:
  status: ('A' for Active; 'I' for Inactive)
    1  A    between atoms: C_2  and  O_18
    2  A    between atoms: O_4  and  C_12
    3  A    between atoms: C_6  and  C_14
    4  A    between atoms: C_6  and  N_25
    5  A    between atoms: C_8  and  O_11
    6  A    between atoms: N_10  and  O_11
    7  A    between atoms: C_13  and  C_41
    8  A    between atoms: C_14  and  C_22
    9  A    between atoms: C_15  and  N_23
   10  A    between atoms: N_17  and  C_22
   11  A    between atoms: O_18  and  C_30
   12  A    between atoms: N_23  and  C_28
   13  A    between atoms: N_26  and  C_38
                            x       y       z     vdW  Elec       q    Type
                         _______ _______ _______ _____ _____    ______ ____

>  <TORSDO>
F 13

$$$$
=
 OpenBabel10232410283D

 43 47  0  0  1  0  0  0  0  0999 V2000
  182.8630  178.7160  141.7370 C   0  0  0  0  0  3  0  0  0  0  0  0
  184.9600  178.6110  140.8640 C   0  0  1  0  0  3  0  0  0  0  0  0
  185.0530  178.0080  142.0430 C   0  0  1  0  0  3  0  0  0  0  0  0
  185.4150  179.3000  144.0550 C   0  0  1  0  0  3  0  0  0  0  0  0
  186.4560  178.1320  143.1150 S   0  0  0  0  0  0  0  0  0  0  0  0
  183.7400  178.0120  142.7300 C   0  0  1  0  0  3  0  0  0  0  0  0
  183.5780  179.0090  140.6630 C   0  0  0  0  0  0  0  0  0  0  0  0
  183.9550  178.8300  144.0020 C   0  0  0  0  0  2  0  0  0  0  0  0
  182.5570  179.0580  138.3480 C   0  0  0  0  0  1  0  0  0  0  0  0
  183.0520  179.7220  139.5400 N   0  0  0  0  0  2  0  0  0  0  0  0
  186.0220  178.9560  140.0260 O   0  0  0  0  0  0  0  0  0  0  0  0
  186.3010  178.2400  138.8830 N   0  0  0  0  0  2  0  0  0  0  0  0
  189.8790  177.6820  138.5170 C   0  0  1  0  0  3  0  0  0  0  0  0
  187.9180  177.4440  137.3350 N   0  0  0  0  0  0  0  0  0  0  0  0
  188.9630  177.8340  140.6020 C   0  0  0  0  0  3  0  0  0  0  0  0
  188.8450  178.4470  139.2430 C   0  0  2  0  0  3  0  0  0  0  0  0
  189.9070  176.9520  140.6480 N   0  0  0  0  0  0  0  0  0  0  0  0
  187.6440  178.0280  138.4590 C   0  0  0  0  0  0  0  0  0  0  0  0
  190.4500  176.8120  139.3430 C   0  0  0  0  0  2  0  0  0  0  0  0
  189.3610  177.3250  137.1570 C   0  0  2  0  0  3  0  0  0  0  0  0
  189.7380  175.9480  136.6890 C   0  0  0  0  0  0  0  0  0  0  0  0
  188.7440  174.9220  136.6620 N   0  0  0  0  0  2  0  0  0  0  0  0
  190.9060  175.7130  136.2730 O   0  0  0  0  0  0  0  0  0  0  0  0
  188.9270  173.4960  134.7160 C   0  0  0  0  0  1  0  0  0  0  0  0
  189.0360  173.5650  136.2270 C   0  0  2  0  0  3  0  0  0  0  0  0
  188.0490  172.5980  136.8620 C   0  0  0  0  0  2  0  0  0  0  0  0
  186.8220  173.3470  137.3490 C   0  0  0  0  0  2  0  0  0  0  0  0
  185.1380  174.4750  136.1980 C   0  0  0  0  0  1  0  0  0  0  0  0
  184.7220  172.3640  137.0850 C   0  0  0  0  0  1  0  0  0  0  0  0
  185.7280  173.1650  136.4100 N   0  0  0  0  0  0  0  0  0  0  0  0
  185.8670  179.3890  145.4360 N   0  0  0  0  0  2  0  0  0  0  0  0
  188.8380  177.4450  145.2680 C   0  0  0  0  0  0  0  0  0  0  0  0
  189.4990  177.1610  146.4010 C   0  0  0  0  0  0  0  0  0  0  0  0
  186.6970  178.4010  146.0570 C   0  0  0  0  0  0  0  0  0  0  0  0
  186.8060  178.3400  147.3890 C   0  0  0  0  0  3  0  0  0  0  0  0
  187.6570  177.3860  148.1210 C   0  0  0  0  0  3  0  0  0  0  0  0
  187.3400  177.3700  145.1930 C   0  0  0  0  0  2  0  0  0  0  0  0
  188.8160  176.8710  147.6900 C   0  0  0  0  0  3  0  0  0  0  0  0
  190.8980  177.1210  146.3480 O   0  0  0  0  0  0  0  0  0  0  0  0
  191.6690  176.1430  147.0320 C   0  0  0  0  0  1  0  0  0  0  0  0
  189.5790  177.7700  144.1240 O   0  0  0  0  0  0  0  0  0  0  0  0
  190.3060  178.9830  143.9850 C   0  0  0  0  0  2  0  0  0  0  0  0
  191.6280  178.7050  143.6340 O   0  0  0  0  0  1  0  0  0  0  0  0
  2 11  1  1  0  0  0
  2  3  1  0  0  0  0
  3  6  1  0  0  0  0
  3  5  1  1  0  0  0
  4 31  1  1  0  0  0
  5  4  1  0  0  0  0
  6  1  1  6  0  0  0
  6  8  1  0  0  0  0
  7  2  1  0  0  0  0
  7  1  2  0  0  0  0
  8  4  1  0  0  0  0
  9 10  1  0  0  0  0
 10  7  1  0  0  0  0
 12 11  1  0  0  0  0
 13 16  1  0  0  0  0
 13 19  1  1  0  0  0
 14 18  2  0  0  0  0
 15 17  2  0  0  0  0
 16 15  1  1  0  0  0
 18 12  1  0  0  0  0
 18 16  1  0  0  0  0
 19 17  1  0  0  0  0
 20 21  1  1  0  0  0
 20 14  1  0  0  0  0
 20 13  1  0  0  0  0
 22 21  1  0  0  0  0
 23 21  2  0  0  0  0
 25 24  1  6  0  0  0
 25 22  1  0  0  0  0
 25 26  1  0  0  0  0
 26 27  1  0  0  0  0
 28 30  1  0  0  0  0
 30 29  1  0  0  0  0
 30 27  1  0  0  0  0
 31 34  1  0  0  0  0
 32 33  2  0  0  0  0
 33 38  1  0  0  0  0
 34 35  2  0  0  0  0
 35 36  1  0  0  0  0
 37 32  1  0  0  0  0
 37 34  1  0  0  0  0
 38 36  2  0  0  0  0
 39 33  1  0  0  0  0
 39 40  1  0  0  0  0
 41 32  1  0  0  0  0
 42 41  1  0  0  0  0
 43 42  1  0  0  0  0
M  END
>  <MODEL>
4

>  <REMARK>
 VINA RESULT:      -6.8      2.091      6.427
  Name = 
  13 active torsions:
  status: ('A' for Active; 'I' for Inactive)
    1  A    between atoms: C_2  and  O_18
    2  A    between atoms: O_4  and  C_12
    3  A    between atoms: C_6  and  C_14
    4  A    between atoms: C_6  and  N_25
    5  A    between atoms: C_8  and  O_11
    6  A    between atoms: N_10  and  O_11
    7  A    between atoms: C_13  and  C_41
    8  A    between atoms: C_14  and  C_22
    9  A    between atoms: C_15  and  N_23
   10  A    between atoms: N_17  and  C_22
   11  A    between atoms: O_18  and  C_30
   12  A    between atoms: N_23  and  C_28
   13  A    between atoms: N_26  and  C_38
                            x       y       z     vdW  Elec       q    Type
                         _______ _______ _______ _____ _____    ______ ____

>  <TORSDO>
F 13

$$$$
=
 OpenBabel10232410283D

 43 47  0  0  1  0  0  0  0  0999 V2000
  190.9480  175.3200  137.6990 C   0  0  0  0  0  3  0  0  0  0  0  0
  188.9850  175.9330  136.7290 C   0  0  1  0  0  3  0  0  0  0  0  0
  189.3900  177.0130  137.3870 C   0  0  1  0  0  3  0  0  0  0  0  0
  188.8890  177.2770  139.7370 C   0  0  1  0  0  3  0  0  0  0  0  0
  188.3070  178.1280  138.2310 S   0  0  0  0  0  0  0  0  0  0  0  0
  190.6730  176.7450  138.0780 C   0  0  1  0  0  3  0  0  0  0  0  0
  189.9870  174.8950  136.8940 C   0  0  0  0  0  0  0  0  0  0  0  0
  190.3680  176.9040  139.5660 C   0  0  0  0  0  2  0  0  0  0  0  0
  191.0250  172.9430  135.6630 C   0  0  0  0  0  1  0  0  0  0  0  0
  189.9250  173.5620  136.3810 N   0  0  0  0  0  2  0  0  0  0  0  0
  187.7410  175.7540  136.1200 O   0  0  0  0  0  0  0  0  0  0  0  0
  186.7430  175.0190  136.7200 N   0  0  0  0  0  2  0  0  0  0  0  0
  183.5830  176.8250  136.7020 C   0  0  1  0  0  3  0  0  0  0  0  0
  184.5410  174.9390  137.6090 N   0  0  0  0  0  0  0  0  0  0  0  0
  185.0820  177.1470  135.0110 C   0  0  0  0  0  3  0  0  0  0  0  0
  185.0410  176.9410  136.4920 C   0  0  2  0  0  3  0  0  0  0  0  0
  183.8950  177.1990  134.5020 N   0  0  0  0  0  0  0  0  0  0  0  0
  185.4560  175.5830  136.9560 C   0  0  0  0  0  0  0  0  0  0  0  0
  182.9560  176.9480  135.5370 C   0  0  0  0  0  2  0  0  0  0  0  0
  183.3140  175.7250  137.6830 C   0  0  2  0  0  3  0  0  0  0  0  0
  182.1120  174.8840  137.3600 C   0  0  0  0  0  0  0  0  0  0  0  0
  182.2950  173.6070  136.7460 N   0  0  0  0  0  2  0  0  0  0  0  0
  180.9550  175.2770  137.6780 O   0  0  0  0  0  0  0  0  0  0  0  0
  180.7970  171.9170  137.6150 C   0  0  0  0  0  1  0  0  0  0  0  0
  181.1780  172.7410  136.4000 C   0  0  2  0  0  3  0  0  0  0  0  0
  181.5760  171.8220  135.2560 C   0  0  0  0  0  2  0  0  0  0  0  0
  182.9240  171.1850  135.5390 C   0  0  0  0  0  2  0  0  0  0  0  0
  181.6300  169.3660  134.8720 C   0  0  0  0  0  1  0  0  0  0  0  0
  183.7200  169.0110  135.8320 C   0  0  0  0  0  1  0  0  0  0  0  0
  182.9890  169.8730  134.9180 N   0  0  0  0  0  0  0  0  0  0  0  0
  188.7150  178.1300  140.9050 N   0  0  0  0  0  2  0  0  0  0  0  0
  189.1620  177.0690  144.2680 C   0  0  0  0  0  0  0  0  0  0  0  0
  188.2420  177.4030  145.1860 C   0  0  0  0  0  0  0  0  0  0  0  0
  188.1010  177.6850  142.1200 C   0  0  0  0  0  0  0  0  0  0  0  0
  186.9050  178.1550  142.4910 C   0  0  0  0  0  3  0  0  0  0  0  0
  186.2060  177.7870  143.7340 C   0  0  0  0  0  3  0  0  0  0  0  0
  188.7680  176.6010  142.8960 C   0  0  0  0  0  2  0  0  0  0  0  0
  186.7840  177.4540  144.8960 C   0  0  0  0  0  3  0  0  0  0  0  0
  188.6890  177.6950  146.4810 O   0  0  0  0  0  0  0  0  0  0  0  0
  188.0890  177.1490  147.6470 C   0  0  0  0  0  1  0  0  0  0  0  0
  190.5160  177.1170  144.6260 O   0  0  0  0  0  0  0  0  0  0  0  0
  191.5700  176.7850  143.7340 C   0  0  0  0  0  2  0  0  0  0  0  0
  191.8960  175.4340  143.8660 O   0  0  0  0  0  1  0  0  0  0  0  0
  2 11  1  1  0  0  0
  2  7  1  0  0  0  0
  2  3  1  0  0  0  0
  3  6  1  0  0  0  0
  3  5  1  1  0  0  0
  4 31  1  1  0  0  0
  5  4  1  0  0  0  0
  6  1  1  1  0  0  0
  6  8  1  0  0  0  0
  7  1  2  0  0  0  0
  8  4  1  0  0  0  0
  9 10  1  0  0  0  0
 10  7  1  0  0  0  0
 11 12  1  0  0  0  0
 12 18  1  0  0  0  0
 13 19  1  6  0  0  0
 13 20  1  0  0  0  0
 14 20  1  0  0  0  0
 16 15  1  6  0  0  0
 16 13  1  0  0  0  0
 16 18  1  0  0  0  0
 17 15  2  0  0  0  0
 17 19  1  0  0  0  0
 18 14  2  0  0  0  0
 20 21  1  6  0  0  0
 21 23  2  0  0  0  0
 22 21  1  0  0  0  0
 25 22  1  0  0  0  0
 25 24  1  1  0  0  0
 26 27  1  0  0  0  0
 26 25  1  0  0  0  0
 28 30  1  0  0  0  0
 30 27  1  0  0  0  0
 30 29  1  0  0  0  0
 31 34  1  0  0  0  0
 32 41  1  0  0  0  0
 32 33  2  0  0  0  0
 33 39  1  0  0  0  0
 34 35  2  0  0  0  0
 34 37  1  0  0  0  0
 35 36  1  0  0  0  0
 36 38  2  0  0  0  0
 37 32  1  0  0  0  0
 38 33  1  0  0  0  0
 39 40  1  0  0  0  0
 42 43  1  0  0  0  0
 42 41  1  0  0  0  0
M  END
>  <MODEL>
5

>  <REMARK>
 VINA RESULT:      -6.8      2.157      4.206
  Name = 
  13 active torsions:
  status: ('A' for Active; 'I' for Inactive)
    1  A    between atoms: C_2  and  O_18
    2  A    between atoms: O_4  and  C_12
    3  A    between atoms: C_6  and  C_14
    4  A    between atoms: C_6  and  N_25
    5  A    between atoms: C_8  and  O_11
    6  A    between atoms: N_10  and  O_11
    7  A    between atoms: C_13  and  C_41
    8  A    between atoms: C_14  and  C_22
    9  A    between atoms: C_15  and  N_23
   10  A    between atoms: N_17  and  C_22
   11  A    between atoms: O_18  and  C_30
   12  A    between atoms: N_23  and  C_28
   13  A    between atoms: N_26  and  C_38
                            x       y       z     vdW  Elec       q    Type
                         _______ _______ _______ _____ _____    ______ ____

>  <TORSDO>
F 13

$$$$
=
 OpenBabel10232410283D

 43 47  0  0  1  0  0  0  0  0999 V2000
  182.4740  178.6620  141.1560 C   0  0  0  0  0  3  0  0  0  0  0  0
  184.5820  178.6560  140.3030 C   0  0  1  0  0  3  0  0  0  0  0  0
  184.7050  178.1310  141.5170 C   0  0  1  0  0  3  0  0  0  0  0  0
  184.9540  179.5620  143.4500 C   0  0  1  0  0  3  0  0  0  0  0  0
  186.0840  178.4170  142.5880 S   0  0  0  0  0  0  0  0  0  0  0  0
  183.3880  178.0820  142.1940 C   0  0  1  0  0  3  0  0  0  0  0  0
  183.1770  178.9420  140.0700 C   0  0  0  0  0  0  0  0  0  0  0  0
  183.5320  178.9870  143.4160 C   0  0  0  0  0  2  0  0  0  0  0  0
  181.9750  178.7820  137.8500 C   0  0  0  0  0  1  0  0  0  0  0  0
  182.6140  179.5480  138.9040 N   0  0  0  0  0  2  0  0  0  0  0  0
  185.6260  179.0250  139.4520 O   0  0  0  0  0  0  0  0  0  0  0  0
  185.8540  178.3690  138.2640 N   0  0  0  0  0  2  0  0  0  0  0  0
  189.4130  177.8420  137.7110 C   0  0  1  0  0  3  0  0  0  0  0  0
  187.4020  177.6580  136.6070 N   0  0  0  0  0  0  0  0  0  0  0  0
  188.5910  177.8860  139.8400 C   0  0  0  0  0  3  0  0  0  0  0  0
  188.4110  178.5670  138.5210 C   0  0  2  0  0  3  0  0  0  0  0  0
  189.5370  177.0060  139.8000 N   0  0  0  0  0  0  0  0  0  0  0  0
  187.1770  178.1830  137.7710 C   0  0  0  0  0  0  0  0  0  0  0  0
  190.0210  176.9340  138.4670 C   0  0  0  0  0  2  0  0  0  0  0  0
  188.8350  177.5530  136.3590 C   0  0  2  0  0  3  0  0  0  0  0  0
  189.1930  176.2020  135.8070 C   0  0  0  0  0  0  0  0  0  0  0  0
  190.5690  175.8390  135.6840 N   0  0  0  0  0  2  0  0  0  0  0  0
  188.2870  175.3750  135.5070 O   0  0  0  0  0  0  0  0  0  0  0  0
  191.0620  173.5480  136.2890 C   0  0  0  0  0  1  0  0  0  0  0  0
  190.9910  174.5510  135.1540 C   0  0  2  0  0  3  0  0  0  0  0  0
  192.3560  174.6880  134.4980 C   0  0  0  0  0  2  0  0  0  0  0  0
  193.3980  173.9220  135.2930 C   0  0  0  0  0  2  0  0  0  0  0  0
  195.5210  173.9600  136.2550 C   0  0  0  0  0  1  0  0  0  0  0  0
  194.1410  175.8270  136.4180 C   0  0  0  0  0  1  0  0  0  0  0  0
  194.5610  174.7650  135.5210 N   0  0  0  0  0  0  0  0  0  0  0  0
  185.3850  179.7630  144.8270 N   0  0  0  0  0  2  0  0  0  0  0  0
  188.2820  177.7130  145.0300 C   0  0  0  0  0  0  0  0  0  0  0  0
  188.8300  177.4740  146.2310 C   0  0  0  0  0  0  0  0  0  0  0  0
  186.1190  178.7860  145.5720 C   0  0  0  0  0  0  0  0  0  0  0  0
  186.1100  178.7990  146.9090 C   0  0  0  0  0  3  0  0  0  0  0  0
  186.8570  177.8610  147.7660 C   0  0  0  0  0  3  0  0  0  0  0  0
  186.7940  177.6850  144.8270 C   0  0  0  0  0  2  0  0  0  0  0  0
  188.0280  177.2830  147.4690 C   0  0  0  0  0  3  0  0  0  0  0  0
  190.2260  177.3830  146.3040 O   0  0  0  0  0  0  0  0  0  0  0  0
  190.8970  176.4910  147.1820 C   0  0  0  0  0  1  0  0  0  0  0  0
  189.1300  177.9460  143.9390 O   0  0  0  0  0  0  0  0  0  0  0  0
  189.8740  176.9190  143.2980 C   0  0  0  0  0  2  0  0  0  0  0  0
  189.0420  175.8330  143.0200 O   0  0  0  0  0  1  0  0  0  0  0  0
  2 11  1  1  0  0  0
  2  3  1  0  0  0  0
  3  6  1  0  0  0  0
  3  5  1  1  0  0  0
  4 31  1  1  0  0  0
  5  4  1  0  0  0  0
  6  1  1  6  0  0  0
  6  8  1  0  0  0  0
  7  2  1  0  0  0  0
  7  1  2  0  0  0  0
  8  4  1  0  0  0  0
  9 10  1  0  0  0  0
 10  7  1  0  0  0  0
 12 11  1  0  0  0  0
 13 19  1  1  0  0  0
 13 16  1  0  0  0  0
 14 18  2  0  0  0  0
 16 15  1  1  0  0  0
 17 15  2  0  0  0  0
 18 12  1  0  0  0  0
 18 16  1  0  0  0  0
 19 17  1  0  0  0  0
 20 21  1  1  0  0  0
 20 14  1  0  0  0  0
 20 13  1  0  0  0  0
 22 21  1  0  0  0  0
 23 21  2  0  0  0  0
 25 22  1  0  0  0  0
 25 24  1  1  0  0  0
 26 25  1  0  0  0  0
 26 27  1  0  0  0  0
 27 30  1  0  0  0  0
 30 28  1  0  0  0  0
 30 29  1  0  0  0  0
 31 34  1  0  0  0  0
 32 33  2  0  0  0  0
 33 39  1  0  0  0  0
 33 38  1  0  0  0  0
 34 35  2  0  0  0  0
 35 36  1  0  0  0  0
 37 32  1  0  0  0  0
 37 34  1  0  0  0  0
 38 36  2  0  0  0  0
 39 40  1  0  0  0  0
 41 32  1  0  0  0  0
 42 41  1  0  0  0  0
 43 42  1  0  0  0  0
M  END
>  <MODEL>
6

>  <REMARK>
 VINA RESULT:      -6.5      2.475      7.258
  Name = 
  13 active torsions:
  status: ('A' for Active; 'I' for Inactive)
    1  A    between atoms: C_2  and  O_18
    2  A    between atoms: O_4  and  C_12
    3  A    between atoms: C_6  and  C_14
    4  A    between atoms: C_6  and  N_25
    5  A    between atoms: C_8  and  O_11
    6  A    between atoms: N_10  and  O_11
    7  A    between atoms: C_13  and  C_41
    8  A    between atoms: C_14  and  C_22
    9  A    between atoms: C_15  and  N_23
   10  A    between atoms: N_17  and  C_22
   11  A    between atoms: O_18  and  C_30
   12  A    between atoms: N_23  and  C_28
   13  A    between atoms: N_26  and  C_38
                            x       y       z     vdW  Elec       q    Type
                         _______ _______ _______ _____ _____    ______ ____

>  <TORSDO>
F 13

$$$$
=
 OpenBabel10232410283D

 43 47  0  0  1  0  0  0  0  0999 V2000
  191.2700  175.8450  138.8180 C   0  0  0  0  0  3  0  0  0  0  0  0
  189.5990  176.4570  137.4020 C   0  0  1  0  0  3  0  0  0  0  0  0
  189.8040  177.5240  138.1660 C   0  0  1  0  0  3  0  0  0  0  0  0
  188.7260  177.7140  140.3210 C   0  0  1  0  0  3  0  0  0  0  0  0
  188.5200  178.5990  138.7380 S   0  0  0  0  0  0  0  0  0  0  0  0
  190.8790  177.2550  139.1490 C   0  0  1  0  0  3  0  0  0  0  0  0
  190.5500  175.4290  137.7880 C   0  0  0  0  0  0  0  0  0  0  0  0
  190.2080  177.3680  140.5170 C   0  0  0  0  0  2  0  0  0  0  0  0
  191.8570  173.6010  136.6270 C   0  0  0  0  0  1  0  0  0  0  0  0
  190.6470  174.1110  137.2450 N   0  0  0  0  0  2  0  0  0  0  0  0
  188.5510  176.2770  136.4970 O   0  0  0  0  0  0  0  0  0  0  0  0
  187.2680  176.6830  136.7890 N   0  0  0  0  0  2  0  0  0  0  0  0
  184.8920  173.9610  136.3500 C   0  0  1  0  0  3  0  0  0  0  0  0
  184.9360  176.2310  136.7250 N   0  0  0  0  0  0  0  0  0  0  0  0
  187.0340  173.5030  136.9900 C   0  0  0  0  0  3  0  0  0  0  0  0
  186.2720  174.4140  136.0810 C   0  0  2  0  0  3  0  0  0  0  0  0
  186.2530  172.6700  137.5980 N   0  0  0  0  0  0  0  0  0  0  0  0
  186.1550  175.8270  136.5500 C   0  0  0  0  0  0  0  0  0  0  0  0
  184.9130  172.9800  137.2460 C   0  0  0  0  0  2  0  0  0  0  0  0
  183.9930  175.1560  136.4410 C   0  0  2  0  0  3  0  0  0  0  0  0
  182.9400  175.0620  137.5090 C   0  0  0  0  0  0  0  0  0  0  0  0
  182.8870  176.0600  138.5290 N   0  0  0  0  0  2  0  0  0  0  0  0
  182.0760  174.1410  137.4730 O   0  0  0  0  0  0  0  0  0  0  0  0
  180.5380  175.7250  139.0030 C   0  0  0  0  0  1  0  0  0  0  0  0
  181.8990  176.0310  139.5970 C   0  0  2  0  0  3  0  0  0  0  0  0
  181.8660  177.3790  140.3010 C   0  0  0  0  0  2  0  0  0  0  0  0
  180.5150  177.5920  140.9610 C   0  0  0  0  0  2  0  0  0  0  0  0
  180.8580  179.8010  140.2990 C   0  0  0  0  0  1  0  0  0  0  0  0
  181.3430  179.1560  142.4820 C   0  0  0  0  0  1  0  0  0  0  0  0
  180.3930  178.9730  141.3980 N   0  0  0  0  0  0  0  0  0  0  0  0
  188.2480  178.5320  141.4280 N   0  0  0  0  0  2  0  0  0  0  0  0
  188.6020  177.0940  144.6590 C   0  0  0  0  0  0  0  0  0  0  0  0
  187.6870  177.3710  145.6020 C   0  0  0  0  0  0  0  0  0  0  0  0
  187.5980  177.9900  142.5830 C   0  0  0  0  0  0  0  0  0  0  0  0
  186.4210  178.4750  142.9950 C   0  0  0  0  0  3  0  0  0  0  0  0
  185.6900  178.0100  144.1860 C   0  0  0  0  0  3  0  0  0  0  0  0
  188.2020  176.7970  143.2420 C   0  0  0  0  0  2  0  0  0  0  0  0
  186.2370  177.5260  145.3090 C   0  0  0  0  0  3  0  0  0  0  0  0
  188.1320  177.5000  146.9230 O   0  0  0  0  0  0  0  0  0  0  0  0
  187.5330  178.3880  147.8570 C   0  0  0  0  0  1  0  0  0  0  0  0
  189.9510  177.0360  145.0300 O   0  0  0  0  0  0  0  0  0  0  0  0
  190.9940  176.6930  144.1270 C   0  0  0  0  0  2  0  0  0  0  0  0
  191.6240  177.8500  143.6680 O   0  0  0  0  0  1  0  0  0  0  0  0
  2 11  1  1  0  0  0
  2  7  1  0  0  0  0
  2  3  1  0  0  0  0
  3  5  1  1  0  0  0
  3  6  1  0  0  0  0
  4  8  1  0  0  0  0
  4 31  1  1  0  0  0
  5  4  1  0  0  0  0
  6  1  1  6  0  0  0
  6  8  1  0  0  0  0
  7  1  2  0  0  0  0
  9 10  1  0  0  0  0
 10  7  1  0  0  0  0
 11 12  1  0  0  0  0
 13 20  1  0  0  0  0
 13 19  1  1  0  0  0
 15 17  2  0  0  0  0
 16 13  1  0  0  0  0
 16 18  1  0  0  0  0
 16 15  1  1  0  0  0
 18 14  2  0  0  0  0
 18 12  1  0  0  0  0
 19 17  1  0  0  0  0
 20 14  1  0  0  0  0
 20 21  1  1  0  0  0
 21 22  1  0  0  0  0
 22 25  1  0  0  0  0
 23 21  2  0  0  0  0
 25 24  1  6  0  0  0
 25 26  1  0  0  0  0
 26 27  1  0  0  0  0
 27 30  1  0  0  0  0
 28 30  1  0  0  0  0
 30 29  1  0  0  0  0
 31 34  1  0  0  0  0
 32 41  1  0  0  0  0
 32 33  2  0  0  0  0
 33 39  1  0  0  0  0
 34 35  2  0  0  0  0
 34 37  1  0  0  0  0
 35 36  1  0  0  0  0
 36 38  2  0  0  0  0
 37 32  1  0  0  0  0
 38 33  1  0  0  0  0
 39 40  1  0  0  0  0
 42 41  1  0  0  0  0
 43 42  1  0  0  0  0
M  END
>  <MODEL>
7

>  <REMARK>
 VINA RESULT:      -6.5      1.551      1.868
  Name = 
  13 active torsions:
  status: ('A' for Active; 'I' for Inactive)
    1  A    between atoms: C_2  and  O_18
    2  A    between atoms: O_4  and  C_12
    3  A    between atoms: C_6  and  C_14
    4  A    between atoms: C_6  and  N_25
    5  A    between atoms: C_8  and  O_11
    6  A    between atoms: N_10  and  O_11
    7  A    between atoms: C_13  and  C_41
    8  A    between atoms: C_14  and  C_22
    9  A    between atoms: C_15  and  N_23
   10  A    between atoms: N_17  and  C_22
   11  A    between atoms: O_18  and  C_30
   12  A    between atoms: N_23  and  C_28
   13  A    between atoms: N_26  and  C_38
                            x       y       z     vdW  Elec       q    Type
                         _______ _______ _______ _____ _____    ______ ____

>  <TORSDO>
F 13

$$$$
=
 OpenBabel10232410283D

 43 47  0  0  1  0  0  0  0  0999 V2000
  180.7870  177.6410  138.0730 C   0  0  0  0  0  3  0  0  0  0  0  0
  182.0440  178.2530  139.8670 C   0  0  1  0  0  3  0  0  0  0  0  0
  182.6260  178.8420  138.8290 C   0  0  1  0  0  3  0  0  0  0  0  0
  184.2330  177.6410  137.4800 C   0  0  1  0  0  3  0  0  0  0  0  0
  184.3750  179.0370  138.6470 S   0  0  0  0  0  0  0  0  0  0  0  0
  181.9000  178.5170  137.5780 C   0  0  1  0  0  3  0  0  0  0  0  0
  180.8710  177.5420  139.3910 C   0  0  0  0  0  0  0  0  0  0  0  0
  182.9050  177.7530  136.7190 C   0  0  0  0  0  2  0  0  0  0  0  0
  180.4240  175.5850  140.9320 C   0  0  0  0  0  1  0  0  0  0  0  0
  179.9820  176.7430  140.1750 N   0  0  0  0  0  2  0  0  0  0  0  0
  182.5500  178.1820  141.1670 O   0  0  0  0  0  0  0  0  0  0  0  0
  183.7960  177.6590  141.4280 N   0  0  0  0  0  2  0  0  0  0  0  0
  185.3300  179.2810  144.3030 C   0  0  1  0  0  3  0  0  0  0  0  0
  185.8550  177.8190  142.6040 N   0  0  0  0  0  0  0  0  0  0  0  0
  183.0600  179.0700  144.1990 C   0  0  0  0  0  3  0  0  0  0  0  0
  184.2330  179.3580  143.3160 C   0  0  2  0  0  3  0  0  0  0  0  0
  183.4140  178.9220  145.4330 N   0  0  0  0  0  0  0  0  0  0  0  0
  184.6420  178.2370  142.4180 C   0  0  0  0  0  0  0  0  0  0  0  0
  184.8300  179.0000  145.5020 C   0  0  0  0  0  2  0  0  0  0  0  0
  186.4900  178.5550  143.6910 C   0  0  2  0  0  3  0  0  0  0  0  0
  187.2060  177.6260  144.6300 C   0  0  0  0  0  0  0  0  0  0  0  0
  188.4520  178.0310  145.2000 N   0  0  0  0  0  2  0  0  0  0  0  0
  186.6870  176.5220  144.9540 O   0  0  0  0  0  0  0  0  0  0  0  0
  189.0520  177.7180  147.5230 C   0  0  0  0  0  1  0  0  0  0  0  0
  189.2040  177.1830  146.1120 C   0  0  2  0  0  3  0  0  0  0  0  0
  190.6720  177.1790  145.7160 C   0  0  0  0  0  2  0  0  0  0  0  0
  190.8660  177.9380  144.4150 C   0  0  0  0  0  2  0  0  0  0  0  0
  190.4660  176.6230  142.5330 C   0  0  0  0  0  1  0  0  0  0  0  0
  191.9800  175.9050  144.1480 C   0  0  0  0  0  1  0  0  0  0  0  0
  191.5080  177.0790  143.4350 N   0  0  0  0  0  0  0  0  0  0  0  0
  185.3510  177.6400  136.5470 N   0  0  0  0  0  2  0  0  0  0  0  0
  188.3210  175.8140  137.2400 C   0  0  0  0  0  0  0  0  0  0  0  0
  189.5100  176.3660  136.9540 C   0  0  0  0  0  0  0  0  0  0  0  0
  186.7220  177.6800  136.9610 C   0  0  0  0  0  0  0  0  0  0  0  0
  187.5060  178.7100  136.6250 C   0  0  0  0  0  3  0  0  0  0  0  0
  188.9330  178.8290  136.9730 C   0  0  0  0  0  3  0  0  0  0  0  0
  187.2180  176.6120  137.8750 C   0  0  0  0  0  2  0  0  0  0  0  0
  189.7960  177.8160  137.1220 C   0  0  0  0  0  3  0  0  0  0  0  0
  190.5270  175.5210  136.4920 O   0  0  0  0  0  0  0  0  0  0  0  0
  191.6260  175.1230  137.3000 C   0  0  0  0  0  1  0  0  0  0  0  0
  188.1350  174.4490  136.9810 O   0  0  0  0  0  0  0  0  0  0  0  0
  186.8540  173.8510  136.8390 C   0  0  0  0  0  2  0  0  0  0  0  0
  186.9610  172.4650  136.9670 O   0  0  0  0  0  1  0  0  0  0  0  0
  1  7  2  0  0  0  0
  2 11  1  6  0  0  0
  3  5  1  6  0  0  0
  3  2  1  0  0  0  0
  4 31  1  6  0  0  0
  4  5  1  0  0  0  0
  6  8  1  6  0  0  0
  6  1  1  0  0  0  0
  6  3  1  0  0  0  0
  7  2  1  0  0  0  0
  7 10  1  0  0  0  0
  8  4  1  0  0  0  0
 10  9  1  0  0  0  0
 11 12  1  0  0  0  0
 12 18  1  0  0  0  0
 13 19  1  1  0  0  0
 14 20  1  0  0  0  0
 15 17  2  0  0  0  0
 16 15  1  1  0  0  0
 16 13  1  0  0  0  0
 17 19  1  0  0  0  0
 18 14  2  0  0  0  0
 18 16  1  0  0  0  0
 20 13  1  0  0  0  0
 20 21  1  1  0  0  0
 21 23  2  0  0  0  0
 21 22  1  0  0  0  0
 22 25  1  0  0  0  0
 25 24  1  1  0  0  0
 26 25  1  0  0  0  0
 27 26  1  0  0  0  0
 28 30  1  0  0  0  0
 30 29  1  0  0  0  0
 30 27  1  0  0  0  0
 31 34  1  0  0  0  0
 32 37  1  0  0  0  0
 33 38  1  0  0  0  0
 33 32  2  0  0  0  0
 34 37  1  0  0  0  0
 35 34  2  0  0  0  0
 35 36  1  0  0  0  0
 36 38  2  0  0  0  0
 39 33  1  0  0  0  0
 39 40  1  0  0  0  0
 41 32  1  0  0  0  0
 42 43  1  0  0  0  0
 42 41  1  0  0  0  0
M  END
>  <MODEL>
8

>  <REMARK>
 VINA RESULT:      -6.4      2.605      9.153
  Name = 
  13 active torsions:
  status: ('A' for Active; 'I' for Inactive)
    1  A    between atoms: C_2  and  O_18
    2  A    between atoms: O_4  and  C_12
    3  A    between atoms: C_6  and  C_14
    4  A    between atoms: C_6  and  N_25
    5  A    between atoms: C_8  and  O_11
    6  A    between atoms: N_10  and  O_11
    7  A    between atoms: C_13  and  C_41
    8  A    between atoms: C_14  and  C_22
    9  A    between atoms: C_15  and  N_23
   10  A    between atoms: N_17  and  C_22
   11  A    between atoms: O_18  and  C_30
   12  A    between atoms: N_23  and  C_28
   13  A    between atoms: N_26  and  C_38
                            x       y       z     vdW  Elec       q    Type
                         _______ _______ _______ _____ _____    ______ ____

>  <TORSDO>
F 13

$$$$
=
 OpenBabel10232410283D

 43 47  0  0  1  0  0  0  0  0999 V2000
  186.0520  178.0320  143.4270 C   0  0  0  0  0  3  0  0  0  0  0  0
  186.9180  178.4650  141.3690 C   0  0  1  0  0  3  0  0  0  0  0  0
  185.7780  179.1440  141.4070 C   0  0  1  0  0  3  0  0  0  0  0  0
  183.6890  178.0610  140.8510 C   0  0  1  0  0  3  0  0  0  0  0  0
  184.6920  179.3420  140.0240 S   0  0  0  0  0  0  0  0  0  0  0  0
  185.1000  178.9420  142.7090 C   0  0  1  0  0  3  0  0  0  0  0  0
  187.1030  177.8110  142.6520 C   0  0  0  0  0  0  0  0  0  0  0  0
  183.7790  178.2530  142.3700 C   0  0  0  0  0  2  0  0  0  0  0  0
  188.8470  177.0270  144.3100 C   0  0  0  0  0  1  0  0  0  0  0  0
  188.1820  176.9490  143.0220 N   0  0  0  0  0  2  0  0  0  0  0  0
  187.7280  178.2700  140.2480 O   0  0  0  0  0  0  0  0  0  0  0  0
  189.0450  177.8880  140.3670 N   0  0  0  0  0  2  0  0  0  0  0  0
  190.1690  176.0920  137.4080 C   0  0  1  0  0  3  0  0  0  0  0  0
  190.8630  176.5990  139.5430 N   0  0  0  0  0  0  0  0  0  0  0  0
  188.5710  177.7100  137.2120 C   0  0  0  0  0  3  0  0  0  0  0  0
  188.9880  176.6070  138.1320 C   0  0  2  0  0  3  0  0  0  0  0  0
  189.3210  177.7670  136.1610 N   0  0  0  0  0  0  0  0  0  0  0  0
  189.6570  177.0490  139.3920 C   0  0  0  0  0  0  0  0  0  0  0  0
  190.3510  176.7980  136.2960 C   0  0  0  0  0  2  0  0  0  0  0  0
  191.2570  175.7930  138.3940 C   0  0  2  0  0  3  0  0  0  0  0  0
  192.6380  176.1550  137.9250 C   0  0  0  0  0  0  0  0  0  0  0  0
  193.2180  175.4360  136.8350 N   0  0  0  0  0  2  0  0  0  0  0  0
  193.2580  177.1210  138.4510 O   0  0  0  0  0  0  0  0  0  0  0  0
  194.4300  176.4410  134.9980 C   0  0  0  0  0  1  0  0  0  0  0  0
  194.5510  175.7270  136.3300 C   0  0  2  0  0  3  0  0  0  0  0  0
  195.3280  174.4320  136.1540 C   0  0  0  0  0  2  0  0  0  0  0  0
  196.1870  174.1660  137.3780 C   0  0  0  0  0  2  0  0  0  0  0  0
  198.1140  174.6840  136.1740 C   0  0  0  0  0  1  0  0  0  0  0  0
  198.1710  174.6640  138.5010 C   0  0  0  0  0  1  0  0  0  0  0  0
  197.3520  175.0340  137.3590 N   0  0  0  0  0  0  0  0  0  0  0  0
  182.3020  178.1390  140.4130 N   0  0  0  0  0  2  0  0  0  0  0  0
  182.4440  176.5510  137.2370 C   0  0  0  0  0  0  0  0  0  0  0  0
  182.0470  175.2730  137.1260 C   0  0  0  0  0  0  0  0  0  0  0  0
  181.7090  177.2020  139.5070 C   0  0  0  0  0  0  0  0  0  0  0  0
  181.1080  176.0980  139.9640 C   0  0  0  0  0  3  0  0  0  0  0  0
  180.4990  175.0590  139.1160 C   0  0  0  0  0  3  0  0  0  0  0  0
  181.6720  177.5440  138.0570 C   0  0  0  0  0  2  0  0  0  0  0  0
  180.9010  174.7090  137.8860 C   0  0  0  0  0  3  0  0  0  0  0  0
  182.7440  174.4490  136.2340 O   0  0  0  0  0  0  0  0  0  0  0  0
  182.7110  173.0310  136.3060 C   0  0  0  0  0  1  0  0  0  0  0  0
  183.5790  176.9640  136.5270 O   0  0  0  0  0  0  0  0  0  0  0  0
  184.8530  177.1430  137.1300 C   0  0  0  0  0  2  0  0  0  0  0  0
  185.4650  175.9040  137.3230 O   0  0  0  0  0  1  0  0  0  0  0  0
  2 11  1  6  0  0  0
  2  3  1  0  0  0  0
  2  7  1  0  0  0  0
  3  5  1  6  0  0  0
  3  6  1  0  0  0  0
  4 31  1  6  0  0  0
  4  8  1  0  0  0  0
  5  4  1  0  0  0  0
  6  8  1  6  0  0  0
  6  1  1  0  0  0  0
  7 10  1  0  0  0  0
  7  1  2  0  0  0  0
 10  9  1  0  0  0  0
 11 12  1  0  0  0  0
 13 19  1  6  0  0  0
 13 16  1  0  0  0  0
 13 20  1  0  0  0  0
 16 15  1  6  0  0  0
 16 18  1  0  0  0  0
 17 19  1  0  0  0  0
 17 15  2  0  0  0  0
 18 14  2  0  0  0  0
 18 12  1  0  0  0  0
 20 21  1  6  0  0  0
 20 14  1  0  0  0  0
 21 23  2  0  0  0  0
 22 21  1  0  0  0  0
 25 24  1  6  0  0  0
 25 22  1  0  0  0  0
 26 25  1  0  0  0  0
 26 27  1  0  0  0  0
 28 30  1  0  0  0  0
 30 27  1  0  0  0  0
 30 29  1  0  0  0  0
 32 37  1  0  0  0  0
 33 32  2  0  0  0  0
 33 38  1  0  0  0  0
 34 35  2  0  0  0  0
 34 31  1  0  0  0  0
 36 35  1  0  0  0  0
 37 34  1  0  0  0  0
 38 36  2  0  0  0  0
 39 40  1  0  0  0  0
 39 33  1  0  0  0  0
 41 42  1  0  0  0  0
 41 32  1  0  0  0  0
 42 43  1  0  0  0  0
M  END
>  <MODEL>
9

>  <REMARK>
 VINA RESULT:      -6.4      3.038      9.804
  Name = 
  13 active torsions:
  status: ('A' for Active; 'I' for Inactive)
    1  A    between atoms: C_2  and  O_18
    2  A    between atoms: O_4  and  C_12
    3  A    between atoms: C_6  and  C_14
    4  A    between atoms: C_6  and  N_25
    5  A    between atoms: C_8  and  O_11
    6  A    between atoms: N_10  and  O_11
    7  A    between atoms: C_13  and  C_41
    8  A    between atoms: C_14  and  C_22
    9  A    between atoms: C_15  and  N_23
   10  A    between atoms: N_17  and  C_22
   11  A    between atoms: O_18  and  C_30
   12  A    between atoms: N_23  and  C_28
   13  A    between atoms: N_26  and  C_38
                            x       y       z     vdW  Elec       q    Type
                         _______ _______ _______ _____ _____    ______ ____

>  <TORSDO>
F 13

$$$$
