=
 OpenBabel10232410173D

 41 46  0  0  1  0  0  0  0  0999 V2000
  191.0270  175.4330  136.5730 C   0  0  0  0  0  0  0  0  0  0  0  0
  192.5150  176.1750  138.4430 S   0  0  0  0  0  0  0  0  0  0  0  0
  188.4020  177.7530  139.9020 N   0  0  0  0  0  0  0  0  0  0  0  0
  193.1560  175.2080  137.2110 C   0  0  0  0  0  0  0  0  0  0  0  0
  187.3660  177.3110  137.8650 C   0  0  2  0  0  3  0  0  0  0  0  0
  189.8190  176.8060  138.1760 C   0  0  0  0  0  0  0  0  0  0  0  0
  189.8800  175.2710  135.7960 C   0  0  0  0  0  3  0  0  0  0  0  0
  192.2300  174.8780  136.2780 N   0  0  0  0  0  0  0  0  0  0  0  0
  190.9890  176.1870  137.7370 C   0  0  0  0  0  0  0  0  0  0  0  0
  187.6420  178.3400  138.8710 N   0  0  0  0  0  2  0  0  0  0  0  0
  189.7810  177.6380  139.4250 C   0  0  0  0  0  2  0  0  0  0  0  0
  188.6580  176.6820  137.3810 C   0  0  0  0  0  0  0  0  0  0  0  0
  188.6930  175.8920  136.2110 C   0  0  0  0  0  3  0  0  0  0  0  0
  194.5580  174.7110  137.1790 C   0  0  0  0  0  2  0  0  0  0  0  0
  195.8470  174.0770  138.8560 C   0  0  0  0  0  1  0  0  0  0  0  0
  195.2570  175.2070  138.2790 O   0  0  0  0  0  0  0  0  0  0  0  0
  186.5810  177.9400  136.7240 C   0  0  0  0  0  2  0  0  0  0  0  0
  185.4670  177.0100  136.2820 C   0  0  0  0  0  2  0  0  0  0  0  0
  183.0630  177.6090  139.0980 C   0  0  0  0  0  3  0  0  0  0  0  0
  183.8040  175.6870  137.6610 C   0  0  0  0  0  0  0  0  0  0  0  0
  184.0440  177.9470  138.1660 C   0  0  0  0  0  3  0  0  0  0  0  0
  182.7220  175.9680  138.9120 S   0  0  0  0  0  0  0  0  0  0  0  0
  184.4610  176.8700  137.3710 C   0  0  0  0  0  0  0  0  0  0  0  0
  184.0220  174.4380  136.9980 N   0  0  0  0  0  2  0  0  0  0  0  0
  186.1820  173.4260  137.4110 C   0  0  0  0  0  1  0  0  0  0  0  0
  184.6860  173.3100  137.6340 C   0  0  2  0  0  3  0  0  0  0  0  0
  182.7920  171.9290  137.1690 O   0  0  0  0  0  1  0  0  0  0  0  0
  184.1780  172.0110  137.0310 C   0  0  0  0  0  2  0  0  0  0  0  0
  188.4110  178.6970  141.0060 C   0  0  0  0  0  2  0  0  0  0  0  0
  185.8070  177.7330  143.4350 N   0  0  0  0  0  0  0  0  0  0  0  0
  188.0870  177.3550  143.0790 C   0  0  0  0  0  3  0  0  0  0  0  0
  187.6130  178.1520  142.1390 C   0  0  0  0  0  0  0  0  0  0  0  0
  186.2020  178.3620  142.3820 C   0  0  0  0  0  0  0  0  0  0  0  0
  186.9470  177.0090  143.9950 C   0  0  1  0  0  3  0  0  0  0  0  0
  185.2950  179.2070  141.5570 C   0  0  0  0  0  1  0  0  0  0  0  0
  188.4370  177.4110  146.0510 C   0  0  0  0  0  3  0  0  0  0  0  0
  188.2380  177.9070  147.2790 N   0  0  0  0  0  0  0  0  0  0  0  0
  189.2280  178.0470  148.2590 N   0  0  0  0  0  1  0  0  0  0  0  0
  187.2210  177.4580  145.3970 C   0  0  0  0  0  0  0  0  0  0  0  0
  186.9510  178.2690  147.4270 C   0  0  0  0  0  3  0  0  0  0  0  0
  186.2720  177.9950  146.2510 C   0  0  0  0  0  3  0  0  0  0  0  0
  1  9  1  0  0  0  0
  3 29  1  0  0  0  0
  4  2  1  0  0  0  0
  5 17  1  6  0  0  0
  5 10  1  0  0  0  0
  6 11  1  0  0  0  0
  7 13  1  0  0  0  0
  7  1  2  0  0  0  0
  8  1  1  0  0  0  0
  8  4  2  0  0  0  0
  9  6  2  0  0  0  0
  9  2  1  0  0  0  0
 10  3  1  0  0  0  0
 11  3  1  0  0  0  0
 12  5  1  0  0  0  0
 12  6  1  0  0  0  0
 13 12  2  0  0  0  0
 14  4  1  0  0  0  0
 14 16  1  0  0  0  0
 16 15  1  0  0  0  0
 18 17  1  0  0  0  0
 18 23  1  0  0  0  0
 20 22  1  0  0  0  0
 21 19  2  0  0  0  0
 22 19  1  0  0  0  0
 23 20  2  0  0  0  0
 23 21  1  0  0  0  0
 24 26  1  0  0  0  0
 24 20  1  0  0  0  0
 26 25  1  6  0  0  0
 28 27  1  0  0  0  0
 28 26  1  0  0  0  0
 29 32  1  0  0  0  0
 30 34  1  0  0  0  0
 31 34  1  0  0  0  0
 32 33  1  0  0  0  0
 32 31  2  0  0  0  0
 33 30  2  0  0  0  0
 34 39  1  1  0  0  0
 35 33  1  0  0  0  0
 36 37  1  0  0  0  0
 37 40  1  0  0  0  0
 37 38  1  0  0  0  0
 39 36  2  0  0  0  0
 39 41  1  0  0  0  0
 41 40  2  0  0  0  0
M  END
>  <MODEL>
1

>  <REMARK>
 VINA RESULT:      -8.1      0.000      0.000
  Name = 
  11 active torsions:
  status: ('A' for Active; 'I' for Inactive)
    1  A    between atoms: N_8  and  C_35
    2  A    between atoms: C_9  and  C_15
    3  A    between atoms: C_12  and  C_29
    4  A    between atoms: C_14  and  N_33
    5  A    between atoms: C_15  and  O_31
    6  A    between atoms: C_17  and  C_35
    7  A    between atoms: CA_20  and  C_27
    8  A    between atoms: CA_20  and  N_33
    9  A    between atoms: C_21  and  C_29
   10  A    between atoms: C_21  and  C_37
   11  A    between atoms: C_22  and  C_38
                            x       y       z     vdW  Elec       q    Type
                         _______ _______ _______ _____ _____    ______ ____

>  <TORSDO>
F 11

$$$$
=
 OpenBabel10232410173D

 41 46  0  0  1  0  0  0  0  0999 V2000
  183.1370  178.8790  140.9370 C   0  0  0  0  0  0  0  0  0  0  0  0
  184.0630  179.4540  138.6830 S   0  0  0  0  0  0  0  0  0  0  0  0
  187.8740  177.9260  140.8480 N   0  0  0  0  0  0  0  0  0  0  0  0
  182.3930  179.5530  138.9410 C   0  0  0  0  0  0  0  0  0  0  0  0
  186.8300  177.8790  142.9270 C   0  0  2  0  0  3  0  0  0  0  0  0
  185.5570  178.6430  140.8860 C   0  0  0  0  0  0  0  0  0  0  0  0
  183.0910  178.4780  142.2710 C   0  0  0  0  0  3  0  0  0  0  0  0
  182.0430  179.2020  140.2020 N   0  0  0  0  0  0  0  0  0  0  0  0
  184.3490  178.9590  140.2650 C   0  0  0  0  0  0  0  0  0  0  0  0
  187.9760  178.3920  142.1720 N   0  0  0  0  0  2  0  0  0  0  0  0
  186.8710  178.7450  140.1660 C   0  0  0  0  0  2  0  0  0  0  0  0
  185.5310  178.2690  142.2480 C   0  0  0  0  0  0  0  0  0  0  0  0
  184.2940  178.1640  142.9210 C   0  0  0  0  0  3  0  0  0  0  0  0
  181.4040  179.9180  137.8910 C   0  0  0  0  0  2  0  0  0  0  0  0
  180.2360  181.5630  136.9940 C   0  0  0  0  0  1  0  0  0  0  0  0
  181.4210  181.2980  137.6890 O   0  0  0  0  0  0  0  0  0  0  0  0
  186.9040  178.4090  144.3510 C   0  0  0  0  0  2  0  0  0  0  0  0
  186.8980  177.2560  145.3370 C   0  0  0  0  0  2  0  0  0  0  0  0
  188.7850  177.9670  148.5000 C   0  0  0  0  0  3  0  0  0  0  0  0
  189.2950  177.2270  146.1550 C   0  0  0  0  0  0  0  0  0  0  0  0
  187.6600  177.8720  147.6800 C   0  0  0  0  0  3  0  0  0  0  0  0
  190.1290  177.5350  147.5770 S   0  0  0  0  0  0  0  0  0  0  0  0
  187.9490  177.4660  146.3710 C   0  0  0  0  0  0  0  0  0  0  0  0
  189.8680  176.7910  144.9180 N   0  0  0  0  0  2  0  0  0  0  0  0
  190.8490  178.8600  144.1310 C   0  0  0  0  0  1  0  0  0  0  0  0
  191.0770  177.3760  144.3570 C   0  0  2  0  0  3  0  0  0  0  0  0
  190.3450  175.8870  142.6370 O   0  0  0  0  0  1  0  0  0  0  0  0
  191.4050  176.7030  143.0350 C   0  0  0  0  0  2  0  0  0  0  0  0
  189.1490  178.1980  140.2070 C   0  0  0  0  0  2  0  0  0  0  0  0
  189.3530  176.9460  136.7430 N   0  0  0  0  0  0  0  0  0  0  0  0
  189.4850  176.0940  138.9160 C   0  0  0  0  0  3  0  0  0  0  0  0
  189.2640  177.3950  138.9580 C   0  0  0  0  0  0  0  0  0  0  0  0
  189.1930  177.8940  137.6010 C   0  0  0  0  0  0  0  0  0  0  0  0
  189.5710  175.6960  137.4700 C   0  0  1  0  0  3  0  0  0  0  0  0
  188.9470  179.3080  137.2070 C   0  0  0  0  0  1  0  0  0  0  0  0
  187.1610  174.9240  137.0180 C   0  0  0  0  0  3  0  0  0  0  0  0
  186.5890  173.7590  136.6870 N   0  0  0  0  0  0  0  0  0  0  0  0
  185.2180  173.5700  136.4740 N   0  0  0  0  0  1  0  0  0  0  0  0
  188.5190  174.6910  137.1190 C   0  0  0  0  0  0  0  0  0  0  0  0
  187.5260  172.8020  136.5710 C   0  0  0  0  0  3  0  0  0  0  0  0
  188.7670  173.3560  136.8420 C   0  0  0  0  0  3  0  0  0  0  0  0
  1  7  1  0  0  0  0
  2  4  1  0  0  0  0
  2  9  1  0  0  0  0
  3 10  1  0  0  0  0
  4  8  2  0  0  0  0
  5 17  1  1  0  0  0
  6 12  2  0  0  0  0
  7 13  2  0  0  0  0
  8  1  1  0  0  0  0
  9  6  1  0  0  0  0
  9  1  2  0  0  0  0
 10  5  1  0  0  0  0
 11  3  1  0  0  0  0
 11  6  1  0  0  0  0
 12 13  1  0  0  0  0
 12  5  1  0  0  0  0
 14  4  1  0  0  0  0
 15 16  1  0  0  0  0
 16 14  1  0  0  0  0
 17 18  1  0  0  0  0
 18 23  1  0  0  0  0
 20 23  2  0  0  0  0
 20 22  1  0  0  0  0
 21 19  2  0  0  0  0
 22 19  1  0  0  0  0
 23 21  1  0  0  0  0
 24 20  1  0  0  0  0
 26 25  1  6  0  0  0
 26 24  1  0  0  0  0
 27 28  1  0  0  0  0
 28 26  1  0  0  0  0
 29  3  1  0  0  0  0
 30 34  1  0  0  0  0
 30 33  2  0  0  0  0
 31 32  2  0  0  0  0
 32 29  1  0  0  0  0
 33 32  1  0  0  0  0
 34 39  1  6  0  0  0
 34 31  1  0  0  0  0
 35 33  1  0  0  0  0
 36 39  2  0  0  0  0
 37 36  1  0  0  0  0
 38 37  1  0  0  0  0
 40 37  1  0  0  0  0
 40 41  2  0  0  0  0
 41 39  1  0  0  0  0
M  END
>  <MODEL>
2

>  <REMARK>
 VINA RESULT:      -7.6      3.364      9.479
  Name = 
  11 active torsions:
  status: ('A' for Active; 'I' for Inactive)
    1  A    between atoms: N_8  and  C_35
    2  A    between atoms: C_9  and  C_15
    3  A    between atoms: C_12  and  C_29
    4  A    between atoms: C_14  and  N_33
    5  A    between atoms: C_15  and  O_31
    6  A    between atoms: C_17  and  C_35
    7  A    between atoms: CA_20  and  C_27
    8  A    between atoms: CA_20  and  N_33
    9  A    between atoms: C_21  and  C_29
   10  A    between atoms: C_21  and  C_37
   11  A    between atoms: C_22  and  C_38
                            x       y       z     vdW  Elec       q    Type
                         _______ _______ _______ _____ _____    ______ ____

>  <TORSDO>
F 11

$$$$
=
 OpenBabel10232410173D

 41 46  0  0  1  0  0  0  0  0999 V2000
  191.1070  175.5120  136.4890 C   0  0  0  0  0  0  0  0  0  0  0  0
  192.6080  176.4120  138.2780 S   0  0  0  0  0  0  0  0  0  0  0  0
  188.4490  177.7330  139.8600 N   0  0  0  0  0  0  0  0  0  0  0  0
  193.2700  175.4580  137.0470 C   0  0  0  0  0  0  0  0  0  0  0  0
  187.3710  177.1600  137.8790 C   0  0  2  0  0  3  0  0  0  0  0  0
  189.8650  176.8410  138.1040 C   0  0  0  0  0  0  0  0  0  0  0  0
  189.9470  175.2460  135.7630 C   0  0  0  0  0  3  0  0  0  0  0  0
  192.3350  175.0370  136.1610 N   0  0  0  0  0  0  0  0  0  0  0  0
  191.0590  176.2950  137.6340 C   0  0  0  0  0  0  0  0  0  0  0  0
  187.6110  178.2340  138.8460 N   0  0  0  0  0  2  0  0  0  0  0  0
  189.8140  177.7030  139.3310 C   0  0  0  0  0  2  0  0  0  0  0  0
  188.6860  176.6110  137.3590 C   0  0  0  0  0  0  0  0  0  0  0  0
  188.7340  175.7920  136.2100 C   0  0  0  0  0  3  0  0  0  0  0  0
  194.7020  175.0630  136.9710 C   0  0  0  0  0  2  0  0  0  0  0  0
  195.5160  173.6680  138.4760 C   0  0  0  0  0  1  0  0  0  0  0  0
  195.2460  175.0230  138.2540 O   0  0  0  0  0  0  0  0  0  0  0  0
  186.5000  177.6980  136.7540 C   0  0  0  0  0  2  0  0  0  0  0  0
  185.1390  178.0960  137.2940 C   0  0  0  0  0  2  0  0  0  0  0  0
  183.3260  174.9020  136.5280 C   0  0  0  0  0  3  0  0  0  0  0  0
  183.3800  176.6180  138.3610 C   0  0  0  0  0  0  0  0  0  0  0  0
  184.2140  175.9530  136.2930 C   0  0  0  0  0  3  0  0  0  0  0  0
  182.5830  175.1820  138.0160 S   0  0  0  0  0  0  0  0  0  0  0  0
  184.2350  176.9120  137.3140 C   0  0  0  0  0  0  0  0  0  0  0  0
  183.2100  177.4160  139.5380 N   0  0  0  0  0  2  0  0  0  0  0  0
  182.1840  179.5410  138.9980 C   0  0  0  0  0  1  0  0  0  0  0  0
  182.0350  178.2420  139.7690 C   0  0  2  0  0  3  0  0  0  0  0  0
  180.8700  179.4530  141.4680 O   0  0  0  0  0  1  0  0  0  0  0  0
  181.9040  178.5410  141.2530 C   0  0  0  0  0  2  0  0  0  0  0  0
  188.4330  178.7070  140.9370 C   0  0  0  0  0  2  0  0  0  0  0  0
  186.3590  177.5720  143.7700 N   0  0  0  0  0  0  0  0  0  0  0  0
  188.5160  177.2240  142.9370 C   0  0  0  0  0  3  0  0  0  0  0  0
  187.8720  178.0830  142.1680 C   0  0  0  0  0  0  0  0  0  0  0  0
  186.5410  178.2730  142.7040 C   0  0  0  0  0  0  0  0  0  0  0  0
  187.5790  176.8130  144.0380 C   0  0  1  0  0  3  0  0  0  0  0  0
  185.4970  179.1720  142.1390 C   0  0  0  0  0  1  0  0  0  0  0  0
  187.4170  177.6000  146.4800 C   0  0  0  0  0  3  0  0  0  0  0  0
  188.2990  177.7990  147.4680 N   0  0  0  0  0  0  0  0  0  0  0  0
  187.9730  178.2320  148.7590 N   0  0  0  0  0  1  0  0  0  0  0  0
  188.1350  177.1640  145.3830 C   0  0  0  0  0  0  0  0  0  0  0  0
  189.5410  177.5040  147.0450 C   0  0  0  0  0  3  0  0  0  0  0  0
  189.4770  177.0990  145.7210 C   0  0  0  0  0  3  0  0  0  0  0  0
  1  9  1  0  0  0  0
  3 29  1  0  0  0  0
  4  2  1  0  0  0  0
  5 17  1  6  0  0  0
  5 10  1  0  0  0  0
  6 11  1  0  0  0  0
  7 13  1  0  0  0  0
  7  1  2  0  0  0  0
  8  1  1  0  0  0  0
  8  4  2  0  0  0  0
  9  6  2  0  0  0  0
  9  2  1  0  0  0  0
 10  3  1  0  0  0  0
 11  3  1  0  0  0  0
 12  5  1  0  0  0  0
 12  6  1  0  0  0  0
 13 12  2  0  0  0  0
 14  4  1  0  0  0  0
 14 16  1  0  0  0  0
 16 15  1  0  0  0  0
 17 18  1  0  0  0  0
 18 23  1  0  0  0  0
 19 22  1  0  0  0  0
 20 24  1  0  0  0  0
 21 19  2  0  0  0  0
 21 23  1  0  0  0  0
 22 20  1  0  0  0  0
 23 20  2  0  0  0  0
 24 26  1  0  0  0  0
 26 25  1  6  0  0  0
 26 28  1  0  0  0  0
 28 27  1  0  0  0  0
 29 32  1  0  0  0  0
 30 34  1  0  0  0  0
 31 34  1  0  0  0  0
 32 33  1  0  0  0  0
 32 31  2  0  0  0  0
 33 30  2  0  0  0  0
 34 39  1  1  0  0  0
 35 33  1  0  0  0  0
 36 37  1  0  0  0  0
 37 38  1  0  0  0  0
 39 41  1  0  0  0  0
 39 36  2  0  0  0  0
 40 37  1  0  0  0  0
 41 40  2  0  0  0  0
M  END
>  <MODEL>
3

>  <REMARK>
 VINA RESULT:      -7.6      1.836      2.727
  Name = 
  11 active torsions:
  status: ('A' for Active; 'I' for Inactive)
    1  A    between atoms: N_8  and  C_35
    2  A    between atoms: C_9  and  C_15
    3  A    between atoms: C_12  and  C_29
    4  A    between atoms: C_14  and  N_33
    5  A    between atoms: C_15  and  O_31
    6  A    between atoms: C_17  and  C_35
    7  A    between atoms: CA_20  and  C_27
    8  A    between atoms: CA_20  and  N_33
    9  A    between atoms: C_21  and  C_29
   10  A    between atoms: C_21  and  C_37
   11  A    between atoms: C_22  and  C_38
                            x       y       z     vdW  Elec       q    Type
                         _______ _______ _______ _____ _____    ______ ____

>  <TORSDO>
F 11

$$$$
=
 OpenBabel10232410173D

 41 46  0  0  1  0  0  0  0  0999 V2000
  190.4560  176.9260  143.5150 C   0  0  0  0  0  0  0  0  0  0  0  0
  188.7720  177.7180  145.1880 S   0  0  0  0  0  0  0  0  0  0  0  0
  186.4370  178.3200  141.2220 N   0  0  0  0  0  0  0  0  0  0  0  0
  190.2200  177.0340  145.7340 C   0  0  0  0  0  0  0  0  0  0  0  0
  188.3150  177.9240  139.9060 C   0  0  2  0  0  3  0  0  0  0  0  0
  188.4930  177.8570  142.4230 C   0  0  0  0  0  0  0  0  0  0  0  0
  191.0470  176.6400  142.2850 C   0  0  0  0  0  3  0  0  0  0  0  0
  191.0240  176.6430  144.7150 N   0  0  0  0  0  0  0  0  0  0  0  0
  189.2050  177.5230  143.5750 C   0  0  0  0  0  0  0  0  0  0  0  0
  187.2310  178.8670  140.1960 N   0  0  0  0  0  2  0  0  0  0  0  0
  187.1470  178.5210  142.4860 C   0  0  0  0  0  2  0  0  0  0  0  0
  189.0930  177.6080  141.1690 C   0  0  0  0  0  0  0  0  0  0  0  0
  190.3550  176.9760  141.1120 C   0  0  0  0  0  3  0  0  0  0  0  0
  190.5570  176.8170  147.1670 C   0  0  0  0  0  2  0  0  0  0  0  0
  192.3440  175.7190  147.8550 C   0  0  0  0  0  1  0  0  0  0  0  0
  191.9320  176.9570  147.3520 O   0  0  0  0  0  0  0  0  0  0  0  0
  189.2070  178.5200  138.8280 C   0  0  0  0  0  2  0  0  0  0  0  0
  188.5930  178.2900  137.4590 C   0  0  0  0  0  2  0  0  0  0  0  0
  187.4680  174.7560  136.8910 C   0  0  0  0  0  3  0  0  0  0  0  0
  189.6050  176.0710  136.7720 C   0  0  0  0  0  0  0  0  0  0  0  0
  187.3240  176.1010  137.2350 C   0  0  0  0  0  3  0  0  0  0  0  0
  189.0900  174.4960  136.5070 S   0  0  0  0  0  0  0  0  0  0  0  0
  188.5200  176.8290  137.1750 C   0  0  0  0  0  0  0  0  0  0  0  0
  190.9400  176.5610  136.6120 N   0  0  0  0  0  2  0  0  0  0  0  0
  192.6200  176.4930  138.3550 C   0  0  0  0  0  1  0  0  0  0  0  0
  192.1100  175.8360  137.0850 C   0  0  2  0  0  3  0  0  0  0  0  0
  194.2510  176.6780  136.4400 O   0  0  0  0  0  1  0  0  0  0  0  0
  193.1960  175.8660  136.0220 C   0  0  0  0  0  2  0  0  0  0  0  0
  185.2250  179.1190  141.2860 C   0  0  0  0  0  2  0  0  0  0  0  0
  182.3850  178.1850  139.1240 N   0  0  0  0  0  0  0  0  0  0  0  0
  184.6750  178.6070  138.9100 C   0  0  0  0  0  3  0  0  0  0  0  0
  184.3120  178.7330  140.1740 C   0  0  0  0  0  0  0  0  0  0  0  0
  182.8920  178.4720  140.2730 C   0  0  0  0  0  0  0  0  0  0  0  0
  183.4480  178.2500  138.1210 C   0  0  1  0  0  3  0  0  0  0  0  0
  182.0890  178.5000  141.5260 C   0  0  0  0  0  1  0  0  0  0  0  0
  183.6220  175.6860  138.0400 C   0  0  0  0  0  3  0  0  0  0  0  0
  183.7890  174.7810  137.0670 N   0  0  0  0  0  0  0  0  0  0  0  0
  183.8440  173.3960  137.2600 N   0  0  0  0  0  1  0  0  0  0  0  0
  183.6090  176.9290  137.4360 C   0  0  0  0  0  0  0  0  0  0  0  0
  183.8780  175.3970  135.8750 C   0  0  0  0  0  3  0  0  0  0  0  0
  183.7710  176.7650  136.0700 C   0  0  0  0  0  3  0  0  0  0  0  0
  1  9  1  0  0  0  0
  1  8  1  0  0  0  0
  2  4  1  0  0  0  0
  3 29  1  0  0  0  0
  3 11  1  0  0  0  0
  4 14  1  0  0  0  0
  5 17  1  6  0  0  0
  5 10  1  0  0  0  0
  5 12  1  0  0  0  0
  6 11  1  0  0  0  0
  6  9  2  0  0  0  0
  7  1  2  0  0  0  0
  8  4  2  0  0  0  0
  9  2  1  0  0  0  0
 10  3  1  0  0  0  0
 12  6  1  0  0  0  0
 13 12  2  0  0  0  0
 13  7  1  0  0  0  0
 14 16  1  0  0  0  0
 16 15  1  0  0  0  0
 18 17  1  0  0  0  0
 19 21  2  0  0  0  0
 20 23  2  0  0  0  0
 22 20  1  0  0  0  0
 22 19  1  0  0  0  0
 23 21  1  0  0  0  0
 23 18  1  0  0  0  0
 24 20  1  0  0  0  0
 24 26  1  0  0  0  0
 26 25  1  1  0  0  0
 28 27  1  0  0  0  0
 28 26  1  0  0  0  0
 30 33  2  0  0  0  0
 31 32  2  0  0  0  0
 32 33  1  0  0  0  0
 32 29  1  0  0  0  0
 33 35  1  0  0  0  0
 34 39  1  1  0  0  0
 34 31  1  0  0  0  0
 34 30  1  0  0  0  0
 37 38  1  0  0  0  0
 37 36  1  0  0  0  0
 39 36  2  0  0  0  0
 40 41  2  0  0  0  0
 40 37  1  0  0  0  0
 41 39  1  0  0  0  0
M  END
>  <MODEL>
4

>  <REMARK>
 VINA RESULT:      -7.4      3.103      7.408
  Name = 
  11 active torsions:
  status: ('A' for Active; 'I' for Inactive)
    1  A    between atoms: N_8  and  C_35
    2  A    between atoms: C_9  and  C_15
    3  A    between atoms: C_12  and  C_29
    4  A    between atoms: C_14  and  N_33
    5  A    between atoms: C_15  and  O_31
    6  A    between atoms: C_17  and  C_35
    7  A    between atoms: CA_20  and  C_27
    8  A    between atoms: CA_20  and  N_33
    9  A    between atoms: C_21  and  C_29
   10  A    between atoms: C_21  and  C_37
   11  A    between atoms: C_22  and  C_38
                            x       y       z     vdW  Elec       q    Type
                         _______ _______ _______ _____ _____    ______ ____

>  <TORSDO>
F 11

$$$$
=
 OpenBabel10232410173D

 41 46  0  0  1  0  0  0  0  0999 V2000
  185.4020  178.6380  145.4360 C   0  0  0  0  0  0  0  0  0  0  0  0
  187.6570  177.5560  145.5210 S   0  0  0  0  0  0  0  0  0  0  0  0
  187.3290  178.5760  141.0050 N   0  0  0  0  0  0  0  0  0  0  0  0
  186.8220  177.8400  146.9650 C   0  0  0  0  0  0  0  0  0  0  0  0
  185.0780  179.1460  141.1650 C   0  0  2  0  0  3  0  0  0  0  0  0
  186.3370  178.3640  143.2080 C   0  0  0  0  0  0  0  0  0  0  0  0
  184.2530  179.2360  144.9180 C   0  0  0  0  0  3  0  0  0  0  0  0
  185.6240  178.4400  146.7600 N   0  0  0  0  0  0  0  0  0  0  0  0
  186.4180  178.2130  144.5920 C   0  0  0  0  0  0  0  0  0  0  0  0
  186.0550  178.3020  140.4710 N   0  0  0  0  0  2  0  0  0  0  0  0
  187.4270  177.8880  142.2920 C   0  0  0  0  0  2  0  0  0  0  0  0
  185.1650  178.9340  142.6640 C   0  0  0  0  0  0  0  0  0  0  0  0
  184.1440  179.3900  143.5270 C   0  0  0  0  0  3  0  0  0  0  0  0
  187.3600  177.5340  148.3180 C   0  0  0  0  0  2  0  0  0  0  0  0
  189.3590  178.4140  148.6410 C   0  0  0  0  0  1  0  0  0  0  0  0
  188.7200  177.2400  148.2270 O   0  0  0  0  0  0  0  0  0  0  0  0
  183.6900  178.8320  140.6290 C   0  0  0  0  0  2  0  0  0  0  0  0
  183.7410  178.6570  139.1230 C   0  0  0  0  0  2  0  0  0  0  0  0
  181.8720  175.4120  138.8940 C   0  0  0  0  0  3  0  0  0  0  0  0
  183.7390  176.5740  137.6810 C   0  0  0  0  0  0  0  0  0  0  0  0
  182.2030  176.6580  139.4280 C   0  0  0  0  0  3  0  0  0  0  0  0
  182.8880  175.1310  137.5780 S   0  0  0  0  0  0  0  0  0  0  0  0
  183.2500  177.3000  138.7530 C   0  0  0  0  0  0  0  0  0  0  0  0
  184.7950  176.9950  136.8110 N   0  0  0  0  0  2  0  0  0  0  0  0
  186.8830  178.2180  136.7450 C   0  0  0  0  0  1  0  0  0  0  0  0
  186.1990  176.9390  137.1890 C   0  0  2  0  0  3  0  0  0  0  0  0
  188.0370  175.4110  137.1920 O   0  0  0  0  0  1  0  0  0  0  0  0
  186.8610  175.7460  136.5190 C   0  0  0  0  0  2  0  0  0  0  0  0
  188.2970  177.9570  140.1170 C   0  0  0  0  0  2  0  0  0  0  0  0
  191.7900  177.3220  141.1220 N   0  0  0  0  0  0  0  0  0  0  0  0
  189.8750  178.3290  142.0080 C   0  0  0  0  0  3  0  0  0  0  0  0
  189.6120  177.8450  140.8080 C   0  0  0  0  0  0  0  0  0  0  0  0
  190.8150  177.2340  140.2840 C   0  0  0  0  0  0  0  0  0  0  0  0
  191.3180  178.0370  142.3060 C   0  0  1  0  0  3  0  0  0  0  0  0
  190.9430  176.5620  138.9610 C   0  0  0  0  0  1  0  0  0  0  0  0
  191.6070  177.6290  144.8280 C   0  0  0  0  0  3  0  0  0  0  0  0
  191.6970  176.5410  145.6050 N   0  0  0  0  0  0  0  0  0  0  0  0
  191.8430  176.5580  146.9970 N   0  0  0  0  0  1  0  0  0  0  0  0
  191.4580  177.1840  143.5290 C   0  0  0  0  0  0  0  0  0  0  0  0
  191.6070  175.4290  144.8530 C   0  0  0  0  0  3  0  0  0  0  0  0
  191.4580  175.7990  143.5260 C   0  0  0  0  0  3  0  0  0  0  0  0
  1  8  1  0  0  0  0
  2  4  1  0  0  0  0
  3 11  1  0  0  0  0
  4 14  1  0  0  0  0
  5 17  1  6  0  0  0
  5 12  1  0  0  0  0
  6  9  1  0  0  0  0
  7  1  1  0  0  0  0
  8  4  2  0  0  0  0
  9  1  2  0  0  0  0
  9  2  1  0  0  0  0
 10  3  1  0  0  0  0
 10  5  1  0  0  0  0
 11  6  1  0  0  0  0
 12  6  2  0  0  0  0
 12 13  1  0  0  0  0
 13  7  2  0  0  0  0
 16 14  1  0  0  0  0
 16 15  1  0  0  0  0
 18 17  1  0  0  0  0
 19 21  2  0  0  0  0
 20 23  2  0  0  0  0
 22 20  1  0  0  0  0
 22 19  1  0  0  0  0
 23 18  1  0  0  0  0
 23 21  1  0  0  0  0
 24 26  1  0  0  0  0
 24 20  1  0  0  0  0
 26 25  1  6  0  0  0
 28 26  1  0  0  0  0
 28 27  1  0  0  0  0
 29 32  1  0  0  0  0
 29  3  1  0  0  0  0
 30 34  1  0  0  0  0
 31 34  1  0  0  0  0
 32 31  2  0  0  0  0
 33 32  1  0  0  0  0
 33 30  2  0  0  0  0
 34 39  1  1  0  0  0
 35 33  1  0  0  0  0
 36 37  1  0  0  0  0
 37 38  1  0  0  0  0
 39 36  2  0  0  0  0
 40 37  1  0  0  0  0
 41 39  1  0  0  0  0
 41 40  2  0  0  0  0
M  END
>  <MODEL>
5

>  <REMARK>
 VINA RESULT:      -7.4      3.275      6.731
  Name = 
  11 active torsions:
  status: ('A' for Active; 'I' for Inactive)
    1  A    between atoms: N_8  and  C_35
    2  A    between atoms: C_9  and  C_15
    3  A    between atoms: C_12  and  C_29
    4  A    between atoms: C_14  and  N_33
    5  A    between atoms: C_15  and  O_31
    6  A    between atoms: C_17  and  C_35
    7  A    between atoms: CA_20  and  C_27
    8  A    between atoms: CA_20  and  N_33
    9  A    between atoms: C_21  and  C_29
   10  A    between atoms: C_21  and  C_37
   11  A    between atoms: C_22  and  C_38
                            x       y       z     vdW  Elec       q    Type
                         _______ _______ _______ _____ _____    ______ ____

>  <TORSDO>
F 11

$$$$
=
 OpenBabel10232410173D

 41 46  0  0  1  0  0  0  0  0999 V2000
  189.5860  177.4380  140.3220 C   0  0  0  0  0  0  0  0  0  0  0  0
  188.8870  177.3430  137.9210 S   0  0  0  0  0  0  0  0  0  0  0  0
  185.2150  179.4390  139.8330 N   0  0  0  0  0  0  0  0  0  0  0  0
  190.4460  176.8410  138.3480 C   0  0  0  0  0  0  0  0  0  0  0  0
  185.9420  179.0170  142.0030 C   0  0  2  0  0  3  0  0  0  0  0  0
  187.3020  178.2190  140.0320 C   0  0  0  0  0  0  0  0  0  0  0  0
  189.5270  177.6670  141.6960 C   0  0  0  0  0  3  0  0  0  0  0  0
  190.6810  176.9610  139.6770 N   0  0  0  0  0  0  0  0  0  0  0  0
  188.4920  177.7100  139.5130 C   0  0  0  0  0  0  0  0  0  0  0  0
  184.8310  178.8630  141.0590 N   0  0  0  0  0  2  0  0  0  0  0  0
  186.1100  178.4960  139.1620 C   0  0  0  0  0  2  0  0  0  0  0  0
  187.2130  178.4230  141.4270 C   0  0  0  0  0  0  0  0  0  0  0  0
  188.3370  178.1700  142.2430 C   0  0  0  0  0  3  0  0  0  0  0  0
  191.4750  176.3820  137.3760 C   0  0  0  0  0  2  0  0  0  0  0  0
  193.6240  176.1680  136.9190 C   0  0  0  0  0  1  0  0  0  0  0  0
  192.7380  176.4440  137.9650 O   0  0  0  0  0  0  0  0  0  0  0  0
  185.5590  178.3620  143.3210 C   0  0  0  0  0  2  0  0  0  0  0  0
  186.7610  177.6590  143.9230 C   0  0  0  0  0  2  0  0  0  0  0  0
  186.0870  178.7470  147.4500 C   0  0  0  0  0  3  0  0  0  0  0  0
  187.9180  177.5920  146.1760 C   0  0  0  0  0  0  0  0  0  0  0  0
  185.8210  178.5990  146.0880 C   0  0  0  0  0  3  0  0  0  0  0  0
  187.6020  178.0700  147.7530 S   0  0  0  0  0  0  0  0  0  0  0  0
  186.8480  177.9610  145.3790 C   0  0  0  0  0  0  0  0  0  0  0  0
  189.0930  176.9150  145.7190 N   0  0  0  0  0  2  0  0  0  0  0  0
  191.3350  177.1860  144.8460 C   0  0  0  0  0  1  0  0  0  0  0  0
  190.4390  177.3510  146.0600 C   0  0  2  0  0  3  0  0  0  0  0  0
  192.3480  176.3220  147.0630 O   0  0  0  0  0  1  0  0  0  0  0  0
  190.9730  176.5100  147.2080 C   0  0  0  0  0  2  0  0  0  0  0  0
  184.0140  179.5360  139.0210 C   0  0  0  0  0  2  0  0  0  0  0  0
  182.5570  176.2150  138.3430 N   0  0  0  0  0  0  0  0  0  0  0  0
  184.1870  177.6240  137.4340 C   0  0  0  0  0  3  0  0  0  0  0  0
  183.6510  178.1880  138.5010 C   0  0  0  0  0  0  0  0  0  0  0  0
  182.6450  177.2970  139.0370 C   0  0  0  0  0  0  0  0  0  0  0  0
  183.5100  176.2960  137.2380 C   0  0  1  0  0  3  0  0  0  0  0  0
  181.8130  177.5520  140.2450 C   0  0  0  0  0  1  0  0  0  0  0  0
  185.8340  175.2290  136.9690 C   0  0  0  0  0  3  0  0  0  0  0  0
  186.3410  174.0070  137.1760 N   0  0  0  0  0  0  0  0  0  0  0  0
  187.6780  173.6470  136.9660 N   0  0  0  0  0  1  0  0  0  0  0  0
  184.4950  175.1700  137.3050 C   0  0  0  0  0  0  0  0  0  0  0  0
  185.3830  173.1800  137.6310 C   0  0  0  0  0  3  0  0  0  0  0  0
  184.1930  173.8850  137.7230 C   0  0  0  0  0  3  0  0  0  0  0  0
  1  7  1  0  0  0  0
  2  4  1  0  0  0  0
  2  9  1  0  0  0  0
  3 10  1  0  0  0  0
  4  8  2  0  0  0  0
  5 17  1  1  0  0  0
  6 12  2  0  0  0  0
  7 13  2  0  0  0  0
  8  1  1  0  0  0  0
  9  6  1  0  0  0  0
  9  1  2  0  0  0  0
 10  5  1  0  0  0  0
 11  3  1  0  0  0  0
 11  6  1  0  0  0  0
 12  5  1  0  0  0  0
 12 13  1  0  0  0  0
 14 16  1  0  0  0  0
 14  4  1  0  0  0  0
 15 16  1  0  0  0  0
 17 18  1  0  0  0  0
 18 23  1  0  0  0  0
 19 22  1  0  0  0  0
 20 22  1  0  0  0  0
 21 19  2  0  0  0  0
 23 21  1  0  0  0  0
 23 20  2  0  0  0  0
 24 26  1  0  0  0  0
 24 20  1  0  0  0  0
 26 25  1  6  0  0  0
 26 28  1  0  0  0  0
 27 28  1  0  0  0  0
 29  3  1  0  0  0  0
 30 33  2  0  0  0  0
 31 32  2  0  0  0  0
 32 29  1  0  0  0  0
 32 33  1  0  0  0  0
 33 35  1  0  0  0  0
 34 39  1  1  0  0  0
 34 31  1  0  0  0  0
 34 30  1  0  0  0  0
 36 37  1  0  0  0  0
 36 39  2  0  0  0  0
 37 40  1  0  0  0  0
 38 37  1  0  0  0  0
 39 41  1  0  0  0  0
 40 41  2  0  0  0  0
M  END
>  <MODEL>
6

>  <REMARK>
 VINA RESULT:      -7.3      2.816      7.669
  Name = 
  11 active torsions:
  status: ('A' for Active; 'I' for Inactive)
    1  A    between atoms: N_8  and  C_35
    2  A    between atoms: C_9  and  C_15
    3  A    between atoms: C_12  and  C_29
    4  A    between atoms: C_14  and  N_33
    5  A    between atoms: C_15  and  O_31
    6  A    between atoms: C_17  and  C_35
    7  A    between atoms: CA_20  and  C_27
    8  A    between atoms: CA_20  and  N_33
    9  A    between atoms: C_21  and  C_29
   10  A    between atoms: C_21  and  C_37
   11  A    between atoms: C_22  and  C_38
                            x       y       z     vdW  Elec       q    Type
                         _______ _______ _______ _____ _____    ______ ____

>  <TORSDO>
F 11

$$$$
=
 OpenBabel10232410173D

 41 46  0  0  1  0  0  0  0  0999 V2000
  189.7700  176.8630  143.7440 C   0  0  0  0  0  0  0  0  0  0  0  0
  187.9000  177.7900  145.1250 S   0  0  0  0  0  0  0  0  0  0  0  0
  186.1900  178.3160  140.8430 N   0  0  0  0  0  0  0  0  0  0  0  0
  189.2230  177.0730  145.9000 C   0  0  0  0  0  0  0  0  0  0  0  0
  188.2180  177.7930  139.8290 C   0  0  2  0  0  3  0  0  0  0  0  0
  188.0280  177.8240  142.3460 C   0  0  0  0  0  0  0  0  0  0  0  0
  190.5190  176.5030  142.6240 C   0  0  0  0  0  3  0  0  0  0  0  0
  190.1460  176.6090  145.0230 N   0  0  0  0  0  0  0  0  0  0  0  0
  188.5510  177.5110  143.6000 C   0  0  0  0  0  0  0  0  0  0  0  0
  187.1470  178.7880  139.9240 N   0  0  0  0  0  2  0  0  0  0  0  0
  186.7190  178.5420  142.1880 C   0  0  0  0  0  2  0  0  0  0  0  0
  188.7910  177.4990  141.2020 C   0  0  0  0  0  0  0  0  0  0  0  0
  190.0190  176.8170  141.3520 C   0  0  0  0  0  3  0  0  0  0  0  0
  189.3390  176.9030  147.3730 C   0  0  0  0  0  2  0  0  0  0  0  0
  188.2070  178.0350  148.8940 C   0  0  0  0  0  1  0  0  0  0  0  0
  189.2740  178.1490  147.9960 O   0  0  0  0  0  0  0  0  0  0  0  0
  189.2810  178.3070  138.8710 C   0  0  0  0  0  2  0  0  0  0  0  0
  189.5650  177.2700  137.8010 C   0  0  0  0  0  2  0  0  0  0  0  0
  186.9400  178.0660  135.2430 C   0  0  0  0  0  3  0  0  0  0  0  0
  187.7700  176.0520  136.4920 C   0  0  0  0  0  0  0  0  0  0  0  0
  187.9800  178.3420  136.1320 C   0  0  0  0  0  3  0  0  0  0  0  0
  186.6080  176.4150  135.3380 S   0  0  0  0  0  0  0  0  0  0  0  0
  188.4350  177.2170  136.8330 C   0  0  0  0  0  0  0  0  0  0  0  0
  188.0390  174.7580  137.0410 N   0  0  0  0  0  2  0  0  0  0  0  0
  188.2270  172.3520  136.8380 C   0  0  0  0  0  1  0  0  0  0  0  0
  188.6700  173.6910  136.2780 C   0  0  2  0  0  3  0  0  0  0  0  0
  190.5630  173.9070  137.7210 O   0  0  0  0  0  1  0  0  0  0  0  0
  190.1810  173.8140  136.3820 C   0  0  0  0  0  2  0  0  0  0  0  0
  185.0180  179.1630  140.7000 C   0  0  0  0  0  2  0  0  0  0  0  0
  181.9830  177.6210  139.2780 N   0  0  0  0  0  0  0  0  0  0  0  0
  184.2050  177.9980  138.6540 C   0  0  0  0  0  3  0  0  0  0  0  0
  183.9950  178.4680  139.8700 C   0  0  0  0  0  0  0  0  0  0  0  0
  182.6130  178.2260  140.2250 C   0  0  0  0  0  0  0  0  0  0  0  0
  182.9080  177.4170  138.1650 C   0  0  1  0  0  3  0  0  0  0  0  0
  181.9710  178.5930  141.5180 C   0  0  0  0  0  1  0  0  0  0  0  0
  184.2130  175.2160  137.9150 C   0  0  0  0  0  3  0  0  0  0  0  0
  183.8940  173.9640  137.5620 N   0  0  0  0  0  0  0  0  0  0  0  0
  184.7940  172.8920  137.5060 N   0  0  0  0  0  1  0  0  0  0  0  0
  183.0500  175.9580  137.8560 C   0  0  0  0  0  0  0  0  0  0  0  0
  182.5810  173.8820  137.2860 C   0  0  0  0  0  3  0  0  0  0  0  0
  182.0100  175.1330  137.4590 C   0  0  0  0  0  3  0  0  0  0  0  0
  1  8  1  0  0  0  0
  2  4  1  0  0  0  0
  3 11  1  0  0  0  0
  4 14  1  0  0  0  0
  5 17  1  6  0  0  0
  5 10  1  0  0  0  0
  5 12  1  0  0  0  0
  6  9  2  0  0  0  0
  7  1  2  0  0  0  0
  8  4  2  0  0  0  0
  9  1  1  0  0  0  0
  9  2  1  0  0  0  0
 10  3  1  0  0  0  0
 11  6  1  0  0  0  0
 12 13  2  0  0  0  0
 12  6  1  0  0  0  0
 13  7  1  0  0  0  0
 14 16  1  0  0  0  0
 16 15  1  0  0  0  0
 18 17  1  0  0  0  0
 19 22  1  0  0  0  0
 19 21  2  0  0  0  0
 20 23  2  0  0  0  0
 20 24  1  0  0  0  0
 21 23  1  0  0  0  0
 22 20  1  0  0  0  0
 23 18  1  0  0  0  0
 26 28  1  0  0  0  0
 26 25  1  1  0  0  0
 26 24  1  0  0  0  0
 28 27  1  0  0  0  0
 29  3  1  0  0  0  0
 30 33  2  0  0  0  0
 31 32  2  0  0  0  0
 32 33  1  0  0  0  0
 32 29  1  0  0  0  0
 33 35  1  0  0  0  0
 34 39  1  1  0  0  0
 34 31  1  0  0  0  0
 34 30  1  0  0  0  0
 37 36  1  0  0  0  0
 38 37  1  0  0  0  0
 39 36  2  0  0  0  0
 40 41  2  0  0  0  0
 40 37  1  0  0  0  0
 41 39  1  0  0  0  0
M  END
>  <MODEL>
7

>  <REMARK>
 VINA RESULT:      -7.2      3.077      7.161
  Name = 
  11 active torsions:
  status: ('A' for Active; 'I' for Inactive)
    1  A    between atoms: N_8  and  C_35
    2  A    between atoms: C_9  and  C_15
    3  A    between atoms: C_12  and  C_29
    4  A    between atoms: C_14  and  N_33
    5  A    between atoms: C_15  and  O_31
    6  A    between atoms: C_17  and  C_35
    7  A    between atoms: CA_20  and  C_27
    8  A    between atoms: CA_20  and  N_33
    9  A    between atoms: C_21  and  C_29
   10  A    between atoms: C_21  and  C_37
   11  A    between atoms: C_22  and  C_38
                            x       y       z     vdW  Elec       q    Type
                         _______ _______ _______ _____ _____    ______ ____

>  <TORSDO>
F 11

$$$$
=
 OpenBabel10232410173D

 41 46  0  0  1  0  0  0  0  0999 V2000
  186.2030  177.9890  144.4430 C   0  0  0  0  0  0  0  0  0  0  0  0
  188.6060  177.2940  144.3780 S   0  0  0  0  0  0  0  0  0  0  0  0
  187.9810  178.7480  140.0150 N   0  0  0  0  0  0  0  0  0  0  0  0
  187.7800  177.2710  145.8540 C   0  0  0  0  0  0  0  0  0  0  0  0
  185.6730  178.9140  140.2640 C   0  0  2  0  0  3  0  0  0  0  0  0
  187.1040  178.1270  142.1890 C   0  0  0  0  0  0  0  0  0  0  0  0
  184.9570  178.4410  144.0100 C   0  0  0  0  0  3  0  0  0  0  0  0
  186.4940  177.6820  145.7330 N   0  0  0  0  0  0  0  0  0  0  0  0
  187.2500  177.8360  143.5450 C   0  0  0  0  0  0  0  0  0  0  0  0
  186.7540  178.3280  139.4670 N   0  0  0  0  0  2  0  0  0  0  0  0
  188.2300  177.9450  141.2120 C   0  0  0  0  0  2  0  0  0  0  0  0
  185.8380  178.5520  141.7280 C   0  0  0  0  0  0  0  0  0  0  0  0
  184.7830  178.7310  142.6490 C   0  0  0  0  0  3  0  0  0  0  0  0
  188.4000  176.9070  147.1560 C   0  0  0  0  0  2  0  0  0  0  0  0
  188.4790  178.1790  148.9590 C   0  0  0  0  0  1  0  0  0  0  0  0
  189.0510  178.0180  147.6930 O   0  0  0  0  0  0  0  0  0  0  0  0
  184.3410  178.4360  139.7100 C   0  0  0  0  0  2  0  0  0  0  0  0
  183.6360  179.5720  138.9940 C   0  0  0  0  0  2  0  0  0  0  0  0
  180.4500  179.2830  140.9540 C   0  0  0  0  0  3  0  0  0  0  0  0
  181.4000  180.7530  139.1530 C   0  0  0  0  0  0  0  0  0  0  0  0
  181.7390  178.9260  140.5540 C   0  0  0  0  0  3  0  0  0  0  0  0
  179.9840  180.6240  140.0430 S   0  0  0  0  0  0  0  0  0  0  0  0
  182.2620  179.7430  139.5430 C   0  0  0  0  0  0  0  0  0  0  0  0
  181.6810  181.7370  138.1520 N   0  0  0  0  0  2  0  0  0  0  0  0
  180.6760  181.9310  135.9580 C   0  0  0  0  0  1  0  0  0  0  0  0
  180.6390  182.4150  137.3960 C   0  0  2  0  0  3  0  0  0  0  0  0
  182.2380  184.1900  137.3570 O   0  0  0  0  0  1  0  0  0  0  0  0
  180.8720  183.9160  137.4360 C   0  0  0  0  0  2  0  0  0  0  0  0
  189.0110  178.4030  139.0500 C   0  0  0  0  0  2  0  0  0  0  0  0
  187.5020  176.8410  136.0680 N   0  0  0  0  0  0  0  0  0  0  0  0
  188.4110  176.1730  138.1160 C   0  0  0  0  0  3  0  0  0  0  0  0
  188.4460  177.4890  138.0190 C   0  0  0  0  0  0  0  0  0  0  0  0
  187.8830  177.8720  136.7410 C   0  0  0  0  0  0  0  0  0  0  0  0
  187.8030  175.6420  136.8480 C   0  0  1  0  0  3  0  0  0  0  0  0
  187.7270  179.2660  136.2430 C   0  0  0  0  0  1  0  0  0  0  0  0
  185.2850  175.3890  137.3040 C   0  0  0  0  0  3  0  0  0  0  0  0
  184.4670  174.3540  137.5330 N   0  0  0  0  0  0  0  0  0  0  0  0
  183.0870  174.4550  137.7500 N   0  0  0  0  0  1  0  0  0  0  0  0
  186.5530  174.8670  137.1290 C   0  0  0  0  0  0  0  0  0  0  0  0
  185.1610  173.2020  137.5080 C   0  0  0  0  0  3  0  0  0  0  0  0
  186.4930  173.4890  137.2570 C   0  0  0  0  0  3  0  0  0  0  0  0
  1  8  1  0  0  0  0
  2  4  1  0  0  0  0
  3 11  1  0  0  0  0
  4 14  1  0  0  0  0
  5 17  1  6  0  0  0
  5 12  1  0  0  0  0
  6  9  1  0  0  0  0
  7  1  1  0  0  0  0
  8  4  2  0  0  0  0
  9  2  1  0  0  0  0
  9  1  2  0  0  0  0
 10  3  1  0  0  0  0
 10  5  1  0  0  0  0
 11  6  1  0  0  0  0
 12  6  2  0  0  0  0
 12 13  1  0  0  0  0
 13  7  2  0  0  0  0
 14 16  1  0  0  0  0
 16 15  1  0  0  0  0
 18 23  1  0  0  0  0
 18 17  1  0  0  0  0
 20 23  2  0  0  0  0
 20 22  1  0  0  0  0
 21 19  2  0  0  0  0
 22 19  1  0  0  0  0
 23 21  1  0  0  0  0
 24 20  1  0  0  0  0
 26 25  1  6  0  0  0
 26 28  1  0  0  0  0
 26 24  1  0  0  0  0
 27 28  1  0  0  0  0
 29  3  1  0  0  0  0
 30 33  2  0  0  0  0
 30 34  1  0  0  0  0
 32 31  2  0  0  0  0
 32 29  1  0  0  0  0
 33 32  1  0  0  0  0
 34 39  1  1  0  0  0
 34 31  1  0  0  0  0
 35 33  1  0  0  0  0
 36 37  1  0  0  0  0
 37 38  1  0  0  0  0
 39 41  1  0  0  0  0
 39 36  2  0  0  0  0
 40 37  1  0  0  0  0
 41 40  2  0  0  0  0
M  END
>  <MODEL>
8

>  <REMARK>
 VINA RESULT:      -7.2      3.894      8.170
  Name = 
  11 active torsions:
  status: ('A' for Active; 'I' for Inactive)
    1  A    between atoms: N_8  and  C_35
    2  A    between atoms: C_9  and  C_15
    3  A    between atoms: C_12  and  C_29
    4  A    between atoms: C_14  and  N_33
    5  A    between atoms: C_15  and  O_31
    6  A    between atoms: C_17  and  C_35
    7  A    between atoms: CA_20  and  C_27
    8  A    between atoms: CA_20  and  N_33
    9  A    between atoms: C_21  and  C_29
   10  A    between atoms: C_21  and  C_37
   11  A    between atoms: C_22  and  C_38
                            x       y       z     vdW  Elec       q    Type
                         _______ _______ _______ _____ _____    ______ ____

>  <TORSDO>
F 11

$$$$
=
 OpenBabel10232410173D

 41 46  0  0  1  0  0  0  0  0999 V2000
  189.7370  176.9240  143.5850 C   0  0  0  0  0  0  0  0  0  0  0  0
  187.7430  177.7700  144.8370 S   0  0  0  0  0  0  0  0  0  0  0  0
  186.3250  178.2910  140.4490 N   0  0  0  0  0  0  0  0  0  0  0  0
  189.0300  177.0890  145.6980 C   0  0  0  0  0  0  0  0  0  0  0  0
  188.4370  177.8490  139.5780 C   0  0  2  0  0  3  0  0  0  0  0  0
  188.0680  177.8430  142.0750 C   0  0  0  0  0  0  0  0  0  0  0  0
  190.5760  176.6040  142.5180 C   0  0  0  0  0  3  0  0  0  0  0  0
  190.0300  176.6670  144.8850 N   0  0  0  0  0  0  0  0  0  0  0  0
  188.5100  177.5320  143.3600 C   0  0  0  0  0  0  0  0  0  0  0  0
  187.3280  178.8060  139.6050 N   0  0  0  0  0  2  0  0  0  0  0  0
  186.7490  178.5180  141.8310 C   0  0  0  0  0  2  0  0  0  0  0  0
  188.9210  177.5580  140.9860 C   0  0  0  0  0  0  0  0  0  0  0  0
  190.1570  176.9160  141.2160 C   0  0  0  0  0  3  0  0  0  0  0  0
  189.0470  176.9050  147.1740 C   0  0  0  0  0  2  0  0  0  0  0  0
  188.2400  178.3860  148.5990 C   0  0  0  0  0  1  0  0  0  0  0  0
  187.8510  177.3700  147.7190 O   0  0  0  0  0  0  0  0  0  0  0  0
  189.5480  178.4110  138.7040 C   0  0  0  0  0  2  0  0  0  0  0  0
  189.3490  177.9740  137.2650 C   0  0  0  0  0  2  0  0  0  0  0  0
  192.0650  175.3870  137.2970 C   0  0  0  0  0  3  0  0  0  0  0  0
  190.0990  176.0040  135.8600 C   0  0  0  0  0  0  0  0  0  0  0  0
  191.3590  176.5010  137.7530 C   0  0  0  0  0  3  0  0  0  0  0  0
  191.3100  174.8420  135.8900 S   0  0  0  0  0  0  0  0  0  0  0  0
  190.2680  176.8460  136.9450 C   0  0  0  0  0  0  0  0  0  0  0  0
  189.0600  176.1150  134.8820 N   0  0  0  0  0  2  0  0  0  0  0  0
  186.7130  176.6440  135.1520 C   0  0  0  0  0  1  0  0  0  0  0  0
  187.7400  175.5300  135.0600 C   0  0  2  0  0  3  0  0  0  0  0  0
  187.0540  175.4070  137.3460 O   0  0  0  0  0  1  0  0  0  0  0  0
  187.7150  174.7050  136.3370 C   0  0  0  0  0  2  0  0  0  0  0  0
  185.1380  179.1000  140.2310 C   0  0  0  0  0  2  0  0  0  0  0  0
  182.2670  177.3170  138.7510 N   0  0  0  0  0  0  0  0  0  0  0  0
  184.3960  178.0350  138.1040 C   0  0  0  0  0  3  0  0  0  0  0  0
  184.1780  178.3590  139.3660 C   0  0  0  0  0  0  0  0  0  0  0  0
  182.8530  177.9080  139.7340 C   0  0  0  0  0  0  0  0  0  0  0  0
  183.1650  177.3390  137.5970 C   0  0  1  0  0  3  0  0  0  0  0  0
  182.2220  178.0680  141.0740 C   0  0  0  0  0  1  0  0  0  0  0  0
  183.8090  174.8750  137.9520 C   0  0  0  0  0  3  0  0  0  0  0  0
  184.0080  173.8250  137.1440 N   0  0  0  0  0  0  0  0  0  0  0  0
  184.3510  172.5370  137.5720 N   0  0  0  0  0  1  0  0  0  0  0  0
  183.4760  175.9460  137.1450 C   0  0  0  0  0  0  0  0  0  0  0  0
  183.8110  174.1850  135.8630 C   0  0  0  0  0  3  0  0  0  0  0  0
  183.4740  175.5290  135.8240 C   0  0  0  0  0  3  0  0  0  0  0  0
  1  8  1  0  0  0  0
  2  4  1  0  0  0  0
  3 11  1  0  0  0  0
  4 14  1  0  0  0  0
  5 17  1  6  0  0  0
  5 10  1  0  0  0  0
  5 12  1  0  0  0  0
  6  9  2  0  0  0  0
  7  1  2  0  0  0  0
  8  4  2  0  0  0  0
  9  1  1  0  0  0  0
  9  2  1  0  0  0  0
 10  3  1  0  0  0  0
 11  6  1  0  0  0  0
 12 13  2  0  0  0  0
 12  6  1  0  0  0  0
 13  7  1  0  0  0  0
 14 16  1  0  0  0  0
 16 15  1  0  0  0  0
 18 17  1  0  0  0  0
 19 21  2  0  0  0  0
 20 22  1  0  0  0  0
 20 23  2  0  0  0  0
 22 19  1  0  0  0  0
 23 18  1  0  0  0  0
 23 21  1  0  0  0  0
 24 26  1  0  0  0  0
 24 20  1  0  0  0  0
 26 25  1  1  0  0  0
 26 28  1  0  0  0  0
 28 27  1  0  0  0  0
 29  3  1  0  0  0  0
 30 33  2  0  0  0  0
 31 32  2  0  0  0  0
 32 33  1  0  0  0  0
 32 29  1  0  0  0  0
 33 35  1  0  0  0  0
 34 39  1  1  0  0  0
 34 31  1  0  0  0  0
 34 30  1  0  0  0  0
 37 38  1  0  0  0  0
 37 36  1  0  0  0  0
 39 36  2  0  0  0  0
 40 37  1  0  0  0  0
 41 40  2  0  0  0  0
 41 39  1  0  0  0  0
M  END
>  <MODEL>
9

>  <REMARK>
 VINA RESULT:      -7.0      2.959      7.546
  Name = 
  11 active torsions:
  status: ('A' for Active; 'I' for Inactive)
    1  A    between atoms: N_8  and  C_35
    2  A    between atoms: C_9  and  C_15
    3  A    between atoms: C_12  and  C_29
    4  A    between atoms: C_14  and  N_33
    5  A    between atoms: C_15  and  O_31
    6  A    between atoms: C_17  and  C_35
    7  A    between atoms: CA_20  and  C_27
    8  A    between atoms: CA_20  and  N_33
    9  A    between atoms: C_21  and  C_29
   10  A    between atoms: C_21  and  C_37
   11  A    between atoms: C_22  and  C_38
                            x       y       z     vdW  Elec       q    Type
                         _______ _______ _______ _____ _____    ______ ____

>  <TORSDO>
F 11

$$$$
