=
 OpenBabel10232410003D

 58 64  0  0  1  0  0  0  0  0999 V2000
  189.0670  177.5500  140.6590 S   0  0  0  0  0  0  0  0  0  0  0  0
  192.1870  177.2030  141.2950 C   0  0  0  0  0  2  0  0  0  0  0  0
  191.2510  177.8940  142.2760 C   0  0  0  0  0  2  0  0  0  0  0  0
  191.6890  177.3480  139.8630 C   0  0  0  0  0  2  0  0  0  0  0  0
  190.3430  176.6510  139.6920 C   0  0  2  0  0  3  0  0  0  0  0  0
  189.8800  177.2350  142.2620 C   0  0  1  0  0  3  0  0  0  0  0  0
  189.3570  177.6680  137.4610 C   0  0  1  0  0  3  0  0  0  0  0  0
  188.4880  176.5190  137.9440 C   0  0  0  0  0  2  0  0  0  0  0  0
  189.9870  176.4820  138.1980 C   0  0  2  0  0  0  0  0  0  0  0  0
  192.8110  174.3700  136.7990 C   0  0  0  0  0  3  0  0  0  0  0  0
  192.1500  175.4330  137.2570 C   0  0  0  0  0  3  0  0  0  0  0  0
  190.6440  173.2170  136.2120 C   0  0  0  0  0  2  0  0  0  0  0  0
  189.9900  174.3150  137.0070 C   0  0  0  0  0  3  0  0  0  0  0  0
  190.6790  175.3870  137.4220 C   0  0  0  0  0  0  0  0  0  0  0  0
  192.0900  173.1870  136.4330 N   0  0  0  0  0  2  0  0  0  0  0  0
  189.4870  177.6110  135.9440 C   0  0  0  0  0  2  0  0  0  0  0  0
  188.1100  177.5760  135.3000 C   0  0  0  0  0  2  0  0  0  0  0  0
  187.9770  176.3890  134.4660 N   0  0  0  0  0  2  0  0  0  0  0  0
  187.1330  173.6870  134.8030 C   0  0  0  0  0  2  0  0  0  0  0  0
  185.7780  177.1300  135.1510 C   0  0  0  0  0  2  0  0  0  0  0  0
  186.5620  176.0540  134.4100 C   0  0  2  0  0  3  0  0  0  0  0  0
  186.2870  174.6950  135.0250 C   0  0  0  0  0  0  0  0  0  0  0  0
  183.9060  175.5090  135.3850 C   0  0  0  0  0  0  0  0  0  0  0  0
  182.3600  174.4300  137.0410 C   0  0  2  0  0  3  0  0  0  0  0  0
  183.3330  173.2350  137.0700 C   0  0  0  0  0  2  0  0  0  0  0  0
  182.4700  175.1600  135.6890 C   0  0  1  0  0  3  0  0  0  0  0  0
  184.7800  173.6590  136.7750 C   0  0  0  0  0  2  0  0  0  0  0  0
  184.8660  174.3420  135.4080 C   0  0  2  0  0  3  0  0  0  0  0  0
  184.3220  176.7810  135.2540 C   0  0  0  0  0  3  0  0  0  0  0  0
  181.4700  176.2630  135.4810 C   0  0  0  0  0  0  0  0  0  0  0  0
  180.4930  176.0800  134.7040 O   0  0  0  0  0  0  0  0  0  0  0  0
  181.6480  177.5060  136.0710 O   0  0  0  0  0  1  0  0  0  0  0  0
  181.4250  175.4000  139.1490 C   0  0  0  0  0  1  0  0  0  0  0  0
  182.6250  175.3620  138.2240 C   0  0  0  0  0  2  0  0  0  0  0  0
  189.0350  177.8120  143.3850 C   0  0  0  0  0  2  0  0  0  0  0  0
  189.8240  177.9350  144.6010 N   0  0  0  0  0  2  0  0  0  0  0  0
  188.1190  176.3550  148.2590 F   0  0  0  0  0  0  0  0  0  0  0  0
  188.1430  177.7060  147.9600 C   0  0  0  0  0  0  0  0  0  0  0  0
  189.1160  177.2270  145.6570 C   0  0  1  0  0  3  0  0  0  0  0  0
  186.7810  178.1140  147.3600 C   0  0  1  0  0  3  0  0  0  0  0  0
  188.3720  178.4060  149.1330 F   0  0  0  0  0  0  0  0  0  0  0  0
  186.3850  179.3570  147.8190 F   0  0  0  0  0  0  0  0  0  0  0  0
  189.2860  177.9850  146.9840 C   0  0  0  0  0  2  0  0  0  0  0  0
  186.7500  178.1090  145.8250 C   0  0  1  0  0  3  0  0  0  0  0  0
  187.6490  177.0100  145.2580 C   0  0  0  0  0  2  0  0  0  0  0  0
  185.4370  177.9220  145.3850 O   0  0  0  0  0  0  0  0  0  0  0  0
  185.5460  179.6760  143.7420 C   0  0  0  0  0  2  0  0  0  0  0  0
  183.3470  179.0590  142.7520 C   0  0  0  0  0  2  0  0  0  0  0  0
  184.9620  179.2020  145.0800 C   0  0  1  0  0  3  0  0  0  0  0  0
  183.4330  179.1970  144.9960 C   0  0  0  0  0  2  0  0  0  0  0  0
  183.0080  178.3790  143.9350 O   0  0  0  0  0  0  0  0  0  0  0  0
  184.8770  179.0330  142.5160 C   0  0  2  0  0  0  0  0  0  0  0  0
  185.3890  177.5980  142.3990 C   0  0  0  0  0  1  0  0  0  0  0  0
  185.2770  179.7970  141.3880 O   0  0  0  0  0  0  0  0  0  0  0  0
  185.8630  178.5140  139.1090 O   0  0  0  0  0  1  0  0  0  0  0  0
  183.5500  177.9650  140.2010 O   0  0  0  0  0  1  0  0  0  0  0  0
  184.7320  179.1370  139.8990 P   0  0  0  0  0  0  0  0  0  0  0  0
  184.0390  180.3790  138.9760 O   0  0  0  0  0  0  0  0  0  0  0  0
  1  6  1  0  0  0  0
  2  3  1  0  0  0  0
  4  2  1  0  0  0  0
  5  4  1  6  0  0  0
  5  1  1  0  0  0  0
  6  3  1  0  0  0  0
  6 35  1  1  0  0  0
  7 16  1  6  0  0  0
  7  8  1  0  0  0  0
  7  9  1  0  0  0  0
  8  9  1  0  0  0  0
  9 14  1  6  0  0  0
  9  5  1  0  0  0  0
 10 11  2  0  0  0  0
 11 14  1  0  0  0  0
 12 15  1  0  0  0  0
 12 13  1  0  0  0  0
 13 14  2  0  0  0  0
 15 10  1  0  0  0  0
 17 16  1  0  0  0  0
 18 17  1  0  0  0  0
 19 22  2  0  0  0  0
 20 29  1  0  0  0  0
 21 18  1  1  0  0  0
 21 22  1  0  0  0  0
 21 20  1  0  0  0  0
 22 28  1  0  0  0  0
 23 28  1  0  0  0  0
 23 26  1  0  0  0  0
 24 25  1  0  0  0  0
 24 34  1  1  0  0  0
 26 30  1  1  0  0  0
 26 24  1  0  0  0  0
 27 25  1  0  0  0  0
 28 27  1  1  0  0  0
 29 23  2  0  0  0  0
 30 32  1  0  0  0  0
 31 30  2  0  0  0  0
 34 33  1  0  0  0  0
 35 36  1  0  0  0  0
 38 37  1  0  0  0  0
 38 41  1  0  0  0  0
 39 36  1  6  0  0  0
 39 43  1  0  0  0  0
 40 42  1  6  0  0  0
 40 38  1  0  0  0  0
 43 38  1  0  0  0  0
 44 46  1  1  0  0  0
 44 40  1  0  0  0  0
 45 39  1  0  0  0  0
 45 44  1  0  0  0  0
 47 49  1  0  0  0  0
 48 51  1  0  0  0  0
 49 46  1  6  0  0  0
 50 49  1  0  0  0  0
 51 50  1  0  0  0  0
 52 53  1  6  0  0  0
 52 48  1  0  0  0  0
 52 47  1  0  0  0  0
 54 52  1  0  0  0  0
 55 57  1  0  0  0  0
 57 56  1  0  0  0  0
 57 54  1  0  0  0  0
 58 57  2  0  0  0  0
M  END
>  <MODEL>
1

>  <REMARK>
 VINA RESULT:      -8.4      0.000      0.000
  Name = 
  15 active torsions:
  status: ('A' for Active; 'I' for Inactive)
    1  A    between atoms: N_3  and  C_4
    2  A    between atoms: N_3  and  C_15
    3  A    between atoms: C_4  and  C_20
    4  A    between atoms: C_7  and  C_47
    5  A    between atoms: C_11  and  C_34
    6  A    between atoms: N_13  and  C_25
    7  A    between atoms: N_13  and  C_37
    8  A    between atoms: O_19  and  C_26
    9  A    between atoms: O_19  and  C_55
   10  A    between atoms: C_20  and  C_22
   11  A    between atoms: C_25  and  C_53
   12  A    between atoms: P_31  and  O_50
   13  A    between atoms: C_40  and  O_50
   14  A    between atoms: C_42  and  C_57
   15  A    between atoms: C_43  and  C_57
                            x       y       z     vdW  Elec       q    Type
                         _______ _______ _______ _____ _____    ______ ____

>  <TORSDO>
F 15

$$$$
=
 OpenBabel10232410003D

 58 64  0  0  1  0  0  0  0  0999 V2000
  189.1710  177.2910  140.4240 S   0  0  0  0  0  0  0  0  0  0  0  0
  192.2560  177.2320  141.2810 C   0  0  0  0  0  2  0  0  0  0  0  0
  191.2060  177.9130  142.1480 C   0  0  0  0  0  2  0  0  0  0  0  0
  191.8480  177.2390  139.8130 C   0  0  0  0  0  2  0  0  0  0  0  0
  190.5720  176.4290  139.6090 C   0  0  2  0  0  3  0  0  0  0  0  0
  189.8920  177.1500  142.0940 C   0  0  1  0  0  3  0  0  0  0  0  0
  191.1490  175.0160  137.4520 C   0  0  1  0  0  3  0  0  0  0  0  0
  191.5380  176.4710  137.2480 C   0  0  0  0  0  2  0  0  0  0  0  0
  190.3340  176.1320  138.1120 C   0  0  2  0  0  0  0  0  0  0  0  0
  187.9290  178.2120  136.0410 C   0  0  0  0  0  3  0  0  0  0  0  0
  188.9780  177.8950  136.8010 C   0  0  0  0  0  3  0  0  0  0  0  0
  186.6610  176.1920  136.8680 C   0  0  0  0  0  2  0  0  0  0  0  0
  187.9780  175.7610  137.4540 C   0  0  0  0  0  3  0  0  0  0  0  0
  189.0330  176.5880  137.4950 C   0  0  0  0  0  0  0  0  0  0  0  0
  186.8340  177.2970  135.9230 N   0  0  0  0  0  2  0  0  0  0  0  0
  190.5410  174.4630  136.1690 C   0  0  0  0  0  2  0  0  0  0  0  0
  190.9110  172.9980  136.0010 C   0  0  0  0  0  2  0  0  0  0  0  0
  192.0630  172.8700  135.1190 N   0  0  0  0  0  2  0  0  0  0  0  0
  193.6010  170.6370  135.9950 C   0  0  0  0  0  2  0  0  0  0  0  0
  194.0140  174.2780  135.3770 C   0  0  0  0  0  2  0  0  0  0  0  0
  193.2550  173.0770  135.9280 C   0  0  2  0  0  3  0  0  0  0  0  0
  194.1490  171.8520  135.9260 C   0  0  0  0  0  0  0  0  0  0  0  0
  196.0520  173.4280  136.5220 C   0  0  0  0  0  0  0  0  0  0  0  0
  198.4590  172.8090  136.1720 C   0  0  2  0  0  3  0  0  0  0  0  0
  197.9930  171.3470  136.0240 C   0  0  0  0  0  2  0  0  0  0  0  0
  197.4580  173.5900  137.0450 C   0  0  1  0  0  3  0  0  0  0  0  0
  196.5630  171.2490  135.4680 C   0  0  0  0  0  2  0  0  0  0  0  0
  195.5860  171.9970  136.3770 C   0  0  2  0  0  3  0  0  0  0  0  0
  195.3280  174.4690  136.0780 C   0  0  0  0  0  3  0  0  0  0  0  0
  197.8740  174.9960  137.3810 C   0  0  0  0  0  0  0  0  0  0  0  0
  197.7070  175.9140  136.5320 O   0  0  0  0  0  0  0  0  0  0  0  0
  198.5100  175.2830  138.5800 O   0  0  0  0  0  1  0  0  0  0  0  0
  199.9980  174.1370  134.7140 C   0  0  0  0  0  1  0  0  0  0  0  0
  198.6500  173.4500  134.7970 C   0  0  0  0  0  2  0  0  0  0  0  0
  188.9310  177.7350  143.1160 C   0  0  0  0  0  2  0  0  0  0  0  0
  189.6380  178.0710  144.3430 N   0  0  0  0  0  2  0  0  0  0  0  0
  188.2280  176.3510  148.0620 F   0  0  0  0  0  0  0  0  0  0  0  0
  188.1980  177.7090  147.8010 C   0  0  0  0  0  0  0  0  0  0  0  0
  189.0220  177.3160  145.4240 C   0  0  1  0  0  3  0  0  0  0  0  0
  186.7890  178.0970  147.3060 C   0  0  1  0  0  3  0  0  0  0  0  0
  188.4910  178.3840  148.9740 F   0  0  0  0  0  0  0  0  0  0  0  0
  186.3960  179.3170  147.8260 F   0  0  0  0  0  0  0  0  0  0  0  0
  189.2650  178.0430  146.7570 C   0  0  0  0  0  2  0  0  0  0  0  0
  186.6530  178.1310  145.7770 C   0  0  1  0  0  3  0  0  0  0  0  0
  187.5360  177.0720  145.1200 C   0  0  0  0  0  2  0  0  0  0  0  0
  185.3170  177.9220  145.4230 O   0  0  0  0  0  0  0  0  0  0  0  0
  185.3960  179.7030  143.8080 C   0  0  0  0  0  2  0  0  0  0  0  0
  183.2330  179.0340  142.7750 C   0  0  0  0  0  2  0  0  0  0  0  0
  184.8070  179.1910  145.1290 C   0  0  1  0  0  3  0  0  0  0  0  0
  183.2800  179.1390  145.0220 C   0  0  0  0  0  2  0  0  0  0  0  0
  182.8970  178.3250  143.9430 O   0  0  0  0  0  0  0  0  0  0  0  0
  184.7660  179.0580  142.5630 C   0  0  2  0  0  0  0  0  0  0  0  0
  185.3240  177.6410  142.4320 C   0  0  0  0  0  1  0  0  0  0  0  0
  185.1590  179.8510  141.4520 O   0  0  0  0  0  0  0  0  0  0  0  0
  184.0450  180.2010  139.0390 O   0  0  0  0  0  0  0  0  0  0  0  0
  186.0590  178.5350  139.1690 O   0  0  0  0  0  1  0  0  0  0  0  0
  184.6960  179.1740  139.9420 P   0  0  0  0  0  0  0  0  0  0  0  0
  183.5950  177.9180  140.2260 O   0  0  0  0  0  1  0  0  0  0  0  0
  1  6  1  0  0  0  0
  2  3  1  0  0  0  0
  4  2  1  0  0  0  0
  5  4  1  6  0  0  0
  5  1  1  0  0  0  0
  6  3  1  0  0  0  0
  6 35  1  1  0  0  0
  7 16  1  6  0  0  0
  7  9  1  0  0  0  0
  8  7  1  0  0  0  0
  8  9  1  0  0  0  0
  9 14  1  6  0  0  0
  9  5  1  0  0  0  0
 10 11  2  0  0  0  0
 11 14  1  0  0  0  0
 12 13  1  0  0  0  0
 13 14  2  0  0  0  0
 15 10  1  0  0  0  0
 15 12  1  0  0  0  0
 17 16  1  0  0  0  0
 18 17  1  0  0  0  0
 20 21  1  0  0  0  0
 20 29  1  0  0  0  0
 21 18  1  6  0  0  0
 22 21  1  0  0  0  0
 22 19  2  0  0  0  0
 22 28  1  0  0  0  0
 23 26  1  0  0  0  0
 24 34  1  6  0  0  0
 24 26  1  0  0  0  0
 25 24  1  0  0  0  0
 26 30  1  6  0  0  0
 27 25  1  0  0  0  0
 28 27  1  6  0  0  0
 28 23  1  0  0  0  0
 29 23  2  0  0  0  0
 30 32  1  0  0  0  0
 31 30  2  0  0  0  0
 33 34  1  0  0  0  0
 35 36  1  0  0  0  0
 38 37  1  0  0  0  0
 38 41  1  0  0  0  0
 39 36  1  6  0  0  0
 39 43  1  0  0  0  0
 40 38  1  0  0  0  0
 40 42  1  6  0  0  0
 43 38  1  0  0  0  0
 44 46  1  1  0  0  0
 44 40  1  0  0  0  0
 45 39  1  0  0  0  0
 45 44  1  0  0  0  0
 47 49  1  0  0  0  0
 48 51  1  0  0  0  0
 49 46  1  6  0  0  0
 50 49  1  0  0  0  0
 51 50  1  0  0  0  0
 52 53  1  6  0  0  0
 52 48  1  0  0  0  0
 52 47  1  0  0  0  0
 54 52  1  0  0  0  0
 55 57  2  0  0  0  0
 56 57  1  0  0  0  0
 57 58  1  0  0  0  0
 57 54  1  0  0  0  0
M  END
>  <MODEL>
2

>  <REMARK>
 VINA RESULT:      -8.2      3.335      7.510
  Name = 
  15 active torsions:
  status: ('A' for Active; 'I' for Inactive)
    1  A    between atoms: N_3  and  C_4
    2  A    between atoms: N_3  and  C_15
    3  A    between atoms: C_4  and  C_20
    4  A    between atoms: C_7  and  C_47
    5  A    between atoms: C_11  and  C_34
    6  A    between atoms: N_13  and  C_25
    7  A    between atoms: N_13  and  C_37
    8  A    between atoms: O_19  and  C_26
    9  A    between atoms: O_19  and  C_55
   10  A    between atoms: C_20  and  C_22
   11  A    between atoms: C_25  and  C_53
   12  A    between atoms: P_31  and  O_50
   13  A    between atoms: C_40  and  O_50
   14  A    between atoms: C_42  and  C_57
   15  A    between atoms: C_43  and  C_57
                            x       y       z     vdW  Elec       q    Type
                         _______ _______ _______ _____ _____    ______ ____

>  <TORSDO>
F 15

$$$$
=
 OpenBabel10232410003D

 58 64  0  0  1  0  0  0  0  0999 V2000
  185.0960  177.2300  138.3630 S   0  0  0  0  0  0  0  0  0  0  0  0
  182.8320  177.4420  136.1070 C   0  0  0  0  0  2  0  0  0  0  0  0
  182.5020  177.6350  137.5810 C   0  0  0  0  0  2  0  0  0  0  0  0
  184.0380  176.5290  135.9270 C   0  0  0  0  0  2  0  0  0  0  0  0
  185.2840  177.1610  136.5380 C   0  0  2  0  0  3  0  0  0  0  0  0
  183.6460  178.3360  138.2970 C   0  0  1  0  0  3  0  0  0  0  0  0
  187.8960  177.1860  136.1410 C   0  0  1  0  0  3  0  0  0  0  0  0
  187.1650  177.0490  134.8170 C   0  0  0  0  0  2  0  0  0  0  0  0
  186.5650  176.4340  136.0710 C   0  0  2  0  0  0  0  0  0  0  0  0
  186.8620  172.9280  134.6510 C   0  0  0  0  0  3  0  0  0  0  0  0
  186.6280  174.2390  134.7140 C   0  0  0  0  0  3  0  0  0  0  0  0
  186.5590  172.7080  137.1470 C   0  0  0  0  0  2  0  0  0  0  0  0
  186.5980  174.2120  137.1590 C   0  0  0  0  0  3  0  0  0  0  0  0
  186.5470  174.9240  136.0240 C   0  0  0  0  0  0  0  0  0  0  0  0
  187.0040  172.1720  135.8590 N   0  0  0  0  0  2  0  0  0  0  0  0
  189.1290  176.2900  136.1410 C   0  0  0  0  0  2  0  0  0  0  0  0
  190.1880  176.8540  135.2080 C   0  0  0  0  0  2  0  0  0  0  0  0
  191.0820  175.7930  134.7660 N   0  0  0  0  0  2  0  0  0  0  0  0
  190.9070  173.1060  135.7010 C   0  0  0  0  0  2  0  0  0  0  0  0
  193.2480  175.9900  135.8280 C   0  0  0  0  0  2  0  0  0  0  0  0
  191.8590  175.3700  135.9220 C   0  0  2  0  0  3  0  0  0  0  0  0
  191.9680  173.8590  135.9970 C   0  0  0  0  0  0  0  0  0  0  0  0
  194.0620  174.2330  137.3890 C   0  0  0  0  0  0  0  0  0  0  0  0
  195.7990  172.4470  137.6950 C   0  0  2  0  0  3  0  0  0  0  0  0
  194.7560  171.4370  137.1810 C   0  0  0  0  0  2  0  0  0  0  0  0
  195.0860  173.6540  138.3350 C   0  0  1  0  0  3  0  0  0  0  0  0
  193.7570  172.0810  136.2070 C   0  0  0  0  0  2  0  0  0  0  0  0
  193.0330  173.2490  136.8820 C   0  0  2  0  0  3  0  0  0  0  0  0
  194.1510  175.4880  136.9170 C   0  0  0  0  0  3  0  0  0  0  0  0
  195.9960  174.6480  139.0010 C   0  0  0  0  0  0  0  0  0  0  0  0
  197.1860  174.7700  138.5990 O   0  0  0  0  0  0  0  0  0  0  0  0
  195.5710  175.3760  140.1030 O   0  0  0  0  0  1  0  0  0  0  0  0
  197.3010  171.6450  135.8620 C   0  0  0  0  0  1  0  0  0  0  0  0
  196.7410  172.8650  136.5650 C   0  0  0  0  0  2  0  0  0  0  0  0
  183.2100  178.6900  139.7090 C   0  0  0  0  0  2  0  0  0  0  0  0
  184.1630  178.1720  140.6790 N   0  0  0  0  0  2  0  0  0  0  0  0
  183.6580  180.6270  144.2140 F   0  0  0  0  0  0  0  0  0  0  0  0
  183.5940  179.2450  144.2410 C   0  0  0  0  0  0  0  0  0  0  0  0
  184.2310  179.1220  141.7790 C   0  0  1  0  0  3  0  0  0  0  0  0
  184.9640  178.6840  144.6780 C   0  0  1  0  0  3  0  0  0  0  0  0
  182.6180  178.8720  145.1490 F   0  0  0  0  0  0  0  0  0  0  0  0
  184.8130  177.5990  145.5210 F   0  0  0  0  0  0  0  0  0  0  0  0
  183.2020  178.7330  142.8540 C   0  0  0  0  0  2  0  0  0  0  0  0
  185.8800  178.2940  143.5100 C   0  0  1  0  0  3  0  0  0  0  0  0
  185.6680  179.2170  142.3100 C   0  0  0  0  0  2  0  0  0  0  0  0
  187.2140  178.3510  143.9230 O   0  0  0  0  0  0  0  0  0  0  0  0
  188.2670  176.4260  142.9370 C   0  0  0  0  0  2  0  0  0  0  0  0
  190.4110  176.8260  144.1370 C   0  0  0  0  0  2  0  0  0  0  0  0
  187.5820  177.0240  144.1730 C   0  0  1  0  0  3  0  0  0  0  0  0
  188.5330  176.9520  145.3700 C   0  0  0  0  0  2  0  0  0  0  0  0
  189.7330  177.6230  145.0780 O   0  0  0  0  0  0  0  0  0  0  0  0
  189.7200  176.8930  142.7530 C   0  0  2  0  0  0  0  0  0  0  0  0
  189.6910  178.3270  142.2240 C   0  0  0  0  0  1  0  0  0  0  0  0
  190.3090  176.0230  141.7980 O   0  0  0  0  0  0  0  0  0  0  0  0
  190.7660  175.7550  139.1700 O   0  0  0  0  0  0  0  0  0  0  0  0
  189.2540  177.7630  139.8980 O   0  0  0  0  0  1  0  0  0  0  0  0
  190.5730  176.7720  140.2750 P   0  0  0  0  0  0  0  0  0  0  0  0
  191.9630  177.7370  140.3780 O   0  0  0  0  0  1  0  0  0  0  0  0
  2  3  1  0  0  0  0
  3  6  1  0  0  0  0
  4  2  1  0  0  0  0
  5  4  1  6  0  0  0
  5  1  1  0  0  0  0
  6  1  1  0  0  0  0
  6 35  1  1  0  0  0
  7 16  1  6  0  0  0
  8  9  1  0  0  0  0
  8  7  1  0  0  0  0
  9 14  1  1  0  0  0
  9  7  1  0  0  0  0
  9  5  1  0  0  0  0
 10 11  2  0  0  0  0
 10 15  1  0  0  0  0
 11 14  1  0  0  0  0
 12 13  1  0  0  0  0
 14 13  2  0  0  0  0
 15 12  1  0  0  0  0
 17 16  1  0  0  0  0
 18 17  1  0  0  0  0
 19 22  2  0  0  0  0
 20 21  1  0  0  0  0
 20 29  1  0  0  0  0
 21 18  1  6  0  0  0
 21 22  1  0  0  0  0
 22 28  1  0  0  0  0
 23 26  1  0  0  0  0
 24 34  1  6  0  0  0
 24 26  1  0  0  0  0
 25 24  1  0  0  0  0
 26 30  1  6  0  0  0
 27 25  1  0  0  0  0
 28 27  1  6  0  0  0
 28 23  1  0  0  0  0
 29 23  2  0  0  0  0
 30 32  1  0  0  0  0
 31 30  2  0  0  0  0
 33 34  1  0  0  0  0
 35 36  1  0  0  0  0
 37 38  1  0  0  0  0
 38 40  1  0  0  0  0
 38 41  1  0  0  0  0
 39 36  1  6  0  0  0
 39 45  1  0  0  0  0
 39 43  1  0  0  0  0
 40 42  1  1  0  0  0
 43 38  1  0  0  0  0
 44 46  1  1  0  0  0
 44 40  1  0  0  0  0
 45 44  1  0  0  0  0
 47 49  1  0  0  0  0
 48 51  1  0  0  0  0
 49 46  1  6  0  0  0
 49 50  1  0  0  0  0
 51 50  1  0  0  0  0
 52 53  1  6  0  0  0
 52 47  1  0  0  0  0
 52 48  1  0  0  0  0
 54 52  1  0  0  0  0
 55 57  2  0  0  0  0
 56 57  1  0  0  0  0
 57 58  1  0  0  0  0
 57 54  1  0  0  0  0
M  END
>  <MODEL>
3

>  <REMARK>
 VINA RESULT:      -7.5      3.622      7.910
  Name = 
  15 active torsions:
  status: ('A' for Active; 'I' for Inactive)
    1  A    between atoms: N_3  and  C_4
    2  A    between atoms: N_3  and  C_15
    3  A    between atoms: C_4  and  C_20
    4  A    between atoms: C_7  and  C_47
    5  A    between atoms: C_11  and  C_34
    6  A    between atoms: N_13  and  C_25
    7  A    between atoms: N_13  and  C_37
    8  A    between atoms: O_19  and  C_26
    9  A    between atoms: O_19  and  C_55
   10  A    between atoms: C_20  and  C_22
   11  A    between atoms: C_25  and  C_53
   12  A    between atoms: P_31  and  O_50
   13  A    between atoms: C_40  and  O_50
   14  A    between atoms: C_42  and  C_57
   15  A    between atoms: C_43  and  C_57
                            x       y       z     vdW  Elec       q    Type
                         _______ _______ _______ _____ _____    ______ ____

>  <TORSDO>
F 15

$$$$
=
 OpenBabel10232410003D

 58 64  0  0  1  0  0  0  0  0999 V2000
  189.6120  177.0600  140.0020 S   0  0  0  0  0  0  0  0  0  0  0  0
  192.6530  177.3260  140.9700 C   0  0  0  0  0  2  0  0  0  0  0  0
  191.5130  177.9530  141.7590 C   0  0  0  0  0  2  0  0  0  0  0  0
  192.3060  177.2190  139.4910 C   0  0  0  0  0  2  0  0  0  0  0  0
  191.1160  176.2870  139.2870 C   0  0  2  0  0  3  0  0  0  0  0  0
  190.2750  177.0720  141.7020 C   0  0  1  0  0  3  0  0  0  0  0  0
  189.8200  176.5100  136.9950 C   0  0  1  0  0  3  0  0  0  0  0  0
  189.6990  175.0940  137.5310 C   0  0  0  0  0  2  0  0  0  0  0  0
  190.9660  175.8920  137.8010 C   0  0  2  0  0  0  0  0  0  0  0  0
  194.4630  175.7080  136.3410 C   0  0  0  0  0  3  0  0  0  0  0  0
  193.2960  176.2150  136.7370 C   0  0  0  0  0  3  0  0  0  0  0  0
  193.4590  173.3970  136.1890 C   0  0  0  0  0  2  0  0  0  0  0  0
  192.2830  173.9960  136.9110 C   0  0  0  0  0  3  0  0  0  0  0  0
  192.1710  175.3200  137.0920 C   0  0  0  0  0  0  0  0  0  0  0  0
  194.6190  174.2880  136.2270 N   0  0  0  0  0  2  0  0  0  0  0  0
  190.0170  176.4710  135.4840 C   0  0  0  0  0  2  0  0  0  0  0  0
  189.4230  177.7160  134.8450 C   0  0  0  0  0  2  0  0  0  0  0  0
  188.0830  177.4330  134.3490 N   0  0  0  0  0  2  0  0  0  0  0  0
  186.6890  178.5850  136.5510 C   0  0  0  0  0  2  0  0  0  0  0  0
  186.7500  175.4270  134.5930 C   0  0  0  0  0  2  0  0  0  0  0  0
  187.4300  176.5770  135.3280 C   0  0  2  0  0  3  0  0  0  0  0  0
  186.4100  177.3450  136.1470 C   0  0  0  0  0  0  0  0  0  0  0  0
  185.2990  175.1000  136.5870 C   0  0  0  0  0  0  0  0  0  0  0  0
  182.9130  174.9160  137.3420 C   0  0  2  0  0  3  0  0  0  0  0  0
  182.9790  176.4140  137.6980 C   0  0  0  0  0  2  0  0  0  0  0  0
  184.3240  174.3000  137.4140 C   0  0  1  0  0  3  0  0  0  0  0  0
  183.9730  177.1770  136.8070 C   0  0  0  0  0  2  0  0  0  0  0  0
  185.3730  176.5710  136.9300 C   0  0  2  0  0  3  0  0  0  0  0  0
  185.9400  174.5770  135.5270 C   0  0  0  0  0  3  0  0  0  0  0  0
  184.3750  172.8090  137.2240 C   0  0  0  0  0  0  0  0  0  0  0  0
  185.4910  172.2350  137.0960 O   0  0  0  0  0  0  0  0  0  0  0  0
  183.2090  172.0650  137.1080 O   0  0  0  0  0  1  0  0  0  0  0  0
  180.7750  174.4910  136.1150 C   0  0  0  0  0  1  0  0  0  0  0  0
  182.2660  174.7200  135.9710 C   0  0  0  0  0  2  0  0  0  0  0  0
  189.2260  177.6210  142.6540 C   0  0  0  0  0  2  0  0  0  0  0  0
  189.8530  178.1110  143.8730 N   0  0  0  0  0  2  0  0  0  0  0  0
  188.9840  176.1040  147.6140 F   0  0  0  0  0  0  0  0  0  0  0  0
  188.9060  177.4760  147.4590 C   0  0  0  0  0  0  0  0  0  0  0  0
  189.3980  177.2700  144.9700 C   0  0  1  0  0  3  0  0  0  0  0  0
  187.4390  177.8720  147.1900 C   0  0  1  0  0  3  0  0  0  0  0  0
  189.3510  178.0720  148.6270 F   0  0  0  0  0  0  0  0  0  0  0  0
  187.1090  179.0430  147.8470 F   0  0  0  0  0  0  0  0  0  0  0  0
  189.8160  177.9050  146.3070 C   0  0  0  0  0  2  0  0  0  0  0  0
  187.0930  178.0110  145.7010 C   0  0  1  0  0  3  0  0  0  0  0  0
  187.8880  177.0190  144.8540 C   0  0  0  0  0  2  0  0  0  0  0  0
  185.7230  177.8020  145.5180 O   0  0  0  0  0  0  0  0  0  0  0  0
  185.5410  179.6670  144.0090 C   0  0  0  0  0  2  0  0  0  0  0  0
  183.2460  179.0240  143.2900 C   0  0  0  0  0  2  0  0  0  0  0  0
  185.1680  179.0780  145.3760 C   0  0  1  0  0  3  0  0  0  0  0  0
  183.6430  179.0130  145.5050 C   0  0  0  0  0  2  0  0  0  0  0  0
  183.1000  178.2510  144.4560 O   0  0  0  0  0  0  0  0  0  0  0  0
  184.7280  179.0800  142.8440 C   0  0  2  0  0  0  0  0  0  0  0  0
  185.2650  177.6790  142.5520 C   0  0  0  0  0  1  0  0  0  0  0  0
  184.9390  179.9350  141.7290 O   0  0  0  0  0  0  0  0  0  0  0  0
  183.7070  178.0500  140.2740 O   0  0  0  0  0  1  0  0  0  0  0  0
  184.3510  180.2590  139.0280 O   0  0  0  0  0  0  0  0  0  0  0  0
  184.7650  179.1330  140.2210 P   0  0  0  0  0  0  0  0  0  0  0  0
  186.2490  178.4270  139.8070 O   0  0  0  0  0  1  0  0  0  0  0  0
  1  6  1  0  0  0  0
  2  3  1  0  0  0  0
  4  2  1  0  0  0  0
  5  4  1  6  0  0  0
  5  1  1  0  0  0  0
  6  3  1  0  0  0  0
  6 35  1  1  0  0  0
  7 16  1  6  0  0  0
  7  8  1  0  0  0  0
  7  9  1  0  0  0  0
  8  9  1  0  0  0  0
  9 14  1  6  0  0  0
  9  5  1  0  0  0  0
 10 11  2  0  0  0  0
 11 14  1  0  0  0  0
 12 15  1  0  0  0  0
 12 13  1  0  0  0  0
 13 14  2  0  0  0  0
 15 10  1  0  0  0  0
 17 16  1  0  0  0  0
 18 17  1  0  0  0  0
 20 21  1  0  0  0  0
 20 29  1  0  0  0  0
 21 18  1  6  0  0  0
 21 22  1  0  0  0  0
 22 19  2  0  0  0  0
 22 28  1  0  0  0  0
 23 28  1  0  0  0  0
 23 26  1  0  0  0  0
 24 34  1  6  0  0  0
 24 26  1  0  0  0  0
 24 25  1  0  0  0  0
 26 30  1  6  0  0  0
 27 25  1  0  0  0  0
 28 27  1  6  0  0  0
 29 23  2  0  0  0  0
 31 30  2  0  0  0  0
 32 30  1  0  0  0  0
 34 33  1  0  0  0  0
 35 36  1  0  0  0  0
 38 37  1  0  0  0  0
 38 41  1  0  0  0  0
 39 36  1  6  0  0  0
 39 43  1  0  0  0  0
 40 38  1  0  0  0  0
 40 42  1  1  0  0  0
 43 38  1  0  0  0  0
 44 46  1  1  0  0  0
 44 40  1  0  0  0  0
 45 39  1  0  0  0  0
 45 44  1  0  0  0  0
 47 49  1  0  0  0  0
 48 51  1  0  0  0  0
 49 50  1  0  0  0  0
 49 46  1  6  0  0  0
 51 50  1  0  0  0  0
 52 53  1  6  0  0  0
 52 48  1  0  0  0  0
 52 47  1  0  0  0  0
 54 52  1  0  0  0  0
 56 57  2  0  0  0  0
 57 55  1  0  0  0  0
 57 54  1  0  0  0  0
 58 57  1  0  0  0  0
M  END
>  <MODEL>
4

>  <REMARK>
 VINA RESULT:      -7.5      1.525      2.226
  Name = 
  15 active torsions:
  status: ('A' for Active; 'I' for Inactive)
    1  A    between atoms: N_3  and  C_4
    2  A    between atoms: N_3  and  C_15
    3  A    between atoms: C_4  and  C_20
    4  A    between atoms: C_7  and  C_47
    5  A    between atoms: C_11  and  C_34
    6  A    between atoms: N_13  and  C_25
    7  A    between atoms: N_13  and  C_37
    8  A    between atoms: O_19  and  C_26
    9  A    between atoms: O_19  and  C_55
   10  A    between atoms: C_20  and  C_22
   11  A    between atoms: C_25  and  C_53
   12  A    between atoms: P_31  and  O_50
   13  A    between atoms: C_40  and  O_50
   14  A    between atoms: C_42  and  C_57
   15  A    between atoms: C_43  and  C_57
                            x       y       z     vdW  Elec       q    Type
                         _______ _______ _______ _____ _____    ______ ____

>  <TORSDO>
F 15

$$$$
=
 OpenBabel10232410003D

 58 64  0  0  1  0  0  0  0  0999 V2000
  188.3760  177.7680  140.9740 S   0  0  0  0  0  0  0  0  0  0  0  0
  189.5200  176.0850  143.4480 C   0  0  0  0  0  2  0  0  0  0  0  0
  190.1840  176.0320  142.0790 C   0  0  0  0  0  2  0  0  0  0  0  0
  188.0330  176.3930  143.3270 C   0  0  0  0  0  2  0  0  0  0  0  0
  187.8210  177.7780  142.7240 C   0  0  2  0  0  3  0  0  0  0  0  0
  190.1100  177.3890  141.3960 C   0  0  1  0  0  3  0  0  0  0  0  0
  185.4140  178.1800  141.7100 C   0  0  1  0  0  3  0  0  0  0  0  0
  186.0430  179.5030  142.1120 C   0  0  0  0  0  2  0  0  0  0  0  0
  186.3620  178.2500  142.9110 C   0  0  2  0  0  0  0  0  0  0  0  0
  186.3000  178.1800  146.7040 C   0  0  0  0  0  3  0  0  0  0  0  0
  186.6700  177.9130  145.4520 C   0  0  0  0  0  3  0  0  0  0  0  0
  184.0010  178.8730  145.9240 C   0  0  0  0  0  2  0  0  0  0  0  0
  184.5930  178.8260  144.5410 C   0  0  0  0  0  3  0  0  0  0  0  0
  185.8060  178.3020  144.3150 C   0  0  0  0  0  0  0  0  0  0  0  0
  185.0420  178.8190  146.9520 N   0  0  0  0  0  2  0  0  0  0  0  0
  183.9340  178.1860  142.0710 C   0  0  0  0  0  2  0  0  0  0  0  0
  183.0850  178.1150  140.8120 C   0  0  0  0  0  2  0  0  0  0  0  0
  183.6740  178.9390  139.7650 N   0  0  0  0  0  2  0  0  0  0  0  0
  185.7800  178.1710  138.0040 C   0  0  0  0  0  2  0  0  0  0  0  0
  182.2330  177.3110  138.7030 C   0  0  0  0  0  2  0  0  0  0  0  0
  183.3660  178.3070  138.4900 C   0  0  2  0  0  3  0  0  0  0  0  0
  184.5780  177.6000  137.9130 C   0  0  0  0  0  0  0  0  0  0  0  0
  182.9300  176.1730  136.6040 C   0  0  0  0  0  0  0  0  0  0  0  0
  183.5690  173.9540  135.6230 C   0  0  2  0  0  3  0  0  0  0  0  0
  185.0410  174.3590  135.8330 C   0  0  0  0  0  2  0  0  0  0  0  0
  182.6980  175.2150  135.4620 C   0  0  1  0  0  3  0  0  0  0  0  0
  185.2130  175.3180  137.0220 C   0  0  0  0  0  2  0  0  0  0  0  0
  184.3710  176.5790  136.8160 C   0  0  2  0  0  3  0  0  0  0  0  0
  181.9520  176.5200  137.4590 C   0  0  0  0  0  3  0  0  0  0  0  0
  181.2600  174.9510  135.1110 C   0  0  0  0  0  0  0  0  0  0  0  0
  180.7820  173.7940  135.2720 O   0  0  0  0  0  1  0  0  0  0  0  0
  180.4740  175.9400  134.5380 O   0  0  0  0  0  0  0  0  0  0  0  0
  183.9260  171.8010  136.8470 C   0  0  0  0  0  1  0  0  0  0  0  0
  183.0910  173.0640  136.7710 C   0  0  0  0  0  2  0  0  0  0  0  0
  190.9490  177.3570  140.1290 C   0  0  0  0  0  2  0  0  0  0  0  0
  190.1300  177.6830  138.9710 N   0  0  0  0  0  2  0  0  0  0  0  0
  188.2950  174.4400  136.7580 F   0  0  0  0  0  0  0  0  0  0  0  0
  188.8250  175.5630  136.1490 C   0  0  0  0  0  0  0  0  0  0  0  0
  189.6810  176.4290  138.3840 C   0  0  1  0  0  3  0  0  0  0  0  0
  190.2550  175.2460  135.6630 C   0  0  1  0  0  3  0  0  0  0  0  0
  188.0220  175.8940  135.0700 F   0  0  0  0  0  0  0  0  0  0  0  0
  190.5050  175.8240  134.4320 F   0  0  0  0  0  0  0  0  0  0  0  0
  188.8210  176.7240  137.1440 C   0  0  0  0  0  2  0  0  0  0  0  0
  191.3550  175.6620  136.6500 C   0  0  1  0  0  3  0  0  0  0  0  0
  190.8830  175.5180  138.0960 C   0  0  0  0  0  2  0  0  0  0  0  0
  192.4920  174.8760  136.4410 O   0  0  0  0  0  0  0  0  0  0  0  0
  194.5450  175.2980  137.6210 C   0  0  0  0  0  2  0  0  0  0  0  0
  195.9430  174.3910  135.7730 C   0  0  0  0  0  2  0  0  0  0  0  0
  193.5740  175.7580  136.5260 C   0  0  1  0  0  3  0  0  0  0  0  0
  194.3120  175.8260  135.1850 C   0  0  0  0  0  2  0  0  0  0  0  0
  194.8740  174.5750  134.8770 O   0  0  0  0  0  0  0  0  0  0  0  0
  195.4250  174.1090  137.2040 C   0  0  2  0  0  0  0  0  0  0  0  0
  194.5610  172.8480  137.2350 C   0  0  0  0  0  1  0  0  0  0  0  0
  196.4690  174.0190  138.1630 O   0  0  0  0  0  0  0  0  0  0  0  0
  197.8280  175.7810  136.6680 O   0  0  0  0  0  0  0  0  0  0  0  0
  198.9900  174.9690  138.8670 O   0  0  0  0  0  1  0  0  0  0  0  0
  197.9820  174.5720  137.5670 P   0  0  0  0  0  0  0  0  0  0  0  0
  198.7070  173.3210  136.6820 O   0  0  0  0  0  1  0  0  0  0  0  0
  1  6  1  0  0  0  0
  1  5  1  0  0  0  0
  3  2  1  0  0  0  0
  4  2  1  0  0  0  0
  5  9  1  0  0  0  0
  5  4  1  6  0  0  0
  6 35  1  6  0  0  0
  6  3  1  0  0  0  0
  7 16  1  1  0  0  0
  7  8  1  0  0  0  0
  7  9  1  0  0  0  0
  8  9  1  0  0  0  0
  9 14  1  1  0  0  0
 10 15  1  0  0  0  0
 11 10  2  0  0  0  0
 12 15  1  0  0  0  0
 13 12  1  0  0  0  0
 14 13  2  0  0  0  0
 14 11  1  0  0  0  0
 17 16  1  0  0  0  0
 18 17  1  0  0  0  0
 21 20  1  0  0  0  0
 21 18  1  1  0  0  0
 22 19  2  0  0  0  0
 22 21  1  0  0  0  0
 23 28  1  0  0  0  0
 23 29  2  0  0  0  0
 24 25  1  0  0  0  0
 24 34  1  1  0  0  0
 25 27  1  0  0  0  0
 26 30  1  1  0  0  0
 26 24  1  0  0  0  0
 26 23  1  0  0  0  0
 28 27  1  1  0  0  0
 28 22  1  0  0  0  0
 29 20  1  0  0  0  0
 30 31  1  0  0  0  0
 32 30  2  0  0  0  0
 34 33  1  0  0  0  0
 36 35  1  0  0  0  0
 38 37  1  0  0  0  0
 38 43  1  0  0  0  0
 39 36  1  6  0  0  0
 40 42  1  6  0  0  0
 40 38  1  0  0  0  0
 40 44  1  0  0  0  0
 41 38  1  0  0  0  0
 43 39  1  0  0  0  0
 44 46  1  1  0  0  0
 44 45  1  0  0  0  0
 45 39  1  0  0  0  0
 48 52  1  0  0  0  0
 49 46  1  6  0  0  0
 49 47  1  0  0  0  0
 50 49  1  0  0  0  0
 51 50  1  0  0  0  0
 51 48  1  0  0  0  0
 52 53  1  1  0  0  0
 52 47  1  0  0  0  0
 52 54  1  0  0  0  0
 55 57  2  0  0  0  0
 57 54  1  0  0  0  0
 57 56  1  0  0  0  0
 58 57  1  0  0  0  0
M  END
>  <MODEL>
5

>  <REMARK>
 VINA RESULT:      -7.1      5.564      9.318
  Name = 
  15 active torsions:
  status: ('A' for Active; 'I' for Inactive)
    1  A    between atoms: N_3  and  C_4
    2  A    between atoms: N_3  and  C_15
    3  A    between atoms: C_4  and  C_20
    4  A    between atoms: C_7  and  C_47
    5  A    between atoms: C_11  and  C_34
    6  A    between atoms: N_13  and  C_25
    7  A    between atoms: N_13  and  C_37
    8  A    between atoms: O_19  and  C_26
    9  A    between atoms: O_19  and  C_55
   10  A    between atoms: C_20  and  C_22
   11  A    between atoms: C_25  and  C_53
   12  A    between atoms: P_31  and  O_50
   13  A    between atoms: C_40  and  O_50
   14  A    between atoms: C_42  and  C_57
   15  A    between atoms: C_43  and  C_57
                            x       y       z     vdW  Elec       q    Type
                         _______ _______ _______ _____ _____    ______ ____

>  <TORSDO>
F 15

$$$$
=
 OpenBabel10232410003D

 58 64  0  0  1  0  0  0  0  0999 V2000
  185.3500  178.6680  138.2890 S   0  0  0  0  0  0  0  0  0  0  0  0
  183.8230  176.4990  136.4940 C   0  0  0  0  0  2  0  0  0  0  0  0
  185.0250  177.2650  135.9590 C   0  0  0  0  0  2  0  0  0  0  0  0
  183.0810  177.3070  137.5510 C   0  0  0  0  0  2  0  0  0  0  0  0
  183.9740  177.5490  138.7640 C   0  0  2  0  0  3  0  0  0  0  0  0
  186.0410  177.5040  137.0650 C   0  0  1  0  0  3  0  0  0  0  0  0
  183.6520  177.7240  141.3810 C   0  0  1  0  0  3  0  0  0  0  0  0
  182.5220  176.9170  140.7640 C   0  0  0  0  0  2  0  0  0  0  0  0
  183.1520  178.0510  139.9710 C   0  0  2  0  0  0  0  0  0  0  0  0
  181.7070  181.2190  138.4640 C   0  0  0  0  0  3  0  0  0  0  0  0
  182.6040  180.3220  138.8720 C   0  0  0  0  0  3  0  0  0  0  0  0
  179.9840  180.2870  140.0550 C   0  0  0  0  0  2  0  0  0  0  0  0
  180.9500  179.1470  140.2360 C   0  0  0  0  0  3  0  0  0  0  0  0
  182.1990  179.2030  139.7520 C   0  0  0  0  0  0  0  0  0  0  0  0
  180.3490  181.1180  138.9080 N   0  0  0  0  0  2  0  0  0  0  0  0
  183.0990  178.6290  142.4750 C   0  0  0  0  0  2  0  0  0  0  0  0
  184.2250  179.1130  143.3750 C   0  0  0  0  0  2  0  0  0  0  0  0
  184.9080  177.9760  143.9770 N   0  0  0  0  0  2  0  0  0  0  0  0
  185.7470  178.4740  146.6550 C   0  0  0  0  0  2  0  0  0  0  0  0
  187.2140  177.5760  143.3600 C   0  0  0  0  0  2  0  0  0  0  0  0
  186.2780  178.3870  144.2490 C   0  0  2  0  0  3  0  0  0  0  0  0
  186.6410  178.1850  145.7070 C   0  0  0  0  0  0  0  0  0  0  0  0
  189.0620  178.1130  144.9360 C   0  0  0  0  0  0  0  0  0  0  0  0
  190.8810  177.1020  146.3380 C   0  0  2  0  0  3  0  0  0  0  0  0
  189.9100  177.1730  147.5320 C   0  0  0  0  0  2  0  0  0  0  0  0
  190.5220  178.1900  145.3080 C   0  0  1  0  0  3  0  0  0  0  0  0
  188.4410  177.0680  147.0910 C   0  0  0  0  0  2  0  0  0  0  0  0
  188.1010  178.1850  146.1010 C   0  0  2  0  0  3  0  0  0  0  0  0
  188.6540  177.8480  143.6830 C   0  0  0  0  0  3  0  0  0  0  0  0
  191.4840  178.3160  144.1590 C   0  0  0  0  0  0  0  0  0  0  0  0
  192.0690  179.4150  143.9550 O   0  0  0  0  0  1  0  0  0  0  0  0
  191.6790  177.2650  143.2740 O   0  0  0  0  0  0  0  0  0  0  0  0
  192.1390  174.9530  146.0950 C   0  0  0  0  0  1  0  0  0  0  0  0
  190.8740  175.7010  145.7260 C   0  0  0  0  0  2  0  0  0  0  0  0
  187.3070  178.0890  136.4630 C   0  0  0  0  0  2  0  0  0  0  0  0
  188.4620  177.7470  137.2800 N   0  0  0  0  0  2  0  0  0  0  0  0
  191.9510  176.0710  135.3300 F   0  0  0  0  0  0  0  0  0  0  0  0
  191.4960  175.6390  136.5630 C   0  0  0  0  0  0  0  0  0  0  0  0
  189.4650  177.1640  136.4000 C   0  0  1  0  0  3  0  0  0  0  0  0
  190.6310  174.3760  136.3680 C   0  0  1  0  0  3  0  0  0  0  0  0
  192.5940  175.3420  137.3530 F   0  0  0  0  0  0  0  0  0  0  0  0
  190.8600  173.4530  137.3710 F   0  0  0  0  0  0  0  0  0  0  0  0
  190.6980  176.7610  137.2260 C   0  0  0  0  0  2  0  0  0  0  0  0
  189.1250  174.6600  136.2760 C   0  0  1  0  0  3  0  0  0  0  0  0
  188.8570  176.0030  135.5990 C   0  0  0  0  0  2  0  0  0  0  0  0
  188.4990  173.6350  135.5620 O   0  0  0  0  0  0  0  0  0  0  0  0
  186.7090  173.2000  137.1090 C   0  0  0  0  0  2  0  0  0  0  0  0
  185.6560  171.5120  135.6140 C   0  0  0  0  0  2  0  0  0  0  0  0
  188.0490  172.7290  136.5290 C   0  0  1  0  0  3  0  0  0  0  0  0
  187.8790  171.3360  135.9150 C   0  0  0  0  0  2  0  0  0  0  0  0
  186.8760  171.3590  134.9310 O   0  0  0  0  0  0  0  0  0  0  0  0
  185.5120  172.9460  136.1790 C   0  0  2  0  0  0  0  0  0  0  0  0
  185.5580  173.9830  135.0570 C   0  0  0  0  0  1  0  0  0  0  0  0
  184.3420  173.1160  136.9660 O   0  0  0  0  0  0  0  0  0  0  0  0
  182.7370  173.1250  134.8180 O   0  0  0  0  0  0  0  0  0  0  0  0
  183.0040  170.8440  136.0720 O   0  0  0  0  0  1  0  0  0  0  0  0
  182.9210  172.5300  136.1990 P   0  0  0  0  0  0  0  0  0  0  0  0
  181.5810  172.9370  137.1530 O   0  0  0  0  0  1  0  0  0  0  0  0
  1  5  1  0  0  0  0
  2  4  1  0  0  0  0
  3  2  1  0  0  0  0
  3  6  1  0  0  0  0
  5  4  1  6  0  0  0
  5  9  1  0  0  0  0
  6 35  1  6  0  0  0
  6  1  1  0  0  0  0
  7 16  1  1  0  0  0
  8  7  1  0  0  0  0
  9 14  1  6  0  0  0
  9  8  1  0  0  0  0
  9  7  1  0  0  0  0
 10 11  2  0  0  0  0
 10 15  1  0  0  0  0
 11 14  1  0  0  0  0
 12 13  1  0  0  0  0
 14 13  2  0  0  0  0
 15 12  1  0  0  0  0
 16 17  1  0  0  0  0
 17 18  1  0  0  0  0
 20 29  1  0  0  0  0
 20 21  1  0  0  0  0
 21 18  1  1  0  0  0
 21 22  1  0  0  0  0
 22 28  1  0  0  0  0
 22 19  2  0  0  0  0
 23 26  1  0  0  0  0
 23 28  1  0  0  0  0
 24 34  1  6  0  0  0
 24 25  1  0  0  0  0
 26 30  1  6  0  0  0
 26 24  1  0  0  0  0
 27 25  1  0  0  0  0
 28 27  1  1  0  0  0
 29 23  2  0  0  0  0
 31 30  1  0  0  0  0
 32 30  2  0  0  0  0
 34 33  1  0  0  0  0
 35 36  1  0  0  0  0
 37 38  1  0  0  0  0
 38 43  1  0  0  0  0
 38 41  1  0  0  0  0
 39 43  1  0  0  0  0
 39 36  1  1  0  0  0
 40 38  1  0  0  0  0
 40 42  1  1  0  0  0
 44 46  1  6  0  0  0
 44 40  1  0  0  0  0
 45 44  1  0  0  0  0
 45 39  1  0  0  0  0
 48 52  1  0  0  0  0
 49 46  1  6  0  0  0
 49 47  1  0  0  0  0
 50 49  1  0  0  0  0
 51 48  1  0  0  0  0
 51 50  1  0  0  0  0
 52 53  1  6  0  0  0
 52 54  1  0  0  0  0
 52 47  1  0  0  0  0
 55 57  2  0  0  0  0
 56 57  1  0  0  0  0
 57 54  1  0  0  0  0
 57 58  1  0  0  0  0
M  END
>  <MODEL>
6

>  <REMARK>
 VINA RESULT:      -7.0      4.488     10.567
  Name = 
  15 active torsions:
  status: ('A' for Active; 'I' for Inactive)
    1  A    between atoms: N_3  and  C_4
    2  A    between atoms: N_3  and  C_15
    3  A    between atoms: C_4  and  C_20
    4  A    between atoms: C_7  and  C_47
    5  A    between atoms: C_11  and  C_34
    6  A    between atoms: N_13  and  C_25
    7  A    between atoms: N_13  and  C_37
    8  A    between atoms: O_19  and  C_26
    9  A    between atoms: O_19  and  C_55
   10  A    between atoms: C_20  and  C_22
   11  A    between atoms: C_25  and  C_53
   12  A    between atoms: P_31  and  O_50
   13  A    between atoms: C_40  and  O_50
   14  A    between atoms: C_42  and  C_57
   15  A    between atoms: C_43  and  C_57
                            x       y       z     vdW  Elec       q    Type
                         _______ _______ _______ _____ _____    ______ ____

>  <TORSDO>
F 15

$$$$
=
 OpenBabel10232410003D

 58 64  0  0  1  0  0  0  0  0999 V2000
  188.5760  177.8320  141.0240 S   0  0  0  0  0  0  0  0  0  0  0  0
  189.5920  176.2050  143.5880 C   0  0  0  0  0  2  0  0  0  0  0  0
  190.3670  176.1820  142.2780 C   0  0  0  0  0  2  0  0  0  0  0  0
  188.1070  176.4430  143.3470 C   0  0  0  0  0  2  0  0  0  0  0  0
  187.8800  177.8170  142.7230 C   0  0  2  0  0  3  0  0  0  0  0  0
  190.2860  177.5340  141.5860 C   0  0  1  0  0  3  0  0  0  0  0  0
  185.5410  178.0820  141.5230 C   0  0  1  0  0  3  0  0  0  0  0  0
  186.0750  179.4410  141.9400 C   0  0  0  0  0  2  0  0  0  0  0  0
  186.3910  178.2200  142.7900 C   0  0  2  0  0  0  0  0  0  0  0  0
  186.0350  178.1370  146.5660 C   0  0  0  0  0  3  0  0  0  0  0  0
  186.4980  177.8710  145.3450 C   0  0  0  0  0  3  0  0  0  0  0  0
  183.8100  178.8560  145.6140 C   0  0  0  0  0  2  0  0  0  0  0  0
  184.5070  178.8090  144.2810 C   0  0  0  0  0  3  0  0  0  0  0  0
  185.7290  178.2730  144.1460 C   0  0  0  0  0  0  0  0  0  0  0  0
  184.7680  178.7870  146.7190 N   0  0  0  0  0  2  0  0  0  0  0  0
  184.0390  178.0220  141.7730 C   0  0  0  0  0  2  0  0  0  0  0  0
  183.2910  177.9300  140.4530 C   0  0  0  0  0  2  0  0  0  0  0  0
  184.0220  178.6390  139.4120 N   0  0  0  0  0  2  0  0  0  0  0  0
  186.2160  178.6550  137.5920 C   0  0  0  0  0  2  0  0  0  0  0  0
  183.3840  176.4590  138.5770 C   0  0  0  0  0  2  0  0  0  0  0  0
  183.9840  177.8120  138.2150 C   0  0  2  0  0  3  0  0  0  0  0  0
  185.3680  177.6260  137.6220 C   0  0  0  0  0  0  0  0  0  0  0  0
  184.4520  175.5170  136.5380 C   0  0  0  0  0  0  0  0  0  0  0  0
  185.9510  173.6850  135.7030 C   0  0  2  0  0  3  0  0  0  0  0  0
  187.1160  174.6900  135.7880 C   0  0  0  0  0  2  0  0  0  0  0  0
  184.6240  174.4410  135.4940 C   0  0  1  0  0  3  0  0  0  0  0  0
  186.8910  175.7460  136.8820 C   0  0  0  0  0  2  0  0  0  0  0  0
  185.5890  176.5090  136.6260 C   0  0  2  0  0  3  0  0  0  0  0  0
  183.4390  175.5040  137.4210 C   0  0  0  0  0  3  0  0  0  0  0  0
  183.4260  173.5640  135.2550 C   0  0  0  0  0  0  0  0  0  0  0  0
  183.5740  172.4540  134.6730 O   0  0  0  0  0  0  0  0  0  0  0  0
  182.1510  173.9920  135.5940 O   0  0  0  0  0  1  0  0  0  0  0  0
  187.3220  172.3610  137.3220 C   0  0  0  0  0  1  0  0  0  0  0  0
  185.9200  172.7960  136.9460 C   0  0  0  0  0  2  0  0  0  0  0  0
  191.2240  177.5420  140.3910 C   0  0  0  0  0  2  0  0  0  0  0  0
  190.4650  177.6010  139.1510 N   0  0  0  0  0  2  0  0  0  0  0  0
  190.6620  174.2310  136.4320 F   0  0  0  0  0  0  0  0  0  0  0  0
  190.9230  175.5320  136.0400 C   0  0  0  0  0  0  0  0  0  0  0  0
  190.6890  176.3500  138.4390 C   0  0  1  0  0  3  0  0  0  0  0  0
  192.4480  175.7660  136.0520 C   0  0  1  0  0  3  0  0  0  0  0  0
  190.4270  175.7090  134.7590 F   0  0  0  0  0  0  0  0  0  0  0  0
  192.8430  176.5400  134.9770 F   0  0  0  0  0  0  0  0  0  0  0  0
  190.2060  176.4960  136.9870 C   0  0  0  0  0  2  0  0  0  0  0  0
  192.9720  176.3970  137.3500 C   0  0  1  0  0  3  0  0  0  0  0  0
  192.1620  175.9300  138.5580 C   0  0  0  0  0  2  0  0  0  0  0  0
  194.3180  176.0610  137.5220 O   0  0  0  0  0  0  0  0  0  0  0  0
  194.6440  173.7410  136.9790 C   0  0  0  0  0  2  0  0  0  0  0  0
  196.9380  173.7060  137.9440 C   0  0  0  0  0  2  0  0  0  0  0  0
  194.3130  174.7720  138.0660 C   0  0  1  0  0  3  0  0  0  0  0  0
  195.3380  174.6680  139.1990 C   0  0  0  0  0  2  0  0  0  0  0  0
  196.6370  174.8550  138.6970 O   0  0  0  0  0  0  0  0  0  0  0  0
  196.1380  173.6850  136.6190 C   0  0  2  0  0  0  0  0  0  0  0  0
  196.4630  174.9090  135.7630 C   0  0  0  0  0  1  0  0  0  0  0  0
  196.3320  172.4910  135.8740 O   0  0  0  0  0  0  0  0  0  0  0  0
  195.7250  171.1600  138.1200 O   0  0  0  0  0  1  0  0  0  0  0  0
  196.1840  169.7140  135.9880 O   0  0  0  0  0  0  0  0  0  0  0  0
  196.5710  171.1090  136.8640 P   0  0  0  0  0  0  0  0  0  0  0  0
  198.2040  171.0340  137.3080 O   0  0  0  0  0  1  0  0  0  0  0  0
  1  6  1  0  0  0  0
  1  5  1  0  0  0  0
  3  2  1  0  0  0  0
  4  2  1  0  0  0  0
  5  9  1  0  0  0  0
  5  4  1  6  0  0  0
  6 35  1  6  0  0  0
  6  3  1  0  0  0  0
  7 16  1  1  0  0  0
  7  8  1  0  0  0  0
  7  9  1  0  0  0  0
  8  9  1  0  0  0  0
  9 14  1  1  0  0  0
 10 15  1  0  0  0  0
 11 10  2  0  0  0  0
 12 15  1  0  0  0  0
 13 12  1  0  0  0  0
 14 13  2  0  0  0  0
 14 11  1  0  0  0  0
 17 16  1  0  0  0  0
 18 17  1  0  0  0  0
 19 22  2  0  0  0  0
 21 20  1  0  0  0  0
 21 18  1  1  0  0  0
 22 21  1  0  0  0  0
 23 28  1  0  0  0  0
 23 29  2  0  0  0  0
 24 25  1  0  0  0  0
 24 34  1  1  0  0  0
 25 27  1  0  0  0  0
 26 30  1  1  0  0  0
 26 24  1  0  0  0  0
 26 23  1  0  0  0  0
 28 27  1  1  0  0  0
 28 22  1  0  0  0  0
 29 20  1  0  0  0  0
 30 32  1  0  0  0  0
 31 30  2  0  0  0  0
 34 33  1  0  0  0  0
 36 35  1  0  0  0  0
 38 40  1  0  0  0  0
 38 37  1  0  0  0  0
 38 43  1  0  0  0  0
 39 45  1  0  0  0  0
 39 36  1  1  0  0  0
 40 42  1  6  0  0  0
 40 44  1  0  0  0  0
 41 38  1  0  0  0  0
 43 39  1  0  0  0  0
 44 46  1  1  0  0  0
 44 45  1  0  0  0  0
 47 49  1  0  0  0  0
 48 51  1  0  0  0  0
 49 46  1  6  0  0  0
 49 50  1  0  0  0  0
 51 50  1  0  0  0  0
 52 53  1  6  0  0  0
 52 47  1  0  0  0  0
 52 48  1  0  0  0  0
 54 52  1  0  0  0  0
 54 57  1  0  0  0  0
 56 57  2  0  0  0  0
 57 58  1  0  0  0  0
 57 55  1  0  0  0  0
M  END
>  <MODEL>
7

>  <REMARK>
 VINA RESULT:      -7.0      5.820      9.526
  Name = 
  15 active torsions:
  status: ('A' for Active; 'I' for Inactive)
    1  A    between atoms: N_3  and  C_4
    2  A    between atoms: N_3  and  C_15
    3  A    between atoms: C_4  and  C_20
    4  A    between atoms: C_7  and  C_47
    5  A    between atoms: C_11  and  C_34
    6  A    between atoms: N_13  and  C_25
    7  A    between atoms: N_13  and  C_37
    8  A    between atoms: O_19  and  C_26
    9  A    between atoms: O_19  and  C_55
   10  A    between atoms: C_20  and  C_22
   11  A    between atoms: C_25  and  C_53
   12  A    between atoms: P_31  and  O_50
   13  A    between atoms: C_40  and  O_50
   14  A    between atoms: C_42  and  C_57
   15  A    between atoms: C_43  and  C_57
                            x       y       z     vdW  Elec       q    Type
                         _______ _______ _______ _____ _____    ______ ____

>  <TORSDO>
F 15

$$$$
=
 OpenBabel10232410003D

 58 64  0  0  1  0  0  0  0  0999 V2000
  187.2430  174.4650  135.8240 S   0  0  0  0  0  0  0  0  0  0  0  0
  188.1280  171.3870  135.7770 C   0  0  0  0  0  2  0  0  0  0  0  0
  189.1580  172.5080  135.7400 C   0  0  0  0  0  2  0  0  0  0  0  0
  186.8050  171.8330  135.1680 C   0  0  0  0  0  2  0  0  0  0  0  0
  186.1950  172.9670  135.9870 C   0  0  2  0  0  3  0  0  0  0  0  0
  188.7010  173.6810  136.5920 C   0  0  1  0  0  3  0  0  0  0  0  0
  183.7240  172.0470  135.8040 C   0  0  1  0  0  3  0  0  0  0  0  0
  184.2770  172.3500  134.4210 C   0  0  0  0  0  2  0  0  0  0  0  0
  184.7160  173.1970  135.6050 C   0  0  2  0  0  0  0  0  0  0  0  0
  184.4540  176.9140  136.3220 C   0  0  0  0  0  3  0  0  0  0  0  0
  184.6700  175.6130  136.5150 C   0  0  0  0  0  3  0  0  0  0  0  0
  182.9630  176.4200  134.3460 C   0  0  0  0  0  2  0  0  0  0  0  0
  183.4920  175.0150  134.4570 C   0  0  0  0  0  3  0  0  0  0  0  0
  184.2200  174.6210  135.5120 C   0  0  0  0  0  0  0  0  0  0  0  0
  183.7510  177.3520  135.1530 N   0  0  0  0  0  2  0  0  0  0  0  0
  182.2640  172.4780  135.8770 C   0  0  0  0  0  2  0  0  0  0  0  0
  181.9010  172.8620  137.3020 C   0  0  0  0  0  2  0  0  0  0  0  0
  180.9300  173.9470  137.2960 N   0  0  0  0  0  2  0  0  0  0  0  0
  180.0080  176.4690  136.3380 C   0  0  0  0  0  2  0  0  0  0  0  0
  182.0500  175.0820  139.1160 C   0  0  0  0  0  2  0  0  0  0  0  0
  181.6400  175.1680  137.6510 C   0  0  2  0  0  3  0  0  0  0  0  0
  180.7820  176.3980  137.4230 C   0  0  0  0  0  0  0  0  0  0  0  0
  182.2650  177.5600  139.1290 C   0  0  0  0  0  0  0  0  0  0  0  0
  181.5440  179.6460  140.3250 C   0  0  2  0  0  3  0  0  0  0  0  0
  180.4420  179.7970  139.2590 C   0  0  0  0  0  2  0  0  0  0  0  0
  182.7330  178.8590  139.7390 C   0  0  1  0  0  3  0  0  0  0  0  0
  179.9940  178.4400  138.6930 C   0  0  0  0  0  2  0  0  0  0  0  0
  181.1850  177.6990  138.0800 C   0  0  2  0  0  3  0  0  0  0  0  0
  182.6690  176.3640  139.5920 C   0  0  0  0  0  3  0  0  0  0  0  0
  183.9340  178.7640  140.6380 C   0  0  0  0  0  0  0  0  0  0  0  0
  184.9160  179.5340  140.4490 O   0  0  0  0  0  0  0  0  0  0  0  0
  184.0130  177.7900  141.6230 O   0  0  0  0  0  1  0  0  0  0  0  0
  180.3780  180.0330  142.5040 C   0  0  0  0  0  1  0  0  0  0  0  0
  180.9820  178.9890  141.5860 C   0  0  0  0  0  2  0  0  0  0  0  0
  189.8290  174.6940  136.6960 C   0  0  0  0  0  2  0  0  0  0  0  0
  190.0830  175.0300  138.0890 N   0  0  0  0  0  2  0  0  0  0  0  0
  188.9120  179.2010  138.1960 F   0  0  0  0  0  0  0  0  0  0  0  0
  188.1400  178.1870  138.7340 C   0  0  0  0  0  0  0  0  0  0  0  0
  189.9510  176.4730  138.2230 C   0  0  1  0  0  3  0  0  0  0  0  0
  188.4080  178.0980  140.2510 C   0  0  1  0  0  3  0  0  0  0  0  0
  186.8070  178.4870  138.5060 F   0  0  0  0  0  0  0  0  0  0  0  0
  187.2420  177.8470  140.9510 F   0  0  0  0  0  0  0  0  0  0  0  0
  188.4780  176.8710  138.0330 C   0  0  0  0  0  2  0  0  0  0  0  0
  189.4660  177.0540  140.6370 C   0  0  1  0  0  3  0  0  0  0  0  0
  190.5440  176.9370  139.5620 C   0  0  0  0  0  2  0  0  0  0  0  0
  190.0470  177.4090  141.8570 O   0  0  0  0  0  0  0  0  0  0  0  0
  191.0000  176.1040  143.6400 C   0  0  0  0  0  2  0  0  0  0  0  0
  189.6730  177.2850  145.3840 C   0  0  0  0  0  2  0  0  0  0  0  0
  189.7970  176.3320  142.7150 C   0  0  1  0  0  3  0  0  0  0  0  0
  188.5480  176.6030  143.5590 C   0  0  0  0  0  2  0  0  0  0  0  0
  188.7610  177.7080  144.4000 O   0  0  0  0  0  0  0  0  0  0  0  0
  191.0930  177.1200  144.7900 C   0  0  2  0  0  0  0  0  0  0  0  0
  191.6020  178.4410  144.2110 C   0  0  0  0  0  1  0  0  0  0  0  0
  192.0260  176.5940  145.7220 O   0  0  0  0  0  0  0  0  0  0  0  0
  190.5460  177.7350  147.6430 O   0  0  0  0  0  1  0  0  0  0  0  0
  190.5170  175.1210  147.5400 O   0  0  0  0  0  0  0  0  0  0  0  0
  191.4170  176.5380  147.3270 P   0  0  0  0  0  0  0  0  0  0  0  0
  192.7260  176.5150  148.4040 O   0  0  0  0  0  1  0  0  0  0  0  0
  1  5  1  0  0  0  0
  1  6  1  0  0  0  0
  3  2  1  0  0  0  0
  3  6  1  0  0  0  0
  4  2  1  0  0  0  0
  5  4  1  6  0  0  0
  6 35  1  6  0  0  0
  7 16  1  6  0  0  0
  8  9  1  0  0  0  0
  8  7  1  0  0  0  0
  9 14  1  1  0  0  0
  9  7  1  0  0  0  0
  9  5  1  0  0  0  0
 10 11  2  0  0  0  0
 12 13  1  0  0  0  0
 12 15  1  0  0  0  0
 13 14  2  0  0  0  0
 14 11  1  0  0  0  0
 15 10  1  0  0  0  0
 16 17  1  0  0  0  0
 18 17  1  0  0  0  0
 19 22  2  0  0  0  0
 20 29  1  0  0  0  0
 21 18  1  1  0  0  0
 21 20  1  0  0  0  0
 22 21  1  0  0  0  0
 22 28  1  0  0  0  0
 23 29  2  0  0  0  0
 23 26  1  0  0  0  0
 24 34  1  1  0  0  0
 25 24  1  0  0  0  0
 26 24  1  0  0  0  0
 26 30  1  1  0  0  0
 27 25  1  0  0  0  0
 28 27  1  1  0  0  0
 28 23  1  0  0  0  0
 30 32  1  0  0  0  0
 31 30  2  0  0  0  0
 34 33  1  0  0  0  0
 35 36  1  0  0  0  0
 37 38  1  0  0  0  0
 38 40  1  0  0  0  0
 39 36  1  1  0  0  0
 39 45  1  0  0  0  0
 40 44  1  0  0  0  0
 40 42  1  1  0  0  0
 41 38  1  0  0  0  0
 43 39  1  0  0  0  0
 43 38  1  0  0  0  0
 44 46  1  1  0  0  0
 45 44  1  0  0  0  0
 47 52  1  0  0  0  0
 49 46  1  6  0  0  0
 49 50  1  0  0  0  0
 49 47  1  0  0  0  0
 50 51  1  0  0  0  0
 51 48  1  0  0  0  0
 52 53  1  6  0  0  0
 52 48  1  0  0  0  0
 52 54  1  0  0  0  0
 54 57  1  0  0  0  0
 57 56  2  0  0  0  0
 57 55  1  0  0  0  0
 57 58  1  0  0  0  0
M  END
>  <MODEL>
8

>  <REMARK>
 VINA RESULT:      -6.6      3.849      7.609
  Name = 
  15 active torsions:
  status: ('A' for Active; 'I' for Inactive)
    1  A    between atoms: N_3  and  C_4
    2  A    between atoms: N_3  and  C_15
    3  A    between atoms: C_4  and  C_20
    4  A    between atoms: C_7  and  C_47
    5  A    between atoms: C_11  and  C_34
    6  A    between atoms: N_13  and  C_25
    7  A    between atoms: N_13  and  C_37
    8  A    between atoms: O_19  and  C_26
    9  A    between atoms: O_19  and  C_55
   10  A    between atoms: C_20  and  C_22
   11  A    between atoms: C_25  and  C_53
   12  A    between atoms: P_31  and  O_50
   13  A    between atoms: C_40  and  O_50
   14  A    between atoms: C_42  and  C_57
   15  A    between atoms: C_43  and  C_57
                            x       y       z     vdW  Elec       q    Type
                         _______ _______ _______ _____ _____    ______ ____

>  <TORSDO>
F 15

$$$$
=
 OpenBabel10232410003D

 58 64  0  0  1  0  0  0  0  0999 V2000
  185.7450  178.4350  138.2970 S   0  0  0  0  0  0  0  0  0  0  0  0
  184.1880  176.8920  135.9620 C   0  0  0  0  0  2  0  0  0  0  0  0
  185.6000  177.4220  135.7560 C   0  0  0  0  0  2  0  0  0  0  0  0
  183.4340  177.7170  136.9970 C   0  0  0  0  0  2  0  0  0  0  0  0
  184.1070  177.6080  138.3610 C   0  0  2  0  0  3  0  0  0  0  0  0
  186.4100  177.2950  137.0370 C   0  0  1  0  0  3  0  0  0  0  0  0
  183.5640  177.8480  140.9360 C   0  0  1  0  0  3  0  0  0  0  0  0
  182.4890  177.0250  140.2470 C   0  0  0  0  0  2  0  0  0  0  0  0
  183.1860  178.1400  139.4820 C   0  0  2  0  0  0  0  0  0  0  0  0
  180.0190  180.2290  139.4210 C   0  0  0  0  0  3  0  0  0  0  0  0
  180.8140  179.1600  139.4660 C   0  0  0  0  0  3  0  0  0  0  0  0
  181.8500  181.6030  138.3580 C   0  0  0  0  0  2  0  0  0  0  0  0
  182.7500  180.4510  138.7150 C   0  0  0  0  0  3  0  0  0  0  0  0
  182.2560  179.2840  139.1540 C   0  0  0  0  0  0  0  0  0  0  0  0
  180.5570  181.4990  139.0350 N   0  0  0  0  0  2  0  0  0  0  0  0
  182.9220  178.7800  141.9560 C   0  0  0  0  0  2  0  0  0  0  0  0
  183.9440  179.2040  142.9980 C   0  0  0  0  0  2  0  0  0  0  0  0
  184.6630  178.0400  143.4970 N   0  0  0  0  0  2  0  0  0  0  0  0
  185.4150  178.0780  146.2470 C   0  0  0  0  0  2  0  0  0  0  0  0
  187.0020  177.9210  142.8900 C   0  0  0  0  0  2  0  0  0  0  0  0
  185.9940  178.4840  143.8840 C   0  0  2  0  0  3  0  0  0  0  0  0
  186.3440  178.0350  145.2900 C   0  0  0  0  0  0  0  0  0  0  0  0
  188.7780  178.2750  144.5950 C   0  0  0  0  0  0  0  0  0  0  0  0
  190.6400  177.1430  145.8400 C   0  0  2  0  0  3  0  0  0  0  0  0
  189.6450  176.9210  146.9950 C   0  0  0  0  0  2  0  0  0  0  0  0
  190.2220  178.3790  145.0200 C   0  0  1  0  0  3  0  0  0  0  0  0
  188.1960  176.8010  146.4960 C   0  0  0  0  0  2  0  0  0  0  0  0
  187.7940  178.0600  145.7220 C   0  0  2  0  0  3  0  0  0  0  0  0
  188.4130  178.2250  143.3030 C   0  0  0  0  0  3  0  0  0  0  0  0
  191.1930  178.7860  143.9470 C   0  0  0  0  0  0  0  0  0  0  0  0
  191.4370  180.0090  143.7590 O   0  0  0  0  0  1  0  0  0  0  0  0
  191.7630  177.8400  143.1070 O   0  0  0  0  0  0  0  0  0  0  0  0
  192.1170  175.2570  145.1170 C   0  0  0  0  0  1  0  0  0  0  0  0
  190.7460  175.8860  144.9760 C   0  0  0  0  0  2  0  0  0  0  0  0
  187.8610  177.6440  136.7480 C   0  0  0  0  0  2  0  0  0  0  0  0
  188.7340  177.0590  137.7540 N   0  0  0  0  0  2  0  0  0  0  0  0
  188.1930  172.9350  136.5360 F   0  0  0  0  0  0  0  0  0  0  0  0
  188.6620  173.9180  135.6830 C   0  0  0  0  0  0  0  0  0  0  0  0
  188.6970  175.6140  137.5810 C   0  0  1  0  0  3  0  0  0  0  0  0
  190.2030  173.8560  135.6380 C   0  0  1  0  0  3  0  0  0  0  0  0
  188.1410  173.6830  134.4210 F   0  0  0  0  0  0  0  0  0  0  0  0
  190.6750  174.0780  134.3570 F   0  0  0  0  0  0  0  0  0  0  0  0
  188.1750  175.2830  136.1720 C   0  0  0  0  0  2  0  0  0  0  0  0
  190.8940  174.8250  136.6070 C   0  0  1  0  0  3  0  0  0  0  0  0
  190.0750  175.0080  137.8830 C   0  0  0  0  0  2  0  0  0  0  0  0
  192.1660  174.3400  136.9240 O   0  0  0  0  0  0  0  0  0  0  0  0
  193.9780  175.2080  138.2470 C   0  0  0  0  0  2  0  0  0  0  0  0
  195.6350  174.8880  136.4190 C   0  0  0  0  0  2  0  0  0  0  0  0
  192.9550  175.4760  137.1360 C   0  0  1  0  0  3  0  0  0  0  0  0
  193.6890  175.8620  135.8480 C   0  0  0  0  0  2  0  0  0  0  0  0
  194.5880  174.8470  135.4800 O   0  0  0  0  0  0  0  0  0  0  0  0
  195.1700  174.3490  137.7930 C   0  0  2  0  0  0  0  0  0  0  0  0
  194.6920  172.9020  137.6820 C   0  0  0  0  0  1  0  0  0  0  0  0
  196.1640  174.4690  138.8010 O   0  0  0  0  0  0  0  0  0  0  0  0
  198.2930  173.2030  137.7760 O   0  0  0  0  0  1  0  0  0  0  0  0
  197.7660  175.5780  136.8130 O   0  0  0  0  0  0  0  0  0  0  0  0
  197.7580  174.5650  138.1670 P   0  0  0  0  0  0  0  0  0  0  0  0
  198.7720  175.2320  139.3500 O   0  0  0  0  0  1  0  0  0  0  0  0
  1  5  1  0  0  0  0
  2  4  1  0  0  0  0
  3  2  1  0  0  0  0
  3  6  1  0  0  0  0
  5  4  1  6  0  0  0
  5  9  1  0  0  0  0
  6 35  1  6  0  0  0
  6  1  1  0  0  0  0
  7 16  1  1  0  0  0
  8  7  1  0  0  0  0
  9 14  1  6  0  0  0
  9  8  1  0  0  0  0
  9  7  1  0  0  0  0
 10 11  2  0  0  0  0
 12 13  1  0  0  0  0
 12 15  1  0  0  0  0
 13 14  2  0  0  0  0
 14 11  1  0  0  0  0
 15 10  1  0  0  0  0
 16 17  1  0  0  0  0
 17 18  1  0  0  0  0
 20 29  1  0  0  0  0
 20 21  1  0  0  0  0
 21 18  1  6  0  0  0
 21 22  1  0  0  0  0
 22 28  1  0  0  0  0
 22 19  2  0  0  0  0
 23 26  1  0  0  0  0
 23 28  1  0  0  0  0
 24 34  1  6  0  0  0
 24 25  1  0  0  0  0
 26 30  1  6  0  0  0
 26 24  1  0  0  0  0
 27 25  1  0  0  0  0
 28 27  1  6  0  0  0
 29 23  2  0  0  0  0
 31 30  1  0  0  0  0
 32 30  2  0  0  0  0
 34 33  1  0  0  0  0
 35 36  1  0  0  0  0
 38 43  1  0  0  0  0
 38 37  1  0  0  0  0
 39 36  1  6  0  0  0
 39 45  1  0  0  0  0
 40 42  1  6  0  0  0
 40 38  1  0  0  0  0
 40 44  1  0  0  0  0
 41 38  1  0  0  0  0
 43 39  1  0  0  0  0
 44 46  1  1  0  0  0
 44 45  1  0  0  0  0
 48 52  1  0  0  0  0
 49 46  1  6  0  0  0
 49 47  1  0  0  0  0
 50 49  1  0  0  0  0
 51 50  1  0  0  0  0
 51 48  1  0  0  0  0
 52 53  1  6  0  0  0
 52 47  1  0  0  0  0
 52 54  1  0  0  0  0
 55 57  1  0  0  0  0
 56 57  2  0  0  0  0
 57 54  1  0  0  0  0
 57 58  1  0  0  0  0
M  END
>  <MODEL>
9

>  <REMARK>
 VINA RESULT:      -6.5      5.901     11.353
  Name = 
  15 active torsions:
  status: ('A' for Active; 'I' for Inactive)
    1  A    between atoms: N_3  and  C_4
    2  A    between atoms: N_3  and  C_15
    3  A    between atoms: C_4  and  C_20
    4  A    between atoms: C_7  and  C_47
    5  A    between atoms: C_11  and  C_34
    6  A    between atoms: N_13  and  C_25
    7  A    between atoms: N_13  and  C_37
    8  A    between atoms: O_19  and  C_26
    9  A    between atoms: O_19  and  C_55
   10  A    between atoms: C_20  and  C_22
   11  A    between atoms: C_25  and  C_53
   12  A    between atoms: P_31  and  O_50
   13  A    between atoms: C_40  and  O_50
   14  A    between atoms: C_42  and  C_57
   15  A    between atoms: C_43  and  C_57
                            x       y       z     vdW  Elec       q    Type
                         _______ _______ _______ _____ _____    ______ ____

>  <TORSDO>
F 15

$$$$
