=
 OpenBabel10232408103D

 38 40  0  0  1  0  0  0  0  0999 V2000
  188.6280  176.6980  137.9150 C   0  0  0  0  0  2  0  0  0  0  0  0
  188.7110  177.5160  140.2340 C   0  0  0  0  0  3  0  0  0  0  0  0
  188.0800  177.5180  139.0530 C   0  0  0  0  0  0  0  0  0  0  0  0
  190.7660  176.6080  139.2080 C   0  0  0  0  0  0  0  0  0  0  0  0
  189.9550  176.7040  140.4720 C   0  0  1  0  0  3  0  0  0  0  0  0
  190.0970  176.6820  137.9370 N   0  0  0  0  0  0  0  0  0  0  0  0
  192.0110  176.4130  139.2670 O   0  0  0  0  0  0  0  0  0  0  0  0
  192.7360  174.7230  135.9460 O   0  0  0  0  0  0  0  0  0  0  0  0
  190.2770  175.2470  134.9800 N   0  0  0  0  0  0  0  0  0  0  0  0
  190.7750  173.9050  137.3000 O   0  0  0  0  0  0  0  0  0  0  0  0
  189.0390  174.5010  135.1460 C   0  0  0  0  0  1  0  0  0  0  0  0
  191.3000  174.9350  136.3370 S   0  0  0  0  0  0  0  0  0  0  0  0
  190.8880  176.6010  136.7030 C   0  0  1  0  0  3  0  0  0  0  0  0
  190.0190  176.6240  135.4330 C   0  0  0  0  0  2  0  0  0  0  0  0
  186.4300  178.5810  137.6600 N   0  0  0  0  0  2  0  0  0  0  0  0
  186.1130  178.7670  139.9930 N   0  0  0  0  0  2  0  0  0  0  0  0
  186.8510  178.3090  138.8550 C   0  0  0  0  0  0  0  0  0  0  0  0
  184.8980  179.4560  139.8610 N   0  0  0  0  0  2  0  0  0  0  0  0
  183.8330  178.5060  140.1470 C   0  0  0  0  0  2  0  0  0  0  0  0
  184.3780  178.6700  142.5820 C   0  0  0  0  0  3  0  0  0  0  0  0
  182.0610  178.7360  141.8940 C   0  0  0  0  0  3  0  0  0  0  0  0
  183.9650  178.7980  143.9100 C   0  0  0  0  0  0  0  0  0  0  0  0
  183.4160  178.6290  141.5690 C   0  0  0  0  0  0  0  0  0  0  0  0
  180.2530  178.9830  143.5990 C   0  0  0  0  0  1  0  0  0  0  0  0
  181.6890  178.8700  143.2340 C   0  0  0  0  0  0  0  0  0  0  0  0
  182.6400  178.9000  144.2070 N   0  0  0  0  0  0  0  0  0  0  0  0
  184.9770  178.8570  145.0000 C   0  0  0  0  0  2  0  0  0  0  0  0
  184.3130  178.8020  146.2910 N   0  0  0  0  0  1  0  0  0  0  0  0
  190.3970  175.5630  143.0610 O   0  0  0  0  0  0  0  0  0  0  0  0
  190.7400  177.3070  141.5410 N   0  0  0  0  0  2  0  0  0  0  0  0
  190.9010  176.6930  142.8210 C   0  0  0  0  0  0  0  0  0  0  0  0
  191.7020  177.3790  143.8700 C   0  0  0  0  0  2  0  0  0  0  0  0
  190.9170  177.4830  145.0960 N   0  0  0  0  0  2  0  0  0  0  0  0
  191.6430  176.8860  146.2180 C   0  0  2  0  0  3  0  0  0  0  0  0
  192.0950  175.6020  145.8940 O   0  0  0  0  0  1  0  0  0  0  0  0
  190.7900  176.8640  147.4840 C   0  0  0  0  0  2  0  0  0  0  0  0
  188.7710  178.0050  148.4050 C   0  0  0  0  0  1  0  0  0  0  0  0
  189.3660  177.3080  147.1940 C   0  0  0  0  0  2  0  0  0  0  0  0
  1  6  1  0  0  0  0
  1  3  1  0  0  0  0
  2  5  1  0  0  0  0
  3  2  2  0  0  0  0
  4  7  2  0  0  0  0
  4  5  1  0  0  0  0
  5 30  1  1  0  0  0
  6  4  1  0  0  0  0
  8 12  2  0  0  0  0
  9 11  1  0  0  0  0
  9 14  1  0  0  0  0
  9 12  1  0  0  0  0
 12 13  1  0  0  0  0
 12 10  2  0  0  0  0
 13 14  1  6  0  0  0
 13  6  1  0  0  0  0
 15 17  2  0  0  0  0
 17  3  1  0  0  0  0
 17 16  1  0  0  0  0
 18 16  1  0  0  0  0
 18 19  1  0  0  0  0
 19 23  1  0  0  0  0
 20 22  1  0  0  0  0
 21 25  2  0  0  0  0
 22 26  2  0  0  0  0
 22 27  1  0  0  0  0
 23 21  1  0  0  0  0
 23 20  2  0  0  0  0
 25 24  1  0  0  0  0
 25 26  1  0  0  0  0
 27 28  1  0  0  0  0
 30 31  1  0  0  0  0
 31 29  2  0  0  0  0
 31 32  1  0  0  0  0
 32 33  1  0  0  0  0
 33 34  1  0  0  0  0
 34 35  1  6  0  0  0
 34 36  1  0  0  0  0
 38 36  1  0  0  0  0
 38 37  1  0  0  0  0
M  END
>  <MODEL>
1

>  <REMARK>
 VINA RESULT:      -8.4      0.000      0.000
  Name = 
  12 active torsions:
  status: ('A' for Active; 'I' for Inactive)
    1  A    between atoms: C_1  and  C_22
    2  A    between atoms: C_6  and  N_18
    3  A    between atoms: C_6  and  C_37
    4  A    between atoms: C_9  and  C_30
    5  A    between atoms: C_10  and  N_18
    6  A    between atoms: C_10  and  C_19
    7  A    between atoms: N_16  and  N_26
    8  A    between atoms: C_19  and  C_32
    9  A    between atoms: C_21  and  N_35
   10  A    between atoms: C_24  and  C_36
   11  A    between atoms: N_25  and  C_29
   12  A    between atoms: N_26  and  C_36
                            x       y       z     vdW  Elec       q    Type
                         _______ _______ _______ _____ _____    ______ ____

>  <TORSDO>
F 12

$$$$
=
 OpenBabel10232408103D

 38 40  0  0  1  0  0  0  0  0999 V2000
  187.7010  177.6870  139.2390 C   0  0  0  0  0  2  0  0  0  0  0  0
  187.9280  178.1140  141.6510 C   0  0  0  0  0  3  0  0  0  0  0  0
  187.2040  178.2710  140.5350 C   0  0  0  0  0  0  0  0  0  0  0  0
  189.9370  177.5200  140.3430 C   0  0  0  0  0  0  0  0  0  0  0  0
  189.2260  177.3540  141.6590 C   0  0  1  0  0  3  0  0  0  0  0  0
  189.1650  177.7620  139.1530 N   0  0  0  0  0  0  0  0  0  0  0  0
  191.1910  177.3980  140.2800 O   0  0  0  0  0  0  0  0  0  0  0  0
  191.6850  176.2990  136.6480 O   0  0  0  0  0  0  0  0  0  0  0  0
  189.1460  176.8950  135.9780 N   0  0  0  0  0  0  0  0  0  0  0  0
  189.8590  175.1740  137.9690 O   0  0  0  0  0  0  0  0  0  0  0  0
  187.9440  176.0840  136.0940 C   0  0  0  0  0  1  0  0  0  0  0  0
  190.2800  176.3810  137.1760 S   0  0  0  0  0  0  0  0  0  0  0  0
  189.8580  177.9360  137.8710 C   0  0  1  0  0  3  0  0  0  0  0  0
  188.8910  178.1550  136.6940 C   0  0  0  0  0  2  0  0  0  0  0  0
  185.4530  179.4640  141.6770 N   0  0  0  0  0  2  0  0  0  0  0  0
  185.2080  179.2200  139.3400 N   0  0  0  0  0  2  0  0  0  0  0  0
  185.9250  179.0040  140.5610 C   0  0  0  0  0  0  0  0  0  0  0  0
  184.0270  179.9780  139.2980 N   0  0  0  0  0  2  0  0  0  0  0  0
  183.0900  179.2640  138.4440 C   0  0  0  0  0  2  0  0  0  0  0  0
  181.5390  179.0890  140.3990 C   0  0  0  0  0  3  0  0  0  0  0  0
  181.7930  177.1840  138.9320 C   0  0  0  0  0  3  0  0  0  0  0  0
  180.6310  178.3530  141.1630 C   0  0  0  0  0  0  0  0  0  0  0  0
  182.1300  178.4950  139.2810 C   0  0  0  0  0  0  0  0  0  0  0  0
  180.5070  175.0880  139.3630 C   0  0  0  0  0  1  0  0  0  0  0  0
  180.8750  176.4830  139.7180 C   0  0  0  0  0  0  0  0  0  0  0  0
  180.3170  177.0770  140.8080 N   0  0  0  0  0  0  0  0  0  0  0  0
  179.9820  178.9750  142.3490 C   0  0  0  0  0  2  0  0  0  0  0  0
  180.8320  180.0290  142.8780 N   0  0  0  0  0  1  0  0  0  0  0  0
  190.7890  175.6890  143.3870 O   0  0  0  0  0  0  0  0  0  0  0  0
  190.0630  177.8210  142.7570 N   0  0  0  0  0  2  0  0  0  0  0  0
  190.8000  176.9310  143.5970 C   0  0  0  0  0  0  0  0  0  0  0  0
  191.6180  177.4810  144.7120 C   0  0  0  0  0  2  0  0  0  0  0  0
  191.8130  176.4530  145.7300 N   0  0  0  0  0  2  0  0  0  0  0  0
  191.3560  176.9340  147.0330 C   0  0  2  0  0  3  0  0  0  0  0  0
  192.1950  176.4810  148.0570 O   0  0  0  0  0  1  0  0  0  0  0  0
  189.9060  176.5350  147.2970 C   0  0  0  0  0  2  0  0  0  0  0  0
  188.0260  177.6510  146.0940 C   0  0  0  0  0  1  0  0  0  0  0  0
  188.9880  177.7460  147.2650 C   0  0  0  0  0  2  0  0  0  0  0  0
  1  3  1  0  0  0  0
  2  5  1  0  0  0  0
  3 17  1  0  0  0  0
  3  2  2  0  0  0  0
  4  5  1  0  0  0  0
  5 30  1  1  0  0  0
  6  1  1  0  0  0  0
  6  4  1  0  0  0  0
  7  4  2  0  0  0  0
  8 12  2  0  0  0  0
  9 11  1  0  0  0  0
  9 14  1  0  0  0  0
  9 12  1  0  0  0  0
 12 13  1  0  0  0  0
 12 10  2  0  0  0  0
 13 14  1  6  0  0  0
 13  6  1  0  0  0  0
 16 17  1  0  0  0  0
 17 15  2  0  0  0  0
 18 16  1  0  0  0  0
 19 23  1  0  0  0  0
 19 18  1  0  0  0  0
 20 22  1  0  0  0  0
 21 23  1  0  0  0  0
 21 25  2  0  0  0  0
 22 27  1  0  0  0  0
 23 20  2  0  0  0  0
 24 25  1  0  0  0  0
 25 26  1  0  0  0  0
 26 22  2  0  0  0  0
 27 28  1  0  0  0  0
 29 31  2  0  0  0  0
 30 31  1  0  0  0  0
 31 32  1  0  0  0  0
 32 33  1  0  0  0  0
 33 34  1  0  0  0  0
 34 36  1  0  0  0  0
 34 35  1  1  0  0  0
 37 38  1  0  0  0  0
 38 36  1  0  0  0  0
M  END
>  <MODEL>
2

>  <REMARK>
 VINA RESULT:      -7.9      1.986      2.711
  Name = 
  12 active torsions:
  status: ('A' for Active; 'I' for Inactive)
    1  A    between atoms: C_1  and  C_22
    2  A    between atoms: C_6  and  N_18
    3  A    between atoms: C_6  and  C_37
    4  A    between atoms: C_9  and  C_30
    5  A    between atoms: C_10  and  N_18
    6  A    between atoms: C_10  and  C_19
    7  A    between atoms: N_16  and  N_26
    8  A    between atoms: C_19  and  C_32
    9  A    between atoms: C_21  and  N_35
   10  A    between atoms: C_24  and  C_36
   11  A    between atoms: N_25  and  C_29
   12  A    between atoms: N_26  and  C_36
                            x       y       z     vdW  Elec       q    Type
                         _______ _______ _______ _____ _____    ______ ____

>  <TORSDO>
F 12

$$$$
=
 OpenBabel10232408103D

 38 40  0  0  1  0  0  0  0  0999 V2000
  187.6110  177.7430  139.0520 C   0  0  0  0  0  2  0  0  0  0  0  0
  188.1010  178.0790  141.4400 C   0  0  0  0  0  3  0  0  0  0  0  0
  187.2680  178.2910  140.4120 C   0  0  0  0  0  0  0  0  0  0  0  0
  189.9460  177.4890  139.9080 C   0  0  0  0  0  0  0  0  0  0  0  0
  189.3740  177.2920  141.2860 C   0  0  1  0  0  3  0  0  0  0  0  0
  189.0600  177.7890  138.8150 N   0  0  0  0  0  0  0  0  0  0  0  0
  191.1830  177.3420  139.7070 O   0  0  0  0  0  0  0  0  0  0  0  0
  191.1150  176.2870  135.9360 O   0  0  0  0  0  0  0  0  0  0  0  0
  188.5920  177.1730  135.6150 N   0  0  0  0  0  0  0  0  0  0  0  0
  189.3410  175.2440  137.3910 O   0  0  0  0  0  0  0  0  0  0  0  0
  187.3320  176.4750  135.8220 C   0  0  0  0  0  1  0  0  0  0  0  0
  189.7940  176.4630  136.6330 S   0  0  0  0  0  0  0  0  0  0  0  0
  189.6180  177.9930  137.4720 C   0  0  1  0  0  3  0  0  0  0  0  0
  188.5520  178.3940  136.4370 C   0  0  0  0  0  2  0  0  0  0  0  0
  185.6900  179.5020  141.7680 N   0  0  0  0  0  2  0  0  0  0  0  0
  185.1670  179.3000  139.4730 N   0  0  0  0  0  2  0  0  0  0  0  0
  186.0180  179.0500  140.5980 C   0  0  0  0  0  0  0  0  0  0  0  0
  184.0080  180.0820  139.5800 N   0  0  0  0  0  2  0  0  0  0  0  0
  182.8850  179.2410  139.1940 C   0  0  0  0  0  2  0  0  0  0  0  0
  181.8280  181.3430  138.3470 C   0  0  0  0  0  3  0  0  0  0  0  0
  181.4300  179.2740  137.1620 C   0  0  0  0  0  3  0  0  0  0  0  0
  181.0240  182.0060  137.4170 C   0  0  0  0  0  0  0  0  0  0  0  0
  182.0230  179.9650  138.2220 C   0  0  0  0  0  0  0  0  0  0  0  0
  179.9990  179.2540  135.1160 C   0  0  0  0  0  1  0  0  0  0  0  0
  180.6390  179.9730  136.2480 C   0  0  0  0  0  0  0  0  0  0  0  0
  180.4540  181.3140  136.3910 N   0  0  0  0  0  0  0  0  0  0  0  0
  180.8170  183.4760  137.5270 C   0  0  0  0  0  2  0  0  0  0  0  0
  181.0420  184.1020  136.2350 N   0  0  0  0  0  1  0  0  0  0  0  0
  189.7220  176.0490  143.8420 O   0  0  0  0  0  0  0  0  0  0  0  0
  190.3330  177.7010  142.3030 N   0  0  0  0  0  2  0  0  0  0  0  0
  190.4380  177.0500  143.5700 C   0  0  0  0  0  0  0  0  0  0  0  0
  191.4290  177.5380  144.5670 C   0  0  0  0  0  2  0  0  0  0  0  0
  191.6150  176.5300  145.6070 N   0  0  0  0  0  2  0  0  0  0  0  0
  191.2740  177.0830  146.9180 C   0  0  2  0  0  3  0  0  0  0  0  0
  192.1220  176.5770  147.9100 O   0  0  0  0  0  1  0  0  0  0  0  0
  189.8100  176.8260  147.2660 C   0  0  0  0  0  2  0  0  0  0  0  0
  187.7440  177.8780  148.1900 C   0  0  0  0  0  1  0  0  0  0  0  0
  189.2620  177.9170  148.1720 C   0  0  0  0  0  2  0  0  0  0  0  0
  1  3  1  0  0  0  0
  3 17  1  0  0  0  0
  3  2  2  0  0  0  0
  4  5  1  0  0  0  0
  5  2  1  0  0  0  0
  5 30  1  1  0  0  0
  6  1  1  0  0  0  0
  6  4  1  0  0  0  0
  7  4  2  0  0  0  0
  8 12  2  0  0  0  0
  9 11  1  0  0  0  0
  9 14  1  0  0  0  0
  9 12  1  0  0  0  0
 12 10  2  0  0  0  0
 12 13  1  0  0  0  0
 13 14  1  6  0  0  0
 13  6  1  0  0  0  0
 16 18  1  0  0  0  0
 16 17  1  0  0  0  0
 17 15  2  0  0  0  0
 19 18  1  0  0  0  0
 21 23  2  0  0  0  0
 22 27  1  0  0  0  0
 22 20  2  0  0  0  0
 23 20  1  0  0  0  0
 23 19  1  0  0  0  0
 24 25  1  0  0  0  0
 25 26  2  0  0  0  0
 25 21  1  0  0  0  0
 26 22  1  0  0  0  0
 28 27  1  0  0  0  0
 30 31  1  0  0  0  0
 31 29  2  0  0  0  0
 31 32  1  0  0  0  0
 32 33  1  0  0  0  0
 33 34  1  0  0  0  0
 34 36  1  0  0  0  0
 34 35  1  1  0  0  0
 36 38  1  0  0  0  0
 38 37  1  0  0  0  0
M  END
>  <MODEL>
3

>  <REMARK>
 VINA RESULT:      -7.7      2.958      4.159
  Name = 
  12 active torsions:
  status: ('A' for Active; 'I' for Inactive)
    1  A    between atoms: C_1  and  C_22
    2  A    between atoms: C_6  and  N_18
    3  A    between atoms: C_6  and  C_37
    4  A    between atoms: C_9  and  C_30
    5  A    between atoms: C_10  and  N_18
    6  A    between atoms: C_10  and  C_19
    7  A    between atoms: N_16  and  N_26
    8  A    between atoms: C_19  and  C_32
    9  A    between atoms: C_21  and  N_35
   10  A    between atoms: C_24  and  C_36
   11  A    between atoms: N_25  and  C_29
   12  A    between atoms: N_26  and  C_36
                            x       y       z     vdW  Elec       q    Type
                         _______ _______ _______ _____ _____    ______ ____

>  <TORSDO>
F 12

$$$$
=
 OpenBabel10232408103D

 38 40  0  0  1  0  0  0  0  0999 V2000
  189.7750  177.7520  138.1130 C   0  0  0  0  0  2  0  0  0  0  0  0
  187.6000  178.0140  139.2320 C   0  0  0  0  0  3  0  0  0  0  0  0
  188.9170  177.7950  139.3490 C   0  0  0  0  0  0  0  0  0  0  0  0
  187.6520  177.4450  136.8300 C   0  0  0  0  0  0  0  0  0  0  0  0
  186.9440  178.2360  137.8970 C   0  0  1  0  0  3  0  0  0  0  0  0
  189.0500  177.1460  136.9880 N   0  0  0  0  0  0  0  0  0  0  0  0
  187.0360  177.0950  135.7860 O   0  0  0  0  0  0  0  0  0  0  0  0
  192.0670  174.9290  136.1250 O   0  0  0  0  0  0  0  0  0  0  0  0
  189.5220  174.1050  135.8200 N   0  0  0  0  0  0  0  0  0  0  0  0
  190.6010  174.9620  138.1730 O   0  0  0  0  0  0  0  0  0  0  0  0
  188.6300  173.4790  136.7850 C   0  0  0  0  0  1  0  0  0  0  0  0
  190.6750  175.0680  136.6740 S   0  0  0  0  0  0  0  0  0  0  0  0
  189.7390  176.3650  135.9530 C   0  0  1  0  0  3  0  0  0  0  0  0
  188.8350  175.3010  135.3060 C   0  0  0  0  0  2  0  0  0  0  0  0
  190.7740  177.2340  140.7730 N   0  0  0  0  0  2  0  0  0  0  0  0
  188.7630  177.8330  141.8570 N   0  0  0  0  0  2  0  0  0  0  0  0
  189.5360  177.6010  140.6730 C   0  0  0  0  0  0  0  0  0  0  0  0
  189.3240  177.7390  143.1390 N   0  0  0  0  0  2  0  0  0  0  0  0
  188.5990  176.6960  143.8490 C   0  0  0  0  0  2  0  0  0  0  0  0
  186.6970  177.5110  145.2520 C   0  0  0  0  0  3  0  0  0  0  0  0
  188.9140  177.4400  146.2140 C   0  0  0  0  0  3  0  0  0  0  0  0
  186.2100  178.0060  146.4650 C   0  0  0  0  0  0  0  0  0  0  0  0
  188.0610  177.2360  145.1260 C   0  0  0  0  0  0  0  0  0  0  0  0
  189.2800  178.1530  148.5790 C   0  0  0  0  0  1  0  0  0  0  0  0
  188.3870  177.9290  147.4120 C   0  0  0  0  0  0  0  0  0  0  0  0
  187.0570  178.1990  147.5130 N   0  0  0  0  0  0  0  0  0  0  0  0
  184.7570  178.2920  146.6210 C   0  0  0  0  0  2  0  0  0  0  0  0
  184.3220  179.2060  145.5790 N   0  0  0  0  0  1  0  0  0  0  0  0
  184.8100  179.9130  138.8100 O   0  0  0  0  0  0  0  0  0  0  0  0
  185.5390  177.8560  137.9700 N   0  0  0  0  0  2  0  0  0  0  0  0
  184.5260  178.7370  138.4590 C   0  0  0  0  0  0  0  0  0  0  0  0
  183.1150  178.2710  138.5220 C   0  0  0  0  0  2  0  0  0  0  0  0
  183.0160  177.1260  139.4230 N   0  0  0  0  0  2  0  0  0  0  0  0
  182.2480  177.4830  140.6160 C   0  0  2  0  0  3  0  0  0  0  0  0
  180.9360  177.8340  140.2800 O   0  0  0  0  0  1  0  0  0  0  0  0
  182.9290  178.5990  141.4040 C   0  0  0  0  0  2  0  0  0  0  0  0
  185.2570  179.1280  142.1300 C   0  0  0  0  0  1  0  0  0  0  0  0
  184.1560  178.0830  142.1380 C   0  0  0  0  0  2  0  0  0  0  0  0
  1  3  1  0  0  0  0
  2  3  2  0  0  0  0
  3 17  1  0  0  0  0
  4  6  1  0  0  0  0
  4  5  1  0  0  0  0
  5 30  1  1  0  0  0
  5  2  1  0  0  0  0
  6  1  1  0  0  0  0
  7  4  2  0  0  0  0
  8 12  2  0  0  0  0
  9 12  1  0  0  0  0
  9 11  1  0  0  0  0
 12 10  2  0  0  0  0
 13 14  1  6  0  0  0
 13 12  1  0  0  0  0
 13  6  1  0  0  0  0
 14  9  1  0  0  0  0
 16 18  1  0  0  0  0
 17 15  2  0  0  0  0
 17 16  1  0  0  0  0
 18 19  1  0  0  0  0
 19 23  1  0  0  0  0
 20 22  1  0  0  0  0
 21 25  2  0  0  0  0
 22 27  1  0  0  0  0
 22 26  2  0  0  0  0
 23 20  2  0  0  0  0
 23 21  1  0  0  0  0
 25 26  1  0  0  0  0
 25 24  1  0  0  0  0
 28 27  1  0  0  0  0
 30 31  1  0  0  0  0
 31 32  1  0  0  0  0
 31 29  2  0  0  0  0
 32 33  1  0  0  0  0
 33 34  1  0  0  0  0
 34 35  1  6  0  0  0
 34 36  1  0  0  0  0
 36 38  1  0  0  0  0
 37 38  1  0  0  0  0
M  END
>  <MODEL>
4

>  <REMARK>
 VINA RESULT:      -7.7      2.732      6.098
  Name = 
  12 active torsions:
  status: ('A' for Active; 'I' for Inactive)
    1  A    between atoms: C_1  and  C_22
    2  A    between atoms: C_6  and  N_18
    3  A    between atoms: C_6  and  C_37
    4  A    between atoms: C_9  and  C_30
    5  A    between atoms: C_10  and  N_18
    6  A    between atoms: C_10  and  C_19
    7  A    between atoms: N_16  and  N_26
    8  A    between atoms: C_19  and  C_32
    9  A    between atoms: C_21  and  N_35
   10  A    between atoms: C_24  and  C_36
   11  A    between atoms: N_25  and  C_29
   12  A    between atoms: N_26  and  C_36
                            x       y       z     vdW  Elec       q    Type
                         _______ _______ _______ _____ _____    ______ ____

>  <TORSDO>
F 12

$$$$
=
 OpenBabel10232408103D

 38 40  0  0  1  0  0  0  0  0999 V2000
  189.8130  177.7660  138.6120 C   0  0  0  0  0  2  0  0  0  0  0  0
  187.5860  177.9060  139.6480 C   0  0  0  0  0  3  0  0  0  0  0  0
  188.8950  177.6700  139.8020 C   0  0  0  0  0  0  0  0  0  0  0  0
  187.7550  177.6170  137.2010 C   0  0  0  0  0  0  0  0  0  0  0  0
  186.9950  178.2820  138.3160 C   0  0  1  0  0  3  0  0  0  0  0  0
  189.1450  177.2960  137.3910 N   0  0  0  0  0  0  0  0  0  0  0  0
  187.1920  177.3910  136.0950 O   0  0  0  0  0  0  0  0  0  0  0  0
  192.3070  175.3580  136.3890 O   0  0  0  0  0  0  0  0  0  0  0  0
  189.8250  174.3810  136.0230 N   0  0  0  0  0  0  0  0  0  0  0  0
  190.8460  175.1500  138.4310 O   0  0  0  0  0  0  0  0  0  0  0  0
  188.9800  173.6310  136.9400 C   0  0  0  0  0  1  0  0  0  0  0  0
  190.9100  175.3620  136.9420 S   0  0  0  0  0  0  0  0  0  0  0  0
  189.8850  176.6360  136.3080 C   0  0  1  0  0  3  0  0  0  0  0  0
  189.0550  175.5580  135.5880 C   0  0  0  0  0  2  0  0  0  0  0  0
  188.6890  176.8180  142.0430 N   0  0  0  0  0  2  0  0  0  0  0  0
  190.8410  177.5340  141.3860 N   0  0  0  0  0  2  0  0  0  0  0  0
  189.4490  177.3230  141.1240 C   0  0  0  0  0  0  0  0  0  0  0  0
  191.4340  177.1490  142.5980 N   0  0  0  0  0  2  0  0  0  0  0  0
  191.2640  178.2540  143.5290 C   0  0  0  0  0  2  0  0  0  0  0  0
  189.5430  177.9650  145.3200 C   0  0  0  0  0  3  0  0  0  0  0  0
  191.7310  176.9850  145.6310 C   0  0  0  0  0  3  0  0  0  0  0  0
  189.1620  177.4570  146.5650 C   0  0  0  0  0  0  0  0  0  0  0  0
  190.8400  177.7340  144.8570 C   0  0  0  0  0  0  0  0  0  0  0  0
  192.2440  175.6910  147.7040 C   0  0  0  0  0  1  0  0  0  0  0  0
  191.3100  176.4880  146.8670 C   0  0  0  0  0  0  0  0  0  0  0  0
  190.0450  176.7300  147.3040 N   0  0  0  0  0  0  0  0  0  0  0  0
  187.7790  177.6820  147.0680 C   0  0  0  0  0  2  0  0  0  0  0  0
  187.8290  178.3270  148.3690 N   0  0  0  0  0  1  0  0  0  0  0  0
  184.8010  179.9300  139.1350 O   0  0  0  0  0  0  0  0  0  0  0  0
  185.5890  177.9020  138.2770 N   0  0  0  0  0  2  0  0  0  0  0  0
  184.5430  178.7670  138.7240 C   0  0  0  0  0  0  0  0  0  0  0  0
  183.1310  178.3010  138.6710 C   0  0  0  0  0  2  0  0  0  0  0  0
  182.8510  177.4520  139.8250 N   0  0  0  0  0  2  0  0  0  0  0  0
  182.2350  178.2360  140.8960 C   0  0  2  0  0  3  0  0  0  0  0  0
  181.7050  179.4320  140.3990 O   0  0  0  0  0  1  0  0  0  0  0  0
  183.2220  178.5040  142.0290 C   0  0  0  0  0  2  0  0  0  0  0  0
  183.4900  179.3550  144.3600 C   0  0  0  0  0  1  0  0  0  0  0  0
  182.4980  178.8870  143.3100 C   0  0  0  0  0  2  0  0  0  0  0  0
  1  3  1  0  0  0  0
  2  3  2  0  0  0  0
  3 17  1  0  0  0  0
  4  6  1  0  0  0  0
  4  5  1  0  0  0  0
  5 30  1  1  0  0  0
  5  2  1  0  0  0  0
  6  1  1  0  0  0  0
  7  4  2  0  0  0  0
  8 12  2  0  0  0  0
  9 11  1  0  0  0  0
  9 12  1  0  0  0  0
 12 10  2  0  0  0  0
 13 14  1  6  0  0  0
 13 12  1  0  0  0  0
 13  6  1  0  0  0  0
 14  9  1  0  0  0  0
 16 18  1  0  0  0  0
 17 16  1  0  0  0  0
 17 15  2  0  0  0  0
 18 19  1  0  0  0  0
 19 23  1  0  0  0  0
 20 22  1  0  0  0  0
 21 25  2  0  0  0  0
 22 27  1  0  0  0  0
 22 26  2  0  0  0  0
 23 20  2  0  0  0  0
 23 21  1  0  0  0  0
 25 26  1  0  0  0  0
 25 24  1  0  0  0  0
 27 28  1  0  0  0  0
 30 31  1  0  0  0  0
 31 29  2  0  0  0  0
 32 31  1  0  0  0  0
 32 33  1  0  0  0  0
 33 34  1  0  0  0  0
 34 35  1  6  0  0  0
 34 36  1  0  0  0  0
 36 38  1  0  0  0  0
 38 37  1  0  0  0  0
M  END
>  <MODEL>
5

>  <REMARK>
 VINA RESULT:      -7.6      2.674      6.757
  Name = 
  12 active torsions:
  status: ('A' for Active; 'I' for Inactive)
    1  A    between atoms: C_1  and  C_22
    2  A    between atoms: C_6  and  N_18
    3  A    between atoms: C_6  and  C_37
    4  A    between atoms: C_9  and  C_30
    5  A    between atoms: C_10  and  N_18
    6  A    between atoms: C_10  and  C_19
    7  A    between atoms: N_16  and  N_26
    8  A    between atoms: C_19  and  C_32
    9  A    between atoms: C_21  and  N_35
   10  A    between atoms: C_24  and  C_36
   11  A    between atoms: N_25  and  C_29
   12  A    between atoms: N_26  and  C_36
                            x       y       z     vdW  Elec       q    Type
                         _______ _______ _______ _____ _____    ______ ____

>  <TORSDO>
F 12

$$$$
=
 OpenBabel10232408103D

 38 40  0  0  1  0  0  0  0  0999 V2000
  190.5690  177.2700  138.0050 C   0  0  0  0  0  2  0  0  0  0  0  0
  191.8920  176.9120  140.0480 C   0  0  0  0  0  3  0  0  0  0  0  0
  191.7910  176.7580  138.7210 C   0  0  0  0  0  0  0  0  0  0  0  0
  189.4700  177.3490  140.2490 C   0  0  0  0  0  0  0  0  0  0  0  0
  190.8250  177.5990  140.8550 C   0  0  1  0  0  3  0  0  0  0  0  0
  189.3670  177.1110  138.8340 N   0  0  0  0  0  0  0  0  0  0  0  0
  188.4350  177.4000  140.9670 O   0  0  0  0  0  0  0  0  0  0  0  0
  186.0350  178.6230  137.6580 O   0  0  0  0  0  0  0  0  0  0  0  0
  187.6430  177.2010  136.0310 N   0  0  0  0  0  0  0  0  0  0  0  0
  188.3960  179.4540  137.3680 O   0  0  0  0  0  0  0  0  0  0  0  0
  188.7690  177.6440  135.2250 C   0  0  0  0  0  1  0  0  0  0  0  0
  187.4690  178.2690  137.3780 S   0  0  0  0  0  0  0  0  0  0  0  0
  188.0470  176.8560  138.2430 C   0  0  1  0  0  3  0  0  0  0  0  0
  188.1290  176.1140  136.8970 C   0  0  0  0  0  2  0  0  0  0  0  0
  193.8530  176.7870  137.4810 N   0  0  0  0  0  2  0  0  0  0  0  0
  192.8130  174.6830  137.7410 N   0  0  0  0  0  2  0  0  0  0  0  0
  192.8630  176.0980  137.9530 C   0  0  0  0  0  0  0  0  0  0  0  0
  193.8450  173.9950  137.0850 N   0  0  0  0  0  2  0  0  0  0  0  0
  194.5680  173.2400  138.0970 C   0  0  0  0  0  2  0  0  0  0  0  0
  196.1040  174.5330  139.5880 C   0  0  0  0  0  3  0  0  0  0  0  0
  196.9010  173.8230  137.4180 C   0  0  0  0  0  3  0  0  0  0  0  0
  197.3480  175.1230  139.8280 C   0  0  0  0  0  0  0  0  0  0  0  0
  195.8800  173.8870  138.3690 C   0  0  0  0  0  0  0  0  0  0  0  0
  199.2310  174.3640  136.6990 C   0  0  0  0  0  1  0  0  0  0  0  0
  198.1330  174.4200  137.6990 C   0  0  0  0  0  0  0  0  0  0  0  0
  198.3300  175.0510  138.8880 N   0  0  0  0  0  0  0  0  0  0  0  0
  197.6090  175.8030  141.1260 C   0  0  0  0  0  2  0  0  0  0  0  0
  198.5790  175.0410  141.8940 N   0  0  0  0  0  1  0  0  0  0  0  0
  190.5200  179.2290  143.1890 O   0  0  0  0  0  0  0  0  0  0  0  0
  190.8660  177.1240  142.2320 N   0  0  0  0  0  2  0  0  0  0  0  0
  190.7300  177.9980  143.3540 C   0  0  0  0  0  0  0  0  0  0  0  0
  190.8030  177.4420  144.7320 C   0  0  0  0  0  2  0  0  0  0  0  0
  189.7640  178.0470  145.5600 N   0  0  0  0  0  2  0  0  0  0  0  0
  188.6790  177.0920  145.7930 C   0  0  2  0  0  3  0  0  0  0  0  0
  188.0420  176.7560  144.5930 O   0  0  0  0  0  1  0  0  0  0  0  0
  187.6770  177.6270  146.8140 C   0  0  0  0  0  2  0  0  0  0  0  0
  185.7810  179.1460  146.2470 C   0  0  0  0  0  1  0  0  0  0  0  0
  186.2810  177.7130  146.2190 C   0  0  0  0  0  2  0  0  0  0  0  0
  1  3  1  0  0  0  0
  1  6  1  0  0  0  0
  2  5  1  0  0  0  0
  3  2  2  0  0  0  0
  4  5  1  0  0  0  0
  4  7  2  0  0  0  0
  5 30  1  1  0  0  0
  6  4  1  0  0  0  0
  9 14  1  0  0  0  0
  9 12  1  0  0  0  0
 10 12  2  0  0  0  0
 11  9  1  0  0  0  0
 12  8  2  0  0  0  0
 12 13  1  0  0  0  0
 13 14  1  6  0  0  0
 13  6  1  0  0  0  0
 15 17  2  0  0  0  0
 16 17  1  0  0  0  0
 17  3  1  0  0  0  0
 18 16  1  0  0  0  0
 18 19  1  0  0  0  0
 19 23  1  0  0  0  0
 20 22  1  0  0  0  0
 21 25  2  0  0  0  0
 21 23  1  0  0  0  0
 22 27  1  0  0  0  0
 23 20  2  0  0  0  0
 24 25  1  0  0  0  0
 25 26  1  0  0  0  0
 26 22  2  0  0  0  0
 27 28  1  0  0  0  0
 29 31  2  0  0  0  0
 30 31  1  0  0  0  0
 31 32  1  0  0  0  0
 32 33  1  0  0  0  0
 33 34  1  0  0  0  0
 34 35  1  6  0  0  0
 34 36  1  0  0  0  0
 38 37  1  0  0  0  0
 38 36  1  0  0  0  0
M  END
>  <MODEL>
6

>  <REMARK>
 VINA RESULT:      -7.5      4.343      8.912
  Name = 
  12 active torsions:
  status: ('A' for Active; 'I' for Inactive)
    1  A    between atoms: C_1  and  C_22
    2  A    between atoms: C_6  and  N_18
    3  A    between atoms: C_6  and  C_37
    4  A    between atoms: C_9  and  C_30
    5  A    between atoms: C_10  and  N_18
    6  A    between atoms: C_10  and  C_19
    7  A    between atoms: N_16  and  N_26
    8  A    between atoms: C_19  and  C_32
    9  A    between atoms: C_21  and  N_35
   10  A    between atoms: C_24  and  C_36
   11  A    between atoms: N_25  and  C_29
   12  A    between atoms: N_26  and  C_36
                            x       y       z     vdW  Elec       q    Type
                         _______ _______ _______ _____ _____    ______ ____

>  <TORSDO>
F 12

$$$$
=
 OpenBabel10232408103D

 38 40  0  0  1  0  0  0  0  0999 V2000
  189.5040  176.8230  138.5060 C   0  0  0  0  0  2  0  0  0  0  0  0
  191.8100  176.0300  138.8320 C   0  0  0  0  0  3  0  0  0  0  0  0
  190.7430  176.6560  139.3450 C   0  0  0  0  0  0  0  0  0  0  0  0
  190.9510  176.3110  136.5340 C   0  0  0  0  0  0  0  0  0  0  0  0
  191.8090  175.4670  137.4370 C   0  0  1  0  0  3  0  0  0  0  0  0
  189.8480  177.0430  137.0960 N   0  0  0  0  0  0  0  0  0  0  0  0
  191.1690  176.3330  135.2920 O   0  0  0  0  0  0  0  0  0  0  0  0
  187.1610  177.1170  134.3500 O   0  0  0  0  0  0  0  0  0  0  0  0
  186.8510  178.3520  136.7220 N   0  0  0  0  0  0  0  0  0  0  0  0
  187.3410  175.6880  136.4170 O   0  0  0  0  0  0  0  0  0  0  0  0
  186.3450  177.8260  137.9810 C   0  0  0  0  0  1  0  0  0  0  0  0
  187.5240  177.0510  135.8060 S   0  0  0  0  0  0  0  0  0  0  0  0
  189.0170  177.8760  136.2170 C   0  0  1  0  0  3  0  0  0  0  0  0
  188.1840  178.9150  136.9910 C   0  0  0  0  0  2  0  0  0  0  0  0
  191.8920  177.3950  141.3270 N   0  0  0  0  0  2  0  0  0  0  0  0
  189.5330  177.4670  141.3930 N   0  0  0  0  0  2  0  0  0  0  0  0
  190.7660  177.1810  140.7240 C   0  0  0  0  0  0  0  0  0  0  0  0
  189.5000  178.0390  142.6730 N   0  0  0  0  0  2  0  0  0  0  0  0
  189.2960  176.9560  143.6230 C   0  0  0  0  0  2  0  0  0  0  0  0
  187.0870  177.8570  144.3740 C   0  0  0  0  0  3  0  0  0  0  0  0
  188.7570  177.3160  146.0360 C   0  0  0  0  0  3  0  0  0  0  0  0
  186.2250  178.2520  145.3990 C   0  0  0  0  0  0  0  0  0  0  0  0
  188.3660  177.3940  144.6980 C   0  0  0  0  0  0  0  0  0  0  0  0
  188.2630  177.6390  148.4630 C   0  0  0  0  0  1  0  0  0  0  0  0
  187.8630  177.7140  147.0340 C   0  0  0  0  0  0  0  0  0  0  0  0
  186.6250  178.1690  146.6980 N   0  0  0  0  0  0  0  0  0  0  0  0
  184.8550  178.7340  145.0730 C   0  0  0  0  0  2  0  0  0  0  0  0
  184.0610  178.8150  146.2880 N   0  0  0  0  0  1  0  0  0  0  0  0
  193.1870  173.0750  136.6740 O   0  0  0  0  0  0  0  0  0  0  0  0
  193.1750  175.4000  136.9320 N   0  0  0  0  0  2  0  0  0  0  0  0
  193.8110  174.1670  136.5910 C   0  0  0  0  0  0  0  0  0  0  0  0
  195.2150  174.1760  136.1010 C   0  0  0  0  0  2  0  0  0  0  0  0
  196.0620  174.8930  137.0490 N   0  0  0  0  0  2  0  0  0  0  0  0
  196.7110  173.9530  137.9640 C   0  0  2  0  0  3  0  0  0  0  0  0
  195.9600  173.7940  139.1340 O   0  0  0  0  0  1  0  0  0  0  0  0
  198.1400  174.3870  138.2850 C   0  0  0  0  0  2  0  0  0  0  0  0
  199.4210  172.6960  136.9700 C   0  0  0  0  0  1  0  0  0  0  0  0
  199.0600  174.1660  137.0950 C   0  0  0  0  0  2  0  0  0  0  0  0
  1  3  1  0  0  0  0
  2  3  2  0  0  0  0
  3 17  1  0  0  0  0
  4  6  1  0  0  0  0
  4  5  1  0  0  0  0
  5 30  1  6  0  0  0
  5  2  1  0  0  0  0
  6  1  1  0  0  0  0
  7  4  2  0  0  0  0
  8 12  2  0  0  0  0
  9 14  1  0  0  0  0
  9 11  1  0  0  0  0
 12 13  1  0  0  0  0
 12 10  2  0  0  0  0
 12  9  1  0  0  0  0
 13 14  1  1  0  0  0
 13  6  1  0  0  0  0
 16 18  1  0  0  0  0
 17 15  2  0  0  0  0
 17 16  1  0  0  0  0
 18 19  1  0  0  0  0
 19 23  1  0  0  0  0
 20 23  2  0  0  0  0
 20 22  1  0  0  0  0
 21 25  2  0  0  0  0
 22 26  2  0  0  0  0
 23 21  1  0  0  0  0
 25 24  1  0  0  0  0
 26 25  1  0  0  0  0
 27 22  1  0  0  0  0
 27 28  1  0  0  0  0
 31 29  2  0  0  0  0
 31 30  1  0  0  0  0
 32 31  1  0  0  0  0
 32 33  1  0  0  0  0
 33 34  1  0  0  0  0
 34 36  1  0  0  0  0
 34 35  1  1  0  0  0
 37 38  1  0  0  0  0
 38 36  1  0  0  0  0
M  END
>  <MODEL>
7

>  <REMARK>
 VINA RESULT:      -7.4      3.642      6.792
  Name = 
  12 active torsions:
  status: ('A' for Active; 'I' for Inactive)
    1  A    between atoms: C_1  and  C_22
    2  A    between atoms: C_6  and  N_18
    3  A    between atoms: C_6  and  C_37
    4  A    between atoms: C_9  and  C_30
    5  A    between atoms: C_10  and  N_18
    6  A    between atoms: C_10  and  C_19
    7  A    between atoms: N_16  and  N_26
    8  A    between atoms: C_19  and  C_32
    9  A    between atoms: C_21  and  N_35
   10  A    between atoms: C_24  and  C_36
   11  A    between atoms: N_25  and  C_29
   12  A    between atoms: N_26  and  C_36
                            x       y       z     vdW  Elec       q    Type
                         _______ _______ _______ _____ _____    ______ ____

>  <TORSDO>
F 12

$$$$
=
 OpenBabel10232408103D

 38 40  0  0  1  0  0  0  0  0999 V2000
  189.3740  177.7160  137.3830 C   0  0  0  0  0  2  0  0  0  0  0  0
  187.6850  178.0210  139.1460 C   0  0  0  0  0  3  0  0  0  0  0  0
  188.9590  177.7500  138.8300 C   0  0  0  0  0  0  0  0  0  0  0  0
  186.9400  177.5320  136.8430 C   0  0  0  0  0  0  0  0  0  0  0  0
  186.6480  178.3110  138.0960 C   0  0  1  0  0  3  0  0  0  0  0  0
  188.3010  177.1760  136.5380 N   0  0  0  0  0  0  0  0  0  0  0  0
  186.0080  177.2400  136.0450 O   0  0  0  0  0  0  0  0  0  0  0  0
  190.6720  174.7080  134.7920 O   0  0  0  0  0  0  0  0  0  0  0  0
  188.0520  174.2010  135.1510 N   0  0  0  0  0  0  0  0  0  0  0  0
  189.8130  174.7460  137.1600 O   0  0  0  0  0  0  0  0  0  0  0  0
  187.3710  173.6070  136.2920 C   0  0  0  0  0  1  0  0  0  0  0  0
  189.5030  174.9590  135.7030 S   0  0  0  0  0  0  0  0  0  0  0  0
  188.5870  176.4060  135.3210 C   0  0  1  0  0  3  0  0  0  0  0  0
  187.4140  175.5030  134.8960 C   0  0  0  0  0  2  0  0  0  0  0  0
  191.2040  177.3060  139.5740 N   0  0  0  0  0  2  0  0  0  0  0  0
  189.5490  177.4490  141.2530 N   0  0  0  0  0  2  0  0  0  0  0  0
  189.9590  177.4880  139.8820 C   0  0  0  0  0  0  0  0  0  0  0  0
  190.4710  177.2820  142.2970 N   0  0  0  0  0  2  0  0  0  0  0  0
  190.3010  178.4070  143.2050 C   0  0  0  0  0  2  0  0  0  0  0  0
  191.0060  177.3520  145.3600 C   0  0  0  0  0  3  0  0  0  0  0  0
  188.7010  178.0280  145.0870 C   0  0  0  0  0  3  0  0  0  0  0  0
  190.7000  176.9030  146.6470 C   0  0  0  0  0  0  0  0  0  0  0  0
  189.9950  177.9100  144.5730 C   0  0  0  0  0  0  0  0  0  0  0  0
  187.0660  177.6900  146.9430 C   0  0  0  0  0  1  0  0  0  0  0  0
  188.4360  177.5740  146.3810 C   0  0  0  0  0  0  0  0  0  0  0  0
  189.4330  177.0270  147.1290 N   0  0  0  0  0  0  0  0  0  0  0  0
  191.7680  176.3200  147.5040 C   0  0  0  0  0  2  0  0  0  0  0  0
  192.3690  175.1800  146.8320 N   0  0  0  0  0  1  0  0  0  0  0  0
  184.7250  180.1930  139.0780 O   0  0  0  0  0  0  0  0  0  0  0  0
  185.3240  177.9810  138.6080 N   0  0  0  0  0  2  0  0  0  0  0  0
  184.4210  178.9700  139.1060 C   0  0  0  0  0  0  0  0  0  0  0  0
  183.0920  178.5550  139.6310 C   0  0  0  0  0  2  0  0  0  0  0  0
  183.2740  177.6590  140.7690 N   0  0  0  0  0  2  0  0  0  0  0  0
  182.9350  178.3450  142.0160 C   0  0  2  0  0  3  0  0  0  0  0  0
  181.8330  179.1900  141.8390 O   0  0  0  0  0  1  0  0  0  0  0  0
  184.1310  179.1150  142.5710 C   0  0  0  0  0  2  0  0  0  0  0  0
  184.0760  178.9120  145.0570 C   0  0  0  0  0  1  0  0  0  0  0  0
  184.7250  178.4090  143.7790 C   0  0  0  0  0  2  0  0  0  0  0  0
  1  3  1  0  0  0  0
  3  2  2  0  0  0  0
  3 17  1  0  0  0  0
  4  5  1  0  0  0  0
  5 30  1  1  0  0  0
  5  2  1  0  0  0  0
  6  4  1  0  0  0  0
  6  1  1  0  0  0  0
  7  4  2  0  0  0  0
  8 12  2  0  0  0  0
  9 12  1  0  0  0  0
  9 11  1  0  0  0  0
 12 10  2  0  0  0  0
 13 14  1  1  0  0  0
 13 12  1  0  0  0  0
 13  6  1  0  0  0  0
 14  9  1  0  0  0  0
 15 17  2  0  0  0  0
 16 18  1  0  0  0  0
 17 16  1  0  0  0  0
 18 19  1  0  0  0  0
 19 23  1  0  0  0  0
 20 22  1  0  0  0  0
 21 25  2  0  0  0  0
 22 26  2  0  0  0  0
 22 27  1  0  0  0  0
 23 21  1  0  0  0  0
 23 20  2  0  0  0  0
 25 24  1  0  0  0  0
 25 26  1  0  0  0  0
 28 27  1  0  0  0  0
 29 31  2  0  0  0  0
 30 31  1  0  0  0  0
 31 32  1  0  0  0  0
 32 33  1  0  0  0  0
 33 34  1  0  0  0  0
 34 35  1  6  0  0  0
 34 36  1  0  0  0  0
 36 38  1  0  0  0  0
 38 37  1  0  0  0  0
M  END
>  <MODEL>
8

>  <REMARK>
 VINA RESULT:      -7.3      2.777      6.333
  Name = 
  12 active torsions:
  status: ('A' for Active; 'I' for Inactive)
    1  A    between atoms: C_1  and  C_22
    2  A    between atoms: C_6  and  N_18
    3  A    between atoms: C_6  and  C_37
    4  A    between atoms: C_9  and  C_30
    5  A    between atoms: C_10  and  N_18
    6  A    between atoms: C_10  and  C_19
    7  A    between atoms: N_16  and  N_26
    8  A    between atoms: C_19  and  C_32
    9  A    between atoms: C_21  and  N_35
   10  A    between atoms: C_24  and  C_36
   11  A    between atoms: N_25  and  C_29
   12  A    between atoms: N_26  and  C_36
                            x       y       z     vdW  Elec       q    Type
                         _______ _______ _______ _____ _____    ______ ____

>  <TORSDO>
F 12

$$$$
=
 OpenBabel10232408103D

 38 40  0  0  1  0  0  0  0  0999 V2000
  190.6570  177.1630  137.8820 C   0  0  0  0  0  2  0  0  0  0  0  0
  192.0340  176.7130  139.8700 C   0  0  0  0  0  3  0  0  0  0  0  0
  191.8770  176.5820  138.5460 C   0  0  0  0  0  0  0  0  0  0  0  0
  189.6450  177.2660  140.1650 C   0  0  0  0  0  0  0  0  0  0  0  0
  191.0320  177.4410  140.7240 C   0  0  1  0  0  3  0  0  0  0  0  0
  189.4790  177.0530  138.7520 N   0  0  0  0  0  0  0  0  0  0  0  0
  188.6410  177.3580  140.9220 O   0  0  0  0  0  0  0  0  0  0  0  0
  186.1760  178.7370  137.7450 O   0  0  0  0  0  0  0  0  0  0  0  0
  187.6550  177.2900  136.0230 N   0  0  0  0  0  0  0  0  0  0  0  0
  188.5580  179.4730  137.3830 O   0  0  0  0  0  0  0  0  0  0  0  0
  188.7690  177.7050  135.1830 C   0  0  0  0  0  1  0  0  0  0  0  0
  187.5810  178.3290  137.4010 S   0  0  0  0  0  0  0  0  0  0  0  0
  188.1280  176.8700  138.2070 C   0  0  1  0  0  3  0  0  0  0  0  0
  188.1250  176.1610  136.8410 C   0  0  0  0  0  2  0  0  0  0  0  0
  193.8640  176.5350  137.1890 N   0  0  0  0  0  2  0  0  0  0  0  0
  192.7910  174.4630  137.5520 N   0  0  0  0  0  2  0  0  0  0  0  0
  192.8870  175.8810  137.7320 C   0  0  0  0  0  0  0  0  0  0  0  0
  193.7660  173.7370  136.8530 N   0  0  0  0  0  2  0  0  0  0  0  0
  194.4850  172.9330  137.8290 C   0  0  0  0  0  2  0  0  0  0  0  0
  196.8200  173.5130  137.1440 C   0  0  0  0  0  3  0  0  0  0  0  0
  196.0400  174.1880  139.3300 C   0  0  0  0  0  3  0  0  0  0  0  0
  198.0530  174.1080  137.4240 C   0  0  0  0  0  0  0  0  0  0  0  0
  195.8110  173.5480  138.1100 C   0  0  0  0  0  0  0  0  0  0  0  0
  197.5460  175.4610  140.8630 C   0  0  0  0  0  1  0  0  0  0  0  0
  197.2840  174.7770  139.5700 C   0  0  0  0  0  0  0  0  0  0  0  0
  198.2570  174.7260  138.6190 N   0  0  0  0  0  0  0  0  0  0  0  0
  199.1340  174.0930  136.4000 C   0  0  0  0  0  2  0  0  0  0  0  0
  200.2310  174.9410  136.8320 N   0  0  0  0  0  1  0  0  0  0  0  0
  191.1430  179.0660  143.0790 O   0  0  0  0  0  0  0  0  0  0  0  0
  191.1000  176.9460  142.0930 N   0  0  0  0  0  2  0  0  0  0  0  0
  191.1770  177.8150  143.2240 C   0  0  0  0  0  0  0  0  0  0  0  0
  191.2630  177.2350  144.5920 C   0  0  0  0  0  2  0  0  0  0  0  0
  190.2260  177.8170  145.4370 N   0  0  0  0  0  2  0  0  0  0  0  0
  188.9610  177.1050  145.2540 C   0  0  2  0  0  3  0  0  0  0  0  0
  188.1820  177.7150  144.2640 O   0  0  0  0  0  1  0  0  0  0  0  0
  188.1890  176.9940  146.5670 C   0  0  0  0  0  2  0  0  0  0  0  0
  188.5960  178.0360  148.7980 C   0  0  0  0  0  1  0  0  0  0  0  0
  188.2400  178.2990  147.3450 C   0  0  0  0  0  2  0  0  0  0  0  0
  1  3  1  0  0  0  0
  1  6  1  0  0  0  0
  2  5  1  0  0  0  0
  3  2  2  0  0  0  0
  4  5  1  0  0  0  0
  4  7  2  0  0  0  0
  5 30  1  1  0  0  0
  6  4  1  0  0  0  0
  9 14  1  0  0  0  0
  9 12  1  0  0  0  0
 10 12  2  0  0  0  0
 11  9  1  0  0  0  0
 12  8  2  0  0  0  0
 12 13  1  0  0  0  0
 13 14  1  6  0  0  0
 13  6  1  0  0  0  0
 15 17  2  0  0  0  0
 16 17  1  0  0  0  0
 17  3  1  0  0  0  0
 18 16  1  0  0  0  0
 18 19  1  0  0  0  0
 19 23  1  0  0  0  0
 20 22  2  0  0  0  0
 20 23  1  0  0  0  0
 21 25  1  0  0  0  0
 22 26  1  0  0  0  0
 23 21  2  0  0  0  0
 25 24  1  0  0  0  0
 26 25  2  0  0  0  0
 27 28  1  0  0  0  0
 27 22  1  0  0  0  0
 29 31  2  0  0  0  0
 30 31  1  0  0  0  0
 31 32  1  0  0  0  0
 32 33  1  0  0  0  0
 34 35  1  6  0  0  0
 34 33  1  0  0  0  0
 34 36  1  0  0  0  0
 36 38  1  0  0  0  0
 38 37  1  0  0  0  0
M  END
>  <MODEL>
9

>  <REMARK>
 VINA RESULT:      -7.2      4.440      9.093
  Name = 
  12 active torsions:
  status: ('A' for Active; 'I' for Inactive)
    1  A    between atoms: C_1  and  C_22
    2  A    between atoms: C_6  and  N_18
    3  A    between atoms: C_6  and  C_37
    4  A    between atoms: C_9  and  C_30
    5  A    between atoms: C_10  and  N_18
    6  A    between atoms: C_10  and  C_19
    7  A    between atoms: N_16  and  N_26
    8  A    between atoms: C_19  and  C_32
    9  A    between atoms: C_21  and  N_35
   10  A    between atoms: C_24  and  C_36
   11  A    between atoms: N_25  and  C_29
   12  A    between atoms: N_26  and  C_36
                            x       y       z     vdW  Elec       q    Type
                         _______ _______ _______ _____ _____    ______ ____

>  <TORSDO>
F 12

$$$$
