=
 OpenBabel10232408313D

 45 52  0  0  1  0  0  0  0  0999 V2000
  189.9770  176.8710  142.3410 C   0  0  2  0  0  3  0  0  0  0  0  0
  185.5030  178.7310  140.4090 C   0  0  1  0  0  3  0  0  0  0  0  0
  189.1690  177.4520  141.1370 C   0  0  1  0  0  3  0  0  0  0  0  0
  188.4220  177.4790  144.8440 C   0  0  1  0  0  3  0  0  0  0  0  0
  183.9430  179.3340  142.2730 C   0  0  0  0  0  2  0  0  0  0  0  0
  187.8390  177.8610  141.2220 C   0  0  0  0  0  0  0  0  0  0  0  0
  183.7300  177.9730  142.0010 O   0  0  0  0  0  0  0  0  0  0  0  0
  190.9600  177.2180  144.6570 C   0  0  0  0  0  2  0  0  0  0  0  0
  187.0760  177.8550  138.7610 C   0  0  2  0  0  3  0  0  0  0  0  0
  185.0650  178.4710  141.8480 C   0  0  1  0  0  0  0  0  0  0  0  0
  187.3680  177.9530  142.6440 C   0  0  2  0  0  3  0  0  0  0  0  0
  190.9300  177.0740  146.0350 C   0  0  0  0  0  2  0  0  0  0  0  0
  185.6050  178.1610  144.5320 C   0  0  0  0  0  3  0  0  0  0  0  0
  189.7900  176.8640  147.1040 C   0  0  0  0  0  2  0  0  0  0  0  0
  189.6900  177.5770  143.7360 C   0  0  2  0  0  0  0  0  0  0  0  0
  190.1380  178.0090  140.1700 C   0  0  0  0  0  2  0  0  0  0  0  0
  188.3960  177.5300  147.1910 C   0  0  0  0  0  2  0  0  0  0  0  0
  186.8190  178.1940  140.0590 C   0  0  0  0  0  0  0  0  0  0  0  0
  188.2880  176.9980  143.5710 C   0  0  1  0  0  3  0  0  0  0  0  0
  186.0850  177.3130  137.8530 O   0  0  0  0  0  1  0  0  0  0  0  0
  188.3970  177.7510  138.2800 C   0  0  0  0  0  2  0  0  0  0  0  0
  187.6950  177.4940  145.9540 C   0  0  0  0  0  0  0  0  0  0  0  0
  189.6400  177.7180  138.7910 C   0  0  2  0  0  3  0  0  0  0  0  0
  186.0690  178.2390  142.9930 C   0  0  0  0  0  0  0  0  0  0  0  0
  191.2320  176.3070  142.0480 F   0  0  0  0  0  0  0  0  0  0  0  0
  186.2600  177.8240  145.7500 C   0  0  0  0  0  3  0  0  0  0  0  0
  191.4230  173.3410  136.0750 O   0  0  0  0  0  0  0  0  0  0  0  0
  191.7030  174.7560  138.0000 N   0  0  0  0  0  2  0  0  0  0  0  0
  192.7920  176.7990  138.7680 O   0  0  0  0  0  0  0  0  0  0  0  0
  192.2110  174.0810  136.7450 C   0  0  0  0  0  0  0  0  0  0  0  0
  191.8110  176.2670  138.3360 C   0  0  0  0  0  0  0  0  0  0  0  0
  190.7130  177.1550  138.0370 N   0  0  0  0  0  2  0  0  0  0  0  0
  193.6850  173.8760  136.5010 C   0  0  0  0  0  2  0  0  0  0  0  0
  194.4160  173.3330  137.7250 C   0  0  0  0  0  2  0  0  0  0  0  0
  195.3500  174.4450  138.1680 C   0  0  0  0  0  1  0  0  0  0  0  0
  184.4870  178.4930  139.4390 O   0  0  0  0  0  0  0  0  0  0  0  0
  184.1320  179.8020  139.1040 C   0  0  0  0  0  2  0  0  0  0  0  0
  182.6560  179.8490  138.8000 C   0  0  0  0  0  2  0  0  0  0  0  0
  182.0390  177.5360  137.7280 N   0  0  0  0  0  2  0  0  0  0  0  0
  181.9890  178.4920  138.8470 C   0  0  0  0  0  0  0  0  0  0  0  0
  181.2290  178.2720  139.8020 O   0  0  0  0  0  0  0  0  0  0  0  0
  181.6030  175.3470  138.6820 O   0  0  0  0  0  0  0  0  0  0  0  0
  181.3200  176.2330  137.6800 C   0  0  0  0  0  0  0  0  0  0  0  0
  182.1850  175.1710  137.4850 O   0  0  0  0  0  0  0  0  0  0  0  0
  179.9960  176.0110  136.9540 C   0  0  0  0  0  1  0  0  0  0  0  0
  1 25  1  6  0  0  0
  1 15  1  0  0  0  0
  2 36  1  6  0  0  0
  2 10  1  0  0  0  0
  3 16  1  1  0  0  0
  3  6  1  0  0  0  0
  3  1  1  0  0  0  0
  4 22  1  1  0  0  0
  7  5  1  0  0  0  0
  8 12  1  0  0  0  0
  9 20  1  1  0  0  0
  9 18  1  0  0  0  0
 10  7  1  0  0  0  0
 10  5  1  1  0  0  0
 10 24  1  0  0  0  0
 11  6  1  6  0  0  0
 11 24  1  0  0  0  0
 11 19  1  0  0  0  0
 12 14  1  0  0  0  0
 13 26  1  0  0  0  0
 14 17  1  0  0  0  0
 15  8  1  1  0  0  0
 15  4  1  0  0  0  0
 18  2  1  0  0  0  0
 18  6  2  0  0  0  0
 19 15  1  0  0  0  0
 19  4  1  0  0  0  0
 21  9  1  0  0  0  0
 21 23  1  0  0  0  0
 22 17  1  0  0  0  0
 23 16  1  0  0  0  0
 24 13  2  0  0  0  0
 26 22  2  0  0  0  0
 27 30  2  0  0  0  0
 28 31  1  0  0  0  0
 30 28  1  0  0  0  0
 31 29  2  0  0  0  0
 32 31  1  0  0  0  0
 32 23  1  0  0  0  0
 33 30  1  0  0  0  0
 33 34  1  0  0  0  0
 34 35  1  0  0  0  0
 37 36  1  0  0  0  0
 38 40  1  0  0  0  0
 38 37  1  0  0  0  0
 39 40  1  0  0  0  0
 40 41  2  0  0  0  0
 43 39  1  0  0  0  0
 43 42  1  0  0  0  0
 44 43  1  0  0  0  0
 44 42  1  0  0  0  0
 45 43  1  0  0  0  0
M  END
>  <MODEL>
1

>  <REMARK>
 VINA RESULT:      -9.8      0.000      0.000
  Name = 
  8 active torsions:
  status: ('A' for Active; 'I' for Inactive)
    1  A    between atoms: C_2  and  O_5
    2  A    between atoms: O_5  and  C_23
    3  A    between atoms: C_10  and  N_11
    4  A    between atoms: C_12  and  C_27
    5  A    between atoms: C_12  and  C_40
    6  A    between atoms: C_15  and  C_36
    7  A    between atoms: C_23  and  C_36
    8  A    between atoms: C_37  and  N_42
                            x       y       z     vdW  Elec       q    Type
                         _______ _______ _______ _____ _____    ______ ____

>  <TORSDO>
F 8

$$$$
=
 OpenBabel10232408313D

 45 52  0  0  1  0  0  0  0  0999 V2000
  189.3900  177.0020  142.4590 C   0  0  2  0  0  3  0  0  0  0  0  0
  184.9490  178.8740  140.4610 C   0  0  1  0  0  3  0  0  0  0  0  0
  188.6000  177.5820  141.2430 C   0  0  1  0  0  3  0  0  0  0  0  0
  187.8040  177.6260  144.9390 C   0  0  1  0  0  3  0  0  0  0  0  0
  183.3680  179.4900  142.3020 C   0  0  0  0  0  2  0  0  0  0  0  0
  187.2710  177.9970  141.3090 C   0  0  0  0  0  0  0  0  0  0  0  0
  183.1520  178.1300  142.0330 O   0  0  0  0  0  0  0  0  0  0  0  0
  190.3430  177.3540  144.7880 C   0  0  0  0  0  2  0  0  0  0  0  0
  186.5410  177.9850  138.8380 C   0  0  2  0  0  3  0  0  0  0  0  0
  184.4920  178.6220  141.8950 C   0  0  1  0  0  0  0  0  0  0  0  0
  186.7810  178.0970  142.7240 C   0  0  2  0  0  3  0  0  0  0  0  0
  190.2940  177.2150  146.1660 C   0  0  0  0  0  2  0  0  0  0  0  0
  184.9940  178.3190  144.5880 C   0  0  0  0  0  3  0  0  0  0  0  0
  189.1390  177.0140  147.2200 C   0  0  0  0  0  2  0  0  0  0  0  0
  189.0870  177.7150  143.8480 C   0  0  2  0  0  0  0  0  0  0  0  0
  189.5840  178.1320  140.2870 C   0  0  0  0  0  2  0  0  0  0  0  0
  187.7460  177.6860  147.2860 C   0  0  0  0  0  2  0  0  0  0  0  0
  186.2680  178.3310  140.1310 C   0  0  0  0  0  0  0  0  0  0  0  0
  187.6850  177.1410  143.6670 C   0  0  1  0  0  3  0  0  0  0  0  0
  185.5600  177.4450  137.9190 O   0  0  0  0  0  1  0  0  0  0  0  0
  187.8680  177.8740  138.3750 C   0  0  0  0  0  2  0  0  0  0  0  0
  187.0620  177.6480  146.0400 C   0  0  0  0  0  0  0  0  0  0  0  0
  189.1040  177.8380  138.9020 C   0  0  2  0  0  3  0  0  0  0  0  0
  185.4790  178.3900  143.0550 C   0  0  0  0  0  0  0  0  0  0  0  0
  190.6460  176.4320  142.1860 F   0  0  0  0  0  0  0  0  0  0  0  0
  185.6320  177.9830  145.8150 C   0  0  0  0  0  3  0  0  0  0  0  0
  190.8770  173.4700  136.1680 O   0  0  0  0  0  0  0  0  0  0  0  0
  191.1370  174.8530  138.1170 N   0  0  0  0  0  2  0  0  0  0  0  0
  192.2410  176.8680  138.9370 O   0  0  0  0  0  0  0  0  0  0  0  0
  191.6610  174.1870  136.8650 C   0  0  0  0  0  0  0  0  0  0  0  0
  191.2610  176.3590  138.4760 C   0  0  0  0  0  0  0  0  0  0  0  0
  190.1840  177.2680  138.1650 N   0  0  0  0  0  2  0  0  0  0  0  0
  193.1380  173.9620  136.6500 C   0  0  0  0  0  2  0  0  0  0  0  0
  193.8780  175.2390  136.2600 C   0  0  0  0  0  2  0  0  0  0  0  0
  193.1030  175.8170  135.0900 C   0  0  0  0  0  1  0  0  0  0  0  0
  183.9460  178.6370  139.4790 O   0  0  0  0  0  0  0  0  0  0  0  0
  183.5990  179.9460  139.1360 C   0  0  0  0  0  2  0  0  0  0  0  0
  182.1010  180.0380  138.9970 C   0  0  0  0  0  2  0  0  0  0  0  0
  181.7870  182.4720  138.0710 N   0  0  0  0  0  2  0  0  0  0  0  0
  181.6550  181.0120  137.9290 C   0  0  0  0  0  0  0  0  0  0  0  0
  180.9970  180.5490  136.9860 O   0  0  0  0  0  0  0  0  0  0  0  0
  181.8130  184.7320  137.1880 O   0  0  0  0  0  0  0  0  0  0  0  0
  181.2750  183.4780  137.1000 C   0  0  0  0  0  0  0  0  0  0  0  0
  180.6040  184.5110  137.7300 O   0  0  0  0  0  0  0  0  0  0  0  0
  180.6270  183.1280  135.7630 C   0  0  0  0  0  1  0  0  0  0  0  0
  1 25  1  6  0  0  0
  1 15  1  0  0  0  0
  2 36  1  6  0  0  0
  2 10  1  0  0  0  0
  3 16  1  1  0  0  0
  3  6  1  0  0  0  0
  3  1  1  0  0  0  0
  4 22  1  1  0  0  0
  7  5  1  0  0  0  0
  8 12  1  0  0  0  0
  9 20  1  1  0  0  0
  9 18  1  0  0  0  0
 10  7  1  0  0  0  0
 10  5  1  1  0  0  0
 10 24  1  0  0  0  0
 11  6  1  6  0  0  0
 11 24  1  0  0  0  0
 11 19  1  0  0  0  0
 12 14  1  0  0  0  0
 13 26  1  0  0  0  0
 14 17  1  0  0  0  0
 15  8  1  1  0  0  0
 15  4  1  0  0  0  0
 18  2  1  0  0  0  0
 18  6  2  0  0  0  0
 19 15  1  0  0  0  0
 19  4  1  0  0  0  0
 21  9  1  0  0  0  0
 21 23  1  0  0  0  0
 22 17  1  0  0  0  0
 23 16  1  0  0  0  0
 24 13  2  0  0  0  0
 26 22  2  0  0  0  0
 27 30  2  0  0  0  0
 28 31  1  0  0  0  0
 30 28  1  0  0  0  0
 31 29  2  0  0  0  0
 32 31  1  0  0  0  0
 32 23  1  0  0  0  0
 33 30  1  0  0  0  0
 34 33  1  0  0  0  0
 35 34  1  0  0  0  0
 37 36  1  0  0  0  0
 38 37  1  0  0  0  0
 40 39  1  0  0  0  0
 40 38  1  0  0  0  0
 41 40  2  0  0  0  0
 42 44  1  0  0  0  0
 43 42  1  0  0  0  0
 43 44  1  0  0  0  0
 43 39  1  0  0  0  0
 45 43  1  0  0  0  0
M  END
>  <MODEL>
2

>  <REMARK>
 VINA RESULT:      -9.8      2.089      2.852
  Name = 
  8 active torsions:
  status: ('A' for Active; 'I' for Inactive)
    1  A    between atoms: C_2  and  O_5
    2  A    between atoms: O_5  and  C_23
    3  A    between atoms: C_10  and  N_11
    4  A    between atoms: C_12  and  C_27
    5  A    between atoms: C_12  and  C_40
    6  A    between atoms: C_15  and  C_36
    7  A    between atoms: C_23  and  C_36
    8  A    between atoms: C_37  and  N_42
                            x       y       z     vdW  Elec       q    Type
                         _______ _______ _______ _____ _____    ______ ____

>  <TORSDO>
F 8

$$$$
=
 OpenBabel10232408313D

 45 52  0  0  1  0  0  0  0  0999 V2000
  186.2100  178.7520  144.1350 C   0  0  2  0  0  3  0  0  0  0  0  0
  189.6990  177.2110  140.5760 C   0  0  1  0  0  3  0  0  0  0  0  0
  186.5520  178.3820  142.6570 C   0  0  1  0  0  3  0  0  0  0  0  0
  188.4390  177.7000  145.8620 C   0  0  1  0  0  3  0  0  0  0  0  0
  191.7280  176.2750  141.7070 C   0  0  0  0  0  2  0  0  0  0  0  0
  187.8080  177.9500  142.2360 C   0  0  0  0  0  0  0  0  0  0  0  0
  191.9340  177.6600  141.6050 O   0  0  0  0  0  0  0  0  0  0  0  0
  185.9980  178.0170  146.5570 C   0  0  0  0  0  2  0  0  0  0  0  0
  187.7440  178.3770  139.6960 C   0  0  2  0  0  3  0  0  0  0  0  0
  190.5900  177.2100  141.8160 C   0  0  1  0  0  0  0  0  0  0  0  0
  188.7020  177.6060  143.3920 C   0  0  2  0  0  3  0  0  0  0  0  0
  186.4750  177.9180  147.8550 C   0  0  0  0  0  2  0  0  0  0  0  0
  190.9570  177.0540  144.5430 C   0  0  0  0  0  3  0  0  0  0  0  0
  187.9090  177.9260  148.5120 C   0  0  0  0  0  2  0  0  0  0  0  0
  186.8800  177.8100  145.2270 C   0  0  2  0  0  0  0  0  0  0  0  0
  185.2900  178.0120  141.9820 C   0  0  0  0  0  2  0  0  0  0  0  0
  189.2100  177.2400  148.0310 C   0  0  0  0  0  2  0  0  0  0  0  0
  188.3790  177.8140  140.7660 C   0  0  0  0  0  0  0  0  0  0  0  0
  188.1920  178.3950  144.7100 C   0  0  1  0  0  3  0  0  0  0  0  0
  188.4270  179.0580  138.6150 O   0  0  0  0  0  1  0  0  0  0  0  0
  186.3490  178.5770  139.6960 C   0  0  0  0  0  2  0  0  0  0  0  0
  189.4800  177.4850  146.6560 C   0  0  0  0  0  0  0  0  0  0  0  0
  185.3390  178.5340  140.5820 C   0  0  2  0  0  3  0  0  0  0  0  0
  190.0220  177.2500  143.2480 C   0  0  0  0  0  0  0  0  0  0  0  0
  184.9690  179.3720  144.3630 F   0  0  0  0  0  0  0  0  0  0  0  0
  190.7490  177.1800  145.9450 C   0  0  0  0  0  3  0  0  0  0  0  0
  180.1950  178.1040  138.8330 O   0  0  0  0  0  0  0  0  0  0  0  0
  182.3910  178.9850  138.4000 N   0  0  0  0  0  2  0  0  0  0  0  0
  183.8440  180.8910  138.8530 O   0  0  0  0  0  0  0  0  0  0  0  0
  180.8990  179.1360  138.5970 C   0  0  0  0  0  0  0  0  0  0  0  0
  183.4990  179.7810  139.1400 C   0  0  0  0  0  0  0  0  0  0  0  0
  184.1220  179.2300  140.3200 N   0  0  0  0  0  2  0  0  0  0  0  0
  180.1560  180.3480  138.0910 C   0  0  0  0  0  2  0  0  0  0  0  0
  180.8400  181.0020  136.8940 C   0  0  0  0  0  2  0  0  0  0  0  0
  180.9310  182.4790  137.2340 C   0  0  0  0  0  1  0  0  0  0  0  0
  190.3660  177.6030  139.3810 O   0  0  0  0  0  0  0  0  0  0  0  0
  190.5730  176.3620  138.7750 C   0  0  0  0  0  2  0  0  0  0  0  0
  191.4460  176.5460  137.5600 C   0  0  0  0  0  2  0  0  0  0  0  0
  193.5560  175.0260  137.2180 N   0  0  0  0  0  2  0  0  0  0  0  0
  192.8990  176.2050  137.8070 C   0  0  0  0  0  0  0  0  0  0  0  0
  193.4890  176.8580  138.6800 O   0  0  0  0  0  0  0  0  0  0  0  0
  195.9460  175.3130  136.9120 O   0  0  0  0  0  0  0  0  0  0  0  0
  194.9490  174.5880  137.5040 C   0  0  0  0  0  0  0  0  0  0  0  0
  195.5950  174.1370  136.3670 O   0  0  0  0  0  0  0  0  0  0  0  0
  195.3590  173.7790  138.7320 C   0  0  0  0  0  1  0  0  0  0  0  0
  1 25  1  6  0  0  0
  1 15  1  0  0  0  0
  2 36  1  6  0  0  0
  2 18  1  0  0  0  0
  2 10  1  0  0  0  0
  3 16  1  1  0  0  0
  3  1  1  0  0  0  0
  4 22  1  1  0  0  0
  6  3  1  0  0  0  0
  7  5  1  0  0  0  0
  7 10  1  0  0  0  0
  8 12  1  0  0  0  0
  9 20  1  1  0  0  0
  9 18  1  0  0  0  0
 10  5  1  6  0  0  0
 10 24  1  0  0  0  0
 11  6  1  6  0  0  0
 11 19  1  0  0  0  0
 12 14  1  0  0  0  0
 13 26  1  0  0  0  0
 15  4  1  0  0  0  0
 15  8  1  1  0  0  0
 17 14  1  0  0  0  0
 18  6  2  0  0  0  0
 19 15  1  0  0  0  0
 19  4  1  0  0  0  0
 21  9  1  0  0  0  0
 21 23  1  0  0  0  0
 22 17  1  0  0  0  0
 23 16  1  0  0  0  0
 24 11  1  0  0  0  0
 24 13  2  0  0  0  0
 26 22  2  0  0  0  0
 28 30  1  0  0  0  0
 28 31  1  0  0  0  0
 29 31  2  0  0  0  0
 30 27  2  0  0  0  0
 31 32  1  0  0  0  0
 32 23  1  0  0  0  0
 33 30  1  0  0  0  0
 34 35  1  0  0  0  0
 34 33  1  0  0  0  0
 37 36  1  0  0  0  0
 38 40  1  0  0  0  0
 38 37  1  0  0  0  0
 39 43  1  0  0  0  0
 39 40  1  0  0  0  0
 40 41  2  0  0  0  0
 42 43  1  0  0  0  0
 43 45  1  0  0  0  0
 44 42  1  0  0  0  0
 44 43  1  0  0  0  0
M  END
>  <MODEL>
3

>  <REMARK>
 VINA RESULT:      -9.7      2.173      8.575
  Name = 
  8 active torsions:
  status: ('A' for Active; 'I' for Inactive)
    1  A    between atoms: C_2  and  O_5
    2  A    between atoms: O_5  and  C_23
    3  A    between atoms: C_10  and  N_11
    4  A    between atoms: C_12  and  C_27
    5  A    between atoms: C_12  and  C_40
    6  A    between atoms: C_15  and  C_36
    7  A    between atoms: C_23  and  C_36
    8  A    between atoms: C_37  and  N_42
                            x       y       z     vdW  Elec       q    Type
                         _______ _______ _______ _____ _____    ______ ____

>  <TORSDO>
F 8

$$$$
=
 OpenBabel10232408313D

 45 52  0  0  1  0  0  0  0  0999 V2000
  185.2790  178.9500  142.6840 C   0  0  2  0  0  3  0  0  0  0  0  0
  189.6460  177.2270  140.4080 C   0  0  1  0  0  3  0  0  0  0  0  0
  186.0290  178.4690  141.4020 C   0  0  1  0  0  3  0  0  0  0  0  0
  186.9320  178.1150  145.0560 C   0  0  1  0  0  3  0  0  0  0  0  0
  191.2750  176.4530  142.1440 C   0  0  0  0  0  2  0  0  0  0  0  0
  187.3560  178.0430  141.3930 C   0  0  0  0  0  0  0  0  0  0  0  0
  191.4930  177.8290  141.9820 O   0  0  0  0  0  0  0  0  0  0  0  0
  184.3920  178.4120  145.0030 C   0  0  0  0  0  2  0  0  0  0  0  0
  188.0150  178.2560  138.9110 C   0  0  2  0  0  3  0  0  0  0  0  0
  190.1470  177.3580  141.8440 C   0  0  1  0  0  0  0  0  0  0  0  0
  187.8870  177.8240  142.7800 C   0  0  2  0  0  3  0  0  0  0  0  0
  184.4810  178.4360  146.3860 C   0  0  0  0  0  2  0  0  0  0  0  0
  189.7250  177.4400  144.5660 C   0  0  0  0  0  3  0  0  0  0  0  0
  185.6690  178.5430  147.4180 C   0  0  0  0  0  2  0  0  0  0  0  0
  185.6170  178.1230  143.9990 C   0  0  2  0  0  0  0  0  0  0  0  0
  185.0140  178.0050  140.4330 C   0  0  0  0  0  2  0  0  0  0  0  0
  187.0570  177.8600  147.3870 C   0  0  0  0  0  2  0  0  0  0  0  0
  188.3220  177.8030  140.1620 C   0  0  0  0  0  0  0  0  0  0  0  0
  187.0180  178.7030  143.8250 C   0  0  1  0  0  3  0  0  0  0  0  0
  188.9720  178.8650  138.0110 O   0  0  0  0  0  1  0  0  0  0  0  0
  186.6760  178.4120  138.4990 C   0  0  0  0  0  2  0  0  0  0  0  0
  187.7050  177.9980  146.1290 C   0  0  0  0  0  0  0  0  0  0  0  0
  185.4560  178.4110  139.0630 C   0  0  0  0  0  0  0  0  0  0  0  0
  189.1950  177.4980  143.0470 C   0  0  0  0  0  0  0  0  0  0  0  0
  184.0210  179.5470  142.4960 F   0  0  0  0  0  0  0  0  0  0  0  0
  189.1260  177.6750  145.8350 C   0  0  0  0  0  3  0  0  0  0  0  0
  182.6280  183.0320  138.4720 O   0  0  0  0  0  0  0  0  0  0  0  0
  182.6140  180.7630  139.2690 N   0  0  0  0  0  2  0  0  0  0  0  0
  182.2100  178.4610  138.5710 O   0  0  0  0  0  0  0  0  0  0  0  0
  182.0660  181.8920  138.4240 C   0  0  0  0  0  0  0  0  0  0  0  0
  182.9940  179.3440  138.7670 C   0  0  0  0  0  0  0  0  0  0  0  0
  184.3590  179.0450  138.4070 N   0  0  0  0  0  0  0  0  0  0  0  0
  180.6550  181.8670  137.8910 C   0  0  0  0  0  2  0  0  0  0  0  0
  180.6010  181.8540  136.3660 C   0  0  0  0  0  2  0  0  0  0  0  0
  180.6790  180.3920  135.9680 C   0  0  0  0  0  1  0  0  0  0  0  0
  190.6220  177.5400  139.4190 O   0  0  0  0  0  0  0  0  0  0  0  0
  190.9430  176.2620  138.9530 C   0  0  0  0  0  2  0  0  0  0  0  0
  191.5910  176.3810  137.5980 C   0  0  0  0  0  2  0  0  0  0  0  0
  193.5800  174.7220  138.0120 N   0  0  0  0  0  2  0  0  0  0  0  0
  193.0650  176.0400  137.6040 C   0  0  0  0  0  0  0  0  0  0  0  0
  193.8590  176.9760  137.4260 O   0  0  0  0  0  0  0  0  0  0  0  0
  195.3650  173.6080  139.2190 O   0  0  0  0  0  0  0  0  0  0  0  0
  195.0190  174.3640  138.1340 C   0  0  0  0  0  0  0  0  0  0  0  0
  195.6010  174.9290  139.2540 O   0  0  0  0  0  0  0  0  0  0  0  0
  195.9960  174.3240  136.9610 C   0  0  0  0  0  1  0  0  0  0  0  0
  1 25  1  6  0  0  0
  1 15  1  0  0  0  0
  2 36  1  6  0  0  0
  2 10  1  0  0  0  0
  3 16  1  1  0  0  0
  3  1  1  0  0  0  0
  4 22  1  1  0  0  0
  6  3  1  0  0  0  0
  7  5  1  0  0  0  0
  8 12  1  0  0  0  0
  9 20  1  1  0  0  0
  9 18  1  0  0  0  0
 10  7  1  0  0  0  0
 10  5  1  1  0  0  0
 10 24  1  0  0  0  0
 11  6  1  6  0  0  0
 11 24  1  0  0  0  0
 11 19  1  0  0  0  0
 12 14  1  0  0  0  0
 13 26  1  0  0  0  0
 15  8  1  1  0  0  0
 15  4  1  0  0  0  0
 17 14  1  0  0  0  0
 18  2  1  0  0  0  0
 18  6  2  0  0  0  0
 19 15  1  0  0  0  0
 19  4  1  0  0  0  0
 21  9  1  0  0  0  0
 21 23  1  0  0  0  0
 22 17  1  0  0  0  0
 23 16  1  0  0  0  0
 24 13  2  0  0  0  0
 26 22  2  0  0  0  0
 29 31  2  0  0  0  0
 30 27  2  0  0  0  0
 30 28  1  0  0  0  0
 31 28  1  0  0  0  0
 32 31  1  0  0  0  0
 32 23  2  0  0  0  0
 33 30  1  0  0  0  0
 34 33  1  0  0  0  0
 35 34  1  0  0  0  0
 37 36  1  0  0  0  0
 38 40  1  0  0  0  0
 38 37  1  0  0  0  0
 39 43  1  0  0  0  0
 40 39  1  0  0  0  0
 41 40  2  0  0  0  0
 42 44  1  0  0  0  0
 43 42  1  0  0  0  0
 43 44  1  0  0  0  0
 45 43  1  0  0  0  0
M  END
>  <MODEL>
4

>  <REMARK>
 VINA RESULT:      -9.4      2.363      8.723
  Name = 
  8 active torsions:
  status: ('A' for Active; 'I' for Inactive)
    1  A    between atoms: C_2  and  O_5
    2  A    between atoms: O_5  and  C_23
    3  A    between atoms: C_10  and  N_11
    4  A    between atoms: C_12  and  C_27
    5  A    between atoms: C_12  and  C_40
    6  A    between atoms: C_15  and  C_36
    7  A    between atoms: C_23  and  C_36
    8  A    between atoms: C_37  and  N_42
                            x       y       z     vdW  Elec       q    Type
                         _______ _______ _______ _____ _____    ______ ____

>  <TORSDO>
F 8

$$$$
=
 OpenBabel10232408313D

 45 52  0  0  1  0  0  0  0  0999 V2000
  186.3880  178.7720  144.1410 C   0  0  2  0  0  3  0  0  0  0  0  0
  189.7740  177.2450  140.4780 C   0  0  1  0  0  3  0  0  0  0  0  0
  186.6860  178.4070  142.6530 C   0  0  1  0  0  3  0  0  0  0  0  0
  188.6660  177.7150  145.7990 C   0  0  1  0  0  3  0  0  0  0  0  0
  191.8350  176.3070  141.5460 C   0  0  0  0  0  2  0  0  0  0  0  0
  187.9310  177.9770  142.1940 C   0  0  0  0  0  0  0  0  0  0  0  0
  192.0370  177.6920  141.4430 O   0  0  0  0  0  0  0  0  0  0  0  0
  186.2450  178.0280  146.5660 C   0  0  0  0  0  2  0  0  0  0  0  0
  187.7940  178.4130  139.6580 C   0  0  2  0  0  3  0  0  0  0  0  0
  190.7000  177.2410  141.6920 C   0  0  1  0  0  0  0  0  0  0  0  0
  188.8580  177.6300  143.3230 C   0  0  2  0  0  3  0  0  0  0  0  0
  186.7600  177.9250  147.8480 C   0  0  0  0  0  2  0  0  0  0  0  0
  191.1460  177.0750  144.4060 C   0  0  0  0  0  3  0  0  0  0  0  0
  188.2120  177.9310  148.4650 C   0  0  0  0  0  2  0  0  0  0  0  0
  187.0890  177.8260  145.2100 C   0  0  2  0  0  0  0  0  0  0  0  0
  185.4060  178.0380  142.0120 C   0  0  0  0  0  2  0  0  0  0  0  0
  189.4990  177.2480  147.9440 C   0  0  0  0  0  2  0  0  0  0  0  0
  188.4590  177.8470  140.7080 C   0  0  0  0  0  0  0  0  0  0  0  0
  188.3850  178.4140  144.6580 C   0  0  1  0  0  3  0  0  0  0  0  0
  188.4450  179.0990  138.5610 O   0  0  0  0  0  1  0  0  0  0  0  0
  186.3990  178.6130  139.6990 C   0  0  0  0  0  2  0  0  0  0  0  0
  189.7290  177.4970  146.5630 C   0  0  0  0  0  0  0  0  0  0  0  0
  185.4150  178.5660  140.6140 C   0  0  2  0  0  3  0  0  0  0  0  0
  190.1730  177.2750  143.1390 C   0  0  0  0  0  0  0  0  0  0  0  0
  185.1530  179.3900  144.4060 F   0  0  0  0  0  0  0  0  0  0  0  0
  190.9770  177.1960  145.8140 C   0  0  0  0  0  3  0  0  0  0  0  0
  180.1640  178.1050  139.2280 O   0  0  0  0  0  0  0  0  0  0  0  0
  182.3360  178.9270  138.6030 N   0  0  0  0  0  2  0  0  0  0  0  0
  183.8340  180.8370  138.8460 O   0  0  0  0  0  0  0  0  0  0  0  0
  180.8610  179.1110  138.8860 C   0  0  0  0  0  0  0  0  0  0  0  0
  183.4970  179.7510  139.2210 C   0  0  0  0  0  0  0  0  0  0  0  0
  184.1900  179.2620  140.3890 N   0  0  0  0  0  2  0  0  0  0  0  0
  180.0990  180.3010  138.3570 C   0  0  0  0  0  2  0  0  0  0  0  0
  180.7290  180.8940  137.1000 C   0  0  0  0  0  2  0  0  0  0  0  0
  180.9440  182.3650  137.4080 C   0  0  0  0  0  1  0  0  0  0  0  0
  190.4050  177.6420  139.2650 O   0  0  0  0  0  0  0  0  0  0  0  0
  190.5490  176.4080  138.6270 C   0  0  0  0  0  2  0  0  0  0  0  0
  190.6690  176.6330  137.1410 C   0  0  0  0  0  2  0  0  0  0  0  0
  188.1120  176.1580  136.8060 N   0  0  0  0  0  2  0  0  0  0  0  0
  189.3420  176.8910  136.4630 C   0  0  0  0  0  0  0  0  0  0  0  0
  189.3550  177.6250  135.4640 O   0  0  0  0  0  0  0  0  0  0  0  0
  186.1710  177.5010  136.2430 O   0  0  0  0  0  0  0  0  0  0  0  0
  186.8060  176.2980  136.1050 C   0  0  0  0  0  0  0  0  0  0  0  0
  185.7580  176.4670  136.9930 O   0  0  0  0  0  0  0  0  0  0  0  0
  186.3840  175.4610  134.9010 C   0  0  0  0  0  1  0  0  0  0  0  0
  1 25  1  6  0  0  0
  1 15  1  0  0  0  0
  2 36  1  6  0  0  0
  2 18  1  0  0  0  0
  2 10  1  0  0  0  0
  3 16  1  1  0  0  0
  3  1  1  0  0  0  0
  4 22  1  1  0  0  0
  6  3  1  0  0  0  0
  7  5  1  0  0  0  0
  7 10  1  0  0  0  0
  8 12  1  0  0  0  0
  9 20  1  1  0  0  0
  9 21  1  0  0  0  0
  9 18  1  0  0  0  0
 10  5  1  6  0  0  0
 10 24  1  0  0  0  0
 11  6  1  6  0  0  0
 11 19  1  0  0  0  0
 12 14  1  0  0  0  0
 13 26  1  0  0  0  0
 15  4  1  0  0  0  0
 15  8  1  1  0  0  0
 17 14  1  0  0  0  0
 18  6  2  0  0  0  0
 19 15  1  0  0  0  0
 19  4  1  0  0  0  0
 21 23  1  0  0  0  0
 22 17  1  0  0  0  0
 23 16  1  0  0  0  0
 24 11  1  0  0  0  0
 24 13  2  0  0  0  0
 26 22  2  0  0  0  0
 28 30  1  0  0  0  0
 28 31  1  0  0  0  0
 29 31  2  0  0  0  0
 30 27  2  0  0  0  0
 31 32  1  0  0  0  0
 32 23  1  0  0  0  0
 33 30  1  0  0  0  0
 34 35  1  0  0  0  0
 34 33  1  0  0  0  0
 37 36  1  0  0  0  0
 38 37  1  0  0  0  0
 40 39  1  0  0  0  0
 40 38  1  0  0  0  0
 41 40  2  0  0  0  0
 42 44  1  0  0  0  0
 43 42  1  0  0  0  0
 43 39  1  0  0  0  0
 43 44  1  0  0  0  0
 45 43  1  0  0  0  0
M  END
>  <MODEL>
5

>  <REMARK>
 VINA RESULT:      -9.3      2.552      7.259
  Name = 
  8 active torsions:
  status: ('A' for Active; 'I' for Inactive)
    1  A    between atoms: C_2  and  O_5
    2  A    between atoms: O_5  and  C_23
    3  A    between atoms: C_10  and  N_11
    4  A    between atoms: C_12  and  C_27
    5  A    between atoms: C_12  and  C_40
    6  A    between atoms: C_15  and  C_36
    7  A    between atoms: C_23  and  C_36
    8  A    between atoms: C_37  and  N_42
                            x       y       z     vdW  Elec       q    Type
                         _______ _______ _______ _____ _____    ______ ____

>  <TORSDO>
F 8

$$$$
=
 OpenBabel10232408313D

 45 52  0  0  1  0  0  0  0  0999 V2000
  185.8690  178.6470  140.0090 C   0  0  2  0  0  3  0  0  0  0  0  0
  186.6620  177.9450  145.1180 C   0  0  1  0  0  3  0  0  0  0  0  0
  186.8000  178.1880  141.1770 C   0  0  1  0  0  3  0  0  0  0  0  0
  183.0700  178.8080  141.1030 C   0  0  1  0  0  3  0  0  0  0  0  0
  184.4830  178.0390  146.3490 C   0  0  0  0  0  2  0  0  0  0  0  0
  186.4200  178.1930  142.5180 C   0  0  0  0  0  0  0  0  0  0  0  0
  184.9420  179.3620  146.2540 O   0  0  0  0  0  0  0  0  0  0  0  0
  183.7300  178.3030  138.6830 C   0  0  0  0  0  2  0  0  0  0  0  0
  188.6790  178.1330  143.7560 C   0  0  2  0  0  3  0  0  0  0  0  0
  185.2340  178.4850  145.1580 C   0  0  1  0  0  0  0  0  0  0  0  0
  184.9440  178.4060  142.6850 C   0  0  2  0  0  3  0  0  0  0  0  0
  182.4120  178.6080  138.3820 C   0  0  0  0  0  2  0  0  0  0  0  0
  182.7750  178.9370  144.0000 C   0  0  0  0  0  3  0  0  0  0  0  0
  181.2160  179.2610  139.1760 C   0  0  0  0  0  2  0  0  0  0  0  0
  184.3460  178.2200  140.1680 C   0  0  2  0  0  0  0  0  0  0  0  0
  187.8090  177.2670  140.6140 C   0  0  0  0  0  2  0  0  0  0  0  0
  180.7800  179.0390  140.6440 C   0  0  0  0  0  2  0  0  0  0  0  0
  187.3180  178.0350  143.8120 C   0  0  0  0  0  0  0  0  0  0  0  0
  184.3640  179.1570  141.3730 C   0  0  1  0  0  3  0  0  0  0  0  0
  189.4830  178.8280  144.7410 O   0  0  0  0  0  1  0  0  0  0  0  0
  189.3890  177.7950  142.5870 C   0  0  0  0  0  2  0  0  0  0  0  0
  181.8660  179.1330  141.5560 C   0  0  0  0  0  0  0  0  0  0  0  0
  189.1120  177.5270  141.2990 C   0  0  2  0  0  3  0  0  0  0  0  0
  184.3340  178.5490  143.9090 C   0  0  0  0  0  0  0  0  0  0  0  0
  186.4640  178.7870  138.7430 F   0  0  0  0  0  0  0  0  0  0  0  0
  181.7630  179.2090  143.0370 C   0  0  0  0  0  3  0  0  0  0  0  0
  190.9540  175.7600  136.4830 O   0  0  0  0  0  0  0  0  0  0  0  0
  191.3470  175.8910  138.8520 N   0  0  0  0  0  2  0  0  0  0  0  0
  192.3100  177.3110  140.5860 O   0  0  0  0  0  0  0  0  0  0  0  0
  191.7440  176.1210  137.4110 C   0  0  0  0  0  0  0  0  0  0  0  0
  191.3390  176.9560  139.9820 C   0  0  0  0  0  0  0  0  0  0  0  0
  190.1230  177.6640  140.3020 N   0  0  0  0  0  2  0  0  0  0  0  0
  193.1840  176.3340  137.0140 C   0  0  0  0  0  2  0  0  0  0  0  0
  193.9150  175.0260  136.7250 C   0  0  0  0  0  2  0  0  0  0  0  0
  194.6270  174.6630  138.0160 C   0  0  0  0  0  1  0  0  0  0  0  0
  187.4690  178.3520  146.2180 O   0  0  0  0  0  0  0  0  0  0  0  0
  187.1310  177.3820  147.1650 C   0  0  0  0  0  2  0  0  0  0  0  0
  188.0300  177.5320  148.3660 C   0  0  0  0  0  2  0  0  0  0  0  0
  190.1330  176.5010  147.1860 N   0  0  0  0  0  2  0  0  0  0  0  0
  189.5020  177.5390  148.0180 C   0  0  0  0  0  0  0  0  0  0  0  0
  190.2160  178.3610  148.6120 O   0  0  0  0  0  0  0  0  0  0  0  0
  192.0860  177.2880  145.9800 O   0  0  0  0  0  0  0  0  0  0  0  0
  191.5890  176.4020  146.8960 C   0  0  0  0  0  0  0  0  0  0  0  0
  191.8320  176.0300  145.5850 O   0  0  0  0  0  0  0  0  0  0  0  0
  192.6140  175.7880  147.8460 C   0  0  0  0  0  1  0  0  0  0  0  0
  1 25  1  6  0  0  0
  1 15  1  0  0  0  0
  1  3  1  0  0  0  0
  2 10  1  0  0  0  0
  2 36  1  1  0  0  0
  3 16  1  6  0  0  0
  3  6  1  0  0  0  0
  4 19  1  0  0  0  0
  4 22  1  6  0  0  0
  6 18  2  0  0  0  0
  7  5  1  0  0  0  0
  9 18  1  0  0  0  0
  9 20  1  6  0  0  0
 10  7  1  0  0  0  0
 10  5  1  1  0  0  0
 11  6  1  1  0  0  0
 11 24  1  0  0  0  0
 12  8  1  0  0  0  0
 12 14  1  0  0  0  0
 14 17  1  0  0  0  0
 15  8  1  6  0  0  0
 15  4  1  0  0  0  0
 15 19  1  0  0  0  0
 16 23  1  0  0  0  0
 17 22  1  0  0  0  0
 18  2  1  0  0  0  0
 19 11  1  0  0  0  0
 21  9  1  0  0  0  0
 22 26  2  0  0  0  0
 23 21  1  0  0  0  0
 24 13  2  0  0  0  0
 24 10  1  0  0  0  0
 26 13  1  0  0  0  0
 27 30  2  0  0  0  0
 28 31  1  0  0  0  0
 30 28  1  0  0  0  0
 31 32  1  0  0  0  0
 31 29  2  0  0  0  0
 32 23  1  0  0  0  0
 33 30  1  0  0  0  0
 34 33  1  0  0  0  0
 34 35  1  0  0  0  0
 36 37  1  0  0  0  0
 37 38  1  0  0  0  0
 39 40  1  0  0  0  0
 40 38  1  0  0  0  0
 40 41  2  0  0  0  0
 42 43  1  0  0  0  0
 43 39  1  0  0  0  0
 43 45  1  0  0  0  0
 44 42  1  0  0  0  0
 44 43  1  0  0  0  0
M  END
>  <MODEL>
6

>  <REMARK>
 VINA RESULT:      -9.0      3.399      7.480
  Name = 
  8 active torsions:
  status: ('A' for Active; 'I' for Inactive)
    1  A    between atoms: C_2  and  O_5
    2  A    between atoms: O_5  and  C_23
    3  A    between atoms: C_10  and  N_11
    4  A    between atoms: C_12  and  C_27
    5  A    between atoms: C_12  and  C_40
    6  A    between atoms: C_15  and  C_36
    7  A    between atoms: C_23  and  C_36
    8  A    between atoms: C_37  and  N_42
                            x       y       z     vdW  Elec       q    Type
                         _______ _______ _______ _____ _____    ______ ____

>  <TORSDO>
F 8

$$$$
=
 OpenBabel10232408313D

 45 52  0  0  1  0  0  0  0  0999 V2000
  185.2040  178.9680  142.6190 C   0  0  2  0  0  3  0  0  0  0  0  0
  189.5410  177.3010  140.2460 C   0  0  1  0  0  3  0  0  0  0  0  0
  185.9330  178.5020  141.3190 C   0  0  1  0  0  3  0  0  0  0  0  0
  186.9110  178.1340  144.9520 C   0  0  1  0  0  3  0  0  0  0  0  0
  191.2110  176.5320  141.9440 C   0  0  0  0  0  2  0  0  0  0  0  0
  187.2630  178.0890  141.2810 C   0  0  0  0  0  0  0  0  0  0  0  0
  191.4130  177.9110  141.7860 O   0  0  0  0  0  0  0  0  0  0  0  0
  184.3680  178.4080  144.9510 C   0  0  0  0  0  2  0  0  0  0  0  0
  187.8700  178.3230  138.7880 C   0  0  2  0  0  3  0  0  0  0  0  0
  190.0690  177.4280  141.6720 C   0  0  1  0  0  0  0  0  0  0  0  0
  187.8230  177.8670  142.6560 C   0  0  2  0  0  3  0  0  0  0  0  0
  184.4850  178.4240  146.3320 C   0  0  0  0  0  2  0  0  0  0  0  0
  189.7010  177.4890  144.4020 C   0  0  0  0  0  3  0  0  0  0  0  0
  185.6920  178.5360  147.3420 C   0  0  0  0  0  2  0  0  0  0  0  0
  185.5760  178.1360  143.9220 C   0  0  2  0  0  0  0  0  0  0  0  0
  184.9030  178.0340  140.3670 C   0  0  0  0  0  2  0  0  0  0  0  0
  187.0850  177.8670  147.2780 C   0  0  0  0  0  2  0  0  0  0  0  0
  188.2070  177.8660  140.0300 C   0  0  0  0  0  0  0  0  0  0  0  0
  186.9670  178.7310  143.7240 C   0  0  1  0  0  3  0  0  0  0  0  0
  188.8040  178.9470  137.8730 O   0  0  0  0  0  1  0  0  0  0  0  0
  186.5220  178.4680  138.4030 C   0  0  0  0  0  2  0  0  0  0  0  0
  187.7070  178.0190  146.0080 C   0  0  0  0  0  0  0  0  0  0  0  0
  185.3130  178.4530  138.9920 C   0  0  0  0  0  0  0  0  0  0  0  0
  189.1400  177.5510  142.8950 C   0  0  0  0  0  0  0  0  0  0  0  0
  183.9360  179.5540  142.4590 F   0  0  0  0  0  0  0  0  0  0  0  0
  189.1240  177.7110  145.6850 C   0  0  0  0  0  3  0  0  0  0  0  0
  182.5590  183.1060  138.3150 O   0  0  0  0  0  0  0  0  0  0  0  0
  182.5370  180.8800  139.2240 N   0  0  0  0  0  2  0  0  0  0  0  0
  182.0490  178.5560  138.6640 O   0  0  0  0  0  0  0  0  0  0  0  0
  181.9710  181.9790  138.3530 C   0  0  0  0  0  0  0  0  0  0  0  0
  182.8600  179.4290  138.7760 C   0  0  0  0  0  0  0  0  0  0  0  0
  184.1980  179.0800  138.3620 N   0  0  0  0  0  0  0  0  0  0  0  0
  180.5340  181.9620  137.8950 C   0  0  0  0  0  2  0  0  0  0  0  0
  180.3430  181.2080  136.5810 C   0  0  0  0  0  2  0  0  0  0  0  0
  180.6480  182.2140  135.4870 C   0  0  0  0  0  1  0  0  0  0  0  0
  190.4940  177.6290  139.2400 O   0  0  0  0  0  0  0  0  0  0  0  0
  190.9590  176.3580  138.8940 C   0  0  0  0  0  2  0  0  0  0  0  0
  190.7890  176.1590  137.4090 C   0  0  0  0  0  2  0  0  0  0  0  0
  188.3870  175.6350  136.4960 N   0  0  0  0  0  2  0  0  0  0  0  0
  189.6770  175.1960  137.0550 C   0  0  0  0  0  0  0  0  0  0  0  0
  189.8120  174.0200  137.4230 O   0  0  0  0  0  0  0  0  0  0  0  0
  185.9900  175.3370  136.2590 O   0  0  0  0  0  0  0  0  0  0  0  0
  187.2240  174.7470  136.2230 C   0  0  0  0  0  0  0  0  0  0  0  0
  186.3950  174.6270  137.3250 O   0  0  0  0  0  0  0  0  0  0  0  0
  187.3080  173.4370  135.4460 C   0  0  0  0  0  1  0  0  0  0  0  0
  1 25  1  6  0  0  0
  1 15  1  0  0  0  0
  2 36  1  6  0  0  0
  2 10  1  0  0  0  0
  3 16  1  1  0  0  0
  3  1  1  0  0  0  0
  4 22  1  1  0  0  0
  6  3  1  0  0  0  0
  7  5  1  0  0  0  0
  8 12  1  0  0  0  0
  9 20  1  1  0  0  0
  9 18  1  0  0  0  0
 10  7  1  0  0  0  0
 10  5  1  1  0  0  0
 10 24  1  0  0  0  0
 11  6  1  6  0  0  0
 11 24  1  0  0  0  0
 11 19  1  0  0  0  0
 12 14  1  0  0  0  0
 13 26  1  0  0  0  0
 15  8  1  1  0  0  0
 15  4  1  0  0  0  0
 17 14  1  0  0  0  0
 18  2  1  0  0  0  0
 18  6  2  0  0  0  0
 19 15  1  0  0  0  0
 19  4  1  0  0  0  0
 21  9  1  0  0  0  0
 21 23  1  0  0  0  0
 22 17  1  0  0  0  0
 23 16  1  0  0  0  0
 24 13  2  0  0  0  0
 26 22  2  0  0  0  0
 27 30  2  0  0  0  0
 29 31  2  0  0  0  0
 30 28  1  0  0  0  0
 31 28  1  0  0  0  0
 32 31  1  0  0  0  0
 32 23  2  0  0  0  0
 33 30  1  0  0  0  0
 34 33  1  0  0  0  0
 35 34  1  0  0  0  0
 37 36  1  0  0  0  0
 38 37  1  0  0  0  0
 39 40  1  0  0  0  0
 40 38  1  0  0  0  0
 40 41  2  0  0  0  0
 42 44  1  0  0  0  0
 43 42  1  0  0  0  0
 43 39  1  0  0  0  0
 43 44  1  0  0  0  0
 45 43  1  0  0  0  0
M  END
>  <MODEL>
7

>  <REMARK>
 VINA RESULT:      -8.8      2.577      7.530
  Name = 
  8 active torsions:
  status: ('A' for Active; 'I' for Inactive)
    1  A    between atoms: C_2  and  O_5
    2  A    between atoms: O_5  and  C_23
    3  A    between atoms: C_10  and  N_11
    4  A    between atoms: C_12  and  C_27
    5  A    between atoms: C_12  and  C_40
    6  A    between atoms: C_15  and  C_36
    7  A    between atoms: C_23  and  C_36
    8  A    between atoms: C_37  and  N_42
                            x       y       z     vdW  Elec       q    Type
                         _______ _______ _______ _____ _____    ______ ____

>  <TORSDO>
F 8

$$$$
=
 OpenBabel10232408313D

 45 52  0  0  1  0  0  0  0  0999 V2000
  190.8970  177.2270  139.6270 C   0  0  2  0  0  3  0  0  0  0  0  0
  186.0330  177.6410  137.7860 C   0  0  1  0  0  3  0  0  0  0  0  0
  189.3640  177.3590  139.8920 C   0  0  1  0  0  3  0  0  0  0  0  0
  191.2410  176.3820  136.7590 C   0  0  1  0  0  3  0  0  0  0  0  0
  185.9710  177.0090  135.3640 C   0  0  0  0  0  2  0  0  0  0  0  0
  188.4020  177.3980  138.8840 C   0  0  0  0  0  0  0  0  0  0  0  0
  186.2870  178.3750  135.4080 O   0  0  0  0  0  0  0  0  0  0  0  0
  192.8220  175.8540  138.6990 C   0  0  0  0  0  2  0  0  0  0  0  0
  186.3660  178.4430  140.0670 C   0  0  2  0  0  3  0  0  0  0  0  0
  186.7940  177.5500  136.4650 C   0  0  1  0  0  0  0  0  0  0  0  0
  188.9700  177.0100  137.5490 C   0  0  2  0  0  3  0  0  0  0  0  0
  193.7450  175.5480  137.7120 C   0  0  0  0  0  2  0  0  0  0  0  0
  188.9770  176.7870  134.9670 C   0  0  0  0  0  3  0  0  0  0  0  0
  193.8100  175.7590  136.1500 C   0  0  0  0  0  2  0  0  0  0  0  0
  191.2820  176.2420  138.4390 C   0  0  2  0  0  0  0  0  0  0  0  0
  189.0980  176.8610  141.2580 C   0  0  0  0  0  2  0  0  0  0  0  0
  192.6920  175.5890  135.0930 C   0  0  0  0  0  2  0  0  0  0  0  0
  186.8760  177.8060  138.9720 C   0  0  0  0  0  0  0  0  0  0  0  0
  190.5680  177.2640  137.5590 C   0  0  1  0  0  3  0  0  0  0  0  0
  185.4190  179.5370  140.0010 O   0  0  0  0  0  1  0  0  0  0  0  0
  186.9300  178.2630  141.3460 C   0  0  0  0  0  2  0  0  0  0  0  0
  191.4870  176.2470  135.4620 C   0  0  0  0  0  0  0  0  0  0  0  0
  188.0440  177.7260  141.8740 C   0  0  2  0  0  3  0  0  0  0  0  0
  188.2530  177.0630  136.3780 C   0  0  0  0  0  0  0  0  0  0  0  0
  191.7490  177.4170  140.7280 F   0  0  0  0  0  0  0  0  0  0  0  0
  190.3130  176.4830  134.5810 C   0  0  0  0  0  3  0  0  0  0  0  0
  191.6010  176.7810  145.8940 O   0  0  0  0  0  0  0  0  0  0  0  0
  189.2980  176.7220  145.2010 N   0  0  0  0  0  2  0  0  0  0  0  0
  187.2800  178.0840  145.0460 O   0  0  0  0  0  0  0  0  0  0  0  0
  190.4110  177.1610  146.1280 C   0  0  0  0  0  0  0  0  0  0  0  0
  188.2590  177.6480  144.5130 C   0  0  0  0  0  0  0  0  0  0  0  0
  188.4900  178.1220  143.1690 N   0  0  0  0  0  2  0  0  0  0  0  0
  190.1270  177.6350  147.5320 C   0  0  0  0  0  2  0  0  0  0  0  0
  188.7930  177.1220  148.0690 C   0  0  0  0  0  2  0  0  0  0  0  0
  188.0450  178.3540  148.5440 C   0  0  0  0  0  1  0  0  0  0  0  0
  184.8930  178.4930  137.7440 O   0  0  0  0  0  0  0  0  0  0  0  0
  183.8600  177.5540  137.7890 C   0  0  0  0  0  2  0  0  0  0  0  0
  182.6140  178.2180  138.3170 C   0  0  0  0  0  2  0  0  0  0  0  0
  182.0510  179.0970  140.7220 N   0  0  0  0  0  2  0  0  0  0  0  0
  182.4010  178.0050  139.7990 C   0  0  0  0  0  0  0  0  0  0  0  0
  182.7110  176.8950  140.2580 O   0  0  0  0  0  0  0  0  0  0  0  0
  180.7380  178.4810  142.6680 O   0  0  0  0  0  0  0  0  0  0  0  0
  181.9280  178.9660  142.2000 C   0  0  0  0  0  0  0  0  0  0  0  0
  180.9560  179.8050  142.7160 O   0  0  0  0  0  0  0  0  0  0  0  0
  183.1150  178.8400  143.1520 C   0  0  0  0  0  1  0  0  0  0  0  0
  1  3  1  0  0  0  0
  1 25  1  1  0  0  0
  2 36  1  6  0  0  0
  2 18  1  0  0  0  0
  3 16  1  1  0  0  0
  4 22  1  1  0  0  0
  4 19  1  0  0  0  0
  4 15  1  0  0  0  0
  5  7  1  0  0  0  0
  6 18  2  0  0  0  0
  6  3  1  0  0  0  0
  7 10  1  0  0  0  0
  9 20  1  6  0  0  0
  9 21  1  0  0  0  0
 10  5  1  6  0  0  0
 10  2  1  0  0  0  0
 11 24  1  6  0  0  0
 11 19  1  0  0  0  0
 11  6  1  0  0  0  0
 12  8  1  0  0  0  0
 13 24  2  0  0  0  0
 14 12  1  0  0  0  0
 15  8  1  6  0  0  0
 15  1  1  0  0  0  0
 16 23  1  0  0  0  0
 17 22  1  0  0  0  0
 17 14  1  0  0  0  0
 18  9  1  0  0  0  0
 19 15  1  0  0  0  0
 21 23  1  0  0  0  0
 23 32  1  0  0  0  0
 24 10  1  0  0  0  0
 26 13  1  0  0  0  0
 26 22  2  0  0  0  0
 27 30  2  0  0  0  0
 28 30  1  0  0  0  0
 30 33  1  0  0  0  0
 31 29  2  0  0  0  0
 31 28  1  0  0  0  0
 32 31  1  0  0  0  0
 33 34  1  0  0  0  0
 34 35  1  0  0  0  0
 36 37  1  0  0  0  0
 37 38  1  0  0  0  0
 38 40  1  0  0  0  0
 39 43  1  0  0  0  0
 40 41  2  0  0  0  0
 40 39  1  0  0  0  0
 42 44  1  0  0  0  0
 43 42  1  0  0  0  0
 43 44  1  0  0  0  0
 43 45  1  0  0  0  0
M  END
>  <MODEL>
8

>  <REMARK>
 VINA RESULT:      -8.3      2.666      7.199
  Name = 
  8 active torsions:
  status: ('A' for Active; 'I' for Inactive)
    1  A    between atoms: C_2  and  O_5
    2  A    between atoms: O_5  and  C_23
    3  A    between atoms: C_10  and  N_11
    4  A    between atoms: C_12  and  C_27
    5  A    between atoms: C_12  and  C_40
    6  A    between atoms: C_15  and  C_36
    7  A    between atoms: C_23  and  C_36
    8  A    between atoms: C_37  and  N_42
                            x       y       z     vdW  Elec       q    Type
                         _______ _______ _______ _____ _____    ______ ____

>  <TORSDO>
F 8

$$$$
=
 OpenBabel10232408313D

 45 52  0  0  1  0  0  0  0  0999 V2000
  185.9690  178.0130  143.0640 C   0  0  2  0  0  3  0  0  0  0  0  0
  187.6470  178.0240  138.1250 C   0  0  1  0  0  3  0  0  0  0  0  0
  187.1520  178.0260  142.0440 C   0  0  1  0  0  3  0  0  0  0  0  0
  183.4800  178.7870  141.5620 C   0  0  1  0  0  3  0  0  0  0  0  0
  185.7730  178.6290  136.5790 C   0  0  0  0  0  2  0  0  0  0  0  0
  186.9820  178.0630  140.6620 C   0  0  0  0  0  0  0  0  0  0  0  0
  185.7010  177.2400  136.7640 O   0  0  0  0  0  0  0  0  0  0  0  0
  183.9440  179.1920  144.0450 C   0  0  0  0  0  2  0  0  0  0  0  0
  189.2540  177.2240  139.7790 C   0  0  2  0  0  3  0  0  0  0  0  0
  186.1410  178.0290  137.8770 C   0  0  1  0  0  0  0  0  0  0  0  0
  185.5670  178.3800  140.2760 C   0  0  2  0  0  3  0  0  0  0  0  0
  182.5770  179.4000  144.1470 C   0  0  0  0  0  2  0  0  0  0  0  0
  183.5530  178.5690  138.6550 C   0  0  0  0  0  3  0  0  0  0  0  0
  181.3450  179.1640  143.1920 C   0  0  0  0  0  2  0  0  0  0  0  0
  184.7430  178.9440  142.6690 C   0  0  2  0  0  0  0  0  0  0  0  0
  188.3410  178.5630  142.7390 C   0  0  0  0  0  2  0  0  0  0  0  0
  181.2220  179.4230  141.6710 C   0  0  0  0  0  2  0  0  0  0  0  0
  188.0420  177.7980  139.5160 C   0  0  0  0  0  0  0  0  0  0  0  0
  184.5820  177.9810  141.4960 C   0  0  1  0  0  3  0  0  0  0  0  0
  189.8750  176.2200  138.9400 O   0  0  0  0  0  1  0  0  0  0  0  0
  189.8730  177.3670  141.0380 C   0  0  0  0  0  2  0  0  0  0  0  0
  182.3130  178.8830  140.9360 C   0  0  0  0  0  0  0  0  0  0  0  0
  189.5400  177.8060  142.2640 C   0  0  2  0  0  3  0  0  0  0  0  0
  185.1190  178.3790  138.9760 C   0  0  0  0  0  0  0  0  0  0  0  0
  186.2950  177.7600  144.4090 F   0  0  0  0  0  0  0  0  0  0  0  0
  182.3910  178.7450  139.4580 C   0  0  0  0  0  3  0  0  0  0  0  0
  189.2890  176.2160  147.4710 O   0  0  0  0  0  0  0  0  0  0  0  0
  189.9960  177.9220  145.9290 N   0  0  0  0  0  2  0  0  0  0  0  0
  191.8390  178.5830  144.4750 O   0  0  0  0  0  0  0  0  0  0  0  0
  190.2540  176.9170  147.0300 C   0  0  0  0  0  0  0  0  0  0  0  0
  190.7790  178.0400  144.5940 C   0  0  0  0  0  0  0  0  0  0  0  0
  190.2870  177.3870  143.4050 N   0  0  0  0  0  2  0  0  0  0  0  0
  191.4640  177.0200  147.9240 C   0  0  0  0  0  2  0  0  0  0  0  0
  192.3630  175.7880  147.8460 C   0  0  0  0  0  2  0  0  0  0  0  0
  192.3570  175.3730  146.3870 C   0  0  0  0  0  1  0  0  0  0  0  0
  188.3930  177.2790  137.1670 O   0  0  0  0  0  0  0  0  0  0  0  0
  188.9830  178.3110  136.4330 C   0  0  0  0  0  2  0  0  0  0  0  0
  189.6430  177.7300  135.2090 C   0  0  0  0  0  2  0  0  0  0  0  0
  191.4580  176.1150  136.1960 N   0  0  0  0  0  2  0  0  0  0  0  0
  190.2200  176.3500  135.4340 C   0  0  0  0  0  0  0  0  0  0  0  0
  189.7110  175.4170  134.7960 O   0  0  0  0  0  0  0  0  0  0  0  0
  191.5150  173.9130  137.2140 O   0  0  0  0  0  0  0  0  0  0  0  0
  192.1240  174.7950  136.3650 C   0  0  0  0  0  0  0  0  0  0  0  0
  192.5770  174.6050  137.6580 O   0  0  0  0  0  0  0  0  0  0  0  0
  193.0800  174.1800  135.3460 C   0  0  0  0  0  1  0  0  0  0  0  0
  1 25  1  1  0  0  0
  2 36  1  6  0  0  0
  2 18  1  0  0  0  0
  3 16  1  1  0  0  0
  3  1  1  0  0  0  0
  4 22  1  1  0  0  0
  4 15  1  0  0  0  0
  5  7  1  0  0  0  0
  6  3  1  0  0  0  0
  7 10  1  0  0  0  0
  8 12  1  0  0  0  0
  9 20  1  1  0  0  0
  9 21  1  0  0  0  0
 10  5  1  6  0  0  0
 10  2  1  0  0  0  0
 10 24  1  0  0  0  0
 11 24  1  6  0  0  0
 11  6  1  0  0  0  0
 11 19  1  0  0  0  0
 13 24  2  0  0  0  0
 13 26  1  0  0  0  0
 14 12  1  0  0  0  0
 15  1  1  0  0  0  0
 15  8  1  1  0  0  0
 17 14  1  0  0  0  0
 18  9  1  0  0  0  0
 18  6  2  0  0  0  0
 19  4  1  0  0  0  0
 19 15  1  0  0  0  0
 21 23  1  0  0  0  0
 22 17  1  0  0  0  0
 23 16  1  0  0  0  0
 23 32  1  0  0  0  0
 26 22  2  0  0  0  0
 28 30  1  0  0  0  0
 29 31  2  0  0  0  0
 30 27  2  0  0  0  0
 30 33  1  0  0  0  0
 31 28  1  0  0  0  0
 32 31  1  0  0  0  0
 34 33  1  0  0  0  0
 35 34  1  0  0  0  0
 37 36  1  0  0  0  0
 38 40  1  0  0  0  0
 38 37  1  0  0  0  0
 39 43  1  0  0  0  0
 40 39  1  0  0  0  0
 41 40  2  0  0  0  0
 42 44  1  0  0  0  0
 43 42  1  0  0  0  0
 43 44  1  0  0  0  0
 45 43  1  0  0  0  0
M  END
>  <MODEL>
9

>  <REMARK>
 VINA RESULT:      -8.2      2.854      7.410
  Name = 
  8 active torsions:
  status: ('A' for Active; 'I' for Inactive)
    1  A    between atoms: C_2  and  O_5
    2  A    between atoms: O_5  and  C_23
    3  A    between atoms: C_10  and  N_11
    4  A    between atoms: C_12  and  C_27
    5  A    between atoms: C_12  and  C_40
    6  A    between atoms: C_15  and  C_36
    7  A    between atoms: C_23  and  C_36
    8  A    between atoms: C_37  and  N_42
                            x       y       z     vdW  Elec       q    Type
                         _______ _______ _______ _____ _____    ______ ____

>  <TORSDO>
F 8

$$$$
