=
 OpenBabel10232411413D

 52 58  0  0  1  0  0  0  0  0999 V2000
  181.8530  178.3950  139.7080 C   0  0  1  0  0  3  0  0  0  0  0  0
  180.6160  178.6290  136.0820 C   0  0  0  0  0  3  0  0  0  0  0  0
  181.3830  180.3270  138.1510 C   0  0  0  0  0  3  0  0  0  0  0  0
  181.0040  180.8640  136.9190 C   0  0  0  0  0  0  0  0  0  0  0  0
  181.0150  178.0710  137.3080 C   0  0  0  0  0  0  0  0  0  0  0  0
  181.3820  178.9390  138.3690 C   0  0  0  0  0  0  0  0  0  0  0  0
  180.6090  180.0130  135.8890 C   0  0  0  0  0  3  0  0  0  0  0  0
  181.0870  176.5890  137.4380 C   0  0  0  0  0  0  0  0  0  0  0  0
  182.2970  174.4610  137.3270 C   0  0  0  0  0  0  0  0  0  0  0  0
  179.9830  175.8960  137.9620 C   0  0  0  0  0  3  0  0  0  0  0  0
  180.0300  174.5150  138.1690 C   0  0  0  0  0  3  0  0  0  0  0  0
  181.1890  173.8000  137.8630 C   0  0  0  0  0  3  0  0  0  0  0  0
  182.2480  175.8520  137.0870 C   0  0  0  0  0  0  0  0  0  0  0  0
  183.3740  176.4580  136.5190 C   0  0  0  0  0  3  0  0  0  0  0  0
  184.5030  175.6950  136.2100 C   0  0  0  0  0  0  0  0  0  0  0  0
  184.4920  174.3610  136.5030 N   0  0  0  0  0  0  0  0  0  0  0  0
  183.4270  173.7660  137.0400 N   0  0  0  0  0  0  0  0  0  0  0  0
  185.6060  177.5750  135.0670 N   0  0  0  0  0  0  0  0  0  0  0  0
  187.8430  177.4590  134.3770 N   0  0  0  0  0  0  0  0  0  0  0  0
  186.6820  178.1560  134.4850 C   0  0  0  0  0  3  0  0  0  0  0  0
  187.9370  176.2090  134.8340 N   0  0  0  0  0  0  0  0  0  0  0  0
  185.6710  176.2990  135.5380 C   0  0  0  0  0  0  0  0  0  0  0  0
  186.8740  175.5960  135.4190 C   0  0  0  0  0  3  0  0  0  0  0  0
  181.0060  182.3390  136.7140 C   0  0  0  0  0  2  0  0  0  0  0  0
  181.4760  182.9810  137.8610 O   0  0  0  0  0  0  0  0  0  0  0  0
  181.0380  184.5470  136.1280 C   0  0  0  0  0  1  0  0  0  0  0  0
  181.7230  184.2920  137.4540 C   0  0  0  0  0  2  0  0  0  0  0  0
  186.1380  178.5580  140.1940 C   0  0  0  0  0  0  0  0  0  0  0  0
  185.5580  178.6340  138.9230 C   0  0  0  0  0  3  0  0  0  0  0  0
  184.1680  178.5930  138.7820 C   0  0  0  0  0  3  0  0  0  0  0  0
  185.3220  178.4060  141.3200 C   0  0  0  0  0  3  0  0  0  0  0  0
  183.9300  178.3530  141.1790 C   0  0  0  0  0  3  0  0  0  0  0  0
  183.3440  178.4690  139.9060 C   0  0  0  0  0  0  0  0  0  0  0  0
  187.6260  178.5560  140.3560 C   0  0  0  0  0  2  0  0  0  0  0  0
  188.0520  177.4970  141.2680 N   0  0  0  0  0  2  0  0  0  0  0  0
  188.4960  178.1280  142.5100 C   0  0  2  0  0  3  0  0  0  0  0  0
  189.0490  177.5730  144.7320 N   0  0  0  0  0  2  0  0  0  0  0  0
  189.9470  178.2320  142.6180 N   0  0  2  0  0  0  0  0  0  0  0  0
  188.0400  177.3500  143.7130 C   0  0  0  0  0  2  0  0  0  0  0  0
  191.6920  176.7940  142.8520 N   0  0  0  0  0  2  0  0  0  0  0  0
  190.5590  177.0840  142.0700 N   0  0  0  0  0  2  0  0  0  0  0  0
  191.3840  177.2500  144.1920 C   0  0  0  0  0  2  0  0  0  0  0  0
  190.2040  178.1600  144.0490 C   0  0  2  0  0  3  0  0  0  0  0  0
  181.1190  178.9360  140.9030 C   0  0  0  0  0  3  0  0  0  0  0  0
  180.8340  178.1570  141.9460 C   0  0  0  0  0  3  0  0  0  0  0  0
  180.0080  178.8400  143.3780 S   0  0  0  0  0  0  0  0  0  0  0  0
  182.5370  178.6800  144.2550 N   0  0  0  0  0  0  0  0  0  0  0  0
  181.5440  179.4790  144.0330 C   0  0  0  0  0  3  0  0  0  0  0  0
  184.4060  180.1020  144.2740 O   0  0  0  0  0  0  0  0  0  0  0  0
  183.7770  179.1400  144.8030 C   0  0  0  0  0  0  0  0  0  0  0  0
  185.7880  178.8810  146.2010 C   0  0  0  0  0  1  0  0  0  0  0  0
  184.3240  178.4990  146.0310 C   0  0  0  0  0  2  0  0  0  0  0  0
  1 33  1  0  0  0  0
  1 44  1  1  0  0  0
  2  5  1  0  0  0  0
  3  6  1  0  0  0  0
  4  3  2  0  0  0  0
  5  8  1  0  0  0  0
  5  6  2  0  0  0  0
  6  1  1  0  0  0  0
  7  2  2  0  0  0  0
  7  4  1  0  0  0  0
  8 10  1  0  0  0  0
  9 12  2  0  0  0  0
 10 11  2  0  0  0  0
 12 11  1  0  0  0  0
 13  9  1  0  0  0  0
 13  8  2  0  0  0  0
 14 13  1  0  0  0  0
 15 16  1  0  0  0  0
 15 14  2  0  0  0  0
 16 17  2  0  0  0  0
 17  9  1  0  0  0  0
 18 22  1  0  0  0  0
 19 20  1  0  0  0  0
 19 21  2  0  0  0  0
 20 18  2  0  0  0  0
 21 23  1  0  0  0  0
 22 15  1  0  0  0  0
 23 22  2  0  0  0  0
 24  4  1  0  0  0  0
 24 25  1  0  0  0  0
 26 27  1  0  0  0  0
 27 25  1  0  0  0  0
 28 34  1  0  0  0  0
 28 31  1  0  0  0  0
 29 28  2  0  0  0  0
 30 29  1  0  0  0  0
 30 33  2  0  0  0  0
 32 31  2  0  0  0  0
 33 32  1  0  0  0  0
 34 35  1  0  0  0  0
 36 35  1  6  0  0  0
 36 38  1  0  0  0  0
 36 39  1  0  0  0  0
 38 41  1  6  0  0  0
 38 43  1  0  0  0  0
 39 37  1  0  0  0  0
 40 42  1  0  0  0  0
 41 40  1  0  0  0  0
 43 42  1  6  0  0  0
 43 37  1  0  0  0  0
 44 45  2  0  0  0  0
 45 46  1  0  0  0  0
 46 48  1  0  0  0  0
 47 50  1  0  0  0  0
 48 47  2  0  0  0  0
 49 50  2  0  0  0  0
 50 52  1  0  0  0  0
 52 51  1  0  0  0  0
M  END
>  <MODEL>
1

>  <REMARK>
 VINA RESULT:      -6.8      0.000      0.000
  Name = 
  15 active torsions:
  status: ('A' for Active; 'I' for Inactive)
    1  A    between atoms: N_1  and  C_32
    2  A    between atoms: C_2  and  N_43
    3  A    between atoms: C_3  and  C_24
    4  A    between atoms: C_8  and  C_34
    5  A    between atoms: C_10  and  C_19
    6  A    between atoms: C_10  and  O_26
    7  A    between atoms: C_14  and  C_27
    8  A    between atoms: C_14  and  C_31
    9  A    between atoms: C_14  and  C_50
   10  A    between atoms: C_18  and  C_42
   11  A    between atoms: S_25  and  C_37
   12  A    between atoms: S_25  and  C_52
   13  A    between atoms: O_26  and  C_47
   14  A    between atoms: C_32  and  C_36
   15  A    between atoms: C_34  and  N_43
                            x       y       z     vdW  Elec       q    Type
                         _______ _______ _______ _____ _____    ______ ____

>  <TORSDO>
F 15

$$$$
=
 OpenBabel10232411413D

 52 58  0  0  1  0  0  0  0  0999 V2000
  189.4060  177.6280  139.9980 C   0  0  1  0  0  3  0  0  0  0  0  0
  185.8960  178.4920  138.7080 C   0  0  0  0  0  3  0  0  0  0  0  0
  187.2910  178.4380  141.1160 C   0  0  0  0  0  3  0  0  0  0  0  0
  185.9620  178.8630  141.0960 C   0  0  0  0  0  0  0  0  0  0  0  0
  187.2390  178.0830  138.7070 C   0  0  0  0  0  0  0  0  0  0  0  0
  187.9420  178.0330  139.9390 C   0  0  0  0  0  0  0  0  0  0  0  0
  185.2610  178.8780  139.8920 C   0  0  0  0  0  3  0  0  0  0  0  0
  187.8960  177.7630  137.4090 C   0  0  0  0  0  0  0  0  0  0  0  0
  188.0390  176.5240  135.3000 C   0  0  0  0  0  0  0  0  0  0  0  0
  188.9790  178.5490  136.9810 C   0  0  0  0  0  3  0  0  0  0  0  0
  189.5820  178.3340  135.7390 C   0  0  0  0  0  3  0  0  0  0  0  0
  189.1050  177.3300  134.8940 C   0  0  0  0  0  3  0  0  0  0  0  0
  187.4430  176.7160  136.5660 C   0  0  0  0  0  0  0  0  0  0  0  0
  186.4000  175.8590  136.9340 C   0  0  0  0  0  3  0  0  0  0  0  0
  185.9730  174.8540  136.0620 C   0  0  0  0  0  0  0  0  0  0  0  0
  186.5720  174.7510  134.8400 N   0  0  0  0  0  0  0  0  0  0  0  0
  187.5700  175.5540  134.4730 N   0  0  0  0  0  0  0  0  0  0  0  0
  183.6600  174.3170  136.7080 N   0  0  0  0  0  0  0  0  0  0  0  0
  182.9710  172.1140  137.1140 N   0  0  0  0  0  0  0  0  0  0  0  0
  182.6820  173.4390  137.0360 C   0  0  0  0  0  3  0  0  0  0  0  0
  184.2050  171.6660  136.8730 N   0  0  0  0  0  0  0  0  0  0  0  0
  184.9280  173.8890  136.4630 C   0  0  0  0  0  0  0  0  0  0  0  0
  185.2080  172.5220  136.5460 C   0  0  0  0  0  3  0  0  0  0  0  0
  185.2910  179.2810  142.3590 C   0  0  0  0  0  2  0  0  0  0  0  0
  184.5890  178.2060  142.9050 O   0  0  0  0  0  0  0  0  0  0  0  0
  183.6360  178.9100  144.9650 C   0  0  0  0  0  1  0  0  0  0  0  0
  183.4500  178.7810  143.4680 C   0  0  0  0  0  2  0  0  0  0  0  0
  190.9230  176.8700  143.9660 C   0  0  0  0  0  0  0  0  0  0  0  0
  191.2560  178.0460  143.2840 C   0  0  0  0  0  3  0  0  0  0  0  0
  190.7460  178.2830  142.0050 C   0  0  0  0  0  3  0  0  0  0  0  0
  190.1060  175.9180  143.3470 C   0  0  0  0  0  3  0  0  0  0  0  0
  189.6050  176.1500  142.0610 C   0  0  0  0  0  3  0  0  0  0  0  0
  189.9060  177.3490  141.3900 C   0  0  0  0  0  0  0  0  0  0  0  0
  191.4960  176.5820  145.3180 C   0  0  0  0  0  2  0  0  0  0  0  0
  191.1570  177.6390  146.2670 N   0  0  0  0  0  2  0  0  0  0  0  0
  190.1480  177.1110  147.1840 C   0  0  2  0  0  3  0  0  0  0  0  0
  188.5680  177.8500  148.7680 N   0  0  0  0  0  2  0  0  0  0  0  0
  188.8340  176.9550  146.5680 N   0  0  2  0  0  0  0  0  0  0  0  0
  189.9530  178.0180  148.3660 C   0  0  0  0  0  2  0  0  0  0  0  0
  187.2190  178.3320  145.7550 N   0  0  0  0  0  2  0  0  0  0  0  0
  188.5880  178.0190  145.6730 N   0  0  0  0  0  2  0  0  0  0  0  0
  186.8140  178.0200  147.1110 C   0  0  0  0  0  2  0  0  0  0  0  0
  187.9000  177.1520  147.6670 C   0  0  2  0  0  3  0  0  0  0  0  0
  189.7960  176.5280  139.0500 C   0  0  0  0  0  3  0  0  0  0  0  0
  191.0660  176.3490  138.6890 C   0  0  0  0  0  3  0  0  0  0  0  0
  191.5100  175.0000  137.6030 S   0  0  0  0  0  0  0  0  0  0  0  0
  193.6350  175.4850  136.0410 N   0  0  0  0  0  0  0  0  0  0  0  0
  193.0510  175.7880  137.1550 C   0  0  0  0  0  3  0  0  0  0  0  0
  195.0790  177.3150  135.7540 O   0  0  0  0  0  0  0  0  0  0  0  0
  194.8830  176.0700  135.6510 C   0  0  0  0  0  0  0  0  0  0  0  0
  196.3850  174.2030  136.2200 C   0  0  0  0  0  1  0  0  0  0  0  0
  195.9790  175.1990  135.1430 C   0  0  0  0  0  2  0  0  0  0  0  0
  1 44  1  6  0  0  0
  1 33  1  0  0  0  0
  2  7  1  0  0  0  0
  4  3  1  0  0  0  0
  4 24  1  0  0  0  0
  5  2  2  0  0  0  0
  5  6  1  0  0  0  0
  6  1  1  0  0  0  0
  6  3  2  0  0  0  0
  7  4  2  0  0  0  0
  8  5  1  0  0  0  0
  9 13  1  0  0  0  0
 10  8  1  0  0  0  0
 11 10  2  0  0  0  0
 12  9  2  0  0  0  0
 12 11  1  0  0  0  0
 13 14  1  0  0  0  0
 13  8  2  0  0  0  0
 15 22  1  0  0  0  0
 15 14  2  0  0  0  0
 16 15  1  0  0  0  0
 17 16  2  0  0  0  0
 17  9  1  0  0  0  0
 18 20  1  0  0  0  0
 20 19  2  0  0  0  0
 21 19  1  0  0  0  0
 22 23  1  0  0  0  0
 22 18  2  0  0  0  0
 23 21  2  0  0  0  0
 24 25  1  0  0  0  0
 25 27  1  0  0  0  0
 27 26  1  0  0  0  0
 28 34  1  0  0  0  0
 29 28  2  0  0  0  0
 30 29  1  0  0  0  0
 31 28  1  0  0  0  0
 32 31  2  0  0  0  0
 33 30  2  0  0  0  0
 33 32  1  0  0  0  0
 34 35  1  0  0  0  0
 36 35  1  6  0  0  0
 36 39  1  0  0  0  0
 38 41  1  6  0  0  0
 38 36  1  0  0  0  0
 38 43  1  0  0  0  0
 39 37  1  0  0  0  0
 40 42  1  0  0  0  0
 41 40  1  0  0  0  0
 43 42  1  6  0  0  0
 43 37  1  0  0  0  0
 45 44  2  0  0  0  0
 46 45  1  0  0  0  0
 47 48  2  0  0  0  0
 48 46  1  0  0  0  0
 50 49  2  0  0  0  0
 50 47  1  0  0  0  0
 52 50  1  0  0  0  0
 52 51  1  0  0  0  0
M  END
>  <MODEL>
2

>  <REMARK>
 VINA RESULT:      -6.5      4.188      8.155
  Name = 
  15 active torsions:
  status: ('A' for Active; 'I' for Inactive)
    1  A    between atoms: N_1  and  C_32
    2  A    between atoms: C_2  and  N_43
    3  A    between atoms: C_3  and  C_24
    4  A    between atoms: C_8  and  C_34
    5  A    between atoms: C_10  and  C_19
    6  A    between atoms: C_10  and  O_26
    7  A    between atoms: C_14  and  C_27
    8  A    between atoms: C_14  and  C_31
    9  A    between atoms: C_14  and  C_50
   10  A    between atoms: C_18  and  C_42
   11  A    between atoms: S_25  and  C_37
   12  A    between atoms: S_25  and  C_52
   13  A    between atoms: O_26  and  C_47
   14  A    between atoms: C_32  and  C_36
   15  A    between atoms: C_34  and  N_43
                            x       y       z     vdW  Elec       q    Type
                         _______ _______ _______ _____ _____    ______ ____

>  <TORSDO>
F 15

$$$$
=
 OpenBabel10232411413D

 52 58  0  0  1  0  0  0  0  0999 V2000
  183.3280  178.6150  139.1680 C   0  0  1  0  0  3  0  0  0  0  0  0
  184.8100  176.2400  136.5430 C   0  0  0  0  0  3  0  0  0  0  0  0
  185.5660  178.4850  138.0050 C   0  0  0  0  0  3  0  0  0  0  0  0
  186.4750  177.8920  137.1280 C   0  0  0  0  0  0  0  0  0  0  0  0
  183.8900  176.8120  137.4370 C   0  0  0  0  0  0  0  0  0  0  0  0
  184.2680  177.9700  138.1630 C   0  0  0  0  0  0  0  0  0  0  0  0
  186.0920  176.7750  136.3880 C   0  0  0  0  0  3  0  0  0  0  0  0
  182.5670  176.1550  137.6300 C   0  0  0  0  0  0  0  0  0  0  0  0
  181.1190  174.1790  137.7040 C   0  0  0  0  0  0  0  0  0  0  0  0
  181.4840  176.9240  138.0860 C   0  0  0  0  0  3  0  0  0  0  0  0
  180.2430  176.3390  138.3500 C   0  0  0  0  0  3  0  0  0  0  0  0
  180.0640  174.9660  138.1710 C   0  0  0  0  0  3  0  0  0  0  0  0
  182.3690  174.7670  137.4070 C   0  0  0  0  0  0  0  0  0  0  0  0
  183.3810  173.9380  136.9130 C   0  0  0  0  0  3  0  0  0  0  0  0
  183.1460  172.5730  136.7300 C   0  0  0  0  0  0  0  0  0  0  0  0
  181.9240  172.0680  137.0720 N   0  0  0  0  0  0  0  0  0  0  0  0
  180.9470  172.8420  137.5400 N   0  0  0  0  0  0  0  0  0  0  0  0
  183.8750  170.4040  135.8240 N   0  0  0  0  0  0  0  0  0  0  0  0
  186.0290  170.0900  134.9550 N   0  0  0  0  0  0  0  0  0  0  0  0
  184.7940  169.5990  135.2400 C   0  0  0  0  0  3  0  0  0  0  0  0
  186.3480  171.3530  135.2440 N   0  0  0  0  0  0  0  0  0  0  0  0
  184.1740  171.6950  136.1350 C   0  0  0  0  0  0  0  0  0  0  0  0
  185.4490  172.1840  135.8330 C   0  0  0  0  0  3  0  0  0  0  0  0
  187.8440  178.4600  136.9720 C   0  0  0  0  0  2  0  0  0  0  0  0
  188.3870  178.7500  138.2240 O   0  0  0  0  0  0  0  0  0  0  0  0
  189.3520  176.7760  139.1280 C   0  0  0  0  0  1  0  0  0  0  0  0
  189.5670  178.0080  138.2760 C   0  0  0  0  0  2  0  0  0  0  0  0
  184.9760  178.7140  143.1560 C   0  0  0  0  0  0  0  0  0  0  0  0
  185.7760  178.9960  142.0420 C   0  0  0  0  0  3  0  0  0  0  0  0
  185.2250  178.9720  140.7580 C   0  0  0  0  0  3  0  0  0  0  0  0
  183.6310  178.3760  142.9740 C   0  0  0  0  0  3  0  0  0  0  0  0
  183.0810  178.3410  141.6870 C   0  0  0  0  0  3  0  0  0  0  0  0
  183.8740  178.6620  140.5710 C   0  0  0  0  0  0  0  0  0  0  0  0
  185.5620  178.6920  144.5320 C   0  0  0  0  0  2  0  0  0  0  0  0
  186.4540  177.5480  144.7040 N   0  0  0  0  0  2  0  0  0  0  0  0
  187.5840  177.9800  145.5250 C   0  0  2  0  0  3  0  0  0  0  0  0
  189.2540  177.0910  146.9300 N   0  0  0  0  0  2  0  0  0  0  0  0
  188.8390  178.0590  144.7850 N   0  0  2  0  0  0  0  0  0  0  0  0
  187.8280  177.0310  146.6650 C   0  0  0  0  0  2  0  0  0  0  0  0
  190.2630  176.5940  143.7890 N   0  0  0  0  0  2  0  0  0  0  0  0
  188.9190  177.0050  143.8500 N   0  0  0  0  0  2  0  0  0  0  0  0
  190.8190  176.8420  145.1040 C   0  0  0  0  0  2  0  0  0  0  0  0
  189.8590  177.7690  145.7810 C   0  0  2  0  0  3  0  0  0  0  0  0
  182.7810  179.9520  138.7540 C   0  0  0  0  0  3  0  0  0  0  0  0
  181.5260  180.3010  139.0370 C   0  0  0  0  0  3  0  0  0  0  0  0
  180.9180  181.9190  138.5790 S   0  0  0  0  0  0  0  0  0  0  0  0
  180.9680  180.2540  136.4790 N   0  0  0  0  0  0  0  0  0  0  0  0
  180.4700  181.3540  136.9430 C   0  0  0  0  0  3  0  0  0  0  0  0
  180.0110  180.4860  134.3470 O   0  0  0  0  0  0  0  0  0  0  0  0
  180.6610  179.7740  135.1650 C   0  0  0  0  0  0  0  0  0  0  0  0
  179.9820  177.4370  134.7880 C   0  0  0  0  0  1  0  0  0  0  0  0
  181.1370  178.4270  134.7410 C   0  0  0  0  0  2  0  0  0  0  0  0
  1 44  1  6  0  0  0
  1 33  1  0  0  0  0
  2  5  1  0  0  0  0
  3  6  1  0  0  0  0
  4  3  2  0  0  0  0
  5  8  1  0  0  0  0
  5  6  2  0  0  0  0
  6  1  1  0  0  0  0
  7  2  2  0  0  0  0
  7  4  1  0  0  0  0
  8 10  1  0  0  0  0
  9 12  2  0  0  0  0
 10 11  2  0  0  0  0
 12 11  1  0  0  0  0
 13  8  2  0  0  0  0
 13  9  1  0  0  0  0
 14 13  1  0  0  0  0
 15 14  2  0  0  0  0
 15 16  1  0  0  0  0
 16 17  2  0  0  0  0
 17  9  1  0  0  0  0
 18 22  1  0  0  0  0
 19 20  1  0  0  0  0
 19 21  2  0  0  0  0
 20 18  2  0  0  0  0
 21 23  1  0  0  0  0
 22 15  1  0  0  0  0
 23 22  2  0  0  0  0
 24  4  1  0  0  0  0
 24 25  1  0  0  0  0
 25 27  1  0  0  0  0
 27 26  1  0  0  0  0
 28 34  1  0  0  0  0
 29 28  2  0  0  0  0
 30 29  1  0  0  0  0
 31 28  1  0  0  0  0
 32 31  2  0  0  0  0
 33 30  2  0  0  0  0
 33 32  1  0  0  0  0
 34 35  1  0  0  0  0
 36 35  1  6  0  0  0
 36 39  1  0  0  0  0
 38 41  1  6  0  0  0
 38 36  1  0  0  0  0
 38 43  1  0  0  0  0
 39 37  1  0  0  0  0
 40 41  1  0  0  0  0
 40 42  1  0  0  0  0
 43 42  1  6  0  0  0
 43 37  1  0  0  0  0
 44 45  2  0  0  0  0
 46 45  1  0  0  0  0
 47 48  2  0  0  0  0
 48 46  1  0  0  0  0
 49 50  2  0  0  0  0
 50 47  1  0  0  0  0
 52 51  1  0  0  0  0
 52 50  1  0  0  0  0
M  END
>  <MODEL>
3

>  <REMARK>
 VINA RESULT:      -5.8      2.631      5.603
  Name = 
  15 active torsions:
  status: ('A' for Active; 'I' for Inactive)
    1  A    between atoms: N_1  and  C_32
    2  A    between atoms: C_2  and  N_43
    3  A    between atoms: C_3  and  C_24
    4  A    between atoms: C_8  and  C_34
    5  A    between atoms: C_10  and  C_19
    6  A    between atoms: C_10  and  O_26
    7  A    between atoms: C_14  and  C_27
    8  A    between atoms: C_14  and  C_31
    9  A    between atoms: C_14  and  C_50
   10  A    between atoms: C_18  and  C_42
   11  A    between atoms: S_25  and  C_37
   12  A    between atoms: S_25  and  C_52
   13  A    between atoms: O_26  and  C_47
   14  A    between atoms: C_32  and  C_36
   15  A    between atoms: C_34  and  N_43
                            x       y       z     vdW  Elec       q    Type
                         _______ _______ _______ _____ _____    ______ ____

>  <TORSDO>
F 15

$$$$
=
 OpenBabel10232411413D

 52 58  0  0  1  0  0  0  0  0999 V2000
  189.3970  175.1950  136.6620 C   0  0  1  0  0  3  0  0  0  0  0  0
  188.0700  177.9860  138.9370 C   0  0  0  0  0  3  0  0  0  0  0  0
  190.3080  176.3440  138.7170 C   0  0  0  0  0  3  0  0  0  0  0  0
  190.2420  177.2910  139.7410 C   0  0  0  0  0  0  0  0  0  0  0  0
  188.1300  177.0540  137.8880 C   0  0  0  0  0  0  0  0  0  0  0  0
  189.2600  176.2010  137.7920 C   0  0  0  0  0  0  0  0  0  0  0  0
  189.1160  178.1040  139.8570 C   0  0  0  0  0  3  0  0  0  0  0  0
  187.0300  177.0250  136.8840 C   0  0  0  0  0  0  0  0  0  0  0  0
  184.7090  177.4120  136.2010 C   0  0  0  0  0  0  0  0  0  0  0  0
  187.3320  176.6960  135.5520 C   0  0  0  0  0  3  0  0  0  0  0  0
  186.3480  176.7250  134.5600 C   0  0  0  0  0  3  0  0  0  0  0  0
  185.0410  177.0940  134.8820 C   0  0  0  0  0  3  0  0  0  0  0  0
  185.6910  177.3570  137.2150 C   0  0  0  0  0  0  0  0  0  0  0  0
  185.2970  177.6550  138.5240 C   0  0  0  0  0  3  0  0  0  0  0  0
  183.9710  177.9970  138.7990 C   0  0  0  0  0  0  0  0  0  0  0  0
  183.0840  178.0650  137.7630 N   0  0  0  0  0  0  0  0  0  0  0  0
  183.4390  177.7810  136.5100 N   0  0  0  0  0  0  0  0  0  0  0  0
  184.4230  178.3440  141.1930 N   0  0  0  0  0  0  0  0  0  0  0  0
  182.7020  178.7690  142.7260 N   0  0  0  0  0  0  0  0  0  0  0  0
  184.0240  178.6040  142.4610 C   0  0  0  0  0  3  0  0  0  0  0  0
  181.7910  178.6760  141.7550 N   0  0  0  0  0  0  0  0  0  0  0  0
  183.5160  178.2370  140.1840 C   0  0  0  0  0  0  0  0  0  0  0  0
  182.1590  178.4110  140.4740 C   0  0  0  0  0  3  0  0  0  0  0  0
  191.3620  177.4190  140.7150 C   0  0  0  0  0  2  0  0  0  0  0  0
  190.9650  176.9450  141.9650 O   0  0  0  0  0  0  0  0  0  0  0  0
  191.4950  177.2540  144.2600 C   0  0  0  0  0  1  0  0  0  0  0  0
  191.4950  177.8600  142.8740 C   0  0  0  0  0  2  0  0  0  0  0  0
  193.4700  174.6470  135.3470 C   0  0  0  0  0  0  0  0  0  0  0  0
  192.8810  173.7510  136.2460 C   0  0  0  0  0  3  0  0  0  0  0  0
  191.5560  173.9350  136.6530 C   0  0  0  0  0  3  0  0  0  0  0  0
  192.7390  175.7450  134.8830 C   0  0  0  0  0  3  0  0  0  0  0  0
  191.4160  175.9360  135.2990 C   0  0  0  0  0  3  0  0  0  0  0  0
  190.8090  175.0150  136.1720 C   0  0  0  0  0  0  0  0  0  0  0  0
  194.9010  174.4880  134.9370 C   0  0  0  0  0  2  0  0  0  0  0  0
  195.5000  173.3140  135.5680 N   0  0  0  0  0  2  0  0  0  0  0  0
  196.8160  173.7010  136.0730 C   0  0  2  0  0  3  0  0  0  0  0  0
  197.9210  175.5430  137.0420 N   0  0  0  0  0  2  0  0  0  0  0  0
  197.0110  173.3780  137.4830 N   0  0  2  0  0  0  0  0  0  0  0  0
  197.0380  175.1830  135.9480 C   0  0  0  0  0  2  0  0  0  0  0  0
  196.1620  174.0800  139.4710 N   0  0  0  0  0  2  0  0  0  0  0  0
  195.8140  173.5860  138.2000 N   0  0  0  0  0  2  0  0  0  0  0  0
  197.3920  174.8250  139.2900 C   0  0  0  0  0  2  0  0  0  0  0  0
  197.9300  174.4010  137.9590 C   0  0  2  0  0  3  0  0  0  0  0  0
  188.7370  173.8680  136.9140 C   0  0  0  0  0  3  0  0  0  0  0  0
  188.0110  173.2690  135.9700 C   0  0  0  0  0  3  0  0  0  0  0  0
  187.2820  171.6660  136.2780 S   0  0  0  0  0  0  0  0  0  0  0  0
  185.3550  173.3740  137.0240 N   0  0  0  0  0  0  0  0  0  0  0  0
  185.6310  172.3510  136.2820 C   0  0  0  0  0  3  0  0  0  0  0  0
  183.6460  174.5650  138.1090 O   0  0  0  0  0  0  0  0  0  0  0  0
  184.0420  173.9430  137.0820 C   0  0  0  0  0  0  0  0  0  0  0  0
  181.8720  174.6390  136.1490 C   0  0  0  0  0  1  0  0  0  0  0  0
  183.1350  173.8250  135.9060 C   0  0  0  0  0  2  0  0  0  0  0  0
  1 44  1  1  0  0  0
  1  6  1  0  0  0  0
  2  7  1  0  0  0  0
  3  4  1  0  0  0  0
  4  7  2  0  0  0  0
  4 24  1  0  0  0  0
  5  2  2  0  0  0  0
  6  5  1  0  0  0  0
  6  3  2  0  0  0  0
  8 13  1  0  0  0  0
  8  5  1  0  0  0  0
  9 17  2  0  0  0  0
  9 13  1  0  0  0  0
 10  8  2  0  0  0  0
 11 12  2  0  0  0  0
 11 10  1  0  0  0  0
 12  9  1  0  0  0  0
 13 14  2  0  0  0  0
 14 15  1  0  0  0  0
 15 22  1  0  0  0  0
 16 15  2  0  0  0  0
 17 16  1  0  0  0  0
 18 20  1  0  0  0  0
 20 19  2  0  0  0  0
 21 19  1  0  0  0  0
 22 23  1  0  0  0  0
 22 18  2  0  0  0  0
 23 21  2  0  0  0  0
 24 25  1  0  0  0  0
 25 27  1  0  0  0  0
 27 26  1  0  0  0  0
 28 29  1  0  0  0  0
 29 30  2  0  0  0  0
 31 32  1  0  0  0  0
 31 28  2  0  0  0  0
 32 33  2  0  0  0  0
 33 30  1  0  0  0  0
 33  1  1  0  0  0  0
 34 28  1  0  0  0  0
 34 35  1  0  0  0  0
 36 35  1  1  0  0  0
 36 38  1  0  0  0  0
 37 43  1  0  0  0  0
 38 43  1  0  0  0  0
 38 41  1  1  0  0  0
 39 36  1  0  0  0  0
 39 37  1  0  0  0  0
 41 40  1  0  0  0  0
 42 40  1  0  0  0  0
 43 42  1  1  0  0  0
 45 46  1  0  0  0  0
 45 44  2  0  0  0  0
 46 48  1  0  0  0  0
 47 50  1  0  0  0  0
 48 47  2  0  0  0  0
 50 49  2  0  0  0  0
 52 51  1  0  0  0  0
 52 50  1  0  0  0  0
M  END
>  <MODEL>
4

>  <REMARK>
 VINA RESULT:      -5.8      5.117      9.231
  Name = 
  15 active torsions:
  status: ('A' for Active; 'I' for Inactive)
    1  A    between atoms: N_1  and  C_32
    2  A    between atoms: C_2  and  N_43
    3  A    between atoms: C_3  and  C_24
    4  A    between atoms: C_8  and  C_34
    5  A    between atoms: C_10  and  C_19
    6  A    between atoms: C_10  and  O_26
    7  A    between atoms: C_14  and  C_27
    8  A    between atoms: C_14  and  C_31
    9  A    between atoms: C_14  and  C_50
   10  A    between atoms: C_18  and  C_42
   11  A    between atoms: S_25  and  C_37
   12  A    between atoms: S_25  and  C_52
   13  A    between atoms: O_26  and  C_47
   14  A    between atoms: C_32  and  C_36
   15  A    between atoms: C_34  and  N_43
                            x       y       z     vdW  Elec       q    Type
                         _______ _______ _______ _____ _____    ______ ____

>  <TORSDO>
F 15

$$$$
=
 OpenBabel10232411413D

 52 58  0  0  1  0  0  0  0  0999 V2000
  182.1850  178.4890  139.8390 C   0  0  1  0  0  3  0  0  0  0  0  0
  180.5120  178.7700  136.3960 C   0  0  0  0  0  3  0  0  0  0  0  0
  181.5860  180.4380  138.3500 C   0  0  0  0  0  3  0  0  0  0  0  0
  181.0740  180.9890  137.1750 C   0  0  0  0  0  0  0  0  0  0  0  0
  181.0430  178.1970  137.5640 C   0  0  0  0  0  0  0  0  0  0  0  0
  181.5680  179.0500  138.5690 C   0  0  0  0  0  0  0  0  0  0  0  0
  180.5260  180.1540  136.2030 C   0  0  0  0  0  3  0  0  0  0  0  0
  181.0840  176.7130  137.6860 C   0  0  0  0  0  0  0  0  0  0  0  0
  182.2360  174.5570  137.5230 C   0  0  0  0  0  0  0  0  0  0  0  0
  179.9830  176.0450  138.2480 C   0  0  0  0  0  3  0  0  0  0  0  0
  180.0040  174.6630  138.4490 C   0  0  0  0  0  3  0  0  0  0  0  0
  181.1330  173.9210  138.0980 C   0  0  0  0  0  3  0  0  0  0  0  0
  182.2130  175.9500  137.2900 C   0  0  0  0  0  0  0  0  0  0  0  0
  183.3310  176.5300  136.6830 C   0  0  0  0  0  3  0  0  0  0  0  0
  184.4290  175.7410  136.3290 C   0  0  0  0  0  0  0  0  0  0  0  0
  184.3950  174.4060  136.6180 N   0  0  0  0  0  0  0  0  0  0  0  0
  183.3370  173.8350  137.1920 N   0  0  0  0  0  0  0  0  0  0  0  0
  185.5530  177.6130  135.1940 N   0  0  0  0  0  0  0  0  0  0  0  0
  187.7430  177.4260  134.3800 N   0  0  0  0  0  0  0  0  0  0  0  0
  186.6220  178.1690  134.5750 C   0  0  0  0  0  3  0  0  0  0  0  0
  187.8050  176.1580  134.7880 N   0  0  0  0  0  0  0  0  0  0  0  0
  185.5860  176.3190  135.6160 C   0  0  0  0  0  0  0  0  0  0  0  0
  186.7480  175.5700  135.4080 C   0  0  0  0  0  3  0  0  0  0  0  0
  181.0970  182.4650  136.9680 C   0  0  0  0  0  2  0  0  0  0  0  0
  180.7460  182.7690  135.6520 O   0  0  0  0  0  0  0  0  0  0  0  0
  181.3740  184.7160  136.8590 C   0  0  0  0  0  1  0  0  0  0  0  0
  180.7370  184.1620  135.6030 C   0  0  0  0  0  2  0  0  0  0  0  0
  186.4980  178.6560  139.8270 C   0  0  0  0  0  0  0  0  0  0  0  0
  185.7600  179.0980  138.7220 C   0  0  0  0  0  3  0  0  0  0  0  0
  184.3630  179.0500  138.7470 C   0  0  0  0  0  3  0  0  0  0  0  0
  185.8320  178.1340  140.9400 C   0  0  0  0  0  3  0  0  0  0  0  0
  184.4330  178.0740  140.9600 C   0  0  0  0  0  3  0  0  0  0  0  0
  183.6890  178.5550  139.8680 C   0  0  0  0  0  0  0  0  0  0  0  0
  187.9930  178.6610  139.7980 C   0  0  0  0  0  2  0  0  0  0  0  0
  188.5200  177.3060  139.6510 N   0  0  0  0  0  2  0  0  0  0  0  0
  189.8430  177.4030  139.0380 C   0  0  2  0  0  3  0  0  0  0  0  0
  192.0000  176.4710  139.2140 N   0  0  0  0  0  2  0  0  0  0  0  0
  190.0120  176.5210  137.8880 N   0  0  2  0  0  0  0  0  0  0  0  0
  190.9270  177.0350  140.0120 C   0  0  0  0  0  2  0  0  0  0  0  0
  190.1300  174.2800  137.5290 N   0  0  0  0  0  2  0  0  0  0  0  0
  189.3510  175.2950  138.1140 N   0  0  0  0  0  2  0  0  0  0  0  0
  191.5050  174.7320  137.6070 C   0  0  0  0  0  2  0  0  0  0  0  0
  191.4320  176.2000  137.8910 C   0  0  2  0  0  3  0  0  0  0  0  0
  181.5940  179.0180  141.1160 C   0  0  0  0  0  3  0  0  0  0  0  0
  180.7700  178.2740  141.8530 C   0  0  0  0  0  3  0  0  0  0  0  0
  180.1250  178.9090  143.3960 S   0  0  0  0  0  0  0  0  0  0  0  0
  182.7080  178.5160  143.9960 N   0  0  0  0  0  0  0  0  0  0  0  0
  181.7560  179.3890  143.9490 C   0  0  0  0  0  3  0  0  0  0  0  0
  184.9380  179.1610  143.6430 O   0  0  0  0  0  0  0  0  0  0  0  0
  184.0230  178.8460  144.4570 C   0  0  0  0  0  0  0  0  0  0  0  0
  185.7760  178.4860  146.1490 C   0  0  0  0  0  1  0  0  0  0  0  0
  184.3150  178.8460  145.9170 C   0  0  0  0  0  2  0  0  0  0  0  0
  1 33  1  0  0  0  0
  1 44  1  1  0  0  0
  2  5  1  0  0  0  0
  3  6  1  0  0  0  0
  4  3  2  0  0  0  0
  5  8  1  0  0  0  0
  5  6  2  0  0  0  0
  6  1  1  0  0  0  0
  7  2  2  0  0  0  0
  7  4  1  0  0  0  0
  8 10  1  0  0  0  0
  9 12  2  0  0  0  0
 10 11  2  0  0  0  0
 12 11  1  0  0  0  0
 13  9  1  0  0  0  0
 13  8  2  0  0  0  0
 14 13  1  0  0  0  0
 15 16  1  0  0  0  0
 15 14  2  0  0  0  0
 16 17  2  0  0  0  0
 17  9  1  0  0  0  0
 18 22  1  0  0  0  0
 19 20  1  0  0  0  0
 19 21  2  0  0  0  0
 20 18  2  0  0  0  0
 21 23  1  0  0  0  0
 22 15  1  0  0  0  0
 23 22  2  0  0  0  0
 24  4  1  0  0  0  0
 25 24  1  0  0  0  0
 27 25  1  0  0  0  0
 27 26  1  0  0  0  0
 28 31  1  0  0  0  0
 29 30  1  0  0  0  0
 29 28  2  0  0  0  0
 30 33  2  0  0  0  0
 31 32  2  0  0  0  0
 33 32  1  0  0  0  0
 34 28  1  0  0  0  0
 35 34  1  0  0  0  0
 36 35  1  1  0  0  0
 36 39  1  0  0  0  0
 37 39  1  0  0  0  0
 38 43  1  0  0  0  0
 38 41  1  1  0  0  0
 38 36  1  0  0  0  0
 40 42  1  0  0  0  0
 40 41  1  0  0  0  0
 43 42  1  1  0  0  0
 43 37  1  0  0  0  0
 44 45  2  0  0  0  0
 45 46  1  0  0  0  0
 46 48  1  0  0  0  0
 47 50  1  0  0  0  0
 48 47  2  0  0  0  0
 49 50  2  0  0  0  0
 50 52  1  0  0  0  0
 52 51  1  0  0  0  0
M  END
>  <MODEL>
5

>  <REMARK>
 VINA RESULT:      -5.4      1.664      2.289
  Name = 
  15 active torsions:
  status: ('A' for Active; 'I' for Inactive)
    1  A    between atoms: N_1  and  C_32
    2  A    between atoms: C_2  and  N_43
    3  A    between atoms: C_3  and  C_24
    4  A    between atoms: C_8  and  C_34
    5  A    between atoms: C_10  and  C_19
    6  A    between atoms: C_10  and  O_26
    7  A    between atoms: C_14  and  C_27
    8  A    between atoms: C_14  and  C_31
    9  A    between atoms: C_14  and  C_50
   10  A    between atoms: C_18  and  C_42
   11  A    between atoms: S_25  and  C_37
   12  A    between atoms: S_25  and  C_52
   13  A    between atoms: O_26  and  C_47
   14  A    between atoms: C_32  and  C_36
   15  A    between atoms: C_34  and  N_43
                            x       y       z     vdW  Elec       q    Type
                         _______ _______ _______ _____ _____    ______ ____

>  <TORSDO>
F 15

$$$$
=
 OpenBabel10232411413D

 52 58  0  0  1  0  0  0  0  0999 V2000
  184.5100  179.1070  139.6130 C   0  0  1  0  0  3  0  0  0  0  0  0
  186.1290  178.2270  142.9800 C   0  0  0  0  0  3  0  0  0  0  0  0
  183.6360  178.9550  141.9770 C   0  0  0  0  0  3  0  0  0  0  0  0
  183.7840  178.6910  143.3390 C   0  0  0  0  0  0  0  0  0  0  0  0
  185.9930  178.4680  141.6020 C   0  0  0  0  0  0  0  0  0  0  0  0
  184.7270  178.8630  141.0970 C   0  0  0  0  0  0  0  0  0  0  0  0
  185.0350  178.3390  143.8420 C   0  0  0  0  0  3  0  0  0  0  0  0
  187.1680  178.2530  140.7120 C   0  0  0  0  0  0  0  0  0  0  0  0
  189.4680  177.5160  140.3000 C   0  0  0  0  0  0  0  0  0  0  0  0
  187.0250  178.4680  139.3310 C   0  0  0  0  0  3  0  0  0  0  0  0
  188.0770  178.2110  138.4480 C   0  0  0  0  0  3  0  0  0  0  0  0
  189.2930  177.7250  138.9300 C   0  0  0  0  0  3  0  0  0  0  0  0
  188.4200  177.8010  141.2030 C   0  0  0  0  0  0  0  0  0  0  0  0
  188.6610  177.6040  142.5670 C   0  0  0  0  0  3  0  0  0  0  0  0
  189.9030  177.1360  143.0030 C   0  0  0  0  0  0  0  0  0  0  0  0
  190.8570  176.8480  142.0690 N   0  0  0  0  0  0  0  0  0  0  0  0
  190.6480  177.0330  140.7660 N   0  0  0  0  0  0  0  0  0  0  0  0
  191.4420  176.6030  144.8470 N   0  0  0  0  0  0  0  0  0  0  0  0
  190.8030  176.8230  147.0910 N   0  0  0  0  0  0  0  0  0  0  0  0
  191.7460  176.5110  146.1640 C   0  0  0  0  0  3  0  0  0  0  0  0
  189.5830  177.2180  146.7230 N   0  0  0  0  0  0  0  0  0  0  0  0
  190.2040  176.9970  144.4420 C   0  0  0  0  0  0  0  0  0  0  0  0
  189.2470  177.3160  145.4100 C   0  0  0  0  0  3  0  0  0  0  0  0
  182.6140  178.8040  144.2550 C   0  0  0  0  0  2  0  0  0  0  0  0
  181.5210  178.1190  143.7200 O   0  0  0  0  0  0  0  0  0  0  0  0
  180.1650  179.1280  142.0510 C   0  0  0  0  0  1  0  0  0  0  0  0
  180.5570  179.1040  143.5130 C   0  0  0  0  0  2  0  0  0  0  0  0
  182.9020  175.6550  137.5810 C   0  0  0  0  0  0  0  0  0  0  0  0
  182.6470  175.8700  138.9400 C   0  0  0  0  0  3  0  0  0  0  0  0
  183.1640  177.0000  139.5810 C   0  0  0  0  0  3  0  0  0  0  0  0
  183.7050  176.5580  136.8760 C   0  0  0  0  0  3  0  0  0  0  0  0
  184.2330  177.6830  137.5210 C   0  0  0  0  0  3  0  0  0  0  0  0
  183.9450  177.9210  138.8760 C   0  0  0  0  0  0  0  0  0  0  0  0
  182.3930  174.4290  136.8920 C   0  0  0  0  0  2  0  0  0  0  0  0
  182.9640  174.3030  135.5540 N   0  0  0  0  0  2  0  0  0  0  0  0
  183.9110  173.1900  135.5740 C   0  0  2  0  0  3  0  0  0  0  0  0
  184.4560  171.2920  136.8600 N   0  0  0  0  0  2  0  0  0  0  0  0
  183.4510  172.0270  134.8210 N   0  0  2  0  0  0  0  0  0  0  0  0
  184.1620  172.7090  136.9760 C   0  0  0  0  0  2  0  0  0  0  0  0
  181.7950  170.4820  135.0180 N   0  0  0  0  0  2  0  0  0  0  0  0
  182.0580  171.8640  134.9820 N   0  0  0  0  0  2  0  0  0  0  0  0
  182.9730  169.8640  135.5930 C   0  0  0  0  0  2  0  0  0  0  0  0
  184.0540  170.8960  135.5090 C   0  0  2  0  0  3  0  0  0  0  0  0
  183.7520  180.3620  139.2830 C   0  0  0  0  0  3  0  0  0  0  0  0
  182.6460  180.3240  138.5410 C   0  0  0  0  0  3  0  0  0  0  0  0
  181.7340  181.8260  138.2100 S   0  0  0  0  0  0  0  0  0  0  0  0
  181.1750  179.8750  136.4580 N   0  0  0  0  0  0  0  0  0  0  0  0
  180.8460  181.0600  136.8600 C   0  0  0  0  0  3  0  0  0  0  0  0
  180.0810  179.8970  134.3800 O   0  0  0  0  0  0  0  0  0  0  0  0
  180.5120  179.2300  135.3650 C   0  0  0  0  0  0  0  0  0  0  0  0
  179.9820  177.2770  136.7680 C   0  0  0  0  0  1  0  0  0  0  0  0
  180.3500  177.7490  135.3690 C   0  0  0  0  0  2  0  0  0  0  0  0
  1 44  1  1  0  0  0
  1  6  1  0  0  0  0
  2  7  1  0  0  0  0
  3  4  1  0  0  0  0
  4  7  2  0  0  0  0
  4 24  1  0  0  0  0
  5  2  2  0  0  0  0
  6  5  1  0  0  0  0
  6  3  2  0  0  0  0
  8 13  1  0  0  0  0
  8  5  1  0  0  0  0
  9 17  2  0  0  0  0
  9 13  1  0  0  0  0
 10  8  2  0  0  0  0
 11 12  2  0  0  0  0
 11 10  1  0  0  0  0
 12  9  1  0  0  0  0
 13 14  2  0  0  0  0
 14 15  1  0  0  0  0
 15 22  1  0  0  0  0
 16 15  2  0  0  0  0
 17 16  1  0  0  0  0
 18 20  1  0  0  0  0
 20 19  2  0  0  0  0
 21 19  1  0  0  0  0
 22 18  2  0  0  0  0
 22 23  1  0  0  0  0
 23 21  2  0  0  0  0
 25 24  1  0  0  0  0
 26 27  1  0  0  0  0
 27 25  1  0  0  0  0
 28 29  1  0  0  0  0
 29 30  2  0  0  0  0
 31 32  1  0  0  0  0
 31 28  2  0  0  0  0
 32 33  2  0  0  0  0
 33 30  1  0  0  0  0
 33  1  1  0  0  0  0
 34 28  1  0  0  0  0
 35 34  1  0  0  0  0
 36 35  1  1  0  0  0
 36 39  1  0  0  0  0
 37 39  1  0  0  0  0
 38 41  1  1  0  0  0
 38 43  1  0  0  0  0
 38 36  1  0  0  0  0
 40 42  1  0  0  0  0
 41 40  1  0  0  0  0
 43 42  1  1  0  0  0
 43 37  1  0  0  0  0
 45 44  2  0  0  0  0
 46 45  1  0  0  0  0
 47 48  2  0  0  0  0
 48 46  1  0  0  0  0
 49 50  2  0  0  0  0
 50 52  1  0  0  0  0
 50 47  1  0  0  0  0
 52 51  1  0  0  0  0
M  END
>  <MODEL>
6

>  <REMARK>
 VINA RESULT:      -5.4      2.628      8.888
  Name = 
  15 active torsions:
  status: ('A' for Active; 'I' for Inactive)
    1  A    between atoms: N_1  and  C_32
    2  A    between atoms: C_2  and  N_43
    3  A    between atoms: C_3  and  C_24
    4  A    between atoms: C_8  and  C_34
    5  A    between atoms: C_10  and  C_19
    6  A    between atoms: C_10  and  O_26
    7  A    between atoms: C_14  and  C_27
    8  A    between atoms: C_14  and  C_31
    9  A    between atoms: C_14  and  C_50
   10  A    between atoms: C_18  and  C_42
   11  A    between atoms: S_25  and  C_37
   12  A    between atoms: S_25  and  C_52
   13  A    between atoms: O_26  and  C_47
   14  A    between atoms: C_32  and  C_36
   15  A    between atoms: C_34  and  N_43
                            x       y       z     vdW  Elec       q    Type
                         _______ _______ _______ _____ _____    ______ ____

>  <TORSDO>
F 15

$$$$
=
 OpenBabel10232411413D

 52 58  0  0  1  0  0  0  0  0999 V2000
  188.1910  177.6910  139.1160 C   0  0  1  0  0  3  0  0  0  0  0  0
  184.4890  178.7020  139.0210 C   0  0  0  0  0  3  0  0  0  0  0  0
  186.5700  178.5270  140.8620 C   0  0  0  0  0  3  0  0  0  0  0  0
  185.3200  178.9930  141.2730 C   0  0  0  0  0  0  0  0  0  0  0  0
  185.7470  178.2520  138.5860 C   0  0  0  0  0  0  0  0  0  0  0  0
  186.8000  178.1410  139.5320 C   0  0  0  0  0  0  0  0  0  0  0  0
  184.2760  179.0680  140.3530 C   0  0  0  0  0  3  0  0  0  0  0  0
  185.9480  177.9560  137.1410 C   0  0  0  0  0  0  0  0  0  0  0  0
  185.3050  176.8660  135.0430 C   0  0  0  0  0  0  0  0  0  0  0  0
  186.9530  178.6410  136.4380 C   0  0  0  0  0  3  0  0  0  0  0  0
  187.1330  178.4490  135.0650 C   0  0  0  0  0  3  0  0  0  0  0  0
  186.3020  177.5720  134.3660 C   0  0  0  0  0  3  0  0  0  0  0  0
  185.1350  177.0320  136.4350 C   0  0  0  0  0  0  0  0  0  0  0  0
  184.1410  176.2770  137.0660 C   0  0  0  0  0  3  0  0  0  0  0  0
  183.3500  175.3950  136.3270 C   0  0  0  0  0  0  0  0  0  0  0  0
  183.5470  175.3130  134.9780 N   0  0  0  0  0  0  0  0  0  0  0  0
  184.4910  176.0210  134.3590 N   0  0  0  0  0  0  0  0  0  0  0  0
  181.3170  175.0830  137.6790 N   0  0  0  0  0  0  0  0  0  0  0  0
  180.4490  172.9530  138.1300 N   0  0  0  0  0  0  0  0  0  0  0  0
  180.3700  174.3040  138.2540 C   0  0  0  0  0  3  0  0  0  0  0  0
  181.4470  172.3840  137.4520 N   0  0  0  0  0  0  0  0  0  0  0  0
  182.3500  174.5300  136.9860 C   0  0  0  0  0  0  0  0  0  0  0  0
  182.4150  173.1380  136.8670 C   0  0  0  0  0  3  0  0  0  0  0  0
  185.0970  179.3900  142.6910 C   0  0  0  0  0  2  0  0  0  0  0  0
  184.0470  178.6490  143.2360 O   0  0  0  0  0  0  0  0  0  0  0  0
  185.0830  178.9830  145.3480 C   0  0  0  0  0  1  0  0  0  0  0  0
  183.8470  179.2010  144.5010 C   0  0  0  0  0  2  0  0  0  0  0  0
  190.9550  177.5620  142.4270 C   0  0  0  0  0  0  0  0  0  0  0  0
  189.5730  177.5600  142.6470 C   0  0  0  0  0  3  0  0  0  0  0  0
  188.6900  177.5890  141.5640 C   0  0  0  0  0  3  0  0  0  0  0  0
  191.4490  177.6280  141.1200 C   0  0  0  0  0  3  0  0  0  0  0  0
  190.5640  177.6690  140.0350 C   0  0  0  0  0  3  0  0  0  0  0  0
  189.1760  177.6270  140.2530 C   0  0  0  0  0  0  0  0  0  0  0  0
  191.9120  177.5760  143.5770 C   0  0  0  0  0  2  0  0  0  0  0  0
  191.2670  178.0750  144.7900 N   0  0  0  0  0  2  0  0  0  0  0  0
  190.8580  176.9200  145.5870 C   0  0  2  0  0  3  0  0  0  0  0  0
  190.6790  176.2370  147.8350 N   0  0  0  0  0  2  0  0  0  0  0  0
  189.4360  176.9170  145.9110 N   0  0  2  0  0  0  0  0  0  0  0  0
  191.5880  176.8750  146.9010 C   0  0  0  0  0  2  0  0  0  0  0  0
  188.0320  178.1630  147.1930 N   0  0  0  0  0  2  0  0  0  0  0  0
  188.9930  178.2320  146.1680 N   0  0  0  0  0  2  0  0  0  0  0  0
  188.4000  177.0280  148.0140 C   0  0  0  0  0  2  0  0  0  0  0  0
  189.3630  176.2290  147.1920 C   0  0  2  0  0  3  0  0  0  0  0  0
  188.2280  176.4330  138.2930 C   0  0  0  0  0  3  0  0  0  0  0  0
  189.3280  176.0780  137.6290 C   0  0  0  0  0  3  0  0  0  0  0  0
  189.3620  174.5490  136.7020 S   0  0  0  0  0  0  0  0  0  0  0  0
  191.9240  175.1740  137.1860 N   0  0  0  0  0  0  0  0  0  0  0  0
  191.0500  174.2210  137.1930 C   0  0  0  0  0  3  0  0  0  0  0  0
  193.9780  175.8680  138.0890 O   0  0  0  0  0  0  0  0  0  0  0  0
  193.2930  174.9550  137.5450 C   0  0  0  0  0  0  0  0  0  0  0  0
  195.4280  173.7320  137.4410 C   0  0  0  0  0  1  0  0  0  0  0  0
  193.9170  173.6240  137.3010 C   0  0  0  0  0  2  0  0  0  0  0  0
  1 44  1  1  0  0  0
  1  6  1  0  0  0  0
  1 33  1  0  0  0  0
  2  7  1  0  0  0  0
  3  4  1  0  0  0  0
  4 24  1  0  0  0  0
  5  2  2  0  0  0  0
  5  6  1  0  0  0  0
  6  3  2  0  0  0  0
  7  4  2  0  0  0  0
  8  5  1  0  0  0  0
  9 13  1  0  0  0  0
 10  8  1  0  0  0  0
 11 10  2  0  0  0  0
 12  9  2  0  0  0  0
 12 11  1  0  0  0  0
 13 14  1  0  0  0  0
 13  8  2  0  0  0  0
 15 22  1  0  0  0  0
 15 14  2  0  0  0  0
 16 15  1  0  0  0  0
 17 16  2  0  0  0  0
 17  9  1  0  0  0  0
 18 20  1  0  0  0  0
 19 20  2  0  0  0  0
 21 19  1  0  0  0  0
 22 18  2  0  0  0  0
 23 22  1  0  0  0  0
 23 21  2  0  0  0  0
 24 25  1  0  0  0  0
 25 27  1  0  0  0  0
 27 26  1  0  0  0  0
 28 29  1  0  0  0  0
 28 34  1  0  0  0  0
 30 29  2  0  0  0  0
 31 28  2  0  0  0  0
 32 33  2  0  0  0  0
 32 31  1  0  0  0  0
 33 30  1  0  0  0  0
 34 35  1  0  0  0  0
 36 35  1  1  0  0  0
 36 38  1  0  0  0  0
 36 39  1  0  0  0  0
 38 41  1  1  0  0  0
 38 43  1  0  0  0  0
 39 37  1  0  0  0  0
 40 42  1  0  0  0  0
 41 40  1  0  0  0  0
 43 37  1  0  0  0  0
 43 42  1  1  0  0  0
 45 44  2  0  0  0  0
 46 48  1  0  0  0  0
 46 45  1  0  0  0  0
 47 48  2  0  0  0  0
 47 50  1  0  0  0  0
 50 49  2  0  0  0  0
 52 51  1  0  0  0  0
 52 50  1  0  0  0  0
M  END
>  <MODEL>
7

>  <REMARK>
 VINA RESULT:      -5.2      3.670      7.418
  Name = 
  15 active torsions:
  status: ('A' for Active; 'I' for Inactive)
    1  A    between atoms: N_1  and  C_32
    2  A    between atoms: C_2  and  N_43
    3  A    between atoms: C_3  and  C_24
    4  A    between atoms: C_8  and  C_34
    5  A    between atoms: C_10  and  C_19
    6  A    between atoms: C_10  and  O_26
    7  A    between atoms: C_14  and  C_27
    8  A    between atoms: C_14  and  C_31
    9  A    between atoms: C_14  and  C_50
   10  A    between atoms: C_18  and  C_42
   11  A    between atoms: S_25  and  C_37
   12  A    between atoms: S_25  and  C_52
   13  A    between atoms: O_26  and  C_47
   14  A    between atoms: C_32  and  C_36
   15  A    between atoms: C_34  and  N_43
                            x       y       z     vdW  Elec       q    Type
                         _______ _______ _______ _____ _____    ______ ____

>  <TORSDO>
F 15

$$$$
=
 OpenBabel10232411413D

 52 58  0  0  1  0  0  0  0  0999 V2000
  185.5140  177.5020  138.5900 C   0  0  1  0  0  3  0  0  0  0  0  0
  185.1430  177.3750  134.7720 C   0  0  0  0  0  3  0  0  0  0  0  0
  187.1360  177.7780  136.6740 C   0  0  0  0  0  3  0  0  0  0  0  0
  187.4610  177.7930  135.3170 C   0  0  0  0  0  0  0  0  0  0  0  0
  184.8020  177.3350  136.1340 C   0  0  0  0  0  0  0  0  0  0  0  0
  185.8150  177.5640  137.1020 C   0  0  0  0  0  0  0  0  0  0  0  0
  186.4610  177.6030  134.3660 C   0  0  0  0  0  3  0  0  0  0  0  0
  183.4020  177.0030  136.5190 C   0  0  0  0  0  0  0  0  0  0  0  0
  181.6410  175.4110  137.1250 C   0  0  0  0  0  0  0  0  0  0  0  0
  182.5040  178.0490  136.7910 C   0  0  0  0  0  3  0  0  0  0  0  0
  181.2010  177.7880  137.2240 C   0  0  0  0  0  3  0  0  0  0  0  0
  180.7740  176.4710  137.4020 C   0  0  0  0  0  3  0  0  0  0  0  0
  182.9500  175.6660  136.6590 C   0  0  0  0  0  0  0  0  0  0  0  0
  183.7640  174.5670  136.3660 C   0  0  0  0  0  3  0  0  0  0  0  0
  183.2830  173.2670  136.5400 C   0  0  0  0  0  0  0  0  0  0  0  0
  182.0190  173.0970  137.0290 N   0  0  0  0  0  0  0  0  0  0  0  0
  181.2260  174.1310  137.3090 N   0  0  0  0  0  0  0  0  0  0  0  0
  183.5400  170.8530  136.1350 N   0  0  0  0  0  0  0  0  0  0  0  0
  185.5610  169.9370  135.3820 N   0  0  0  0  0  0  0  0  0  0  0  0
  184.2640  169.7750  135.7510 C   0  0  0  0  0  3  0  0  0  0  0  0
  186.1330  171.1420  135.3930 N   0  0  0  0  0  0  0  0  0  0  0  0
  184.0980  172.0940  136.1620 C   0  0  0  0  0  0  0  0  0  0  0  0
  185.4350  172.2430  135.7780 C   0  0  0  0  0  3  0  0  0  0  0  0
  188.8680  178.0290  134.8880 C   0  0  0  0  0  2  0  0  0  0  0  0
  189.7460  177.3460  135.7310 O   0  0  0  0  0  0  0  0  0  0  0  0
  191.5230  175.8290  135.3020 C   0  0  0  0  0  1  0  0  0  0  0  0
  190.0790  176.1880  135.0290 C   0  0  0  0  0  2  0  0  0  0  0  0
  188.9650  178.0760  141.1160 C   0  0  0  0  0  0  0  0  0  0  0  0
  187.7400  178.6750  141.4300 C   0  0  0  0  0  3  0  0  0  0  0  0
  186.6280  178.4690  140.6090 C   0  0  0  0  0  3  0  0  0  0  0  0
  189.0800  177.2990  139.9590 C   0  0  0  0  0  3  0  0  0  0  0  0
  187.9690  177.1020  139.1300 C   0  0  0  0  0  3  0  0  0  0  0  0
  186.7270  177.6710  139.4650 C   0  0  0  0  0  0  0  0  0  0  0  0
  190.1750  178.3230  141.9610 C   0  0  0  0  0  2  0  0  0  0  0  0
  190.3440  177.2670  142.9570 N   0  0  0  0  0  2  0  0  0  0  0  0
  189.9120  177.7960  144.2490 C   0  0  2  0  0  3  0  0  0  0  0  0
  188.8190  177.1090  146.2200 N   0  0  0  0  0  2  0  0  0  0  0  0
  190.9370  177.7000  145.2830 N   0  0  2  0  0  0  0  0  0  0  0  0
  188.7150  177.0540  144.7730 C   0  0  0  0  0  2  0  0  0  0  0  0
  191.9700  176.0330  146.4330 N   0  0  0  0  0  2  0  0  0  0  0  0
  191.6590  176.4950  145.1410 N   0  0  0  0  0  2  0  0  0  0  0  0
  190.8950  176.4880  147.2930 C   0  0  0  0  0  2  0  0  0  0  0  0
  190.1820  177.5530  146.5190 C   0  0  2  0  0  3  0  0  0  0  0  0
  184.3890  178.3900  139.0450 C   0  0  0  0  0  3  0  0  0  0  0  0
  183.5740  178.0180  140.0310 C   0  0  0  0  0  3  0  0  0  0  0  0
  182.2780  179.1170  140.5890 S   0  0  0  0  0  0  0  0  0  0  0  0
  183.6300  179.2700  142.8990 N   0  0  0  0  0  0  0  0  0  0  0  0
  182.6120  178.7370  142.3040 C   0  0  0  0  0  3  0  0  0  0  0  0
  183.1160  179.1720  145.1880 O   0  0  0  0  0  0  0  0  0  0  0  0
  183.9540  178.9760  144.2630 C   0  0  0  0  0  0  0  0  0  0  0  0
  185.4730  178.3800  146.1080 C   0  0  0  0  0  1  0  0  0  0  0  0
  185.2890  178.4040  144.5970 C   0  0  0  0  0  2  0  0  0  0  0  0
  1 44  1  1  0  0  0
  1 33  1  0  0  0  0
  2  5  1  0  0  0  0
  3  6  1  0  0  0  0
  4  3  2  0  0  0  0
  5  8  1  0  0  0  0
  5  6  2  0  0  0  0
  6  1  1  0  0  0  0
  7  2  2  0  0  0  0
  7  4  1  0  0  0  0
  8 13  2  0  0  0  0
  8 10  1  0  0  0  0
  9 17  1  0  0  0  0
  9 12  2  0  0  0  0
 10 11  2  0  0  0  0
 11 12  1  0  0  0  0
 13  9  1  0  0  0  0
 14 15  2  0  0  0  0
 14 13  1  0  0  0  0
 15 16  1  0  0  0  0
 16 17  2  0  0  0  0
 18 22  1  0  0  0  0
 19 21  2  0  0  0  0
 19 20  1  0  0  0  0
 20 18  2  0  0  0  0
 21 23  1  0  0  0  0
 22 15  1  0  0  0  0
 23 22  2  0  0  0  0
 24  4  1  0  0  0  0
 24 25  1  0  0  0  0
 27 26  1  0  0  0  0
 27 25  1  0  0  0  0
 28 29  1  0  0  0  0
 28 34  1  0  0  0  0
 30 29  2  0  0  0  0
 31 28  2  0  0  0  0
 32 33  2  0  0  0  0
 32 31  1  0  0  0  0
 33 30  1  0  0  0  0
 34 35  1  0  0  0  0
 36 35  1  6  0  0  0
 36 39  1  0  0  0  0
 36 38  1  0  0  0  0
 37 43  1  0  0  0  0
 38 41  1  6  0  0  0
 38 43  1  0  0  0  0
 39 37  1  0  0  0  0
 40 42  1  0  0  0  0
 41 40  1  0  0  0  0
 43 42  1  1  0  0  0
 44 45  2  0  0  0  0
 45 46  1  0  0  0  0
 46 48  1  0  0  0  0
 47 50  1  0  0  0  0
 48 47  2  0  0  0  0
 50 52  1  0  0  0  0
 50 49  2  0  0  0  0
 52 51  1  0  0  0  0
M  END
>  <MODEL>
8

>  <REMARK>
 VINA RESULT:      -5.0      2.814      4.930
  Name = 
  15 active torsions:
  status: ('A' for Active; 'I' for Inactive)
    1  A    between atoms: N_1  and  C_32
    2  A    between atoms: C_2  and  N_43
    3  A    between atoms: C_3  and  C_24
    4  A    between atoms: C_8  and  C_34
    5  A    between atoms: C_10  and  C_19
    6  A    between atoms: C_10  and  O_26
    7  A    between atoms: C_14  and  C_27
    8  A    between atoms: C_14  and  C_31
    9  A    between atoms: C_14  and  C_50
   10  A    between atoms: C_18  and  C_42
   11  A    between atoms: S_25  and  C_37
   12  A    between atoms: S_25  and  C_52
   13  A    between atoms: O_26  and  C_47
   14  A    between atoms: C_32  and  C_36
   15  A    between atoms: C_34  and  N_43
                            x       y       z     vdW  Elec       q    Type
                         _______ _______ _______ _____ _____    ______ ____

>  <TORSDO>
F 15

$$$$
=
 OpenBabel10232411413D

 52 58  0  0  1  0  0  0  0  0999 V2000
  189.8330  174.4690  137.2710 C   0  0  1  0  0  3  0  0  0  0  0  0
  187.0510  174.3380  134.6300 C   0  0  0  0  0  3  0  0  0  0  0  0
  188.7850  172.5980  135.9380 C   0  0  0  0  0  3  0  0  0  0  0  0
  187.8660  172.0950  135.0150 C   0  0  0  0  0  0  0  0  0  0  0  0
  187.9550  174.8580  135.5710 C   0  0  0  0  0  0  0  0  0  0  0  0
  188.8540  173.9720  136.2200 C   0  0  0  0  0  0  0  0  0  0  0  0
  187.0070  172.9700  134.3520 C   0  0  0  0  0  3  0  0  0  0  0  0
  187.9050  176.3110  135.8950 C   0  0  0  0  0  0  0  0  0  0  0  0
  186.8880  178.2530  136.9900 C   0  0  0  0  0  0  0  0  0  0  0  0
  188.9730  177.1340  135.5030 C   0  0  0  0  0  3  0  0  0  0  0  0
  189.0060  178.4880  135.8460 C   0  0  0  0  0  3  0  0  0  0  0  0
  187.9700  179.0440  136.5980 C   0  0  0  0  0  3  0  0  0  0  0  0
  186.8330  176.8900  136.6230 C   0  0  0  0  0  0  0  0  0  0  0  0
  185.7100  176.1520  137.0140 C   0  0  0  0  0  3  0  0  0  0  0  0
  184.6890  176.7600  137.7480 C   0  0  0  0  0  0  0  0  0  0  0  0
  184.8270  178.0730  138.0980 N   0  0  0  0  0  0  0  0  0  0  0  0
  185.8860  178.7930  137.7310 N   0  0  0  0  0  0  0  0  0  0  0  0
  182.6890  176.4350  139.1450 N   0  0  0  0  0  0  0  0  0  0  0  0
  181.1460  174.7250  138.7120 N   0  0  0  0  0  0  0  0  0  0  0  0
  181.5380  175.7920  139.4560 C   0  0  0  0  0  3  0  0  0  0  0  0
  181.8790  174.3000  137.6820 N   0  0  0  0  0  0  0  0  0  0  0  0
  183.4600  176.0210  138.1020 C   0  0  0  0  0  0  0  0  0  0  0  0
  183.0410  174.9210  137.3470 C   0  0  0  0  0  3  0  0  0  0  0  0
  187.8170  170.6350  134.7280 C   0  0  0  0  0  2  0  0  0  0  0  0
  189.0290  170.0370  135.0760 O   0  0  0  0  0  0  0  0  0  0  0  0
  187.3370  168.3750  134.9420 C   0  0  0  0  0  1  0  0  0  0  0  0
  188.8190  168.6730  134.8760 C   0  0  0  0  0  2  0  0  0  0  0  0
  193.8840  175.0110  135.8850 C   0  0  0  0  0  0  0  0  0  0  0  0
  193.5880  174.0840  136.8910 C   0  0  0  0  0  3  0  0  0  0  0  0
  192.2690  173.9110  137.3200 C   0  0  0  0  0  3  0  0  0  0  0  0
  192.8580  175.7870  135.3350 C   0  0  0  0  0  3  0  0  0  0  0  0
  191.5380  175.6220  135.7730 C   0  0  0  0  0  3  0  0  0  0  0  0
  191.2340  174.6630  136.7560 C   0  0  0  0  0  0  0  0  0  0  0  0
  195.2960  175.2390  135.4460 C   0  0  0  0  0  2  0  0  0  0  0  0
  196.1740  175.4490  136.5950 N   0  0  0  0  0  2  0  0  0  0  0  0
  197.2880  174.5080  136.4850 C   0  0  2  0  0  3  0  0  0  0  0  0
  199.6080  174.4810  136.0740 N   0  0  0  0  0  2  0  0  0  0  0  0
  197.9350  174.2280  137.7620 N   0  0  2  0  0  0  0  0  0  0  0  0
  198.3630  175.0360  135.5760 C   0  0  0  0  0  2  0  0  0  0  0  0
  199.1980  175.3810  139.2600 N   0  0  0  0  0  2  0  0  0  0  0  0
  197.9840  175.3990  138.5490 N   0  0  0  0  0  2  0  0  0  0  0  0
  200.1430  174.6670  138.4250 C   0  0  0  0  0  2  0  0  0  0  0  0
  199.3170  173.9450  137.4060 C   0  0  2  0  0  3  0  0  0  0  0  0
  189.3690  175.6690  138.0480 C   0  0  0  0  0  3  0  0  0  0  0  0
  190.2150  176.3680  138.8040 C   0  0  0  0  0  3  0  0  0  0  0  0
  189.6490  177.8240  139.6760 S   0  0  0  0  0  0  0  0  0  0  0  0
  190.7870  177.3190  142.0510 N   0  0  0  0  0  0  0  0  0  0  0  0
  189.8100  177.0110  141.2600 C   0  0  0  0  0  3  0  0  0  0  0  0
  191.0300  175.4170  143.4060 O   0  0  0  0  0  0  0  0  0  0  0  0
  190.9740  176.6770  143.3170 C   0  0  0  0  0  0  0  0  0  0  0  0
  189.7890  177.6480  145.2450 C   0  0  0  0  0  1  0  0  0  0  0  0
  191.1340  177.5030  144.5470 C   0  0  0  0  0  2  0  0  0  0  0  0
  1 44  1  6  0  0  0
  2  5  1  0  0  0  0
  3  6  1  0  0  0  0
  4  3  2  0  0  0  0
  5  8  1  0  0  0  0
  5  6  2  0  0  0  0
  6  1  1  0  0  0  0
  7  2  2  0  0  0  0
  7  4  1  0  0  0  0
  8 13  1  0  0  0  0
  9 17  1  0  0  0  0
 10 11  1  0  0  0  0
 10  8  2  0  0  0  0
 11 12  2  0  0  0  0
 12  9  1  0  0  0  0
 13  9  2  0  0  0  0
 13 14  1  0  0  0  0
 14 15  2  0  0  0  0
 15 16  1  0  0  0  0
 15 22  1  0  0  0  0
 17 16  2  0  0  0  0
 18 20  1  0  0  0  0
 19 20  2  0  0  0  0
 21 19  1  0  0  0  0
 22 18  2  0  0  0  0
 23 21  2  0  0  0  0
 23 22  1  0  0  0  0
 24  4  1  0  0  0  0
 24 25  1  0  0  0  0
 27 26  1  0  0  0  0
 27 25  1  0  0  0  0
 28 29  1  0  0  0  0
 29 30  2  0  0  0  0
 31 32  1  0  0  0  0
 31 28  2  0  0  0  0
 32 33  2  0  0  0  0
 33  1  1  0  0  0  0
 33 30  1  0  0  0  0
 34 28  1  0  0  0  0
 34 35  1  0  0  0  0
 36 35  1  1  0  0  0
 36 38  1  0  0  0  0
 37 43  1  0  0  0  0
 38 41  1  1  0  0  0
 39 37  1  0  0  0  0
 39 36  1  0  0  0  0
 41 40  1  0  0  0  0
 42 40  1  0  0  0  0
 43 38  1  0  0  0  0
 43 42  1  1  0  0  0
 44 45  2  0  0  0  0
 45 46  1  0  0  0  0
 46 48  1  0  0  0  0
 47 50  1  0  0  0  0
 48 47  2  0  0  0  0
 50 49  2  0  0  0  0
 50 52  1  0  0  0  0
 52 51  1  0  0  0  0
M  END
>  <MODEL>
9

>  <REMARK>
 VINA RESULT:      -4.9      5.921      9.518
  Name = 
  15 active torsions:
  status: ('A' for Active; 'I' for Inactive)
    1  A    between atoms: N_1  and  C_32
    2  A    between atoms: C_2  and  N_43
    3  A    between atoms: C_3  and  C_24
    4  A    between atoms: C_8  and  C_34
    5  A    between atoms: C_10  and  C_19
    6  A    between atoms: C_10  and  O_26
    7  A    between atoms: C_14  and  C_27
    8  A    between atoms: C_14  and  C_31
    9  A    between atoms: C_14  and  C_50
   10  A    between atoms: C_18  and  C_42
   11  A    between atoms: S_25  and  C_37
   12  A    between atoms: S_25  and  C_52
   13  A    between atoms: O_26  and  C_47
   14  A    between atoms: C_32  and  C_36
   15  A    between atoms: C_34  and  N_43
                            x       y       z     vdW  Elec       q    Type
                         _______ _______ _______ _____ _____    ______ ____

>  <TORSDO>
F 15

$$$$
