=
 OpenBabel10232410023D

 26 29  0  0  0  0  0  0  0  0999 V2000
  188.2010  177.3680  145.5060 C   0  0  0  0  0  0  0  0  0  0  0  0
  184.0960  178.7430  144.6720 C   0  0  0  0  0  0  0  0  0  0  0  0
  185.0440  178.2230  143.8470 N   0  0  0  0  0  0  0  0  0  0  0  0
  189.4540  176.8900  145.5220 N   0  0  0  0  0  0  0  0  0  0  0  0
  189.8070  177.0140  146.8300 C   0  0  0  0  0  0  0  0  0  0  0  0
  186.0660  178.0120  144.6950 C   0  0  0  0  0  0  0  0  0  0  0  0
  187.8340  177.7590  146.7750 C   0  0  0  0  0  0  0  0  0  0  0  0
  185.7080  178.4000  145.9660 C   0  0  0  0  0  0  0  0  0  0  0  0
  188.8420  177.5430  147.6300 N   0  0  0  0  0  2  0  0  0  0  0  0
  184.4840  178.8510  145.9320 O   0  0  0  0  0  0  0  0  0  0  0  0
  187.3340  177.4820  144.4060 C   0  0  0  0  0  0  0  0  0  0  0  0
  182.7470  179.1510  144.1970 C   0  0  0  0  0  1  0  0  0  0  0  0
  186.5700  178.2940  147.0660 C   0  0  0  0  0  3  0  0  0  0  0  0
  191.1200  176.6120  147.3420 C   0  0  0  0  0  0  0  0  0  0  0  0
  192.9610  176.4630  148.5820 N   0  0  0  0  0  0  0  0  0  0  0  0
  192.0150  175.5870  146.7380 C   0  0  0  0  0  3  0  0  0  0  0  0
  191.7050  177.1050  148.4200 C   0  0  0  0  0  2  0  0  0  0  0  0
  193.1460  175.6170  147.6530 N   0  0  0  0  0  0  0  0  0  0  0  0
  187.7190  177.0330  143.0360 C   0  0  0  0  0  2  0  0  0  0  0  0
  188.6390  178.0560  142.3930 C   0  0  0  0  0  2  0  0  0  0  0  0
  188.1730  178.3660  140.9830 C   0  0  0  0  0  2  0  0  0  0  0  0
  189.3120  178.1250  138.7470 C   0  0  0  0  0  0  0  0  0  0  0  0
  188.9670  179.2900  138.4130 O   0  0  0  0  0  0  0  0  0  0  0  0
  188.9490  177.5970  140.0230 N   0  0  0  0  0  2  0  0  0  0  0  0
  190.6950  176.6740  137.1050 N   0  0  0  0  0  0  0  0  0  0  0  0
  190.0770  177.3220  137.8380 C   0  0  0  0  0  0  0  0  0  0  0  0
  1  4  1  0  0  0  0
  1  7  1  0  0  0  0
  2 10  1  0  0  0  0
  3  2  2  0  0  0  0
  3  6  1  0  0  0  0
  4  5  2  0  0  0  0
  5 14  1  0  0  0  0
  5  9  1  0  0  0  0
  6  8  2  0  0  0  0
  7 13  2  0  0  0  0
  7  9  1  0  0  0  0
  8 13  1  0  0  0  0
 10  8  1  0  0  0  0
 11  6  1  0  0  0  0
 11  1  2  0  0  0  0
 12  2  1  0  0  0  0
 14 17  1  0  0  0  0
 16 14  2  0  0  0  0
 16 18  1  0  0  0  0
 17 15  1  0  0  0  0
 18 15  2  0  0  0  0
 19 11  1  0  0  0  0
 20 19  1  0  0  0  0
 21 20  1  0  0  0  0
 22 24  1  0  0  0  0
 23 22  2  0  0  0  0
 24 21  1  0  0  0  0
 25 26  3  0  0  0  0
 26 22  1  0  0  0  0
M  END
>  <MODEL>
1

>  <REMARK>
 VINA RESULT:      -8.7      0.000      0.000
  Name = 
  6 active torsions:
  status: ('A' for Active; 'I' for Inactive)
    1  A    between atoms: C_3  and  C_10
    2  A    between atoms: C_5  and  C_17
    3  A    between atoms: C_5  and  C_18
    4  A    between atoms: C_6  and  C_25
    5  A    between atoms: C_17  and  N_26
    6  A    between atoms: C_18  and  C_21
                            x       y       z     vdW  Elec       q    Type
                         _______ _______ _______ _____ _____    ______ ____

>  <TORSDO>
F 6

$$$$
=
 OpenBabel10232410023D

 26 29  0  0  0  0  0  0  0  0999 V2000
  188.2270  177.3250  142.4900 C   0  0  0  0  0  0  0  0  0  0  0  0
  190.6040  176.9040  138.8000 C   0  0  0  0  0  0  0  0  0  0  0  0
  190.7830  176.3710  140.0390 N   0  0  0  0  0  0  0  0  0  0  0  0
  187.6670  177.2970  143.7080 N   0  0  0  0  0  0  0  0  0  0  0  0
  186.5760  178.0950  143.5560 C   0  0  0  0  0  0  0  0  0  0  0  0
  189.7360  176.8760  140.7140 C   0  0  0  0  0  0  0  0  0  0  0  0
  187.4790  178.1190  141.6500 C   0  0  0  0  0  0  0  0  0  0  0  0
  188.9820  177.6710  139.8820 C   0  0  0  0  0  0  0  0  0  0  0  0
  186.4260  178.6190  142.3100 N   0  0  0  0  0  2  0  0  0  0  0  0
  189.5350  177.6770  138.7000 O   0  0  0  0  0  0  0  0  0  0  0  0
  189.3940  176.6700  142.0600 C   0  0  0  0  0  0  0  0  0  0  0  0
  191.5270  176.6380  137.6650 C   0  0  0  0  0  1  0  0  0  0  0  0
  187.8200  178.3310  140.3050 C   0  0  0  0  0  3  0  0  0  0  0  0
  185.6350  178.3720  144.6450 C   0  0  0  0  0  0  0  0  0  0  0  0
  183.8220  178.9830  145.7810 N   0  0  0  0  0  0  0  0  0  0  0  0
  185.8910  178.1580  146.0960 C   0  0  0  0  0  2  0  0  0  0  0  0
  184.4130  178.8550  144.4960 C   0  0  0  0  0  3  0  0  0  0  0  0
  184.6330  178.5990  146.6790 N   0  0  0  0  0  0  0  0  0  0  0  0
  190.1910  175.7860  142.9610 C   0  0  0  0  0  2  0  0  0  0  0  0
  191.4060  176.5350  143.4810 C   0  0  0  0  0  2  0  0  0  0  0  0
  191.6190  176.2300  144.9520 C   0  0  0  0  0  2  0  0  0  0  0  0
  190.6750  177.0690  147.1330 C   0  0  0  0  0  0  0  0  0  0  0  0
  191.7560  176.8220  147.7300 O   0  0  0  0  0  0  0  0  0  0  0  0
  190.5350  176.7980  145.7390 N   0  0  0  0  0  2  0  0  0  0  0  0
  188.6830  178.0790  148.4490 N   0  0  0  0  0  0  0  0  0  0  0  0
  189.5720  177.6280  147.8610 C   0  0  0  0  0  0  0  0  0  0  0  0
  1  4  1  0  0  0  0
  2  3  2  0  0  0  0
  3  6  1  0  0  0  0
  5  4  2  0  0  0  0
  5 14  1  0  0  0  0
  6 11  2  0  0  0  0
  7  9  1  0  0  0  0
  7  1  2  0  0  0  0
  8 13  2  0  0  0  0
  8  6  1  0  0  0  0
  9  5  1  0  0  0  0
 10  2  1  0  0  0  0
 10  8  1  0  0  0  0
 11  1  1  0  0  0  0
 11 19  1  0  0  0  0
 12  2  1  0  0  0  0
 13  7  1  0  0  0  0
 14 16  1  0  0  0  0
 15 18  2  0  0  0  0
 16 18  1  0  0  0  0
 17 14  2  0  0  0  0
 17 15  1  0  0  0  0
 19 20  1  0  0  0  0
 20 21  1  0  0  0  0
 21 24  1  0  0  0  0
 22 23  2  0  0  0  0
 22 26  1  0  0  0  0
 24 22  1  0  0  0  0
 26 25  3  0  0  0  0
M  END
>  <MODEL>
2

>  <REMARK>
 VINA RESULT:      -8.7      2.314      7.353
  Name = 
  6 active torsions:
  status: ('A' for Active; 'I' for Inactive)
    1  A    between atoms: C_3  and  C_10
    2  A    between atoms: C_5  and  C_17
    3  A    between atoms: C_5  and  C_18
    4  A    between atoms: C_6  and  C_25
    5  A    between atoms: C_17  and  N_26
    6  A    between atoms: C_18  and  C_21
                            x       y       z     vdW  Elec       q    Type
                         _______ _______ _______ _____ _____    ______ ____

>  <TORSDO>
F 6

$$$$
=
 OpenBabel10232410023D

 26 29  0  0  0  0  0  0  0  0999 V2000
  185.6580  178.0730  143.4890 C   0  0  0  0  0  0  0  0  0  0  0  0
  187.5730  177.9820  147.4590 C   0  0  0  0  0  0  0  0  0  0  0  0
  188.0050  177.5270  146.2530 N   0  0  0  0  0  0  0  0  0  0  0  0
  185.2830  177.9970  142.2030 N   0  0  0  0  0  0  0  0  0  0  0  0
  184.0570  178.5850  142.2120 C   0  0  0  0  0  0  0  0  0  0  0  0
  186.9760  177.8460  145.4490 C   0  0  0  0  0  0  0  0  0  0  0  0
  184.6730  178.6920  144.2260 C   0  0  0  0  0  0  0  0  0  0  0  0
  185.9870  178.4660  146.1770 C   0  0  0  0  0  0  0  0  0  0  0  0
  183.6470  179.0240  143.4320 N   0  0  0  0  0  2  0  0  0  0  0  0
  186.3740  178.5410  147.4210 O   0  0  0  0  0  0  0  0  0  0  0  0
  186.8540  177.6170  144.0690 C   0  0  0  0  0  0  0  0  0  0  0  0
  188.3760  177.8610  148.7050 C   0  0  0  0  0  1  0  0  0  0  0  0
  184.7900  178.9180  145.6060 C   0  0  0  0  0  3  0  0  0  0  0  0
  183.2380  178.7360  141.0050 C   0  0  0  0  0  0  0  0  0  0  0  0
  181.5110  178.7940  139.6050 N   0  0  0  0  0  0  0  0  0  0  0  0
  183.7370  179.1160  139.6540 C   0  0  0  0  0  3  0  0  0  0  0  0
  181.9310  178.5560  140.9400 C   0  0  0  0  0  2  0  0  0  0  0  0
  182.5050  179.1060  138.8800 N   0  0  0  0  0  0  0  0  0  0  0  0
  187.9340  176.9700  143.2670 C   0  0  0  0  0  2  0  0  0  0  0  0
  188.7730  178.0310  142.5750 C   0  0  0  0  0  2  0  0  0  0  0  0
  190.2480  177.7110  142.7230 C   0  0  0  0  0  2  0  0  0  0  0  0
  191.3750  176.5890  144.6790 C   0  0  0  0  0  0  0  0  0  0  0  0
  191.7710  175.6440  143.9470 O   0  0  0  0  0  0  0  0  0  0  0  0
  190.6070  177.6610  144.1320 N   0  0  0  0  0  2  0  0  0  0  0  0
  191.9610  176.5910  147.2040 N   0  0  0  0  0  0  0  0  0  0  0  0
  191.6990  176.5900  146.0760 C   0  0  0  0  0  0  0  0  0  0  0  0
  1 11  2  0  0  0  0
  1  7  1  0  0  0  0
  2 12  1  0  0  0  0
  3  2  2  0  0  0  0
  4  5  2  0  0  0  0
  4  1  1  0  0  0  0
  5  9  1  0  0  0  0
  6  8  2  0  0  0  0
  6  3  1  0  0  0  0
  7 13  2  0  0  0  0
  8 10  1  0  0  0  0
  9  7  1  0  0  0  0
 10  2  1  0  0  0  0
 11  6  1  0  0  0  0
 13  8  1  0  0  0  0
 14  5  1  0  0  0  0
 15 17  1  0  0  0  0
 16 14  2  0  0  0  0
 17 14  1  0  0  0  0
 18 15  2  0  0  0  0
 18 16  1  0  0  0  0
 19 11  1  0  0  0  0
 20 21  1  0  0  0  0
 20 19  1  0  0  0  0
 21 24  1  0  0  0  0
 22 26  1  0  0  0  0
 23 22  2  0  0  0  0
 24 22  1  0  0  0  0
 26 25  3  0  0  0  0
M  END
>  <MODEL>
3

>  <REMARK>
 VINA RESULT:      -8.6      2.812      7.262
  Name = 
  6 active torsions:
  status: ('A' for Active; 'I' for Inactive)
    1  A    between atoms: C_3  and  C_10
    2  A    between atoms: C_5  and  C_17
    3  A    between atoms: C_5  and  C_18
    4  A    between atoms: C_6  and  C_25
    5  A    between atoms: C_17  and  N_26
    6  A    between atoms: C_18  and  C_21
                            x       y       z     vdW  Elec       q    Type
                         _______ _______ _______ _____ _____    ______ ____

>  <TORSDO>
F 6

$$$$
=
 OpenBabel10232410023D

 26 29  0  0  0  0  0  0  0  0999 V2000
  189.3140  177.5140  144.1640 C   0  0  0  0  0  0  0  0  0  0  0  0
  192.0460  176.0690  147.3090 C   0  0  0  0  0  0  0  0  0  0  0  0
  190.8960  176.7910  147.3930 N   0  0  0  0  0  0  0  0  0  0  0  0
  188.3500  178.0410  143.3940 N   0  0  0  0  0  0  0  0  0  0  0  0
  188.7430  177.6910  142.1390 C   0  0  0  0  0  0  0  0  0  0  0  0
  190.5460  176.9090  146.1000 C   0  0  0  0  0  0  0  0  0  0  0  0
  190.2440  176.8740  143.3760 C   0  0  0  0  0  0  0  0  0  0  0  0
  191.4700  176.2720  145.3040 C   0  0  0  0  0  0  0  0  0  0  0  0
  189.8990  176.9770  142.0850 N   0  0  0  0  0  2  0  0  0  0  0  0
  192.3920  175.7570  146.0700 O   0  0  0  0  0  0  0  0  0  0  0  0
  189.4260  177.5650  145.5640 C   0  0  0  0  0  0  0  0  0  0  0  0
  192.8380  175.6690  148.5010 C   0  0  0  0  0  1  0  0  0  0  0  0
  191.3670  176.2220  143.9070 C   0  0  0  0  0  3  0  0  0  0  0  0
  187.9850  178.0550  140.9380 C   0  0  0  0  0  0  0  0  0  0  0  0
  187.4020  178.4010  138.8200 N   0  0  0  0  0  0  0  0  0  0  0  0
  186.5990  178.5980  140.9120 C   0  0  0  0  0  2  0  0  0  0  0  0
  188.4250  177.9520  139.6960 C   0  0  0  0  0  3  0  0  0  0  0  0
  186.3810  178.7630  139.4830 N   0  0  0  0  0  0  0  0  0  0  0  0
  188.4050  178.2350  146.4230 C   0  0  0  0  0  2  0  0  0  0  0  0
  187.1000  177.4580  146.3810 C   0  0  0  0  0  2  0  0  0  0  0  0
  185.9270  178.4110  146.2620 C   0  0  0  0  0  2  0  0  0  0  0  0
  184.0620  178.7870  144.6090 C   0  0  0  0  0  0  0  0  0  0  0  0
  183.2930  179.1880  145.5220 O   0  0  0  0  0  0  0  0  0  0  0  0
  185.3980  178.3820  144.9080 N   0  0  0  0  0  2  0  0  0  0  0  0
  183.2110  178.6960  142.1620 N   0  0  0  0  0  0  0  0  0  0  0  0
  183.5910  178.7370  143.2540 C   0  0  0  0  0  0  0  0  0  0  0  0
  1 11  1  0  0  0  0
  2  3  2  0  0  0  0
  2 12  1  0  0  0  0
  4  1  1  0  0  0  0
  5  4  2  0  0  0  0
  6  3  1  0  0  0  0
  7 13  1  0  0  0  0
  7  1  2  0  0  0  0
  8 10  1  0  0  0  0
  8  6  1  0  0  0  0
  9  5  1  0  0  0  0
  9  7  1  0  0  0  0
 10  2  1  0  0  0  0
 11  6  2  0  0  0  0
 11 19  1  0  0  0  0
 13  8  2  0  0  0  0
 14  5  1  0  0  0  0
 15 18  2  0  0  0  0
 15 17  1  0  0  0  0
 16 14  1  0  0  0  0
 17 14  2  0  0  0  0
 18 16  1  0  0  0  0
 20 19  1  0  0  0  0
 21 20  1  0  0  0  0
 22 24  1  0  0  0  0
 22 23  2  0  0  0  0
 24 21  1  0  0  0  0
 25 26  3  0  0  0  0
 26 22  1  0  0  0  0
M  END
>  <MODEL>
4

>  <REMARK>
 VINA RESULT:      -8.4      2.462      7.313
  Name = 
  6 active torsions:
  status: ('A' for Active; 'I' for Inactive)
    1  A    between atoms: C_3  and  C_10
    2  A    between atoms: C_5  and  C_17
    3  A    between atoms: C_5  and  C_18
    4  A    between atoms: C_6  and  C_25
    5  A    between atoms: C_17  and  N_26
    6  A    between atoms: C_18  and  C_21
                            x       y       z     vdW  Elec       q    Type
                         _______ _______ _______ _____ _____    ______ ____

>  <TORSDO>
F 6

$$$$
=
 OpenBabel10232410023D

 26 29  0  0  0  0  0  0  0  0999 V2000
  187.4360  177.4600  144.4970 C   0  0  0  0  0  0  0  0  0  0  0  0
  190.9100  176.6770  147.0980 C   0  0  0  0  0  0  0  0  0  0  0  0
  190.7420  176.4970  145.7600 N   0  0  0  0  0  0  0  0  0  0  0  0
  186.5270  177.6240  143.5250 N   0  0  0  0  0  0  0  0  0  0  0  0
  185.4580  178.1320  144.1960 C   0  0  0  0  0  0  0  0  0  0  0  0
  189.4770  176.9150  145.5790 C   0  0  0  0  0  0  0  0  0  0  0  0
  186.9090  177.8650  145.7040 C   0  0  0  0  0  0  0  0  0  0  0  0
  188.9410  177.3220  146.7790 C   0  0  0  0  0  0  0  0  0  0  0  0
  185.6510  178.2940  145.5320 N   0  0  0  0  0  2  0  0  0  0  0  0
  189.8430  177.1670  147.7090 O   0  0  0  0  0  0  0  0  0  0  0  0
  188.7450  176.9620  144.3810 C   0  0  0  0  0  0  0  0  0  0  0  0
  192.1760  176.3510  147.8050 C   0  0  0  0  0  1  0  0  0  0  0  0
  187.6350  177.8150  146.9030 C   0  0  0  0  0  3  0  0  0  0  0  0
  184.1950  178.4780  143.5350 C   0  0  0  0  0  0  0  0  0  0  0  0
  182.1060  179.1450  143.1660 N   0  0  0  0  0  0  0  0  0  0  0  0
  183.9190  178.3820  142.0760 C   0  0  0  0  0  3  0  0  0  0  0  0
  183.1120  178.9290  144.1440 C   0  0  0  0  0  2  0  0  0  0  0  0
  182.5420  178.8450  142.0120 N   0  0  0  0  0  0  0  0  0  0  0  0
  189.3280  176.5480  143.0710 C   0  0  0  0  0  2  0  0  0  0  0  0
  189.7620  177.7740  142.2860 C   0  0  0  0  0  2  0  0  0  0  0  0
  189.9530  177.4180  140.8230 C   0  0  0  0  0  2  0  0  0  0  0  0
  188.2380  178.2050  139.1520 C   0  0  0  0  0  0  0  0  0  0  0  0
  188.9840  179.1520  138.7870 O   0  0  0  0  0  0  0  0  0  0  0  0
  188.6600  177.2960  140.1690 N   0  0  0  0  0  2  0  0  0  0  0  0
  185.9130  177.9030  138.0480 N   0  0  0  0  0  0  0  0  0  0  0  0
  186.9510  178.0380  138.5410 C   0  0  0  0  0  0  0  0  0  0  0  0
  1  7  1  0  0  0  0
  2 10  1  0  0  0  0
  2 12  1  0  0  0  0
  3  2  2  0  0  0  0
  4  5  2  0  0  0  0
  4  1  1  0  0  0  0
  5  9  1  0  0  0  0
  6  3  1  0  0  0  0
  6  8  2  0  0  0  0
  7 13  2  0  0  0  0
  8 13  1  0  0  0  0
  8 10  1  0  0  0  0
  9  7  1  0  0  0  0
 11  1  2  0  0  0  0
 11  6  1  0  0  0  0
 14 17  1  0  0  0  0
 14  5  1  0  0  0  0
 15 17  1  0  0  0  0
 16 14  2  0  0  0  0
 18 16  1  0  0  0  0
 18 15  2  0  0  0  0
 19 11  1  0  0  0  0
 20 19  1  0  0  0  0
 21 20  1  0  0  0  0
 22 24  1  0  0  0  0
 23 22  2  0  0  0  0
 24 21  1  0  0  0  0
 25 26  3  0  0  0  0
 26 22  1  0  0  0  0
M  END
>  <MODEL>
5

>  <REMARK>
 VINA RESULT:      -8.4      2.056      6.013
  Name = 
  6 active torsions:
  status: ('A' for Active; 'I' for Inactive)
    1  A    between atoms: C_3  and  C_10
    2  A    between atoms: C_5  and  C_17
    3  A    between atoms: C_5  and  C_18
    4  A    between atoms: C_6  and  C_25
    5  A    between atoms: C_17  and  N_26
    6  A    between atoms: C_18  and  C_21
                            x       y       z     vdW  Elec       q    Type
                         _______ _______ _______ _____ _____    ______ ____

>  <TORSDO>
F 6

$$$$
=
 OpenBabel10232410023D

 26 29  0  0  0  0  0  0  0  0999 V2000
  188.6770  177.8760  142.1140 C   0  0  0  0  0  0  0  0  0  0  0  0
  187.8740  178.1280  137.7860 C   0  0  0  0  0  0  0  0  0  0  0  0
  187.1490  178.5630  138.8510 N   0  0  0  0  0  0  0  0  0  0  0  0
  188.7120  177.9240  143.4540 N   0  0  0  0  0  0  0  0  0  0  0  0
  189.8880  177.3060  143.7470 C   0  0  0  0  0  0  0  0  0  0  0  0
  187.9200  178.1860  139.8860 C   0  0  0  0  0  0  0  0  0  0  0  0
  189.8060  177.2460  141.6400 C   0  0  0  0  0  0  0  0  0  0  0  0
  189.0520  177.5560  139.4220 C   0  0  0  0  0  0  0  0  0  0  0  0
  190.5880  176.8750  142.6630 N   0  0  0  0  0  2  0  0  0  0  0  0
  189.0060  177.5290  138.1180 O   0  0  0  0  0  0  0  0  0  0  0  0
  187.6790  178.3700  141.2570 C   0  0  0  0  0  0  0  0  0  0  0  0
  187.4310  178.3110  136.3790 C   0  0  0  0  0  1  0  0  0  0  0  0
  190.0480  177.0550  140.2710 C   0  0  0  0  0  3  0  0  0  0  0  0
  190.3660  177.1160  145.1190 C   0  0  0  0  0  0  0  0  0  0  0  0
  191.6760  176.7480  146.8790 N   0  0  0  0  0  0  0  0  0  0  0  0
  189.5310  177.1720  146.3500 C   0  0  0  0  0  2  0  0  0  0  0  0
  191.6170  176.8660  145.4650 C   0  0  0  0  0  3  0  0  0  0  0  0
  190.5230  176.9150  147.3830 N   0  0  0  0  0  0  0  0  0  0  0  0
  186.4670  179.0780  141.7680 C   0  0  0  0  0  2  0  0  0  0  0  0
  185.3210  178.0940  141.9300 C   0  0  0  0  0  2  0  0  0  0  0  0
  184.5210  178.4240  143.1760 C   0  0  0  0  0  2  0  0  0  0  0  0
  184.9140  178.7540  145.6440 C   0  0  0  0  0  0  0  0  0  0  0  0
  183.7130  179.0930  145.8200 O   0  0  0  0  0  0  0  0  0  0  0  0
  185.3880  178.4050  144.3430 N   0  0  0  0  0  2  0  0  0  0  0  0
  186.5400  178.6920  147.6610 N   0  0  0  0  0  0  0  0  0  0  0  0
  185.8140  178.7190  146.7600 C   0  0  0  0  0  0  0  0  0  0  0  0
  1  4  1  0  0  0  0
  2 10  1  0  0  0  0
  2  3  2  0  0  0  0
  3  6  1  0  0  0  0
  4  5  2  0  0  0  0
  5 14  1  0  0  0  0
  6 11  1  0  0  0  0
  7  1  1  0  0  0  0
  7  9  1  0  0  0  0
  8  6  2  0  0  0  0
  8 13  1  0  0  0  0
  9  5  1  0  0  0  0
 10  8  1  0  0  0  0
 11 19  1  0  0  0  0
 11  1  2  0  0  0  0
 12  2  1  0  0  0  0
 13  7  2  0  0  0  0
 14 17  2  0  0  0  0
 14 16  1  0  0  0  0
 15 18  2  0  0  0  0
 16 18  1  0  0  0  0
 17 15  1  0  0  0  0
 19 20  1  0  0  0  0
 20 21  1  0  0  0  0
 21 24  1  0  0  0  0
 22 23  2  0  0  0  0
 22 26  1  0  0  0  0
 24 22  1  0  0  0  0
 26 25  3  0  0  0  0
M  END
>  <MODEL>
6

>  <REMARK>
 VINA RESULT:      -8.3      1.890      6.153
  Name = 
  6 active torsions:
  status: ('A' for Active; 'I' for Inactive)
    1  A    between atoms: C_3  and  C_10
    2  A    between atoms: C_5  and  C_17
    3  A    between atoms: C_5  and  C_18
    4  A    between atoms: C_6  and  C_25
    5  A    between atoms: C_17  and  N_26
    6  A    between atoms: C_18  and  C_21
                            x       y       z     vdW  Elec       q    Type
                         _______ _______ _______ _____ _____    ______ ____

>  <TORSDO>
F 6

$$$$
=
 OpenBabel10232410023D

 26 29  0  0  0  0  0  0  0  0999 V2000
  188.2420  177.5660  141.9720 C   0  0  0  0  0  0  0  0  0  0  0  0
  184.2070  178.7610  143.2870 C   0  0  0  0  0  0  0  0  0  0  0  0
  185.1890  178.0820  143.9370 N   0  0  0  0  0  0  0  0  0  0  0  0
  189.4930  177.1130  141.7990 N   0  0  0  0  0  0  0  0  0  0  0  0
  189.7810  177.5010  140.5280 C   0  0  0  0  0  0  0  0  0  0  0  0
  186.1590  178.0350  143.0080 C   0  0  0  0  0  0  0  0  0  0  0  0
  187.8140  178.2040  140.8290 C   0  0  0  0  0  0  0  0  0  0  0  0
  185.7410  178.6710  141.8610 C   0  0  0  0  0  0  0  0  0  0  0  0
  188.7780  178.1720  139.8990 N   0  0  0  0  0  2  0  0  0  0  0  0
  184.5280  179.1140  142.0530 O   0  0  0  0  0  0  0  0  0  0  0  0
  187.4310  177.4480  143.1130 C   0  0  0  0  0  0  0  0  0  0  0  0
  182.8940  179.0760  143.9080 C   0  0  0  0  0  1  0  0  0  0  0  0
  186.5430  178.7860  140.7180 C   0  0  0  0  0  3  0  0  0  0  0  0
  191.0670  177.2220  139.8820 C   0  0  0  0  0  0  0  0  0  0  0  0
  192.6110  176.5650  138.4230 N   0  0  0  0  0  0  0  0  0  0  0  0
  192.4110  177.5140  140.4520 C   0  0  0  0  0  2  0  0  0  0  0  0
  191.2210  176.6670  138.6930 C   0  0  0  0  0  3  0  0  0  0  0  0
  193.2840  177.0320  139.3930 N   0  0  0  0  0  0  0  0  0  0  0  0
  187.9020  176.7820  144.3630 C   0  0  0  0  0  2  0  0  0  0  0  0
  188.3380  177.8260  145.3760 C   0  0  0  0  0  2  0  0  0  0  0  0
  189.8160  178.1260  145.2170 C   0  0  0  0  0  2  0  0  0  0  0  0
  191.5520  176.4770  146.0060 C   0  0  0  0  0  0  0  0  0  0  0  0
  191.7940  176.1200  144.8230 O   0  0  0  0  0  0  0  0  0  0  0  0
  190.5720  177.4790  146.2780 N   0  0  0  0  0  2  0  0  0  0  0  0
  192.8440  175.3820  147.9680 N   0  0  0  0  0  0  0  0  0  0  0  0
  192.2670  175.8710  147.0920 C   0  0  0  0  0  0  0  0  0  0  0  0
  1 11  1  0  0  0  0
  2 12  1  0  0  0  0
  2  3  2  0  0  0  0
  4  1  1  0  0  0  0
  5  4  2  0  0  0  0
  6 11  2  0  0  0  0
  6  3  1  0  0  0  0
  7  1  2  0  0  0  0
  8 10  1  0  0  0  0
  8  6  1  0  0  0  0
  9  5  1  0  0  0  0
  9  7  1  0  0  0  0
 10  2  1  0  0  0  0
 11 19  1  0  0  0  0
 13  7  1  0  0  0  0
 13  8  2  0  0  0  0
 14 16  1  0  0  0  0
 14  5  1  0  0  0  0
 15 17  1  0  0  0  0
 15 18  2  0  0  0  0
 17 14  2  0  0  0  0
 18 16  1  0  0  0  0
 19 20  1  0  0  0  0
 21 20  1  0  0  0  0
 21 24  1  0  0  0  0
 22 24  1  0  0  0  0
 22 26  1  0  0  0  0
 23 22  2  0  0  0  0
 26 25  3  0  0  0  0
M  END
>  <MODEL>
7

>  <REMARK>
 VINA RESULT:      -8.3      2.349      6.261
  Name = 
  6 active torsions:
  status: ('A' for Active; 'I' for Inactive)
    1  A    between atoms: C_3  and  C_10
    2  A    between atoms: C_5  and  C_17
    3  A    between atoms: C_5  and  C_18
    4  A    between atoms: C_6  and  C_25
    5  A    between atoms: C_17  and  N_26
    6  A    between atoms: C_18  and  C_21
                            x       y       z     vdW  Elec       q    Type
                         _______ _______ _______ _____ _____    ______ ____

>  <TORSDO>
F 6

$$$$
=
 OpenBabel10232410023D

 26 29  0  0  0  0  0  0  0  0999 V2000
  187.7740  177.3690  144.5950 C   0  0  0  0  0  0  0  0  0  0  0  0
  191.2520  176.5300  147.1720 C   0  0  0  0  0  0  0  0  0  0  0  0
  191.0770  176.3660  145.8340 N   0  0  0  0  0  0  0  0  0  0  0  0
  186.8620  177.5500  143.6280 N   0  0  0  0  0  0  0  0  0  0  0  0
  185.8000  178.0600  144.3080 C   0  0  0  0  0  0  0  0  0  0  0  0
  189.8150  176.7960  145.6620 C   0  0  0  0  0  0  0  0  0  0  0  0
  187.2550  177.7660  145.8070 C   0  0  0  0  0  0  0  0  0  0  0  0
  189.2870  177.1950  146.8680 C   0  0  0  0  0  0  0  0  0  0  0  0
  186.0000  178.2070  145.6460 N   0  0  0  0  0  2  0  0  0  0  0  0
  190.1920  177.0230  147.7930 O   0  0  0  0  0  0  0  0  0  0  0  0
  189.0780  176.8610  144.4680 C   0  0  0  0  0  0  0  0  0  0  0  0
  192.5180  176.1870  147.8700 C   0  0  0  0  0  1  0  0  0  0  0  0
  187.9860  177.6980  147.0030 C   0  0  0  0  0  3  0  0  0  0  0  0
  184.5380  178.4230  143.6570 C   0  0  0  0  0  0  0  0  0  0  0  0
  182.9770  178.8110  142.1210 N   0  0  0  0  0  0  0  0  0  0  0  0
  183.3030  178.8910  144.3450 C   0  0  0  0  0  2  0  0  0  0  0  0
  184.3110  178.3870  142.3550 C   0  0  0  0  0  3  0  0  0  0  0  0
  182.4050  179.0940  143.2180 N   0  0  0  0  0  0  0  0  0  0  0  0
  189.6530  176.4570  143.1510 C   0  0  0  0  0  2  0  0  0  0  0  0
  190.1140  177.6850  142.3860 C   0  0  0  0  0  2  0  0  0  0  0  0
  189.8650  177.5020  140.9010 C   0  0  0  0  0  2  0  0  0  0  0  0
  191.3620  176.5370  139.1180 C   0  0  0  0  0  0  0  0  0  0  0  0
  190.4640  175.7310  138.7570 O   0  0  0  0  0  0  0  0  0  0  0  0
  191.1310  177.4550  140.1870 N   0  0  0  0  0  2  0  0  0  0  0  0
  193.6550  176.5310  137.9090 N   0  0  0  0  0  0  0  0  0  0  0  0
  192.6310  176.5330  138.4490 C   0  0  0  0  0  0  0  0  0  0  0  0
  1  7  1  0  0  0  0
  2 10  1  0  0  0  0
  2 12  1  0  0  0  0
  3  2  2  0  0  0  0
  4  5  2  0  0  0  0
  4  1  1  0  0  0  0
  5  9  1  0  0  0  0
  6  3  1  0  0  0  0
  6  8  2  0  0  0  0
  7 13  2  0  0  0  0
  8 13  1  0  0  0  0
  8 10  1  0  0  0  0
  9  7  1  0  0  0  0
 11  1  2  0  0  0  0
 11  6  1  0  0  0  0
 14  5  1  0  0  0  0
 14 16  1  0  0  0  0
 15 17  1  0  0  0  0
 15 18  2  0  0  0  0
 17 14  2  0  0  0  0
 18 16  1  0  0  0  0
 19 11  1  0  0  0  0
 20 19  1  0  0  0  0
 21 20  1  0  0  0  0
 22 24  1  0  0  0  0
 23 22  2  0  0  0  0
 24 21  1  0  0  0  0
 25 26  3  0  0  0  0
 26 22  1  0  0  0  0
M  END
>  <MODEL>
8

>  <REMARK>
 VINA RESULT:      -8.3      2.268      6.023
  Name = 
  6 active torsions:
  status: ('A' for Active; 'I' for Inactive)
    1  A    between atoms: C_3  and  C_10
    2  A    between atoms: C_5  and  C_17
    3  A    between atoms: C_5  and  C_18
    4  A    between atoms: C_6  and  C_25
    5  A    between atoms: C_17  and  N_26
    6  A    between atoms: C_18  and  C_21
                            x       y       z     vdW  Elec       q    Type
                         _______ _______ _______ _____ _____    ______ ____

>  <TORSDO>
F 6

$$$$
=
 OpenBabel10232410023D

 26 29  0  0  0  0  0  0  0  0999 V2000
  186.8080  177.9240  144.7120 C   0  0  0  0  0  0  0  0  0  0  0  0
  182.6010  179.0660  144.0510 C   0  0  0  0  0  0  0  0  0  0  0  0
  183.5540  178.6420  143.1790 N   0  0  0  0  0  0  0  0  0  0  0  0
  188.0880  177.5270  144.6730 N   0  0  0  0  0  0  0  0  0  0  0  0
  188.4720  177.6200  145.9750 C   0  0  0  0  0  0  0  0  0  0  0  0
  184.6130  178.4630  143.9880 C   0  0  0  0  0  0  0  0  0  0  0  0
  186.4550  178.2390  146.0060 C   0  0  0  0  0  0  0  0  0  0  0  0
  184.2700  178.7750  145.2840 C   0  0  0  0  0  0  0  0  0  0  0  0
  187.5010  178.0530  146.8230 N   0  0  0  0  0  2  0  0  0  0  0  0
  183.0200  179.1470  145.3040 O   0  0  0  0  0  0  0  0  0  0  0  0
  185.9020  178.0260  143.6420 C   0  0  0  0  0  0  0  0  0  0  0  0
  181.2150  179.4060  143.6320 C   0  0  0  0  0  1  0  0  0  0  0  0
  185.1700  178.6800  146.3540 C   0  0  0  0  0  3  0  0  0  0  0  0
  189.8240  177.2830  146.4320 C   0  0  0  0  0  0  0  0  0  0  0  0
  191.9640  176.6810  146.4650 N   0  0  0  0  0  0  0  0  0  0  0  0
  190.2930  177.2860  147.8440 C   0  0  0  0  0  2  0  0  0  0  0  0
  190.8280  176.9250  145.6510 C   0  0  0  0  0  3  0  0  0  0  0  0
  191.6810  176.8790  147.6870 N   0  0  0  0  0  0  0  0  0  0  0  0
  186.2730  177.6590  142.2440 C   0  0  0  0  0  2  0  0  0  0  0  0
  186.5930  178.9110  141.4450 C   0  0  0  0  0  2  0  0  0  0  0  0
  187.7760  178.6600  140.5310 C   0  0  0  0  0  2  0  0  0  0  0  0
  189.9460  177.4540  140.9670 C   0  0  0  0  0  0  0  0  0  0  0  0
  189.7860  176.7350  139.9440 O   0  0  0  0  0  0  0  0  0  0  0  0
  188.9780  178.4410  141.3210 N   0  0  0  0  0  2  0  0  0  0  0  0
  192.0530  177.1370  142.4430 N   0  0  0  0  0  0  0  0  0  0  0  0
  191.1120  177.2790  141.7830 C   0  0  0  0  0  0  0  0  0  0  0  0
  1  7  1  0  0  0  0
  2 10  1  0  0  0  0
  3  6  1  0  0  0  0
  3  2  2  0  0  0  0
  4  1  1  0  0  0  0
  4  5  2  0  0  0  0
  5 14  1  0  0  0  0
  5  9  1  0  0  0  0
  6  8  2  0  0  0  0
  7 13  2  0  0  0  0
  7  9  1  0  0  0  0
  8 10  1  0  0  0  0
  8 13  1  0  0  0  0
 11  6  1  0  0  0  0
 11  1  2  0  0  0  0
 12  2  1  0  0  0  0
 14 16  1  0  0  0  0
 15 18  2  0  0  0  0
 17 14  2  0  0  0  0
 17 15  1  0  0  0  0
 18 16  1  0  0  0  0
 19 11  1  0  0  0  0
 20 19  1  0  0  0  0
 21 24  1  0  0  0  0
 21 20  1  0  0  0  0
 22 24  1  0  0  0  0
 22 26  1  0  0  0  0
 23 22  2  0  0  0  0
 26 25  3  0  0  0  0
M  END
>  <MODEL>
9

>  <REMARK>
 VINA RESULT:      -8.1      1.856      2.305
  Name = 
  6 active torsions:
  status: ('A' for Active; 'I' for Inactive)
    1  A    between atoms: C_3  and  C_10
    2  A    between atoms: C_5  and  C_17
    3  A    between atoms: C_5  and  C_18
    4  A    between atoms: C_6  and  C_25
    5  A    between atoms: C_17  and  N_26
    6  A    between atoms: C_18  and  C_21
                            x       y       z     vdW  Elec       q    Type
                         _______ _______ _______ _____ _____    ______ ____

>  <TORSDO>
F 6

$$$$
