=
 OpenBabel10232410483D

 35 42  0  0  1  0  0  0  0  0999 V2000
  190.0530  177.3890  141.7600 C   0  0  0  0  0  0  0  0  0  0  0  0
  188.8850  178.2870  141.6280 C   0  0  0  0  0  2  0  0  0  0  0  0
  190.2460  176.5350  140.5650 C   0  0  0  0  0  2  0  0  0  0  0  0
  190.4280  176.9700  142.9330 C   0  0  0  0  0  0  0  0  0  0  0  0
  189.1700  176.9760  139.5800 C   0  0  1  0  0  3  0  0  0  0  0  0
  188.1610  177.7840  140.3940 C   0  0  0  0  0  2  0  0  0  0  0  0
  190.7830  176.5520  144.1210 C   0  0  0  0  0  3  0  0  0  0  0  0
  190.5890  177.0520  146.5940 C   0  0  2  0  0  3  0  0  0  0  0  0
  189.6550  176.9250  147.7920 C   0  0  2  0  0  3  0  0  0  0  0  0
  187.8840  178.0630  146.2040 C   0  0  2  0  0  3  0  0  0  0  0  0
  188.2190  177.4010  147.5510 C   0  0  2  0  0  0  0  0  0  0  0  0
  186.6900  177.3620  145.5820 C   0  0  0  0  0  2  0  0  0  0  0  0
  189.8580  176.6490  145.3070 C   0  0  1  0  0  3  0  0  0  0  0  0
  188.7400  177.6510  145.0020 C   0  0  1  0  0  3  0  0  0  0  0  0
  189.2160  178.2990  148.2570 C   0  0  1  0  0  3  0  0  0  0  0  0
  191.7900  176.1570  146.8520 C   0  0  0  0  0  1  0  0  0  0  0  0
  187.5410  176.9480  144.3920 C   0  0  0  0  0  2  0  0  0  0  0  0
  187.7710  178.2610  148.7140 C   0  0  0  0  0  2  0  0  0  0  0  0
  189.7660  177.8420  138.4610 C   0  0  1  0  0  3  0  0  0  0  0  0
  190.1180  176.1050  136.3950 S   0  0  0  0  0  0  0  0  0  0  0  0
  191.2600  177.6380  138.3210 C   0  0  0  0  0  2  0  0  0  0  0  0
  189.1640  177.4740  137.1170 C   0  0  0  0  0  2  0  0  0  0  0  0
  191.4880  176.3410  137.5650 C   0  0  2  0  0  3  0  0  0  0  0  0
  193.9970  172.9360  136.9450 C   0  0  0  0  0  2  0  0  0  0  0  0
  196.5680  174.7700  134.6690 C   0  0  0  0  0  2  0  0  0  0  0  0
  194.9180  175.5870  136.1300 C   0  0  1  0  0  3  0  0  0  0  0  0
  194.1770  177.0050  134.3460 O   0  0  0  0  0  1  0  0  0  0  0  0
  192.7360  176.3970  136.8400 N   0  0  0  0  0  0  0  0  0  0  0  0
  193.4420  174.1840  137.6650 C   0  0  0  0  0  2  0  0  0  0  0  0
  195.3720  173.1790  136.2900 C   0  0  0  0  0  2  0  0  0  0  0  0
  196.4490  176.2890  134.4520 C   0  0  0  0  0  2  0  0  0  0  0  0
  195.2270  176.7720  135.2370 C   0  0  2  0  0  3  0  0  0  0  0  0
  193.5970  175.4350  136.8270 C   0  0  0  0  0  0  0  0  0  0  0  0
  194.3120  174.0990  134.3460 O   0  0  0  0  0  1  0  0  0  0  0  0
  195.2710  174.3610  135.3320 C   0  0  2  0  0  0  0  0  0  0  0  0
  1  4  2  0  0  0  0
  2  1  1  0  0  0  0
  3  1  1  0  0  0  0
  4  7  2  0  0  0  0
  5  6  1  1  0  0  0
  5  3  1  0  0  0  0
  6  2  1  0  0  0  0
  7 13  1  0  0  0  0
  8 16  1  1  0  0  0
  8  9  1  0  0  0  0
  9 15  1  0  0  0  0
 10 11  1  0  0  0  0
 11  9  1  0  0  0  0
 11 15  1  0  0  0  0
 11 18  1  0  0  0  0
 12 10  1  0  0  0  0
 13  8  1  0  0  0  0
 14 13  1  0  0  0  0
 14 10  1  0  0  0  0
 15 18  1  0  0  0  0
 17 14  1  0  0  0  0
 17 12  1  0  0  0  0
 19  5  1  0  0  0  0
 20 22  1  0  0  0  0
 20 23  1  0  0  0  0
 21 19  1  0  0  0  0
 22 19  1  0  0  0  0
 23 21  1  0  0  0  0
 24 29  1  0  0  0  0
 25 35  1  0  0  0  0
 26 33  1  0  0  0  0
 27 32  1  0  0  0  0
 28 23  1  0  0  0  0
 30 24  1  0  0  0  0
 31 25  1  0  0  0  0
 31 32  1  0  0  0  0
 32 26  1  0  0  0  0
 33 28  2  0  0  0  0
 33 29  1  0  0  0  0
 34 35  1  0  0  0  0
 35 26  1  0  0  0  0
 35 30  1  0  0  0  0
M  END
>  <MODEL>
1

>  <REMARK>
 VINA RESULT:      -9.9      0.000      0.000
  Name = 
  3 active torsions:
  status: ('A' for Active; 'I' for Inactive)
    1  A    between atoms: C_4  and  C_22
    2  A    between atoms: N_9  and  C_29
    3  A    between atoms: C_16  and  C_35
                            x       y       z     vdW  Elec       q    Type
                         _______ _______ _______ _____ _____    ______ ____

>  <TORSDO>
F 3

$$$$
=
 OpenBabel10232410483D

 35 42  0  0  1  0  0  0  0  0999 V2000
  189.5750  177.4920  139.8820 C   0  0  0  0  0  0  0  0  0  0  0  0
  188.5710  177.3070  138.8130 C   0  0  0  0  0  2  0  0  0  0  0  0
  190.7680  176.6360  139.6920 C   0  0  0  0  0  2  0  0  0  0  0  0
  189.2000  177.8380  141.0800 C   0  0  0  0  0  0  0  0  0  0  0  0
  190.5350  175.9130  138.3700 C   0  0  1  0  0  3  0  0  0  0  0  0
  189.0490  176.0820  138.0560 C   0  0  0  0  0  2  0  0  0  0  0  0
  188.8030  178.1770  142.2790 C   0  0  0  0  0  3  0  0  0  0  0  0
  187.1970  178.0730  144.2320 C   0  0  2  0  0  3  0  0  0  0  0  0
  185.7660  177.7130  144.6140 C   0  0  2  0  0  3  0  0  0  0  0  0
  185.1080  179.3020  142.6140 C   0  0  2  0  0  3  0  0  0  0  0  0
  184.6820  178.3150  143.7140 C   0  0  2  0  0  0  0  0  0  0  0  0
  184.5480  178.8430  141.2810 C   0  0  0  0  0  2  0  0  0  0  0  0
  187.3650  178.0380  142.7070 C   0  0  1  0  0  3  0  0  0  0  0  0
  186.5280  179.1450  142.0610 C   0  0  1  0  0  3  0  0  0  0  0  0
  185.0150  178.9560  145.0470 C   0  0  1  0  0  3  0  0  0  0  0  0
  188.1180  177.0750  144.9140 C   0  0  0  0  0  1  0  0  0  0  0  0
  185.9570  178.6810  140.7340 C   0  0  0  0  0  2  0  0  0  0  0  0
  183.5760  178.8910  144.5730 C   0  0  0  0  0  2  0  0  0  0  0  0
  191.3890  176.5210  137.2490 C   0  0  1  0  0  3  0  0  0  0  0  0
  192.3380  174.3600  135.8930 S   0  0  0  0  0  0  0  0  0  0  0  0
  192.8700  176.4380  137.5550 C   0  0  0  0  0  2  0  0  0  0  0  0
  191.1860  175.7660  135.9480 C   0  0  0  0  0  2  0  0  0  0  0  0
  193.3300  175.0210  137.2630 C   0  0  2  0  0  3  0  0  0  0  0  0
  195.8510  171.5920  137.6680 C   0  0  0  0  0  2  0  0  0  0  0  0
  198.9660  173.2120  135.9870 C   0  0  0  0  0  2  0  0  0  0  0  0
  197.0030  174.1570  136.8700 C   0  0  1  0  0  3  0  0  0  0  0  0
  196.7880  175.3830  134.8240 O   0  0  0  0  0  1  0  0  0  0  0  0
  194.7270  175.0140  136.8940 N   0  0  0  0  0  0  0  0  0  0  0  0
  195.1480  172.9000  138.0890 C   0  0  0  0  0  2  0  0  0  0  0  0
  197.3550  171.7800  137.3810 C   0  0  0  0  0  2  0  0  0  0  0  0
  198.9360  174.7000  135.5980 C   0  0  0  0  0  2  0  0  0  0  0  0
  197.5600  175.2490  135.9800 C   0  0  2  0  0  3  0  0  0  0  0  0
  195.5430  174.0640  137.2040 C   0  0  0  0  0  0  0  0  0  0  0  0
  196.8640  172.4930  135.1450 O   0  0  0  0  0  1  0  0  0  0  0  0
  197.5330  172.8600  136.3190 C   0  0  2  0  0  0  0  0  0  0  0  0
  1  4  2  0  0  0  0
  2  1  1  0  0  0  0
  3  1  1  0  0  0  0
  4  7  2  0  0  0  0
  5  6  1  6  0  0  0
  5  3  1  0  0  0  0
  6  2  1  0  0  0  0
  7 13  1  0  0  0  0
  8  9  1  0  0  0  0
  8 16  1  1  0  0  0
  9 15  1  0  0  0  0
 10 11  1  0  0  0  0
 11 18  1  0  0  0  0
 11  9  1  0  0  0  0
 11 15  1  0  0  0  0
 12 10  1  0  0  0  0
 13  8  1  0  0  0  0
 14 10  1  0  0  0  0
 14 13  1  0  0  0  0
 17 12  1  0  0  0  0
 17 14  1  0  0  0  0
 18 15  1  0  0  0  0
 19 21  1  0  0  0  0
 19  5  1  0  0  0  0
 20 22  1  0  0  0  0
 20 23  1  0  0  0  0
 22 19  1  0  0  0  0
 23 21  1  0  0  0  0
 24 29  1  0  0  0  0
 25 35  1  0  0  0  0
 26 33  1  0  0  0  0
 27 32  1  0  0  0  0
 28 33  2  0  0  0  0
 28 23  1  0  0  0  0
 30 24  1  0  0  0  0
 31 32  1  0  0  0  0
 31 25  1  0  0  0  0
 32 26  1  0  0  0  0
 33 29  1  0  0  0  0
 34 35  1  0  0  0  0
 35 26  1  0  0  0  0
 35 30  1  0  0  0  0
M  END
>  <MODEL>
2

>  <REMARK>
 VINA RESULT:      -9.8      2.200      3.457
  Name = 
  3 active torsions:
  status: ('A' for Active; 'I' for Inactive)
    1  A    between atoms: C_4  and  C_22
    2  A    between atoms: N_9  and  C_29
    3  A    between atoms: C_16  and  C_35
                            x       y       z     vdW  Elec       q    Type
                         _______ _______ _______ _____ _____    ______ ____

>  <TORSDO>
F 3

$$$$
=
 OpenBabel10232410483D

 35 42  0  0  1  0  0  0  0  0999 V2000
  189.6480  177.4510  139.9810 C   0  0  0  0  0  0  0  0  0  0  0  0
  188.6680  177.3360  138.8800 C   0  0  0  0  0  2  0  0  0  0  0  0
  190.8100  176.5510  139.8000 C   0  0  0  0  0  2  0  0  0  0  0  0
  189.2530  177.7800  141.1770 C   0  0  0  0  0  0  0  0  0  0  0  0
  190.5850  175.8740  138.4530 C   0  0  1  0  0  3  0  0  0  0  0  0
  189.1170  176.1130  138.1030 C   0  0  0  0  0  2  0  0  0  0  0  0
  188.8360  178.1040  142.3750 C   0  0  0  0  0  3  0  0  0  0  0  0
  187.1700  178.0470  144.2780 C   0  0  2  0  0  3  0  0  0  0  0  0
  185.7160  177.7350  144.6150 C   0  0  2  0  0  3  0  0  0  0  0  0
  185.1740  179.3560  142.6060 C   0  0  2  0  0  3  0  0  0  0  0  0
  184.6810  178.3790  143.6870 C   0  0  2  0  0  0  0  0  0  0  0  0
  184.6380  178.9230  141.2540 C   0  0  0  0  0  2  0  0  0  0  0  0
  187.3810  178.0130  142.7590 C   0  0  1  0  0  3  0  0  0  0  0  0
  186.6040  179.1520  142.0940 C   0  0  1  0  0  3  0  0  0  0  0  0
  184.9960  179.0020  145.0330 C   0  0  1  0  0  3  0  0  0  0  0  0
  188.0340  177.0130  144.9810 C   0  0  0  0  0  1  0  0  0  0  0  0
  186.0570  178.7150  140.7480 C   0  0  0  0  0  2  0  0  0  0  0  0
  183.5710  178.9900  144.5160 C   0  0  0  0  0  2  0  0  0  0  0  0
  191.4950  176.4750  137.3730 C   0  0  1  0  0  3  0  0  0  0  0  0
  191.7240  174.4940  135.5200 S   0  0  0  0  0  0  0  0  0  0  0  0
  192.9140  175.9550  137.4730 C   0  0  0  0  0  2  0  0  0  0  0  0
  191.0060  176.0990  135.9860 C   0  0  0  0  0  2  0  0  0  0  0  0
  192.9490  174.5670  136.8600 C   0  0  2  0  0  3  0  0  0  0  0  0
  195.4100  177.5310  135.0070 C   0  0  0  0  0  2  0  0  0  0  0  0
  198.4970  175.2090  134.5210 C   0  0  0  0  0  2  0  0  0  0  0  0
  196.2430  174.7290  134.9850 C   0  0  1  0  0  3  0  0  0  0  0  0
  197.0090  173.3260  136.7690 O   0  0  0  0  0  1  0  0  0  0  0  0
  194.2620  174.2880  136.3270 N   0  0  0  0  0  0  0  0  0  0  0  0
  194.3400  176.4230  135.0980 C   0  0  0  0  0  2  0  0  0  0  0  0
  196.7200  177.0530  134.3460 C   0  0  0  0  0  2  0  0  0  0  0  0
  198.3880  173.7130  134.8630 C   0  0  0  0  0  2  0  0  0  0  0  0
  196.9710  173.4600  135.3790 C   0  0  2  0  0  3  0  0  0  0  0  0
  194.9220  175.1130  135.5840 C   0  0  0  0  0  0  0  0  0  0  0  0
  197.4880  176.1770  136.4420 O   0  0  0  0  0  1  0  0  0  0  0  0
  197.2520  175.8410  135.1030 C   0  0  2  0  0  0  0  0  0  0  0  0
  1  4  2  0  0  0  0
  2  1  1  0  0  0  0
  3  1  1  0  0  0  0
  4  7  2  0  0  0  0
  5  6  1  6  0  0  0
  5  3  1  0  0  0  0
  6  2  1  0  0  0  0
  7 13  1  0  0  0  0
  8  9  1  0  0  0  0
  8 16  1  1  0  0  0
  9 15  1  0  0  0  0
 10 11  1  0  0  0  0
 11 18  1  0  0  0  0
 11  9  1  0  0  0  0
 11 15  1  0  0  0  0
 12 10  1  0  0  0  0
 13  8  1  0  0  0  0
 14 10  1  0  0  0  0
 14 13  1  0  0  0  0
 17 12  1  0  0  0  0
 17 14  1  0  0  0  0
 18 15  1  0  0  0  0
 19 21  1  0  0  0  0
 19  5  1  0  0  0  0
 20 22  1  0  0  0  0
 20 23  1  0  0  0  0
 22 19  1  0  0  0  0
 23 21  1  0  0  0  0
 24 29  1  0  0  0  0
 25 31  1  0  0  0  0
 25 35  1  0  0  0  0
 26 35  1  0  0  0  0
 26 32  1  0  0  0  0
 26 33  1  0  0  0  0
 28 23  1  0  0  0  0
 29 33  1  0  0  0  0
 30 24  1  0  0  0  0
 30 35  1  0  0  0  0
 31 32  1  0  0  0  0
 32 27  1  0  0  0  0
 33 28  2  0  0  0  0
 35 34  1  0  0  0  0
M  END
>  <MODEL>
3

>  <REMARK>
 VINA RESULT:      -9.2      2.160      3.693
  Name = 
  3 active torsions:
  status: ('A' for Active; 'I' for Inactive)
    1  A    between atoms: C_4  and  C_22
    2  A    between atoms: N_9  and  C_29
    3  A    between atoms: C_16  and  C_35
                            x       y       z     vdW  Elec       q    Type
                         _______ _______ _______ _____ _____    ______ ____

>  <TORSDO>
F 3

$$$$
=
 OpenBabel10232410483D

 35 42  0  0  1  0  0  0  0  0999 V2000
  188.7000  177.2710  140.7230 C   0  0  0  0  0  0  0  0  0  0  0  0
  190.0700  176.7290  140.5950 C   0  0  0  0  0  2  0  0  0  0  0  0
  188.2960  178.0680  139.5420 C   0  0  0  0  0  2  0  0  0  0  0  0
  188.2110  177.5450  141.8980 C   0  0  0  0  0  0  0  0  0  0  0  0
  189.4630  177.9600  138.5680 C   0  0  1  0  0  3  0  0  0  0  0  0
  190.6440  177.4390  139.3840 C   0  0  0  0  0  2  0  0  0  0  0  0
  187.7400  177.8230  143.0870 C   0  0  0  0  0  3  0  0  0  0  0  0
  188.1080  177.2020  145.5130 C   0  0  2  0  0  3  0  0  0  0  0  0
  188.9380  177.5440  146.7450 C   0  0  2  0  0  3  0  0  0  0  0  0
  190.9940  177.2590  145.1180 C   0  0  2  0  0  3  0  0  0  0  0  0
  190.4490  177.6330  146.5060 C   0  0  2  0  0  0  0  0  0  0  0  0
  191.8580  178.3910  144.5940 C   0  0  0  0  0  2  0  0  0  0  0  0
  188.6440  177.9530  144.2870 C   0  0  1  0  0  3  0  0  0  0  0  0
  190.0440  177.4470  143.9310 C   0  0  1  0  0  3  0  0  0  0  0  0
  189.8400  176.3790  147.1030 C   0  0  1  0  0  3  0  0  0  0  0  0
  186.6670  177.5850  145.8100 C   0  0  0  0  0  1  0  0  0  0  0  0
  190.9120  178.5820  143.4190 C   0  0  0  0  0  2  0  0  0  0  0  0
  191.1780  176.8870  147.6040 C   0  0  0  0  0  2  0  0  0  0  0  0
  189.1390  176.9910  137.4220 C   0  0  1  0  0  3  0  0  0  0  0  0
  187.4470  178.4000  135.8210 S   0  0  0  0  0  0  0  0  0  0  0  0
  187.7710  176.3610  137.5820 C   0  0  0  0  0  2  0  0  0  0  0  0
  189.1120  177.7200  136.0910 C   0  0  0  0  0  2  0  0  0  0  0  0
  186.7320  177.3760  137.1400 C   0  0  2  0  0  3  0  0  0  0  0  0
  182.7500  178.5720  138.1310 C   0  0  0  0  0  2  0  0  0  0  0  0
  180.9910  176.0100  135.7860 C   0  0  0  0  0  2  0  0  0  0  0  0
  183.1930  176.1210  136.6010 C   0  0  1  0  0  3  0  0  0  0  0  0
  183.9410  175.8150  134.3460 O   0  0  0  0  0  1  0  0  0  0  0  0
  185.5550  176.7030  136.6430 N   0  0  0  0  0  0  0  0  0  0  0  0
  184.0890  177.8190  138.2800 C   0  0  0  0  0  2  0  0  0  0  0  0
  181.5970  177.6650  137.6530 C   0  0  0  0  0  2  0  0  0  0  0  0
  181.8290  174.9550  135.0430 C   0  0  0  0  0  2  0  0  0  0  0  0
  183.2950  175.1860  135.4130 C   0  0  2  0  0  3  0  0  0  0  0  0
  184.3650  176.9170  137.0960 C   0  0  0  0  0  0  0  0  0  0  0  0
  182.2720  177.9670  135.3720 O   0  0  0  0  0  1  0  0  0  0  0  0
  181.9950  176.9950  136.3420 C   0  0  2  0  0  0  0  0  0  0  0  0
  1  4  2  0  0  0  0
  2  1  1  0  0  0  0
  3  1  1  0  0  0  0
  4  7  2  0  0  0  0
  5  6  1  1  0  0  0
  5  3  1  0  0  0  0
  6  2  1  0  0  0  0
  7 13  1  0  0  0  0
  8 16  1  1  0  0  0
  8  9  1  0  0  0  0
  9 15  1  0  0  0  0
 10 11  1  0  0  0  0
 11  9  1  0  0  0  0
 11 15  1  0  0  0  0
 11 18  1  0  0  0  0
 12 10  1  0  0  0  0
 13  8  1  0  0  0  0
 14 13  1  0  0  0  0
 14 10  1  0  0  0  0
 15 18  1  0  0  0  0
 17 14  1  0  0  0  0
 17 12  1  0  0  0  0
 19 21  1  0  0  0  0
 19  5  1  0  0  0  0
 20 22  1  0  0  0  0
 20 23  1  0  0  0  0
 22 19  1  0  0  0  0
 23 21  1  0  0  0  0
 24 29  1  0  0  0  0
 25 35  1  0  0  0  0
 26 33  1  0  0  0  0
 27 32  1  0  0  0  0
 28 33  2  0  0  0  0
 28 23  1  0  0  0  0
 30 24  1  0  0  0  0
 31 32  1  0  0  0  0
 31 25  1  0  0  0  0
 32 26  1  0  0  0  0
 33 29  1  0  0  0  0
 34 35  1  0  0  0  0
 35 26  1  0  0  0  0
 35 30  1  0  0  0  0
M  END
>  <MODEL>
4

>  <REMARK>
 VINA RESULT:      -9.0      4.616      7.619
  Name = 
  3 active torsions:
  status: ('A' for Active; 'I' for Inactive)
    1  A    between atoms: C_4  and  C_22
    2  A    between atoms: N_9  and  C_29
    3  A    between atoms: C_16  and  C_35
                            x       y       z     vdW  Elec       q    Type
                         _______ _______ _______ _____ _____    ______ ____

>  <TORSDO>
F 3

$$$$
=
 OpenBabel10232410483D

 35 42  0  0  1  0  0  0  0  0999 V2000
  184.1750  178.2010  141.6540 C   0  0  0  0  0  0  0  0  0  0  0  0
  182.7630  178.0740  142.0760 C   0  0  0  0  0  2  0  0  0  0  0  0
  185.0120  178.8670  142.6780 C   0  0  0  0  0  2  0  0  0  0  0  0
  184.4740  178.3060  140.3920 C   0  0  0  0  0  0  0  0  0  0  0  0
  184.0810  179.1110  143.8600 C   0  0  1  0  0  3  0  0  0  0  0  0
  182.6630  178.9370  143.3190 C   0  0  0  0  0  2  0  0  0  0  0  0
  184.7550  178.4200  139.1190 C   0  0  0  0  0  3  0  0  0  0  0  0
  183.2380  177.5790  137.2760 C   0  0  2  0  0  3  0  0  0  0  0  0
  182.3420  178.0390  136.1310 C   0  0  2  0  0  3  0  0  0  0  0  0
  181.2480  179.5960  137.9570 C   0  0  2  0  0  3  0  0  0  0  0  0
  181.3450  179.1460  136.4900 C   0  0  2  0  0  0  0  0  0  0  0  0
  181.4120  181.1030  138.0330 C   0  0  0  0  0  2  0  0  0  0  0  0
  183.7010  178.7850  138.1040 C   0  0  1  0  0  3  0  0  0  0  0  0
  182.5060  179.4250  138.8150 C   0  0  1  0  0  3  0  0  0  0  0  0
  180.8960  177.6980  136.4330 C   0  0  1  0  0  3  0  0  0  0  0  0
  184.4170  176.8400  136.6660 C   0  0  0  0  0  1  0  0  0  0  0  0
  182.6640  180.9330  138.8790 C   0  0  0  0  0  2  0  0  0  0  0  0
  179.9820  178.7980  135.9290 C   0  0  0  0  0  2  0  0  0  0  0  0
  184.3470  178.1070  144.9900 C   0  0  1  0  0  3  0  0  0  0  0  0
  185.9170  179.4800  146.7390 S   0  0  0  0  0  0  0  0  0  0  0  0
  185.7310  177.4990  144.8940 C   0  0  0  0  0  2  0  0  0  0  0  0
  184.2810  178.7910  146.3440 C   0  0  0  0  0  2  0  0  0  0  0  0
  186.7260  178.5110  145.4340 C   0  0  2  0  0  3  0  0  0  0  0  0
  190.0930  177.3340  143.0770 C   0  0  0  0  0  2  0  0  0  0  0  0
  192.2220  176.0500  146.0740 C   0  0  0  0  0  2  0  0  0  0  0  0
  189.9280  176.5250  145.8810 C   0  0  1  0  0  3  0  0  0  0  0  0
  190.1260  177.8240  147.8840 O   0  0  0  0  0  1  0  0  0  0  0  0
  187.8800  177.8350  145.9800 N   0  0  0  0  0  0  0  0  0  0  0  0
  188.7090  177.2040  143.7460 C   0  0  0  0  0  2  0  0  0  0  0  0
  191.1800  176.4840  143.7680 C   0  0  0  0  0  2  0  0  0  0  0  0
  191.6030  175.9960  147.4810 C   0  0  0  0  0  2  0  0  0  0  0  0
  190.1710  176.5230  147.3760 C   0  0  2  0  0  3  0  0  0  0  0  0
  188.7990  177.2910  145.2550 C   0  0  0  0  0  0  0  0  0  0  0  0
  191.5510  178.2210  145.3780 O   0  0  0  0  0  1  0  0  0  0  0  0
  191.2500  176.8600  145.2440 C   0  0  2  0  0  0  0  0  0  0  0  0
  1  2  1  0  0  0  0
  1  3  1  0  0  0  0
  2  6  1  0  0  0  0
  4  1  2  0  0  0  0
  5  3  1  6  0  0  0
  5 19  1  0  0  0  0
  6  5  1  0  0  0  0
  7  4  2  0  0  0  0
  8 16  1  6  0  0  0
  8 13  1  0  0  0  0
  9 15  1  0  0  0  0
  9 11  1  0  0  0  0
  9  8  1  0  0  0  0
 10 12  1  0  0  0  0
 10 14  1  0  0  0  0
 11 10  1  0  0  0  0
 12 17  1  0  0  0  0
 13 14  1  0  0  0  0
 13  7  1  0  0  0  0
 14 17  1  0  0  0  0
 15 11  1  0  0  0  0
 18 15  1  0  0  0  0
 18 11  1  0  0  0  0
 19 22  1  0  0  0  0
 21 19  1  0  0  0  0
 21 23  1  0  0  0  0
 22 20  1  0  0  0  0
 23 28  1  0  0  0  0
 23 20  1  0  0  0  0
 24 29  1  0  0  0  0
 24 30  1  0  0  0  0
 25 31  1  0  0  0  0
 26 32  1  0  0  0  0
 29 33  1  0  0  0  0
 30 35  1  0  0  0  0
 32 31  1  0  0  0  0
 32 27  1  0  0  0  0
 33 26  1  0  0  0  0
 33 28  2  0  0  0  0
 35 34  1  0  0  0  0
 35 26  1  0  0  0  0
 35 25  1  0  0  0  0
M  END
>  <MODEL>
5

>  <REMARK>
 VINA RESULT:      -8.7      6.385     10.531
  Name = 
  3 active torsions:
  status: ('A' for Active; 'I' for Inactive)
    1  A    between atoms: C_4  and  C_22
    2  A    between atoms: N_9  and  C_29
    3  A    between atoms: C_16  and  C_35
                            x       y       z     vdW  Elec       q    Type
                         _______ _______ _______ _____ _____    ______ ____

>  <TORSDO>
F 3

$$$$
=
 OpenBabel10232410483D

 35 42  0  0  1  0  0  0  0  0999 V2000
  185.1360  178.7560  142.8630 C   0  0  0  0  0  0  0  0  0  0  0  0
  184.7920  179.8520  143.7950 C   0  0  0  0  0  2  0  0  0  0  0  0
  183.9530  177.9540  142.4740 C   0  0  0  0  0  2  0  0  0  0  0  0
  186.3160  178.2090  142.9030 C   0  0  0  0  0  0  0  0  0  0  0  0
  182.7680  178.6360  143.1480 C   0  0  1  0  0  3  0  0  0  0  0  0
  183.3630  179.5590  144.2100 C   0  0  0  0  0  2  0  0  0  0  0  0
  187.5040  177.6650  142.9650 C   0  0  0  0  0  3  0  0  0  0  0  0
  187.8850  177.1210  145.4070 C   0  0  2  0  0  3  0  0  0  0  0  0
  188.7030  177.5200  146.6300 C   0  0  2  0  0  3  0  0  0  0  0  0
  190.7690  177.2480  145.0140 C   0  0  2  0  0  3  0  0  0  0  0  0
  190.2110  177.6450  146.3910 C   0  0  2  0  0  0  0  0  0  0  0  0
  191.6020  178.3900  144.4600 C   0  0  0  0  0  2  0  0  0  0  0  0
  188.4010  177.8530  144.1620 C   0  0  1  0  0  3  0  0  0  0  0  0
  189.8160  177.3770  143.8210 C   0  0  1  0  0  3  0  0  0  0  0  0
  189.6360  176.3910  147.0210 C   0  0  1  0  0  3  0  0  0  0  0  0
  186.4330  177.4710  145.6930 C   0  0  0  0  0  1  0  0  0  0  0  0
  190.6520  178.5220  143.2800 C   0  0  0  0  0  2  0  0  0  0  0  0
  190.9590  176.9500  147.5090 C   0  0  0  0  0  2  0  0  0  0  0  0
  181.9480  179.4480  142.1350 C   0  0  1  0  0  3  0  0  0  0  0  0
  180.1600  177.6530  141.1390 S   0  0  0  0  0  0  0  0  0  0  0  0
  182.3710  179.1670  140.7080 C   0  0  0  0  0  2  0  0  0  0  0  0
  180.4770  179.0830  142.2170 C   0  0  0  0  0  2  0  0  0  0  0  0
  181.7530  177.8460  140.2870 C   0  0  2  0  0  3  0  0  0  0  0  0
  184.7810  176.7380  137.4800 C   0  0  0  0  0  2  0  0  0  0  0  0
  182.4780  176.9260  134.3460 C   0  0  0  0  0  2  0  0  0  0  0  0
  182.2210  177.7760  136.5230 C   0  0  1  0  0  3  0  0  0  0  0  0
  180.0400  176.7850  136.5490 O   0  0  0  0  0  1  0  0  0  0  0  0
  181.5410  177.8240  138.8590 N   0  0  0  0  0  0  0  0  0  0  0  0
  183.9560  177.6730  138.3900 C   0  0  0  0  0  2  0  0  0  0  0  0
  184.4570  176.9140  135.9820 C   0  0  0  0  0  2  0  0  0  0  0  0
  181.0380  177.4490  134.4880 C   0  0  0  0  0  2  0  0  0  0  0  0
  180.8140  177.7890  135.9620 C   0  0  2  0  0  3  0  0  0  0  0  0
  182.4940  177.6990  137.9970 C   0  0  0  0  0  0  0  0  0  0  0  0
  182.5870  175.4260  136.1860 O   0  0  0  0  0  1  0  0  0  0  0  0
  182.9620  176.7080  135.7630 C   0  0  2  0  0  0  0  0  0  0  0  0
  1  4  2  0  0  0  0
  1  2  1  0  0  0  0
  2  6  1  0  0  0  0
  3  1  1  0  0  0  0
  4  7  2  0  0  0  0
  5  3  1  6  0  0  0
  5  6  1  0  0  0  0
  7 13  1  0  0  0  0
  8 16  1  1  0  0  0
  8  9  1  0  0  0  0
  9 15  1  0  0  0  0
 10 11  1  0  0  0  0
 11  9  1  0  0  0  0
 11 15  1  0  0  0  0
 11 18  1  0  0  0  0
 12 10  1  0  0  0  0
 13  8  1  0  0  0  0
 14 13  1  0  0  0  0
 14 10  1  0  0  0  0
 15 18  1  0  0  0  0
 17 14  1  0  0  0  0
 17 12  1  0  0  0  0
 19 22  1  0  0  0  0
 19  5  1  0  0  0  0
 20 22  1  0  0  0  0
 21 19  1  0  0  0  0
 23 21  1  0  0  0  0
 23 20  1  0  0  0  0
 24 29  1  0  0  0  0
 25 31  1  0  0  0  0
 25 35  1  0  0  0  0
 26 33  1  0  0  0  0
 28 23  1  0  0  0  0
 30 24  1  0  0  0  0
 31 32  1  0  0  0  0
 32 26  1  0  0  0  0
 32 27  1  0  0  0  0
 33 29  1  0  0  0  0
 33 28  2  0  0  0  0
 35 30  1  0  0  0  0
 35 34  1  0  0  0  0
 35 26  1  0  0  0  0
M  END
>  <MODEL>
6

>  <REMARK>
 VINA RESULT:      -8.6      6.583      8.890
  Name = 
  3 active torsions:
  status: ('A' for Active; 'I' for Inactive)
    1  A    between atoms: C_4  and  C_22
    2  A    between atoms: N_9  and  C_29
    3  A    between atoms: C_16  and  C_35
                            x       y       z     vdW  Elec       q    Type
                         _______ _______ _______ _____ _____    ______ ____

>  <TORSDO>
F 3

$$$$
=
 OpenBabel10232410483D

 35 42  0  0  1  0  0  0  0  0999 V2000
  187.3220  177.8130  142.3500 C   0  0  0  0  0  0  0  0  0  0  0  0
  187.1980  177.1800  143.6810 C   0  0  0  0  0  2  0  0  0  0  0  0
  188.6650  178.3940  142.1240 C   0  0  0  0  0  2  0  0  0  0  0  0
  186.2770  178.3310  141.7720 C   0  0  0  0  0  0  0  0  0  0  0  0
  189.4700  178.0380  143.3680 C   0  0  1  0  0  3  0  0  0  0  0  0
  188.4480  177.6160  144.4220 C   0  0  0  0  0  2  0  0  0  0  0  0
  185.2170  178.8540  141.2110 C   0  0  0  0  0  3  0  0  0  0  0  0
  182.6880  178.7830  141.2460 C   0  0  2  0  0  3  0  0  0  0  0  0
  181.4650  179.3070  141.9910 C   0  0  2  0  0  3  0  0  0  0  0  0
  182.7120  178.4130  144.1360 C   0  0  2  0  0  3  0  0  0  0  0  0
  181.5220  179.1630  143.5160 C   0  0  2  0  0  0  0  0  0  0  0  0
  183.3570  179.2840  145.1990 C   0  0  0  0  0  2  0  0  0  0  0  0
  183.9700  179.1580  142.0010 C   0  0  1  0  0  3  0  0  0  0  0  0
  184.0230  178.4250  143.3440 C   0  0  1  0  0  3  0  0  0  0  0  0
  180.7460  178.1630  142.6790 C   0  0  1  0  0  3  0  0  0  0  0  0
  182.6690  179.3880  139.8520 C   0  0  0  0  0  1  0  0  0  0  0  0
  184.6560  179.3000  144.4090 C   0  0  0  0  0  2  0  0  0  0  0  0
  180.2020  178.6180  144.0200 C   0  0  0  0  0  2  0  0  0  0  0  0
  190.4480  176.8900  143.0840 C   0  0  1  0  0  3  0  0  0  0  0  0
  192.0570  177.8610  141.1140 S   0  0  0  0  0  0  0  0  0  0  0  0
  190.0860  176.1350  141.8230 C   0  0  0  0  0  2  0  0  0  0  0  0
  191.8540  177.4210  142.8670 C   0  0  0  0  0  2  0  0  0  0  0  0
  190.5580  176.9530  140.6340 C   0  0  2  0  0  3  0  0  0  0  0  0
  188.5320  177.1840  136.8770 C   0  0  0  0  0  2  0  0  0  0  0  0
  190.7280  174.5070  135.0980 C   0  0  0  0  0  2  0  0  0  0  0  0
  190.4320  175.0190  137.3730 C   0  0  1  0  0  3  0  0  0  0  0  0
  192.8190  175.0680  137.5730 O   0  0  0  0  0  1  0  0  0  0  0  0
  190.8570  176.0880  139.5170 N   0  0  0  0  0  0  0  0  0  0  0  0
  188.7940  176.7250  138.3280 C   0  0  0  0  0  2  0  0  0  0  0  0
  188.8480  176.0940  135.8330 C   0  0  0  0  0  2  0  0  0  0  0  0
  191.7770  173.7220  135.9040 C   0  0  0  0  0  2  0  0  0  0  0  0
  191.7250  174.2300  137.3460 C   0  0  2  0  0  3  0  0  0  0  0  0
  190.1190  176.0040  138.4610 C   0  0  0  0  0  0  0  0  0  0  0  0
  191.1630  176.7210  135.8440 O   0  0  0  0  0  1  0  0  0  0  0  0
  190.2930  175.6350  136.0070 C   0  0  2  0  0  0  0  0  0  0  0  0
  1  2  1  0  0  0  0
  2  6  1  0  0  0  0
  3  1  1  0  0  0  0
  4  1  2  0  0  0  0
  5  3  1  6  0  0  0
  5  6  1  0  0  0  0
  7  4  2  0  0  0  0
  7 13  1  0  0  0  0
  8 16  1  6  0  0  0
  8  9  1  0  0  0  0
  8 13  1  0  0  0  0
  9 15  1  0  0  0  0
  9 11  1  0  0  0  0
 10 12  1  0  0  0  0
 11 18  1  0  0  0  0
 11 10  1  0  0  0  0
 13 14  1  0  0  0  0
 14 10  1  0  0  0  0
 14 17  1  0  0  0  0
 15 11  1  0  0  0  0
 15 18  1  0  0  0  0
 17 12  1  0  0  0  0
 19  5  1  0  0  0  0
 20 22  1  0  0  0  0
 21 19  1  0  0  0  0
 22 19  1  0  0  0  0
 23 20  1  0  0  0  0
 23 21  1  0  0  0  0
 24 29  1  0  0  0  0
 25 31  1  0  0  0  0
 25 35  1  0  0  0  0
 26 33  1  0  0  0  0
 28 23  1  0  0  0  0
 29 33  1  0  0  0  0
 30 35  1  0  0  0  0
 30 24  1  0  0  0  0
 31 32  1  0  0  0  0
 32 26  1  0  0  0  0
 32 27  1  0  0  0  0
 33 28  2  0  0  0  0
 34 35  1  0  0  0  0
 35 26  1  0  0  0  0
M  END
>  <MODEL>
7

>  <REMARK>
 VINA RESULT:      -8.3      3.542      6.078
  Name = 
  3 active torsions:
  status: ('A' for Active; 'I' for Inactive)
    1  A    between atoms: C_4  and  C_22
    2  A    between atoms: N_9  and  C_29
    3  A    between atoms: C_16  and  C_35
                            x       y       z     vdW  Elec       q    Type
                         _______ _______ _______ _____ _____    ______ ____

>  <TORSDO>
F 3

$$$$
=
 OpenBabel10232410483D

 35 42  0  0  1  0  0  0  0  0999 V2000
  188.6330  177.2890  140.7470 C   0  0  0  0  0  0  0  0  0  0  0  0
  190.0450  176.8580  140.6560 C   0  0  0  0  0  2  0  0  0  0  0  0
  188.1970  178.0530  139.5560 C   0  0  0  0  0  2  0  0  0  0  0  0
  188.0930  177.5200  141.9080 C   0  0  0  0  0  0  0  0  0  0  0  0
  189.3950  178.0410  138.6130 C   0  0  1  0  0  3  0  0  0  0  0  0
  190.5920  177.6150  139.4600 C   0  0  0  0  0  2  0  0  0  0  0  0
  187.5700  177.7560  143.0840 C   0  0  0  0  0  3  0  0  0  0  0  0
  187.8180  177.3230  145.5650 C   0  0  2  0  0  3  0  0  0  0  0  0
  188.6090  177.7390  146.8010 C   0  0  2  0  0  3  0  0  0  0  0  0
  190.7190  177.2620  145.2920 C   0  0  2  0  0  3  0  0  0  0  0  0
  190.1310  177.7630  146.6210 C   0  0  2  0  0  0  0  0  0  0  0  0
  191.6400  178.3230  144.7170 C   0  0  0  0  0  2  0  0  0  0  0  0
  188.4280  177.9570  144.3080 C   0  0  1  0  0  3  0  0  0  0  0  0
  189.8240  177.3820  144.0540 C   0  0  1  0  0  3  0  0  0  0  0  0
  189.4570  176.5800  147.2890 C   0  0  1  0  0  3  0  0  0  0  0  0
  186.3800  177.7710  145.7700 C   0  0  0  0  0  1  0  0  0  0  0  0
  190.7490  178.4460  143.4910 C   0  0  0  0  0  2  0  0  0  0  0  0
  190.7890  177.0870  147.8050 C   0  0  0  0  0  2  0  0  0  0  0  0
  189.1800  177.0510  137.4590 C   0  0  1  0  0  3  0  0  0  0  0  0
  187.1800  178.1690  135.9900 S   0  0  0  0  0  0  0  0  0  0  0  0
  187.9550  176.1870  137.6730 C   0  0  0  0  0  2  0  0  0  0  0  0
  188.9510  177.7890  136.1520 C   0  0  0  0  0  2  0  0  0  0  0  0
  186.7310  177.0110  137.3160 C   0  0  2  0  0  3  0  0  0  0  0  0
  187.2710  172.8650  136.4270 C   0  0  0  0  0  2  0  0  0  0  0  0
  183.5100  172.1350  135.7300 C   0  0  0  0  0  2  0  0  0  0  0  0
  184.7100  174.1530  135.8540 C   0  0  1  0  0  3  0  0  0  0  0  0
  183.0130  174.9590  137.3410 O   0  0  0  0  0  1  0  0  0  0  0  0
  185.6630  176.1510  136.8630 N   0  0  0  0  0  0  0  0  0  0  0  0
  187.2320  174.3850  136.1610 C   0  0  0  0  0  2  0  0  0  0  0  0
  186.0770  172.1120  135.8050 C   0  0  0  0  0  2  0  0  0  0  0  0
  182.4980  173.2940  135.7140 C   0  0  0  0  0  2  0  0  0  0  0  0
  183.2660  174.5810  136.0200 C   0  0  2  0  0  3  0  0  0  0  0  0
  185.8520  174.9640  136.3930 C   0  0  0  0  0  0  0  0  0  0  0  0
  184.7210  172.6330  137.7130 O   0  0  0  0  0  1  0  0  0  0  0  0
  184.7760  172.7220  136.3160 C   0  0  2  0  0  0  0  0  0  0  0  0
  1  4  2  0  0  0  0
  2  1  1  0  0  0  0
  3  1  1  0  0  0  0
  4  7  2  0  0  0  0
  5  6  1  1  0  0  0
  5  3  1  0  0  0  0
  6  2  1  0  0  0  0
  7 13  1  0  0  0  0
  8 16  1  1  0  0  0
  8  9  1  0  0  0  0
  9 15  1  0  0  0  0
 10 11  1  0  0  0  0
 11  9  1  0  0  0  0
 11 15  1  0  0  0  0
 11 18  1  0  0  0  0
 12 10  1  0  0  0  0
 13  8  1  0  0  0  0
 14 13  1  0  0  0  0
 14 10  1  0  0  0  0
 15 18  1  0  0  0  0
 17 14  1  0  0  0  0
 17 12  1  0  0  0  0
 19 21  1  0  0  0  0
 19  5  1  0  0  0  0
 20 22  1  0  0  0  0
 20 23  1  0  0  0  0
 22 19  1  0  0  0  0
 23 21  1  0  0  0  0
 25 35  1  0  0  0  0
 26 32  1  0  0  0  0
 26 35  1  0  0  0  0
 26 33  1  0  0  0  0
 28 23  1  0  0  0  0
 29 33  1  0  0  0  0
 29 24  1  0  0  0  0
 30 35  1  0  0  0  0
 30 24  1  0  0  0  0
 31 25  1  0  0  0  0
 31 32  1  0  0  0  0
 32 27  1  0  0  0  0
 33 28  2  0  0  0  0
 35 34  1  0  0  0  0
M  END
>  <MODEL>
8

>  <REMARK>
 VINA RESULT:      -8.1      4.501      6.540
  Name = 
  3 active torsions:
  status: ('A' for Active; 'I' for Inactive)
    1  A    between atoms: C_4  and  C_22
    2  A    between atoms: N_9  and  C_29
    3  A    between atoms: C_16  and  C_35
                            x       y       z     vdW  Elec       q    Type
                         _______ _______ _______ _____ _____    ______ ____

>  <TORSDO>
F 3

$$$$
=
 OpenBabel10232410483D

 35 42  0  0  1  0  0  0  0  0999 V2000
  193.3620  174.7840  137.6430 C   0  0  0  0  0  0  0  0  0  0  0  0
  192.9640  174.5700  136.2350 C   0  0  0  0  0  2  0  0  0  0  0  0
  192.7380  175.9920  138.2290 C   0  0  0  0  0  2  0  0  0  0  0  0
  194.5240  174.3760  138.0640 C   0  0  0  0  0  0  0  0  0  0  0  0
  191.8230  176.5390  137.1390 C   0  0  1  0  0  3  0  0  0  0  0  0
  192.2580  175.8540  135.8440 C   0  0  0  0  0  2  0  0  0  0  0  0
  195.7010  173.9670  138.4670 C   0  0  0  0  0  3  0  0  0  0  0  0
  198.1920  173.6980  138.1190 C   0  0  2  0  0  3  0  0  0  0  0  0
  199.2630  173.5480  137.0430 C   0  0  2  0  0  3  0  0  0  0  0  0
  197.7180  171.6120  136.1410 C   0  0  2  0  0  3  0  0  0  0  0  0
  198.9670  172.4910  135.9740 C   0  0  2  0  0  0  0  0  0  0  0  0
  196.8830  171.6770  134.8750 C   0  0  0  0  0  2  0  0  0  0  0  0
  196.7950  173.6170  137.4910 C   0  0  1  0  0  3  0  0  0  0  0  0
  196.5510  172.2140  136.9300 C   0  0  1  0  0  3  0  0  0  0  0  0
  199.8980  172.1750  137.1290 C   0  0  1  0  0  3  0  0  0  0  0  0
  198.4150  175.0360  138.8050 C   0  0  0  0  0  1  0  0  0  0  0  0
  195.7270  172.2800  135.6570 C   0  0  0  0  0  2  0  0  0  0  0  0
  200.2050  171.6520  135.7390 C   0  0  0  0  0  2  0  0  0  0  0  0
  190.3520  176.2210  137.4420 C   0  0  1  0  0  3  0  0  0  0  0  0
  189.3570  178.5580  138.4210 S   0  0  0  0  0  0  0  0  0  0  0  0
  190.1120  176.0000  138.9200 C   0  0  0  0  0  2  0  0  0  0  0  0
  189.4570  177.3790  137.0390 C   0  0  0  0  0  2  0  0  0  0  0  0
  190.0520  177.3590  139.5940 C   0  0  2  0  0  3  0  0  0  0  0  0
  191.6070  176.9710  143.5580 C   0  0  0  0  0  2  0  0  0  0  0  0
  188.1650  177.2900  145.3470 C   0  0  0  0  0  2  0  0  0  0  0  0
  188.7220  176.8380  143.1090 C   0  0  1  0  0  3  0  0  0  0  0  0
  187.1710  178.5510  142.4770 O   0  0  0  0  0  1  0  0  0  0  0  0
  189.2180  177.2980  140.7720 N   0  0  0  0  0  0  0  0  0  0  0  0
  191.0760  176.5070  142.1850 C   0  0  0  0  0  2  0  0  0  0  0  0
  190.5920  176.7610  144.7000 C   0  0  0  0  0  2  0  0  0  0  0  0
  186.8730  177.3460  144.5130 C   0  0  0  0  0  2  0  0  0  0  0  0
  187.2740  177.2750  143.0390 C   0  0  2  0  0  3  0  0  0  0  0  0
  189.6560  176.9720  141.9420 C   0  0  0  0  0  0  0  0  0  0  0  0
  189.5230  178.8400  144.1650 O   0  0  0  0  0  1  0  0  0  0  0  0
  189.2880  177.4710  144.3510 C   0  0  2  0  0  0  0  0  0  0  0  0
  1  4  2  0  0  0  0
  1  3  1  0  0  0  0
  2  1  1  0  0  0  0
  4  7  2  0  0  0  0
  5  6  1  6  0  0  0
  5 19  1  0  0  0  0
  5  3  1  0  0  0  0
  6  2  1  0  0  0  0
  8 16  1  6  0  0  0
  9 15  1  0  0  0  0
  9  8  1  0  0  0  0
 10 14  1  0  0  0  0
 11 10  1  0  0  0  0
 11  9  1  0  0  0  0
 11 15  1  0  0  0  0
 12 17  1  0  0  0  0
 12 10  1  0  0  0  0
 13  8  1  0  0  0  0
 13  7  1  0  0  0  0
 14 13  1  0  0  0  0
 17 14  1  0  0  0  0
 18 11  1  0  0  0  0
 18 15  1  0  0  0  0
 19 21  1  0  0  0  0
 20 23  1  0  0  0  0
 21 23  1  0  0  0  0
 22 19  1  0  0  0  0
 22 20  1  0  0  0  0
 23 28  1  0  0  0  0
 24 30  1  0  0  0  0
 26 35  1  0  0  0  0
 27 32  1  0  0  0  0
 28 33  2  0  0  0  0
 29 24  1  0  0  0  0
 31 25  1  0  0  0  0
 32 26  1  0  0  0  0
 32 31  1  0  0  0  0
 33 29  1  0  0  0  0
 33 26  1  0  0  0  0
 34 35  1  0  0  0  0
 35 30  1  0  0  0  0
 35 25  1  0  0  0  0
M  END
>  <MODEL>
9

>  <REMARK>
 VINA RESULT:      -8.1      3.519     10.520
  Name = 
  3 active torsions:
  status: ('A' for Active; 'I' for Inactive)
    1  A    between atoms: C_4  and  C_22
    2  A    between atoms: N_9  and  C_29
    3  A    between atoms: C_16  and  C_35
                            x       y       z     vdW  Elec       q    Type
                         _______ _______ _______ _____ _____    ______ ____

>  <TORSDO>
F 3

$$$$
