=
 OpenBabel10232408023D

 46 50  0  0  1  0  0  0  0  0999 V2000
  182.6290  179.8540  138.8570 C   0  0  0  0  0  1  0  0  0  0  0  0
  184.0030  179.3760  139.2880 C   0  0  1  0  0  3  0  0  0  0  0  0
  184.0400  179.2670  140.7360 N   0  0  0  0  0  2  0  0  0  0  0  0
  185.4310  179.0920  141.1300 C   0  0  0  0  0  2  0  0  0  0  0  0
  184.4930  179.5040  143.4730 C   0  0  0  0  0  2  0  0  0  0  0  0
  189.3050  176.9070  141.2830 C   0  0  2  0  0  3  0  0  0  0  0  0
  187.6450  177.6340  142.8270 N   0  0  0  0  0  0  0  0  0  0  0  0
  186.1390  178.1580  144.6070 N   0  0  0  0  0  0  0  0  0  0  0  0
  188.1360  177.8580  141.4810 C   0  0  0  0  0  2  0  0  0  0  0  0
  184.3410  179.0360  145.8530 O   0  0  0  0  0  0  0  0  0  0  0  0
  188.4190  176.6410  143.5530 C   0  0  1  0  0  3  0  0  0  0  0  0
  189.4330  176.0860  142.5590 C   0  0  0  0  0  2  0  0  0  0  0  0
  185.5370  179.0300  142.5820 N   0  0  0  0  0  0  0  0  0  0  0  0
  184.9400  178.9050  144.7550 C   0  0  0  0  0  0  0  0  0  0  0  0
  186.4570  178.2490  143.3570 C   0  0  0  0  0  0  0  0  0  0  0  0
  188.0280  177.4610  148.4740 C   0  0  0  0  0  1  0  0  0  0  0  0
  188.8760  177.7120  147.2460 C   0  0  1  0  0  3  0  0  0  0  0  0
  190.2790  177.1570  147.4690 C   0  0  0  0  0  2  0  0  0  0  0  0
  189.0920  177.2550  144.7900 C   0  0  1  0  0  3  0  0  0  0  0  0
  188.2300  177.0450  146.0350 C   0  0  0  0  0  2  0  0  0  0  0  0
  190.5140  176.7240  145.0160 C   0  0  0  0  0  2  0  0  0  0  0  0
  191.1420  177.3950  146.2340 C   0  0  0  0  0  2  0  0  0  0  0  0
  191.7210  177.1050  141.8770 C   0  0  0  0  0  1  0  0  0  0  0  0
  190.5870  177.6900  141.0550 C   0  0  0  0  0  2  0  0  0  0  0  0
  184.3030  178.0190  138.6700 C   0  0  0  0  0  2  0  0  0  0  0  0
  183.2560  176.9890  139.0710 C   0  0  0  0  0  2  0  0  0  0  0  0
  182.8900  176.1670  137.9260 N   0  0  0  0  0  0  0  0  0  0  0  0
  182.7850  176.9610  135.6730 N   0  0  0  0  0  1  0  0  0  0  0  0
  184.3920  174.6010  137.2100 C   0  0  0  0  0  0  0  0  0  0  0  0
  184.5710  175.5580  136.3790 N   0  0  0  0  0  0  0  0  0  0  0  0
  183.4010  174.8830  138.1650 N   0  0  0  0  0  2  0  0  0  0  0  0
  183.6780  176.6430  136.7740 C   0  0  2  0  0  3  0  0  0  0  0  0
  185.0870  173.2900  137.1060 C   0  0  0  0  0  2  0  0  0  0  0  0
  186.1500  173.3960  136.2060 O   0  0  0  0  0  0  0  0  0  0  0  0
  187.8110  171.9450  136.7680 O   0  0  0  0  0  1  0  0  0  0  0  0
  187.2960  173.2250  136.9850 C   0  0  1  0  0  3  0  0  0  0  0  0
  190.0940  176.3410  137.3090 O   0  0  0  0  0  0  0  0  0  0  0  0
  189.0770  178.9610  137.9770 C   0  0  0  0  0  1  0  0  0  0  0  0
  190.6500  175.0860  136.9110 C   0  0  2  0  0  3  0  0  0  0  0  0
  189.6920  173.9460  137.2410 C   0  0  0  0  0  2  0  0  0  0  0  0
  188.3390  174.2740  136.6110 C   0  0  2  0  0  3  0  0  0  0  0  0
  188.1960  177.8540  137.6480 N   0  0  0  0  0  2  0  0  0  0  0  0
  188.7110  176.5710  137.3000 C   0  0  0  0  0  0  0  0  0  0  0  0
  187.8860  175.6080  137.0190 N   0  0  0  0  0  0  0  0  0  0  0  0
  192.0210  174.8740  137.5440 C   0  0  0  0  0  2  0  0  0  0  0  0
  192.6100  176.1740  138.0710 C   0  0  0  0  0  1  0  0  0  0  0  0
  2  1  1  1  0  0  0
  2  3  1  0  0  0  0
  3  4  1  0  0  0  0
  4 13  1  0  0  0  0
  5 14  1  0  0  0  0
  6 24  1  1  0  0  0
  6  9  1  0  0  0  0
  6 12  1  0  0  0  0
  7 15  1  0  0  0  0
  7 11  1  0  0  0  0
  8 14  1  0  0  0  0
  9  7  1  0  0  0  0
 11 12  1  6  0  0  0
 11 19  1  0  0  0  0
 13 15  1  0  0  0  0
 13  5  1  0  0  0  0
 14 10  2  0  0  0  0
 15  8  2  0  0  0  0
 17 18  1  0  0  0  0
 17 16  1  1  0  0  0
 19 21  1  1  0  0  0
 19 20  1  0  0  0  0
 20 17  1  0  0  0  0
 21 22  1  0  0  0  0
 22 18  1  0  0  0  0
 24 23  1  0  0  0  0
 25 26  1  0  0  0  0
 25  2  1  0  0  0  0
 27 31  1  0  0  0  0
 27 26  1  0  0  0  0
 29 31  1  0  0  0  0
 30 32  1  0  0  0  0
 30 29  2  0  0  0  0
 32 28  1  6  0  0  0
 32 27  1  0  0  0  0
 33 29  1  0  0  0  0
 34 36  1  0  0  0  0
 34 33  1  0  0  0  0
 36 35  1  6  0  0  0
 39 40  1  0  0  0  0
 39 37  1  0  0  0  0
 39 45  1  1  0  0  0
 41 36  1  1  0  0  0
 41 44  1  0  0  0  0
 41 40  1  0  0  0  0
 42 38  1  0  0  0  0
 43 37  1  0  0  0  0
 43 42  1  0  0  0  0
 44 43  2  0  0  0  0
 45 46  1  0  0  0  0
M  END
>  <MODEL>
1

>  <REMARK>
 VINA RESULT:      -8.3      0.000      0.000
  Name = 
  13 active torsions:
  status: ('A' for Active; 'I' for Inactive)
    1  A    between atoms: N_4  and  C_6
    2  A    between atoms: C_6  and  C_34
    3  A    between atoms: C_7  and  O_28
    4  A    between atoms: C_7  and  C_36
    5  A    between atoms: C_11  and  C_16
    6  A    between atoms: C_13  and  C_18
    7  A    between atoms: C_14  and  C_32
    8  A    between atoms: C_26  and  C_27
    9  A    between atoms: C_26  and  O_28
   10  A    between atoms: N_29  and  C_35
   11  A    between atoms: N_29  and  C_39
   12  A    between atoms: C_34  and  C_35
   13  A    between atoms: N_37  and  C_39
                            x       y       z     vdW  Elec       q    Type
                         _______ _______ _______ _____ _____    ______ ____

>  <TORSDO>
F 13

$$$$
=
 OpenBabel10232408023D

 46 50  0  0  1  0  0  0  0  0999 V2000
  187.5840  177.9370  136.2500 C   0  0  0  0  0  1  0  0  0  0  0  0
  188.4600  177.9620  137.4880 C   0  0  1  0  0  3  0  0  0  0  0  0
  187.7830  178.7010  138.5390 N   0  0  0  0  0  2  0  0  0  0  0  0
  188.3430  178.2700  139.8120 C   0  0  0  0  0  2  0  0  0  0  0  0
  185.9920  178.8540  140.6300 C   0  0  0  0  0  2  0  0  0  0  0  0
  190.9300  176.8630  143.1490 C   0  0  2  0  0  3  0  0  0  0  0  0
  188.6570  177.5040  142.8490 N   0  0  0  0  0  0  0  0  0  0  0  0
  186.3220  178.0100  142.8640 N   0  0  0  0  0  0  0  0  0  0  0  0
  189.9670  177.6070  142.2380 C   0  0  0  0  0  2  0  0  0  0  0  0
  184.1680  178.7280  142.2310 O   0  0  0  0  0  0  0  0  0  0  0  0
  188.6770  176.7850  144.1120 C   0  0  1  0  0  3  0  0  0  0  0  0
  190.1040  176.2780  144.2870 C   0  0  0  0  0  2  0  0  0  0  0  0
  187.3630  178.4460  140.8760 N   0  0  0  0  0  0  0  0  0  0  0  0
  185.3790  178.5440  141.9450 C   0  0  0  0  0  0  0  0  0  0  0  0
  187.4460  177.9680  142.2270 C   0  0  0  0  0  0  0  0  0  0  0  0
  184.8380  178.2060  146.9910 C   0  0  0  0  0  1  0  0  0  0  0  0
  186.3020  178.4400  146.6840 C   0  0  1  0  0  3  0  0  0  0  0  0
  187.1330  178.2060  147.9420 C   0  0  0  0  0  2  0  0  0  0  0  0
  188.2330  177.6880  145.2730 C   0  0  1  0  0  3  0  0  0  0  0  0
  186.7470  177.4940  145.5730 C   0  0  0  0  0  2  0  0  0  0  0  0
  189.0750  177.4820  146.5400 C   0  0  0  0  0  2  0  0  0  0  0  0
  188.6120  178.4290  147.6430 C   0  0  0  0  0  2  0  0  0  0  0  0
  191.3550  179.1890  143.9470 C   0  0  0  0  0  1  0  0  0  0  0  0
  191.9660  177.8190  143.7150 C   0  0  0  0  0  2  0  0  0  0  0  0
  188.7370  176.5430  137.9630 C   0  0  0  0  0  2  0  0  0  0  0  0
  188.6650  175.5540  136.8090 C   0  0  0  0  0  2  0  0  0  0  0  0
  189.0840  174.2310  137.2490 N   0  0  0  0  0  0  0  0  0  0  0  0
  188.1180  172.1830  136.4800 N   0  0  0  0  0  1  0  0  0  0  0  0
  191.1040  173.4490  136.5180 C   0  0  0  0  0  0  0  0  0  0  0  0
  190.2780  172.8540  135.7420 N   0  0  0  0  0  0  0  0  0  0  0  0
  190.4710  174.2880  137.4520 N   0  0  0  0  0  2  0  0  0  0  0  0
  188.9400  173.3180  136.1000 C   0  0  2  0  0  3  0  0  0  0  0  0
  192.5690  173.1940  136.4990 C   0  0  0  0  0  2  0  0  0  0  0  0
  193.2290  174.2190  137.1800 O   0  0  0  0  0  0  0  0  0  0  0  0
  194.6480  172.4580  136.9150 O   0  0  0  0  0  1  0  0  0  0  0  0
  194.4240  173.6440  137.6180 C   0  0  1  0  0  3  0  0  0  0  0  0
  198.3180  175.1350  137.1070 O   0  0  0  0  0  0  0  0  0  0  0  0
  200.0600  175.0860  139.4110 C   0  0  0  0  0  1  0  0  0  0  0  0
  197.4850  175.2480  135.9520 C   0  0  2  0  0  3  0  0  0  0  0  0
  196.2830  174.3150  136.0630 C   0  0  0  0  0  2  0  0  0  0  0  0
  195.5820  174.6110  137.3870 C   0  0  2  0  0  3  0  0  0  0  0  0
  198.6440  174.7820  139.5110 N   0  0  0  0  0  2  0  0  0  0  0  0
  197.7900  174.8290  138.3700 C   0  0  0  0  0  0  0  0  0  0  0  0
  196.5300  174.5440  138.5040 N   0  0  0  0  0  0  0  0  0  0  0  0
  198.2840  174.9920  134.6790 C   0  0  0  0  0  2  0  0  0  0  0  0
  199.4290  174.0180  134.9140 C   0  0  0  0  0  1  0  0  0  0  0  0
  2  1  1  6  0  0  0
  2 25  1  0  0  0  0
  2  3  1  0  0  0  0
  3  4  1  0  0  0  0
  4 13  1  0  0  0  0
  5 13  1  0  0  0  0
  5 14  1  0  0  0  0
  6 24  1  1  0  0  0
  6 12  1  0  0  0  0
  7 11  1  0  0  0  0
  9  7  1  0  0  0  0
  9  6  1  0  0  0  0
 11 12  1  1  0  0  0
 11 19  1  0  0  0  0
 13 15  1  0  0  0  0
 14 10  2  0  0  0  0
 14  8  1  0  0  0  0
 15  7  1  0  0  0  0
 15  8  2  0  0  0  0
 17 16  1  1  0  0  0
 17 18  1  0  0  0  0
 19 20  1  1  0  0  0
 19 21  1  0  0  0  0
 20 17  1  0  0  0  0
 21 22  1  0  0  0  0
 22 18  1  0  0  0  0
 24 23  1  0  0  0  0
 26 27  1  0  0  0  0
 26 25  1  0  0  0  0
 27 31  1  0  0  0  0
 29 31  1  0  0  0  0
 30 32  1  0  0  0  0
 30 29  2  0  0  0  0
 32 28  1  1  0  0  0
 32 27  1  0  0  0  0
 33 29  1  0  0  0  0
 33 34  1  0  0  0  0
 34 36  1  0  0  0  0
 36 35  1  6  0  0  0
 37 43  1  0  0  0  0
 38 42  1  0  0  0  0
 39 45  1  6  0  0  0
 39 40  1  0  0  0  0
 39 37  1  0  0  0  0
 40 41  1  0  0  0  0
 41 36  1  1  0  0  0
 41 44  1  0  0  0  0
 43 44  2  0  0  0  0
 43 42  1  0  0  0  0
 45 46  1  0  0  0  0
M  END
>  <MODEL>
2

>  <REMARK>
 VINA RESULT:      -8.1      3.901      5.714
  Name = 
  13 active torsions:
  status: ('A' for Active; 'I' for Inactive)
    1  A    between atoms: N_4  and  C_6
    2  A    between atoms: C_6  and  C_34
    3  A    between atoms: C_7  and  O_28
    4  A    between atoms: C_7  and  C_36
    5  A    between atoms: C_11  and  C_16
    6  A    between atoms: C_13  and  C_18
    7  A    between atoms: C_14  and  C_32
    8  A    between atoms: C_26  and  C_27
    9  A    between atoms: C_26  and  O_28
   10  A    between atoms: N_29  and  C_35
   11  A    between atoms: N_29  and  C_39
   12  A    between atoms: C_34  and  C_35
   13  A    between atoms: N_37  and  C_39
                            x       y       z     vdW  Elec       q    Type
                         _______ _______ _______ _____ _____    ______ ____

>  <TORSDO>
F 13

$$$$
=
 OpenBabel10232408023D

 46 50  0  0  1  0  0  0  0  0999 V2000
  188.4300  178.6670  136.7630 C   0  0  0  0  0  1  0  0  0  0  0  0
  189.3680  178.8100  137.9450 C   0  0  1  0  0  3  0  0  0  0  0  0
  188.6000  179.1590  139.1270 N   0  0  0  0  0  2  0  0  0  0  0  0
  187.7070  178.0460  139.4180 C   0  0  0  0  0  2  0  0  0  0  0  0
  185.5710  178.9520  140.4940 C   0  0  0  0  0  2  0  0  0  0  0  0
  190.4290  176.2550  142.4490 C   0  0  2  0  0  3  0  0  0  0  0  0
  188.2520  177.2160  142.4050 N   0  0  0  0  0  0  0  0  0  0  0  0
  186.0300  178.0490  142.6820 N   0  0  0  0  0  0  0  0  0  0  0  0
  189.4860  177.1370  141.6480 C   0  0  0  0  0  2  0  0  0  0  0  0
  183.9420  179.0730  142.2940 O   0  0  0  0  0  0  0  0  0  0  0  0
  188.3130  176.4910  143.6630 C   0  0  1  0  0  3  0  0  0  0  0  0
  189.6640  175.7840  143.6780 C   0  0  0  0  0  2  0  0  0  0  0  0
  186.8900  178.3510  140.5860 N   0  0  0  0  0  0  0  0  0  0  0  0
  185.0740  178.7200  141.8730 C   0  0  0  0  0  0  0  0  0  0  0  0
  187.0570  177.8540  141.9210 C   0  0  0  0  0  0  0  0  0  0  0  0
  185.0830  178.3610  146.9960 C   0  0  0  0  0  1  0  0  0  0  0  0
  186.5120  178.4150  146.4990 C   0  0  1  0  0  3  0  0  0  0  0  0
  187.4640  178.0760  147.6420 C   0  0  0  0  0  2  0  0  0  0  0  0
  188.1380  177.4360  144.8600 C   0  0  1  0  0  3  0  0  0  0  0  0
  186.6900  177.4260  145.3520 C   0  0  0  0  0  2  0  0  0  0  0  0
  189.1050  177.1240  146.0100 C   0  0  0  0  0  2  0  0  0  0  0  0
  188.9090  178.1170  147.1520 C   0  0  0  0  0  2  0  0  0  0  0  0
  191.2500  178.4560  143.2910 C   0  0  0  0  0  1  0  0  0  0  0  0
  191.6490  177.0490  142.8860 C   0  0  0  0  0  2  0  0  0  0  0  0
  190.1070  177.5020  138.1900 C   0  0  0  0  0  2  0  0  0  0  0  0
  190.4740  176.8250  136.8770 C   0  0  0  0  0  2  0  0  0  0  0  0
  191.3750  175.7070  137.1190 N   0  0  0  0  0  0  0  0  0  0  0  0
  191.0070  173.4820  136.3240 N   0  0  0  0  0  1  0  0  0  0  0  0
  193.3700  175.6800  136.0050 C   0  0  0  0  0  0  0  0  0  0  0  0
  192.6570  174.8690  135.3180 N   0  0  0  0  0  0  0  0  0  0  0  0
  192.6790  176.2220  137.1020 N   0  0  0  0  0  2  0  0  0  0  0  0
  191.3300  174.8410  135.9260 C   0  0  2  0  0  3  0  0  0  0  0  0
  194.8090  175.9360  135.7280 C   0  0  0  0  0  2  0  0  0  0  0  0
  195.5870  175.3470  136.7270 O   0  0  0  0  0  0  0  0  0  0  0  0
  197.7170  176.0880  136.4140 O   0  0  0  0  0  1  0  0  0  0  0  0
  196.8100  175.0700  136.1110 C   0  0  1  0  0  3  0  0  0  0  0  0
  197.2060  170.9390  136.7550 O   0  0  0  0  0  0  0  0  0  0  0  0
  195.2000  169.6630  138.3980 C   0  0  0  0  0  1  0  0  0  0  0  0
  198.2630  171.5220  135.9920 C   0  0  2  0  0  3  0  0  0  0  0  0
  197.8390  172.8780  135.4350 C   0  0  0  0  0  2  0  0  0  0  0  0
  197.3480  173.7310  136.6030 C   0  0  2  0  0  3  0  0  0  0  0  0
  195.2810  171.1070  138.2640 N   0  0  0  0  0  2  0  0  0  0  0  0
  196.2880  171.7260  137.4660 C   0  0  0  0  0  0  0  0  0  0  0  0
  196.3190  173.0200  137.3700 N   0  0  0  0  0  0  0  0  0  0  0  0
  198.7230  170.5760  134.8880 C   0  0  0  0  0  2  0  0  0  0  0  0
  198.6920  169.1230  135.3370 C   0  0  0  0  0  1  0  0  0  0  0  0
  2  1  1  6  0  0  0
  2 25  1  0  0  0  0
  2  3  1  0  0  0  0
  3  4  1  0  0  0  0
  4 13  1  0  0  0  0
  5 13  1  0  0  0  0
  5 14  1  0  0  0  0
  6 24  1  1  0  0  0
  6 12  1  0  0  0  0
  7 11  1  0  0  0  0
  9  7  1  0  0  0  0
  9  6  1  0  0  0  0
 11 12  1  1  0  0  0
 11 19  1  0  0  0  0
 13 15  1  0  0  0  0
 14 10  2  0  0  0  0
 14  8  1  0  0  0  0
 15  7  1  0  0  0  0
 15  8  2  0  0  0  0
 17 16  1  1  0  0  0
 17 18  1  0  0  0  0
 19 20  1  1  0  0  0
 19 21  1  0  0  0  0
 20 17  1  0  0  0  0
 21 22  1  0  0  0  0
 22 18  1  0  0  0  0
 24 23  1  0  0  0  0
 26 27  1  0  0  0  0
 26 25  1  0  0  0  0
 29 31  1  0  0  0  0
 30 32  1  0  0  0  0
 30 29  2  0  0  0  0
 31 27  1  0  0  0  0
 32 28  1  1  0  0  0
 32 27  1  0  0  0  0
 33 29  1  0  0  0  0
 33 34  1  0  0  0  0
 36 35  1  1  0  0  0
 36 34  1  0  0  0  0
 37 43  1  0  0  0  0
 39 45  1  6  0  0  0
 39 37  1  0  0  0  0
 40 39  1  0  0  0  0
 40 41  1  0  0  0  0
 41 36  1  6  0  0  0
 41 44  1  0  0  0  0
 42 38  1  0  0  0  0
 43 42  1  0  0  0  0
 44 43  2  0  0  0  0
 45 46  1  0  0  0  0
M  END
>  <MODEL>
3

>  <REMARK>
 VINA RESULT:      -7.7      4.298      6.601
  Name = 
  13 active torsions:
  status: ('A' for Active; 'I' for Inactive)
    1  A    between atoms: N_4  and  C_6
    2  A    between atoms: C_6  and  C_34
    3  A    between atoms: C_7  and  O_28
    4  A    between atoms: C_7  and  C_36
    5  A    between atoms: C_11  and  C_16
    6  A    between atoms: C_13  and  C_18
    7  A    between atoms: C_14  and  C_32
    8  A    between atoms: C_26  and  C_27
    9  A    between atoms: C_26  and  O_28
   10  A    between atoms: N_29  and  C_35
   11  A    between atoms: N_29  and  C_39
   12  A    between atoms: C_34  and  C_35
   13  A    between atoms: N_37  and  C_39
                            x       y       z     vdW  Elec       q    Type
                         _______ _______ _______ _____ _____    ______ ____

>  <TORSDO>
F 13

$$$$
=
 OpenBabel10232408023D

 46 50  0  0  1  0  0  0  0  0999 V2000
  182.7800  179.5970  138.9890 C   0  0  0  0  0  1  0  0  0  0  0  0
  183.1960  178.5830  140.0370 C   0  0  1  0  0  3  0  0  0  0  0  0
  183.2070  177.2570  139.4420 N   0  0  0  0  0  2  0  0  0  0  0  0
  183.8340  177.3660  138.1320 C   0  0  0  0  0  2  0  0  0  0  0  0
  183.4120  174.9030  137.5880 C   0  0  0  0  0  2  0  0  0  0  0  0
  187.9900  178.5780  137.0990 C   0  0  2  0  0  3  0  0  0  0  0  0
  186.6300  176.6360  136.8850 N   0  0  0  0  0  0  0  0  0  0  0  0
  185.5140  174.5670  136.4560 N   0  0  0  0  0  0  0  0  0  0  0  0
  186.7350  177.8870  137.6090 C   0  0  0  0  0  2  0  0  0  0  0  0
  183.9230  172.8280  136.4300 O   0  0  0  0  0  0  0  0  0  0  0  0
  187.7350  176.4200  135.9650 C   0  0  1  0  0  3  0  0  0  0  0  0
  188.5750  177.6910  136.0090 C   0  0  0  0  0  2  0  0  0  0  0  0
  184.2900  176.0570  137.6840 N   0  0  0  0  0  0  0  0  0  0  0  0
  184.2600  173.9870  136.7840 C   0  0  0  0  0  0  0  0  0  0  0  0
  185.5030  175.7470  136.9850 C   0  0  0  0  0  0  0  0  0  0  0  0
  189.2850  171.8970  134.4890 C   0  0  0  0  0  1  0  0  0  0  0  0
  189.2810  172.8860  135.6350 C   0  0  1  0  0  3  0  0  0  0  0  0
  190.7160  173.2300  136.0180 C   0  0  0  0  0  2  0  0  0  0  0  0
  188.5450  175.1730  136.3500 C   0  0  1  0  0  3  0  0  0  0  0  0
  188.5270  174.1450  135.2190 C   0  0  0  0  0  2  0  0  0  0  0  0
  189.9850  175.5050  136.7620 C   0  0  0  0  0  2  0  0  0  0  0  0
  190.7260  174.2350  137.1670 C   0  0  0  0  0  2  0  0  0  0  0  0
  188.7020  177.7500  139.3430 C   0  0  0  0  0  1  0  0  0  0  0  0
  189.0000  178.7310  138.2240 C   0  0  0  0  0  2  0  0  0  0  0  0
  184.5850  178.9120  140.5640 C   0  0  0  0  0  2  0  0  0  0  0  0
  184.7790  178.3720  141.9740 C   0  0  0  0  0  2  0  0  0  0  0  0
  184.3230  179.3460  142.9560 N   0  0  0  0  0  0  0  0  0  0  0  0
  182.0260  179.7780  143.4630 N   0  0  0  0  0  1  0  0  0  0  0  0
  184.6280  178.8590  145.1680 C   0  0  0  0  0  0  0  0  0  0  0  0
  183.3950  178.5670  144.9860 N   0  0  0  0  0  0  0  0  0  0  0  0
  185.2540  179.3360  144.0040 N   0  0  0  0  0  2  0  0  0  0  0  0
  183.0990  178.8050  143.5770 C   0  0  2  0  0  3  0  0  0  0  0  0
  185.2920  178.7990  146.4970 C   0  0  0  0  0  2  0  0  0  0  0  0
  186.2370  177.7700  146.5000 O   0  0  0  0  0  0  0  0  0  0  0  0
  187.2930  177.4040  148.4830 O   0  0  0  0  0  1  0  0  0  0  0  0
  187.2510  178.2190  147.3490 C   0  0  1  0  0  3  0  0  0  0  0  0
  190.7610  176.7450  145.5730 O   0  0  0  0  0  0  0  0  0  0  0  0
  192.7360  175.5790  147.3300 C   0  0  0  0  0  1  0  0  0  0  0  0
  189.8540  177.3690  144.6620 C   0  0  2  0  0  3  0  0  0  0  0  0
  188.4610  177.4690  145.2760 C   0  0  0  0  0  2  0  0  0  0  0  0
  188.5940  178.1710  146.6260 C   0  0  2  0  0  3  0  0  0  0  0  0
  191.5790  176.2920  147.8400 N   0  0  0  0  0  2  0  0  0  0  0  0
  190.6210  176.8810  146.9620 C   0  0  0  0  0  0  0  0  0  0  0  0
  189.5980  177.5050  147.4620 N   0  0  0  0  0  0  0  0  0  0  0  0
  189.8330  176.6320  143.3270 C   0  0  0  0  0  2  0  0  0  0  0  0
  188.4350  176.1500  142.9680 C   0  0  0  0  0  1  0  0  0  0  0  0
  2  1  1  6  0  0  0
  2 25  1  0  0  0  0
  3  2  1  0  0  0  0
  4  3  1  0  0  0  0
  5 13  1  0  0  0  0
  6  9  1  0  0  0  0
  6 24  1  1  0  0  0
  7 15  1  0  0  0  0
  7  9  1  0  0  0  0
  8 14  1  0  0  0  0
  8 15  2  0  0  0  0
 10 14  2  0  0  0  0
 11 12  1  1  0  0  0
 11 19  1  0  0  0  0
 11  7  1  0  0  0  0
 12  6  1  0  0  0  0
 13  4  1  0  0  0  0
 14  5  1  0  0  0  0
 15 13  1  0  0  0  0
 17 16  1  6  0  0  0
 17 18  1  0  0  0  0
 18 22  1  0  0  0  0
 19 20  1  6  0  0  0
 19 21  1  0  0  0  0
 20 17  1  0  0  0  0
 21 22  1  0  0  0  0
 24 23  1  0  0  0  0
 25 26  1  0  0  0  0
 26 27  1  0  0  0  0
 27 32  1  0  0  0  0
 27 31  1  0  0  0  0
 29 33  1  0  0  0  0
 30 29  2  0  0  0  0
 31 29  1  0  0  0  0
 32 28  1  1  0  0  0
 32 30  1  0  0  0  0
 33 34  1  0  0  0  0
 34 36  1  0  0  0  0
 36 35  1  1  0  0  0
 37 43  1  0  0  0  0
 38 42  1  0  0  0  0
 39 45  1  6  0  0  0
 39 40  1  0  0  0  0
 39 37  1  0  0  0  0
 40 41  1  0  0  0  0
 41 36  1  1  0  0  0
 41 44  1  0  0  0  0
 43 44  2  0  0  0  0
 43 42  1  0  0  0  0
 46 45  1  0  0  0  0
M  END
>  <MODEL>
4

>  <REMARK>
 VINA RESULT:      -7.7      2.289      8.545
  Name = 
  13 active torsions:
  status: ('A' for Active; 'I' for Inactive)
    1  A    between atoms: N_4  and  C_6
    2  A    between atoms: C_6  and  C_34
    3  A    between atoms: C_7  and  O_28
    4  A    between atoms: C_7  and  C_36
    5  A    between atoms: C_11  and  C_16
    6  A    between atoms: C_13  and  C_18
    7  A    between atoms: C_14  and  C_32
    8  A    between atoms: C_26  and  C_27
    9  A    between atoms: C_26  and  O_28
   10  A    between atoms: N_29  and  C_35
   11  A    between atoms: N_29  and  C_39
   12  A    between atoms: C_34  and  C_35
   13  A    between atoms: N_37  and  C_39
                            x       y       z     vdW  Elec       q    Type
                         _______ _______ _______ _____ _____    ______ ____

>  <TORSDO>
F 13

$$$$
=
 OpenBabel10232408023D

 46 50  0  0  1  0  0  0  0  0999 V2000
  182.7370  176.7380  140.0010 C   0  0  0  0  0  1  0  0  0  0  0  0
  183.1900  177.8400  140.9390 C   0  0  1  0  0  3  0  0  0  0  0  0
  184.6410  177.8400  141.0130 N   0  0  0  0  0  2  0  0  0  0  0  0
  185.0550  179.1240  141.5610 C   0  0  0  0  0  2  0  0  0  0  0  0
  184.2750  179.4230  143.9780 C   0  0  0  0  0  2  0  0  0  0  0  0
  188.9830  177.0430  141.3570 C   0  0  2  0  0  3  0  0  0  0  0  0
  187.4190  177.6660  143.0400 N   0  0  0  0  0  0  0  0  0  0  0  0
  186.0310  178.0810  144.9410 N   0  0  0  0  0  0  0  0  0  0  0  0
  187.8070  177.9530  141.6740 C   0  0  0  0  0  2  0  0  0  0  0  0
  184.3050  178.8620  146.3430 O   0  0  0  0  0  0  0  0  0  0  0  0
  188.2670  176.6680  143.6710 C   0  0  1  0  0  3  0  0  0  0  0  0
  189.2210  176.1780  142.5870 C   0  0  0  0  0  2  0  0  0  0  0  0
  185.2650  179.0110  142.9990 N   0  0  0  0  0  0  0  0  0  0  0  0
  184.8280  178.7890  145.2010 C   0  0  0  0  0  0  0  0  0  0  0  0
  186.2570  178.2280  143.6760 C   0  0  0  0  0  0  0  0  0  0  0  0
  188.0810  177.5330  148.5960 C   0  0  0  0  0  1  0  0  0  0  0  0
  188.9000  177.7340  147.3390 C   0  0  1  0  0  3  0  0  0  0  0  0
  190.2790  177.1090  147.5210 C   0  0  0  0  0  2  0  0  0  0  0  0
  189.0100  177.2530  144.8810 C   0  0  1  0  0  3  0  0  0  0  0  0
  188.1810  177.0940  146.1550 C   0  0  0  0  0  2  0  0  0  0  0  0
  190.4100  176.6520  145.0650 C   0  0  0  0  0  2  0  0  0  0  0  0
  191.1120  177.2960  146.2560 C   0  0  0  0  0  2  0  0  0  0  0  0
  191.4280  177.2880  141.7930 C   0  0  0  0  0  1  0  0  0  0  0  0
  190.2260  177.8690  141.0700 C   0  0  0  0  0  2  0  0  0  0  0  0
  182.7090  179.1920  140.4310 C   0  0  0  0  0  2  0  0  0  0  0  0
  181.2100  179.3540  140.6380 C   0  0  0  0  0  2  0  0  0  0  0  0
  180.5980  179.9530  139.4600 N   0  0  0  0  0  0  0  0  0  0  0  0
  181.4490  181.8830  138.3330 N   0  0  0  0  0  1  0  0  0  0  0  0
  180.7670  178.8290  137.4770 C   0  0  0  0  0  0  0  0  0  0  0  0
  181.6810  179.7190  137.3710 N   0  0  0  0  0  0  0  0  0  0  0  0
  180.0700  178.9040  138.6950 N   0  0  0  0  0  2  0  0  0  0  0  0
  181.6890  180.4790  138.6180 C   0  0  2  0  0  3  0  0  0  0  0  0
  180.4140  177.8890  136.3810 C   0  0  0  0  0  2  0  0  0  0  0  0
  181.5720  177.5160  135.6950 O   0  0  0  0  0  0  0  0  0  0  0  0
  181.4220  175.2740  136.0580 O   0  0  0  0  0  1  0  0  0  0  0  0
  182.0900  176.4440  136.4250 C   0  0  1  0  0  3  0  0  0  0  0  0
  186.2270  176.0430  137.0310 O   0  0  0  0  0  0  0  0  0  0  0  0
  187.6190  178.3120  138.1550 C   0  0  0  0  0  1  0  0  0  0  0  0
  185.6080  174.9140  136.4120 C   0  0  2  0  0  3  0  0  0  0  0  0
  184.0980  174.9440  136.6290 C   0  0  0  0  0  2  0  0  0  0  0  0
  183.5830  176.2990  136.1470 C   0  0  2  0  0  3  0  0  0  0  0  0
  186.2360  178.3960  137.7210 N   0  0  0  0  0  2  0  0  0  0  0  0
  185.5660  177.2750  137.1490 C   0  0  0  0  0  0  0  0  0  0  0  0
  184.3260  177.3930  136.7800 N   0  0  0  0  0  0  0  0  0  0  0  0
  186.2250  173.6130  136.9130 C   0  0  0  0  0  2  0  0  0  0  0  0
  185.2340  172.7880  137.7210 C   0  0  0  0  0  1  0  0  0  0  0  0
  2  1  1  6  0  0  0
  2  3  1  0  0  0  0
  3  4  1  0  0  0  0
  4 13  1  0  0  0  0
  5 14  1  0  0  0  0
  6 24  1  1  0  0  0
  6  9  1  0  0  0  0
  6 12  1  0  0  0  0
  7 11  1  0  0  0  0
  7 15  1  0  0  0  0
  8 14  1  0  0  0  0
  9  7  1  0  0  0  0
 11 12  1  6  0  0  0
 11 19  1  0  0  0  0
 13 15  1  0  0  0  0
 13  5  1  0  0  0  0
 14 10  2  0  0  0  0
 15  8  2  0  0  0  0
 17 18  1  0  0  0  0
 17 16  1  1  0  0  0
 19 21  1  1  0  0  0
 19 20  1  0  0  0  0
 20 17  1  0  0  0  0
 21 22  1  0  0  0  0
 22 18  1  0  0  0  0
 24 23  1  0  0  0  0
 25 26  1  0  0  0  0
 25  2  1  0  0  0  0
 27 26  1  0  0  0  0
 29 31  1  0  0  0  0
 30 29  2  0  0  0  0
 30 32  1  0  0  0  0
 31 27  1  0  0  0  0
 32 28  1  6  0  0  0
 32 27  1  0  0  0  0
 33 29  1  0  0  0  0
 34 33  1  0  0  0  0
 34 36  1  0  0  0  0
 36 35  1  6  0  0  0
 37 43  1  0  0  0  0
 39 40  1  0  0  0  0
 39 45  1  1  0  0  0
 39 37  1  0  0  0  0
 41 36  1  1  0  0  0
 41 40  1  0  0  0  0
 41 44  1  0  0  0  0
 42 38  1  0  0  0  0
 43 42  1  0  0  0  0
 44 43  2  0  0  0  0
 45 46  1  0  0  0  0
M  END
>  <MODEL>
5

>  <REMARK>
 VINA RESULT:      -7.6      2.054      3.643
  Name = 
  13 active torsions:
  status: ('A' for Active; 'I' for Inactive)
    1  A    between atoms: N_4  and  C_6
    2  A    between atoms: C_6  and  C_34
    3  A    between atoms: C_7  and  O_28
    4  A    between atoms: C_7  and  C_36
    5  A    between atoms: C_11  and  C_16
    6  A    between atoms: C_13  and  C_18
    7  A    between atoms: C_14  and  C_32
    8  A    between atoms: C_26  and  C_27
    9  A    between atoms: C_26  and  O_28
   10  A    between atoms: N_29  and  C_35
   11  A    between atoms: N_29  and  C_39
   12  A    between atoms: C_34  and  C_35
   13  A    between atoms: N_37  and  C_39
                            x       y       z     vdW  Elec       q    Type
                         _______ _______ _______ _____ _____    ______ ____

>  <TORSDO>
F 13

$$$$
=
 OpenBabel10232408023D

 46 50  0  0  1  0  0  0  0  0999 V2000
  186.8160  178.4090  146.8610 C   0  0  0  0  0  1  0  0  0  0  0  0
  185.9740  178.0430  145.6540 C   0  0  1  0  0  3  0  0  0  0  0  0
  185.1810  179.1940  145.2580 N   0  0  0  0  0  2  0  0  0  0  0  0
  184.9830  179.1180  143.8170 C   0  0  0  0  0  2  0  0  0  0  0  0
  182.5540  178.7660  144.5360 C   0  0  0  0  0  2  0  0  0  0  0  0
  185.4080  178.9920  139.3890 C   0  0  2  0  0  3  0  0  0  0  0  0
  183.6400  178.8980  140.9790 N   0  0  0  0  0  0  0  0  0  0  0  0
  181.6510  178.8500  142.3030 N   0  0  0  0  0  0  0  0  0  0  0  0
  185.0740  178.7360  140.8490 C   0  0  0  0  0  2  0  0  0  0  0  0
  180.1580  178.7570  144.1250 O   0  0  0  0  0  0  0  0  0  0  0  0
  182.9880  179.2020  139.7160 C   0  0  1  0  0  3  0  0  0  0  0  0
  184.1070  179.3640  138.6920 C   0  0  0  0  0  2  0  0  0  0  0  0
  183.5870  178.8240  143.5180 N   0  0  0  0  0  0  0  0  0  0  0  0
  181.3370  178.7900  143.6870 C   0  0  0  0  0  0  0  0  0  0  0  0
  182.9420  178.8660  142.2370 C   0  0  0  0  0  0  0  0  0  0  0  0
  180.2210  177.2810  136.0160 C   0  0  0  0  0  1  0  0  0  0  0  0
  180.5660  177.1660  137.4850 C   0  0  1  0  0  3  0  0  0  0  0  0
  181.1120  175.7710  137.7740 C   0  0  0  0  0  2  0  0  0  0  0  0
  181.9940  178.1000  139.3220 C   0  0  1  0  0  3  0  0  0  0  0  0
  181.6020  178.2250  137.8490 C   0  0  0  0  0  2  0  0  0  0  0  0
  182.5170  176.6910  139.6290 C   0  0  0  0  0  2  0  0  0  0  0  0
  181.4730  175.6440  139.2510 C   0  0  0  0  0  2  0  0  0  0  0  0
  185.3190  177.4690  137.4140 C   0  0  0  0  0  1  0  0  0  0  0  0
  185.9840  177.7380  138.7520 C   0  0  0  0  0  2  0  0  0  0  0  0
  186.8680  177.6220  144.4980 C   0  0  0  0  0  2  0  0  0  0  0  0
  188.2140  177.1180  145.0000 C   0  0  0  0  0  2  0  0  0  0  0  0
  189.2990  177.8340  144.3440 N   0  0  0  0  0  0  0  0  0  0  0  0
  191.6150  177.5460  144.8650 N   0  0  0  0  0  1  0  0  0  0  0  0
  189.8040  177.2690  142.1880 C   0  0  0  0  0  0  0  0  0  0  0  0
  190.7060  176.6530  142.8560 N   0  0  0  0  0  0  0  0  0  0  0  0
  188.9260  178.0030  143.0030 N   0  0  0  0  0  2  0  0  0  0  0  0
  190.4500  176.9150  144.2690 C   0  0  2  0  0  3  0  0  0  0  0  0
  189.7620  177.2890  140.7020 C   0  0  0  0  0  2  0  0  0  0  0  0
  190.7240  176.4130  140.1960 O   0  0  0  0  0  0  0  0  0  0  0  0
  192.8220  177.2890  140.3070 O   0  0  0  0  0  1  0  0  0  0  0  0
  191.6500  177.2340  139.5490 C   0  0  1  0  0  3  0  0  0  0  0  0
  193.0180  174.6980  136.4930 O   0  0  0  0  0  0  0  0  0  0  0  0
  195.8780  174.4100  136.2010 C   0  0  0  0  0  1  0  0  0  0  0  0
  191.5990  174.8510  136.5430 C   0  0  2  0  0  3  0  0  0  0  0  0
  191.1650  175.3990  137.9000 C   0  0  0  0  0  2  0  0  0  0  0  0
  191.9560  176.6800  138.1610 C   0  0  2  0  0  3  0  0  0  0  0  0
  195.2910  175.4000  137.0860 N   0  0  0  0  0  2  0  0  0  0  0  0
  193.8770  175.5460  137.2060 C   0  0  0  0  0  0  0  0  0  0  0  0
  193.3960  176.4410  138.0150 N   0  0  0  0  0  0  0  0  0  0  0  0
  190.8990  173.5370  136.2140 C   0  0  0  0  0  2  0  0  0  0  0  0
  189.5850  173.3890  136.9680 C   0  0  0  0  0  1  0  0  0  0  0  0
  2  1  1  1  0  0  0
  3  2  1  0  0  0  0
  4  3  1  0  0  0  0
  6 24  1  6  0  0  0
  6  9  1  0  0  0  0
  7 15  1  0  0  0  0
  8 14  1  0  0  0  0
  9  7  1  0  0  0  0
 11 12  1  6  0  0  0
 11  7  1  0  0  0  0
 12  6  1  0  0  0  0
 13  4  1  0  0  0  0
 13  5  1  0  0  0  0
 14 10  2  0  0  0  0
 14  5  1  0  0  0  0
 15  8  2  0  0  0  0
 15 13  1  0  0  0  0
 17 16  1  6  0  0  0
 17 18  1  0  0  0  0
 17 20  1  0  0  0  0
 18 22  1  0  0  0  0
 19 20  1  6  0  0  0
 19 21  1  0  0  0  0
 19 11  1  0  0  0  0
 22 21  1  0  0  0  0
 23 24  1  0  0  0  0
 25 26  1  0  0  0  0
 25  2  1  0  0  0  0
 27 26  1  0  0  0  0
 29 30  2  0  0  0  0
 29 31  1  0  0  0  0
 30 32  1  0  0  0  0
 31 27  1  0  0  0  0
 32 27  1  0  0  0  0
 32 28  1  6  0  0  0
 33 29  1  0  0  0  0
 34 33  1  0  0  0  0
 36 34  1  0  0  0  0
 36 35  1  1  0  0  0
 37 39  1  0  0  0  0
 37 43  1  0  0  0  0
 38 42  1  0  0  0  0
 39 45  1  1  0  0  0
 39 40  1  0  0  0  0
 40 41  1  0  0  0  0
 41 36  1  1  0  0  0
 42 43  1  0  0  0  0
 43 44  2  0  0  0  0
 44 41  1  0  0  0  0
 45 46  1  0  0  0  0
M  END
>  <MODEL>
6

>  <REMARK>
 VINA RESULT:      -7.6      2.935      7.507
  Name = 
  13 active torsions:
  status: ('A' for Active; 'I' for Inactive)
    1  A    between atoms: N_4  and  C_6
    2  A    between atoms: C_6  and  C_34
    3  A    between atoms: C_7  and  O_28
    4  A    between atoms: C_7  and  C_36
    5  A    between atoms: C_11  and  C_16
    6  A    between atoms: C_13  and  C_18
    7  A    between atoms: C_14  and  C_32
    8  A    between atoms: C_26  and  C_27
    9  A    between atoms: C_26  and  O_28
   10  A    between atoms: N_29  and  C_35
   11  A    between atoms: N_29  and  C_39
   12  A    between atoms: C_34  and  C_35
   13  A    between atoms: N_37  and  C_39
                            x       y       z     vdW  Elec       q    Type
                         _______ _______ _______ _____ _____    ______ ____

>  <TORSDO>
F 13

$$$$
=
 OpenBabel10232408023D

 46 50  0  0  1  0  0  0  0  0999 V2000
  186.8830  178.2320  137.0130 C   0  0  0  0  0  1  0  0  0  0  0  0
  188.1940  178.9810  137.1540 C   0  0  1  0  0  3  0  0  0  0  0  0
  188.4910  179.1640  138.5640 N   0  0  0  0  0  2  0  0  0  0  0  0
  188.0750  177.9570  139.2640 C   0  0  0  0  0  2  0  0  0  0  0  0
  185.9060  178.9270  140.2100 C   0  0  0  0  0  2  0  0  0  0  0  0
  190.5970  176.1670  142.4640 C   0  0  2  0  0  3  0  0  0  0  0  0
  188.4460  177.1720  142.2890 N   0  0  0  0  0  0  0  0  0  0  0  0
  186.2300  178.0560  142.4350 N   0  0  0  0  0  0  0  0  0  0  0  0
  189.7150  177.0530  141.5990 C   0  0  0  0  0  2  0  0  0  0  0  0
  184.1880  179.1150  141.9200 O   0  0  0  0  0  0  0  0  0  0  0  0
  188.4250  176.4690  143.5610 C   0  0  1  0  0  3  0  0  0  0  0  0
  189.7580  175.7350  143.6590 C   0  0  0  0  0  2  0  0  0  0  0  0
  187.2050  178.3000  140.3810 N   0  0  0  0  0  0  0  0  0  0  0  0
  185.3330  178.7310  141.5650 C   0  0  0  0  0  0  0  0  0  0  0  0
  187.2910  177.8250  141.7320 C   0  0  0  0  0  0  0  0  0  0  0  0
  185.0810  178.4130  146.7360 C   0  0  0  0  0  1  0  0  0  0  0  0
  186.5270  178.4550  146.2890 C   0  0  1  0  0  3  0  0  0  0  0  0
  187.4370  178.1410  147.4720 C   0  0  0  0  0  2  0  0  0  0  0  0
  188.2090  177.4410  144.7310 C   0  0  1  0  0  3  0  0  0  0  0  0
  186.7440  177.4410  145.1700 C   0  0  0  0  0  2  0  0  0  0  0  0
  189.1340  177.1540  145.9210 C   0  0  0  0  0  2  0  0  0  0  0  0
  188.8980  178.1700  147.0330 C   0  0  0  0  0  2  0  0  0  0  0  0
  191.4070  178.3450  143.3740 C   0  0  0  0  0  1  0  0  0  0  0  0
  191.8090  176.9440  142.9500 C   0  0  0  0  0  2  0  0  0  0  0  0
  189.3200  178.1960  136.4970 C   0  0  0  0  0  2  0  0  0  0  0  0
  190.2030  177.5260  137.5410 C   0  0  0  0  0  2  0  0  0  0  0  0
  191.0250  176.4960  136.9220 N   0  0  0  0  0  0  0  0  0  0  0  0
  192.9080  175.4600  137.9730 N   0  0  0  0  0  1  0  0  0  0  0  0
  190.1240  174.4100  136.6800 C   0  0  0  0  0  0  0  0  0  0  0  0
  190.8600  174.2760  137.7200 N   0  0  0  0  0  0  0  0  0  0  0  0
  190.1710  175.7060  136.1400 N   0  0  0  0  0  2  0  0  0  0  0  0
  191.4600  175.5790  137.9930 C   0  0  2  0  0  3  0  0  0  0  0  0
  189.3860  173.2810  136.0540 C   0  0  0  0  0  2  0  0  0  0  0  0
  188.3450  172.8810  136.8950 O   0  0  0  0  0  0  0  0  0  0  0  0
  187.1980  173.8130  135.1630 O   0  0  0  0  0  1  0  0  0  0  0  0
  187.2730  173.7090  136.5540 C   0  0  1  0  0  3  0  0  0  0  0  0
  183.1960  172.7910  136.9790 O   0  0  0  0  0  0  0  0  0  0  0  0
  181.4270  174.9570  137.7040 C   0  0  0  0  0  1  0  0  0  0  0  0
  184.0280  171.6670  136.6850 C   0  0  2  0  0  3  0  0  0  0  0  0
  185.3690  172.1240  136.1200 C   0  0  0  0  0  2  0  0  0  0  0  0
  185.9730  173.1270  137.1010 C   0  0  2  0  0  3  0  0  0  0  0  0
  182.8710  175.1060  137.7180 N   0  0  0  0  0  2  0  0  0  0  0  0
  183.7350  174.0230  137.3770 C   0  0  0  0  0  0  0  0  0  0  0  0
  185.0210  174.2030  137.3970 N   0  0  0  0  0  0  0  0  0  0  0  0
  183.3190  170.6970  135.7470 C   0  0  0  0  0  2  0  0  0  0  0  0
  183.7400  169.2560  135.9970 C   0  0  0  0  0  1  0  0  0  0  0  0
  2  1  1  1  0  0  0
  2  3  1  0  0  0  0
  3  4  1  0  0  0  0
  4 13  1  0  0  0  0
  5 13  1  0  0  0  0
  5 14  1  0  0  0  0
  6 24  1  1  0  0  0
  6 12  1  0  0  0  0
  7 11  1  0  0  0  0
  9  7  1  0  0  0  0
  9  6  1  0  0  0  0
 11 12  1  1  0  0  0
 11 19  1  0  0  0  0
 13 15  1  0  0  0  0
 14 10  2  0  0  0  0
 14  8  1  0  0  0  0
 15  7  1  0  0  0  0
 15  8  2  0  0  0  0
 17 16  1  1  0  0  0
 17 18  1  0  0  0  0
 19 20  1  1  0  0  0
 19 21  1  0  0  0  0
 20 17  1  0  0  0  0
 21 22  1  0  0  0  0
 22 18  1  0  0  0  0
 24 23  1  0  0  0  0
 25  2  1  0  0  0  0
 25 26  1  0  0  0  0
 27 26  1  0  0  0  0
 27 32  1  0  0  0  0
 29 30  2  0  0  0  0
 30 32  1  0  0  0  0
 31 29  1  0  0  0  0
 31 27  1  0  0  0  0
 32 28  1  6  0  0  0
 33 29  1  0  0  0  0
 33 34  1  0  0  0  0
 36 35  1  6  0  0  0
 36 34  1  0  0  0  0
 37 43  1  0  0  0  0
 38 42  1  0  0  0  0
 39 45  1  6  0  0  0
 39 37  1  0  0  0  0
 40 39  1  0  0  0  0
 40 41  1  0  0  0  0
 41 36  1  6  0  0  0
 41 44  1  0  0  0  0
 43 44  2  0  0  0  0
 43 42  1  0  0  0  0
 45 46  1  0  0  0  0
M  END
>  <MODEL>
7

>  <REMARK>
 VINA RESULT:      -7.5      2.050      5.117
  Name = 
  13 active torsions:
  status: ('A' for Active; 'I' for Inactive)
    1  A    between atoms: N_4  and  C_6
    2  A    between atoms: C_6  and  C_34
    3  A    between atoms: C_7  and  O_28
    4  A    between atoms: C_7  and  C_36
    5  A    between atoms: C_11  and  C_16
    6  A    between atoms: C_13  and  C_18
    7  A    between atoms: C_14  and  C_32
    8  A    between atoms: C_26  and  C_27
    9  A    between atoms: C_26  and  O_28
   10  A    between atoms: N_29  and  C_35
   11  A    between atoms: N_29  and  C_39
   12  A    between atoms: C_34  and  C_35
   13  A    between atoms: N_37  and  C_39
                            x       y       z     vdW  Elec       q    Type
                         _______ _______ _______ _____ _____    ______ ____

>  <TORSDO>
F 13

$$$$
=
 OpenBabel10232408023D

 46 50  0  0  1  0  0  0  0  0999 V2000
  187.8380  174.1360  135.9600 C   0  0  0  0  0  1  0  0  0  0  0  0
  188.8390  175.0870  136.5870 C   0  0  1  0  0  3  0  0  0  0  0  0
  190.1620  174.8070  136.0590 N   0  0  0  0  0  2  0  0  0  0  0  0
  190.9260  174.1470  137.1090 C   0  0  0  0  0  2  0  0  0  0  0  0
  191.7810  176.2920  138.2080 C   0  0  0  0  0  2  0  0  0  0  0  0
  194.2640  171.3690  136.1350 C   0  0  2  0  0  3  0  0  0  0  0  0
  193.9970  173.4690  137.2250 N   0  0  0  0  0  0  0  0  0  0  0  0
  194.0560  175.5300  138.4330 N   0  0  0  0  0  0  0  0  0  0  0  0
  193.3350  172.5600  136.3100 C   0  0  0  0  0  2  0  0  0  0  0  0
  193.4490  177.5870  139.4110 O   0  0  0  0  0  0  0  0  0  0  0  0
  195.3070  172.9970  137.6420 C   0  0  1  0  0  3  0  0  0  0  0  0
  195.4690  171.6080  137.0350 C   0  0  0  0  0  2  0  0  0  0  0  0
  192.0080  175.0130  137.5600 N   0  0  0  0  0  0  0  0  0  0  0  0
  193.1350  176.5640  138.7490 C   0  0  0  0  0  0  0  0  0  0  0  0
  193.3850  174.6600  137.7510 C   0  0  0  0  0  0  0  0  0  0  0  0
  200.2310  173.5910  136.9770 C   0  0  0  0  0  1  0  0  0  0  0  0
  198.8860  174.2800  136.9060 C   0  0  1  0  0  3  0  0  0  0  0  0
  198.6520  174.8020  135.4920 C   0  0  0  0  0  2  0  0  0  0  0  0
  196.4150  173.9610  137.1920 C   0  0  1  0  0  3  0  0  0  0  0  0
  197.7870  173.2950  137.2940 C   0  0  0  0  0  2  0  0  0  0  0  0
  196.1830  174.5150  135.7790 C   0  0  0  0  0  2  0  0  0  0  0  0
  197.2930  175.4910  135.4040 C   0  0  0  0  0  2  0  0  0  0  0  0
  196.2240  171.0510  134.6240 C   0  0  0  0  0  1  0  0  0  0  0  0
  194.7230  171.2670  134.6900 C   0  0  0  0  0  2  0  0  0  0  0  0
  188.4620  176.5280  136.2710 C   0  0  0  0  0  2  0  0  0  0  0  0
  187.8580  177.2160  137.4880 C   0  0  0  0  0  2  0  0  0  0  0  0
  186.7140  178.0260  137.0940 N   0  0  0  0  0  0  0  0  0  0  0  0
  185.0040  177.3050  135.5870 N   0  0  0  0  0  1  0  0  0  0  0  0
  185.0740  178.3860  138.6440 C   0  0  0  0  0  0  0  0  0  0  0  0
  184.5750  177.4540  137.9220 N   0  0  0  0  0  0  0  0  0  0  0  0
  186.3490  178.7880  138.2130 N   0  0  0  0  0  2  0  0  0  0  0  0
  185.5700  177.1140  136.9100 C   0  0  2  0  0  3  0  0  0  0  0  0
  184.3330  179.0430  139.7540 C   0  0  0  0  0  2  0  0  0  0  0  0
  185.2380  179.4850  140.7210 O   0  0  0  0  0  0  0  0  0  0  0  0
  183.4810  178.4180  141.6980 O   0  0  0  0  0  1  0  0  0  0  0  0
  184.6960  179.0630  141.9370 C   0  0  1  0  0  3  0  0  0  0  0  0
  188.0430  177.6160  144.0220 O   0  0  0  0  0  0  0  0  0  0  0  0
  190.5800  177.6710  142.6410 C   0  0  0  0  0  1  0  0  0  0  0  0
  186.8080  177.5000  144.7320 C   0  0  2  0  0  3  0  0  0  0  0  0
  185.7530  178.4200  144.1260 C   0  0  0  0  0  2  0  0  0  0  0  0
  185.6620  178.1100  142.6330 C   0  0  2  0  0  3  0  0  0  0  0  0
  189.3290  177.9600  141.9630 N   0  0  0  0  0  2  0  0  0  0  0  0
  188.0800  177.9100  142.6510 C   0  0  0  0  0  0  0  0  0  0  0  0
  186.9860  178.1810  142.0060 N   0  0  0  0  0  0  0  0  0  0  0  0
  187.0090  177.7710  146.2190 C   0  0  0  0  0  2  0  0  0  0  0  0
  185.7760  178.3980  146.8530 C   0  0  0  0  0  1  0  0  0  0  0  0
  2  1  1  6  0  0  0
  3  2  1  0  0  0  0
  3  4  1  0  0  0  0
  4 13  1  0  0  0  0
  5 14  1  0  0  0  0
  6 24  1  6  0  0  0
  6  9  1  0  0  0  0
  6 12  1  0  0  0  0
  7 11  1  0  0  0  0
  7 15  1  0  0  0  0
  8 14  1  0  0  0  0
  9  7  1  0  0  0  0
 11 12  1  6  0  0  0
 13 15  1  0  0  0  0
 13  5  1  0  0  0  0
 14 10  2  0  0  0  0
 15  8  2  0  0  0  0
 17 16  1  6  0  0  0
 17 20  1  0  0  0  0
 18 17  1  0  0  0  0
 19 21  1  6  0  0  0
 19 20  1  0  0  0  0
 19 11  1  0  0  0  0
 22 18  1  0  0  0  0
 22 21  1  0  0  0  0
 23 24  1  0  0  0  0
 25  2  1  0  0  0  0
 25 26  1  0  0  0  0
 27 26  1  0  0  0  0
 27 31  1  0  0  0  0
 29 33  1  0  0  0  0
 30 29  2  0  0  0  0
 31 29  1  0  0  0  0
 32 28  1  6  0  0  0
 32 27  1  0  0  0  0
 32 30  1  0  0  0  0
 33 34  1  0  0  0  0
 34 36  1  0  0  0  0
 36 35  1  6  0  0  0
 37 39  1  0  0  0  0
 39 45  1  1  0  0  0
 40 39  1  0  0  0  0
 41 36  1  6  0  0  0
 41 40  1  0  0  0  0
 42 38  1  0  0  0  0
 42 43  1  0  0  0  0
 43 37  1  0  0  0  0
 44 41  1  0  0  0  0
 44 43  2  0  0  0  0
 45 46  1  0  0  0  0
M  END
>  <MODEL>
8

>  <REMARK>
 VINA RESULT:      -7.5      3.716      9.128
  Name = 
  13 active torsions:
  status: ('A' for Active; 'I' for Inactive)
    1  A    between atoms: N_4  and  C_6
    2  A    between atoms: C_6  and  C_34
    3  A    between atoms: C_7  and  O_28
    4  A    between atoms: C_7  and  C_36
    5  A    between atoms: C_11  and  C_16
    6  A    between atoms: C_13  and  C_18
    7  A    between atoms: C_14  and  C_32
    8  A    between atoms: C_26  and  C_27
    9  A    between atoms: C_26  and  O_28
   10  A    between atoms: N_29  and  C_35
   11  A    between atoms: N_29  and  C_39
   12  A    between atoms: C_34  and  C_35
   13  A    between atoms: N_37  and  C_39
                            x       y       z     vdW  Elec       q    Type
                         _______ _______ _______ _____ _____    ______ ____

>  <TORSDO>
F 13

$$$$
=
 OpenBabel10232408023D

 46 50  0  0  1  0  0  0  0  0999 V2000
  182.9140  179.3850  139.0200 C   0  0  0  0  0  1  0  0  0  0  0  0
  184.4270  179.4790  139.0440 C   0  0  1  0  0  3  0  0  0  0  0  0
  184.8690  179.7630  140.3980 N   0  0  0  0  0  2  0  0  0  0  0  0
  185.2550  178.5000  141.0110 C   0  0  0  0  0  2  0  0  0  0  0  0
  184.1880  179.1630  143.2380 C   0  0  0  0  0  2  0  0  0  0  0  0
  189.2310  176.5930  141.6080 C   0  0  2  0  0  3  0  0  0  0  0  0
  187.4640  177.4170  142.9740 N   0  0  0  0  0  0  0  0  0  0  0  0
  185.8510  178.0810  144.6070 N   0  0  0  0  0  0  0  0  0  0  0  0
  188.0040  177.4890  141.6300 C   0  0  0  0  0  2  0  0  0  0  0  0
  183.9520  179.0070  145.6520 O   0  0  0  0  0  0  0  0  0  0  0  0
  188.2560  176.5780  143.8570 C   0  0  1  0  0  3  0  0  0  0  0  0
  189.3440  175.9580  142.9870 C   0  0  0  0  0  2  0  0  0  0  0  0
  185.2960  178.6380  142.4610 N   0  0  0  0  0  0  0  0  0  0  0  0
  184.6080  178.7670  144.6060 C   0  0  0  0  0  0  0  0  0  0  0  0
  186.2210  178.0240  143.3690 C   0  0  0  0  0  0  0  0  0  0  0  0
  187.8490  177.6620  148.7250 C   0  0  0  0  0  1  0  0  0  0  0  0
  188.6040  177.9750  147.4520 C   0  0  1  0  0  3  0  0  0  0  0  0
  190.0900  177.7010  147.6570 C   0  0  0  0  0  2  0  0  0  0  0  0
  188.8370  177.3900  145.0240 C   0  0  1  0  0  3  0  0  0  0  0  0
  188.0610  177.1170  146.3130 C   0  0  0  0  0  2  0  0  0  0  0  0
  190.3370  177.1450  145.2300 C   0  0  0  0  0  2  0  0  0  0  0  0
  190.8630  178.0030  146.3760 C   0  0  0  0  0  2  0  0  0  0  0  0
  191.0680  177.0380  139.9790 C   0  0  0  0  0  1  0  0  0  0  0  0
  190.4780  177.4150  141.3260 C   0  0  0  0  0  2  0  0  0  0  0  0
  185.0410  178.1670  138.5760 C   0  0  0  0  0  2  0  0  0  0  0  0
  186.3180  178.4110  137.7840 C   0  0  0  0  0  2  0  0  0  0  0  0
  186.4980  177.3710  136.7810 N   0  0  0  0  0  0  0  0  0  0  0  0
  186.5860  177.7700  134.4250 N   0  0  0  0  0  1  0  0  0  0  0  0
  188.5590  176.3990  136.6040 C   0  0  0  0  0  0  0  0  0  0  0  0
  188.5630  177.2370  135.6370 N   0  0  0  0  0  0  0  0  0  0  0  0
  187.3590  176.4130  137.3350 N   0  0  0  0  0  2  0  0  0  0  0  0
  187.2910  177.9530  135.6820 C   0  0  2  0  0  3  0  0  0  0  0  0
  189.6670  175.4400  136.8570 C   0  0  0  0  0  2  0  0  0  0  0  0
  190.8900  176.0610  136.5910 O   0  0  0  0  0  0  0  0  0  0  0  0
  192.4290  175.8730  134.9250 O   0  0  0  0  0  1  0  0  0  0  0  0
  191.5770  175.1620  135.7720 C   0  0  1  0  0  3  0  0  0  0  0  0
  194.4710  172.3500  136.9370 O   0  0  0  0  0  0  0  0  0  0  0  0
  194.2610  169.6980  135.8090 C   0  0  0  0  0  1  0  0  0  0  0  0
  194.5900  173.6210  137.5790 C   0  0  2  0  0  3  0  0  0  0  0  0
  193.8190  174.6870  136.8050 C   0  0  0  0  0  2  0  0  0  0  0  0
  192.3850  174.1920  136.6280 C   0  0  2  0  0  3  0  0  0  0  0  0
  193.2160  170.6930  135.6370 N   0  0  0  0  0  2  0  0  0  0  0  0
  193.3230  171.9920  136.2160 C   0  0  0  0  0  0  0  0  0  0  0  0
  192.3680  172.8520  136.0310 N   0  0  0  0  0  0  0  0  0  0  0  0
  196.0540  174.0030  137.7630 C   0  0  0  0  0  2  0  0  0  0  0  0
  196.3870  174.2900  139.2200 C   0  0  0  0  0  1  0  0  0  0  0  0
  2  1  1  1  0  0  0
  2  3  1  0  0  0  0
  3  4  1  0  0  0  0
  4 13  1  0  0  0  0
  5 14  1  0  0  0  0
  6 24  1  1  0  0  0
  6  9  1  0  0  0  0
  6 12  1  0  0  0  0
  7 15  1  0  0  0  0
  7 11  1  0  0  0  0
  9  7  1  0  0  0  0
 11 12  1  6  0  0  0
 11 19  1  0  0  0  0
 13  5  1  0  0  0  0
 13 15  1  0  0  0  0
 14  8  1  0  0  0  0
 14 10  2  0  0  0  0
 15  8  2  0  0  0  0
 17 18  1  0  0  0  0
 17 16  1  1  0  0  0
 19 21  1  1  0  0  0
 19 20  1  0  0  0  0
 20 17  1  0  0  0  0
 21 22  1  0  0  0  0
 22 18  1  0  0  0  0
 23 24  1  0  0  0  0
 25  2  1  0  0  0  0
 26 25  1  0  0  0  0
 27 31  1  0  0  0  0
 27 26  1  0  0  0  0
 29 33  1  0  0  0  0
 29 31  1  0  0  0  0
 30 32  1  0  0  0  0
 30 29  2  0  0  0  0
 32 28  1  6  0  0  0
 32 27  1  0  0  0  0
 34 33  1  0  0  0  0
 36 35  1  6  0  0  0
 36 34  1  0  0  0  0
 37 39  1  0  0  0  0
 39 45  1  6  0  0  0
 40 39  1  0  0  0  0
 41 36  1  6  0  0  0
 41 40  1  0  0  0  0
 42 38  1  0  0  0  0
 42 43  1  0  0  0  0
 43 37  1  0  0  0  0
 44 43  2  0  0  0  0
 44 41  1  0  0  0  0
 45 46  1  0  0  0  0
M  END
>  <MODEL>
9

>  <REMARK>
 VINA RESULT:      -7.5      2.433      3.740
  Name = 
  13 active torsions:
  status: ('A' for Active; 'I' for Inactive)
    1  A    between atoms: N_4  and  C_6
    2  A    between atoms: C_6  and  C_34
    3  A    between atoms: C_7  and  O_28
    4  A    between atoms: C_7  and  C_36
    5  A    between atoms: C_11  and  C_16
    6  A    between atoms: C_13  and  C_18
    7  A    between atoms: C_14  and  C_32
    8  A    between atoms: C_26  and  C_27
    9  A    between atoms: C_26  and  O_28
   10  A    between atoms: N_29  and  C_35
   11  A    between atoms: N_29  and  C_39
   12  A    between atoms: C_34  and  C_35
   13  A    between atoms: N_37  and  C_39
                            x       y       z     vdW  Elec       q    Type
                         _______ _______ _______ _____ _____    ______ ____

>  <TORSDO>
F 13

$$$$
