=
 OpenBabel10232409423D

 35 40  0  0  1  0  0  0  0  0999 V2000
  184.2500  178.9920  142.8270 N   0  0  0  0  0  0  0  0  0  0  0  0
  187.7510  177.6300  142.8910 C   0  0  0  0  0  0  0  0  0  0  0  0
  186.0670  178.0740  144.6980 C   0  0  0  0  0  0  0  0  0  0  0  0
  188.4690  177.6950  145.2810 C   0  0  2  0  0  3  0  0  0  0  0  0
  189.7920  177.6510  139.7310 C   0  0  0  0  0  3  0  0  0  0  0  0
  188.1100  177.7210  141.5980 C   0  0  0  0  0  0  0  0  0  0  0  0
  183.9060  178.9840  144.1440 C   0  0  0  0  0  0  0  0  0  0  0  0
  187.0150  177.5400  145.7330 C   0  0  0  0  0  2  0  0  0  0  0  0
  185.4680  178.5540  142.3950 C   0  0  0  0  0  0  0  0  0  0  0  0
  188.8870  178.2040  138.9200 C   0  0  0  0  0  0  0  0  0  0  0  0
  188.6870  177.0410  143.9150 C   0  0  0  0  0  2  0  0  0  0  0  0
  187.5530  178.4770  139.3760 N   0  0  0  0  0  0  0  0  0  0  0  0
  186.4040  178.0790  143.3310 C   0  0  0  0  0  0  0  0  0  0  0  0
  189.4600  177.2290  141.1350 C   0  0  0  0  0  3  0  0  0  0  0  0
  187.1570  178.2660  140.5980 C   0  0  2  0  0  3  0  0  0  0  0  0
  185.8040  178.5830  140.9910 N   0  0  0  0  0  0  0  0  0  0  0  0
  184.8080  178.5160  145.1000 C   0  0  0  0  0  3  0  0  0  0  0  0
  189.3880  177.1450  146.2780 N   0  0  0  0  0  0  0  0  0  0  0  0
  191.2260  177.4290  144.8560 O   0  0  0  0  0  0  0  0  0  0  0  0
  190.7880  177.0440  145.9750 C   0  0  0  0  0  0  0  0  0  0  0  0
  191.7550  176.4900  146.9700 C   0  0  0  0  0  1  0  0  0  0  0  0
  188.8760  176.6960  147.5690 C   0  0  0  0  0  1  0  0  0  0  0  0
  183.6800  178.1260  139.8480 C   0  0  0  0  0  2  0  0  0  0  0  0
  184.8400  179.0970  140.0080 C   0  0  0  0  0  3  0  0  0  0  0  0
  184.7620  178.1740  138.8000 C   0  0  0  0  0  2  0  0  0  0  0  0
  189.2770  178.5650  137.5290 C   0  0  0  0  0  2  0  0  0  0  0  0
  189.0630  179.9290  137.3190 O   0  0  0  0  0  1  0  0  0  0  0  0
  182.5590  179.4580  144.5700 C   0  0  0  0  0  2  0  0  0  0  0  0
  181.4700  178.5890  143.9620 C   0  0  0  0  0  2  0  0  0  0  0  0
  180.3360  179.6290  140.7920 C   0  0  0  0  0  0  0  0  0  0  0  0
  180.9020  178.7210  141.5500 O   0  0  0  0  0  0  0  0  0  0  0  0
  180.9040  179.2460  142.7510 C   0  0  0  0  0  0  0  0  0  0  0  0
  179.9870  180.7170  141.5030 N   0  0  0  0  0  0  0  0  0  0  0  0
  180.3510  180.4720  142.7540 N   0  0  0  0  0  0  0  0  0  0  0  0
  180.1020  179.4790  139.3300 C   0  0  0  0  0  1  0  0  0  0  0  0
  1  7  1  0  0  0  0
  2 13  1  0  0  0  0
  2 11  1  0  0  0  0
  3 17  1  0  0  0  0
  3  8  1  0  0  0  0
  4  8  1  0  0  0  0
  4 18  1  1  0  0  0
  5 14  2  0  0  0  0
  6  2  2  0  0  0  0
  7 28  1  0  0  0  0
  7 17  2  0  0  0  0
  9  1  2  0  0  0  0
  9 13  1  0  0  0  0
 10 12  2  0  0  0  0
 10  5  1  0  0  0  0
 11  4  1  0  0  0  0
 13  3  2  0  0  0  0
 14  6  1  0  0  0  0
 15 12  1  1  0  0  0
 15 16  1  0  0  0  0
 15  6  1  0  0  0  0
 16  9  1  0  0  0  0
 18 22  1  0  0  0  0
 19 20  2  0  0  0  0
 20 18  1  0  0  0  0
 20 21  1  0  0  0  0
 23 24  1  0  0  0  0
 24 16  1  0  0  0  0
 25 23  1  0  0  0  0
 25 24  1  0  0  0  0
 26 10  1  0  0  0  0
 27 26  1  0  0  0  0
 29 28  1  0  0  0  0
 30 33  2  0  0  0  0
 30 31  1  0  0  0  0
 31 32  1  0  0  0  0
 32 34  2  0  0  0  0
 32 29  1  0  0  0  0
 33 34  1  0  0  0  0
 35 30  1  0  0  0  0
M  END
>  <MODEL>
1

>  <REMARK>
 VINA RESULT:     -10.5      0.000      0.000
  Name = 
  6 active torsions:
  status: ('A' for Active; 'I' for Inactive)
    1  A    between atoms: N_1  and  C_10
    2  A    between atoms: C_3  and  C_8
    3  A    between atoms: C_3  and  C_24
    4  A    between atoms: C_9  and  CA_21
    5  A    between atoms: C_13  and  C_24
    6  A    between atoms: C_15  and  N_32
                            x       y       z     vdW  Elec       q    Type
                         _______ _______ _______ _____ _____    ______ ____

>  <TORSDO>
F 6

$$$$
=
 OpenBabel10232409423D

 35 40  0  0  1  0  0  0  0  0999 V2000
  185.9390  178.1040  145.6630 N   0  0  0  0  0  0  0  0  0  0  0  0
  189.1220  177.5480  143.7470 C   0  0  0  0  0  0  0  0  0  0  0  0
  186.7990  178.1780  143.0370 C   0  0  0  0  0  0  0  0  0  0  0  0
  188.4560  177.3700  141.3480 C   0  0  2  0  0  3  0  0  0  0  0  0
  192.1430  176.2080  145.5440 C   0  0  0  0  0  3  0  0  0  0  0  0
  189.9700  177.1650  144.7170 C   0  0  0  0  0  0  0  0  0  0  0  0
  185.0510  178.4100  144.6790 C   0  0  0  0  0  0  0  0  0  0  0  0
  187.2450  178.2690  141.6060 C   0  0  0  0  0  2  0  0  0  0  0  0
  187.2500  177.8360  145.3980 C   0  0  0  0  0  0  0  0  0  0  0  0
  191.6100  176.1000  146.7630 C   0  0  0  0  0  0  0  0  0  0  0  0
  189.5910  177.6920  142.3210 C   0  0  0  0  0  2  0  0  0  0  0  0
  190.2820  176.5710  147.0350 N   0  0  0  0  0  0  0  0  0  0  0  0
  187.7080  177.8720  144.0670 C   0  0  0  0  0  0  0  0  0  0  0  0
  191.4180  176.8730  144.4070 C   0  0  0  0  0  2  0  0  0  0  0  0
  189.4980  177.0690  146.1230 C   0  0  0  0  0  0  0  0  0  0  0  0
  188.1650  177.5060  146.4650 N   0  0  0  0  0  0  0  0  0  0  0  0
  185.4710  178.4610  143.3490 C   0  0  0  0  0  3  0  0  0  0  0  0
  188.9080  177.4860  139.9610 N   0  0  0  0  0  0  0  0  0  0  0  0
  190.7960  176.1680  140.3810 O   0  0  0  0  0  0  0  0  0  0  0  0
  190.1210  176.8370  139.5510 C   0  0  0  0  0  0  0  0  0  0  0  0
  190.6100  176.9320  138.1420 C   0  0  0  0  0  1  0  0  0  0  0  0
  188.1270  178.2660  139.0040 C   0  0  0  0  0  1  0  0  0  0  0  0
  187.0730  178.7730  148.2610 C   0  0  0  0  0  2  0  0  0  0  0  0
  187.6910  177.4440  147.8540 C   0  0  0  0  0  3  0  0  0  0  0  0
  188.4620  178.4240  148.7280 C   0  0  0  0  0  2  0  0  0  0  0  0
  192.4000  175.4590  147.8510 C   0  0  0  0  0  2  0  0  0  0  0  0
  193.0360  176.4410  148.6130 O   0  0  0  0  0  1  0  0  0  0  0  0
  183.6310  178.7120  145.0160 C   0  0  0  0  0  2  0  0  0  0  0  0
  183.0420  179.6930  144.0160 C   0  0  0  0  0  2  0  0  0  0  0  0
  180.7350  178.2540  141.7730 C   0  0  0  0  0  0  0  0  0  0  0  0
  181.9190  178.7650  142.0050 O   0  0  0  0  0  0  0  0  0  0  0  0
  181.9090  179.0610  143.2830 C   0  0  0  0  0  0  0  0  0  0  0  0
  179.9820  178.2290  142.8880 N   0  0  0  0  0  0  0  0  0  0  0  0
  180.7320  178.7450  143.8520 N   0  0  0  0  0  0  0  0  0  0  0  0
  180.2770  177.7580  140.4470 C   0  0  0  0  0  1  0  0  0  0  0  0
  2 13  1  0  0  0  0
  2  6  2  0  0  0  0
  3 17  2  0  0  0  0
  3 13  1  0  0  0  0
  4 18  1  6  0  0  0
  4  8  1  0  0  0  0
  4 11  1  0  0  0  0
  5 10  2  0  0  0  0
  6 15  1  0  0  0  0
  7 28  1  0  0  0  0
  7  1  2  0  0  0  0
  8  3  1  0  0  0  0
  9  1  1  0  0  0  0
  9 16  1  0  0  0  0
 10 12  1  0  0  0  0
 10 26  1  0  0  0  0
 11  2  1  0  0  0  0
 13  9  2  0  0  0  0
 14  6  1  0  0  0  0
 14  5  1  0  0  0  0
 15 16  1  0  0  0  0
 15 12  2  0  0  0  0
 16 24  1  0  0  0  0
 17  7  1  0  0  0  0
 20 18  1  0  0  0  0
 20 19  2  0  0  0  0
 21 20  1  0  0  0  0
 22 18  1  0  0  0  0
 23 25  1  0  0  0  0
 24 23  1  0  0  0  0
 24 25  1  0  0  0  0
 26 27  1  0  0  0  0
 29 28  1  0  0  0  0
 30 31  1  0  0  0  0
 30 33  2  0  0  0  0
 31 32  1  0  0  0  0
 32 34  2  0  0  0  0
 32 29  1  0  0  0  0
 33 34  1  0  0  0  0
 35 30  1  0  0  0  0
M  END
>  <MODEL>
2

>  <REMARK>
 VINA RESULT:     -10.3      2.055      5.851
  Name = 
  6 active torsions:
  status: ('A' for Active; 'I' for Inactive)
    1  A    between atoms: N_1  and  C_10
    2  A    between atoms: C_3  and  C_8
    3  A    between atoms: C_3  and  C_24
    4  A    between atoms: C_9  and  CA_21
    5  A    between atoms: C_13  and  C_24
    6  A    between atoms: C_15  and  N_32
                            x       y       z     vdW  Elec       q    Type
                         _______ _______ _______ _____ _____    ______ ____

>  <TORSDO>
F 6

$$$$
=
 OpenBabel10232409423D

 35 40  0  0  1  0  0  0  0  0999 V2000
  188.4640  177.4520  145.3260 N   0  0  0  0  0  0  0  0  0  0  0  0
  186.7010  178.2530  142.1070 C   0  0  0  0  0  0  0  0  0  0  0  0
  185.9270  178.1670  144.4930 C   0  0  0  0  0  0  0  0  0  0  0  0
  184.2610  178.1950  142.6300 C   0  0  2  0  0  3  0  0  0  0  0  0
  188.5080  177.7580  138.8450 C   0  0  0  0  0  3  0  0  0  0  0  0
  187.6690  178.0440  141.1980 C   0  0  0  0  0  0  0  0  0  0  0  0
  187.4710  177.5780  146.2470 C   0  0  0  0  0  0  0  0  0  0  0  0
  184.5500  178.5970  144.0770 C   0  0  0  0  0  2  0  0  0  0  0  0
  188.2520  177.6730  143.9970 C   0  0  0  0  0  0  0  0  0  0  0  0
  189.6680  177.3130  139.3330 C   0  0  0  0  0  0  0  0  0  0  0  0
  185.3370  178.7390  141.6880 C   0  0  0  0  0  2  0  0  0  0  0  0
  189.9110  177.2740  140.7470 N   0  0  0  0  0  0  0  0  0  0  0  0
  186.9680  178.0410  143.5540 C   0  0  0  0  0  0  0  0  0  0  0  0
  187.4180  178.2950  139.7310 C   0  0  0  0  0  2  0  0  0  0  0  0
  189.0190  177.6040  141.6360 C   0  0  0  0  0  0  0  0  0  0  0  0
  189.3260  177.5220  143.0440 N   0  0  0  0  0  0  0  0  0  0  0  0
  186.1870  177.9470  145.8450 C   0  0  0  0  0  3  0  0  0  0  0  0
  182.9300  178.6440  142.2180 N   0  0  0  0  0  0  0  0  0  0  0  0
  183.1540  177.6400  140.1160 O   0  0  0  0  0  0  0  0  0  0  0  0
  182.4410  178.3150  140.9090 C   0  0  0  0  0  0  0  0  0  0  0  0
  181.0870  178.7540  140.4580 C   0  0  0  0  0  1  0  0  0  0  0  0
  182.1110  179.4290  143.1380 C   0  0  0  0  0  1  0  0  0  0  0  0
  191.2750  178.1950  144.3770 C   0  0  0  0  0  2  0  0  0  0  0  0
  190.6650  177.1160  143.4950 C   0  0  0  0  0  3  0  0  0  0  0  0
  191.7250  178.0600  142.9450 C   0  0  0  0  0  2  0  0  0  0  0  0
  190.7170  176.8270  138.3940 C   0  0  0  0  0  2  0  0  0  0  0  0
  190.8270  175.4390  138.4890 O   0  0  0  0  0  1  0  0  0  0  0  0
  187.7520  177.3410  147.6910 C   0  0  0  0  0  2  0  0  0  0  0  0
  188.8710  178.2500  148.1730 C   0  0  0  0  0  2  0  0  0  0  0  0
  191.6710  176.2320  147.4570 C   0  0  0  0  0  0  0  0  0  0  0  0
  190.4070  176.5240  147.2650 O   0  0  0  0  0  0  0  0  0  0  0  0
  190.1860  177.5630  148.0330 C   0  0  0  0  0  0  0  0  0  0  0  0
  192.2430  177.0720  148.3380 N   0  0  0  0  0  0  0  0  0  0  0  0
  191.2940  177.9220  148.7070 N   0  0  0  0  0  0  0  0  0  0  0  0
  192.3880  175.1160  146.7840 C   0  0  0  0  0  1  0  0  0  0  0  0
  1  7  1  0  0  0  0
  2 13  1  0  0  0  0
  3 17  1  0  0  0  0
  4 18  1  6  0  0  0
  4  8  1  0  0  0  0
  5 10  2  0  0  0  0
  5 14  1  0  0  0  0
  6 15  1  0  0  0  0
  6  2  2  0  0  0  0
  7 28  1  0  0  0  0
  8  3  1  0  0  0  0
  9  1  2  0  0  0  0
 10 12  1  0  0  0  0
 11  2  1  0  0  0  0
 11  4  1  0  0  0  0
 12 15  2  0  0  0  0
 13  9  1  0  0  0  0
 13  3  2  0  0  0  0
 14  6  1  0  0  0  0
 15 16  1  0  0  0  0
 16 24  1  0  0  0  0
 16  9  1  0  0  0  0
 17  7  2  0  0  0  0
 18 22  1  0  0  0  0
 19 20  2  0  0  0  0
 20 18  1  0  0  0  0
 21 20  1  0  0  0  0
 24 23  1  0  0  0  0
 25 24  1  0  0  0  0
 25 23  1  0  0  0  0
 26 27  1  0  0  0  0
 26 10  1  0  0  0  0
 28 29  1  0  0  0  0
 30 33  2  0  0  0  0
 31 30  1  0  0  0  0
 31 32  1  0  0  0  0
 32 29  1  0  0  0  0
 32 34  2  0  0  0  0
 33 34  1  0  0  0  0
 35 30  1  0  0  0  0
M  END
>  <MODEL>
3

>  <REMARK>
 VINA RESULT:      -9.7      1.940      7.565
  Name = 
  6 active torsions:
  status: ('A' for Active; 'I' for Inactive)
    1  A    between atoms: N_1  and  C_10
    2  A    between atoms: C_3  and  C_8
    3  A    between atoms: C_3  and  C_24
    4  A    between atoms: C_9  and  CA_21
    5  A    between atoms: C_13  and  C_24
    6  A    between atoms: C_15  and  N_32
                            x       y       z     vdW  Elec       q    Type
                         _______ _______ _______ _____ _____    ______ ____

>  <TORSDO>
F 6

$$$$
=
 OpenBabel10232409423D

 35 40  0  0  1  0  0  0  0  0999 V2000
  189.3090  178.2230  140.9090 N   0  0  0  0  0  0  0  0  0  0  0  0
  186.6710  177.9150  143.5660 C   0  0  0  0  0  0  0  0  0  0  0  0
  186.5530  178.3430  141.0960 C   0  0  0  0  0  0  0  0  0  0  0  0
  184.5660  178.7860  142.5470 C   0  0  2  0  0  3  0  0  0  0  0  0
  187.7120  177.6630  147.1720 C   0  0  0  0  0  3  0  0  0  0  0  0
  187.4110  177.7600  144.6780 C   0  0  0  0  0  0  0  0  0  0  0  0
  188.5730  178.4650  139.7900 C   0  0  0  0  0  0  0  0  0  0  0  0
  185.0530  178.3700  141.1580 C   0  0  0  0  0  2  0  0  0  0  0  0
  188.7280  178.0310  142.1290 C   0  0  0  0  0  0  0  0  0  0  0  0
  189.0340  177.7230  146.9970 C   0  0  0  0  0  0  0  0  0  0  0  0
  185.1650  177.8840  143.6270 C   0  0  0  0  0  2  0  0  0  0  0  0
  189.6060  177.7370  145.6800 N   0  0  0  0  0  0  0  0  0  0  0  0
  187.3270  178.0840  142.2440 C   0  0  0  0  0  0  0  0  0  0  0  0
  186.7530  177.5460  146.0200 C   0  0  0  0  0  3  0  0  0  0  0  0
  188.8940  177.7520  144.5900 C   0  0  2  0  0  3  0  0  0  0  0  0
  189.5380  177.7850  143.2980 N   0  0  0  0  0  0  0  0  0  0  0  0
  187.1810  178.5190  139.8650 C   0  0  0  0  0  3  0  0  0  0  0  0
  183.1040  178.7800  142.6120 N   0  0  0  0  0  0  0  0  0  0  0  0
  183.1270  179.0860  144.9330 O   0  0  0  0  0  0  0  0  0  0  0  0
  182.4470  178.9400  143.8800 C   0  0  0  0  0  0  0  0  0  0  0  0
  180.9570  178.9410  143.9820 C   0  0  0  0  0  1  0  0  0  0  0  0
  182.3220  178.6050  141.3920 C   0  0  0  0  0  1  0  0  0  0  0  0
  191.4260  176.8780  142.0190 C   0  0  0  0  0  2  0  0  0  0  0  0
  191.0030  177.7490  143.1920 C   0  0  0  0  0  3  0  0  0  0  0  0
  191.5240  176.3370  143.4220 C   0  0  0  0  0  2  0  0  0  0  0  0
  189.9260  177.8030  148.1870 C   0  0  0  0  0  2  0  0  0  0  0  0
  191.1940  177.3210  147.8570 O   0  0  0  0  0  1  0  0  0  0  0  0
  189.2490  178.6540  138.4740 C   0  0  0  0  0  2  0  0  0  0  0  0
  189.0610  177.4270  137.5970 C   0  0  0  0  0  2  0  0  0  0  0  0
  192.1440  175.7440  137.8910 C   0  0  0  0  0  0  0  0  0  0  0  0
  191.4740  176.8600  137.7340 O   0  0  0  0  0  0  0  0  0  0  0  0
  190.2140  176.4980  137.7600 C   0  0  0  0  0  0  0  0  0  0  0  0
  191.3200  174.6880  138.0140 N   0  0  0  0  0  0  0  0  0  0  0  0
  190.0880  175.1690  137.9290 N   0  0  0  0  0  0  0  0  0  0  0  0
  193.6280  175.6530  137.9360 C   0  0  0  0  0  1  0  0  0  0  0  0
  1  9  1  0  0  0  0
  2 11  1  0  0  0  0
  2  6  2  0  0  0  0
  3  8  1  0  0  0  0
  3 13  1  0  0  0  0
  4 18  1  6  0  0  0
  4 11  1  0  0  0  0
  6 14  1  0  0  0  0
  7 17  1  0  0  0  0
  7  1  2  0  0  0  0
  8  4  1  0  0  0  0
  9 13  2  0  0  0  0
  9 16  1  0  0  0  0
 10  5  1  0  0  0  0
 10 26  1  0  0  0  0
 12 10  2  0  0  0  0
 13  2  1  0  0  0  0
 14  5  2  0  0  0  0
 15  6  1  1  0  0  0
 15 12  1  0  0  0  0
 16 15  1  0  0  0  0
 17  3  2  0  0  0  0
 18 20  1  0  0  0  0
 20 21  1  0  0  0  0
 20 19  2  0  0  0  0
 22 18  1  0  0  0  0
 23 24  1  0  0  0  0
 23 25  1  0  0  0  0
 24 16  1  0  0  0  0
 24 25  1  0  0  0  0
 27 26  1  0  0  0  0
 28  7  1  0  0  0  0
 29 32  1  0  0  0  0
 29 28  1  0  0  0  0
 30 35  1  0  0  0  0
 30 33  2  0  0  0  0
 31 32  1  0  0  0  0
 31 30  1  0  0  0  0
 32 34  2  0  0  0  0
 34 33  1  0  0  0  0
M  END
>  <MODEL>
4

>  <REMARK>
 VINA RESULT:      -9.6      2.332      8.285
  Name = 
  6 active torsions:
  status: ('A' for Active; 'I' for Inactive)
    1  A    between atoms: N_1  and  C_10
    2  A    between atoms: C_3  and  C_8
    3  A    between atoms: C_3  and  C_24
    4  A    between atoms: C_9  and  CA_21
    5  A    between atoms: C_13  and  C_24
    6  A    between atoms: C_15  and  N_32
                            x       y       z     vdW  Elec       q    Type
                         _______ _______ _______ _____ _____    ______ ____

>  <TORSDO>
F 6

$$$$
=
 OpenBabel10232409423D

 35 40  0  0  1  0  0  0  0  0999 V2000
  187.2860  178.4820  139.9470 N   0  0  0  0  0  0  0  0  0  0  0  0
  186.4440  178.3990  143.6070 C   0  0  0  0  0  0  0  0  0  0  0  0
  188.5680  177.9660  142.3420 C   0  0  0  0  0  0  0  0  0  0  0  0
  188.3510  177.2370  144.7230 C   0  0  2  0  0  3  0  0  0  0  0  0
  182.8600  178.7860  144.6810 C   0  0  0  0  0  3  0  0  0  0  0  0
  185.1240  178.6550  143.5970 C   0  0  0  0  0  0  0  0  0  0  0  0
  188.6030  178.1410  139.9390 C   0  0  0  0  0  0  0  0  0  0  0  0
  189.3030  177.7240  143.6290 C   0  0  0  0  0  2  0  0  0  0  0  0
  186.5720  178.5840  141.1050 C   0  0  0  0  0  0  0  0  0  0  0  0
  182.3090  178.9160  143.4720 C   0  0  0  0  0  0  0  0  0  0  0  0
  187.1870  178.2120  144.9060 C   0  0  0  0  0  2  0  0  0  0  0  0
  183.1230  178.9890  142.2920 N   0  0  0  0  0  0  0  0  0  0  0  0
  187.2080  178.3300  142.3340 C   0  0  0  0  0  0  0  0  0  0  0  0
  184.3490  178.7670  144.8870 C   0  0  0  0  0  3  0  0  0  0  0  0
  184.4190  178.8760  142.3080 C   0  0  2  0  0  3  0  0  0  0  0  0
  185.1730  178.9400  141.0780 N   0  0  0  0  0  0  0  0  0  0  0  0
  189.2680  177.8860  141.1390 C   0  0  0  0  0  3  0  0  0  0  0  0
  189.0650  177.0330  145.9840 N   0  0  0  0  0  0  0  0  0  0  0  0
  191.0520  176.5040  144.8650 O   0  0  0  0  0  0  0  0  0  0  0  0
  190.4510  176.6570  145.9640 C   0  0  0  0  0  0  0  0  0  0  0  0
  191.2120  176.4430  147.2310 C   0  0  0  0  0  1  0  0  0  0  0  0
  188.3650  177.2060  147.2540 C   0  0  0  0  0  1  0  0  0  0  0  0
  183.4220  178.1350  139.5570 C   0  0  0  0  0  2  0  0  0  0  0  0
  184.4950  179.1860  139.7980 C   0  0  0  0  0  3  0  0  0  0  0  0
  184.7390  178.0350  138.8310 C   0  0  0  0  0  2  0  0  0  0  0  0
  180.8260  178.9620  143.3470 C   0  0  0  0  0  2  0  0  0  0  0  0
  180.4330  180.2080  142.8550 O   0  0  0  0  0  1  0  0  0  0  0  0
  189.3480  178.0550  138.6510 C   0  0  0  0  0  2  0  0  0  0  0  0
  190.5340  177.1130  138.7820 C   0  0  0  0  0  2  0  0  0  0  0  0
  189.2990  174.3360  136.9970 C   0  0  0  0  0  0  0  0  0  0  0  0
  189.1530  175.5710  137.4120 O   0  0  0  0  0  0  0  0  0  0  0  0
  190.2450  175.8250  138.0910 C   0  0  0  0  0  0  0  0  0  0  0  0
  190.4670  173.8120  137.4110 N   0  0  0  0  0  0  0  0  0  0  0  0
  191.0710  174.7630  138.1100 N   0  0  0  0  0  0  0  0  0  0  0  0
  188.3040  173.6030  136.1690 C   0  0  0  0  0  1  0  0  0  0  0  0
  1  9  1  0  0  0  0
  2 11  1  0  0  0  0
  3  8  1  0  0  0  0
  4 11  1  0  0  0  0
  4 18  1  1  0  0  0
  5 14  2  0  0  0  0
  6  2  2  0  0  0  0
  6 14  1  0  0  0  0
  7  1  2  0  0  0  0
  7 17  1  0  0  0  0
  8  4  1  0  0  0  0
  9 13  2  0  0  0  0
 10  5  1  0  0  0  0
 12 10  2  0  0  0  0
 13  3  1  0  0  0  0
 13  2  1  0  0  0  0
 15 12  1  6  0  0  0
 15  6  1  0  0  0  0
 16  9  1  0  0  0  0
 16 15  1  0  0  0  0
 17  3  2  0  0  0  0
 18 22  1  0  0  0  0
 19 20  2  0  0  0  0
 20 18  1  0  0  0  0
 20 21  1  0  0  0  0
 23 24  1  0  0  0  0
 24 16  1  0  0  0  0
 25 23  1  0  0  0  0
 25 24  1  0  0  0  0
 26 10  1  0  0  0  0
 27 26  1  0  0  0  0
 28 29  1  0  0  0  0
 28  7  1  0  0  0  0
 30 33  2  0  0  0  0
 30 31  1  0  0  0  0
 31 32  1  0  0  0  0
 32 34  2  0  0  0  0
 32 29  1  0  0  0  0
 33 34  1  0  0  0  0
 35 30  1  0  0  0  0
M  END
>  <MODEL>
5

>  <REMARK>
 VINA RESULT:      -9.4      2.113      6.684
  Name = 
  6 active torsions:
  status: ('A' for Active; 'I' for Inactive)
    1  A    between atoms: N_1  and  C_10
    2  A    between atoms: C_3  and  C_8
    3  A    between atoms: C_3  and  C_24
    4  A    between atoms: C_9  and  CA_21
    5  A    between atoms: C_13  and  C_24
    6  A    between atoms: C_15  and  N_32
                            x       y       z     vdW  Elec       q    Type
                         _______ _______ _______ _____ _____    ______ ____

>  <TORSDO>
F 6

$$$$
=
 OpenBabel10232409423D

 35 40  0  0  1  0  0  0  0  0999 V2000
  187.4500  178.0950  143.8340 N   0  0  0  0  0  0  0  0  0  0  0  0
  186.9850  178.3310  140.1130 C   0  0  0  0  0  0  0  0  0  0  0  0
  185.4440  178.7510  142.0490 C   0  0  0  0  0  0  0  0  0  0  0  0
  184.5230  178.4900  139.7390 C   0  0  2  0  0  3  0  0  0  0  0  0
  189.7240  177.1220  137.8350 C   0  0  0  0  0  3  0  0  0  0  0  0
  188.1740  177.9030  139.6540 C   0  0  0  0  0  0  0  0  0  0  0  0
  186.2240  178.4460  144.3070 C   0  0  0  0  0  0  0  0  0  0  0  0
  184.3470  179.1540  141.1060 C   0  0  0  0  0  2  0  0  0  0  0  0
  187.7280  178.0610  142.4980 C   0  0  0  0  0  0  0  0  0  0  0  0
  190.5920  176.7280  138.7690 C   0  0  0  0  0  0  0  0  0  0  0  0
  185.9080  178.7880  139.1630 C   0  0  0  0  0  2  0  0  0  0  0  0
  190.3350  176.9560  140.1630 N   0  0  0  0  0  0  0  0  0  0  0  0
  186.7210  178.3950  141.5740 C   0  0  0  0  0  0  0  0  0  0  0  0
  188.4660  177.8730  138.1740 C   0  0  0  0  0  2  0  0  0  0  0  0
  189.2370  177.4950  140.6090 C   0  0  0  0  0  0  0  0  0  0  0  0
  189.0370  177.6760  142.0280 N   0  0  0  0  0  0  0  0  0  0  0  0
  185.2030  178.7880  143.4210 C   0  0  0  0  0  3  0  0  0  0  0  0
  183.4700  178.9120  138.8140 N   0  0  0  0  0  0  0  0  0  0  0  0
  183.3570  176.7830  137.8480 O   0  0  0  0  0  0  0  0  0  0  0  0
  182.9280  177.9690  137.8750 C   0  0  0  0  0  0  0  0  0  0  0  0
  181.8510  178.3640  136.9190 C   0  0  0  0  0  1  0  0  0  0  0  0
  182.9810  180.2880  138.8460 C   0  0  0  0  0  1  0  0  0  0  0  0
  190.2750  178.4040  144.0190 C   0  0  0  0  0  2  0  0  0  0  0  0
  190.0890  177.3050  142.9850 C   0  0  0  0  0  3  0  0  0  0  0  0
  191.2640  178.2680  142.8910 C   0  0  0  0  0  2  0  0  0  0  0  0
  191.8360  176.0190  138.3580 C   0  0  0  0  0  2  0  0  0  0  0  0
  191.5480  174.6790  138.0960 O   0  0  0  0  0  1  0  0  0  0  0  0
  185.9700  178.4840  145.7760 C   0  0  0  0  0  2  0  0  0  0  0  0
  186.4380  177.1950  146.4320 C   0  0  0  0  0  2  0  0  0  0  0  0
  189.7880  177.2730  147.5260 C   0  0  0  0  0  0  0  0  0  0  0  0
  188.8840  176.8480  146.6770 O   0  0  0  0  0  0  0  0  0  0  0  0
  187.7650  177.4010  147.0780 C   0  0  0  0  0  0  0  0  0  0  0  0
  189.2490  178.0830  148.4550 N   0  0  0  0  0  0  0  0  0  0  0  0
  187.9560  178.1640  148.1690 N   0  0  0  0  0  0  0  0  0  0  0  0
  191.2300  176.9140  147.4700 C   0  0  0  0  0  1  0  0  0  0  0  0
  1  7  1  0  0  0  0
  2 13  1  0  0  0  0
  3 17  1  0  0  0  0
  4 18  1  6  0  0  0
  4  8  1  0  0  0  0
  5 14  1  0  0  0  0
  5 10  2  0  0  0  0
  6  2  2  0  0  0  0
  6 15  1  0  0  0  0
  7 28  1  0  0  0  0
  8  3  1  0  0  0  0
  9  1  2  0  0  0  0
 10 12  1  0  0  0  0
 11  4  1  0  0  0  0
 11  2  1  0  0  0  0
 12 15  2  0  0  0  0
 13  3  2  0  0  0  0
 13  9  1  0  0  0  0
 14  6  1  0  0  0  0
 15 16  1  0  0  0  0
 16  9  1  0  0  0  0
 16 24  1  0  0  0  0
 17  7  2  0  0  0  0
 18 22  1  0  0  0  0
 19 20  2  0  0  0  0
 20 18  1  0  0  0  0
 21 20  1  0  0  0  0
 24 23  1  0  0  0  0
 25 24  1  0  0  0  0
 25 23  1  0  0  0  0
 26 10  1  0  0  0  0
 27 26  1  0  0  0  0
 28 29  1  0  0  0  0
 29 32  1  0  0  0  0
 30 33  2  0  0  0  0
 31 32  1  0  0  0  0
 31 30  1  0  0  0  0
 32 34  2  0  0  0  0
 34 33  1  0  0  0  0
 35 30  1  0  0  0  0
M  END
>  <MODEL>
6

>  <REMARK>
 VINA RESULT:      -9.3      2.612      7.282
  Name = 
  6 active torsions:
  status: ('A' for Active; 'I' for Inactive)
    1  A    between atoms: N_1  and  C_10
    2  A    between atoms: C_3  and  C_8
    3  A    between atoms: C_3  and  C_24
    4  A    between atoms: C_9  and  CA_21
    5  A    between atoms: C_13  and  C_24
    6  A    between atoms: C_15  and  N_32
                            x       y       z     vdW  Elec       q    Type
                         _______ _______ _______ _____ _____    ______ ____

>  <TORSDO>
F 6

$$$$
=
 OpenBabel10232409423D

 35 40  0  0  1  0  0  0  0  0999 V2000
  189.9650  177.5440  141.4410 N   0  0  0  0  0  0  0  0  0  0  0  0
  186.5670  177.9610  142.9880 C   0  0  0  0  0  0  0  0  0  0  0  0
  187.3780  178.0600  140.6150 C   0  0  0  0  0  0  0  0  0  0  0  0
  185.1250  178.9620  141.2140 C   0  0  2  0  0  3  0  0  0  0  0  0
  186.2500  178.0640  146.7350 C   0  0  0  0  0  3  0  0  0  0  0  0
  186.8420  177.8600  144.3000 C   0  0  0  0  0  0  0  0  0  0  0  0
  189.7120  177.7280  140.1170 C   0  0  0  0  0  0  0  0  0  0  0  0
  185.9770  178.2990  140.1310 C   0  0  0  0  0  2  0  0  0  0  0  0
  188.9780  177.6000  142.3820 C   0  0  0  0  0  0  0  0  0  0  0  0
  187.5410  177.9200  147.0420 C   0  0  0  0  0  0  0  0  0  0  0  0
  185.1500  178.1430  142.5050 C   0  0  0  0  0  2  0  0  0  0  0  0
  188.5220  177.6770  146.0230 N   0  0  0  0  0  0  0  0  0  0  0  0
  187.6550  177.8580  141.9810 C   0  0  0  0  0  0  0  0  0  0  0  0
  185.7390  177.9220  145.3280 C   0  0  0  0  0  3  0  0  0  0  0  0
  188.2400  177.6390  144.7520 C   0  0  2  0  0  3  0  0  0  0  0  0
  189.2820  177.4080  143.7800 N   0  0  0  0  0  0  0  0  0  0  0  0
  188.4100  177.9810  139.6820 C   0  0  0  0  0  3  0  0  0  0  0  0
  183.7520  179.1630  140.7490 N   0  0  0  0  0  0  0  0  0  0  0  0
  184.4800  180.3150  138.8460 O   0  0  0  0  0  0  0  0  0  0  0  0
  183.5120  179.8700  139.5220 C   0  0  0  0  0  0  0  0  0  0  0  0
  182.1240  180.0900  139.0160 C   0  0  0  0  0  1  0  0  0  0  0  0
  182.6340  178.6510  141.5380 C   0  0  0  0  0  1  0  0  0  0  0  0
  191.0050  178.0210  145.4180 C   0  0  0  0  0  2  0  0  0  0  0  0
  190.6650  177.1600  144.2110 C   0  0  0  0  0  3  0  0  0  0  0  0
  191.5090  178.4180  144.0550 C   0  0  0  0  0  2  0  0  0  0  0  0
  187.9710  178.0390  148.4630 C   0  0  0  0  0  2  0  0  0  0  0  0
  189.3590  178.1690  148.5250 O   0  0  0  0  0  1  0  0  0  0  0  0
  190.8190  177.6430  139.1230 C   0  0  0  0  0  2  0  0  0  0  0  0
  190.7510  176.3300  138.3600 C   0  0  0  0  0  2  0  0  0  0  0  0
  193.7110  174.5580  137.6370 C   0  0  0  0  0  0  0  0  0  0  0  0
  192.4030  174.5910  137.7210 O   0  0  0  0  0  0  0  0  0  0  0  0
  192.1250  175.8130  138.1050 C   0  0  0  0  0  0  0  0  0  0  0  0
  194.2560  175.7440  137.9670 N   0  0  0  0  0  0  0  0  0  0  0  0
  193.2420  176.5450  138.2660 N   0  0  0  0  0  0  0  0  0  0  0  0
  194.4980  173.3650  137.2250 C   0  0  0  0  0  1  0  0  0  0  0  0
  1  9  1  0  0  0  0
  2  6  2  0  0  0  0
  3 13  1  0  0  0  0
  4 18  1  6  0  0  0
  4 11  1  0  0  0  0
  5 10  1  0  0  0  0
  6 14  1  0  0  0  0
  7  1  2  0  0  0  0
  8  3  1  0  0  0  0
  8  4  1  0  0  0  0
  9 16  1  0  0  0  0
 10 26  1  0  0  0  0
 11  2  1  0  0  0  0
 12 10  2  0  0  0  0
 13  9  2  0  0  0  0
 13  2  1  0  0  0  0
 14  5  2  0  0  0  0
 15  6  1  6  0  0  0
 15 12  1  0  0  0  0
 16 24  1  0  0  0  0
 16 15  1  0  0  0  0
 17  7  1  0  0  0  0
 17  3  2  0  0  0  0
 18 22  1  0  0  0  0
 19 20  2  0  0  0  0
 20 18  1  0  0  0  0
 21 20  1  0  0  0  0
 24 23  1  0  0  0  0
 25 24  1  0  0  0  0
 25 23  1  0  0  0  0
 26 27  1  0  0  0  0
 28  7  1  0  0  0  0
 29 28  1  0  0  0  0
 30 31  1  0  0  0  0
 30 33  2  0  0  0  0
 31 32  1  0  0  0  0
 32 34  2  0  0  0  0
 32 29  1  0  0  0  0
 33 34  1  0  0  0  0
 35 30  1  0  0  0  0
M  END
>  <MODEL>
7

>  <REMARK>
 VINA RESULT:      -9.3      3.050      9.143
  Name = 
  6 active torsions:
  status: ('A' for Active; 'I' for Inactive)
    1  A    between atoms: N_1  and  C_10
    2  A    between atoms: C_3  and  C_8
    3  A    between atoms: C_3  and  C_24
    4  A    between atoms: C_9  and  CA_21
    5  A    between atoms: C_13  and  C_24
    6  A    between atoms: C_15  and  N_32
                            x       y       z     vdW  Elec       q    Type
                         _______ _______ _______ _____ _____    ______ ____

>  <TORSDO>
F 6

$$$$
=
 OpenBabel10232409423D

 35 40  0  0  1  0  0  0  0  0999 V2000
  185.4180  178.5460  141.6980 N   0  0  0  0  0  0  0  0  0  0  0  0
  188.9700  177.7820  142.6520 C   0  0  0  0  0  0  0  0  0  0  0  0
  187.8440  178.1390  140.4370 C   0  0  0  0  0  0  0  0  0  0  0  0
  190.1140  177.0970  140.5420 C   0  0  2  0  0  3  0  0  0  0  0  0
  189.7830  176.9800  146.2360 C   0  0  0  0  0  3  0  0  0  0  0  0
  188.8780  177.6430  143.9860 C   0  0  0  0  0  0  0  0  0  0  0  0
  185.4820  178.6050  140.3400 C   0  0  0  0  0  0  0  0  0  0  0  0
  189.1550  177.9670  139.7260 C   0  0  0  0  0  2  0  0  0  0  0  0
  186.5180  178.2970  142.4650 C   0  0  0  0  0  0  0  0  0  0  0  0
  188.5520  177.0900  146.7420 C   0  0  0  0  0  0  0  0  0  0  0  0
  190.2990  177.6630  141.9500 C   0  0  0  0  0  2  0  0  0  0  0  0
  187.4550  177.5380  145.9320 N   0  0  0  0  0  0  0  0  0  0  0  0
  187.7630  178.0910  141.8420 C   0  0  0  0  0  0  0  0  0  0  0  0
  190.1060  177.3700  144.8200 C   0  0  0  0  0  3  0  0  0  0  0  0
  187.5650  177.8040  144.6620 C   0  0  2  0  0  3  0  0  0  0  0  0
  186.4140  178.2320  143.9030 N   0  0  0  0  0  0  0  0  0  0  0  0
  186.7010  178.4110  139.6890 C   0  0  0  0  0  3  0  0  0  0  0  0
  191.4020  176.9580  139.8600 N   0  0  0  0  0  0  0  0  0  0  0  0
  190.4900  175.5110  138.2620 O   0  0  0  0  0  0  0  0  0  0  0  0
  191.5040  176.1220  138.6970 C   0  0  0  0  0  0  0  0  0  0  0  0
  192.8020  175.9600  137.9750 C   0  0  0  0  0  1  0  0  0  0  0  0
  192.5750  177.6630  140.3700 C   0  0  0  0  0  1  0  0  0  0  0  0
  184.5650  179.8090  144.2540 C   0  0  0  0  0  2  0  0  0  0  0  0
  185.1140  178.4240  144.5620 C   0  0  0  0  0  3  0  0  0  0  0  0
  185.1950  179.5380  145.5960 C   0  0  0  0  0  2  0  0  0  0  0  0
  188.3120  176.7190  148.1640 C   0  0  0  0  0  2  0  0  0  0  0  0
  188.2320  177.8740  148.9450 O   0  0  0  0  0  1  0  0  0  0  0  0
  184.2570  178.8950  139.5430 C   0  0  0  0  0  2  0  0  0  0  0  0
  183.3350  177.6860  139.5230 C   0  0  0  0  0  2  0  0  0  0  0  0
  180.8830  178.6860  141.8500 C   0  0  0  0  0  0  0  0  0  0  0  0
  182.0960  178.7980  141.3650 O   0  0  0  0  0  0  0  0  0  0  0  0
  182.1390  177.9390  140.3760 C   0  0  0  0  0  0  0  0  0  0  0  0
  180.1670  177.7660  141.1780 N   0  0  0  0  0  0  0  0  0  0  0  0
  180.9700  177.2880  140.2370 N   0  0  0  0  0  0  0  0  0  0  0  0
  180.3580  179.4790  142.9940 C   0  0  0  0  0  1  0  0  0  0  0  0
  1  9  1  0  0  0  0
  2  6  2  0  0  0  0
  3 13  1  0  0  0  0
  4 18  1  6  0  0  0
  4 11  1  0  0  0  0
  5 10  1  0  0  0  0
  6 14  1  0  0  0  0
  7  1  2  0  0  0  0
  8  3  1  0  0  0  0
  8  4  1  0  0  0  0
  9 16  1  0  0  0  0
 10 26  1  0  0  0  0
 11  2  1  0  0  0  0
 12 10  2  0  0  0  0
 13  9  2  0  0  0  0
 13  2  1  0  0  0  0
 14  5  2  0  0  0  0
 15  6  1  6  0  0  0
 15 12  1  0  0  0  0
 16 24  1  0  0  0  0
 16 15  1  0  0  0  0
 17  7  1  0  0  0  0
 17  3  2  0  0  0  0
 18 22  1  0  0  0  0
 19 20  2  0  0  0  0
 20 18  1  0  0  0  0
 21 20  1  0  0  0  0
 23 24  1  0  0  0  0
 23 25  1  0  0  0  0
 24 25  1  0  0  0  0
 26 27  1  0  0  0  0
 28  7  1  0  0  0  0
 29 28  1  0  0  0  0
 29 32  1  0  0  0  0
 30 35  1  0  0  0  0
 31 30  1  0  0  0  0
 32 31  1  0  0  0  0
 33 30  2  0  0  0  0
 34 32  2  0  0  0  0
 34 33  1  0  0  0  0
M  END
>  <MODEL>
8

>  <REMARK>
 VINA RESULT:      -9.3      2.092      5.606
  Name = 
  6 active torsions:
  status: ('A' for Active; 'I' for Inactive)
    1  A    between atoms: N_1  and  C_10
    2  A    between atoms: C_3  and  C_8
    3  A    between atoms: C_3  and  C_24
    4  A    between atoms: C_9  and  CA_21
    5  A    between atoms: C_13  and  C_24
    6  A    between atoms: C_15  and  N_32
                            x       y       z     vdW  Elec       q    Type
                         _______ _______ _______ _____ _____    ______ ____

>  <TORSDO>
F 6

$$$$
=
 OpenBabel10232409423D

 35 40  0  0  1  0  0  0  0  0999 V2000
  187.0680  178.4950  139.7280 N   0  0  0  0  0  0  0  0  0  0  0  0
  185.8740  178.5050  143.2900 C   0  0  0  0  0  0  0  0  0  0  0  0
  188.1280  178.1240  142.2540 C   0  0  0  0  0  0  0  0  0  0  0  0
  187.7070  177.4710  144.6310 C   0  0  2  0  0  3  0  0  0  0  0  0
  182.1880  178.7690  143.9960 C   0  0  0  0  0  3  0  0  0  0  0  0
  184.5520  178.7010  143.1420 C   0  0  0  0  0  0  0  0  0  0  0  0
  188.3920  178.2130  139.8620 C   0  0  0  0  0  0  0  0  0  0  0  0
  188.7410  177.9600  143.6150 C   0  0  0  0  0  2  0  0  0  0  0  0
  186.2390  178.6070  140.8070 C   0  0  0  0  0  0  0  0  0  0  0  0
  181.7540  178.8320  142.7350 C   0  0  0  0  0  0  0  0  0  0  0  0
  186.4920  178.3990  144.6610 C   0  0  0  0  0  2  0  0  0  0  0  0
  182.6760  178.8990  141.6370 N   0  0  0  0  0  0  0  0  0  0  0  0
  186.7610  178.4250  142.1010 C   0  0  0  0  0  0  0  0  0  0  0  0
  183.6490  178.8250  144.3450 C   0  0  0  0  0  3  0  0  0  0  0  0
  183.9690  178.8450  141.7830 C   0  0  2  0  0  3  0  0  0  0  0  0
  184.8370  178.8980  140.6300 N   0  0  0  0  0  0  0  0  0  0  0  0
  188.9450  178.0320  141.1300 C   0  0  0  0  0  3  0  0  0  0  0  0
  188.3020  177.3440  145.9620 N   0  0  0  0  0  0  0  0  0  0  0  0
  186.2940  177.9470  147.0030 O   0  0  0  0  0  0  0  0  0  0  0  0
  187.5030  177.6080  147.1260 C   0  0  0  0  0  0  0  0  0  0  0  0
  188.0770  177.4860  148.5000 C   0  0  0  0  0  1  0  0  0  0  0  0
  189.7030  176.9580  146.0990 C   0  0  0  0  0  1  0  0  0  0  0  0
  183.1760  178.0500  139.0340 C   0  0  0  0  0  2  0  0  0  0  0  0
  184.2790  179.0680  139.2810 C   0  0  0  0  0  3  0  0  0  0  0  0
  184.5400  177.8310  138.4330 C   0  0  0  0  0  2  0  0  0  0  0  0
  180.2900  178.8060  142.4640 C   0  0  0  0  0  2  0  0  0  0  0  0
  180.0310  178.0020  141.3530 O   0  0  0  0  0  1  0  0  0  0  0  0
  189.2640  178.1150  138.6560 C   0  0  0  0  0  2  0  0  0  0  0  0
  190.4270  177.1720  138.9150 C   0  0  0  0  0  2  0  0  0  0  0  0
  189.3670  174.3700  137.0580 C   0  0  0  0  0  0  0  0  0  0  0  0
  189.1350  175.5740  137.5230 O   0  0  0  0  0  0  0  0  0  0  0  0
  190.2220  175.8910  138.1830 C   0  0  0  0  0  0  0  0  0  0  0  0
  190.5850  173.9280  137.4210 N   0  0  0  0  0  0  0  0  0  0  0  0
  191.1300  174.8990  138.1410 N   0  0  0  0  0  0  0  0  0  0  0  0
  188.4100  173.5900  136.2290 C   0  0  0  0  0  1  0  0  0  0  0  0
  1  7  2  0  0  0  0
  1  9  1  0  0  0  0
  2 11  1  0  0  0  0
  3  8  1  0  0  0  0
  4 11  1  0  0  0  0
  4 18  1  1  0  0  0
  5 14  2  0  0  0  0
  6  2  2  0  0  0  0
  6 14  1  0  0  0  0
  7 17  1  0  0  0  0
  8  4  1  0  0  0  0
  9 13  2  0  0  0  0
 10  5  1  0  0  0  0
 12 10  2  0  0  0  0
 13  3  1  0  0  0  0
 13  2  1  0  0  0  0
 15 12  1  6  0  0  0
 15  6  1  0  0  0  0
 16  9  1  0  0  0  0
 16 15  1  0  0  0  0
 17  3  2  0  0  0  0
 18 22  1  0  0  0  0
 18 20  1  0  0  0  0
 19 20  2  0  0  0  0
 20 21  1  0  0  0  0
 23 24  1  0  0  0  0
 24 16  1  0  0  0  0
 25 23  1  0  0  0  0
 25 24  1  0  0  0  0
 26 10  1  0  0  0  0
 27 26  1  0  0  0  0
 28 29  1  0  0  0  0
 28  7  1  0  0  0  0
 30 33  2  0  0  0  0
 30 31  1  0  0  0  0
 31 32  1  0  0  0  0
 32 29  1  0  0  0  0
 33 34  1  0  0  0  0
 34 32  2  0  0  0  0
 35 30  1  0  0  0  0
M  END
>  <MODEL>
9

>  <REMARK>
 VINA RESULT:      -9.2      2.339      6.818
  Name = 
  6 active torsions:
  status: ('A' for Active; 'I' for Inactive)
    1  A    between atoms: N_1  and  C_10
    2  A    between atoms: C_3  and  C_8
    3  A    between atoms: C_3  and  C_24
    4  A    between atoms: C_9  and  CA_21
    5  A    between atoms: C_13  and  C_24
    6  A    between atoms: C_15  and  N_32
                            x       y       z     vdW  Elec       q    Type
                         _______ _______ _______ _____ _____    ______ ____

>  <TORSDO>
F 6

$$$$
