=
 OpenBabel10232408213D

 30 34  0  0  1  0  0  0  0  0999 V2000
  188.1750  177.3320  145.1490 C   0  0  0  0  0  0  0  0  0  0  0  0
  185.2820  178.3470  143.0040 N   0  0  0  0  0  0  0  0  0  0  0  0
  189.7760  177.8940  142.0240 N   0  0  0  0  0  0  0  0  0  0  0  0
  186.1160  178.5660  145.7520 C   0  0  0  0  0  3  0  0  0  0  0  0
  186.4910  178.5180  147.0400 C   0  0  0  0  0  3  0  0  0  0  0  0
  186.7240  177.5860  144.7780 C   0  0  1  0  0  3  0  0  0  0  0  0
  189.1610  177.2030  144.1730 O   0  0  0  0  0  0  0  0  0  0  0  0
  189.1640  178.3360  140.7840 C   0  0  2  0  0  3  0  0  0  0  0  0
  187.4940  177.4790  142.2930 C   0  0  2  0  0  3  0  0  0  0  0  0
  187.5120  177.4920  147.4650 C   0  0  2  0  0  3  0  0  0  0  0  0
  186.4810  177.9360  143.3250 C   0  0  0  0  0  0  0  0  0  0  0  0
  188.8710  177.4870  142.8450 C   0  0  0  0  0  0  0  0  0  0  0  0
  188.1930  177.9310  148.7440 C   0  0  0  0  0  1  0  0  0  0  0  0
  187.6640  178.3920  141.0820 C   0  0  0  0  0  2  0  0  0  0  0  0
  188.5090  177.2970  146.4060 N   0  0  0  0  0  0  0  0  0  0  0  0
  183.4700  178.7710  139.2280 C   0  0  0  0  0  0  0  0  0  0  0  0
  183.0510  177.7310  140.0590 C   0  0  0  0  0  3  0  0  0  0  0  0
  182.9360  178.9260  138.0990 O   0  0  0  0  0  0  0  0  0  0  0  0
  185.0510  179.4800  140.8510 C   0  0  0  0  0  3  0  0  0  0  0  0
  184.4480  179.6200  139.6400 N   0  0  0  0  0  0  0  0  0  0  0  0
  184.6890  178.4320  141.7020 C   0  0  2  0  0  3  0  0  0  0  0  0
  183.6570  177.5700  141.3060 C   0  0  0  0  0  3  0  0  0  0  0  0
  190.0360  175.6380  137.5380 C   0  0  0  0  0  3  0  0  0  0  0  0
  191.0530  176.0420  138.4060 C   0  0  0  0  0  3  0  0  0  0  0  0
  189.4650  177.3860  139.6570 C   0  0  0  0  0  0  0  0  0  0  0  0
  190.7780  176.9190  139.4700 C   0  0  0  0  0  0  0  0  0  0  0  0
  188.4500  176.9780  138.7770 C   0  0  0  0  0  3  0  0  0  0  0  0
  188.7340  176.1060  137.7230 C   0  0  0  0  0  3  0  0  0  0  0  0
  191.7910  177.3320  140.3440 O   0  0  0  0  0  0  0  0  0  0  0  0
  193.1660  177.3340  139.9840 C   0  0  0  0  0  1  0  0  0  0  0  0
  1 15  2  0  0  0  0
  2 11  2  0  0  0  0
  3 12  2  0  0  0  0
  4  5  2  0  0  0  0
  5 10  1  0  0  0  0
  6  1  1  0  0  0  0
  6  4  1  1  0  0  0
  7  1  1  0  0  0  0
  8 25  1  6  0  0  0
  8 14  1  0  0  0  0
  8  3  1  0  0  0  0
  9 14  1  6  0  0  0
  9 12  1  0  0  0  0
  9 11  1  0  0  0  0
 10 13  1  1  0  0  0
 11  6  1  0  0  0  0
 12  7  1  0  0  0  0
 15 10  1  0  0  0  0
 16 20  1  0  0  0  0
 16 17  1  0  0  0  0
 17 22  2  0  0  0  0
 18 16  2  0  0  0  0
 19 21  1  0  0  0  0
 20 19  2  0  0  0  0
 21  2  1  1  0  0  0
 22 21  1  0  0  0  0
 23 28  2  0  0  0  0
 23 24  1  0  0  0  0
 24 26  2  0  0  0  0
 26 25  1  0  0  0  0
 26 29  1  0  0  0  0
 27 25  2  0  0  0  0
 28 27  1  0  0  0  0
 30 29  1  0  0  0  0
M  END
>  <MODEL>
1

>  <REMARK>
 VINA RESULT:      -9.4      0.000      0.000
  Name = 
  3 active torsions:
  status: ('A' for Active; 'I' for Inactive)
    1  A    between atoms: N_3  and  C_24
    2  A    between atoms: C_15  and  C_17
    3  A    between atoms: C_16  and  O_20
                            x       y       z     vdW  Elec       q    Type
                         _______ _______ _______ _____ _____    ______ ____

>  <TORSDO>
F 3

$$$$
=
 OpenBabel10232408213D

 30 34  0  0  1  0  0  0  0  0999 V2000
  188.1650  177.3800  145.1480 C   0  0  0  0  0  0  0  0  0  0  0  0
  185.2450  178.3250  143.0100 N   0  0  0  0  0  0  0  0  0  0  0  0
  189.7510  178.0220  142.0320 N   0  0  0  0  0  0  0  0  0  0  0  0
  186.0680  178.5430  145.7610 C   0  0  0  0  0  3  0  0  0  0  0  0
  186.4440  178.4940  147.0490 C   0  0  0  0  0  3  0  0  0  0  0  0
  186.7080  177.5920  144.7790 C   0  0  1  0  0  3  0  0  0  0  0  0
  189.1560  177.2910  144.1730 O   0  0  0  0  0  0  0  0  0  0  0  0
  189.1270  178.4570  140.7950 C   0  0  2  0  0  3  0  0  0  0  0  0
  187.4830  177.5330  142.2940 C   0  0  2  0  0  3  0  0  0  0  0  0
  187.4960  177.4950  147.4650 C   0  0  2  0  0  3  0  0  0  0  0  0
  186.4550  177.9480  143.3290 C   0  0  0  0  0  0  0  0  0  0  0  0
  188.8580  177.5790  142.8470 C   0  0  0  0  0  0  0  0  0  0  0  0
  188.1620  177.9430  148.7490 C   0  0  0  0  0  1  0  0  0  0  0  0
  187.6260  178.4640  141.0920 C   0  0  0  0  0  2  0  0  0  0  0  0
  188.4990  177.3420  146.4060 N   0  0  0  0  0  0  0  0  0  0  0  0
  183.4240  178.7310  139.2360 C   0  0  0  0  0  0  0  0  0  0  0  0
  183.0340  177.6710  140.0570 C   0  0  0  0  0  3  0  0  0  0  0  0
  182.8870  178.8800  138.1080 O   0  0  0  0  0  0  0  0  0  0  0  0
  184.9830  179.4710  140.8670 C   0  0  0  0  0  3  0  0  0  0  0  0
  184.3770  179.6040  139.6570 N   0  0  0  0  0  0  0  0  0  0  0  0
  184.6500  178.4050  141.7080 C   0  0  2  0  0  3  0  0  0  0  0  0
  183.6440  177.5170  141.3040 C   0  0  0  0  0  3  0  0  0  0  0  0
  190.0580  175.7740  137.5530 C   0  0  0  0  0  3  0  0  0  0  0  0
  188.9690  176.6410  137.4540 C   0  0  0  0  0  3  0  0  0  0  0  0
  189.4590  177.5280  139.6590 C   0  0  0  0  0  0  0  0  0  0  0  0
  188.6580  177.5220  138.5030 C   0  0  0  0  0  0  0  0  0  0  0  0
  190.5500  176.6490  139.7530 C   0  0  0  0  0  3  0  0  0  0  0  0
  190.8490  175.7770  138.7040 C   0  0  0  0  0  3  0  0  0  0  0  0
  187.5660  178.3940  138.4150 O   0  0  0  0  0  0  0  0  0  0  0  0
  186.6750  178.4030  137.3070 C   0  0  0  0  0  1  0  0  0  0  0  0
  1 15  2  0  0  0  0
  2 11  2  0  0  0  0
  3 12  2  0  0  0  0
  4  5  2  0  0  0  0
  5 10  1  0  0  0  0
  6  1  1  0  0  0  0
  6  4  1  1  0  0  0
  7  1  1  0  0  0  0
  8 25  1  6  0  0  0
  8 14  1  0  0  0  0
  8  3  1  0  0  0  0
  9 14  1  6  0  0  0
  9 12  1  0  0  0  0
  9 11  1  0  0  0  0
 10 13  1  1  0  0  0
 11  6  1  0  0  0  0
 12  7  1  0  0  0  0
 15 10  1  0  0  0  0
 16 20  1  0  0  0  0
 16 17  1  0  0  0  0
 17 22  2  0  0  0  0
 18 16  2  0  0  0  0
 19 21  1  0  0  0  0
 20 19  2  0  0  0  0
 21  2  1  1  0  0  0
 22 21  1  0  0  0  0
 23 28  1  0  0  0  0
 24 23  2  0  0  0  0
 24 26  1  0  0  0  0
 25 27  1  0  0  0  0
 26 25  2  0  0  0  0
 28 27  2  0  0  0  0
 29 26  1  0  0  0  0
 30 29  1  0  0  0  0
M  END
>  <MODEL>
2

>  <REMARK>
 VINA RESULT:      -9.3      1.009      1.786
  Name = 
  3 active torsions:
  status: ('A' for Active; 'I' for Inactive)
    1  A    between atoms: N_3  and  C_24
    2  A    between atoms: C_15  and  C_17
    3  A    between atoms: C_16  and  O_20
                            x       y       z     vdW  Elec       q    Type
                         _______ _______ _______ _____ _____    ______ ____

>  <TORSDO>
F 3

$$$$
=
 OpenBabel10232408213D

 30 34  0  0  1  0  0  0  0  0999 V2000
  189.6000  176.4590  137.8020 C   0  0  0  0  0  0  0  0  0  0  0  0
  191.4160  176.7130  141.0640 N   0  0  0  0  0  0  0  0  0  0  0  0
  187.4440  178.6030  139.6460 N   0  0  0  0  0  0  0  0  0  0  0  0
  192.0310  176.4110  138.2660 C   0  0  0  0  0  3  0  0  0  0  0  0
  192.2500  176.1360  136.9710 C   0  0  0  0  0  3  0  0  0  0  0  0
  190.6610  176.1530  138.8450 C   0  0  1  0  0  3  0  0  0  0  0  0
  188.4040  177.0850  138.1470 O   0  0  0  0  0  0  0  0  0  0  0  0
  187.6310  179.0930  141.0000 C   0  0  2  0  0  3  0  0  0  0  0  0
  189.0240  177.1690  140.5960 C   0  0  2  0  0  3  0  0  0  0  0  0
  191.1170  175.5860  136.1400 C   0  0  2  0  0  3  0  0  0  0  0  0
  190.4380  176.7910  140.2000 C   0  0  0  0  0  0  0  0  0  0  0  0
  188.2310  177.6090  139.4210 C   0  0  0  0  0  0  0  0  0  0  0  0
  191.3660  175.8580  134.6710 C   0  0  0  0  0  1  0  0  0  0  0  0
  188.8940  178.3900  141.5030 C   0  0  0  0  0  2  0  0  0  0  0  0
  189.8440  176.1860  136.5530 N   0  0  0  0  0  0  0  0  0  0  0  0
  191.4800  177.3760  145.2200 C   0  0  0  0  0  0  0  0  0  0  0  0
  191.0850  176.1230  144.7480 C   0  0  0  0  0  3  0  0  0  0  0  0
  191.5180  177.5960  146.4580 O   0  0  0  0  0  0  0  0  0  0  0  0
  191.7950  178.1550  143.0000 C   0  0  0  0  0  3  0  0  0  0  0  0
  191.8290  178.3550  144.3450 N   0  0  0  0  0  0  0  0  0  0  0  0
  191.3720  176.9280  142.4800 C   0  0  2  0  0  3  0  0  0  0  0  0
  191.0440  175.8970  143.3710 C   0  0  0  0  0  3  0  0  0  0  0  0
  184.2260  178.2030  143.4880 C   0  0  0  0  0  3  0  0  0  0  0  0
  184.0440  178.7970  142.2380 C   0  0  0  0  0  3  0  0  0  0  0  0
  186.4420  178.7720  141.8640 C   0  0  0  0  0  0  0  0  0  0  0  0
  185.1470  179.0890  141.4170 C   0  0  0  0  0  0  0  0  0  0  0  0
  186.6160  178.1780  143.1260 C   0  0  0  0  0  3  0  0  0  0  0  0
  185.5120  177.8940  143.9330 C   0  0  0  0  0  3  0  0  0  0  0  0
  184.9760  179.6870  140.1630 O   0  0  0  0  0  0  0  0  0  0  0  0
  183.8300  179.4610  139.3520 C   0  0  0  0  0  1  0  0  0  0  0  0
  1  7  1  0  0  0  0
  1  6  1  0  0  0  0
  3  8  1  0  0  0  0
  5  4  2  0  0  0  0
  6  4  1  6  0  0  0
  6 11  1  0  0  0  0
  7 12  1  0  0  0  0
  8 14  1  0  0  0  0
  8 25  1  1  0  0  0
  9 14  1  1  0  0  0
 10 13  1  6  0  0  0
 10 15  1  0  0  0  0
 10  5  1  0  0  0  0
 11  9  1  0  0  0  0
 11  2  2  0  0  0  0
 12  3  2  0  0  0  0
 12  9  1  0  0  0  0
 15  1  2  0  0  0  0
 16 18  2  0  0  0  0
 17 16  1  0  0  0  0
 19 20  2  0  0  0  0
 20 16  1  0  0  0  0
 21  2  1  6  0  0  0
 21 19  1  0  0  0  0
 21 22  1  0  0  0  0
 22 17  2  0  0  0  0
 23 28  1  0  0  0  0
 24 23  2  0  0  0  0
 25 27  1  0  0  0  0
 26 25  2  0  0  0  0
 26 24  1  0  0  0  0
 27 28  2  0  0  0  0
 29 26  1  0  0  0  0
 30 29  1  0  0  0  0
M  END
>  <MODEL>
3

>  <REMARK>
 VINA RESULT:      -9.1      2.399      8.048
  Name = 
  3 active torsions:
  status: ('A' for Active; 'I' for Inactive)
    1  A    between atoms: N_3  and  C_24
    2  A    between atoms: C_15  and  C_17
    3  A    between atoms: C_16  and  O_20
                            x       y       z     vdW  Elec       q    Type
                         _______ _______ _______ _____ _____    ______ ____

>  <TORSDO>
F 3

$$$$
=
 OpenBabel10232408213D

 30 34  0  0  1  0  0  0  0  0999 V2000
  189.5160  177.7440  138.9950 C   0  0  0  0  0  0  0  0  0  0  0  0
  186.3020  178.5900  140.7140 N   0  0  0  0  0  0  0  0  0  0  0  0
  189.9440  176.1210  142.1290 N   0  0  0  0  0  0  0  0  0  0  0  0
  187.2550  178.0790  138.0450 C   0  0  0  0  0  3  0  0  0  0  0  0
  187.7790  177.9670  136.8150 C   0  0  0  0  0  3  0  0  0  0  0  0
  188.1680  178.4130  139.2000 C   0  0  1  0  0  3  0  0  0  0  0  0
  190.2140  177.1780  140.0600 O   0  0  0  0  0  0  0  0  0  0  0  0
  189.0040  176.0710  143.2350 C   0  0  2  0  0  3  0  0  0  0  0  0
  188.4460  177.8670  141.7300 C   0  0  2  0  0  3  0  0  0  0  0  0
  189.2640  178.1730  136.6330 C   0  0  2  0  0  3  0  0  0  0  0  0
  187.5400  178.1960  140.5600 C   0  0  0  0  0  0  0  0  0  0  0  0
  189.6070  177.0490  141.3030 C   0  0  0  0  0  0  0  0  0  0  0  0
  189.7340  177.4900  135.3660 C   0  0  0  0  0  1  0  0  0  0  0  0
  187.8420  176.9680  142.8050 C   0  0  0  0  0  2  0  0  0  0  0  0
  189.9960  177.6460  137.7890 N   0  0  0  0  0  0  0  0  0  0  0  0
  184.0300  179.2660  144.1940 C   0  0  0  0  0  0  0  0  0  0  0  0
  185.1380  180.0800  143.9480 C   0  0  0  0  0  3  0  0  0  0  0  0
  183.3290  179.4550  145.2200 O   0  0  0  0  0  0  0  0  0  0  0  0
  184.4440  178.0390  142.2030 C   0  0  0  0  0  3  0  0  0  0  0  0
  183.7060  178.2760  143.3210 N   0  0  0  0  0  0  0  0  0  0  0  0
  185.5820  178.8050  141.9350 C   0  0  2  0  0  3  0  0  0  0  0  0
  185.9080  179.8530  142.8070 C   0  0  0  0  0  3  0  0  0  0  0  0
  190.8140  177.5050  146.8740 C   0  0  0  0  0  3  0  0  0  0  0  0
  189.4360  177.6240  146.6830 C   0  0  0  0  0  3  0  0  0  0  0  0
  189.6350  176.5610  144.5100 C   0  0  0  0  0  0  0  0  0  0  0  0
  188.8350  177.1570  145.5020 C   0  0  0  0  0  0  0  0  0  0  0  0
  191.0210  176.4500  144.7090 C   0  0  0  0  0  3  0  0  0  0  0  0
  191.6070  176.9180  145.8870 C   0  0  0  0  0  3  0  0  0  0  0  0
  187.4550  177.2730  145.2980 O   0  0  0  0  0  0  0  0  0  0  0  0
  186.5550  177.6640  146.3270 C   0  0  0  0  0  1  0  0  0  0  0  0
  1  6  1  0  0  0  0
  1  7  1  0  0  0  0
  3  8  1  0  0  0  0
  5  4  2  0  0  0  0
  6  4  1  6  0  0  0
  6 11  1  0  0  0  0
  7 12  1  0  0  0  0
  8 25  1  1  0  0  0
  9 14  1  1  0  0  0
 10 13  1  6  0  0  0
 10  5  1  0  0  0  0
 10 15  1  0  0  0  0
 11  2  2  0  0  0  0
 11  9  1  0  0  0  0
 12  9  1  0  0  0  0
 12  3  2  0  0  0  0
 14  8  1  0  0  0  0
 15  1  2  0  0  0  0
 16 18  2  0  0  0  0
 17 16  1  0  0  0  0
 19 20  2  0  0  0  0
 20 16  1  0  0  0  0
 21  2  1  6  0  0  0
 21 19  1  0  0  0  0
 21 22  1  0  0  0  0
 22 17  2  0  0  0  0
 24 23  1  0  0  0  0
 25 27  2  0  0  0  0
 25 26  1  0  0  0  0
 26 24  2  0  0  0  0
 27 28  1  0  0  0  0
 28 23  2  0  0  0  0
 29 26  1  0  0  0  0
 29 30  1  0  0  0  0
M  END
>  <MODEL>
4

>  <REMARK>
 VINA RESULT:      -9.0      2.377      6.549
  Name = 
  3 active torsions:
  status: ('A' for Active; 'I' for Inactive)
    1  A    between atoms: N_3  and  C_24
    2  A    between atoms: C_15  and  C_17
    3  A    between atoms: C_16  and  O_20
                            x       y       z     vdW  Elec       q    Type
                         _______ _______ _______ _____ _____    ______ ____

>  <TORSDO>
F 3

$$$$
=
 OpenBabel10232408213D

 30 34  0  0  1  0  0  0  0  0999 V2000
  190.2630  176.5380  144.2910 C   0  0  0  0  0  0  0  0  0  0  0  0
  186.9490  178.0090  143.3670 N   0  0  0  0  0  0  0  0  0  0  0  0
  190.7280  177.2090  140.8300 N   0  0  0  0  0  0  0  0  0  0  0  0
  188.7090  177.9090  145.6450 C   0  0  0  0  0  3  0  0  0  0  0  0
  189.5010  177.7150  146.7100 C   0  0  0  0  0  3  0  0  0  0  0  0
  188.8160  176.9630  144.4740 C   0  0  1  0  0  3  0  0  0  0  0  0
  190.8230  176.3990  143.0220 O   0  0  0  0  0  0  0  0  0  0  0  0
  189.7800  177.8140  139.9110 C   0  0  2  0  0  3  0  0  0  0  0  0
  188.6510  176.9960  141.8760 C   0  0  2  0  0  3  0  0  0  0  0  0
  190.4750  176.5610  146.6950 C   0  0  2  0  0  3  0  0  0  0  0  0
  188.1250  177.4580  143.2210 C   0  0  0  0  0  0  0  0  0  0  0  0
  190.1240  176.8230  141.8990 C   0  0  0  0  0  0  0  0  0  0  0  0
  191.6070  176.8200  147.6670 C   0  0  0  0  0  1  0  0  0  0  0  0
  188.4980  177.9890  140.7270 C   0  0  0  0  0  2  0  0  0  0  0  0
  191.0080  176.3630  145.3430 N   0  0  0  0  0  0  0  0  0  0  0  0
  184.0180  178.9390  140.4920 C   0  0  0  0  0  0  0  0  0  0  0  0
  183.7170  177.9920  141.4730 C   0  0  0  0  0  3  0  0  0  0  0  0
  183.1550  179.2430  139.6290 O   0  0  0  0  0  0  0  0  0  0  0  0
  186.1970  179.2320  141.3890 C   0  0  0  0  0  3  0  0  0  0  0  0
  185.2380  179.5390  140.4750 N   0  0  0  0  0  0  0  0  0  0  0  0
  185.9540  178.2630  142.3680 C   0  0  2  0  0  3  0  0  0  0  0  0
  184.6880  177.6640  142.4210 C   0  0  0  0  0  3  0  0  0  0  0  0
  189.1070  175.2920  136.4820 C   0  0  0  0  0  3  0  0  0  0  0  0
  188.2660  176.3790  136.7280 C   0  0  0  0  0  3  0  0  0  0  0  0
  189.5520  176.9400  138.7090 C   0  0  0  0  0  0  0  0  0  0  0  0
  188.4780  177.2100  137.8410 C   0  0  0  0  0  0  0  0  0  0  0  0
  190.3900  175.8410  138.4560 C   0  0  0  0  0  3  0  0  0  0  0  0
  190.1690  175.0220  137.3470 C   0  0  0  0  0  3  0  0  0  0  0  0
  187.6400  178.3000  138.0990 O   0  0  0  0  0  0  0  0  0  0  0  0
  186.3320  178.4130  137.5510 C   0  0  0  0  0  1  0  0  0  0  0  0
  1  6  1  0  0  0  0
  1 15  2  0  0  0  0
  3 12  2  0  0  0  0
  4  5  2  0  0  0  0
  6  4  1  1  0  0  0
  7  1  1  0  0  0  0
  8 25  1  6  0  0  0
  8 14  1  0  0  0  0
  8  3  1  0  0  0  0
  9 14  1  6  0  0  0
  9 12  1  0  0  0  0
  9 11  1  0  0  0  0
 10  5  1  0  0  0  0
 10 13  1  1  0  0  0
 11  2  2  0  0  0  0
 11  6  1  0  0  0  0
 12  7  1  0  0  0  0
 15 10  1  0  0  0  0
 16 17  1  0  0  0  0
 17 22  2  0  0  0  0
 18 16  2  0  0  0  0
 19 21  1  0  0  0  0
 20 16  1  0  0  0  0
 20 19  2  0  0  0  0
 21 22  1  0  0  0  0
 21  2  1  1  0  0  0
 23 24  2  0  0  0  0
 23 28  1  0  0  0  0
 24 26  1  0  0  0  0
 26 29  1  0  0  0  0
 26 25  2  0  0  0  0
 27 25  1  0  0  0  0
 28 27  2  0  0  0  0
 30 29  1  0  0  0  0
M  END
>  <MODEL>
5

>  <REMARK>
 VINA RESULT:      -8.6      1.866      2.597
  Name = 
  3 active torsions:
  status: ('A' for Active; 'I' for Inactive)
    1  A    between atoms: N_3  and  C_24
    2  A    between atoms: C_15  and  C_17
    3  A    between atoms: C_16  and  O_20
                            x       y       z     vdW  Elec       q    Type
                         _______ _______ _______ _____ _____    ______ ____

>  <TORSDO>
F 3

$$$$
=
 OpenBabel10232408213D

 30 34  0  0  1  0  0  0  0  0999 V2000
  189.4970  176.9500  144.7320 C   0  0  0  0  0  0  0  0  0  0  0  0
  185.9520  178.1400  144.6100 N   0  0  0  0  0  0  0  0  0  0  0  0
  189.2670  178.1450  141.3910 N   0  0  0  0  0  0  0  0  0  0  0  0
  188.0960  177.9280  146.5220 C   0  0  0  0  0  3  0  0  0  0  0  0
  189.0810  177.6810  147.3980 C   0  0  0  0  0  3  0  0  0  0  0  0
  188.0750  177.1730  145.2150 C   0  0  1  0  0  3  0  0  0  0  0  0
  189.8290  177.0540  143.3820 O   0  0  0  0  0  0  0  0  0  0  0  0
  188.1180  178.7580  140.7480 C   0  0  2  0  0  3  0  0  0  0  0  0
  187.4410  177.5480  142.7180 C   0  0  2  0  0  3  0  0  0  0  0  0
  190.1360  176.6620  147.0420 C   0  0  2  0  0  3  0  0  0  0  0  0
  187.1270  177.7540  144.1870 C   0  0  0  0  0  0  0  0  0  0  0  0
  188.9040  177.5460  142.4710 C   0  0  0  0  0  0  0  0  0  0  0  0
  191.3970  176.9130  147.8420 C   0  0  0  0  0  1  0  0  0  0  0  0
  186.9940  178.6670  141.7810 C   0  0  0  0  0  2  0  0  0  0  0  0
  190.4320  176.7170  145.6060 N   0  0  0  0  0  0  0  0  0  0  0  0
  182.3870  178.8510  142.4860 C   0  0  0  0  0  0  0  0  0  0  0  0
  183.3750  178.0640  141.8920 C   0  0  0  0  0  3  0  0  0  0  0  0
  181.3080  179.0690  141.8770 O   0  0  0  0  0  0  0  0  0  0  0  0
  183.7420  179.1640  144.4110 C   0  0  0  0  0  3  0  0  0  0  0  0
  182.5870  179.3750  143.7250 N   0  0  0  0  0  0  0  0  0  0  0  0
  184.7730  178.4130  143.8410 C   0  0  2  0  0  3  0  0  0  0  0  0
  184.5680  177.8360  142.5800 C   0  0  0  0  0  3  0  0  0  0  0  0
  187.0690  176.6750  137.1240 C   0  0  0  0  0  3  0  0  0  0  0  0
  186.1700  177.5740  137.7000 C   0  0  0  0  0  3  0  0  0  0  0  0
  187.7570  178.0380  139.4770 C   0  0  0  0  0  0  0  0  0  0  0  0
  186.5040  178.2610  138.8800 C   0  0  0  0  0  0  0  0  0  0  0  0
  188.6540  177.1280  138.8930 C   0  0  0  0  0  3  0  0  0  0  0  0
  188.3110  176.4510  137.7210 C   0  0  0  0  0  3  0  0  0  0  0  0
  185.6090  179.1630  139.4670 O   0  0  0  0  0  0  0  0  0  0  0  0
  184.3260  179.4420  138.9210 C   0  0  0  0  0  1  0  0  0  0  0  0
  1  6  1  0  0  0  0
  1 15  2  0  0  0  0
  3 12  2  0  0  0  0
  4  5  2  0  0  0  0
  6  4  1  1  0  0  0
  7  1  1  0  0  0  0
  8 25  1  6  0  0  0
  8  3  1  0  0  0  0
  8 14  1  0  0  0  0
  9 14  1  6  0  0  0
  9 11  1  0  0  0  0
 10  5  1  0  0  0  0
 10 13  1  1  0  0  0
 11  2  2  0  0  0  0
 11  6  1  0  0  0  0
 12  9  1  0  0  0  0
 12  7  1  0  0  0  0
 15 10  1  0  0  0  0
 16 20  1  0  0  0  0
 17 16  1  0  0  0  0
 17 22  2  0  0  0  0
 18 16  2  0  0  0  0
 20 19  2  0  0  0  0
 21 19  1  0  0  0  0
 21  2  1  1  0  0  0
 22 21  1  0  0  0  0
 23 24  2  0  0  0  0
 23 28  1  0  0  0  0
 24 26  1  0  0  0  0
 26 29  1  0  0  0  0
 26 25  2  0  0  0  0
 27 25  1  0  0  0  0
 28 27  2  0  0  0  0
 30 29  1  0  0  0  0
M  END
>  <MODEL>
6

>  <REMARK>
 VINA RESULT:      -8.6      1.976      3.220
  Name = 
  3 active torsions:
  status: ('A' for Active; 'I' for Inactive)
    1  A    between atoms: N_3  and  C_24
    2  A    between atoms: C_15  and  C_17
    3  A    between atoms: C_16  and  O_20
                            x       y       z     vdW  Elec       q    Type
                         _______ _______ _______ _____ _____    ______ ____

>  <TORSDO>
F 3

$$$$
=
 OpenBabel10232408213D

 30 34  0  0  1  0  0  0  0  0999 V2000
  190.2690  176.5440  144.2320 C   0  0  0  0  0  0  0  0  0  0  0  0
  186.9440  178.0070  143.3380 N   0  0  0  0  0  0  0  0  0  0  0  0
  190.7250  177.2770  140.7830 N   0  0  0  0  0  0  0  0  0  0  0  0
  188.7070  177.8800  145.6110 C   0  0  0  0  0  3  0  0  0  0  0  0
  189.5020  177.6730  146.6720 C   0  0  0  0  0  3  0  0  0  0  0  0
  188.8200  176.9540  144.4240 C   0  0  1  0  0  3  0  0  0  0  0  0
  190.8290  176.4300  142.9610 O   0  0  0  0  0  0  0  0  0  0  0  0
  189.7720  177.8910  139.8760 C   0  0  2  0  0  3  0  0  0  0  0  0
  188.6510  177.0310  141.8270 C   0  0  2  0  0  3  0  0  0  0  0  0
  190.4840  176.5270  146.6370 C   0  0  2  0  0  3  0  0  0  0  0  0
  188.1240  177.4660  143.1800 C   0  0  0  0  0  0  0  0  0  0  0  0
  190.1260  176.8690  141.8460 C   0  0  0  0  0  0  0  0  0  0  0  0
  191.6150  176.7780  147.6110 C   0  0  0  0  0  1  0  0  0  0  0  0
  188.4900  178.0430  140.6960 C   0  0  0  0  0  2  0  0  0  0  0  0
  191.0170  176.3560  145.2810 N   0  0  0  0  0  0  0  0  0  0  0  0
  184.0080  178.9670  140.4770 C   0  0  0  0  0  0  0  0  0  0  0  0
  183.6960  178.0380  141.4710 C   0  0  0  0  0  3  0  0  0  0  0  0
  183.1450  179.2790  139.6170 O   0  0  0  0  0  0  0  0  0  0  0  0
  186.2010  179.2210  141.3510 C   0  0  0  0  0  3  0  0  0  0  0  0
  185.2420  179.5380  140.4410 N   0  0  0  0  0  0  0  0  0  0  0  0
  185.9460  178.2710  142.3430 C   0  0  2  0  0  3  0  0  0  0  0  0
  184.6670  177.7000  142.4150 C   0  0  0  0  0  3  0  0  0  0  0  0
  189.1340  175.4660  136.3710 C   0  0  0  0  0  3  0  0  0  0  0  0
  190.4320  175.7910  136.7710 C   0  0  0  0  0  3  0  0  0  0  0  0
  189.5490  177.0360  138.6590 C   0  0  0  0  0  0  0  0  0  0  0  0
  190.6510  176.5790  137.9140 C   0  0  0  0  0  0  0  0  0  0  0  0
  188.2470  176.7070  138.2460 C   0  0  0  0  0  3  0  0  0  0  0  0
  188.0420  175.9250  137.1080 C   0  0  0  0  0  3  0  0  0  0  0  0
  191.9480  176.9130  138.3230 O   0  0  0  0  0  0  0  0  0  0  0  0
  193.1050  176.2530  137.8280 C   0  0  0  0  0  1  0  0  0  0  0  0
  1  6  1  0  0  0  0
  1 15  2  0  0  0  0
  3 12  2  0  0  0  0
  4  5  2  0  0  0  0
  6  4  1  1  0  0  0
  7  1  1  0  0  0  0
  8 25  1  6  0  0  0
  8 14  1  0  0  0  0
  8  3  1  0  0  0  0
  9 14  1  6  0  0  0
  9 12  1  0  0  0  0
  9 11  1  0  0  0  0
 10  5  1  0  0  0  0
 10 13  1  1  0  0  0
 11  2  2  0  0  0  0
 11  6  1  0  0  0  0
 12  7  1  0  0  0  0
 15 10  1  0  0  0  0
 16 17  1  0  0  0  0
 17 22  2  0  0  0  0
 18 16  2  0  0  0  0
 19 21  1  0  0  0  0
 20 16  1  0  0  0  0
 20 19  2  0  0  0  0
 21 22  1  0  0  0  0
 21  2  1  1  0  0  0
 23 24  2  0  0  0  0
 23 28  1  0  0  0  0
 24 26  1  0  0  0  0
 26 29  1  0  0  0  0
 26 25  2  0  0  0  0
 27 25  1  0  0  0  0
 28 27  2  0  0  0  0
 30 29  1  0  0  0  0
M  END
>  <MODEL>
7

>  <REMARK>
 VINA RESULT:      -8.6      1.662      1.968
  Name = 
  3 active torsions:
  status: ('A' for Active; 'I' for Inactive)
    1  A    between atoms: N_3  and  C_24
    2  A    between atoms: C_15  and  C_17
    3  A    between atoms: C_16  and  O_20
                            x       y       z     vdW  Elec       q    Type
                         _______ _______ _______ _____ _____    ______ ____

>  <TORSDO>
F 3

$$$$
=
 OpenBabel10232408213D

 30 34  0  0  1  0  0  0  0  0999 V2000
  190.2400  177.3590  140.5480 C   0  0  0  0  0  0  0  0  0  0  0  0
  186.6590  178.3800  140.9010 N   0  0  0  0  0  0  0  0  0  0  0  0
  189.5210  176.2770  143.8580 N   0  0  0  0  0  0  0  0  0  0  0  0
  188.4530  177.4720  138.8400 C   0  0  0  0  0  3  0  0  0  0  0  0
  189.3640  177.1770  137.9000 C   0  0  0  0  0  3  0  0  0  0  0  0
  188.9240  178.0140  140.1680 C   0  0  1  0  0  3  0  0  0  0  0  0
  190.5150  176.9930  141.8650 O   0  0  0  0  0  0  0  0  0  0  0  0
  188.2580  176.3800  144.5670 C   0  0  2  0  0  3  0  0  0  0  0  0
  188.3020  177.8930  142.6930 C   0  0  2  0  0  3  0  0  0  0  0  0
  190.8260  177.3930  138.2070 C   0  0  2  0  0  3  0  0  0  0  0  0
  187.8620  178.0020  141.2460 C   0  0  0  0  0  0  0  0  0  0  0  0
  189.5150  177.0490  142.8280 C   0  0  0  0  0  0  0  0  0  0  0  0
  191.6820  176.5280  137.3060 C   0  0  0  0  0  1  0  0  0  0  0  0
  187.3400  177.1620  143.6260 C   0  0  0  0  0  2  0  0  0  0  0  0
  191.1020  177.0810  139.6130 N   0  0  0  0  0  0  0  0  0  0  0  0
  183.5680  179.4710  143.5440 C   0  0  0  0  0  0  0  0  0  0  0  0
  183.3320  178.4480  142.6230 C   0  0  0  0  0  3  0  0  0  0  0  0
  182.6650  179.8080  144.3520 O   0  0  0  0  0  0  0  0  0  0  0  0
  185.7730  179.7620  142.7120 C   0  0  0  0  0  3  0  0  0  0  0  0
  184.7750  180.0970  143.5730 N   0  0  0  0  0  0  0  0  0  0  0  0
  185.5700  178.7700  141.7490 C   0  0  2  0  0  3  0  0  0  0  0  0
  184.3440  178.0900  141.7310 C   0  0  0  0  0  3  0  0  0  0  0  0
  188.7480  178.4350  148.3240 C   0  0  0  0  0  3  0  0  0  0  0  0
  187.4860  178.3490  147.7320 C   0  0  0  0  0  3  0  0  0  0  0  0
  188.4280  177.0880  145.8840 C   0  0  0  0  0  0  0  0  0  0  0  0
  187.3150  177.6780  146.5090 C   0  0  0  0  0  0  0  0  0  0  0  0
  189.6940  177.1830  146.4840 C   0  0  0  0  0  3  0  0  0  0  0  0
  189.8520  177.8530  147.6990 C   0  0  0  0  0  3  0  0  0  0  0  0
  186.0550  177.5880  145.9050 O   0  0  0  0  0  0  0  0  0  0  0  0
  184.8790  178.1290  146.4930 C   0  0  0  0  0  1  0  0  0  0  0  0
  1  7  1  0  0  0  0
  2 11  2  0  0  0  0
  3  8  1  0  0  0  0
  5 10  1  0  0  0  0
  5  4  2  0  0  0  0
  6  4  1  6  0  0  0
  6  1  1  0  0  0  0
  6 11  1  0  0  0  0
  7 12  1  0  0  0  0
  8 25  1  1  0  0  0
  9 12  1  0  0  0  0
  9 14  1  1  0  0  0
 10 13  1  6  0  0  0
 10 15  1  0  0  0  0
 11  9  1  0  0  0  0
 12  3  2  0  0  0  0
 14  8  1  0  0  0  0
 15  1  2  0  0  0  0
 16 20  1  0  0  0  0
 16 18  2  0  0  0  0
 17 16  1  0  0  0  0
 19 20  2  0  0  0  0
 21  2  1  1  0  0  0
 21 19  1  0  0  0  0
 22 21  1  0  0  0  0
 22 17  2  0  0  0  0
 24 23  1  0  0  0  0
 25 27  2  0  0  0  0
 25 26  1  0  0  0  0
 26 24  2  0  0  0  0
 27 28  1  0  0  0  0
 28 23  2  0  0  0  0
 29 30  1  0  0  0  0
 29 26  1  0  0  0  0
M  END
>  <MODEL>
8

>  <REMARK>
 VINA RESULT:      -8.5      2.014      6.608
  Name = 
  3 active torsions:
  status: ('A' for Active; 'I' for Inactive)
    1  A    between atoms: N_3  and  C_24
    2  A    between atoms: C_15  and  C_17
    3  A    between atoms: C_16  and  O_20
                            x       y       z     vdW  Elec       q    Type
                         _______ _______ _______ _____ _____    ______ ____

>  <TORSDO>
F 3

$$$$
=
 OpenBabel10232408213D

 30 34  0  0  1  0  0  0  0  0999 V2000
  188.9800  178.0810  140.0110 C   0  0  0  0  0  0  0  0  0  0  0  0
  185.3630  178.5310  140.8520 N   0  0  0  0  0  0  0  0  0  0  0  0
  188.8430  176.7140  143.2900 N   0  0  0  0  0  0  0  0  0  0  0  0
  186.9950  178.0230  138.5340 C   0  0  0  0  0  3  0  0  0  0  0  0
  187.8130  177.9230  137.4750 C   0  0  0  0  0  3  0  0  0  0  0  0
  187.5470  178.5520  139.8350 C   0  0  1  0  0  3  0  0  0  0  0  0
  189.4670  177.6840  141.2550 O   0  0  0  0  0  0  0  0  0  0  0  0
  187.6770  176.5850  144.1460 C   0  0  2  0  0  3  0  0  0  0  0  0
  187.2710  178.1930  142.3990 C   0  0  2  0  0  3  0  0  0  0  0  0
  189.2570  178.3370  137.6260 C   0  0  2  0  0  3  0  0  0  0  0  0
  186.6410  178.3180  141.0250 C   0  0  0  0  0  0  0  0  0  0  0  0
  188.5980  177.5340  142.3290 C   0  0  0  0  0  0  0  0  0  0  0  0
  190.1070  177.6640  136.5700 C   0  0  0  0  0  1  0  0  0  0  0  0
  186.5470  177.2730  143.3790 C   0  0  0  0  0  2  0  0  0  0  0  0
  189.7480  177.9900  138.9640 N   0  0  0  0  0  0  0  0  0  0  0  0
  182.2870  179.1630  143.6550 C   0  0  0  0  0  0  0  0  0  0  0  0
  183.5930  179.5110  144.0040 C   0  0  0  0  0  3  0  0  0  0  0  0
  181.3480  179.3520  144.4710 O   0  0  0  0  0  0  0  0  0  0  0  0
  183.0180  178.4040  141.5280 C   0  0  0  0  0  3  0  0  0  0  0  0
  182.0280  178.6270  142.4330 N   0  0  0  0  0  0  0  0  0  0  0  0
  184.3450  178.7030  141.8460 C   0  0  2  0  0  3  0  0  0  0  0  0
  184.6230  179.2900  143.0890 C   0  0  0  0  0  3  0  0  0  0  0  0
  188.3360  178.4130  147.9930 C   0  0  0  0  0  3  0  0  0  0  0  0
  189.3990  177.8230  147.3060 C   0  0  0  0  0  3  0  0  0  0  0  0
  187.9080  177.2330  145.4840 C   0  0  0  0  0  0  0  0  0  0  0  0
  189.1960  177.2270  146.0500 C   0  0  0  0  0  0  0  0  0  0  0  0
  186.8440  177.8250  146.1840 C   0  0  0  0  0  3  0  0  0  0  0  0
  187.0580  178.4130  147.4320 C   0  0  0  0  0  3  0  0  0  0  0  0
  190.2540  176.6310  145.3540 O   0  0  0  0  0  0  0  0  0  0  0  0
  191.5700  176.5390  145.8840 C   0  0  0  0  0  1  0  0  0  0  0  0
  1  7  1  0  0  0  0
  2 11  2  0  0  0  0
  3  8  1  0  0  0  0
  5 10  1  0  0  0  0
  5  4  2  0  0  0  0
  6  4  1  6  0  0  0
  6  1  1  0  0  0  0
  6 11  1  0  0  0  0
  7 12  1  0  0  0  0
  8 25  1  1  0  0  0
  9 14  1  1  0  0  0
 10 13  1  6  0  0  0
 10 15  1  0  0  0  0
 11  9  1  0  0  0  0
 12  9  1  0  0  0  0
 12  3  2  0  0  0  0
 14  8  1  0  0  0  0
 15  1  2  0  0  0  0
 16 17  1  0  0  0  0
 16 18  2  0  0  0  0
 19 21  1  0  0  0  0
 19 20  2  0  0  0  0
 20 16  1  0  0  0  0
 21  2  1  6  0  0  0
 21 22  1  0  0  0  0
 22 17  2  0  0  0  0
 24 23  2  0  0  0  0
 25 26  2  0  0  0  0
 25 27  1  0  0  0  0
 26 24  1  0  0  0  0
 27 28  2  0  0  0  0
 28 23  1  0  0  0  0
 29 30  1  0  0  0  0
 29 26  1  0  0  0  0
M  END
>  <MODEL>
9

>  <REMARK>
 VINA RESULT:      -8.5      2.194      6.281
  Name = 
  3 active torsions:
  status: ('A' for Active; 'I' for Inactive)
    1  A    between atoms: N_3  and  C_24
    2  A    between atoms: C_15  and  C_17
    3  A    between atoms: C_16  and  O_20
                            x       y       z     vdW  Elec       q    Type
                         _______ _______ _______ _____ _____    ______ ____

>  <TORSDO>
F 3

$$$$
