=
 OpenBabel10232408173D

 32 33  0  0  1  0  0  0  0  0999 V2000
  189.5530  176.9710  139.3850 C   0  0  1  0  0  3  0  0  0  0  0  0
  190.1310  176.7290  140.6980 N   0  0  0  0  0  0  0  0  0  0  0  0
  191.2500  177.2750  141.0500 C   0  0  0  0  0  3  0  0  0  0  0  0
  191.7790  175.7490  144.2660 O   0  0  0  0  0  0  0  0  0  0  0  0
  191.8110  177.0490  142.3480 N   0  0  0  0  0  2  0  0  0  0  0  0
  191.1250  176.4740  143.4700 C   0  0  0  0  0  0  0  0  0  0  0  0
  188.7430  176.0090  143.1750 C   0  0  0  0  0  2  0  0  0  0  0  0
  189.6950  176.7400  143.7470 C   0  0  0  0  0  0  0  0  0  0  0  0
  189.2910  177.9710  144.4960 C   0  0  0  0  0  2  0  0  0  0  0  0
  189.8160  177.6600  146.8030 O   0  0  0  0  0  1  0  0  0  0  0  0
  188.9320  177.6450  145.9070 C   0  0  0  0  0  0  0  0  0  0  0  0
  187.6280  177.2930  146.2290 O   0  0  0  0  0  0  0  0  0  0  0  0
  188.8560  179.1630  138.7720 O   0  0  0  0  0  0  0  0  0  0  0  0
  187.4750  178.0810  140.3090 N   0  0  0  0  0  2  0  0  0  0  0  0
  188.6210  178.1330  139.4590 C   0  0  0  0  0  0  0  0  0  0  0  0
  186.5930  179.1630  140.3980 N   0  0  0  0  0  2  0  0  0  0  0  0
  181.8330  178.6240  142.1710 N   0  0  0  0  0  0  0  0  0  0  0  0
  182.9860  178.7890  140.0740 C   0  0  0  0  0  3  0  0  0  0  0  0
  184.1520  178.8210  144.9240 C   0  0  0  0  0  0  0  0  0  0  0  0
  184.2300  178.9090  140.7010 C   0  0  0  0  0  0  0  0  0  0  0  0
  185.3820  178.9650  144.2730 C   0  0  0  0  0  3  0  0  0  0  0  0
  182.9990  178.7090  144.2130 N   0  0  0  0  0  0  0  0  0  0  0  0
  184.1090  178.7860  146.3450 N   0  0  0  0  0  1  0  0  0  0  0  0
  185.2770  179.0330  139.9340 N   0  0  0  0  0  0  0  0  0  0  0  0
  182.9970  178.7360  142.8560 C   0  0  0  0  0  0  0  0  0  0  0  0
  185.4420  178.9980  142.8790 C   0  0  0  0  0  3  0  0  0  0  0  0
  184.2750  178.8870  142.1180 C   0  0  2  0  0  3  0  0  0  0  0  0
  181.8080  178.6490  140.8130 C   0  0  0  0  0  3  0  0  0  0  0  0
  190.6440  177.2620  138.3620 C   0  0  0  0  0  2  0  0  0  0  0  0
  190.6560  176.2110  137.2700 C   0  0  0  0  0  2  0  0  0  0  0  0
  190.2200  173.9410  136.9860 C   0  0  0  0  0  1  0  0  0  0  0  0
  190.8630  174.9020  137.8620 N   0  0  0  0  0  2  0  0  0  0  0  0
  1 29  1  6  0  0  0
  1 15  1  0  0  0  0
  1  2  1  0  0  0  0
  2  3  2  0  0  0  0
  3  5  1  0  0  0  0
  5  6  1  0  0  0  0
  6  8  1  0  0  0  0
  6  4  2  0  0  0  0
  7  8  2  0  0  0  0
  8  9  1  0  0  0  0
  9 11  1  0  0  0  0
 11 12  2  0  0  0  0
 11 10  1  0  0  0  0
 13 15  2  0  0  0  0
 14 16  1  0  0  0  0
 15 14  1  0  0  0  0
 17 25  2  0  0  0  0
 18 20  1  0  0  0  0
 18 28  2  0  0  0  0
 19 23  1  0  0  0  0
 20 27  1  0  0  0  0
 21 19  1  0  0  0  0
 22 19  2  0  0  0  0
 24 16  1  0  0  0  0
 24 20  2  0  0  0  0
 25 22  1  0  0  0  0
 26 21  2  0  0  0  0
 27 25  1  0  0  0  0
 27 26  1  1  0  0  0
 28 17  1  0  0  0  0
 30 32  1  0  0  0  0
 30 29  1  0  0  0  0
 31 32  1  0  0  0  0
M  END
>  <MODEL>
1

>  <REMARK>
 VINA RESULT:      -8.0      0.000      0.000
  Name = 
  10 active torsions:
  status: ('A' for Active; 'I' for Inactive)
    1  A    between atoms: N_1  and  C_5
    2  A    between atoms: C_4  and  N_18
    3  A    between atoms: C_4  and  C_30
    4  A    between atoms: C_5  and  C_28
    5  A    between atoms: C_5  and  C_30
    6  A    between atoms: N_6  and  N_17
    7  A    between atoms: N_6  and  N_23
    8  A    between atoms: C_20  and  C_24
    9  A    between atoms: C_20  and  C_31
   10  A    between atoms: C_22  and  C_24
                            x       y       z     vdW  Elec       q    Type
                         _______ _______ _______ _____ _____    ______ ____

>  <TORSDO>
F 10

$$$$
=
 OpenBabel10232408173D

 32 33  0  0  1  0  0  0  0  0999 V2000
  190.2610  177.7100  139.8090 C   0  0  1  0  0  3  0  0  0  0  0  0
  189.3390  177.7760  138.6850 N   0  0  0  0  0  0  0  0  0  0  0  0
  189.0820  178.8980  138.0920 C   0  0  0  0  0  3  0  0  0  0  0  0
  186.5390  177.8770  135.7600 O   0  0  0  0  0  0  0  0  0  0  0  0
  188.1870  178.9600  136.9770 N   0  0  0  0  0  2  0  0  0  0  0  0
  187.7120  177.8380  136.2190 C   0  0  0  0  0  0  0  0  0  0  0  0
  189.6510  176.7860  135.1650 C   0  0  0  0  0  2  0  0  0  0  0  0
  188.5640  176.6640  135.9200 C   0  0  0  0  0  0  0  0  0  0  0  0
  188.0970  175.2870  136.2750 C   0  0  0  0  0  2  0  0  0  0  0  0
  189.8940  174.4430  137.6000 O   0  0  0  0  0  1  0  0  0  0  0  0
  189.2540  174.3760  136.5180 C   0  0  0  0  0  0  0  0  0  0  0  0
  189.6470  173.4760  135.5370 O   0  0  0  0  0  0  0  0  0  0  0  0
  190.0250  176.4050  141.7860 O   0  0  0  0  0  0  0  0  0  0  0  0
  188.2530  177.8570  141.3430 N   0  0  0  0  0  0  0  0  0  0  0  0
  189.5220  177.2820  141.0320 C   0  0  0  0  0  0  0  0  0  0  0  0
  187.5420  177.4640  142.4820 N   0  0  0  0  0  0  0  0  0  0  0  0
  184.3800  178.8830  146.2340 N   0  0  0  0  0  0  0  0  0  0  0  0
  184.3770  178.6320  143.8480 C   0  0  0  0  0  3  0  0  0  0  0  0
  187.5930  177.9970  147.6080 C   0  0  0  0  0  0  0  0  0  0  0  0
  185.7070  178.2020  143.8330 C   0  0  0  0  0  0  0  0  0  0  0  0
  188.3210  177.6410  146.4680 C   0  0  0  0  0  3  0  0  0  0  0  0
  186.2990  178.4010  147.5070 N   0  0  0  0  0  0  0  0  0  0  0  0
  188.2130  177.9310  148.8860 N   0  0  0  0  0  1  0  0  0  0  0  0
  186.2280  177.9080  142.6740 N   0  0  0  0  0  0  0  0  0  0  0  0
  185.6710  178.4760  146.3060 C   0  0  0  0  0  0  0  0  0  0  0  0
  187.7280  177.6990  145.2060 C   0  0  0  0  0  3  0  0  0  0  0  0
  186.4000  178.1110  145.0670 C   0  0  1  0  0  3  0  0  0  0  0  0
  183.7320  178.9670  145.0430 C   0  0  0  0  0  3  0  0  0  0  0  0
  191.3850  176.7220  139.5250 C   0  0  0  0  0  2  0  0  0  0  0  0
  192.7400  177.3650  139.7480 C   0  0  0  0  0  2  0  0  0  0  0  0
  193.0930  176.4610  137.6300 C   0  0  0  0  0  1  0  0  0  0  0  0
  193.7290  176.7100  138.9100 N   0  0  0  0  0  2  0  0  0  0  0  0
  1 29  1  6  0  0  0
  1 15  1  0  0  0  0
  2  1  1  0  0  0  0
  3  2  2  0  0  0  0
  4  6  2  0  0  0  0
  5  3  1  0  0  0  0
  6  5  1  0  0  0  0
  7  8  2  0  0  0  0
  8  6  1  0  0  0  0
  8  9  1  0  0  0  0
  9 11  1  0  0  0  0
 11 10  1  0  0  0  0
 12 11  2  0  0  0  0
 14 16  2  0  0  0  0
 15 14  1  0  0  0  0
 15 13  2  0  0  0  0
 16 24  1  0  0  0  0
 17 25  2  0  0  0  0
 18 28  2  0  0  0  0
 19 23  1  0  0  0  0
 20 18  1  0  0  0  0
 20 27  1  0  0  0  0
 21 19  1  0  0  0  0
 22 19  2  0  0  0  0
 24 20  2  0  0  0  0
 25 22  1  0  0  0  0
 26 21  2  0  0  0  0
 27 26  1  1  0  0  0
 27 25  1  0  0  0  0
 28 17  1  0  0  0  0
 29 30  1  0  0  0  0
 31 32  1  0  0  0  0
 32 30  1  0  0  0  0
M  END
>  <MODEL>
2

>  <REMARK>
 VINA RESULT:      -7.8      2.771      5.737
  Name = 
  10 active torsions:
  status: ('A' for Active; 'I' for Inactive)
    1  A    between atoms: N_1  and  C_5
    2  A    between atoms: C_4  and  N_18
    3  A    between atoms: C_4  and  C_30
    4  A    between atoms: C_5  and  C_28
    5  A    between atoms: C_5  and  C_30
    6  A    between atoms: N_6  and  N_17
    7  A    between atoms: N_6  and  N_23
    8  A    between atoms: C_20  and  C_24
    9  A    between atoms: C_20  and  C_31
   10  A    between atoms: C_22  and  C_24
                            x       y       z     vdW  Elec       q    Type
                         _______ _______ _______ _____ _____    ______ ____

>  <TORSDO>
F 10

$$$$
=
 OpenBabel10232408173D

 32 33  0  0  1  0  0  0  0  0999 V2000
  190.1080  177.7180  139.3190 C   0  0  1  0  0  3  0  0  0  0  0  0
  189.2620  177.7790  138.1370 N   0  0  0  0  0  0  0  0  0  0  0  0
  189.7210  177.4750  136.9650 C   0  0  0  0  0  3  0  0  0  0  0  0
  186.8890  178.2640  134.8900 O   0  0  0  0  0  0  0  0  0  0  0  0
  188.8840  177.5200  135.8050 N   0  0  0  0  0  2  0  0  0  0  0  0
  187.4520  177.6080  135.8070 C   0  0  0  0  0  0  0  0  0  0  0  0
  186.5880  175.5920  136.8890 C   0  0  0  0  0  2  0  0  0  0  0  0
  186.6150  176.9190  136.8170 C   0  0  0  0  0  0  0  0  0  0  0  0
  185.6200  177.6940  137.6240 C   0  0  0  0  0  2  0  0  0  0  0  0
  183.6550  177.3670  136.3100 O   0  0  0  0  0  0  0  0  0  0  0  0
  184.2380  177.1750  137.4090 C   0  0  0  0  0  0  0  0  0  0  0  0
  183.5800  176.5070  138.4320 O   0  0  0  0  0  1  0  0  0  0  0  0
  188.1470  178.1620  140.5930 O   0  0  0  0  0  0  0  0  0  0  0  0
  189.6950  176.7500  141.6210 N   0  0  0  0  0  2  0  0  0  0  0  0
  189.2550  177.5640  140.5330 C   0  0  0  0  0  0  0  0  0  0  0  0
  188.9120  176.5980  142.7700 N   0  0  0  0  0  2  0  0  0  0  0  0
  187.8650  177.9890  147.5720 N   0  0  0  0  0  0  0  0  0  0  0  0
  189.6720  177.0560  146.3000 C   0  0  0  0  0  3  0  0  0  0  0  0
  185.0010  178.5970  145.4680 C   0  0  0  0  0  0  0  0  0  0  0  0
  188.9290  177.0800  145.1170 C   0  0  0  0  0  0  0  0  0  0  0  0
  185.4520  178.1680  144.2150 C   0  0  0  0  0  2  0  0  0  0  0  0
  185.8130  178.5300  146.5570 N   0  0  0  0  0  0  0  0  0  0  0  0
  183.6830  179.1120  145.6020 N   0  0  0  0  0  1  0  0  0  0  0  0
  189.5110  176.6420  144.0350 N   0  0  0  0  0  0  0  0  0  0  0  0
  187.0780  178.0450  146.4710 C   0  0  0  0  0  0  0  0  0  0  0  0
  186.7430  177.6610  144.0650 C   0  0  0  0  0  3  0  0  0  0  0  0
  187.6020  177.5770  145.1640 C   0  0  0  0  0  0  0  0  0  0  0  0
  189.1330  177.5080  147.5090 C   0  0  0  0  0  3  0  0  0  0  0  0
  191.0760  176.5450  139.2280 C   0  0  0  0  0  2  0  0  0  0  0  0
  192.5080  177.0100  139.4100 C   0  0  0  0  0  2  0  0  0  0  0  0
  192.8370  175.4110  137.7490 C   0  0  0  0  0  1  0  0  0  0  0  0
  193.2670  176.7180  138.2070 N   0  0  0  0  0  2  0  0  0  0  0  0
  1 29  1  6  0  0  0
  1 15  1  0  0  0  0
  2  1  1  0  0  0  0
  3  2  2  0  0  0  0
  4  6  2  0  0  0  0
  5  6  1  0  0  0  0
  5  3  1  0  0  0  0
  6  8  1  0  0  0  0
  8  7  2  0  0  0  0
  8  9  1  0  0  0  0
 10 11  2  0  0  0  0
 11  9  1  0  0  0  0
 11 12  1  0  0  0  0
 14 16  1  0  0  0  0
 15 13  2  0  0  0  0
 15 14  1  0  0  0  0
 16 24  1  0  0  0  0
 18 28  2  0  0  0  0
 19 23  1  0  0  0  0
 19 22  2  0  0  0  0
 20 27  1  0  0  0  0
 20 18  1  0  0  0  0
 21 19  1  0  0  0  0
 24 20  2  0  0  0  0
 25 22  1  0  0  0  0
 25 17  2  0  0  0  0
 26 21  1  0  0  0  0
 26 27  2  0  0  0  0
 27 25  1  0  0  0  0
 28 17  1  0  0  0  0
 29 30  1  0  0  0  0
 31 32  1  0  0  0  0
 32 30  1  0  0  0  0
M  END
>  <MODEL>
3

>  <REMARK>
 VINA RESULT:      -7.7      3.006      6.192
  Name = 
  10 active torsions:
  status: ('A' for Active; 'I' for Inactive)
    1  A    between atoms: N_1  and  C_5
    2  A    between atoms: C_4  and  N_18
    3  A    between atoms: C_4  and  C_30
    4  A    between atoms: C_5  and  C_28
    5  A    between atoms: C_5  and  C_30
    6  A    between atoms: N_6  and  N_17
    7  A    between atoms: N_6  and  N_23
    8  A    between atoms: C_20  and  C_24
    9  A    between atoms: C_20  and  C_31
   10  A    between atoms: C_22  and  C_24
                            x       y       z     vdW  Elec       q    Type
                         _______ _______ _______ _____ _____    ______ ____

>  <TORSDO>
F 10

$$$$
=
 OpenBabel10232408173D

 32 33  0  0  1  0  0  0  0  0999 V2000
  190.3410  177.5360  139.2620 C   0  0  1  0  0  3  0  0  0  0  0  0
  189.3360  177.6870  138.2200 N   0  0  0  0  0  0  0  0  0  0  0  0
  188.9470  178.8570  137.8270 C   0  0  0  0  0  3  0  0  0  0  0  0
  186.3310  177.9710  135.5190 O   0  0  0  0  0  0  0  0  0  0  0  0
  187.9700  179.0040  136.7900 N   0  0  0  0  0  2  0  0  0  0  0  0
  187.5340  177.9710  135.8950 C   0  0  0  0  0  0  0  0  0  0  0  0
  189.6020  177.2810  134.7870 C   0  0  0  0  0  2  0  0  0  0  0  0
  188.4550  176.9390  135.3650 C   0  0  0  0  0  0  0  0  0  0  0  0
  188.0100  175.5120  135.2710 C   0  0  0  0  0  2  0  0  0  0  0  0
  186.9490  174.8880  137.3150 O   0  0  0  0  0  1  0  0  0  0  0  0
  187.9960  174.8670  136.6170 C   0  0  0  0  0  0  0  0  0  0  0  0
  189.1460  174.2700  137.1140 O   0  0  0  0  0  0  0  0  0  0  0  0
  188.5350  177.8970  140.7710 O   0  0  0  0  0  0  0  0  0  0  0  0
  190.2980  176.6300  141.6250 N   0  0  0  0  0  2  0  0  0  0  0  0
  189.6650  177.3720  140.5820 C   0  0  0  0  0  0  0  0  0  0  0  0
  189.6840  176.4700  142.8720 N   0  0  0  0  0  2  0  0  0  0  0  0
  189.2710  177.6110  147.8330 N   0  0  0  0  0  0  0  0  0  0  0  0
  190.9200  176.8270  146.2770 C   0  0  0  0  0  3  0  0  0  0  0  0
  186.1100  178.1490  146.1850 C   0  0  0  0  0  0  0  0  0  0  0  0
  190.0140  176.8590  145.2130 C   0  0  0  0  0  0  0  0  0  0  0  0
  186.3960  177.7940  144.8620 C   0  0  0  0  0  2  0  0  0  0  0  0
  187.0710  178.0820  147.1440 N   0  0  0  0  0  0  0  0  0  0  0  0
  184.8020  178.5870  146.5280 N   0  0  0  0  0  1  0  0  0  0  0  0
  190.4550  176.4960  144.0400 N   0  0  0  0  0  0  0  0  0  0  0  0
  188.3320  177.6690  146.8580 C   0  0  0  0  0  0  0  0  0  0  0  0
  187.6750  177.3640  144.5080 C   0  0  0  0  0  3  0  0  0  0  0  0
  188.6860  177.2820  145.4700 C   0  0  0  0  0  0  0  0  0  0  0  0
  190.5390  177.2010  147.5690 C   0  0  0  0  0  3  0  0  0  0  0  0
  191.2220  176.3230  138.9900 C   0  0  0  0  0  2  0  0  0  0  0  0
  192.0360  176.5190  137.7260 C   0  0  0  0  0  2  0  0  0  0  0  0
  193.9210  175.1540  137.7910 C   0  0  0  0  0  1  0  0  0  0  0  0
  193.4500  176.5000  138.0550 N   0  0  0  0  0  2  0  0  0  0  0  0
  1 29  1  6  0  0  0
  1 15  1  0  0  0  0
  2  1  1  0  0  0  0
  3  2  2  0  0  0  0
  4  6  2  0  0  0  0
  5  3  1  0  0  0  0
  6  5  1  0  0  0  0
  7  8  2  0  0  0  0
  8  6  1  0  0  0  0
  9  8  1  0  0  0  0
  9 11  1  0  0  0  0
 11 12  2  0  0  0  0
 11 10  1  0  0  0  0
 14 16  1  0  0  0  0
 15 13  2  0  0  0  0
 15 14  1  0  0  0  0
 16 24  1  0  0  0  0
 18 28  2  0  0  0  0
 19 23  1  0  0  0  0
 19 22  2  0  0  0  0
 20 27  1  0  0  0  0
 20 18  1  0  0  0  0
 21 19  1  0  0  0  0
 24 20  2  0  0  0  0
 25 22  1  0  0  0  0
 25 17  2  0  0  0  0
 26 21  1  0  0  0  0
 26 27  2  0  0  0  0
 27 25  1  0  0  0  0
 28 17  1  0  0  0  0
 30 32  1  0  0  0  0
 30 29  1  0  0  0  0
 31 32  1  0  0  0  0
M  END
>  <MODEL>
4

>  <REMARK>
 VINA RESULT:      -7.6      3.367      6.649
  Name = 
  10 active torsions:
  status: ('A' for Active; 'I' for Inactive)
    1  A    between atoms: N_1  and  C_5
    2  A    between atoms: C_4  and  N_18
    3  A    between atoms: C_4  and  C_30
    4  A    between atoms: C_5  and  C_28
    5  A    between atoms: C_5  and  C_30
    6  A    between atoms: N_6  and  N_17
    7  A    between atoms: N_6  and  N_23
    8  A    between atoms: C_20  and  C_24
    9  A    between atoms: C_20  and  C_31
   10  A    between atoms: C_22  and  C_24
                            x       y       z     vdW  Elec       q    Type
                         _______ _______ _______ _____ _____    ______ ____

>  <TORSDO>
F 10

$$$$
=
 OpenBabel10232408173D

 32 33  0  0  1  0  0  0  0  0999 V2000
  188.7020  178.0920  140.1090 C   0  0  1  0  0  3  0  0  0  0  0  0
  187.3470  178.5550  139.8500 N   0  0  0  0  0  0  0  0  0  0  0  0
  186.8200  178.4650  138.6710 C   0  0  0  0  0  3  0  0  0  0  0  0
  183.6790  180.1420  139.1910 O   0  0  0  0  0  0  0  0  0  0  0  0
  185.4820  178.9060  138.4200 N   0  0  0  0  0  2  0  0  0  0  0  0
  184.4980  179.2120  139.4190 C   0  0  0  0  0  0  0  0  0  0  0  0
  183.7290  177.2890  140.7190 C   0  0  0  0  0  2  0  0  0  0  0  0
  184.3840  178.4450  140.6810 C   0  0  0  0  0  0  0  0  0  0  0  0
  184.8090  179.0630  141.9770 C   0  0  0  0  0  2  0  0  0  0  0  0
  182.5640  179.1780  142.7780 O   0  0  0  0  0  0  0  0  0  0  0  0
  183.7620  178.8810  143.0250 C   0  0  0  0  0  0  0  0  0  0  0  0
  184.1130  178.4130  144.2840 O   0  0  0  0  0  1  0  0  0  0  0  0
  189.8210  178.2350  142.2050 O   0  0  0  0  0  0  0  0  0  0  0  0
  187.8920  176.9240  142.2040 N   0  0  0  0  0  2  0  0  0  0  0  0
  188.8460  177.7660  141.5580 C   0  0  0  0  0  0  0  0  0  0  0  0
  188.0140  176.6020  143.5600 N   0  0  0  0  0  2  0  0  0  0  0  0
  188.2150  178.3020  148.3720 N   0  0  0  0  0  0  0  0  0  0  0  0
  186.6710  178.2080  146.5370 C   0  0  0  0  0  3  0  0  0  0  0  0
  191.3620  176.7920  147.4730 C   0  0  0  0  0  0  0  0  0  0  0  0
  187.5970  177.5570  145.7160 C   0  0  0  0  0  0  0  0  0  0  0  0
  191.1370  176.3900  146.1520 C   0  0  0  0  0  2  0  0  0  0  0  0
  190.3860  177.4170  148.1830 N   0  0  0  0  0  0  0  0  0  0  0  0
  192.6240  176.5390  148.0790 N   0  0  0  0  0  1  0  0  0  0  0  0
  187.2140  177.2530  144.5070 N   0  0  0  0  0  0  0  0  0  0  0  0
  189.1690  177.6760  147.6410 C   0  0  0  0  0  0  0  0  0  0  0  0
  189.9050  176.6280  145.5420 C   0  0  0  0  0  3  0  0  0  0  0  0
  188.8810  177.2700  146.2440 C   0  0  0  0  0  0  0  0  0  0  0  0
  186.9900  178.5720  147.8500 C   0  0  0  0  0  3  0  0  0  0  0  0
  189.0150  176.8530  139.2790 C   0  0  0  0  0  2  0  0  0  0  0  0
  190.5070  176.7220  139.0440 C   0  0  0  0  0  2  0  0  0  0  0  0
  192.1160  175.5050  137.8800 C   0  0  0  0  0  1  0  0  0  0  0  0
  190.7930  175.4200  138.4700 N   0  0  0  0  0  2  0  0  0  0  0  0
  1 29  1  6  0  0  0
  1 15  1  0  0  0  0
  2  1  1  0  0  0  0
  3  2  2  0  0  0  0
  4  6  2  0  0  0  0
  5  3  1  0  0  0  0
  5  6  1  0  0  0  0
  6  8  1  0  0  0  0
  8  7  2  0  0  0  0
  8  9  1  0  0  0  0
  9 11  1  0  0  0  0
 10 11  2  0  0  0  0
 11 12  1  0  0  0  0
 14 16  1  0  0  0  0
 15 14  1  0  0  0  0
 15 13  2  0  0  0  0
 16 24  1  0  0  0  0
 18 28  2  0  0  0  0
 19 23  1  0  0  0  0
 19 22  2  0  0  0  0
 20 27  1  0  0  0  0
 20 18  1  0  0  0  0
 21 19  1  0  0  0  0
 24 20  2  0  0  0  0
 25 22  1  0  0  0  0
 25 17  2  0  0  0  0
 26 21  1  0  0  0  0
 26 27  2  0  0  0  0
 27 25  1  0  0  0  0
 28 17  1  0  0  0  0
 30 29  1  0  0  0  0
 31 32  1  0  0  0  0
 32 30  1  0  0  0  0
M  END
>  <MODEL>
5

>  <REMARK>
 VINA RESULT:      -7.5      2.978      6.206
  Name = 
  10 active torsions:
  status: ('A' for Active; 'I' for Inactive)
    1  A    between atoms: N_1  and  C_5
    2  A    between atoms: C_4  and  N_18
    3  A    between atoms: C_4  and  C_30
    4  A    between atoms: C_5  and  C_28
    5  A    between atoms: C_5  and  C_30
    6  A    between atoms: N_6  and  N_17
    7  A    between atoms: N_6  and  N_23
    8  A    between atoms: C_20  and  C_24
    9  A    between atoms: C_20  and  C_31
   10  A    between atoms: C_22  and  C_24
                            x       y       z     vdW  Elec       q    Type
                         _______ _______ _______ _____ _____    ______ ____

>  <TORSDO>
F 10

$$$$
=
 OpenBabel10232408173D

 32 33  0  0  1  0  0  0  0  0999 V2000
  189.2880  176.7780  138.4430 C   0  0  1  0  0  3  0  0  0  0  0  0
  190.2400  175.8420  137.8640 N   0  0  0  0  0  0  0  0  0  0  0  0
  189.8480  174.7340  137.3230 C   0  0  0  0  0  3  0  0  0  0  0  0
  193.0050  173.1910  136.5470 O   0  0  0  0  0  0  0  0  0  0  0  0
  190.7830  173.8200  136.7390 N   0  0  0  0  0  2  0  0  0  0  0  0
  192.1520  174.1100  136.4220 C   0  0  0  0  0  0  0  0  0  0  0  0
  192.2130  175.8520  134.7070 C   0  0  0  0  0  2  0  0  0  0  0  0
  192.5860  175.4310  135.9120 C   0  0  0  0  0  0  0  0  0  0  0  0
  193.6290  176.2160  136.6460 C   0  0  0  0  0  2  0  0  0  0  0  0
  195.5080  175.3000  135.4970 O   0  0  0  0  0  1  0  0  0  0  0  0
  194.8770  176.3340  135.8380 C   0  0  0  0  0  0  0  0  0  0  0  0
  195.3620  177.5860  135.4880 O   0  0  0  0  0  0  0  0  0  0  0  0
  190.5230  176.3070  140.4230 O   0  0  0  0  0  0  0  0  0  0  0  0
  188.6080  177.6020  140.7380 N   0  0  0  0  0  2  0  0  0  0  0  0
  189.5200  176.8760  139.9140 C   0  0  0  0  0  0  0  0  0  0  0  0
  188.8050  177.7000  142.1190 N   0  0  0  0  0  2  0  0  0  0  0  0
  187.6160  177.4120  147.0780 N   0  0  0  0  0  0  0  0  0  0  0  0
  186.5550  177.8670  144.9760 C   0  0  0  0  0  3  0  0  0  0  0  0
  191.1250  176.7240  146.6170 C   0  0  0  0  0  0  0  0  0  0  0  0
  187.7480  177.6920  144.2690 C   0  0  0  0  0  0  0  0  0  0  0  0
  191.2760  176.8440  145.2320 C   0  0  0  0  0  3  0  0  0  0  0  0
  189.9120  176.9140  147.2020 N   0  0  0  0  0  0  0  0  0  0  0  0
  192.2510  176.3970  147.4210 N   0  0  0  0  0  1  0  0  0  0  0  0
  187.7050  177.8400  142.9740 N   0  0  0  0  0  0  0  0  0  0  0  0
  188.8130  177.2270  146.4700 C   0  0  0  0  0  0  0  0  0  0  0  0
  190.1810  177.1630  144.4280 C   0  0  0  0  0  3  0  0  0  0  0  0
  188.9210  177.3660  144.9970 C   0  0  1  0  0  3  0  0  0  0  0  0
  186.5030  177.7260  146.3660 C   0  0  0  0  0  3  0  0  0  0  0  0
  189.4390  178.1580  137.8140 C   0  0  0  0  0  2  0  0  0  0  0  0
  188.1210  178.6360  137.2370 C   0  0  0  0  0  2  0  0  0  0  0  0
  185.9370  178.0270  137.7690 C   0  0  0  0  0  1  0  0  0  0  0  0
  187.1790  177.5330  137.2050 N   0  0  0  0  0  2  0  0  0  0  0  0
  1 29  1  6  0  0  0
  1 15  1  0  0  0  0
  2  1  1  0  0  0  0
  3  2  2  0  0  0  0
  5  3  1  0  0  0  0
  6  4  2  0  0  0  0
  6  5  1  0  0  0  0
  7  8  2  0  0  0  0
  8  6  1  0  0  0  0
  8  9  1  0  0  0  0
 10 11  1  0  0  0  0
 11  9  1  0  0  0  0
 12 11  2  0  0  0  0
 14 16  1  0  0  0  0
 15 13  2  0  0  0  0
 15 14  1  0  0  0  0
 16 24  1  0  0  0  0
 18 28  2  0  0  0  0
 19 22  2  0  0  0  0
 19 23  1  0  0  0  0
 20 18  1  0  0  0  0
 20 27  1  0  0  0  0
 21 19  1  0  0  0  0
 24 20  2  0  0  0  0
 25 17  2  0  0  0  0
 25 22  1  0  0  0  0
 26 21  2  0  0  0  0
 27 26  1  6  0  0  0
 27 25  1  0  0  0  0
 28 17  1  0  0  0  0
 30 29  1  0  0  0  0
 32 30  1  0  0  0  0
 32 31  1  0  0  0  0
M  END
>  <MODEL>
6

>  <REMARK>
 VINA RESULT:      -7.4      3.467      6.957
  Name = 
  10 active torsions:
  status: ('A' for Active; 'I' for Inactive)
    1  A    between atoms: N_1  and  C_5
    2  A    between atoms: C_4  and  N_18
    3  A    between atoms: C_4  and  C_30
    4  A    between atoms: C_5  and  C_28
    5  A    between atoms: C_5  and  C_30
    6  A    between atoms: N_6  and  N_17
    7  A    between atoms: N_6  and  N_23
    8  A    between atoms: C_20  and  C_24
    9  A    between atoms: C_20  and  C_31
   10  A    between atoms: C_22  and  C_24
                            x       y       z     vdW  Elec       q    Type
                         _______ _______ _______ _____ _____    ______ ____

>  <TORSDO>
F 10

$$$$
=
 OpenBabel10232408173D

 32 33  0  0  1  0  0  0  0  0999 V2000
  188.4790  177.0140  145.2060 C   0  0  1  0  0  3  0  0  0  0  0  0
  187.1360  177.5650  145.3040 N   0  0  0  0  0  0  0  0  0  0  0  0
  186.8040  178.3550  146.2740 C   0  0  0  0  0  3  0  0  0  0  0  0
  183.2920  178.8010  145.6270 O   0  0  0  0  0  0  0  0  0  0  0  0
  185.4870  178.9090  146.3630 N   0  0  0  0  0  2  0  0  0  0  0  0
  184.5070  178.9150  145.3140 C   0  0  0  0  0  0  0  0  0  0  0  0
  185.2940  180.2750  143.4400 C   0  0  0  0  0  2  0  0  0  0  0  0
  184.8700  179.0980  143.8900 C   0  0  0  0  0  0  0  0  0  0  0  0
  184.5560  178.0280  142.8910 C   0  0  0  0  0  2  0  0  0  0  0  0
  182.4960  178.7530  141.9300 O   0  0  0  0  0  1  0  0  0  0  0  0
  183.7300  178.5670  141.7710 C   0  0  0  0  0  0  0  0  0  0  0  0
  184.3170  178.8360  140.5420 O   0  0  0  0  0  0  0  0  0  0  0  0
  190.1340  176.7730  143.5120 O   0  0  0  0  0  0  0  0  0  0  0  0
  188.2720  178.0400  142.9010 N   0  0  0  0  0  2  0  0  0  0  0  0
  189.0160  177.2570  143.8360 C   0  0  0  0  0  0  0  0  0  0  0  0
  188.7620  178.2850  141.6140 N   0  0  0  0  0  2  0  0  0  0  0  0
  188.6540  177.2150  136.6210 N   0  0  0  0  0  0  0  0  0  0  0  0
  187.1940  178.0370  138.3380 C   0  0  0  0  0  3  0  0  0  0  0  0
  191.9280  176.5090  137.9540 C   0  0  0  0  0  0  0  0  0  0  0  0
  188.1930  177.9470  139.3110 C   0  0  0  0  0  0  0  0  0  0  0  0
  191.7830  176.8500  139.3030 C   0  0  0  0  0  3  0  0  0  0  0  0
  190.8850  176.6390  137.0910 N   0  0  0  0  0  0  0  0  0  0  0  0
  193.1790  176.0260  137.4820 N   0  0  0  0  0  1  0  0  0  0  0  0
  187.8830  178.3110  140.5240 N   0  0  0  0  0  2  0  0  0  0  0  0
  189.6760  177.0970  137.5020 C   0  0  0  0  0  0  0  0  0  0  0  0
  190.5630  177.3270  139.7840 C   0  0  0  0  0  3  0  0  0  0  0  0
  189.4720  177.4710  138.9230 C   0  0  1  0  0  3  0  0  0  0  0  0
  187.4350  177.6710  137.0100 C   0  0  0  0  0  2  0  0  0  0  0  0
  189.4020  177.6580  146.2330 C   0  0  0  0  0  2  0  0  0  0  0  0
  189.9260  176.6250  147.2120 C   0  0  0  0  0  2  0  0  0  0  0  0
  191.9660  175.9160  146.3430 C   0  0  0  0  0  1  0  0  0  0  0  0
  191.3630  176.7730  147.3460 N   0  0  0  0  0  2  0  0  0  0  0  0
  1  2  1  0  0  0  0
  1 29  1  1  0  0  0
  2  3  2  0  0  0  0
  3  5  1  0  0  0  0
  6  4  2  0  0  0  0
  6  5  1  0  0  0  0
  7  8  2  0  0  0  0
  8  6  1  0  0  0  0
  9  8  1  0  0  0  0
 11 10  1  0  0  0  0
 11  9  1  0  0  0  0
 12 11  2  0  0  0  0
 13 15  2  0  0  0  0
 14 15  1  0  0  0  0
 15  1  1  0  0  0  0
 16 14  1  0  0  0  0
 17 28  1  0  0  0  0
 17 25  2  0  0  0  0
 18 20  2  0  0  0  0
 19 21  1  0  0  0  0
 20 24  1  0  0  0  0
 21 26  2  0  0  0  0
 22 25  1  0  0  0  0
 22 19  2  0  0  0  0
 23 19  1  0  0  0  0
 24 16  1  0  0  0  0
 25 27  1  0  0  0  0
 27 20  1  0  0  0  0
 27 26  1  6  0  0  0
 28 18  1  0  0  0  0
 29 30  1  0  0  0  0
 30 32  1  0  0  0  0
 31 32  1  0  0  0  0
M  END
>  <MODEL>
7

>  <REMARK>
 VINA RESULT:      -7.4      2.579      7.452
  Name = 
  10 active torsions:
  status: ('A' for Active; 'I' for Inactive)
    1  A    between atoms: N_1  and  C_5
    2  A    between atoms: C_4  and  N_18
    3  A    between atoms: C_4  and  C_30
    4  A    between atoms: C_5  and  C_28
    5  A    between atoms: C_5  and  C_30
    6  A    between atoms: N_6  and  N_17
    7  A    between atoms: N_6  and  N_23
    8  A    between atoms: C_20  and  C_24
    9  A    between atoms: C_20  and  C_31
   10  A    between atoms: C_22  and  C_24
                            x       y       z     vdW  Elec       q    Type
                         _______ _______ _______ _____ _____    ______ ____

>  <TORSDO>
F 10

$$$$
=
 OpenBabel10232408173D

 32 33  0  0  1  0  0  0  0  0999 V2000
  189.3230  177.7920  138.3890 C   0  0  1  0  0  3  0  0  0  0  0  0
  188.0280  177.2450  138.0130 N   0  0  0  0  0  0  0  0  0  0  0  0
  187.1060  177.9950  137.5000 C   0  0  0  0  0  3  0  0  0  0  0  0
  184.3700  175.6680  137.2790 O   0  0  0  0  0  0  0  0  0  0  0  0
  185.8370  177.4540  137.1160 N   0  0  0  0  0  2  0  0  0  0  0  0
  185.5280  176.0600  136.9740 C   0  0  0  0  0  0  0  0  0  0  0  0
  186.9440  175.1720  135.1900 C   0  0  0  0  0  2  0  0  0  0  0  0
  186.5030  175.0810  136.4400 C   0  0  0  0  0  0  0  0  0  0  0  0
  186.8360  173.8490  137.2230 C   0  0  0  0  0  2  0  0  0  0  0  0
  185.0200  172.4440  136.5730 O   0  0  0  0  0  1  0  0  0  0  0  0
  186.2650  172.6330  136.5740 C   0  0  0  0  0  0  0  0  0  0  0  0
  187.1070  171.6910  135.9990 O   0  0  0  0  0  0  0  0  0  0  0  0
  190.6910  177.4610  140.3090 O   0  0  0  0  0  0  0  0  0  0  0  0
  188.4060  177.6430  140.7440 N   0  0  0  0  0  0  0  0  0  0  0  0
  189.5250  177.6250  139.8580 C   0  0  0  0  0  0  0  0  0  0  0  0
  188.5740  177.4820  142.1230 N   0  0  0  0  0  0  0  0  0  0  0  0
  187.4800  177.5240  147.1120 N   0  0  0  0  0  0  0  0  0  0  0  0
  186.3790  177.8370  145.0040 C   0  0  0  0  0  3  0  0  0  0  0  0
  190.9810  176.8100  146.6310 C   0  0  0  0  0  0  0  0  0  0  0  0
  187.5590  177.6170  144.2880 C   0  0  0  0  0  0  0  0  0  0  0  0
  191.1060  176.8370  145.2370 C   0  0  0  0  0  3  0  0  0  0  0  0
  189.7790  177.0370  147.2240 N   0  0  0  0  0  0  0  0  0  0  0  0
  192.1230  176.5370  147.4330 N   0  0  0  0  0  1  0  0  0  0  0  0
  187.4900  177.6780  142.9870 N   0  0  0  0  0  0  0  0  0  0  0  0
  188.6660  177.3000  146.4940 C   0  0  0  0  0  0  0  0  0  0  0  0
  189.9950  177.1010  144.4350 C   0  0  0  0  0  3  0  0  0  0  0  0
  188.7450  177.3400  145.0130 C   0  0  2  0  0  3  0  0  0  0  0  0
  186.3540  177.7890  146.4020 C   0  0  0  0  0  3  0  0  0  0  0  0
  190.4440  177.0820  137.6400 C   0  0  0  0  0  2  0  0  0  0  0  0
  190.0510  175.6570  137.3020 C   0  0  0  0  0  2  0  0  0  0  0  0
  192.0930  174.5560  137.5110 C   0  0  0  0  0  1  0  0  0  0  0  0
  190.7980  174.7380  138.1400 N   0  0  0  0  0  2  0  0  0  0  0  0
  1 29  1  6  0  0  0
  1 15  1  0  0  0  0
  2  1  1  0  0  0  0
  3  2  2  0  0  0  0
  5  3  1  0  0  0  0
  6  5  1  0  0  0  0
  6  4  2  0  0  0  0
  7  8  2  0  0  0  0
  8  6  1  0  0  0  0
  8  9  1  0  0  0  0
 10 11  1  0  0  0  0
 11  9  1  0  0  0  0
 12 11  2  0  0  0  0
 14 16  2  0  0  0  0
 15 13  2  0  0  0  0
 15 14  1  0  0  0  0
 16 24  1  0  0  0  0
 18 28  2  0  0  0  0
 19 22  2  0  0  0  0
 19 23  1  0  0  0  0
 20 18  1  0  0  0  0
 20 27  1  0  0  0  0
 21 19  1  0  0  0  0
 24 20  2  0  0  0  0
 25 17  2  0  0  0  0
 25 22  1  0  0  0  0
 26 21  2  0  0  0  0
 27 26  1  1  0  0  0
 27 25  1  0  0  0  0
 28 17  1  0  0  0  0
 30 29  1  0  0  0  0
 30 32  1  0  0  0  0
 31 32  1  0  0  0  0
M  END
>  <MODEL>
8

>  <REMARK>
 VINA RESULT:      -7.4      3.492      6.720
  Name = 
  10 active torsions:
  status: ('A' for Active; 'I' for Inactive)
    1  A    between atoms: N_1  and  C_5
    2  A    between atoms: C_4  and  N_18
    3  A    between atoms: C_4  and  C_30
    4  A    between atoms: C_5  and  C_28
    5  A    between atoms: C_5  and  C_30
    6  A    between atoms: N_6  and  N_17
    7  A    between atoms: N_6  and  N_23
    8  A    between atoms: C_20  and  C_24
    9  A    between atoms: C_20  and  C_31
   10  A    between atoms: C_22  and  C_24
                            x       y       z     vdW  Elec       q    Type
                         _______ _______ _______ _____ _____    ______ ____

>  <TORSDO>
F 10

$$$$
=
 OpenBabel10232408173D

 32 33  0  0  1  0  0  0  0  0999 V2000
  185.0740  179.2690  143.0360 C   0  0  1  0  0  3  0  0  0  0  0  0
  186.0250  178.7960  144.0320 N   0  0  0  0  0  0  0  0  0  0  0  0
  185.6650  177.9790  144.9690 C   0  0  0  0  0  3  0  0  0  0  0  0
  188.6900  177.7820  146.9080 O   0  0  0  0  0  0  0  0  0  0  0  0
  186.6040  177.5020  145.9390 N   0  0  0  0  0  2  0  0  0  0  0  0
  188.0320  177.6090  145.8480 C   0  0  0  0  0  0  0  0  0  0  0  0
  188.4950  176.4750  143.7320 C   0  0  0  0  0  2  0  0  0  0  0  0
  188.7570  177.4790  144.5630 C   0  0  0  0  0  0  0  0  0  0  0  0
  189.9480  178.3420  144.2810 C   0  0  0  0  0  2  0  0  0  0  0  0
  191.6280  177.0390  145.3630 O   0  0  0  0  0  1  0  0  0  0  0  0
  191.2050  177.5380  144.2880 C   0  0  0  0  0  0  0  0  0  0  0  0
  191.9270  177.3670  143.1150 O   0  0  0  0  0  0  0  0  0  0  0  0
  186.8880  178.8310  141.5580 O   0  0  0  0  0  0  0  0  0  0  0  0
  184.8620  179.3270  140.5150 N   0  0  0  0  0  2  0  0  0  0  0  0
  185.6680  179.1250  141.6750 C   0  0  0  0  0  0  0  0  0  0  0  0
  185.4020  179.2040  139.2300 N   0  0  0  0  0  2  0  0  0  0  0  0
  186.7870  175.5750  135.9130 N   0  0  0  0  0  0  0  0  0  0  0  0
  184.7930  176.6350  136.7240 C   0  0  0  0  0  3  0  0  0  0  0  0
  189.7080  176.9470  137.5190 C   0  0  0  0  0  0  0  0  0  0  0  0
  185.5150  177.4640  137.5880 C   0  0  0  0  0  0  0  0  0  0  0  0
  189.1580  177.9050  138.3780 C   0  0  0  0  0  3  0  0  0  0  0  0
  188.9090  176.1940  136.7180 N   0  0  0  0  0  0  0  0  0  0  0  0
  191.1180  176.7630  137.4830 N   0  0  0  0  0  1  0  0  0  0  0  0
  184.8370  178.3050  138.3170 N   0  0  0  0  0  2  0  0  0  0  0  0
  187.5600  176.3400  136.7220 C   0  0  0  0  0  0  0  0  0  0  0  0
  187.7770  178.1000  138.4250 C   0  0  0  0  0  3  0  0  0  0  0  0
  186.9280  177.3420  137.6150 C   0  0  1  0  0  3  0  0  0  0  0  0
  185.4350  175.7040  135.9010 C   0  0  0  0  0  2  0  0  0  0  0  0
  183.7770  178.4720  143.1090 C   0  0  0  0  0  2  0  0  0  0  0  0
  182.6570  179.3130  143.6870 C   0  0  0  0  0  2  0  0  0  0  0  0
  181.4640  178.8680  141.7370 C   0  0  0  0  0  1  0  0  0  0  0  0
  181.3830  178.8310  143.1850 N   0  0  0  0  0  2  0  0  0  0  0  0
  1 29  1  6  0  0  0
  1  2  1  0  0  0  0
  2  3  2  0  0  0  0
  3  5  1  0  0  0  0
  6  5  1  0  0  0  0
  6  4  2  0  0  0  0
  7  8  2  0  0  0  0
  8  6  1  0  0  0  0
  9 11  1  0  0  0  0
  9  8  1  0  0  0  0
 11 10  1  0  0  0  0
 12 11  2  0  0  0  0
 13 15  2  0  0  0  0
 14 15  1  0  0  0  0
 15  1  1  0  0  0  0
 16 14  1  0  0  0  0
 17 25  2  0  0  0  0
 18 20  2  0  0  0  0
 19 21  1  0  0  0  0
 20 27  1  0  0  0  0
 20 24  1  0  0  0  0
 21 26  2  0  0  0  0
 22 25  1  0  0  0  0
 22 19  2  0  0  0  0
 23 19  1  0  0  0  0
 24 16  1  0  0  0  0
 25 27  1  0  0  0  0
 27 26  1  6  0  0  0
 28 17  1  0  0  0  0
 28 18  1  0  0  0  0
 29 30  1  0  0  0  0
 31 32  1  0  0  0  0
 32 30  1  0  0  0  0
M  END
>  <MODEL>
9

>  <REMARK>
 VINA RESULT:      -7.4      2.277      6.530
  Name = 
  10 active torsions:
  status: ('A' for Active; 'I' for Inactive)
    1  A    between atoms: N_1  and  C_5
    2  A    between atoms: C_4  and  N_18
    3  A    between atoms: C_4  and  C_30
    4  A    between atoms: C_5  and  C_28
    5  A    between atoms: C_5  and  C_30
    6  A    between atoms: N_6  and  N_17
    7  A    between atoms: N_6  and  N_23
    8  A    between atoms: C_20  and  C_24
    9  A    between atoms: C_20  and  C_31
   10  A    between atoms: C_22  and  C_24
                            x       y       z     vdW  Elec       q    Type
                         _______ _______ _______ _____ _____    ______ ____

>  <TORSDO>
F 10

$$$$
