=
 OpenBabel10232408253D

 45 47  0  0  1  0  0  0  0  0999 V2000
  185.9590  178.1420  141.4970 C   0  0  0  0  0  2  0  0  0  0  0  0
  184.8590  178.7910  146.1620 O   0  0  0  0  0  0  0  0  0  0  0  0
  185.5320  178.4280  143.9350 C   0  0  0  0  0  2  0  0  0  0  0  0
  183.1620  178.3400  140.9890 N   0  0  0  0  0  2  0  0  0  0  0  0
  181.2900  178.9390  143.0340 C   0  0  0  0  0  1  0  0  0  0  0  0
  185.1190  178.8810  142.5340 C   0  0  2  0  0  3  0  0  0  0  0  0
  183.2390  179.5000  144.6040 C   0  0  0  0  0  2  0  0  0  0  0  0
  184.0570  177.8600  139.9360 C   0  0  2  0  0  3  0  0  0  0  0  0
  184.5590  178.8910  144.9850 C   0  0  0  0  0  0  0  0  0  0  0  0
  182.7620  179.0000  143.2700 C   0  0  0  0  0  0  0  0  0  0  0  0
  183.6340  178.6960  142.2950 C   0  0  0  0  0  0  0  0  0  0  0  0
  185.4590  178.4490  140.0890 C   0  0  2  0  0  3  0  0  0  0  0  0
  186.3260  177.8600  139.1250 O   0  0  0  0  0  0  0  0  0  0  0  0
  186.5560  179.2620  137.2990 O   0  0  0  0  0  0  0  0  0  0  0  0
  187.0950  178.6170  138.2390 C   0  0  0  0  0  0  0  0  0  0  0  0
  188.5720  178.6500  138.4090 C   0  0  0  0  0  2  0  0  0  0  0  0
  190.5710  176.7320  139.0660 O   0  0  0  0  0  0  0  0  0  0  0  0
  189.9100  177.2300  140.0160 C   0  0  0  0  0  0  0  0  0  0  0  0
  188.9160  178.2250  139.7580 N   0  0  0  0  0  2  0  0  0  0  0  0
  190.1770  176.8020  141.3550 N   0  0  0  0  0  2  0  0  0  0  0  0
  189.4330  177.2430  142.5320 C   0  0  1  0  0  3  0  0  0  0  0  0
  188.6590  176.0900  143.1480 C   0  0  0  0  0  1  0  0  0  0  0  0
  190.3590  177.8700  143.5660 C   0  0  0  0  0  2  0  0  0  0  0  0
  190.2460  177.1580  144.8400 N   0  0  0  0  0  0  0  0  0  0  0  0
  191.5220  176.5670  145.2650 C   0  0  0  0  0  2  0  0  0  0  0  0
  191.6150  176.3170  146.7680 C   0  0  0  0  0  1  0  0  0  0  0  0
  189.6370  177.9830  145.8960 C   0  0  0  0  0  2  0  0  0  0  0  0
  188.2400  177.5240  146.3210 C   0  0  0  0  0  2  0  0  0  0  0  0
  188.1700  177.3820  147.8290 C   0  0  0  0  0  1  0  0  0  0  0  0
  183.4720  178.1220  138.5370 C   0  0  1  0  0  3  0  0  0  0  0  0
  183.7520  175.6910  138.3540 N   0  0  0  0  0  2  0  0  0  0  0  0
  183.8950  175.2950  135.9990 C   0  0  0  0  0  2  0  0  0  0  0  0
  182.9830  176.8310  137.8700 C   0  0  2  0  0  3  0  0  0  0  0  0
  183.1480  176.9360  136.0530 S   0  0  0  0  0  0  0  0  0  0  0  0
  183.6350  174.6570  137.3450 C   0  0  1  0  0  3  0  0  0  0  0  0
  184.6410  173.5540  137.6260 C   0  0  0  0  0  2  0  0  0  0  0  0
  185.5970  173.3910  136.4540 C   0  0  0  0  0  2  0  0  0  0  0  0
  186.9650  173.6220  136.8870 N   0  0  0  0  0  0  0  0  0  0  0  0
  188.3690  175.5640  136.5270 C   0  0  0  0  0  2  0  0  0  0  0  0
  187.3840  174.9620  137.1870 C   0  0  0  0  0  3  0  0  0  0  0  0
  187.8970  172.5000  136.8560 C   0  0  0  0  0  2  0  0  0  0  0  0
  187.4050  171.4330  135.8890 C   0  0  0  0  0  1  0  0  0  0  0  0
  182.7570  180.4570  138.6970 C   0  0  0  0  0  2  0  0  0  0  0  0
  182.4110  179.1860  138.5560 C   0  0  0  0  0  0  0  0  0  0  0  0
  181.0670  178.8500  138.4460 O   0  0  0  0  0  1  0  0  0  0  0  0
  3  9  1  0  0  0  0
  4 11  1  0  0  0  0
  5 10  1  0  0  0  0
  6  1  1  6  0  0  0
  6  3  1  0  0  0  0
  7  9  1  0  0  0  0
  8 30  1  6  0  0  0
  8 12  1  0  0  0  0
  8  4  1  0  0  0  0
  9  2  2  0  0  0  0
 10  7  1  0  0  0  0
 11  6  1  0  0  0  0
 11 10  2  0  0  0  0
 12 13  1  6  0  0  0
 12  1  1  0  0  0  0
 14 15  2  0  0  0  0
 15 16  1  0  0  0  0
 15 13  1  0  0  0  0
 16 19  1  0  0  0  0
 17 18  2  0  0  0  0
 18 20  1  0  0  0  0
 19 18  1  0  0  0  0
 20 21  1  0  0  0  0
 21 22  1  1  0  0  0
 21 23  1  0  0  0  0
 23 24  1  0  0  0  0
 24 25  1  0  0  0  0
 24 27  1  0  0  0  0
 25 26  1  0  0  0  0
 27 28  1  0  0  0  0
 28 29  1  0  0  0  0
 30 44  1  1  0  0  0
 32 34  1  0  0  0  0
 32 35  1  0  0  0  0
 33 31  1  0  0  0  0
 33 30  1  1  0  0  0
 34 33  1  0  0  0  0
 35 36  1  1  0  0  0
 35 31  1  0  0  0  0
 37 38  1  0  0  0  0
 37 36  1  0  0  0  0
 38 40  1  0  0  0  0
 39 40  2  0  0  0  0
 41 38  1  0  0  0  0
 42 41  1  0  0  0  0
 44 43  2  0  0  0  0
 45 44  1  0  0  0  0
M  END
>  <MODEL>
1

>  <REMARK>
 VINA RESULT:      -6.6      0.000      0.000
  Name = 
  18 active torsions:
  status: ('A' for Active; 'I' for Inactive)
    1  A    between atoms: C_1  and  C_11
    2  A    between atoms: C_1  and  N_14
    3  A    between atoms: C_3  and  C_27
    4  A    between atoms: C_3  and  C_30
    5  A    between atoms: C_3  and  C_33
    6  A    between atoms: C_7  and  C_12
    7  A    between atoms: C_7  and  N_14
    8  A    between atoms: N_10  and  C_18
    9  A    between atoms: C_12  and  N_23
   10  A    between atoms: N_14  and  C_17
   11  A    between atoms: C_15  and  C_24
   12  A    between atoms: C_15  and  C_42
   13  A    between atoms: N_16  and  C_24
   14  A    between atoms: N_16  and  C_26
   15  A    between atoms: N_16  and  C_43
   16  A    between atoms: C_18  and  C_45
   17  A    between atoms: C_38  and  O_41
   18  A    between atoms: O_41  and  C_45
                            x       y       z     vdW  Elec       q    Type
                         _______ _______ _______ _____ _____    ______ ____

>  <TORSDO>
F 18

$$$$
=
 OpenBabel10232408253D

 45 47  0  0  1  0  0  0  0  0999 V2000
  186.4120  178.3270  141.9610 C   0  0  0  0  0  2  0  0  0  0  0  0
  185.2890  178.3190  146.6650 O   0  0  0  0  0  0  0  0  0  0  0  0
  185.9740  178.2760  144.4120 C   0  0  0  0  0  2  0  0  0  0  0  0
  183.6080  178.4710  141.4680 N   0  0  0  0  0  2  0  0  0  0  0  0
  181.7140  178.7210  143.5650 C   0  0  0  0  0  1  0  0  0  0  0  0
  185.5410  178.8890  143.0800 C   0  0  2  0  0  3  0  0  0  0  0  0
  183.6390  179.1550  145.2050 C   0  0  0  0  0  2  0  0  0  0  0  0
  184.5210  178.1710  140.3670 C   0  0  2  0  0  3  0  0  0  0  0  0
  184.9840  178.5580  145.5090 C   0  0  0  0  0  0  0  0  0  0  0  0
  183.1820  178.8130  143.8150 C   0  0  0  0  0  0  0  0  0  0  0  0
  184.0660  178.6750  142.8120 C   0  0  0  0  0  0  0  0  0  0  0  0
  185.8970  178.7930  140.6010 C   0  0  2  0  0  3  0  0  0  0  0  0
  186.7880  178.3710  139.5730 O   0  0  0  0  0  0  0  0  0  0  0  0
  188.8510  179.4130  139.4970 O   0  0  0  0  0  0  0  0  0  0  0  0
  188.1750  178.3750  139.7270 C   0  0  0  0  0  0  0  0  0  0  0  0
  188.8580  177.1270  140.1620 C   0  0  0  0  0  2  0  0  0  0  0  0
  191.7010  176.9830  140.1500 O   0  0  0  0  0  0  0  0  0  0  0  0
  191.1400  177.2900  141.2350 C   0  0  0  0  0  0  0  0  0  0  0  0
  189.7180  177.4150  141.3010 N   0  0  0  0  0  2  0  0  0  0  0  0
  191.9440  177.5290  142.3950 N   0  0  0  0  0  2  0  0  0  0  0  0
  191.4160  177.8170  143.7260 C   0  0  1  0  0  3  0  0  0  0  0  0
  190.9070  179.2460  143.8100 C   0  0  0  0  0  1  0  0  0  0  0  0
  190.3120  176.8390  144.1040 C   0  0  0  0  0  2  0  0  0  0  0  0
  190.2250  176.7170  145.5600 N   0  0  0  0  0  0  0  0  0  0  0  0
  191.5190  176.9450  146.2190 C   0  0  0  0  0  2  0  0  0  0  0  0
  192.0140  175.7540  147.0350 C   0  0  0  0  0  1  0  0  0  0  0  0
  189.1560  177.5490  146.1340 C   0  0  0  0  0  2  0  0  0  0  0  0
  188.6280  177.0480  147.4810 C   0  0  0  0  0  2  0  0  0  0  0  0
  188.7440  178.1380  148.5290 C   0  0  0  0  0  1  0  0  0  0  0  0
  183.9250  178.5870  139.0110 C   0  0  1  0  0  3  0  0  0  0  0  0
  184.9670  177.0130  137.4420 N   0  0  0  0  0  2  0  0  0  0  0  0
  183.5400  177.0710  135.5230 C   0  0  0  0  0  2  0  0  0  0  0  0
  183.7110  177.3840  138.0850 C   0  0  2  0  0  3  0  0  0  0  0  0
  182.4710  177.7650  136.8000 S   0  0  0  0  0  0  0  0  0  0  0  0
  184.6150  176.2850  136.2390 C   0  0  1  0  0  3  0  0  0  0  0  0
  185.8440  176.1240  135.3630 C   0  0  0  0  0  2  0  0  0  0  0  0
  187.1080  176.4200  136.1550 C   0  0  0  0  0  2  0  0  0  0  0  0
  188.1000  175.3830  135.9220 N   0  0  0  0  0  0  0  0  0  0  0  0
  188.3010  173.1340  136.8000 C   0  0  0  0  0  2  0  0  0  0  0  0
  187.7000  174.0070  135.9970 C   0  0  0  0  0  3  0  0  0  0  0  0
  189.4950  175.7850  135.7680 C   0  0  0  0  0  2  0  0  0  0  0  0
  189.7760  177.0340  136.5900 C   0  0  0  0  0  1  0  0  0  0  0  0
  182.6810  180.6860  138.8200 C   0  0  0  0  0  2  0  0  0  0  0  0
  182.6760  179.4080  139.1690 C   0  0  0  0  0  0  0  0  0  0  0  0
  181.5190  178.8460  139.6960 O   0  0  0  0  0  1  0  0  0  0  0  0
  3  9  1  0  0  0  0
  4 11  1  0  0  0  0
  5 10  1  0  0  0  0
  6  1  1  6  0  0  0
  6  3  1  0  0  0  0
  7  9  1  0  0  0  0
  8 30  1  6  0  0  0
  8 12  1  0  0  0  0
  8  4  1  0  0  0  0
  9  2  2  0  0  0  0
 10  7  1  0  0  0  0
 11  6  1  0  0  0  0
 11 10  2  0  0  0  0
 12 13  1  6  0  0  0
 12  1  1  0  0  0  0
 13 15  1  0  0  0  0
 14 15  2  0  0  0  0
 15 16  1  0  0  0  0
 16 19  1  0  0  0  0
 17 18  2  0  0  0  0
 18 19  1  0  0  0  0
 18 20  1  0  0  0  0
 20 21  1  0  0  0  0
 21 22  1  6  0  0  0
 21 23  1  0  0  0  0
 23 24  1  0  0  0  0
 24 27  1  0  0  0  0
 24 25  1  0  0  0  0
 25 26  1  0  0  0  0
 27 28  1  0  0  0  0
 28 29  1  0  0  0  0
 30 44  1  1  0  0  0
 31 33  1  0  0  0  0
 32 35  1  0  0  0  0
 32 34  1  0  0  0  0
 33 30  1  1  0  0  0
 34 33  1  0  0  0  0
 35 36  1  6  0  0  0
 35 31  1  0  0  0  0
 36 37  1  0  0  0  0
 38 40  1  0  0  0  0
 38 37  1  0  0  0  0
 40 39  2  0  0  0  0
 41 38  1  0  0  0  0
 41 42  1  0  0  0  0
 43 44  2  0  0  0  0
 44 45  1  0  0  0  0
M  END
>  <MODEL>
2

>  <REMARK>
 VINA RESULT:      -6.5      1.369      1.982
  Name = 
  18 active torsions:
  status: ('A' for Active; 'I' for Inactive)
    1  A    between atoms: C_1  and  C_11
    2  A    between atoms: C_1  and  N_14
    3  A    between atoms: C_3  and  C_27
    4  A    between atoms: C_3  and  C_30
    5  A    between atoms: C_3  and  C_33
    6  A    between atoms: C_7  and  C_12
    7  A    between atoms: C_7  and  N_14
    8  A    between atoms: N_10  and  C_18
    9  A    between atoms: C_12  and  N_23
   10  A    between atoms: N_14  and  C_17
   11  A    between atoms: C_15  and  C_24
   12  A    between atoms: C_15  and  C_42
   13  A    between atoms: N_16  and  C_24
   14  A    between atoms: N_16  and  C_26
   15  A    between atoms: N_16  and  C_43
   16  A    between atoms: C_18  and  C_45
   17  A    between atoms: C_38  and  O_41
   18  A    between atoms: O_41  and  C_45
                            x       y       z     vdW  Elec       q    Type
                         _______ _______ _______ _____ _____    ______ ____

>  <TORSDO>
F 18

$$$$
=
 OpenBabel10232408253D

 45 47  0  0  1  0  0  0  0  0999 V2000
  186.2450  178.3510  141.7940 C   0  0  0  0  0  2  0  0  0  0  0  0
  185.3230  178.3800  146.5410 O   0  0  0  0  0  0  0  0  0  0  0  0
  185.9130  178.3210  144.2620 C   0  0  0  0  0  2  0  0  0  0  0  0
  183.4210  178.4430  141.4200 N   0  0  0  0  0  2  0  0  0  0  0  0
  181.6140  178.6860  143.5920 C   0  0  0  0  0  1  0  0  0  0  0  0
  185.4130  178.9120  142.9430 C   0  0  2  0  0  3  0  0  0  0  0  0
  183.5980  179.1720  145.1430 C   0  0  0  0  0  2  0  0  0  0  0  0
  184.2910  178.1440  140.2840 C   0  0  2  0  0  3  0  0  0  0  0  0
  184.9650  178.6000  145.3970 C   0  0  0  0  0  0  0  0  0  0  0  0
  183.0890  178.8060  143.7780 C   0  0  0  0  0  0  0  0  0  0  0  0
  183.9320  178.6700  142.7410 C   0  0  0  0  0  0  0  0  0  0  0  0
  185.6650  178.7910  140.4520 C   0  0  2  0  0  3  0  0  0  0  0  0
  186.5190  178.3720  139.3920 O   0  0  0  0  0  0  0  0  0  0  0  0
  188.5700  179.3930  139.7100 O   0  0  0  0  0  0  0  0  0  0  0  0
  187.9090  178.3380  139.5100 C   0  0  0  0  0  0  0  0  0  0  0  0
  188.6140  177.0340  139.3880 C   0  0  0  0  0  2  0  0  0  0  0  0
  191.3460  177.5830  139.9680 O   0  0  0  0  0  0  0  0  0  0  0  0
  190.6710  176.9980  140.8560 C   0  0  0  0  0  0  0  0  0  0  0  0
  189.2840  176.7240  140.6430 N   0  0  0  0  0  2  0  0  0  0  0  0
  191.3030  176.6260  142.0850 N   0  0  0  0  0  2  0  0  0  0  0  0
  190.6550  175.8780  143.1600 C   0  0  1  0  0  3  0  0  0  0  0  0
  191.6710  175.4250  144.1940 C   0  0  0  0  0  1  0  0  0  0  0  0
  189.5590  176.7040  143.8200 C   0  0  0  0  0  2  0  0  0  0  0  0
  190.1480  177.6720  144.7470 N   0  0  0  0  0  0  0  0  0  0  0  0
  190.4290  178.9630  144.1020 C   0  0  0  0  0  2  0  0  0  0  0  0
  191.8730  179.4300  144.2620 C   0  0  0  0  0  1  0  0  0  0  0  0
  189.3600  177.8270  145.9800 C   0  0  0  0  0  2  0  0  0  0  0  0
  189.6000  176.7280  147.0170 C   0  0  0  0  0  2  0  0  0  0  0  0
  191.0290  176.7830  147.5210 C   0  0  0  0  0  1  0  0  0  0  0  0
  183.6320  178.5340  138.9500 C   0  0  1  0  0  3  0  0  0  0  0  0
  183.1710  176.1570  138.5500 N   0  0  0  0  0  2  0  0  0  0  0  0
  182.2440  176.1040  136.3450 C   0  0  0  0  0  2  0  0  0  0  0  0
  182.5980  177.4970  138.4970 C   0  0  2  0  0  3  0  0  0  0  0  0
  182.0370  177.8400  136.7920 S   0  0  0  0  0  0  0  0  0  0  0  0
  182.3930  175.3390  137.6400 C   0  0  1  0  0  3  0  0  0  0  0  0
  183.1020  174.0160  137.4100 C   0  0  0  0  0  2  0  0  0  0  0  0
  184.6040  174.1750  137.5980 C   0  0  0  0  0  2  0  0  0  0  0  0
  185.2860  174.0350  136.3220 N   0  0  0  0  0  0  0  0  0  0  0  0
  185.7410  172.3950  134.5970 C   0  0  0  0  0  2  0  0  0  0  0  0
  185.6820  172.7270  135.8830 C   0  0  0  0  0  3  0  0  0  0  0  0
  185.6720  175.2490  135.6100 C   0  0  0  0  0  2  0  0  0  0  0  0
  186.2380  176.2720  136.5830 C   0  0  0  0  0  1  0  0  0  0  0  0
  181.7650  180.0980  139.2040 C   0  0  0  0  0  2  0  0  0  0  0  0
  183.0600  179.9240  138.9850 C   0  0  0  0  0  0  0  0  0  0  0  0
  183.8740  181.0300  138.7700 O   0  0  0  0  0  1  0  0  0  0  0  0
  3  9  1  0  0  0  0
  4 11  1  0  0  0  0
  5 10  1  0  0  0  0
  6  1  1  6  0  0  0
  6  3  1  0  0  0  0
  7  9  1  0  0  0  0
  8 30  1  6  0  0  0
  8 12  1  0  0  0  0
  8  4  1  0  0  0  0
  9  2  2  0  0  0  0
 10  7  1  0  0  0  0
 11  6  1  0  0  0  0
 11 10  2  0  0  0  0
 12 13  1  6  0  0  0
 12  1  1  0  0  0  0
 13 15  1  0  0  0  0
 15 14  2  0  0  0  0
 16 15  1  0  0  0  0
 16 19  1  0  0  0  0
 17 18  2  0  0  0  0
 18 20  1  0  0  0  0
 19 18  1  0  0  0  0
 20 21  1  0  0  0  0
 21 23  1  0  0  0  0
 21 22  1  1  0  0  0
 23 24  1  0  0  0  0
 24 27  1  0  0  0  0
 25 26  1  0  0  0  0
 25 24  1  0  0  0  0
 27 28  1  0  0  0  0
 28 29  1  0  0  0  0
 30 44  1  1  0  0  0
 32 34  1  0  0  0  0
 32 35  1  0  0  0  0
 33 31  1  0  0  0  0
 33 30  1  6  0  0  0
 34 33  1  0  0  0  0
 35 36  1  6  0  0  0
 35 31  1  0  0  0  0
 36 37  1  0  0  0  0
 38 37  1  0  0  0  0
 39 40  2  0  0  0  0
 40 38  1  0  0  0  0
 41 38  1  0  0  0  0
 41 42  1  0  0  0  0
 44 43  2  0  0  0  0
 45 44  1  0  0  0  0
M  END
>  <MODEL>
3

>  <REMARK>
 VINA RESULT:      -6.4      1.353      2.030
  Name = 
  18 active torsions:
  status: ('A' for Active; 'I' for Inactive)
    1  A    between atoms: C_1  and  C_11
    2  A    between atoms: C_1  and  N_14
    3  A    between atoms: C_3  and  C_27
    4  A    between atoms: C_3  and  C_30
    5  A    between atoms: C_3  and  C_33
    6  A    between atoms: C_7  and  C_12
    7  A    between atoms: C_7  and  N_14
    8  A    between atoms: N_10  and  C_18
    9  A    between atoms: C_12  and  N_23
   10  A    between atoms: N_14  and  C_17
   11  A    between atoms: C_15  and  C_24
   12  A    between atoms: C_15  and  C_42
   13  A    between atoms: N_16  and  C_24
   14  A    between atoms: N_16  and  C_26
   15  A    between atoms: N_16  and  C_43
   16  A    between atoms: C_18  and  C_45
   17  A    between atoms: C_38  and  O_41
   18  A    between atoms: O_41  and  C_45
                            x       y       z     vdW  Elec       q    Type
                         _______ _______ _______ _____ _____    ______ ____

>  <TORSDO>
F 18

$$$$
=
 OpenBabel10232408253D

 45 47  0  0  1  0  0  0  0  0999 V2000
  190.3760  177.2230  138.6540 C   0  0  0  0  0  2  0  0  0  0  0  0
  194.7890  175.5190  137.6480 O   0  0  0  0  0  0  0  0  0  0  0  0
  192.7060  176.4750  138.1890 C   0  0  0  0  0  2  0  0  0  0  0  0
  189.3790  175.1460  136.9760 N   0  0  0  0  0  2  0  0  0  0  0  0
  191.0770  173.1910  135.8170 C   0  0  0  0  0  1  0  0  0  0  0  0
  191.2730  176.0070  138.4520 C   0  0  2  0  0  3  0  0  0  0  0  0
  192.9960  174.0300  137.2990 C   0  0  0  0  0  2  0  0  0  0  0  0
  188.4860  176.2220  137.4020 C   0  0  2  0  0  3  0  0  0  0  0  0
  193.5820  175.3540  137.6990 C   0  0  0  0  0  0  0  0  0  0  0  0
  191.5770  174.1720  136.8240 C   0  0  0  0  0  0  0  0  0  0  0  0
  190.7630  175.1020  137.3490 C   0  0  0  0  0  0  0  0  0  0  0  0
  188.9140  176.7950  138.7530 C   0  0  2  0  0  3  0  0  0  0  0  0
  188.0980  177.9190  139.0690 O   0  0  0  0  0  0  0  0  0  0  0  0
  188.7530  178.3810  141.2390 O   0  0  0  0  0  0  0  0  0  0  0  0
  187.8320  178.3130  140.3800 C   0  0  0  0  0  0  0  0  0  0  0  0
  186.4350  178.6490  140.7660 C   0  0  0  0  0  2  0  0  0  0  0  0
  184.0070  178.0600  142.1320 O   0  0  0  0  0  0  0  0  0  0  0  0
  185.0310  178.2760  142.8340 C   0  0  0  0  0  0  0  0  0  0  0  0
  186.2890  178.5420  142.2100 N   0  0  0  0  0  2  0  0  0  0  0  0
  184.9230  178.2350  144.2610 N   0  0  0  0  0  2  0  0  0  0  0  0
  186.0110  178.5400  145.1850 C   0  0  1  0  0  3  0  0  0  0  0  0
  185.4720  179.0720  146.5020 C   0  0  0  0  0  1  0  0  0  0  0  0
  186.8860  177.3170  145.4280 C   0  0  0  0  0  2  0  0  0  0  0  0
  188.2630  177.7310  145.7060 N   0  0  0  0  0  0  0  0  0  0  0  0
  188.7820  177.1450  146.9490 C   0  0  0  0  0  2  0  0  0  0  0  0
  188.7030  178.0810  148.1520 C   0  0  0  0  0  1  0  0  0  0  0  0
  189.1640  177.5020  144.5650 C   0  0  0  0  0  2  0  0  0  0  0  0
  190.4700  178.2970  144.6300 C   0  0  0  0  0  2  0  0  0  0  0  0
  191.6180  177.4660  144.0900 C   0  0  0  0  0  1  0  0  0  0  0  0
  187.0170  175.7650  137.4110 C   0  0  1  0  0  3  0  0  0  0  0  0
  184.8860  176.9660  137.6040 N   0  0  0  0  0  2  0  0  0  0  0  0
  183.8770  176.7160  135.4490 C   0  0  0  0  0  2  0  0  0  0  0  0
  186.0870  176.8140  136.7910 C   0  0  2  0  0  3  0  0  0  0  0  0
  185.6040  176.3340  135.0960 S   0  0  0  0  0  0  0  0  0  0  0  0
  183.8650  177.5150  136.7330 C   0  0  1  0  0  3  0  0  0  0  0  0
  182.5110  177.4260  137.4160 C   0  0  0  0  0  2  0  0  0  0  0  0
  182.6340  177.7680  138.8930 C   0  0  0  0  0  2  0  0  0  0  0  0
  181.8980  178.9880  139.1860 N   0  0  0  0  0  0  0  0  0  0  0  0
  180.5190  177.8600  140.8280 C   0  0  0  0  0  2  0  0  0  0  0  0
  180.9380  178.9830  140.2530 C   0  0  0  0  0  3  0  0  0  0  0  0
  182.0620  180.1250  138.2860 C   0  0  0  0  0  2  0  0  0  0  0  0
  181.1920  181.2870  138.7420 C   0  0  0  0  0  1  0  0  0  0  0  0
  186.1330  173.4820  137.4080 C   0  0  0  0  0  2  0  0  0  0  0  0
  186.8410  174.4110  136.7820 C   0  0  0  0  0  0  0  0  0  0  0  0
  187.4300  174.1150  135.5580 O   0  0  0  0  0  1  0  0  0  0  0  0
  1 12  1  0  0  0  0
  2  9  2  0  0  0  0
  4 11  1  0  0  0  0
  4  8  1  0  0  0  0
  5 10  1  0  0  0  0
  6  3  1  6  0  0  0
  6  1  1  0  0  0  0
  7  9  1  0  0  0  0
  8 30  1  1  0  0  0
  8 12  1  0  0  0  0
  9  3  1  0  0  0  0
 10  7  1  0  0  0  0
 10 11  2  0  0  0  0
 11  6  1  0  0  0  0
 12 13  1  6  0  0  0
 13 15  1  0  0  0  0
 15 16  1  0  0  0  0
 15 14  2  0  0  0  0
 16 19  1  0  0  0  0
 17 18  2  0  0  0  0
 18 20  1  0  0  0  0
 19 18  1  0  0  0  0
 20 21  1  0  0  0  0
 21 23  1  0  0  0  0
 21 22  1  1  0  0  0
 23 24  1  0  0  0  0
 24 25  1  0  0  0  0
 25 26  1  0  0  0  0
 27 28  1  0  0  0  0
 27 24  1  0  0  0  0
 29 28  1  0  0  0  0
 30 44  1  6  0  0  0
 32 35  1  0  0  0  0
 33 30  1  1  0  0  0
 33 31  1  0  0  0  0
 34 32  1  0  0  0  0
 34 33  1  0  0  0  0
 35 36  1  1  0  0  0
 35 31  1  0  0  0  0
 36 37  1  0  0  0  0
 37 38  1  0  0  0  0
 38 40  1  0  0  0  0
 40 39  2  0  0  0  0
 41 42  1  0  0  0  0
 41 38  1  0  0  0  0
 44 43  2  0  0  0  0
 45 44  1  0  0  0  0
M  END
>  <MODEL>
4

>  <REMARK>
 VINA RESULT:      -5.8      2.512      7.076
  Name = 
  18 active torsions:
  status: ('A' for Active; 'I' for Inactive)
    1  A    between atoms: C_1  and  C_11
    2  A    between atoms: C_1  and  N_14
    3  A    between atoms: C_3  and  C_27
    4  A    between atoms: C_3  and  C_30
    5  A    between atoms: C_3  and  C_33
    6  A    between atoms: C_7  and  C_12
    7  A    between atoms: C_7  and  N_14
    8  A    between atoms: N_10  and  C_18
    9  A    between atoms: C_12  and  N_23
   10  A    between atoms: N_14  and  C_17
   11  A    between atoms: C_15  and  C_24
   12  A    between atoms: C_15  and  C_42
   13  A    between atoms: N_16  and  C_24
   14  A    between atoms: N_16  and  C_26
   15  A    between atoms: N_16  and  C_43
   16  A    between atoms: C_18  and  C_45
   17  A    between atoms: C_38  and  O_41
   18  A    between atoms: O_41  and  C_45
                            x       y       z     vdW  Elec       q    Type
                         _______ _______ _______ _____ _____    ______ ____

>  <TORSDO>
F 18

$$$$
=
 OpenBabel10232408253D

 45 47  0  0  1  0  0  0  0  0999 V2000
  188.3200  177.8510  141.5620 C   0  0  0  0  0  2  0  0  0  0  0  0
  191.5690  176.2650  144.7740 O   0  0  0  0  0  0  0  0  0  0  0  0
  190.0810  176.9920  143.1000 C   0  0  0  0  0  2  0  0  0  0  0  0
  186.4630  177.9010  143.7240 N   0  0  0  0  0  2  0  0  0  0  0  0
  187.2290  177.3140  146.3910 C   0  0  0  0  0  1  0  0  0  0  0  0
  188.8990  177.9540  142.9690 C   0  0  2  0  0  3  0  0  0  0  0  0
  189.6880  177.3730  145.6610 C   0  0  0  0  0  2  0  0  0  0  0  0
  185.9790  178.0420  142.3520 C   0  0  2  0  0  3  0  0  0  0  0  0
  190.5160  176.8290  144.5310 C   0  0  0  0  0  0  0  0  0  0  0  0
  188.2320  177.4490  145.2950 C   0  0  0  0  0  0  0  0  0  0  0  0
  187.8500  177.7100  144.0340 C   0  0  0  0  0  0  0  0  0  0  0  0
  187.0400  178.6740  141.4520 C   0  0  2  0  0  3  0  0  0  0  0  0
  186.5770  178.6760  140.1050 O   0  0  0  0  0  0  0  0  0  0  0  0
  188.4910  178.9650  138.8390 O   0  0  0  0  0  0  0  0  0  0  0  0
  187.4000  178.3600  139.0230 C   0  0  0  0  0  0  0  0  0  0  0  0
  186.9710  177.2990  138.0730 C   0  0  0  0  0  2  0  0  0  0  0  0
  187.6830  177.7400  135.3520 O   0  0  0  0  0  0  0  0  0  0  0  0
  188.4200  176.9740  136.0280 C   0  0  0  0  0  0  0  0  0  0  0  0
  188.1390  176.7390  137.4100 N   0  0  0  0  0  2  0  0  0  0  0  0
  189.5500  176.3570  135.4030 N   0  0  0  0  0  2  0  0  0  0  0  0
  190.4360  175.3940  136.0520 C   0  0  1  0  0  3  0  0  0  0  0  0
  190.3000  174.0200  135.4190 C   0  0  0  0  0  1  0  0  0  0  0  0
  191.8860  175.8590  136.0010 C   0  0  0  0  0  2  0  0  0  0  0  0
  192.3980  176.0590  137.3570 N   0  0  0  0  0  0  0  0  0  0  0  0
  191.3650  175.8500  138.3810 C   0  0  0  0  0  2  0  0  0  0  0  0
  191.2970  176.9610  139.4250 C   0  0  0  0  0  1  0  0  0  0  0  0
  193.6120  175.2730  137.6250 C   0  0  0  0  0  2  0  0  0  0  0  0
  194.3510  174.8160  136.3650 C   0  0  0  0  0  2  0  0  0  0  0  0
  195.8430  174.7380  136.6300 C   0  0  0  0  0  1  0  0  0  0  0  0
  184.6480  178.8110  142.3000 C   0  0  1  0  0  3  0  0  0  0  0  0
  183.9680  177.3770  140.4280 N   0  0  0  0  0  2  0  0  0  0  0  0
  181.8800  178.3000  139.7130 C   0  0  0  0  0  2  0  0  0  0  0  0
  183.5240  177.9700  141.6840 C   0  0  2  0  0  3  0  0  0  0  0  0
  182.0440  178.9950  141.3700 S   0  0  0  0  0  0  0  0  0  0  0  0
  182.7720  177.0800  139.6660 C   0  0  1  0  0  3  0  0  0  0  0  0
  183.1500  176.7380  138.2350 C   0  0  0  0  0  2  0  0  0  0  0  0
  183.3370  175.2370  138.0750 C   0  0  0  0  0  2  0  0  0  0  0  0
  184.2520  174.9610  136.9790 N   0  0  0  0  0  0  0  0  0  0  0  0
  185.2860  172.9150  137.7660 C   0  0  0  0  0  2  0  0  0  0  0  0
  185.3920  174.1220  137.2180 C   0  0  0  0  0  3  0  0  0  0  0  0
  184.0520  175.6690  135.7200 C   0  0  0  0  0  2  0  0  0  0  0  0
  182.8160  175.1400  135.0080 C   0  0  0  0  0  1  0  0  0  0  0  0
  183.3900  178.7270  144.3980 C   0  0  0  0  0  2  0  0  0  0  0  0
  184.2640  179.3720  143.6410 C   0  0  0  0  0  0  0  0  0  0  0  0
  184.8030  180.5730  144.0870 O   0  0  0  0  0  1  0  0  0  0  0  0
  3  9  1  0  0  0  0
  4 11  1  0  0  0  0
  6  1  1  6  0  0  0
  6  3  1  0  0  0  0
  6 11  1  0  0  0  0
  8 30  1  1  0  0  0
  8  4  1  0  0  0  0
  9  2  2  0  0  0  0
  9  7  1  0  0  0  0
 10  7  1  0  0  0  0
 10  5  1  0  0  0  0
 11 10  2  0  0  0  0
 12 13  1  6  0  0  0
 12  1  1  0  0  0  0
 12  8  1  0  0  0  0
 14 15  2  0  0  0  0
 15 13  1  0  0  0  0
 16 15  1  0  0  0  0
 17 18  2  0  0  0  0
 18 19  1  0  0  0  0
 19 16  1  0  0  0  0
 20 18  1  0  0  0  0
 20 21  1  0  0  0  0
 21 22  1  6  0  0  0
 23 21  1  0  0  0  0
 23 24  1  0  0  0  0
 24 27  1  0  0  0  0
 24 25  1  0  0  0  0
 25 26  1  0  0  0  0
 28 29  1  0  0  0  0
 28 27  1  0  0  0  0
 30 44  1  1  0  0  0
 31 33  1  0  0  0  0
 32 34  1  0  0  0  0
 33 30  1  6  0  0  0
 34 33  1  0  0  0  0
 35 36  1  6  0  0  0
 35 32  1  0  0  0  0
 35 31  1  0  0  0  0
 37 36  1  0  0  0  0
 38 40  1  0  0  0  0
 38 37  1  0  0  0  0
 40 39  2  0  0  0  0
 41 38  1  0  0  0  0
 42 41  1  0  0  0  0
 44 45  1  0  0  0  0
 44 43  2  0  0  0  0
M  END
>  <MODEL>
5

>  <REMARK>
 VINA RESULT:      -5.7      2.735      5.840
  Name = 
  18 active torsions:
  status: ('A' for Active; 'I' for Inactive)
    1  A    between atoms: C_1  and  C_11
    2  A    between atoms: C_1  and  N_14
    3  A    between atoms: C_3  and  C_27
    4  A    between atoms: C_3  and  C_30
    5  A    between atoms: C_3  and  C_33
    6  A    between atoms: C_7  and  C_12
    7  A    between atoms: C_7  and  N_14
    8  A    between atoms: N_10  and  C_18
    9  A    between atoms: C_12  and  N_23
   10  A    between atoms: N_14  and  C_17
   11  A    between atoms: C_15  and  C_24
   12  A    between atoms: C_15  and  C_42
   13  A    between atoms: N_16  and  C_24
   14  A    between atoms: N_16  and  C_26
   15  A    between atoms: N_16  and  C_43
   16  A    between atoms: C_18  and  C_45
   17  A    between atoms: C_38  and  O_41
   18  A    between atoms: O_41  and  C_45
                            x       y       z     vdW  Elec       q    Type
                         _______ _______ _______ _____ _____    ______ ____

>  <TORSDO>
F 18

$$$$
=
 OpenBabel10232408253D

 45 47  0  0  1  0  0  0  0  0999 V2000
  188.0620  177.8450  141.2370 C   0  0  0  0  0  2  0  0  0  0  0  0
  191.5470  176.1290  144.1180 O   0  0  0  0  0  0  0  0  0  0  0  0
  189.9330  176.9200  142.5970 C   0  0  0  0  0  2  0  0  0  0  0  0
  186.4090  177.9010  143.5580 N   0  0  0  0  0  2  0  0  0  0  0  0
  187.3970  177.2510  146.1360 C   0  0  0  0  0  1  0  0  0  0  0  0
  188.7680  177.9110  142.5870 C   0  0  2  0  0  3  0  0  0  0  0  0
  189.7800  177.2660  145.1880 C   0  0  0  0  0  2  0  0  0  0  0  0
  185.8070  178.0770  142.2370 C   0  0  2  0  0  3  0  0  0  0  0  0
  190.4900  176.7210  143.9800 C   0  0  0  0  0  0  0  0  0  0  0  0
  188.3000  177.3810  144.9560 C   0  0  0  0  0  0  0  0  0  0  0  0
  187.8130  177.6720  143.7380 C   0  0  0  0  0  0  0  0  0  0  0  0
  186.7980  178.7000  141.2550 C   0  0  2  0  0  3  0  0  0  0  0  0
  186.2160  178.7350  139.9550 O   0  0  0  0  0  0  0  0  0  0  0  0
  188.1180  178.7870  138.6400 O   0  0  0  0  0  0  0  0  0  0  0  0
  186.9270  178.4060  138.8000 C   0  0  0  0  0  0  0  0  0  0  0  0
  186.2580  177.6010  137.7430 C   0  0  0  0  0  2  0  0  0  0  0  0
  186.3230  176.4410  135.1440 O   0  0  0  0  0  0  0  0  0  0  0  0
  187.0920  175.9560  136.0160 C   0  0  0  0  0  0  0  0  0  0  0  0
  187.1350  176.5150  137.3310 N   0  0  0  0  0  2  0  0  0  0  0  0
  187.9340  174.8510  135.6710 N   0  0  0  0  0  2  0  0  0  0  0  0
  188.8120  174.1510  136.6050 C   0  0  1  0  0  3  0  0  0  0  0  0
  188.1930  172.8360  137.0490 C   0  0  0  0  0  1  0  0  0  0  0  0
  190.1850  173.9090  135.9940 C   0  0  0  0  0  2  0  0  0  0  0  0
  191.2190  174.5370  136.8190 N   0  0  0  0  0  0  0  0  0  0  0  0
  192.5220  173.8700  136.6850 C   0  0  0  0  0  2  0  0  0  0  0  0
  193.6720  174.6260  137.3450 C   0  0  0  0  0  1  0  0  0  0  0  0
  191.3140  175.9890  136.5980 C   0  0  0  0  0  2  0  0  0  0  0  0
  190.6400  176.8310  137.6840 C   0  0  0  0  0  2  0  0  0  0  0  0
  190.8570  176.2020  139.0470 C   0  0  0  0  0  1  0  0  0  0  0  0
  184.4960  178.8770  142.3170 C   0  0  1  0  0  3  0  0  0  0  0  0
  183.5870  177.4800  140.5150 N   0  0  0  0  0  2  0  0  0  0  0  0
  181.4470  178.4450  140.0510 C   0  0  0  0  0  2  0  0  0  0  0  0
  183.2960  178.0630  141.8200 C   0  0  2  0  0  3  0  0  0  0  0  0
  181.8070  179.1140  141.6880 S   0  0  0  0  0  0  0  0  0  0  0  0
  182.3080  177.2120  139.8890 C   0  0  1  0  0  3  0  0  0  0  0  0
  182.5170  176.8860  138.4210 C   0  0  0  0  0  2  0  0  0  0  0  0
  183.0010  175.4530  138.2550 C   0  0  0  0  0  2  0  0  0  0  0  0
  183.2590  175.1700  136.8530 N   0  0  0  0  0  0  0  0  0  0  0  0
  182.8540  175.8870  134.5740 C   0  0  0  0  0  2  0  0  0  0  0  0
  182.9400  176.1670  135.8710 C   0  0  0  0  0  3  0  0  0  0  0  0
  183.6940  173.8260  136.4890 C   0  0  0  0  0  2  0  0  0  0  0  0
  184.6020  173.2560  137.5690 C   0  0  0  0  0  1  0  0  0  0  0  0
  183.4430  178.8340  144.5260 C   0  0  0  0  0  2  0  0  0  0  0  0
  184.2630  179.4490  143.6880 C   0  0  0  0  0  0  0  0  0  0  0  0
  184.8850  180.6290  144.0790 O   0  0  0  0  0  1  0  0  0  0  0  0
  1 12  1  0  0  0  0
  3  9  1  0  0  0  0
  4 11  1  0  0  0  0
  6  1  1  6  0  0  0
  6  3  1  0  0  0  0
  6 11  1  0  0  0  0
  8 30  1  1  0  0  0
  8  4  1  0  0  0  0
  9  2  2  0  0  0  0
  9  7  1  0  0  0  0
 10  7  1  0  0  0  0
 10  5  1  0  0  0  0
 11 10  2  0  0  0  0
 12 13  1  6  0  0  0
 12  8  1  0  0  0  0
 14 15  2  0  0  0  0
 15 13  1  0  0  0  0
 16 15  1  0  0  0  0
 17 18  2  0  0  0  0
 18 19  1  0  0  0  0
 19 16  1  0  0  0  0
 20 18  1  0  0  0  0
 20 21  1  0  0  0  0
 21 22  1  6  0  0  0
 23 21  1  0  0  0  0
 23 24  1  0  0  0  0
 25 24  1  0  0  0  0
 25 26  1  0  0  0  0
 27 24  1  0  0  0  0
 27 28  1  0  0  0  0
 28 29  1  0  0  0  0
 30 44  1  1  0  0  0
 31 33  1  0  0  0  0
 32 34  1  0  0  0  0
 33 30  1  6  0  0  0
 34 33  1  0  0  0  0
 35 36  1  6  0  0  0
 35 32  1  0  0  0  0
 35 31  1  0  0  0  0
 37 36  1  0  0  0  0
 38 37  1  0  0  0  0
 39 40  2  0  0  0  0
 40 38  1  0  0  0  0
 41 38  1  0  0  0  0
 41 42  1  0  0  0  0
 44 45  1  0  0  0  0
 44 43  2  0  0  0  0
M  END
>  <MODEL>
6

>  <REMARK>
 VINA RESULT:      -5.5      2.396      5.782
  Name = 
  18 active torsions:
  status: ('A' for Active; 'I' for Inactive)
    1  A    between atoms: C_1  and  C_11
    2  A    between atoms: C_1  and  N_14
    3  A    between atoms: C_3  and  C_27
    4  A    between atoms: C_3  and  C_30
    5  A    between atoms: C_3  and  C_33
    6  A    between atoms: C_7  and  C_12
    7  A    between atoms: C_7  and  N_14
    8  A    between atoms: N_10  and  C_18
    9  A    between atoms: C_12  and  N_23
   10  A    between atoms: N_14  and  C_17
   11  A    between atoms: C_15  and  C_24
   12  A    between atoms: C_15  and  C_42
   13  A    between atoms: N_16  and  C_24
   14  A    between atoms: N_16  and  C_26
   15  A    between atoms: N_16  and  C_43
   16  A    between atoms: C_18  and  C_45
   17  A    between atoms: C_38  and  O_41
   18  A    between atoms: O_41  and  C_45
                            x       y       z     vdW  Elec       q    Type
                         _______ _______ _______ _____ _____    ______ ____

>  <TORSDO>
F 18

$$$$
=
 OpenBabel10232408253D

 45 47  0  0  1  0  0  0  0  0999 V2000
  190.3810  177.2130  138.5680 C   0  0  0  0  0  2  0  0  0  0  0  0
  194.7880  175.5200  137.5140 O   0  0  0  0  0  0  0  0  0  0  0  0
  192.7080  176.4710  138.0770 C   0  0  0  0  0  2  0  0  0  0  0  0
  189.3720  175.1190  136.9190 N   0  0  0  0  0  2  0  0  0  0  0  0
  191.0620  173.1620  135.7520 C   0  0  0  0  0  1  0  0  0  0  0  0
  191.2820  175.9990  138.3630 C   0  0  2  0  0  3  0  0  0  0  0  0
  192.9970  174.0200  137.2010 C   0  0  0  0  0  2  0  0  0  0  0  0
  188.4800  176.1940  137.3500 C   0  0  2  0  0  3  0  0  0  0  0  0
  193.5820  175.3510  137.5830 C   0  0  0  0  0  0  0  0  0  0  0  0
  191.5720  174.1530  136.7440 C   0  0  0  0  0  0  0  0  0  0  0  0
  190.7610  175.0840  137.2740 C   0  0  0  0  0  0  0  0  0  0  0  0
  188.9230  176.7800  138.6900 C   0  0  2  0  0  3  0  0  0  0  0  0
  188.1070  177.9020  139.0080 O   0  0  0  0  0  0  0  0  0  0  0  0
  188.8670  178.3740  141.1410 O   0  0  0  0  0  0  0  0  0  0  0  0
  187.9140  178.3480  140.3170 C   0  0  0  0  0  0  0  0  0  0  0  0
  186.5570  178.7900  140.7380 C   0  0  0  0  0  2  0  0  0  0  0  0
  184.2240  177.8120  142.0440 O   0  0  0  0  0  0  0  0  0  0  0  0
  185.1980  178.1460  142.7690 C   0  0  0  0  0  0  0  0  0  0  0  0
  186.4130  178.6110  142.1750 N   0  0  0  0  0  2  0  0  0  0  0  0
  185.0810  178.0380  144.1920 N   0  0  0  0  0  2  0  0  0  0  0  0
  186.1050  178.4610  145.1440 C   0  0  1  0  0  3  0  0  0  0  0  0
  185.4770  178.8980  146.4560 C   0  0  0  0  0  1  0  0  0  0  0  0
  187.1220  177.3550  145.3870 C   0  0  0  0  0  2  0  0  0  0  0  0
  188.3710  177.9230  145.8960 N   0  0  0  0  0  0  0  0  0  0  0  0
  188.8490  177.2330  147.1020 C   0  0  0  0  0  2  0  0  0  0  0  0
  188.4290  177.9080  148.4050 C   0  0  0  0  0  1  0  0  0  0  0  0
  189.4130  178.0160  144.8610 C   0  0  0  0  0  2  0  0  0  0  0  0
  190.2940  176.7690  144.7470 C   0  0  0  0  0  2  0  0  0  0  0  0
  190.1530  176.1500  143.3690 C   0  0  0  0  0  1  0  0  0  0  0  0
  187.0130  175.7310  137.3810 C   0  0  1  0  0  3  0  0  0  0  0  0
  184.7130  176.2700  136.7150 N   0  0  0  0  0  2  0  0  0  0  0  0
  184.9540  177.3190  134.5790 C   0  0  0  0  0  2  0  0  0  0  0  0
  186.0590  176.8130  136.8630 C   0  0  2  0  0  3  0  0  0  0  0  0
  186.6230  177.4590  135.2500 S   0  0  0  0  0  0  0  0  0  0  0  0
  184.0300  177.1170  135.7580 C   0  0  1  0  0  3  0  0  0  0  0  0
  182.7340  176.4530  135.3240 C   0  0  0  0  0  2  0  0  0  0  0  0
  182.6800  175.0140  135.8150 C   0  0  0  0  0  2  0  0  0  0  0  0
  181.3300  174.6800  136.2390 N   0  0  0  0  0  0  0  0  0  0  0  0
  180.0210  174.7210  138.2770 C   0  0  0  0  0  2  0  0  0  0  0  0
  180.7710  175.3510  137.3780 C   0  0  0  0  0  3  0  0  0  0  0  0
  180.6550  173.5690  135.5760 C   0  0  0  0  0  2  0  0  0  0  0  0
  181.6150  172.8530  134.6380 C   0  0  0  0  0  1  0  0  0  0  0  0
  186.4360  173.3520  137.3620 C   0  0  0  0  0  2  0  0  0  0  0  0
  186.8170  174.4190  136.6750 C   0  0  0  0  0  0  0  0  0  0  0  0
  187.0500  174.3070  135.3090 O   0  0  0  0  0  1  0  0  0  0  0  0
  1 12  1  0  0  0  0
  2  9  2  0  0  0  0
  4 11  1  0  0  0  0
  4  8  1  0  0  0  0
  5 10  1  0  0  0  0
  6  3  1  6  0  0  0
  6  1  1  0  0  0  0
  7  9  1  0  0  0  0
  8 30  1  1  0  0  0
  8 12  1  0  0  0  0
  9  3  1  0  0  0  0
 10  7  1  0  0  0  0
 10 11  2  0  0  0  0
 11  6  1  0  0  0  0
 12 13  1  6  0  0  0
 13 15  1  0  0  0  0
 15 16  1  0  0  0  0
 15 14  2  0  0  0  0
 16 19  1  0  0  0  0
 17 18  2  0  0  0  0
 18 20  1  0  0  0  0
 19 18  1  0  0  0  0
 20 21  1  0  0  0  0
 21 23  1  0  0  0  0
 21 22  1  1  0  0  0
 23 24  1  0  0  0  0
 24 25  1  0  0  0  0
 25 26  1  0  0  0  0
 27 24  1  0  0  0  0
 28 27  1  0  0  0  0
 29 28  1  0  0  0  0
 30 44  1  6  0  0  0
 31 33  1  0  0  0  0
 32 34  1  0  0  0  0
 32 35  1  0  0  0  0
 33 30  1  6  0  0  0
 34 33  1  0  0  0  0
 35 36  1  6  0  0  0
 35 31  1  0  0  0  0
 36 37  1  0  0  0  0
 37 38  1  0  0  0  0
 38 40  1  0  0  0  0
 40 39  2  0  0  0  0
 41 38  1  0  0  0  0
 42 41  1  0  0  0  0
 44 43  2  0  0  0  0
 45 44  1  0  0  0  0
M  END
>  <MODEL>
7

>  <REMARK>
 VINA RESULT:      -5.5      2.733      6.714
  Name = 
  18 active torsions:
  status: ('A' for Active; 'I' for Inactive)
    1  A    between atoms: C_1  and  C_11
    2  A    between atoms: C_1  and  N_14
    3  A    between atoms: C_3  and  C_27
    4  A    between atoms: C_3  and  C_30
    5  A    between atoms: C_3  and  C_33
    6  A    between atoms: C_7  and  C_12
    7  A    between atoms: C_7  and  N_14
    8  A    between atoms: N_10  and  C_18
    9  A    between atoms: C_12  and  N_23
   10  A    between atoms: N_14  and  C_17
   11  A    between atoms: C_15  and  C_24
   12  A    between atoms: C_15  and  C_42
   13  A    between atoms: N_16  and  C_24
   14  A    between atoms: N_16  and  C_26
   15  A    between atoms: N_16  and  C_43
   16  A    between atoms: C_18  and  C_45
   17  A    between atoms: C_38  and  O_41
   18  A    between atoms: O_41  and  C_45
                            x       y       z     vdW  Elec       q    Type
                         _______ _______ _______ _____ _____    ______ ____

>  <TORSDO>
F 18

$$$$
=
 OpenBabel10232408253D

 45 47  0  0  1  0  0  0  0  0999 V2000
  189.6250  176.8160  143.8340 C   0  0  0  0  0  2  0  0  0  0  0  0
  192.6140  175.6650  147.4580 O   0  0  0  0  0  0  0  0  0  0  0  0
  191.2410  176.1360  145.6030 C   0  0  0  0  0  2  0  0  0  0  0  0
  187.8530  177.8010  145.8370 N   0  0  0  0  0  2  0  0  0  0  0  0
  188.5620  177.8710  148.5830 C   0  0  0  0  0  1  0  0  0  0  0  0
  190.2440  177.2120  145.1700 C   0  0  2  0  0  3  0  0  0  0  0  0
  190.9760  177.2900  147.9380 C   0  0  0  0  0  2  0  0  0  0  0  0
  187.3720  177.6290  144.4680 C   0  0  2  0  0  3  0  0  0  0  0  0
  191.6710  176.3110  147.0340 C   0  0  0  0  0  0  0  0  0  0  0  0
  189.5490  177.5120  147.5230 C   0  0  0  0  0  0  0  0  0  0  0  0
  189.1920  177.4660  146.2290 C   0  0  0  0  0  0  0  0  0  0  0  0
  188.5080  177.7840  143.4570 C   0  0  2  0  0  3  0  0  0  0  0  0
  188.0230  177.4850  142.1520 O   0  0  0  0  0  0  0  0  0  0  0  0
  189.8930  176.9310  140.9080 O   0  0  0  0  0  0  0  0  0  0  0  0
  188.8190  177.5830  141.0090 C   0  0  0  0  0  0  0  0  0  0  0  0
  188.3900  178.4810  139.9040 C   0  0  0  0  0  2  0  0  0  0  0  0
  188.9770  179.6280  137.3650 O   0  0  0  0  0  0  0  0  0  0  0  0
  188.6990  178.4000  137.3970 C   0  0  0  0  0  0  0  0  0  0  0  0
  188.4290  177.7540  138.6440 N   0  0  0  0  0  2  0  0  0  0  0  0
  188.6720  177.6560  136.1740 N   0  0  0  0  0  2  0  0  0  0  0  0
  188.2920  176.2490  136.0650 C   0  0  1  0  0  3  0  0  0  0  0  0
  186.8660  176.1110  135.5610 C   0  0  0  0  0  1  0  0  0  0  0  0
  189.2500  175.4890  135.1590 C   0  0  0  0  0  2  0  0  0  0  0  0
  189.9030  174.4130  135.9060 N   0  0  0  0  0  0  0  0  0  0  0  0
  190.0790  174.7460  137.3270 C   0  0  0  0  0  2  0  0  0  0  0  0
  191.4330  175.3720  137.6500 C   0  0  0  0  0  1  0  0  0  0  0  0
  189.2400  173.1120  135.7190 C   0  0  0  0  0  2  0  0  0  0  0  0
  188.2470  172.7520  136.8260 C   0  0  0  0  0  2  0  0  0  0  0  0
  186.9310  172.2960  136.2240 C   0  0  0  0  0  1  0  0  0  0  0  0
  186.1960  178.5710  144.1610 C   0  0  1  0  0  3  0  0  0  0  0  0
  185.5160  178.4140  141.8080 N   0  0  0  0  0  2  0  0  0  0  0  0
  183.1610  178.8340  141.8500 C   0  0  0  0  0  2  0  0  0  0  0  0
  185.2130  177.9550  143.1580 C   0  0  2  0  0  3  0  0  0  0  0  0
  183.4930  178.4090  143.5720 S   0  0  0  0  0  0  0  0  0  0  0  0
  184.2990  178.2590  141.0370 C   0  0  1  0  0  3  0  0  0  0  0  0
  184.4390  178.9860  139.7110 C   0  0  0  0  0  2  0  0  0  0  0  0
  183.1030  179.5680  139.2760 C   0  0  0  0  0  2  0  0  0  0  0  0
  182.5540  178.7950  138.1730 N   0  0  0  0  0  0  0  0  0  0  0  0
  183.5330  177.2810  136.5540 C   0  0  0  0  0  2  0  0  0  0  0  0
  183.1860  177.5590  137.8070 C   0  0  0  0  0  3  0  0  0  0  0  0
  181.4740  179.3840  137.3890 C   0  0  0  0  0  2  0  0  0  0  0  0
  181.0960  180.7460  137.9520 C   0  0  0  0  0  1  0  0  0  0  0  0
  185.1410  178.1650  146.3320 C   0  0  0  0  0  2  0  0  0  0  0  0
  185.5070  179.0440  145.4110 C   0  0  0  0  0  0  0  0  0  0  0  0
  185.2310  180.3930  145.6020 O   0  0  0  0  0  1  0  0  0  0  0  0
  3  9  1  0  0  0  0
  4 11  1  0  0  0  0
  6  1  1  6  0  0  0
  6  3  1  0  0  0  0
  6 11  1  0  0  0  0
  8 30  1  6  0  0  0
  8  4  1  0  0  0  0
  9  2  2  0  0  0  0
  9  7  1  0  0  0  0
 10  7  1  0  0  0  0
 10  5  1  0  0  0  0
 11 10  2  0  0  0  0
 12 13  1  6  0  0  0
 12  1  1  0  0  0  0
 12  8  1  0  0  0  0
 14 15  2  0  0  0  0
 15 13  1  0  0  0  0
 16 15  1  0  0  0  0
 17 18  2  0  0  0  0
 18 19  1  0  0  0  0
 19 16  1  0  0  0  0
 20 18  1  0  0  0  0
 21 22  1  6  0  0  0
 21 20  1  0  0  0  0
 23 24  1  0  0  0  0
 23 21  1  0  0  0  0
 24 25  1  0  0  0  0
 25 26  1  0  0  0  0
 27 24  1  0  0  0  0
 27 28  1  0  0  0  0
 29 28  1  0  0  0  0
 30 44  1  1  0  0  0
 31 33  1  0  0  0  0
 32 34  1  0  0  0  0
 33 34  1  0  0  0  0
 33 30  1  1  0  0  0
 35 36  1  6  0  0  0
 35 31  1  0  0  0  0
 35 32  1  0  0  0  0
 37 36  1  0  0  0  0
 38 37  1  0  0  0  0
 39 40  2  0  0  0  0
 40 38  1  0  0  0  0
 41 42  1  0  0  0  0
 41 38  1  0  0  0  0
 44 45  1  0  0  0  0
 44 43  2  0  0  0  0
M  END
>  <MODEL>
8

>  <REMARK>
 VINA RESULT:      -5.5      2.445      7.257
  Name = 
  18 active torsions:
  status: ('A' for Active; 'I' for Inactive)
    1  A    between atoms: C_1  and  C_11
    2  A    between atoms: C_1  and  N_14
    3  A    between atoms: C_3  and  C_27
    4  A    between atoms: C_3  and  C_30
    5  A    between atoms: C_3  and  C_33
    6  A    between atoms: C_7  and  C_12
    7  A    between atoms: C_7  and  N_14
    8  A    between atoms: N_10  and  C_18
    9  A    between atoms: C_12  and  N_23
   10  A    between atoms: N_14  and  C_17
   11  A    between atoms: C_15  and  C_24
   12  A    between atoms: C_15  and  C_42
   13  A    between atoms: N_16  and  C_24
   14  A    between atoms: N_16  and  C_26
   15  A    between atoms: N_16  and  C_43
   16  A    between atoms: C_18  and  C_45
   17  A    between atoms: C_38  and  O_41
   18  A    between atoms: O_41  and  C_45
                            x       y       z     vdW  Elec       q    Type
                         _______ _______ _______ _____ _____    ______ ____

>  <TORSDO>
F 18

$$$$
=
 OpenBabel10232408253D

 45 47  0  0  1  0  0  0  0  0999 V2000
  189.3900  176.9460  143.7400 C   0  0  0  0  0  2  0  0  0  0  0  0
  192.6040  175.5980  147.0940 O   0  0  0  0  0  0  0  0  0  0  0  0
  191.1170  176.1730  145.3600 C   0  0  0  0  0  2  0  0  0  0  0  0
  187.7210  177.7450  145.9090 N   0  0  0  0  0  2  0  0  0  0  0  0
  188.5870  177.6290  148.6070 C   0  0  0  0  0  1  0  0  0  0  0  0
  190.0790  177.2570  145.0650 C   0  0  2  0  0  3  0  0  0  0  0  0
  190.9690  177.1490  147.7860 C   0  0  0  0  0  2  0  0  0  0  0  0
  187.1640  177.6630  144.5600 C   0  0  2  0  0  3  0  0  0  0  0  0
  191.6270  176.2530  146.7730 C   0  0  0  0  0  0  0  0  0  0  0  0
  189.5170  177.3690  147.4700 C   0  0  0  0  0  0  0  0  0  0  0  0
  189.0860  177.4110  146.1980 C   0  0  0  0  0  0  0  0  0  0  0  0
  188.2360  177.9160  143.5000 C   0  0  2  0  0  3  0  0  0  0  0  0
  187.6810  177.7020  142.2060 O   0  0  0  0  0  0  0  0  0  0  0  0
  187.7310  179.5380  140.7990 O   0  0  0  0  0  0  0  0  0  0  0  0
  188.1350  178.3740  141.0700 C   0  0  0  0  0  0  0  0  0  0  0  0
  189.1020  177.6960  140.1660 C   0  0  0  0  0  2  0  0  0  0  0  0
  188.9860  179.2780  137.8010 O   0  0  0  0  0  0  0  0  0  0  0  0
  188.3810  178.1730  137.7910 C   0  0  0  0  0  0  0  0  0  0  0  0
  188.4290  177.3140  138.9330 N   0  0  0  0  0  2  0  0  0  0  0  0
  187.6600  177.7810  136.6180 N   0  0  0  0  0  2  0  0  0  0  0  0
  186.8580  176.5650  136.5040 C   0  0  1  0  0  3  0  0  0  0  0  0
  185.4390  176.8910  136.0690 C   0  0  0  0  0  1  0  0  0  0  0  0
  187.4930  175.5750  135.5370 C   0  0  0  0  0  2  0  0  0  0  0  0
  187.8530  174.3440  136.2430 N   0  0  0  0  0  0  0  0  0  0  0  0
  186.8300  173.2990  136.1000 C   0  0  0  0  0  2  0  0  0  0  0  0
  185.9580  173.1160  137.3380 C   0  0  0  0  0  1  0  0  0  0  0  0
  189.1960  173.8600  135.8860 C   0  0  0  0  0  2  0  0  0  0  0  0
  190.2090  173.9260  137.0310 C   0  0  0  0  0  2  0  0  0  0  0  0
  191.5960  173.5760  136.5270 C   0  0  0  0  0  1  0  0  0  0  0  0
  185.9560  178.6010  144.3910 C   0  0  1  0  0  3  0  0  0  0  0  0
  185.1610  178.0340  142.1390 N   0  0  0  0  0  2  0  0  0  0  0  0
  182.9160  178.8610  142.0870 C   0  0  0  0  0  2  0  0  0  0  0  0
  184.8410  177.9550  143.5600 C   0  0  2  0  0  3  0  0  0  0  0  0
  183.2430  178.7870  143.8600 S   0  0  0  0  0  0  0  0  0  0  0  0
  183.9030  177.9250  141.4270 C   0  0  1  0  0  3  0  0  0  0  0  0
  184.1100  178.2940  139.9690 C   0  0  0  0  0  2  0  0  0  0  0  0
  183.3280  179.5510  139.6200 C   0  0  0  0  0  2  0  0  0  0  0  0
  182.2980  179.2450  138.6400 N   0  0  0  0  0  0  0  0  0  0  0  0
  181.1820  181.3950  138.7010 C   0  0  0  0  0  2  0  0  0  0  0  0
  181.1260  180.0720  138.5780 C   0  0  0  0  0  3  0  0  0  0  0  0
  182.4310  178.0190  137.8600 C   0  0  0  0  0  2  0  0  0  0  0  0
  181.8250  178.2060  136.4770 C   0  0  0  0  0  1  0  0  0  0  0  0
  184.8380  178.2970  146.5470 C   0  0  0  0  0  2  0  0  0  0  0  0
  185.4520  179.1190  145.7090 C   0  0  0  0  0  0  0  0  0  0  0  0
  185.6060  180.4580  146.0500 O   0  0  0  0  0  1  0  0  0  0  0  0
  3  9  1  0  0  0  0
  4 11  1  0  0  0  0
  6  1  1  6  0  0  0
  6  3  1  0  0  0  0
  6 11  1  0  0  0  0
  8 30  1  1  0  0  0
  8  4  1  0  0  0  0
  9  2  2  0  0  0  0
  9  7  1  0  0  0  0
 10  7  1  0  0  0  0
 10  5  1  0  0  0  0
 11 10  2  0  0  0  0
 12 13  1  6  0  0  0
 12  1  1  0  0  0  0
 12  8  1  0  0  0  0
 14 15  2  0  0  0  0
 15 13  1  0  0  0  0
 16 15  1  0  0  0  0
 18 17  2  0  0  0  0
 18 19  1  0  0  0  0
 19 16  1  0  0  0  0
 20 18  1  0  0  0  0
 21 22  1  6  0  0  0
 21 20  1  0  0  0  0
 23 24  1  0  0  0  0
 23 21  1  0  0  0  0
 25 24  1  0  0  0  0
 25 26  1  0  0  0  0
 27 24  1  0  0  0  0
 27 28  1  0  0  0  0
 29 28  1  0  0  0  0
 30 44  1  1  0  0  0
 31 33  1  0  0  0  0
 32 34  1  0  0  0  0
 33 34  1  0  0  0  0
 33 30  1  1  0  0  0
 35 36  1  6  0  0  0
 35 32  1  0  0  0  0
 35 31  1  0  0  0  0
 37 36  1  0  0  0  0
 38 37  1  0  0  0  0
 40 38  1  0  0  0  0
 40 39  2  0  0  0  0
 41 38  1  0  0  0  0
 42 41  1  0  0  0  0
 44 45  1  0  0  0  0
 44 43  2  0  0  0  0
M  END
>  <MODEL>
9

>  <REMARK>
 VINA RESULT:      -5.4      2.493      7.395
  Name = 
  18 active torsions:
  status: ('A' for Active; 'I' for Inactive)
    1  A    between atoms: C_1  and  C_11
    2  A    between atoms: C_1  and  N_14
    3  A    between atoms: C_3  and  C_27
    4  A    between atoms: C_3  and  C_30
    5  A    between atoms: C_3  and  C_33
    6  A    between atoms: C_7  and  C_12
    7  A    between atoms: C_7  and  N_14
    8  A    between atoms: N_10  and  C_18
    9  A    between atoms: C_12  and  N_23
   10  A    between atoms: N_14  and  C_17
   11  A    between atoms: C_15  and  C_24
   12  A    between atoms: C_15  and  C_42
   13  A    between atoms: N_16  and  C_24
   14  A    between atoms: N_16  and  C_26
   15  A    between atoms: N_16  and  C_43
   16  A    between atoms: C_18  and  C_45
   17  A    between atoms: C_38  and  O_41
   18  A    between atoms: O_41  and  C_45
                            x       y       z     vdW  Elec       q    Type
                         _______ _______ _______ _____ _____    ______ ____

>  <TORSDO>
F 18

$$$$
