=
 OpenBabel10232412073D

 66 77  0  0  1  0  0  0  0  0999 V2000
  192.2830  174.3310  137.1890 C   0  0  0  0  0  2  0  0  0  0  0  0
  187.7760  177.9090  136.8500 N   0  0  0  0  0  0  0  0  0  0  0  0
  191.2370  174.8130  135.0240 C   0  0  0  0  0  2  0  0  0  0  0  0
  184.8270  174.8200  137.0750 C   0  0  0  0  0  3  0  0  0  0  0  0
  188.7990  173.8130  135.9640 C   0  0  0  0  0  2  0  0  0  0  0  0
  189.1910  177.5560  136.7370 C   0  0  2  0  0  3  0  0  0  0  0  0
  192.4370  173.0240  136.5190 N   0  0  0  0  0  0  0  0  0  0  0  0
  188.4610  175.2670  136.1730 C   0  0  2  0  0  3  0  0  0  0  0  0
  186.1160  174.5270  136.9190 C   0  0  0  0  0  3  0  0  0  0  0  0
  189.3900  176.2480  136.0180 C   0  0  2  0  0  3  0  0  0  0  0  0
  189.9740  173.4240  136.8680 C   0  0  0  0  0  2  0  0  0  0  0  0
  186.7700  176.8880  136.9610 C   0  0  0  0  0  0  0  0  0  0  0  0
  191.2760  173.8950  136.2440 C   0  0  1  0  0  0  0  0  0  0  0  0
  187.1130  175.6010  136.7150 C   0  0  0  0  0  0  0  0  0  0  0  0
  184.3550  176.2390  136.9380 C   0  0  2  0  0  3  0  0  0  0  0  0
  187.4410  179.3040  137.0810 C   0  0  0  0  0  1  0  0  0  0  0  0
  190.6320  176.0610  135.3700 O   0  0  0  0  0  0  0  0  0  0  0  0
  185.3950  177.2170  137.4920 C   0  0  0  0  0  2  0  0  0  0  0  0
  192.6360  177.1220  140.3990 C   0  0  0  0  0  3  0  0  0  0  0  0
  191.4730  177.1860  139.6470 C   0  0  0  0  0  0  0  0  0  0  0  0
  192.2170  177.4910  141.6880 C   0  0  0  0  0  3  0  0  0  0  0  0
  189.0640  177.9130  139.5660 S   0  0  0  0  0  0  0  0  0  0  0  0
  191.1570  177.0530  138.3120 C   0  0  0  0  0  3  0  0  0  0  0  0
  190.4710  177.5920  140.4250 C   0  0  0  0  0  0  0  0  0  0  0  0
  189.8090  177.4170  138.0990 C   0  0  0  0  0  0  0  0  0  0  0  0
  190.8860  177.7830  141.6800 N   0  0  0  0  0  0  0  0  0  0  0  0
  189.1740  177.0880  143.2600 C   0  0  0  0  0  0  0  0  0  0  0  0
  189.2240  176.6440  144.6900 C   0  0  0  0  0  2  0  0  0  0  0  0
  188.3200  176.5260  142.4140 C   0  0  0  0  0  2  0  0  0  0  0  0
  191.4140  178.0700  144.8780 C   0  0  1  0  0  3  0  0  0  0  0  0
  190.6450  176.7800  145.2530 C   0  0  1  0  0  3  0  0  0  0  0  0
  190.6730  178.9340  143.8450 C   0  0  0  0  0  2  0  0  0  0  0  0
  190.1040  178.0830  142.8060 N   0  0  0  0  0  0  0  0  0  0  0  0
  190.6500  177.9750  146.1900 C   0  0  0  0  0  2  0  0  0  0  0  0
  182.0110  176.5250  136.8640 O   0  0  0  0  0  0  0  0  0  0  0  0
  183.0100  176.4250  137.5580 C   0  0  0  0  0  0  0  0  0  0  0  0
  182.9090  176.5350  139.0420 C   0  0  0  0  0  2  0  0  0  0  0  0
  182.7140  177.9820  139.4550 C   0  0  0  0  0  2  0  0  0  0  0  0
  183.3800  178.6230  141.7950 C   0  0  1  0  0  3  0  0  0  0  0  0
  182.2670  178.0620  140.9030 C   0  0  1  0  0  3  0  0  0  0  0  0
  180.6590  179.3030  142.2770 C   0  0  0  0  0  3  0  0  0  0  0  0
  182.8640  178.8770  143.1510 N   0  0  0  0  0  0  0  0  0  0  0  0
  183.2630  179.1000  145.4470 O   0  0  0  0  0  0  0  0  0  0  0  0
  181.4950  179.2860  143.3160 C   0  0  0  0  0  3  0  0  0  0  0  0
  184.4550  177.7210  141.8280 O   0  0  0  0  0  1  0  0  0  0  0  0
  181.0930  178.8600  141.0260 O   0  0  0  0  0  0  0  0  0  0  0  0
  183.7450  178.9920  144.2840 C   0  0  0  0  0  0  0  0  0  0  0  0
  185.1310  178.9950  144.0950 O   0  0  0  0  0  0  0  0  0  0  0  0
  186.0220  178.4850  145.0660 C   0  0  0  0  0  1  0  0  0  0  0  0
  193.3810  173.1690  135.4780 N   0  0  0  0  0  2  0  0  0  0  0  0
  196.5200  172.8850  134.7700 O   0  0  0  0  0  0  0  0  0  0  0  0
  195.1260  170.2290  136.5500 N   0  0  0  0  0  0  0  0  0  0  0  0
  193.3490  171.9600  134.6660 C   0  0  1  0  0  3  0  0  0  0  0  0
  196.0500  171.3610  136.5510 C   0  0  2  0  0  3  0  0  0  0  0  0
  194.7360  171.3220  134.4440 C   0  0  1  0  0  3  0  0  0  0  0  0
  192.9570  170.7860  135.5580 C   0  0  1  0  0  3  0  0  0  0  0  0
  195.8670  171.9480  135.2010 C   0  0  0  0  0  0  0  0  0  0  0  0
  198.6110  171.8410  136.6470 C   0  0  0  0  0  1  0  0  0  0  0  0
  197.6610  169.8170  137.6000 C   0  0  0  0  0  3  0  0  0  0  0  0
  197.4600  170.9260  136.8810 C   0  0  0  0  0  0  0  0  0  0  0  0
  191.9730  170.0240  134.9250 O   0  0  0  0  0  1  0  0  0  0  0  0
  195.3330  169.1040  137.4180 C   0  0  0  0  0  0  0  0  0  0  0  0
  194.3160  170.1480  135.3330 C   0  0  2  0  0  3  0  0  0  0  0  0
  196.5540  168.9010  137.9280 C   0  0  0  0  0  3  0  0  0  0  0  0
  193.9260  168.1870  139.0790 O   0  0  0  0  0  1  0  0  0  0  0  0
  194.2240  168.1470  137.7180 C   0  0  0  0  0  2  0  0  0  0  0  0
  2 12  1  0  0  0  0
  2 16  1  0  0  0  0
  3 17  1  0  0  0  0
  5 11  1  0  0  0  0
  6  2  1  0  0  0  0
  6 25  1  1  0  0  0
  7  1  1  0  0  0  0
  8  5  1  1  0  0  0
  8 14  1  0  0  0  0
  9  4  2  0  0  0  0
 10 17  1  1  0  0  0
 10  8  1  0  0  0  0
 10  6  1  0  0  0  0
 12 18  1  0  0  0  0
 13  3  1  6  0  0  0
 13  7  1  0  0  0  0
 13 11  1  0  0  0  0
 13  1  1  0  0  0  0
 14  9  1  0  0  0  0
 14 12  2  0  0  0  0
 15  4  1  0  0  0  0
 15 18  1  0  0  0  0
 15 36  1  1  0  0  0
 19 21  2  0  0  0  0
 20 19  1  0  0  0  0
 20 24  2  0  0  0  0
 22 24  1  0  0  0  0
 23 20  1  0  0  0  0
 24 26  1  0  0  0  0
 25 23  2  0  0  0  0
 25 22  1  0  0  0  0
 26 21  1  0  0  0  0
 26 33  1  0  0  0  0
 27 28  1  0  0  0  0
 29 27  2  0  0  0  0
 30 32  1  6  0  0  0
 30 31  1  0  0  0  0
 30 34  1  0  0  0  0
 31 28  1  6  0  0  0
 31 34  1  0  0  0  0
 33 27  1  0  0  0  0
 33 32  1  0  0  0  0
 35 36  2  0  0  0  0
 36 37  1  0  0  0  0
 37 38  1  0  0  0  0
 39 45  1  1  0  0  0
 39 42  1  0  0  0  0
 40 38  1  6  0  0  0
 40 46  1  0  0  0  0
 40 39  1  0  0  0  0
 41 44  2  0  0  0  0
 42 44  1  0  0  0  0
 42 47  1  0  0  0  0
 46 41  1  0  0  0  0
 47 43  2  0  0  0  0
 48 47  1  0  0  0  0
 48 49  1  0  0  0  0
 50  7  1  0  0  0  0
 51 57  2  0  0  0  0
 52 54  1  0  0  0  0
 52 62  1  0  0  0  0
 53 50  1  1  0  0  0
 53 56  1  0  0  0  0
 54 57  1  6  0  0  0
 54 60  1  0  0  0  0
 55 53  1  0  0  0  0
 55 57  1  1  0  0  0
 55 63  1  0  0  0  0
 56 61  1  6  0  0  0
 58 60  1  0  0  0  0
 59 64  1  0  0  0  0
 60 59  2  0  0  0  0
 62 66  1  0  0  0  0
 62 64  2  0  0  0  0
 63 56  1  0  0  0  0
 63 52  1  1  0  0  0
 66 65  1  0  0  0  0
M  END
>  <MODEL>
1

>  <REMARK>
 VINA RESULT:      -8.9      0.000      0.000
  Name = 
  10 active torsions:
  status: ('A' for Active; 'I' for Inactive)
    1  A    between atoms: C_6  and  C_30
    2  A    between atoms: C_6  and  C_51
    3  A    between atoms: O_13  and  C_65
    4  A    between atoms: C_15  and  C_54
    5  A    between atoms: C_17  and  N_60
    6  A    between atoms: N_21  and  N_60
    7  A    between atoms: C_27  and  C_51
    8  A    between atoms: C_30  and  C_56
    9  A    between atoms: N_39  and  N_62
   10  A    between atoms: C_53  and  C_55
                            x       y       z     vdW  Elec       q    Type
                         _______ _______ _______ _____ _____    ______ ____

>  <TORSDO>
F 10

$$$$
=
 OpenBabel10232412073D

 66 77  0  0  1  0  0  0  0  0999 V2000
  192.7310  175.1800  137.6560 C   0  0  0  0  0  2  0  0  0  0  0  0
  187.4290  177.3990  137.2090 N   0  0  0  0  0  0  0  0  0  0  0  0
  191.7220  175.5580  135.4530 C   0  0  0  0  0  2  0  0  0  0  0  0
  185.4570  173.6130  136.9600 C   0  0  0  0  0  3  0  0  0  0  0  0
  189.6110  173.8430  136.1110 C   0  0  0  0  0  2  0  0  0  0  0  0
  188.8910  177.4600  137.1880 C   0  0  2  0  0  3  0  0  0  0  0  0
  193.2850  174.0350  136.9060 N   0  0  0  0  0  0  0  0  0  0  0  0
  188.8670  175.1230  136.3980 C   0  0  2  0  0  3  0  0  0  0  0  0
  186.7840  173.7010  136.8910 C   0  0  0  0  0  3  0  0  0  0  0  0
  189.4910  176.3300  136.3940 C   0  0  2  0  0  3  0  0  0  0  0  0
  190.7920  173.7090  137.0780 C   0  0  0  0  0  2  0  0  0  0  0  0
  186.7460  176.1360  137.1610 C   0  0  0  0  0  0  0  0  0  0  0  0
  191.9450  174.5760  136.6010 C   0  0  1  0  0  0  0  0  0  0  0  0
  187.4500  175.0220  136.8490 C   0  0  0  0  0  0  0  0  0  0  0  0
  184.6150  174.8540  136.8890 C   0  0  2  0  0  3  0  0  0  0  0  0
  186.7040  178.6210  137.5140 C   0  0  0  0  0  1  0  0  0  0  0  0
  190.7720  176.5540  135.8390 O   0  0  0  0  0  0  0  0  0  0  0  0
  185.3050  176.0240  137.5990 C   0  0  0  0  0  2  0  0  0  0  0  0
  192.1490  177.0740  141.0230 C   0  0  0  0  0  3  0  0  0  0  0  0
  191.0240  177.1490  140.2160 C   0  0  0  0  0  0  0  0  0  0  0  0
  191.6910  177.5320  142.2700 C   0  0  0  0  0  3  0  0  0  0  0  0
  188.6580  177.9790  139.9850 S   0  0  0  0  0  0  0  0  0  0  0  0
  190.7600  176.9570  138.8770 C   0  0  0  0  0  3  0  0  0  0  0  0
  190.0090  177.6420  140.9240 C   0  0  0  0  0  0  0  0  0  0  0  0
  189.4420  177.3690  138.5830 C   0  0  0  0  0  0  0  0  0  0  0  0
  190.3780  177.8830  142.1850 N   0  0  0  0  0  0  0  0  0  0  0  0
  188.3710  177.5190  143.5090 C   0  0  0  0  0  0  0  0  0  0  0  0
  188.1390  176.9630  144.8800 C   0  0  0  0  0  2  0  0  0  0  0  0
  187.5140  177.2630  142.5280 C   0  0  0  0  0  2  0  0  0  0  0  0
  190.5710  177.7670  145.4310 C   0  0  1  0  0  3  0  0  0  0  0  0
  189.4720  176.6890  145.5890 C   0  0  1  0  0  3  0  0  0  0  0  0
  190.1920  178.8710  144.4320 C   0  0  0  0  0  2  0  0  0  0  0  0
  189.5620  178.2790  143.2560 N   0  0  0  0  0  0  0  0  0  0  0  0
  189.6550  177.7640  146.6450 C   0  0  0  0  0  2  0  0  0  0  0  0
  182.5380  173.7290  136.9250 O   0  0  0  0  0  0  0  0  0  0  0  0
  183.2380  174.6050  137.4080 C   0  0  0  0  0  0  0  0  0  0  0  0
  182.7090  175.4760  138.4980 C   0  0  0  0  0  2  0  0  0  0  0  0
  181.2080  175.6440  138.3610 C   0  0  0  0  0  2  0  0  0  0  0  0
  180.9250  177.4110  140.1300 C   0  0  1  0  0  3  0  0  0  0  0  0
  180.8110  177.0820  138.6370 C   0  0  1  0  0  3  0  0  0  0  0  0
  181.6200  179.3480  138.1650 C   0  0  0  0  0  3  0  0  0  0  0  0
  180.7290  178.8540  140.3490 N   0  0  0  0  0  0  0  0  0  0  0  0
  180.0940  180.6060  141.7660 O   0  0  0  0  0  0  0  0  0  0  0  0
  181.1670  179.7830  139.3430 C   0  0  0  0  0  3  0  0  0  0  0  0
  179.9820  176.6600  140.8500 O   0  0  0  0  0  1  0  0  0  0  0  0
  181.6110  177.9830  137.8750 O   0  0  0  0  0  0  0  0  0  0  0  0
  180.3620  179.3780  141.6390 C   0  0  0  0  0  0  0  0  0  0  0  0
  180.3140  178.5300  142.7500 O   0  0  0  0  0  0  0  0  0  0  0  0
  181.1030  178.7560  143.9010 C   0  0  0  0  0  1  0  0  0  0  0  0
  194.2110  174.5300  135.9610 N   0  0  0  0  0  2  0  0  0  0  0  0
  197.2980  175.0350  135.1550 O   0  0  0  0  0  0  0  0  0  0  0  0
  196.5510  171.8470  136.3560 N   0  0  0  0  0  0  0  0  0  0  0  0
  194.3660  173.5310  134.9110 C   0  0  1  0  0  3  0  0  0  0  0  0
  197.2360  173.1170  136.5810 C   0  0  2  0  0  3  0  0  0  0  0  0
  195.8340  173.2450  134.5370 C   0  0  1  0  0  3  0  0  0  0  0  0
  194.2610  172.1450  135.5420 C   0  0  1  0  0  3  0  0  0  0  0  0
  196.8640  173.9180  135.3890 C   0  0  0  0  0  0  0  0  0  0  0  0
  199.6570  174.0740  136.7340 C   0  0  0  0  0  1  0  0  0  0  0  0
  199.1750  171.7480  137.2530 C   0  0  0  0  0  3  0  0  0  0  0  0
  198.7210  172.9170  136.7880 C   0  0  0  0  0  0  0  0  0  0  0  0
  193.4070  171.3470  134.7780 O   0  0  0  0  0  1  0  0  0  0  0  0
  197.0220  170.6340  136.9640 C   0  0  0  0  0  0  0  0  0  0  0  0
  195.7020  171.8540  135.1640 C   0  0  2  0  0  3  0  0  0  0  0  0
  198.2870  170.5810  137.3980 C   0  0  0  0  0  3  0  0  0  0  0  0
  195.9890  169.0810  138.4130 O   0  0  0  0  0  1  0  0  0  0  0  0
  196.1390  169.4320  137.0730 C   0  0  0  0  0  2  0  0  0  0  0  0
  2 16  1  0  0  0  0
  3 17  1  0  0  0  0
  5 11  1  0  0  0  0
  6  2  1  0  0  0  0
  6 25  1  1  0  0  0
  7  1  1  0  0  0  0
  8  5  1  1  0  0  0
  8 14  1  0  0  0  0
  9  4  2  0  0  0  0
 10 17  1  1  0  0  0
 10  8  1  0  0  0  0
 10  6  1  0  0  0  0
 12  2  1  0  0  0  0
 12 18  1  0  0  0  0
 13  3  1  6  0  0  0
 13  7  1  0  0  0  0
 13 11  1  0  0  0  0
 13  1  1  0  0  0  0
 14  9  1  0  0  0  0
 14 12  2  0  0  0  0
 15  4  1  0  0  0  0
 15 36  1  1  0  0  0
 15 18  1  0  0  0  0
 19 21  2  0  0  0  0
 20 24  2  0  0  0  0
 20 19  1  0  0  0  0
 22 24  1  0  0  0  0
 23 20  1  0  0  0  0
 24 26  1  0  0  0  0
 25 23  2  0  0  0  0
 25 22  1  0  0  0  0
 26 21  1  0  0  0  0
 26 33  1  0  0  0  0
 27 28  1  0  0  0  0
 29 27  2  0  0  0  0
 30 32  1  6  0  0  0
 30 31  1  0  0  0  0
 30 34  1  0  0  0  0
 31 28  1  6  0  0  0
 31 34  1  0  0  0  0
 33 27  1  0  0  0  0
 33 32  1  0  0  0  0
 35 36  2  0  0  0  0
 36 37  1  0  0  0  0
 38 37  1  0  0  0  0
 39 42  1  0  0  0  0
 39 45  1  1  0  0  0
 40 38  1  1  0  0  0
 40 39  1  0  0  0  0
 41 44  2  0  0  0  0
 42 47  1  0  0  0  0
 44 42  1  0  0  0  0
 46 41  1  0  0  0  0
 46 40  1  0  0  0  0
 47 43  2  0  0  0  0
 47 48  1  0  0  0  0
 48 49  1  0  0  0  0
 50  7  1  0  0  0  0
 51 57  2  0  0  0  0
 52 54  1  0  0  0  0
 52 62  1  0  0  0  0
 53 56  1  0  0  0  0
 53 50  1  1  0  0  0
 54 57  1  6  0  0  0
 54 60  1  0  0  0  0
 55 53  1  0  0  0  0
 55 63  1  0  0  0  0
 55 57  1  1  0  0  0
 56 61  1  6  0  0  0
 58 60  1  0  0  0  0
 59 64  1  0  0  0  0
 60 59  2  0  0  0  0
 62 66  1  0  0  0  0
 62 64  2  0  0  0  0
 63 56  1  0  0  0  0
 63 52  1  1  0  0  0
 66 65  1  0  0  0  0
M  END
>  <MODEL>
2

>  <REMARK>
 VINA RESULT:      -7.9      1.669      2.229
  Name = 
  10 active torsions:
  status: ('A' for Active; 'I' for Inactive)
    1  A    between atoms: C_6  and  C_30
    2  A    between atoms: C_6  and  C_51
    3  A    between atoms: O_13  and  C_65
    4  A    between atoms: C_15  and  C_54
    5  A    between atoms: C_17  and  N_60
    6  A    between atoms: N_21  and  N_60
    7  A    between atoms: C_27  and  C_51
    8  A    between atoms: C_30  and  C_56
    9  A    between atoms: N_39  and  N_62
   10  A    between atoms: C_53  and  C_55
                            x       y       z     vdW  Elec       q    Type
                         _______ _______ _______ _____ _____    ______ ____

>  <TORSDO>
F 10

$$$$
=
 OpenBabel10232412073D

 66 77  0  0  1  0  0  0  0  0999 V2000
  192.0580  175.6080  137.7100 C   0  0  0  0  0  2  0  0  0  0  0  0
  186.6980  176.3910  135.7390 N   0  0  0  0  0  0  0  0  0  0  0  0
  191.5170  175.1520  135.3620 C   0  0  0  0  0  2  0  0  0  0  0  0
  185.4820  172.3340  136.3350 C   0  0  0  0  0  3  0  0  0  0  0  0
  189.6250  173.2490  136.1530 C   0  0  0  0  0  2  0  0  0  0  0  0
  188.0970  176.7680  135.9410 C   0  0  2  0  0  3  0  0  0  0  0  0
  192.9460  174.4570  137.4480 N   0  0  0  0  0  0  0  0  0  0  0  0
  188.6350  174.3600  135.9090 C   0  0  2  0  0  3  0  0  0  0  0  0
  186.7580  172.6940  136.4620 C   0  0  0  0  0  3  0  0  0  0  0  0
  189.0360  175.6300  135.6410 C   0  0  2  0  0  3  0  0  0  0  0  0
  190.5660  173.6420  137.2960 C   0  0  0  0  0  2  0  0  0  0  0  0
  186.2600  175.0410  135.9660 C   0  0  0  0  0  0  0  0  0  0  0  0
  191.6370  174.5850  136.7750 C   0  0  1  0  0  0  0  0  0  0  0  0
  187.1890  174.0700  136.1300 C   0  0  0  0  0  0  0  0  0  0  0  0
  184.4840  173.2930  135.7500 C   0  0  2  0  0  3  0  0  0  0  0  0
  185.7320  177.4560  135.5320 C   0  0  0  0  0  1  0  0  0  0  0  0
  190.3540  175.9770  135.2630 O   0  0  0  0  0  0  0  0  0  0  0  0
  184.7960  174.7320  136.1730 C   0  0  0  0  0  2  0  0  0  0  0  0
  187.3840  178.7880  140.5110 C   0  0  0  0  0  3  0  0  0  0  0  0
  187.8900  178.1720  139.3760 C   0  0  0  0  0  0  0  0  0  0  0  0
  188.1560  178.2460  141.5530 C   0  0  0  0  0  3  0  0  0  0  0  0
  189.3790  176.3610  138.4590 S   0  0  0  0  0  0  0  0  0  0  0  0
  187.5580  178.1490  138.0390 C   0  0  0  0  0  3  0  0  0  0  0  0
  188.8490  177.3190  139.7330 C   0  0  0  0  0  0  0  0  0  0  0  0
  188.3300  177.1750  137.3690 C   0  0  0  0  0  0  0  0  0  0  0  0
  189.0430  177.3410  141.0540 N   0  0  0  0  0  0  0  0  0  0  0  0
  191.3460  177.2880  141.8310 C   0  0  0  0  0  0  0  0  0  0  0  0
  191.9820  177.5480  143.1630 C   0  0  0  0  0  2  0  0  0  0  0  0
  191.9560  177.6640  140.7130 C   0  0  0  0  0  2  0  0  0  0  0  0
  189.6850  176.8400  144.2050 C   0  0  1  0  0  3  0  0  0  0  0  0
  190.9130  177.7810  144.2390 C   0  0  1  0  0  3  0  0  0  0  0  0
  189.6610  175.9250  142.9700 C   0  0  0  0  0  2  0  0  0  0  0  0
  190.0450  176.6840  141.7850 N   0  0  0  0  0  0  0  0  0  0  0  0
  190.8680  176.5380  145.1110 C   0  0  0  0  0  2  0  0  0  0  0  0
  182.4390  172.1910  135.3240 O   0  0  0  0  0  0  0  0  0  0  0  0
  183.0870  172.8910  136.0850 C   0  0  0  0  0  0  0  0  0  0  0  0
  182.4730  173.3970  137.3480 C   0  0  0  0  0  2  0  0  0  0  0  0
  181.0940  173.9670  137.0760 C   0  0  0  0  0  2  0  0  0  0  0  0
  181.9870  175.9650  138.3190 C   0  0  1  0  0  3  0  0  0  0  0  0
  181.1270  175.4830  137.1440 C   0  0  1  0  0  3  0  0  0  0  0  0
  181.9920  177.3750  135.8470 C   0  0  0  0  0  3  0  0  0  0  0  0
  182.1680  177.4250  138.2500 N   0  0  0  0  0  0  0  0  0  0  0  0
  182.5880  179.4540  139.3390 O   0  0  0  0  0  0  0  0  0  0  0  0
  182.2310  178.0650  136.9640 C   0  0  0  0  0  3  0  0  0  0  0  0
  181.3820  175.5900  139.5280 O   0  0  0  0  0  1  0  0  0  0  0  0
  181.6140  176.0330  135.9230 O   0  0  0  0  0  0  0  0  0  0  0  0
  182.5490  178.1930  139.4060 C   0  0  0  0  0  0  0  0  0  0  0  0
  182.8870  177.5420  140.5970 O   0  0  0  0  0  0  0  0  0  0  0  0
  183.8710  178.0490  141.4770 C   0  0  0  0  0  1  0  0  0  0  0  0
  193.9640  174.8760  136.5620 N   0  0  0  0  0  2  0  0  0  0  0  0
  196.9030  175.5570  135.4080 O   0  0  0  0  0  0  0  0  0  0  0  0
  196.4530  172.3000  136.5710 N   0  0  0  0  0  0  0  0  0  0  0  0
  194.0340  173.9200  135.4650 C   0  0  1  0  0  3  0  0  0  0  0  0
  197.1040  173.5940  136.7580 C   0  0  2  0  0  3  0  0  0  0  0  0
  195.4560  173.7180  134.9050 C   0  0  1  0  0  3  0  0  0  0  0  0
  194.0690  172.5110  136.0520 C   0  0  1  0  0  3  0  0  0  0  0  0
  196.5520  174.4140  135.6510 C   0  0  0  0  0  0  0  0  0  0  0  0
  199.4800  174.6630  136.6510 C   0  0  0  0  0  1  0  0  0  0  0  0
  199.1690  172.3010  137.1380 C   0  0  0  0  0  3  0  0  0  0  0  0
  198.6100  173.4610  136.7760 C   0  0  0  0  0  0  0  0  0  0  0  0
  193.1650  171.6960  135.3680 O   0  0  0  0  0  1  0  0  0  0  0  0
  197.0490  171.0920  137.0710 C   0  0  0  0  0  0  0  0  0  0  0  0
  195.4650  172.3030  135.4910 C   0  0  2  0  0  3  0  0  0  0  0  0
  198.3590  171.0880  137.3460 C   0  0  0  0  0  3  0  0  0  0  0  0
  195.3460  170.0100  138.2970 O   0  0  0  0  0  1  0  0  0  0  0  0
  196.2410  169.8460  137.2410 C   0  0  0  0  0  2  0  0  0  0  0  0
  2  6  1  0  0  0  0
  2 12  1  0  0  0  0
  4  9  2  0  0  0  0
  5 11  1  0  0  0  0
  6 25  1  1  0  0  0
  7  1  1  0  0  0  0
  8 14  1  0  0  0  0
  8  5  1  1  0  0  0
 10 17  1  1  0  0  0
 10  8  1  0  0  0  0
 10  6  1  0  0  0  0
 12 14  2  0  0  0  0
 12 18  1  0  0  0  0
 13  3  1  6  0  0  0
 13 11  1  0  0  0  0
 13  7  1  0  0  0  0
 13  1  1  0  0  0  0
 14  9  1  0  0  0  0
 15 36  1  1  0  0  0
 15 18  1  0  0  0  0
 15  4  1  0  0  0  0
 16  2  1  0  0  0  0
 17  3  1  0  0  0  0
 19 21  2  0  0  0  0
 20 24  2  0  0  0  0
 20 19  1  0  0  0  0
 22 24  1  0  0  0  0
 23 20  1  0  0  0  0
 24 26  1  0  0  0  0
 25 23  2  0  0  0  0
 25 22  1  0  0  0  0
 26 21  1  0  0  0  0
 26 33  1  0  0  0  0
 27 28  1  0  0  0  0
 29 27  2  0  0  0  0
 30 32  1  6  0  0  0
 30 31  1  0  0  0  0
 30 34  1  0  0  0  0
 31 28  1  6  0  0  0
 31 34  1  0  0  0  0
 33 27  1  0  0  0  0
 33 32  1  0  0  0  0
 35 36  2  0  0  0  0
 36 37  1  0  0  0  0
 38 37  1  0  0  0  0
 39 45  1  1  0  0  0
 40 38  1  6  0  0  0
 40 39  1  0  0  0  0
 41 46  1  0  0  0  0
 41 44  2  0  0  0  0
 42 39  1  0  0  0  0
 42 47  1  0  0  0  0
 43 47  2  0  0  0  0
 44 42  1  0  0  0  0
 46 40  1  0  0  0  0
 47 48  1  0  0  0  0
 48 49  1  0  0  0  0
 50  7  1  0  0  0  0
 51 57  2  0  0  0  0
 52 54  1  0  0  0  0
 52 62  1  0  0  0  0
 53 56  1  0  0  0  0
 53 50  1  1  0  0  0
 54 57  1  6  0  0  0
 54 60  1  0  0  0  0
 55 53  1  0  0  0  0
 55 63  1  0  0  0  0
 55 57  1  1  0  0  0
 56 61  1  6  0  0  0
 58 60  1  0  0  0  0
 59 64  1  0  0  0  0
 60 59  2  0  0  0  0
 62 66  1  0  0  0  0
 62 64  2  0  0  0  0
 63 56  1  0  0  0  0
 63 52  1  1  0  0  0
 66 65  1  0  0  0  0
M  END
>  <MODEL>
3

>  <REMARK>
 VINA RESULT:      -7.4      1.970      3.276
  Name = 
  10 active torsions:
  status: ('A' for Active; 'I' for Inactive)
    1  A    between atoms: C_6  and  C_30
    2  A    between atoms: C_6  and  C_51
    3  A    between atoms: O_13  and  C_65
    4  A    between atoms: C_15  and  C_54
    5  A    between atoms: C_17  and  N_60
    6  A    between atoms: N_21  and  N_60
    7  A    between atoms: C_27  and  C_51
    8  A    between atoms: C_30  and  C_56
    9  A    between atoms: N_39  and  N_62
   10  A    between atoms: C_53  and  C_55
                            x       y       z     vdW  Elec       q    Type
                         _______ _______ _______ _____ _____    ______ ____

>  <TORSDO>
F 10

$$$$
=
 OpenBabel10232412073D

 66 77  0  0  1  0  0  0  0  0999 V2000
  184.2400  176.0230  135.4620 C   0  0  0  0  0  2  0  0  0  0  0  0
  189.8830  176.7550  136.3830 N   0  0  0  0  0  0  0  0  0  0  0  0
  185.2680  178.2330  135.1920 C   0  0  0  0  0  2  0  0  0  0  0  0
  189.4450  177.9580  140.4630 C   0  0  0  0  0  3  0  0  0  0  0  0
  186.0950  178.1900  137.8650 C   0  0  0  0  0  2  0  0  0  0  0  0
  188.6960  176.5700  135.5480 C   0  0  2  0  0  3  0  0  0  0  0  0
  183.1400  176.8900  135.9290 N   0  0  0  0  0  0  0  0  0  0  0  0
  187.4230  177.7730  137.2850 C   0  0  2  0  0  3  0  0  0  0  0  0
  188.3850  177.8330  139.6670 C   0  0  0  0  0  3  0  0  0  0  0  0
  187.5660  177.4710  135.9680 C   0  0  2  0  0  3  0  0  0  0  0  0
  185.0440  177.1150  137.5640 C   0  0  0  0  0  2  0  0  0  0  0  0
  189.7590  177.1260  137.7660 C   0  0  0  0  0  0  0  0  0  0  0  0
  184.5530  177.2660  136.1340 C   0  0  1  0  0  0  0  0  0  0  0  0
  188.5550  177.5410  138.2270 C   0  0  0  0  0  0  0  0  0  0  0  0
  190.8310  177.9110  139.8850 C   0  0  2  0  0  3  0  0  0  0  0  0
  191.1640  176.3290  135.8440 C   0  0  0  0  0  1  0  0  0  0  0  0
  186.6140  177.8000  134.9760 O   0  0  0  0  0  0  0  0  0  0  0  0
  190.9050  176.9120  138.7260 C   0  0  0  0  0  2  0  0  0  0  0  0
  187.5900  172.0130  137.4140 C   0  0  0  0  0  3  0  0  0  0  0  0
  187.7940  173.1240  136.6100 C   0  0  0  0  0  0  0  0  0  0  0  0
  186.5900  171.2940  136.7360 C   0  0  0  0  0  3  0  0  0  0  0  0
  186.9710  174.4790  134.6540 S   0  0  0  0  0  0  0  0  0  0  0  0
  188.5400  174.2790  136.7000 C   0  0  0  0  0  3  0  0  0  0  0  0
  186.9590  173.0730  135.5730 C   0  0  0  0  0  0  0  0  0  0  0  0
  188.2000  175.1540  135.6460 C   0  0  0  0  0  0  0  0  0  0  0  0
  186.2120  171.9670  135.6140 N   0  0  0  0  0  0  0  0  0  0  0  0
  185.1720  170.0790  134.4870 C   0  0  0  0  0  0  0  0  0  0  0  0
  183.8020  169.4770  134.5560 C   0  0  0  0  0  2  0  0  0  0  0  0
  186.2390  169.3020  134.3470 C   0  0  0  0  0  2  0  0  0  0  0  0
  182.9780  171.8590  135.2710 C   0  0  1  0  0  3  0  0  0  0  0  0
  182.8790  170.3250  135.4430 C   0  0  1  0  0  3  0  0  0  0  0  0
  184.1270  172.2900  134.3460 C   0  0  0  0  0  2  0  0  0  0  0  0
  185.3190  171.4990  134.6370 N   0  0  0  0  0  0  0  0  0  0  0  0
  181.9190  171.0620  134.5260 C   0  0  0  0  0  2  0  0  0  0  0  0
  192.9020  177.0840  140.6640 O   0  0  0  0  0  0  0  0  0  0  0  0
  191.8490  177.6350  140.9410 C   0  0  0  0  0  0  0  0  0  0  0  0
  191.5400  178.0020  142.3540 C   0  0  0  0  0  2  0  0  0  0  0  0
  191.1470  176.7690  143.1470 C   0  0  0  0  0  2  0  0  0  0  0  0
  189.3910  177.0620  144.9260 C   0  0  1  0  0  3  0  0  0  0  0  0
  190.8870  177.1360  144.5960 C   0  0  1  0  0  3  0  0  0  0  0  0
  191.3360  176.2510  146.8380 C   0  0  0  0  0  3  0  0  0  0  0  0
  189.1820  177.2250  146.3740 N   0  0  0  0  0  0  0  0  0  0  0  0
  187.7900  177.8580  148.1470 O   0  0  0  0  0  0  0  0  0  0  0  0
  190.1750  176.7290  147.2880 C   0  0  0  0  0  3  0  0  0  0  0  0
  188.7010  178.0480  144.2040 O   0  0  0  0  0  1  0  0  0  0  0  0
  191.6230  176.2870  145.4730 O   0  0  0  0  0  0  0  0  0  0  0  0
  187.9060  177.6200  146.9120 C   0  0  0  0  0  0  0  0  0  0  0  0
  186.7950  177.7260  146.0690 O   0  0  0  0  0  0  0  0  0  0  0  0
  185.7380  178.6280  146.3300 C   0  0  0  0  0  1  0  0  0  0  0  0
  182.6300  177.5960  134.8160 N   0  0  0  0  0  2  0  0  0  0  0  0
  180.4140  175.2580  134.5730 O   0  0  0  0  0  0  0  0  0  0  0  0
  180.8640  176.5880  137.7660 N   0  0  0  0  0  0  0  0  0  0  0  0
  181.4440  178.3250  135.2470 C   0  0  1  0  0  3  0  0  0  0  0  0
  181.0140  175.4360  136.8810 C   0  0  2  0  0  3  0  0  0  0  0  0
  180.2470  177.4160  135.5950 C   0  0  1  0  0  3  0  0  0  0  0  0
  181.6000  178.6780  136.7230 C   0  0  1  0  0  3  0  0  0  0  0  0
  180.5230  175.9450  135.5760 C   0  0  0  0  0  0  0  0  0  0  0  0
  180.0460  173.0370  136.5510 C   0  0  0  0  0  1  0  0  0  0  0  0
  180.0610  174.1130  138.7310 C   0  0  0  0  0  3  0  0  0  0  0  0
  180.2860  174.2240  137.4170 C   0  0  0  0  0  0  0  0  0  0  0  0
  181.2590  180.0160  136.9230 O   0  0  0  0  0  1  0  0  0  0  0  0
  180.7280  176.4170  139.1850 C   0  0  0  0  0  0  0  0  0  0  0  0
  180.4150  177.7940  137.0690 C   0  0  2  0  0  3  0  0  0  0  0  0
  180.3420  175.2260  139.6570 C   0  0  0  0  0  3  0  0  0  0  0  0
  182.3350  177.8210  140.1990 O   0  0  0  0  0  1  0  0  0  0  0  0
  180.9680  177.5550  140.1250 C   0  0  0  0  0  2  0  0  0  0  0  0
  1  7  1  0  0  0  0
  1 13  1  0  0  0  0
  2 12  1  0  0  0  0
  6 25  1  1  0  0  0
  6 10  1  0  0  0  0
  6  2  1  0  0  0  0
  7 13  1  0  0  0  0
  8  5  1  1  0  0  0
  8 14  1  0  0  0  0
  9  4  2  0  0  0  0
 10 17  1  1  0  0  0
 10  8  1  0  0  0  0
 11  5  1  0  0  0  0
 12 14  2  0  0  0  0
 12 18  1  0  0  0  0
 13  3  1  6  0  0  0
 13 11  1  0  0  0  0
 14  9  1  0  0  0  0
 15  4  1  0  0  0  0
 15 36  1  1  0  0  0
 16  2  1  0  0  0  0
 17  3  1  0  0  0  0
 18 15  1  0  0  0  0
 20 23  1  0  0  0  0
 20 19  1  0  0  0  0
 21 19  2  0  0  0  0
 22 24  1  0  0  0  0
 22 25  1  0  0  0  0
 24 26  1  0  0  0  0
 24 20  2  0  0  0  0
 25 23  2  0  0  0  0
 26 21  1  0  0  0  0
 27 28  1  0  0  0  0
 27 33  1  0  0  0  0
 28 31  1  0  0  0  0
 29 27  2  0  0  0  0
 30 32  1  6  0  0  0
 30 31  1  0  0  0  0
 31 34  1  6  0  0  0
 32 33  1  0  0  0  0
 33 26  1  0  0  0  0
 34 30  1  0  0  0  0
 35 36  2  0  0  0  0
 36 37  1  0  0  0  0
 37 38  1  0  0  0  0
 39 45  1  6  0  0  0
 39 42  1  0  0  0  0
 40 38  1  6  0  0  0
 40 39  1  0  0  0  0
 40 46  1  0  0  0  0
 41 44  2  0  0  0  0
 42 47  1  0  0  0  0
 42 44  1  0  0  0  0
 46 41  1  0  0  0  0
 47 43  2  0  0  0  0
 48 49  1  0  0  0  0
 48 47  1  0  0  0  0
 50  7  1  0  0  0  0
 51 57  2  0  0  0  0
 52 62  1  0  0  0  0
 53 50  1  1  0  0  0
 53 55  1  0  0  0  0
 53 56  1  0  0  0  0
 54 57  1  6  0  0  0
 54 60  1  0  0  0  0
 54 52  1  0  0  0  0
 55 57  1  1  0  0  0
 55 63  1  0  0  0  0
 56 61  1  6  0  0  0
 56 63  1  0  0  0  0
 58 60  1  0  0  0  0
 59 64  1  0  0  0  0
 60 59  2  0  0  0  0
 62 64  2  0  0  0  0
 62 66  1  0  0  0  0
 63 52  1  1  0  0  0
 66 65  1  0  0  0  0
M  END
>  <MODEL>
4

>  <REMARK>
 VINA RESULT:      -7.0      4.507     10.844
  Name = 
  10 active torsions:
  status: ('A' for Active; 'I' for Inactive)
    1  A    between atoms: C_6  and  C_30
    2  A    between atoms: C_6  and  C_51
    3  A    between atoms: O_13  and  C_65
    4  A    between atoms: C_15  and  C_54
    5  A    between atoms: C_17  and  N_60
    6  A    between atoms: N_21  and  N_60
    7  A    between atoms: C_27  and  C_51
    8  A    between atoms: C_30  and  C_56
    9  A    between atoms: N_39  and  N_62
   10  A    between atoms: C_53  and  C_55
                            x       y       z     vdW  Elec       q    Type
                         _______ _______ _______ _____ _____    ______ ____

>  <TORSDO>
F 10

$$$$
