=
 OpenBabel10232409583D

 34 38  0  0  1  0  0  0  0  0999 V2000
  184.1360  175.1030  135.9770 C   0  0  0  0  0  2  0  0  0  0  0  0
  185.0540  178.9350  143.0660 C   0  0  1  0  0  3  0  0  0  0  0  0
  186.8780  177.4000  143.6390 C   0  0  0  0  0  0  0  0  0  0  0  0
  188.2910  177.9010  136.3990 C   0  0  0  0  0  2  0  0  0  0  0  0
  184.7670  179.2280  139.2330 C   0  0  0  0  0  2  0  0  0  0  0  0
  185.9410  175.7860  134.3540 C   0  0  0  0  0  2  0  0  0  0  0  0
  188.1540  177.2650  143.3830 C   0  0  0  0  0  3  0  0  0  0  0  0
  189.4320  177.9260  137.3890 C   0  0  0  0  0  2  0  0  0  0  0  0
  182.6930  178.4920  143.4480 O   0  0  0  0  0  0  0  0  0  0  0  0
  187.8650  176.2380  138.1500 C   0  0  0  0  0  2  0  0  0  0  0  0
  190.0220  176.5350  139.3690 C   0  0  0  0  0  2  0  0  0  0  0  0
  190.1540  177.2800  141.8160 C   0  0  1  0  0  3  0  0  0  0  0  0
  185.6440  179.2550  141.7080 C   0  0  0  0  0  0  0  0  0  0  0  0
  185.3960  178.0350  137.1550 C   0  0  0  0  0  2  0  0  0  0  0  0
  190.6590  177.4940  140.3730 C   0  0  1  0  0  3  0  0  0  0  0  0
  188.1890  178.8170  141.3930 C   0  0  0  0  0  3  0  0  0  0  0  0
  185.3300  177.9360  138.6730 C   0  0  0  0  0  2  0  0  0  0  0  0
  185.2200  175.5320  136.9610 C   0  0  0  0  0  2  0  0  0  0  0  0
  188.6350  177.4830  141.9590 C   0  0  2  0  0  3  0  0  0  0  0  0
  184.7350  174.8740  134.5910 C   0  0  0  0  0  2  0  0  0  0  0  0
  183.6370  178.7260  142.6480 C   0  0  0  0  0  0  0  0  0  0  0  0
  186.9200  179.1200  141.4530 C   0  0  0  0  0  0  0  0  0  0  0  0
  183.4430  178.8200  141.2410 N   0  0  0  0  0  0  0  0  0  0  0  0
  185.7830  177.0000  135.0570 O   0  0  0  0  0  0  0  0  0  0  0  0
  188.8990  177.2370  138.6280 C   0  0  1  0  0  3  0  0  0  0  0  0
  187.4990  176.6440  136.7270 C   0  0  1  0  0  3  0  0  0  0  0  0
  185.5970  177.6640  143.6950 C   0  0  0  0  0  3  0  0  0  0  0  0
  184.5830  179.1120  140.7100 C   0  0  0  0  0  0  0  0  0  0  0  0
  185.9770  176.7910  136.4540 C   0  0  1  0  0  0  0  0  0  0  0  0
  190.6560  175.9690  142.4490 C   0  0  0  0  0  2  0  0  0  0  0  0
  191.5330  176.1970  143.6730 C   0  0  0  0  0  1  0  0  0  0  0  0
  192.1790  177.4340  140.2990 C   0  0  0  0  0  2  0  0  0  0  0  0
  193.9080  176.3410  139.1880 C   0  0  0  0  0  1  0  0  0  0  0  0
  192.5950  176.9300  139.0020 N   0  0  0  0  0  2  0  0  0  0  0  0
  1 18  1  0  0  0  0
  2 27  1  6  0  0  0
  3 27  2  0  0  0  0
  4  8  1  0  0  0  0
  5 28  1  0  0  0  0
  6 20  1  0  0  0  0
  6 24  1  0  0  0  0
  7  3  2  0  0  0  0
 10 25  1  0  0  0  0
 11 15  1  0  0  0  0
 12 19  1  0  0  0  0
 12 30  1  6  0  0  0
 13  2  1  0  0  0  0
 14 17  1  0  0  0  0
 15 32  1  1  0  0  0
 15 12  1  0  0  0  0
 16 22  2  0  0  0  0
 17  5  1  0  0  0  0
 19 16  1  1  0  0  0
 19  7  1  0  0  0  0
 20  1  1  0  0  0  0
 21  2  1  0  0  0  0
 21  9  2  0  0  0  0
 22 13  2  0  0  0  0
 23 21  1  0  0  0  0
 24 29  1  0  0  0  0
 25  8  1  6  0  0  0
 25 11  1  0  0  0  0
 26  4  1  1  0  0  0
 26 10  1  0  0  0  0
 28 23  2  0  0  0  0
 28 13  1  0  0  0  0
 29 26  1  0  0  0  0
 29 18  1  1  0  0  0
 29 14  1  0  0  0  0
 30 31  1  0  0  0  0
 34 33  1  0  0  0  0
 34 32  1  0  0  0  0
M  END
>  <MODEL>
1

>  <REMARK>
 VINA RESULT:      -7.6      0.000      0.000
  Name = 
  3 active torsions:
  status: ('A' for Active; 'I' for Inactive)
    1  A    between atoms: C_6  and  C_13
    2  A    between atoms: C_17  and  C_33
    3  A    between atoms: N_26  and  C_33
                            x       y       z     vdW  Elec       q    Type
                         _______ _______ _______ _____ _____    ______ ____

>  <TORSDO>
F 3

$$$$
=
 OpenBabel10232409583D

 34 38  0  0  1  0  0  0  0  0999 V2000
  183.6170  171.6400  136.9670 C   0  0  0  0  0  2  0  0  0  0  0  0
  184.8740  179.1240  139.8290 C   0  0  1  0  0  3  0  0  0  0  0  0
  186.9830  178.3690  140.8270 C   0  0  0  0  0  0  0  0  0  0  0  0
  187.2870  174.2290  134.7090 C   0  0  0  0  0  2  0  0  0  0  0  0
  184.0200  176.9140  136.7880 C   0  0  0  0  0  2  0  0  0  0  0  0
  185.0490  171.2100  134.9360 C   0  0  0  0  0  2  0  0  0  0  0  0
  188.2160  178.1510  140.4490 C   0  0  0  0  0  3  0  0  0  0  0  0
  188.5350  174.9180  135.2110 C   0  0  0  0  0  2  0  0  0  0  0  0
  182.6900  178.9330  140.8820 O   0  0  0  0  0  0  0  0  0  0  0  0
  187.3790  174.0350  137.1520 C   0  0  0  0  0  2  0  0  0  0  0  0
  189.6070  175.1170  137.4490 C   0  0  0  0  0  2  0  0  0  0  0  0
  189.9530  177.2470  138.8300 C   0  0  1  0  0  3  0  0  0  0  0  0
  185.2130  178.5340  138.4750 C   0  0  0  0  0  0  0  0  0  0  0  0
  184.5400  174.7010  135.8050 C   0  0  0  0  0  2  0  0  0  0  0  0
  190.2130  176.5190  137.4940 C   0  0  1  0  0  3  0  0  0  0  0  0
  187.7270  178.0930  137.9740 C   0  0  0  0  0  3  0  0  0  0  0  0
  184.7000  175.5820  137.0360 C   0  0  0  0  0  2  0  0  0  0  0  0
  184.7440  172.6350  137.2280 C   0  0  0  0  0  2  0  0  0  0  0  0
  188.4550  177.4370  139.1310 C   0  0  2  0  0  3  0  0  0  0  0  0
  184.0490  170.6080  135.9260 C   0  0  0  0  0  2  0  0  0  0  0  0
  183.4660  178.6440  139.9330 C   0  0  0  0  0  0  0  0  0  0  0  0
  186.4470  178.3180  138.0980 C   0  0  0  0  0  0  0  0  0  0  0  0
  183.0680  177.8190  138.8430 N   0  0  0  0  0  0  0  0  0  0  0  0
  184.7960  172.5880  134.7600 O   0  0  0  0  0  0  0  0  0  0  0  0
  188.2950  175.1480  136.6880 C   0  0  1  0  0  3  0  0  0  0  0  0
  186.7600  173.4340  135.8950 C   0  0  1  0  0  3  0  0  0  0  0  0
  185.6960  178.5590  140.9740 C   0  0  0  0  0  3  0  0  0  0  0  0
  184.0620  177.7520  138.0230 C   0  0  0  0  0  0  0  0  0  0  0  0
  185.2110  173.3170  135.9120 C   0  0  1  0  0  0  0  0  0  0  0  0
  190.7410  176.6530  140.0130 C   0  0  0  0  0  2  0  0  0  0  0  0
  191.8240  177.5870  140.5350 C   0  0  0  0  0  1  0  0  0  0  0  0
  191.6990  176.4830  137.1580 C   0  0  0  0  0  2  0  0  0  0  0  0
  193.4560  175.0130  137.5690 C   0  0  0  0  0  1  0  0  0  0  0  0
  192.1360  175.1100  136.9760 N   0  0  0  0  0  2  0  0  0  0  0  0
  1 18  1  0  0  0  0
  2 21  1  0  0  0  0
  2 27  1  1  0  0  0
  3 27  2  0  0  0  0
  4  8  1  0  0  0  0
  5 17  1  0  0  0  0
  5 28  1  0  0  0  0
  6 20  1  0  0  0  0
  7  3  2  0  0  0  0
 11 15  1  0  0  0  0
 12 19  1  0  0  0  0
 12 30  1  1  0  0  0
 13  2  1  0  0  0  0
 14 17  1  0  0  0  0
 15 32  1  1  0  0  0
 15 12  1  0  0  0  0
 16 22  2  0  0  0  0
 19 16  1  6  0  0  0
 19  7  1  0  0  0  0
 20  1  1  0  0  0  0
 21  9  2  0  0  0  0
 22 13  2  0  0  0  0
 23 21  1  0  0  0  0
 24  6  1  0  0  0  0
 24 29  1  0  0  0  0
 25  8  1  6  0  0  0
 25 10  1  0  0  0  0
 25 11  1  0  0  0  0
 26  4  1  6  0  0  0
 26 29  1  0  0  0  0
 26 10  1  0  0  0  0
 28 13  1  0  0  0  0
 28 23  2  0  0  0  0
 29 14  1  6  0  0  0
 29 18  1  0  0  0  0
 30 31  1  0  0  0  0
 34 32  1  0  0  0  0
 34 33  1  0  0  0  0
M  END
>  <MODEL>
2

>  <REMARK>
 VINA RESULT:      -6.9      2.215      3.286
  Name = 
  3 active torsions:
  status: ('A' for Active; 'I' for Inactive)
    1  A    between atoms: C_6  and  C_13
    2  A    between atoms: C_17  and  C_33
    3  A    between atoms: N_26  and  C_33
                            x       y       z     vdW  Elec       q    Type
                         _______ _______ _______ _____ _____    ______ ____

>  <TORSDO>
F 3

$$$$
=
 OpenBabel10232409583D

 34 38  0  0  1  0  0  0  0  0999 V2000
  187.7670  173.9730  135.7150 C   0  0  0  0  0  2  0  0  0  0  0  0
  183.4840  178.8720  140.5560 C   0  0  1  0  0  3  0  0  0  0  0  0
  184.4990  177.7960  142.5130 C   0  0  0  0  0  0  0  0  0  0  0  0
  190.4190  177.5200  138.0930 C   0  0  0  0  0  2  0  0  0  0  0  0
  185.8570  178.5620  137.5350 C   0  0  0  0  0  2  0  0  0  0  0  0
  190.1640  174.7400  135.5650 C   0  0  0  0  0  2  0  0  0  0  0  0
  185.6150  177.8640  143.1910 C   0  0  0  0  0  3  0  0  0  0  0  0
  190.5860  177.8940  139.5470 C   0  0  0  0  0  2  0  0  0  0  0  0
  181.5090  178.0600  139.3910 O   0  0  0  0  0  0  0  0  0  0  0  0
  188.9880  176.0720  139.4600 C   0  0  0  0  0  2  0  0  0  0  0  0
  189.7360  176.9300  141.6800 C   0  0  0  0  0  2  0  0  0  0  0  0
  188.1450  178.0250  143.3620 C   0  0  1  0  0  3  0  0  0  0  0  0
  184.8250  179.1000  139.8880 C   0  0  0  0  0  0  0  0  0  0  0  0
  187.7750  177.2230  136.7180 C   0  0  0  0  0  2  0  0  0  0  0  0
  189.4840  178.1230  142.6010 C   0  0  1  0  0  3  0  0  0  0  0  0
  186.9260  179.0990  141.4220 C   0  0  0  0  0  3  0  0  0  0  0  0
  186.7030  177.3290  137.7930 C   0  0  0  0  0  2  0  0  0  0  0  0
  187.8800  174.7290  137.0350 C   0  0  0  0  0  2  0  0  0  0  0  0
  186.9230  177.9630  142.4270 C   0  0  2  0  0  3  0  0  0  0  0  0
  189.1550  173.6640  135.1580 C   0  0  0  0  0  2  0  0  0  0  0  0
  182.7350  178.3480  139.3780 C   0  0  0  0  0  0  0  0  0  0  0  0
  185.9400  179.1680  140.5680 C   0  0  0  0  0  0  0  0  0  0  0  0
  183.5420  178.2050  138.2130 N   0  0  0  0  0  0  0  0  0  0  0  0
  189.5220  175.9910  135.6920 O   0  0  0  0  0  0  0  0  0  0  0  0
  189.3840  177.3010  140.2510 C   0  0  1  0  0  3  0  0  0  0  0  0
  189.6660  176.1970  138.1000 C   0  0  1  0  0  3  0  0  0  0  0  0
  183.5090  177.8250  141.6560 C   0  0  0  0  0  3  0  0  0  0  0  0
  184.7270  178.6240  138.5080 C   0  0  0  0  0  0  0  0  0  0  0  0
  188.7280  176.0210  136.8750 C   0  0  1  0  0  0  0  0  0  0  0  0
  188.1380  176.9330  144.4480 C   0  0  0  0  0  2  0  0  0  0  0  0
  188.0270  177.4950  145.8580 C   0  0  0  0  0  1  0  0  0  0  0  0
  190.6540  178.3340  143.5540 C   0  0  0  0  0  2  0  0  0  0  0  0
  191.6610  176.7200  144.8940 C   0  0  0  0  0  1  0  0  0  0  0  0
  191.5360  177.1810  143.5240 N   0  0  0  0  0  2  0  0  0  0  0  0
  1 18  1  0  0  0  0
  2 27  1  1  0  0  0
  3  7  2  0  0  0  0
  4  8  1  0  0  0  0
  5 17  1  0  0  0  0
  5 28  1  0  0  0  0
  6 24  1  0  0  0  0
  8 25  1  0  0  0  0
 11 15  1  0  0  0  0
 12 30  1  6  0  0  0
 13  2  1  0  0  0  0
 13 22  2  0  0  0  0
 14 17  1  0  0  0  0
 15 12  1  0  0  0  0
 15 32  1  1  0  0  0
 19 16  1  1  0  0  0
 19  7  1  0  0  0  0
 19 12  1  0  0  0  0
 20  6  1  0  0  0  0
 20  1  1  0  0  0  0
 21  9  2  0  0  0  0
 21  2  1  0  0  0  0
 22 16  2  0  0  0  0
 23 28  2  0  0  0  0
 23 21  1  0  0  0  0
 24 29  1  0  0  0  0
 25 10  1  6  0  0  0
 25 11  1  0  0  0  0
 26  4  1  6  0  0  0
 26 10  1  0  0  0  0
 27  3  2  0  0  0  0
 28 13  1  0  0  0  0
 29 14  1  6  0  0  0
 29 18  1  0  0  0  0
 29 26  1  0  0  0  0
 30 31  1  0  0  0  0
 34 32  1  0  0  0  0
 34 33  1  0  0  0  0
M  END
>  <MODEL>
3

>  <REMARK>
 VINA RESULT:      -6.6      2.110      3.147
  Name = 
  3 active torsions:
  status: ('A' for Active; 'I' for Inactive)
    1  A    between atoms: C_6  and  C_13
    2  A    between atoms: C_17  and  C_33
    3  A    between atoms: N_26  and  C_33
                            x       y       z     vdW  Elec       q    Type
                         _______ _______ _______ _____ _____    ______ ____

>  <TORSDO>
F 3

$$$$
=
 OpenBabel10232409583D

 34 38  0  0  1  0  0  0  0  0999 V2000
  183.3820  178.8570  142.9700 C   0  0  0  0  0  2  0  0  0  0  0  0
  188.0010  176.5310  136.7220 C   0  0  1  0  0  3  0  0  0  0  0  0
  187.1290  174.2500  136.9500 C   0  0  0  0  0  0  0  0  0  0  0  0
  180.9070  177.8310  138.7170 C   0  0  0  0  0  2  0  0  0  0  0  0
  185.4160  179.0440  138.0880 C   0  0  0  0  0  2  0  0  0  0  0  0
  180.9800  179.1260  142.2520 C   0  0  0  0  0  2  0  0  0  0  0  0
  186.0640  173.5750  136.6000 C   0  0  0  0  0  3  0  0  0  0  0  0
  180.8450  176.6200  137.8160 C   0  0  0  0  0  2  0  0  0  0  0  0
  189.8870  177.4300  137.9680 O   0  0  0  0  0  0  0  0  0  0  0  0
  182.4320  176.1150  139.5790 C   0  0  0  0  0  2  0  0  0  0  0  0
  181.8460  174.3420  137.9240 C   0  0  0  0  0  2  0  0  0  0  0  0
  183.5540  173.3100  136.3180 C   0  0  1  0  0  3  0  0  0  0  0  0
  186.6160  177.1450  136.7280 C   0  0  0  0  0  0  0  0  0  0  0  0
  183.4450  179.1630  139.5830 C   0  0  0  0  0  2  0  0  0  0  0  0
  182.1630  173.9610  136.4790 C   0  0  1  0  0  3  0  0  0  0  0  0
  184.6300  175.5890  136.0910 C   0  0  0  0  0  3  0  0  0  0  0  0
  184.5920  178.2820  139.1070 C   0  0  0  0  0  2  0  0  0  0  0  0
  183.3640  177.9170  141.7690 C   0  0  0  0  0  2  0  0  0  0  0  0
  184.7050  174.2310  136.7620 C   0  0  2  0  0  3  0  0  0  0  0  0
  181.9570  179.1610  143.4290 C   0  0  0  0  0  2  0  0  0  0  0  0
  188.6630  177.4700  137.6730 C   0  0  0  0  0  0  0  0  0  0  0  0
  185.5520  176.4690  136.3770 C   0  0  0  0  0  0  0  0  0  0  0  0
  187.7750  178.4370  138.2240 N   0  0  0  0  0  0  0  0  0  0  0  0
  181.6290  179.5260  141.0640 O   0  0  0  0  0  0  0  0  0  0  0  0
  182.0940  175.8250  138.1310 C   0  0  1  0  0  3  0  0  0  0  0  0
  181.6580  177.3730  139.9590 C   0  0  1  0  0  3  0  0  0  0  0  0
  188.0550  175.1180  137.2750 C   0  0  0  0  0  3  0  0  0  0  0  0
  186.6140  178.2450  137.6930 C   0  0  0  0  0  0  0  0  0  0  0  0
  182.5060  178.4990  140.6100 C   0  0  1  0  0  0  0  0  0  0  0  0
  183.6380  171.8950  136.9180 C   0  0  0  0  0  2  0  0  0  0  0  0
  183.8470  170.8140  135.8670 C   0  0  0  0  0  1  0  0  0  0  0  0
  181.0650  173.0840  135.8910 C   0  0  0  0  0  2  0  0  0  0  0  0
  179.9820  171.3110  136.9420 C   0  0  0  0  0  1  0  0  0  0  0  0
  180.0860  172.7580  136.9140 N   0  0  0  0  0  2  0  0  0  0  0  0
  1 20  1  0  0  0  0
  2 13  1  0  0  0  0
  2 27  1  1  0  0  0
  2 21  1  0  0  0  0
  3 27  2  0  0  0  0
  5 17  1  0  0  0  0
  6 20  1  0  0  0  0
  7 19  1  0  0  0  0
  7  3  2  0  0  0  0
  8  4  1  0  0  0  0
 10 26  1  0  0  0  0
 11 25  1  0  0  0  0
 12 15  1  0  0  0  0
 12 19  1  0  0  0  0
 12 30  1  1  0  0  0
 13 28  1  0  0  0  0
 15 32  1  1  0  0  0
 15 11  1  0  0  0  0
 16 22  2  0  0  0  0
 17 14  1  0  0  0  0
 18  1  1  0  0  0  0
 19 16  1  6  0  0  0
 21  9  2  0  0  0  0
 21 23  1  0  0  0  0
 22 13  2  0  0  0  0
 24  6  1  0  0  0  0
 25  8  1  1  0  0  0
 25 10  1  0  0  0  0
 26  4  1  6  0  0  0
 26 29  1  0  0  0  0
 28  5  1  0  0  0  0
 28 23  2  0  0  0  0
 29 14  1  6  0  0  0
 29 24  1  0  0  0  0
 29 18  1  0  0  0  0
 31 30  1  0  0  0  0
 32 34  1  0  0  0  0
 34 33  1  0  0  0  0
M  END
>  <MODEL>
4

>  <REMARK>
 VINA RESULT:      -6.2      3.315      8.243
  Name = 
  3 active torsions:
  status: ('A' for Active; 'I' for Inactive)
    1  A    between atoms: C_6  and  C_13
    2  A    between atoms: C_17  and  C_33
    3  A    between atoms: N_26  and  C_33
                            x       y       z     vdW  Elec       q    Type
                         _______ _______ _______ _____ _____    ______ ____

>  <TORSDO>
F 3

$$$$
=
 OpenBabel10232409583D

 34 38  0  0  1  0  0  0  0  0999 V2000
  189.9460  176.0650  143.6370 C   0  0  0  0  0  2  0  0  0  0  0  0
  186.7330  176.9920  136.2480 C   0  0  1  0  0  3  0  0  0  0  0  0
  184.6410  175.9970  137.0520 C   0  0  0  0  0  0  0  0  0  0  0  0
  186.4170  179.6240  143.2450 C   0  0  0  0  0  2  0  0  0  0  0  0
  188.6090  178.6170  139.1970 C   0  0  0  0  0  2  0  0  0  0  0  0
  189.0820  177.8340  145.2130 C   0  0  0  0  0  2  0  0  0  0  0  0
  183.5780  176.3700  137.7180 C   0  0  0  0  0  3  0  0  0  0  0  0
  184.9850  179.6200  142.7630 C   0  0  0  0  0  2  0  0  0  0  0  0
  188.6410  175.7330  135.4170 O   0  0  0  0  0  0  0  0  0  0  0  0
  185.8490  177.3760  142.4450 C   0  0  0  0  0  2  0  0  0  0  0  0
  183.4460  177.8360  141.9570 C   0  0  0  0  0  2  0  0  0  0  0  0
  182.4240  177.5950  139.6210 C   0  0  1  0  0  3  0  0  0  0  0  0
  186.8050  177.9690  137.4030 C   0  0  0  0  0  0  0  0  0  0  0  0
  188.7320  178.5610  141.6700 C   0  0  0  0  0  2  0  0  0  0  0  0
  182.5930  178.4860  140.8700 C   0  0  1  0  0  3  0  0  0  0  0  0
  184.5810  178.4910  138.6490 C   0  0  0  0  0  3  0  0  0  0  0  0
  188.1530  177.8770  140.4400 C   0  0  0  0  0  2  0  0  0  0  0  0
  188.6240  176.3980  142.9530 C   0  0  0  0  0  2  0  0  0  0  0  0
  183.7620  177.2500  138.9420 C   0  0  2  0  0  3  0  0  0  0  0  0
  189.9450  176.5770  145.0760 C   0  0  0  0  0  2  0  0  0  0  0  0
  188.1520  176.5320  136.2580 C   0  0  0  0  0  0  0  0  0  0  0  0
  185.7410  178.3420  138.0680 C   0  0  0  0  0  0  0  0  0  0  0  0
  188.9190  177.0900  137.3200 N   0  0  0  0  0  0  0  0  0  0  0  0
  189.1040  178.5760  144.0120 O   0  0  0  0  0  0  0  0  0  0  0  0
  184.8600  178.3840  141.8980 C   0  0  1  0  0  3  0  0  0  0  0  0
  186.8220  178.1580  143.3220 C   0  0  1  0  0  3  0  0  0  0  0  0
  185.8090  175.8110  136.4900 C   0  0  0  0  0  3  0  0  0  0  0  0
  188.1510  177.8970  137.9720 C   0  0  0  0  0  0  0  0  0  0  0  0
  188.3250  177.9220  143.0130 C   0  0  1  0  0  0  0  0  0  0  0  0
  181.5290  176.3660  139.8660 C   0  0  0  0  0  2  0  0  0  0  0  0
  180.2370  176.4010  139.0620 C   0  0  0  0  0  1  0  0  0  0  0  0
  181.2450  178.9310  141.4250 C   0  0  0  0  0  2  0  0  0  0  0  0
  180.1700  178.7570  143.4820 C   0  0  0  0  0  1  0  0  0  0  0  0
  181.3700  179.2540  142.8350 N   0  0  0  0  0  2  0  0  0  0  0  0
  1 20  1  0  0  0  0
  2 21  1  0  0  0  0
  2 27  1  1  0  0  0
  2 13  1  0  0  0  0
  3  7  2  0  0  0  0
  4 26  1  0  0  0  0
  5 17  1  0  0  0  0
  8  4  1  0  0  0  0
  9 21  2  0  0  0  0
 12 30  1  1  0  0  0
 12 15  1  0  0  0  0
 13 28  1  0  0  0  0
 13 22  2  0  0  0  0
 15 32  1  1  0  0  0
 15 11  1  0  0  0  0
 16 19  1  0  0  0  0
 17 14  1  0  0  0  0
 18 29  1  0  0  0  0
 18  1  1  0  0  0  0
 19  7  1  6  0  0  0
 19 12  1  0  0  0  0
 20  6  1  0  0  0  0
 21 23  1  0  0  0  0
 22 16  2  0  0  0  0
 23 28  2  0  0  0  0
 24  6  1  0  0  0  0
 25 11  1  1  0  0  0
 25 10  1  0  0  0  0
 25  8  1  0  0  0  0
 26 10  1  6  0  0  0
 27  3  2  0  0  0  0
 28  5  1  0  0  0  0
 29 14  1  6  0  0  0
 29 26  1  0  0  0  0
 29 24  1  0  0  0  0
 31 30  1  0  0  0  0
 32 34  1  0  0  0  0
 34 33  1  0  0  0  0
M  END
>  <MODEL>
5

>  <REMARK>
 VINA RESULT:      -5.8      2.371      8.165
  Name = 
  3 active torsions:
  status: ('A' for Active; 'I' for Inactive)
    1  A    between atoms: C_6  and  C_13
    2  A    between atoms: C_17  and  C_33
    3  A    between atoms: N_26  and  C_33
                            x       y       z     vdW  Elec       q    Type
                         _______ _______ _______ _____ _____    ______ ____

>  <TORSDO>
F 3

$$$$
=
 OpenBabel10232409583D

 34 38  0  0  1  0  0  0  0  0999 V2000
  180.0730  172.7420  137.7390 C   0  0  0  0  0  2  0  0  0  0  0  0
  182.3450  179.2070  142.0770 C   0  0  1  0  0  3  0  0  0  0  0  0
  184.6850  178.5010  141.8700 C   0  0  0  0  0  0  0  0  0  0  0  0
  182.4420  176.3500  135.1620 C   0  0  0  0  0  2  0  0  0  0  0  0
  180.3190  177.8530  139.0900 C   0  0  0  0  0  2  0  0  0  0  0  0
  180.5290  173.1090  135.2860 C   0  0  0  0  0  2  0  0  0  0  0  0
  185.6500  178.5740  140.9890 C   0  0  0  0  0  3  0  0  0  0  0  0
  183.7790  177.0350  135.3210 C   0  0  0  0  0  2  0  0  0  0  0  0
  180.8020  178.4240  143.7860 O   0  0  0  0  0  0  0  0  0  0  0  0
  183.5480  175.4860  137.1730 C   0  0  0  0  0  2  0  0  0  0  0  0
  185.6870  176.7390  136.8940 C   0  0  0  0  0  2  0  0  0  0  0  0
  186.5590  178.4160  138.6220 C   0  0  1  0  0  3  0  0  0  0  0  0
  182.0930  179.0790  140.5880 C   0  0  0  0  0  0  0  0  0  0  0  0
  180.4000  176.1040  137.3390 C   0  0  0  0  0  2  0  0  0  0  0  0
  186.2440  178.1400  137.1370 C   0  0  1  0  0  3  0  0  0  0  0  0
  184.1720  179.1520  139.0260 C   0  0  0  0  0  3  0  0  0  0  0  0
  181.0520  176.6140  138.6160 C   0  0  0  0  0  2  0  0  0  0  0  0
  181.1970  173.7690  137.8350 C   0  0  0  0  0  2  0  0  0  0  0  0
  185.3220  178.3030  139.5320 C   0  0  2  0  0  3  0  0  0  0  0  0
  180.0400  172.1180  136.3450 C   0  0  0  0  0  2  0  0  0  0  0  0
  181.1140  178.5260  142.5700 C   0  0  0  0  0  0  0  0  0  0  0  0
  183.0580  179.1520  139.7090 C   0  0  0  0  0  0  0  0  0  0  0  0
  180.3040  177.9970  141.5250 N   0  0  0  0  0  0  0  0  0  0  0  0
  180.2150  174.4310  135.6690 O   0  0  0  0  0  0  0  0  0  0  0  0
  184.1770  176.8010  136.7630 C   0  0  1  0  0  3  0  0  0  0  0  0
  182.4650  175.1850  136.1420 C   0  0  1  0  0  3  0  0  0  0  0  0
  183.5750  178.4610  142.5640 C   0  0  0  0  0  3  0  0  0  0  0  0
  180.8650  178.3050  140.4040 C   0  0  0  0  0  0  0  0  0  0  0  0
  181.0670  174.8540  136.7300 C   0  0  1  0  0  0  0  0  0  0  0  0
  187.7750  177.6280  139.1450 C   0  0  0  0  0  2  0  0  0  0  0  0
  188.9750  178.5140  139.4450 C   0  0  0  0  0  1  0  0  0  0  0  0
  187.4540  178.4090  136.2500 C   0  0  0  0  0  2  0  0  0  0  0  0
  189.1220  177.1460  135.2300 C   0  0  0  0  0  1  0  0  0  0  0  0
  187.6840  177.2800  135.3660 N   0  0  0  0  0  2  0  0  0  0  0  0
  1 18  1  0  0  0  0
  2 27  1  6  0  0  0
  2 21  1  0  0  0  0
  3 27  2  0  0  0  0
  4  8  1  0  0  0  0
  5 28  1  0  0  0  0
  6 24  1  0  0  0  0
  6 20  1  0  0  0  0
  7  3  2  0  0  0  0
 11 15  1  0  0  0  0
 12 30  1  1  0  0  0
 12 19  1  0  0  0  0
 13  2  1  0  0  0  0
 14 17  1  0  0  0  0
 15 32  1  6  0  0  0
 15 12  1  0  0  0  0
 16 22  2  0  0  0  0
 17  5  1  0  0  0  0
 19 16  1  6  0  0  0
 19  7  1  0  0  0  0
 20  1  1  0  0  0  0
 21  9  2  0  0  0  0
 22 13  2  0  0  0  0
 23 21  1  0  0  0  0
 24 29  1  0  0  0  0
 25  8  1  6  0  0  0
 25 11  1  0  0  0  0
 25 10  1  0  0  0  0
 26  4  1  6  0  0  0
 26 29  1  0  0  0  0
 26 10  1  0  0  0  0
 28 13  1  0  0  0  0
 28 23  2  0  0  0  0
 29 14  1  1  0  0  0
 29 18  1  0  0  0  0
 30 31  1  0  0  0  0
 33 34  1  0  0  0  0
 34 32  1  0  0  0  0
M  END
>  <MODEL>
6

>  <REMARK>
 VINA RESULT:      -5.6      2.977      4.828
  Name = 
  3 active torsions:
  status: ('A' for Active; 'I' for Inactive)
    1  A    between atoms: C_6  and  C_13
    2  A    between atoms: C_17  and  C_33
    3  A    between atoms: N_26  and  C_33
                            x       y       z     vdW  Elec       q    Type
                         _______ _______ _______ _____ _____    ______ ____

>  <TORSDO>
F 3

$$$$
=
 OpenBabel10232409583D

 34 38  0  0  1  0  0  0  0  0999 V2000
  185.9920  177.9480  144.5900 C   0  0  0  0  0  2  0  0  0  0  0  0
  188.9690  175.9790  137.3070 C   0  0  1  0  0  3  0  0  0  0  0  0
  187.0850  174.4460  136.9710 C   0  0  0  0  0  0  0  0  0  0  0  0
  183.4010  179.6940  140.6520 C   0  0  0  0  0  2  0  0  0  0  0  0
  187.9340  178.7860  139.7380 C   0  0  0  0  0  2  0  0  0  0  0  0
  184.0450  179.5340  144.3580 C   0  0  0  0  0  2  0  0  0  0  0  0
  185.8310  174.5100  136.6010 C   0  0  0  0  0  3  0  0  0  0  0  0
  182.7660  179.0350  139.4500 C   0  0  0  0  0  2  0  0  0  0  0  0
  191.0330  175.4130  138.4620 O   0  0  0  0  0  0  0  0  0  0  0  0
  183.8710  177.2880  140.7180 C   0  0  0  0  0  2  0  0  0  0  0  0
  182.5150  176.6680  138.7180 C   0  0  0  0  0  2  0  0  0  0  0  0
  183.5200  175.5640  136.6370 C   0  0  1  0  0  3  0  0  0  0  0  0
  188.0650  177.1280  137.7060 C   0  0  0  0  0  0  0  0  0  0  0  0
  186.2520  179.3040  141.4820 C   0  0  0  0  0  2  0  0  0  0  0  0
  182.6270  176.6930  137.1950 C   0  0  1  0  0  3  0  0  0  0  0  0
  185.5820  176.9990  136.9420 C   0  0  0  0  0  3  0  0  0  0  0  0
  186.8250  178.2070  140.5950 C   0  0  0  0  0  2  0  0  0  0  0  0
  185.5330  177.5910  143.1790 C   0  0  0  0  0  2  0  0  0  0  0  0
  184.9680  175.6290  137.1560 C   0  0  2  0  0  3  0  0  0  0  0  0
  184.8940  178.7100  145.3300 C   0  0  0  0  0  2  0  0  0  0  0  0
  189.9920  176.1180  138.3830 C   0  0  0  0  0  0  0  0  0  0  0  0
  186.8120  177.1910  137.3350 C   0  0  0  0  0  0  0  0  0  0  0  0
  189.6860  177.1390  139.3260 N   0  0  0  0  0  0  0  0  0  0  0  0
  184.8260  179.9550  143.2600 O   0  0  0  0  0  0  0  0  0  0  0  0
  183.4570  177.6950  139.3190 C   0  0  1  0  0  3  0  0  0  0  0  0
  183.8100  178.5510  141.5700 C   0  0  1  0  0  3  0  0  0  0  0  0
  188.3120  174.6130  137.3960 C   0  0  0  0  0  3  0  0  0  0  0  0
  188.5890  177.7040  138.9450 C   0  0  0  0  0  0  0  0  0  0  0  0
  185.0920  178.8560  142.3920 C   0  0  1  0  0  0  0  0  0  0  0  0
  182.8880  174.1650  136.7660 C   0  0  0  0  0  2  0  0  0  0  0  0
  182.5790  173.5260  135.4200 C   0  0  0  0  0  1  0  0  0  0  0  0
  181.2490  176.6870  136.5450 C   0  0  0  0  0  2  0  0  0  0  0  0
  181.1080  178.9450  135.9950 C   0  0  0  0  0  1  0  0  0  0  0  0
  180.5470  177.9200  136.8560 N   0  0  0  0  0  2  0  0  0  0  0  0
  1 20  1  0  0  0  0
  2 27  1  1  0  0  0
  2 13  1  0  0  0  0
  2 21  1  0  0  0  0
  3 27  2  0  0  0  0
  5 17  1  0  0  0  0
  6 20  1  0  0  0  0
  7  3  2  0  0  0  0
  8  4  1  0  0  0  0
 10 26  1  0  0  0  0
 12 30  1  1  0  0  0
 12 19  1  0  0  0  0
 12 15  1  0  0  0  0
 13 28  1  0  0  0  0
 15 32  1  6  0  0  0
 15 11  1  0  0  0  0
 16 19  1  0  0  0  0
 16 22  2  0  0  0  0
 17 14  1  0  0  0  0
 18  1  1  0  0  0  0
 19  7  1  6  0  0  0
 21  9  2  0  0  0  0
 21 23  1  0  0  0  0
 22 13  2  0  0  0  0
 24  6  1  0  0  0  0
 25 11  1  1  0  0  0
 25  8  1  0  0  0  0
 25 10  1  0  0  0  0
 26  4  1  6  0  0  0
 26 29  1  0  0  0  0
 28 23  2  0  0  0  0
 28  5  1  0  0  0  0
 29 14  1  6  0  0  0
 29 18  1  0  0  0  0
 29 24  1  0  0  0  0
 31 30  1  0  0  0  0
 32 34  1  0  0  0  0
 33 34  1  0  0  0  0
M  END
>  <MODEL>
7

>  <REMARK>
 VINA RESULT:      -5.5      2.597      8.085
  Name = 
  3 active torsions:
  status: ('A' for Active; 'I' for Inactive)
    1  A    between atoms: C_6  and  C_13
    2  A    between atoms: C_17  and  C_33
    3  A    between atoms: N_26  and  C_33
                            x       y       z     vdW  Elec       q    Type
                         _______ _______ _______ _____ _____    ______ ____

>  <TORSDO>
F 3

$$$$
=
 OpenBabel10232409583D

 34 38  0  0  1  0  0  0  0  0999 V2000
  190.9250  176.0540  143.6780 C   0  0  0  0  0  2  0  0  0  0  0  0
  193.8080  174.3080  136.3010 C   0  0  1  0  0  3  0  0  0  0  0  0
  191.6510  173.2950  135.7180 C   0  0  0  0  0  0  0  0  0  0  0  0
  189.0240  178.7880  139.9120 C   0  0  0  0  0  2  0  0  0  0  0  0
  193.2850  176.9780  139.0310 C   0  0  0  0  0  2  0  0  0  0  0  0
  189.3980  178.0600  143.5870 C   0  0  0  0  0  2  0  0  0  0  0  0
  190.4680  173.6860  135.3200 C   0  0  0  0  0  3  0  0  0  0  0  0
  188.3290  178.4340  138.6180 C   0  0  0  0  0  2  0  0  0  0  0  0
  195.6220  173.1560  137.4400 O   0  0  0  0  0  0  0  0  0  0  0  0
  188.9400  176.3470  139.6910 C   0  0  0  0  0  2  0  0  0  0  0  0
  187.6000  176.2870  137.5880 C   0  0  0  0  0  2  0  0  0  0  0  0
  188.4520  175.2290  135.4170 C   0  0  1  0  0  3  0  0  0  0  0  0
  193.1610  175.5790  136.8130 C   0  0  0  0  0  0  0  0  0  0  0  0
  191.6630  177.6630  140.7730 C   0  0  0  0  0  2  0  0  0  0  0  0
  187.8020  176.4600  136.0840 C   0  0  1  0  0  3  0  0  0  0  0  0
  190.7610  176.1090  135.9630 C   0  0  0  0  0  3  0  0  0  0  0  0
  192.0270  176.5740  139.7750 C   0  0  0  0  0  2  0  0  0  0  0  0
  190.4820  175.9770  142.2200 C   0  0  0  0  0  2  0  0  0  0  0  0
  189.8450  174.9010  135.9840 C   0  0  2  0  0  3  0  0  0  0  0  0
  189.9840  176.9580  144.4730 C   0  0  0  0  0  2  0  0  0  0  0  0
  194.7720  174.0840  137.4170 C   0  0  0  0  0  0  0  0  0  0  0  0
  191.9780  175.9690  136.4140 C   0  0  0  0  0  0  0  0  0  0  0  0
  194.6460  175.0330  138.4710 N   0  0  0  0  0  0  0  0  0  0  0  0
  190.3160  178.4150  142.5750 O   0  0  0  0  0  0  0  0  0  0  0  0
  188.7100  176.9950  138.3420 C   0  0  1  0  0  3  0  0  0  0  0  0
  189.1130  177.4840  140.6920 C   0  0  1  0  0  3  0  0  0  0  0  0
  192.8580  173.1270  136.1980 C   0  0  0  0  0  3  0  0  0  0  0  0
  193.7280  175.8740  138.1290 C   0  0  0  0  0  0  0  0  0  0  0  0
  190.3800  177.3910  141.5850 C   0  0  1  0  0  0  0  0  0  0  0  0
  187.5170  174.0070  135.3500 C   0  0  0  0  0  2  0  0  0  0  0  0
  187.4580  173.2310  136.6580 C   0  0  0  0  0  1  0  0  0  0  0  0
  186.4980  176.8450  135.3960 C   0  0  0  0  0  2  0  0  0  0  0  0
  184.2190  176.9130  135.8660 C   0  0  0  0  0  1  0  0  0  0  0  0
  185.5250  177.2790  136.3820 N   0  0  0  0  0  2  0  0  0  0  0  0
  1 20  1  0  0  0  0
  2 27  1  1  0  0  0
  2 13  1  0  0  0  0
  2 21  1  0  0  0  0
  3 27  2  0  0  0  0
  4 26  1  0  0  0  0
  5 17  1  0  0  0  0
  6 20  1  0  0  0  0
  7  3  2  0  0  0  0
  8  4  1  0  0  0  0
 12 30  1  1  0  0  0
 12 19  1  0  0  0  0
 12 15  1  0  0  0  0
 13 28  1  0  0  0  0
 15 32  1  6  0  0  0
 15 11  1  0  0  0  0
 16 19  1  0  0  0  0
 16 22  2  0  0  0  0
 17 14  1  0  0  0  0
 18  1  1  0  0  0  0
 19  7  1  6  0  0  0
 21  9  2  0  0  0  0
 21 23  1  0  0  0  0
 22 13  2  0  0  0  0
 24  6  1  0  0  0  0
 25 11  1  1  0  0  0
 25  8  1  0  0  0  0
 25 10  1  0  0  0  0
 26 10  1  6  0  0  0
 26 29  1  0  0  0  0
 28 23  2  0  0  0  0
 28  5  1  0  0  0  0
 29 14  1  6  0  0  0
 29 18  1  0  0  0  0
 29 24  1  0  0  0  0
 30 31  1  0  0  0  0
 32 34  1  0  0  0  0
 33 34  1  0  0  0  0
M  END
>  <MODEL>
8

>  <REMARK>
 VINA RESULT:      -5.5      3.352      8.631
  Name = 
  3 active torsions:
  status: ('A' for Active; 'I' for Inactive)
    1  A    between atoms: C_6  and  C_13
    2  A    between atoms: C_17  and  C_33
    3  A    between atoms: N_26  and  C_33
                            x       y       z     vdW  Elec       q    Type
                         _______ _______ _______ _____ _____    ______ ____

>  <TORSDO>
F 3

$$$$
=
 OpenBabel10232409583D

 34 38  0  0  1  0  0  0  0  0999 V2000
  180.0820  177.7000  134.3460 C   0  0  0  0  0  2  0  0  0  0  0  0
  183.6570  170.6700  136.2340 C   0  0  1  0  0  3  0  0  0  0  0  0
  185.7380  171.4760  135.2170 C   0  0  0  0  0  0  0  0  0  0  0  0
  183.4910  177.9310  138.0330 C   0  0  0  0  0  2  0  0  0  0  0  0
  181.5630  173.6720  137.4430 C   0  0  0  0  0  2  0  0  0  0  0  0
  180.7910  179.5190  135.9430 C   0  0  0  0  0  2  0  0  0  0  0  0
  186.7480  172.2420  135.5410 C   0  0  0  0  0  3  0  0  0  0  0  0
  184.9460  177.5370  138.1300 C   0  0  0  0  0  2  0  0  0  0  0  0
  181.8460  169.5880  135.0240 O   0  0  0  0  0  0  0  0  0  0  0  0
  184.1850  176.9120  135.9140 C   0  0  0  0  0  2  0  0  0  0  0  0
  186.5930  176.6220  136.5020 C   0  0  0  0  0  2  0  0  0  0  0  0
  187.7500  174.3380  136.5690 C   0  0  1  0  0  3  0  0  0  0  0  0
  183.4860  171.9250  137.0660 C   0  0  0  0  0  0  0  0  0  0  0  0
  181.3070  176.1110  137.0920 C   0  0  0  0  0  2  0  0  0  0  0  0
  187.4800  175.6700  137.3020 C   0  0  1  0  0  3  0  0  0  0  0  0
  185.6170  173.3500  137.5070 C   0  0  0  0  0  3  0  0  0  0  0  0
  181.9780  174.8450  136.5760 C   0  0  0  0  0  2  0  0  0  0  0  0
  181.4260  177.1390  134.7980 C   0  0  0  0  0  2  0  0  0  0  0  0
  186.4650  173.5460  136.2650 C   0  0  2  0  0  3  0  0  0  0  0  0
  179.9850  179.1870  134.6850 C   0  0  0  0  0  2  0  0  0  0  0  0
  182.2580  170.5440  135.7330 C   0  0  0  0  0  0  0  0  0  0  0  0
  184.4970  172.6890  137.3900 C   0  0  0  0  0  0  0  0  0  0  0  0
  181.4140  171.6170  136.1380 N   0  0  0  0  0  0  0  0  0  0  0  0
  180.8070  178.4130  136.8200 O   0  0  0  0  0  0  0  0  0  0  0  0
  185.1650  176.5440  137.0090 C   0  0  1  0  0  3  0  0  0  0  0  0
  183.1380  177.8140  136.5570 C   0  0  1  0  0  3  0  0  0  0  0  0
  184.6110  170.8280  135.0620 C   0  0  0  0  0  3  0  0  0  0  0  0
  182.1150  172.4010  136.8870 C   0  0  0  0  0  0  0  0  0  0  0  0
  181.6630  177.3920  136.3130 C   0  0  1  0  0  0  0  0  0  0  0  0
  188.6760  174.4910  135.3480 C   0  0  0  0  0  2  0  0  0  0  0  0
  190.0050  173.7680  135.5140 C   0  0  0  0  0  1  0  0  0  0  0  0
  188.7770  176.3510  137.7190 C   0  0  0  0  0  2  0  0  0  0  0  0
  189.0800  178.4570  138.6620 C   0  0  0  0  0  1  0  0  0  0  0  0
  188.5660  177.1260  138.9280 N   0  0  0  0  0  2  0  0  0  0  0  0
  1 20  1  0  0  0  0
  1 18  1  0  0  0  0
  2 27  1  6  0  0  0
  2 13  1  0  0  0  0
  3  7  2  0  0  0  0
  4  8  1  0  0  0  0
  6 24  1  0  0  0  0
  9 21  2  0  0  0  0
 11 25  1  0  0  0  0
 11 15  1  0  0  0  0
 12 30  1  6  0  0  0
 12 15  1  0  0  0  0
 13 22  2  0  0  0  0
 15 32  1  6  0  0  0
 17 14  1  0  0  0  0
 17  5  1  0  0  0  0
 19  7  1  1  0  0  0
 19 12  1  0  0  0  0
 19 16  1  0  0  0  0
 20  6  1  0  0  0  0
 21 23  1  0  0  0  0
 21  2  1  0  0  0  0
 22 16  2  0  0  0  0
 23 28  2  0  0  0  0
 25 10  1  6  0  0  0
 25  8  1  0  0  0  0
 26 10  1  1  0  0  0
 26  4  1  0  0  0  0
 27  3  2  0  0  0  0
 28 13  1  0  0  0  0
 28  5  1  0  0  0  0
 29 18  1  6  0  0  0
 29 26  1  0  0  0  0
 29 24  1  0  0  0  0
 29 14  1  0  0  0  0
 30 31  1  0  0  0  0
 32 34  1  0  0  0  0
 33 34  1  0  0  0  0
M  END
>  <MODEL>
9

>  <REMARK>
 VINA RESULT:      -5.4      3.880      7.178
  Name = 
  3 active torsions:
  status: ('A' for Active; 'I' for Inactive)
    1  A    between atoms: C_6  and  C_13
    2  A    between atoms: C_17  and  C_33
    3  A    between atoms: N_26  and  C_33
                            x       y       z     vdW  Elec       q    Type
                         _______ _______ _______ _____ _____    ______ ____

>  <TORSDO>
F 3

$$$$
