=
 OpenBabel10232411313D

 59 66  0  0  1  0  0  0  0  0999 V2000
  187.6800  175.0410  135.9990 C   0  0  0  0  0  2  0  0  0  0  0  0
  187.9550  177.7840  139.2860 C   0  0  0  0  0  3  0  0  0  0  0  0
  187.9200  177.1940  138.0950 C   0  0  0  0  0  0  0  0  0  0  0  0
  186.5480  175.9370  136.3530 C   0  0  0  0  0  0  0  0  0  0  0  0
  190.1320  177.3420  138.6450 C   0  0  0  0  0  3  0  0  0  0  0  0
  189.3110  176.9040  137.7020 C   0  0  0  0  0  0  0  0  0  0  0  0
  189.3570  177.9440  139.7620 C   0  0  0  0  0  2  0  0  0  0  0  0
  189.8430  176.1940  136.4800 C   0  0  2  0  0  3  0  0  0  0  0  0
  184.2150  176.4820  135.9530 C   0  0  0  0  0  0  0  0  0  0  0  0
  185.4840  177.7290  137.6160 C   0  0  0  0  0  0  0  0  0  0  0  0
  184.2870  177.4720  136.9310 C   0  0  0  0  0  3  0  0  0  0  0  0
  186.6450  176.9510  137.3390 C   0  0  0  0  0  0  0  0  0  0  0  0
  185.3480  175.7220  135.6710 C   0  0  0  0  0  3  0  0  0  0  0  0
  188.8100  175.8610  135.4130 C   0  0  0  0  0  2  0  0  0  0  0  0
  191.9350  174.7990  136.2320 N   0  0  0  0  0  2  0  0  0  0  0  0
  190.2460  174.1730  137.7070 O   0  0  0  0  0  0  0  0  0  0  0  0
  190.6650  174.9950  136.8480 C   0  0  0  0  0  0  0  0  0  0  0  0
  192.8410  173.8580  136.7420 N   0  0  0  0  0  2  0  0  0  0  0  0
  197.4380  174.7200  136.7480 C   0  0  0  0  0  2  0  0  0  0  0  0
  195.6980  174.7100  139.0700 C   0  0  0  0  0  2  0  0  0  0  0  0
  196.0010  172.7040  136.3770 O   0  0  0  0  0  0  0  0  0  0  0  0
  197.1440  174.2400  139.2670 C   0  0  0  0  0  2  0  0  0  0  0  0
  197.9320  173.9580  137.9790 C   0  0  0  0  0  2  0  0  0  0  0  0
  195.4250  172.5270  137.6720 C   0  0  0  0  0  2  0  0  0  0  0  0
  194.9280  174.9040  136.0530 C   0  0  2  0  0  3  0  0  0  0  0  0
  194.0110  174.5760  137.2340 C   0  0  2  0  0  3  0  0  0  0  0  0
  194.7530  173.7680  138.3020 C   0  0  2  0  0  3  0  0  0  0  0  0
  196.2250  174.0670  136.0430 C   0  0  1  0  0  3  0  0  0  0  0  0
  194.5580  176.8010  134.5070 S   0  0  0  0  0  1  0  0  0  0  0  0
  195.2000  176.2730  136.0120 O   0  0  0  0  0  0  0  0  0  0  0  0
  182.9590  176.2380  135.2250 C   0  0  0  0  0  0  0  0  0  0  0  0
  182.4750  177.1350  134.4830 O   0  0  0  0  0  0  0  0  0  0  0  0
  182.3040  175.0120  135.3740 O   0  0  0  0  0  0  0  0  0  0  0  0
  182.4380  174.2080  136.5440 C   0  0  2  0  0  3  0  0  0  0  0  0
  182.4270  171.8940  137.3830 O   0  0  0  0  0  0  0  0  0  0  0  0
  183.6910  171.9060  136.7550 C   0  0  1  0  0  0  0  0  0  0  0  0
  184.6410  172.5260  137.5470 F   0  0  0  0  0  0  0  0  0  0  0  0
  184.0210  170.5510  136.1570 C   0  0  0  0  0  1  0  0  0  0  0  0
  182.5480  172.7030  136.2330 C   0  0  2  0  0  0  0  0  0  0  0  0
  180.5750  171.5350  135.5340 O   0  0  0  0  0  1  0  0  0  0  0  0
  181.7440  172.1410  135.0680 C   0  0  0  0  0  2  0  0  0  0  0  0
  180.3190  175.2830  136.9020 O   0  0  0  0  0  1  0  0  0  0  0  0
  181.2970  174.4940  137.5140 C   0  0  0  0  0  2  0  0  0  0  0  0
  185.5360  178.7670  138.5580 O   0  0  0  0  0  0  0  0  0  0  0  0
  184.4400  179.1650  139.3770 C   0  0  0  0  0  2  0  0  0  0  0  0
  184.0770  178.0750  140.3770 C   0  0  0  0  0  2  0  0  0  0  0  0
  183.7260  178.6380  141.6100 O   0  0  0  0  0  0  0  0  0  0  0  0
  185.9930  178.0900  142.2240 C   0  0  0  0  0  2  0  0  0  0  0  0
  186.9460  177.1640  145.5310 O   0  0  0  0  0  0  0  0  0  0  0  0
  185.3630  178.2980  144.3420 C   0  0  2  0  0  3  0  0  0  0  0  0
  184.8990  179.1820  142.1410 C   0  0  2  0  0  3  0  0  0  0  0  0
  187.2660  177.0960  144.1360 C   0  0  1  0  0  3  0  0  0  0  0  0
  185.2350  178.2330  146.8410 C   0  0  0  0  0  2  0  0  0  0  0  0
  185.8290  177.9660  145.6880 C   0  0  0  0  0  0  0  0  0  0  0  0
  186.5560  178.2340  143.5470 N   0  0  1  0  0  0  0  0  0  0  0  0
  184.5460  179.8030  143.8500 S   0  0  0  0  0  0  0  0  0  0  0  0
  188.7720  177.2700  143.9690 C   0  0  0  0  0  2  0  0  0  0  0  0
  189.3810  176.1480  143.1390 C   0  0  0  0  0  2  0  0  0  0  0  0
  190.8960  176.1920  143.2180 C   0  0  0  0  0  1  0  0  0  0  0  0
  1  4  1  0  0  0  0
  2  7  1  0  0  0  0
  3  2  2  0  0  0  0
  4 12  1  0  0  0  0
  5  7  1  0  0  0  0
  6  3  1  0  0  0  0
  6  5  2  0  0  0  0
  8 17  1  1  0  0  0
  8  6  1  0  0  0  0
  9 11  2  0  0  0  0
 10 44  1  0  0  0  0
 11 10  1  0  0  0  0
 12 10  2  0  0  0  0
 12  3  1  0  0  0  0
 13  9  1  0  0  0  0
 13  4  2  0  0  0  0
 14  1  1  0  0  0  0
 14  8  1  0  0  0  0
 15 18  1  0  0  0  0
 15 17  1  0  0  0  0
 17 16  2  0  0  0  0
 19 23  1  0  0  0  0
 20 22  1  0  0  0  0
 21 24  1  0  0  0  0
 23 22  1  0  0  0  0
 25 30  1  1  0  0  0
 25 26  1  0  0  0  0
 26 18  1  6  0  0  0
 26 27  1  0  0  0  0
 27 24  1  6  0  0  0
 27 20  1  0  0  0  0
 28 25  1  0  0  0  0
 28 21  1  0  0  0  0
 28 19  1  1  0  0  0
 29 30  1  0  0  0  0
 31 33  1  0  0  0  0
 31  9  1  0  0  0  0
 32 31  2  0  0  0  0
 33 34  1  0  0  0  0
 34 43  1  1  0  0  0
 36 38  1  6  0  0  0
 36 35  1  0  0  0  0
 36 37  1  0  0  0  0
 39 41  1  6  0  0  0
 39 34  1  0  0  0  0
 39 36  1  0  0  0  0
 39 35  1  0  0  0  0
 41 40  1  0  0  0  0
 42 43  1  0  0  0  0
 44 45  1  0  0  0  0
 45 46  1  0  0  0  0
 46 47  1  0  0  0  0
 49 54  1  0  0  0  0
 50 56  1  1  0  0  0
 50 54  1  0  0  0  0
 51 47  1  1  0  0  0
 51 48  1  0  0  0  0
 51 56  1  0  0  0  0
 52 57  1  1  0  0  0
 52 49  1  0  0  0  0
 54 53  2  0  0  0  0
 55 48  1  6  0  0  0
 55 52  1  0  0  0  0
 55 50  1  0  0  0  0
 58 59  1  0  0  0  0
 58 57  1  0  0  0  0
M  END
>  <MODEL>
1

>  <REMARK>
 VINA RESULT:      -7.5      0.000      0.000
  Name = 
  17 active torsions:
  status: ('A' for Active; 'I' for Inactive)
    1  A    between atoms: C_4  and  C_19
    2  A    between atoms: C_4  and  O_20
    3  A    between atoms: C_4  and  C_54
    4  A    between atoms: C_6  and  C_28
    5  A    between atoms: C_6  and  C_30
    6  A    between atoms: N_7  and  N_59
    7  A    between atoms: C_10  and  O_20
    8  A    between atoms: C_10  and  C_36
    9  A    between atoms: C_14  and  C_54
   10  A    between atoms: C_27  and  O_58
   11  A    between atoms: C_32  and  O_38
   12  A    between atoms: C_35  and  C_45
   13  A    between atoms: C_39  and  O_46
   14  A    between atoms: C_40  and  N_59
   15  A    between atoms: O_46  and  C_56
   16  A    between atoms: C_52  and  C_56
   17  A    between atoms: C_52  and  O_58
                            x       y       z     vdW  Elec       q    Type
                         _______ _______ _______ _____ _____    ______ ____

>  <TORSDO>
F 17

$$$$
=
 OpenBabel10232411313D

 59 66  0  0  1  0  0  0  0  0999 V2000
  191.0320  176.5710  138.6770 C   0  0  0  0  0  2  0  0  0  0  0  0
  187.4030  178.5900  137.6000 C   0  0  0  0  0  3  0  0  0  0  0  0
  188.3310  177.7230  137.9900 C   0  0  2  0  0  3  0  0  0  0  0  0
  190.1000  177.0900  139.7130 C   0  0  0  0  0  0  0  0  0  0  0  0
  187.9630  177.2770  135.7810 C   0  0  0  0  0  3  0  0  0  0  0  0
  188.6920  176.9000  136.8210 C   0  0  0  0  0  0  0  0  0  0  0  0
  187.0660  178.4000  136.1620 C   0  0  0  0  0  3  0  0  0  0  0  0
  189.7290  175.8110  136.6870 C   0  0  2  0  0  3  0  0  0  0  0  0
  189.7680  177.5280  142.0790 C   0  0  0  0  0  0  0  0  0  0  0  0
  188.0350  178.1340  140.4790 C   0  0  0  0  0  0  0  0  0  0  0  0
  188.5230  178.0850  141.7930 C   0  0  0  0  0  3  0  0  0  0  0  0
  188.8300  177.6380  139.4050 C   0  0  0  0  0  0  0  0  0  0  0  0
  190.5470  177.0330  141.0360 C   0  0  0  0  0  3  0  0  0  0  0  0
  190.4020  175.3820  137.9820 C   0  0  0  0  0  2  0  0  0  0  0  0
  192.0700  175.6520  135.7490 N   0  0  0  0  0  2  0  0  0  0  0  0
  190.3990  176.8030  134.6070 O   0  0  0  0  0  0  0  0  0  0  0  0
  190.7340  176.1300  135.6190 C   0  0  0  0  0  0  0  0  0  0  0  0
  192.9540  175.6920  134.6600 N   0  0  0  0  0  2  0  0  0  0  0  0
  195.7140  172.7880  137.0730 C   0  0  0  0  0  2  0  0  0  0  0  0
  196.1440  173.6830  134.3470 C   0  0  0  0  0  2  0  0  0  0  0  0
  195.1650  175.2280  137.1800 O   0  0  0  0  0  0  0  0  0  0  0  0
  197.3830  173.4320  135.2140 C   0  0  0  0  0  2  0  0  0  0  0  0
  197.1210  173.2720  136.7190 C   0  0  0  0  0  2  0  0  0  0  0  0
  195.7190  175.6950  135.9500 C   0  0  0  0  0  2  0  0  0  0  0  0
  193.5270  173.7720  136.0420 C   0  0  2  0  0  3  0  0  0  0  0  0
  193.8280  174.5270  134.7460 C   0  0  2  0  0  3  0  0  0  0  0  0
  195.3030  174.9310  134.6720 C   0  0  2  0  0  3  0  0  0  0  0  0
  194.6460  173.9080  137.0970 C   0  0  1  0  0  3  0  0  0  0  0  0
  191.5840  172.4320  135.2960 S   0  0  0  0  0  1  0  0  0  0  0  0
  193.2360  172.4330  135.7710 O   0  0  0  0  0  0  0  0  0  0  0  0
  190.2580  177.4600  143.4660 C   0  0  0  0  0  0  0  0  0  0  0  0
  191.3500  176.8870  143.7220 O   0  0  0  0  0  0  0  0  0  0  0  0
  189.4960  178.0240  144.4940 O   0  0  0  0  0  0  0  0  0  0  0  0
  189.1910  177.3190  145.6960 C   0  0  2  0  0  3  0  0  0  0  0  0
  186.8340  176.9110  146.2780 O   0  0  0  0  0  0  0  0  0  0  0  0
  186.6920  178.1280  145.5770 C   0  0  1  0  0  0  0  0  0  0  0  0
  186.7200  177.9270  144.2080 F   0  0  0  0  0  0  0  0  0  0  0  0
  185.5740  178.9730  146.1610 C   0  0  0  0  0  1  0  0  0  0  0  0
  187.9060  177.8230  146.3820 C   0  0  2  0  0  0  0  0  0  0  0  0
  187.7570  177.4170  148.7390 O   0  0  0  0  0  1  0  0  0  0  0  0
  188.0110  178.4050  147.7850 C   0  0  0  0  0  2  0  0  0  0  0  0
  190.5770  176.1110  147.2430 O   0  0  0  0  0  1  0  0  0  0  0  0
  190.3810  177.3600  146.6470 C   0  0  0  0  0  2  0  0  0  0  0  0
  186.7570  178.6550  140.2310 O   0  0  0  0  0  0  0  0  0  0  0  0
  185.8710  179.1250  141.2430 C   0  0  0  0  0  2  0  0  0  0  0  0
  184.6660  178.2030  141.3900 C   0  0  0  0  0  2  0  0  0  0  0  0
  183.4930  178.9500  141.5420 O   0  0  0  0  0  0  0  0  0  0  0  0
  183.0400  177.3230  139.8190 C   0  0  0  0  0  2  0  0  0  0  0  0
  181.9130  178.2030  136.5550 O   0  0  0  0  0  0  0  0  0  0  0  0
  181.9850  178.9330  138.7160 C   0  0  2  0  0  3  0  0  0  0  0  0
  182.4680  178.1930  140.9640 C   0  0  2  0  0  3  0  0  0  0  0  0
  182.5760  177.2230  137.3620 C   0  0  1  0  0  3  0  0  0  0  0  0
  180.8320  180.3120  136.9730 C   0  0  0  0  0  2  0  0  0  0  0  0
  181.4680  179.2230  137.3780 C   0  0  0  0  0  0  0  0  0  0  0  0
  182.1160  177.5050  138.7240 N   0  0  1  0  0  0  0  0  0  0  0  0
  181.2000  179.3470  140.2620 S   0  0  0  0  0  0  0  0  0  0  0  0
  182.1160  175.8360  136.9250 C   0  0  0  0  0  2  0  0  0  0  0  0
  183.2930  174.9380  136.5680 C   0  0  0  0  0  2  0  0  0  0  0  0
  184.6030  175.6760  136.7700 C   0  0  0  0  0  1  0  0  0  0  0  0
  1  4  1  0  0  0  0
  3  2  1  1  0  0  0
  3 12  1  0  0  0  0
  4 13  1  0  0  0  0
  5  7  1  0  0  0  0
  5  6  2  0  0  0  0
  6  3  1  0  0  0  0
  7  2  2  0  0  0  0
  8 17  1  6  0  0  0
  8  6  1  0  0  0  0
  8 14  1  0  0  0  0
  9 31  1  0  0  0  0
 10 11  2  0  0  0  0
 11  9  1  0  0  0  0
 12  4  2  0  0  0  0
 12 10  1  0  0  0  0
 13  9  2  0  0  0  0
 14  1  1  0  0  0  0
 16 17  2  0  0  0  0
 17 15  1  0  0  0  0
 18 15  1  0  0  0  0
 20 22  1  0  0  0  0
 22 23  1  0  0  0  0
 23 19  1  0  0  0  0
 24 21  1  0  0  0  0
 25 30  1  6  0  0  0
 25 28  1  0  0  0  0
 26 18  1  1  0  0  0
 26 25  1  0  0  0  0
 27 20  1  1  0  0  0
 27 26  1  0  0  0  0
 27 24  1  0  0  0  0
 28 19  1  6  0  0  0
 28 21  1  0  0  0  0
 29 30  1  0  0  0  0
 31 32  2  0  0  0  0
 31 33  1  0  0  0  0
 33 34  1  0  0  0  0
 34 39  1  0  0  0  0
 34 43  1  1  0  0  0
 35 39  1  0  0  0  0
 36 38  1  1  0  0  0
 36 35  1  0  0  0  0
 36 39  1  0  0  0  0
 37 36  1  0  0  0  0
 39 41  1  1  0  0  0
 41 40  1  0  0  0  0
 43 42  1  0  0  0  0
 44 10  1  0  0  0  0
 44 45  1  0  0  0  0
 45 46  1  0  0  0  0
 46 47  1  0  0  0  0
 48 51  1  0  0  0  0
 49 52  1  0  0  0  0
 49 54  1  0  0  0  0
 50 54  1  6  0  0  0
 50 55  1  0  0  0  0
 50 56  1  0  0  0  0
 51 47  1  6  0  0  0
 52 57  1  6  0  0  0
 52 55  1  0  0  0  0
 53 54  2  0  0  0  0
 55 48  1  1  0  0  0
 56 51  1  0  0  0  0
 58 59  1  0  0  0  0
 58 57  1  0  0  0  0
M  END
>  <MODEL>
2

>  <REMARK>
 VINA RESULT:      -7.1      2.805      7.554
  Name = 
  17 active torsions:
  status: ('A' for Active; 'I' for Inactive)
    1  A    between atoms: C_4  and  C_19
    2  A    between atoms: C_4  and  O_20
    3  A    between atoms: C_4  and  C_54
    4  A    between atoms: C_6  and  C_28
    5  A    between atoms: C_6  and  C_30
    6  A    between atoms: N_7  and  N_59
    7  A    between atoms: C_10  and  O_20
    8  A    between atoms: C_10  and  C_36
    9  A    between atoms: C_14  and  C_54
   10  A    between atoms: C_27  and  O_58
   11  A    between atoms: C_32  and  O_38
   12  A    between atoms: C_35  and  C_45
   13  A    between atoms: C_39  and  O_46
   14  A    between atoms: C_40  and  N_59
   15  A    between atoms: O_46  and  C_56
   16  A    between atoms: C_52  and  C_56
   17  A    between atoms: C_52  and  O_58
                            x       y       z     vdW  Elec       q    Type
                         _______ _______ _______ _____ _____    ______ ____

>  <TORSDO>
F 17

$$$$
=
 OpenBabel10232411313D

 59 66  0  0  1  0  0  0  0  0999 V2000
  191.5930  176.4250  139.3100 C   0  0  0  0  0  2  0  0  0  0  0  0
  188.9680  178.2480  136.4490 C   0  0  0  0  0  3  0  0  0  0  0  0
  189.5870  177.4360  137.2990 C   0  0  2  0  0  3  0  0  0  0  0  0
  190.2580  176.9450  139.7090 C   0  0  0  0  0  0  0  0  0  0  0  0
  190.3880  176.8900  135.2310 C   0  0  0  0  0  3  0  0  0  0  0  0
  190.5010  176.5840  136.5160 C   0  0  0  0  0  0  0  0  0  0  0  0
  189.4040  177.9890  135.0490 C   0  0  0  0  0  3  0  0  0  0  0  0
  191.4820  175.5350  136.9800 C   0  0  2  0  0  3  0  0  0  0  0  0
  188.7720  177.4590  141.5600 C   0  0  0  0  0  0  0  0  0  0  0  0
  188.0720  177.9310  139.2760 C   0  0  0  0  0  0  0  0  0  0  0  0
  187.8320  177.9530  140.6580 C   0  0  0  0  0  3  0  0  0  0  0  0
  189.3070  177.4270  138.7750 C   0  0  0  0  0  0  0  0  0  0  0  0
  189.9790  176.9580  141.0780 C   0  0  0  0  0  3  0  0  0  0  0  0
  191.4180  175.1850  138.4590 C   0  0  0  0  0  2  0  0  0  0  0  0
  193.5090  175.0490  135.5510 N   0  0  0  0  0  2  0  0  0  0  0  0
  193.4970  176.8350  137.0440 O   0  0  0  0  0  0  0  0  0  0  0  0
  192.8820  175.8540  136.5460 C   0  0  0  0  0  0  0  0  0  0  0  0
  194.6930  175.4710  134.9280 N   0  0  0  0  0  2  0  0  0  0  0  0
  197.2520  171.9780  136.6940 C   0  0  0  0  0  2  0  0  0  0  0  0
  197.9020  173.5550  134.3460 C   0  0  0  0  0  2  0  0  0  0  0  0
  196.6900  174.3120  137.4010 O   0  0  0  0  0  0  0  0  0  0  0  0
  199.0670  173.0590  135.2110 C   0  0  0  0  0  2  0  0  0  0  0  0
  198.6820  172.5110  136.5930 C   0  0  0  0  0  2  0  0  0  0  0  0
  197.3430  175.0780  136.3870 C   0  0  0  0  0  2  0  0  0  0  0  0
  195.1540  173.2430  135.7910 C   0  0  2  0  0  3  0  0  0  0  0  0
  195.5590  174.3090  134.7700 C   0  0  2  0  0  3  0  0  0  0  0  0
  197.0350  174.6890  134.9230 C   0  0  2  0  0  3  0  0  0  0  0  0
  196.1830  173.0720  136.9290 C   0  0  1  0  0  3  0  0  0  0  0  0
  193.5110  171.4010  135.9610 S   0  0  0  0  0  1  0  0  0  0  0  0
  194.8900  172.0300  135.1510 O   0  0  0  0  0  0  0  0  0  0  0  0
  188.4980  177.4660  143.0060 C   0  0  0  0  0  0  0  0  0  0  0  0
  187.5040  178.0950  143.4580 O   0  0  0  0  0  0  0  0  0  0  0  0
  189.3560  176.7830  143.8730 O   0  0  0  0  0  0  0  0  0  0  0  0
  190.3750  177.4430  144.6220 C   0  0  2  0  0  3  0  0  0  0  0  0
  189.1530  176.4030  146.4880 O   0  0  0  0  0  0  0  0  0  0  0  0
  189.0090  177.7610  146.8460 C   0  0  1  0  0  0  0  0  0  0  0  0
  188.0080  178.3720  146.1120 F   0  0  0  0  0  0  0  0  0  0  0  0
  189.0100  177.9360  148.3540 C   0  0  0  0  0  1  0  0  0  0  0  0
  190.2210  177.2580  146.1440 C   0  0  2  0  0  0  0  0  0  0  0  0
  191.8910  175.6470  146.7440 O   0  0  0  0  0  1  0  0  0  0  0  0
  191.4660  176.9580  146.9700 C   0  0  0  0  0  2  0  0  0  0  0  0
  191.7320  179.2820  143.8780 O   0  0  0  0  0  1  0  0  0  0  0  0
  190.4330  178.9190  144.2440 C   0  0  0  0  0  2  0  0  0  0  0  0
  187.0840  178.3890  138.3920 O   0  0  0  0  0  0  0  0  0  0  0  0
  185.6880  178.3970  138.6820 C   0  0  0  0  0  2  0  0  0  0  0  0
  184.9110  177.5740  137.6620 C   0  0  0  0  0  2  0  0  0  0  0  0
  185.5600  177.5880  136.4230 O   0  0  0  0  0  0  0  0  0  0  0  0
  184.5360  175.4350  136.7910 C   0  0  0  0  0  2  0  0  0  0  0  0
  186.4000  172.4910  137.5330 O   0  0  0  0  0  0  0  0  0  0  0  0
  186.5540  174.5450  136.5530 C   0  0  2  0  0  3  0  0  0  0  0  0
  185.2070  176.3960  135.7800 C   0  0  2  0  0  3  0  0  0  0  0  0
  185.1340  173.1540  137.6270 C   0  0  1  0  0  3  0  0  0  0  0  0
  188.5290  173.0080  136.5380 C   0  0  0  0  0  2  0  0  0  0  0  0
  187.2630  173.2910  136.8050 C   0  0  0  0  0  0  0  0  0  0  0  0
  185.1730  174.1590  136.5620 N   0  0  1  0  0  0  0  0  0  0  0  0
  186.7430  175.5960  135.1250 S   0  0  0  0  0  0  0  0  0  0  0  0
  184.0280  172.1390  137.3560 C   0  0  0  0  0  2  0  0  0  0  0  0
  184.0630  171.6370  135.9200 C   0  0  0  0  0  2  0  0  0  0  0  0
  183.8580  170.1340  135.8770 C   0  0  0  0  0  1  0  0  0  0  0  0
  1  4  1  0  0  0  0
  3  2  1  6  0  0  0
  3 12  1  0  0  0  0
  4 13  1  0  0  0  0
  5  6  2  0  0  0  0
  6  8  1  0  0  0  0
  6  3  1  0  0  0  0
  7  5  1  0  0  0  0
  7  2  2  0  0  0  0
  8 17  1  1  0  0  0
  8 14  1  0  0  0  0
  9 31  1  0  0  0  0
 10 11  2  0  0  0  0
 11  9  1  0  0  0  0
 12 10  1  0  0  0  0
 12  4  2  0  0  0  0
 13  9  2  0  0  0  0
 14  1  1  0  0  0  0
 15 17  1  0  0  0  0
 17 16  2  0  0  0  0
 18 15  1  0  0  0  0
 20 22  1  0  0  0  0
 22 23  1  0  0  0  0
 23 19  1  0  0  0  0
 24 21  1  0  0  0  0
 25 30  1  6  0  0  0
 25 28  1  0  0  0  0
 26 27  1  0  0  0  0
 26 18  1  1  0  0  0
 26 25  1  0  0  0  0
 27 20  1  1  0  0  0
 27 24  1  0  0  0  0
 28 19  1  6  0  0  0
 28 21  1  0  0  0  0
 30 29  1  0  0  0  0
 31 32  2  0  0  0  0
 31 33  1  0  0  0  0
 33 34  1  0  0  0  0
 34 43  1  1  0  0  0
 34 39  1  0  0  0  0
 35 36  1  0  0  0  0
 36 38  1  1  0  0  0
 37 36  1  0  0  0  0
 39 35  1  0  0  0  0
 39 36  1  0  0  0  0
 39 41  1  1  0  0  0
 40 41  1  0  0  0  0
 42 43  1  0  0  0  0
 44 45  1  0  0  0  0
 44 10  1  0  0  0  0
 46 45  1  0  0  0  0
 47 46  1  0  0  0  0
 49 52  1  0  0  0  0
 50 56  1  6  0  0  0
 50 55  1  0  0  0  0
 50 54  1  0  0  0  0
 51 47  1  1  0  0  0
 51 48  1  0  0  0  0
 52 57  1  6  0  0  0
 53 54  2  0  0  0  0
 54 49  1  0  0  0  0
 55 48  1  1  0  0  0
 55 52  1  0  0  0  0
 56 51  1  0  0  0  0
 58 57  1  0  0  0  0
 59 58  1  0  0  0  0
M  END
>  <MODEL>
3

>  <REMARK>
 VINA RESULT:      -7.0      3.335      7.971
  Name = 
  17 active torsions:
  status: ('A' for Active; 'I' for Inactive)
    1  A    between atoms: C_4  and  C_19
    2  A    between atoms: C_4  and  O_20
    3  A    between atoms: C_4  and  C_54
    4  A    between atoms: C_6  and  C_28
    5  A    between atoms: C_6  and  C_30
    6  A    between atoms: N_7  and  N_59
    7  A    between atoms: C_10  and  O_20
    8  A    between atoms: C_10  and  C_36
    9  A    between atoms: C_14  and  C_54
   10  A    between atoms: C_27  and  O_58
   11  A    between atoms: C_32  and  O_38
   12  A    between atoms: C_35  and  C_45
   13  A    between atoms: C_39  and  O_46
   14  A    between atoms: C_40  and  N_59
   15  A    between atoms: O_46  and  C_56
   16  A    between atoms: C_52  and  C_56
   17  A    between atoms: C_52  and  O_58
                            x       y       z     vdW  Elec       q    Type
                         _______ _______ _______ _____ _____    ______ ____

>  <TORSDO>
F 17

$$$$
=
 OpenBabel10232411313D

 59 66  0  0  1  0  0  0  0  0999 V2000
  189.0380  176.0340  135.5280 C   0  0  0  0  0  2  0  0  0  0  0  0
  189.1310  178.2480  139.2010 C   0  0  0  0  0  3  0  0  0  0  0  0
  189.0890  177.3130  138.2580 C   0  0  0  0  0  0  0  0  0  0  0  0
  190.2810  176.1320  136.3390 C   0  0  0  0  0  0  0  0  0  0  0  0
  186.9160  177.6840  138.8570 C   0  0  0  0  0  3  0  0  0  0  0  0
  187.6720  176.9700  138.0350 C   0  0  0  0  0  0  0  0  0  0  0  0
  187.7640  178.5820  139.6850 C   0  0  0  0  0  2  0  0  0  0  0  0
  187.0510  176.0180  137.0410 C   0  0  2  0  0  3  0  0  0  0  0  0
  192.6670  175.6860  136.4220 C   0  0  0  0  0  0  0  0  0  0  0  0
  191.5750  176.8000  138.2930 C   0  0  0  0  0  0  0  0  0  0  0  0
  192.7280  176.2890  137.6770 C   0  0  0  0  0  3  0  0  0  0  0  0
  190.3200  176.7340  137.6220 C   0  0  0  0  0  0  0  0  0  0  0  0
  191.4420  175.6110  135.7630 C   0  0  0  0  0  3  0  0  0  0  0  0
  188.0310  175.1630  136.2510 C   0  0  0  0  0  2  0  0  0  0  0  0
  184.6960  176.3530  136.1900 N   0  0  0  0  0  2  0  0  0  0  0  0
  186.4610  177.6250  135.3600 O   0  0  0  0  0  0  0  0  0  0  0  0
  186.0730  176.7150  136.1420 C   0  0  0  0  0  0  0  0  0  0  0  0
  183.7220  177.1560  135.5770 N   0  0  0  0  0  2  0  0  0  0  0  0
  180.0980  178.7580  138.0600 C   0  0  0  0  0  2  0  0  0  0  0  0
  181.4210  176.2000  138.4230 C   0  0  0  0  0  2  0  0  0  0  0  0
  182.5250  179.3380  137.8690 O   0  0  0  0  0  0  0  0  0  0  0  0
  180.8590  176.8910  139.6720 C   0  0  0  0  0  2  0  0  0  0  0  0
  180.4580  178.3630  139.4940 C   0  0  0  0  0  2  0  0  0  0  0  0
  183.1380  178.1620  138.3970 C   0  0  0  0  0  2  0  0  0  0  0  0
  181.5230  178.1230  135.9680 C   0  0  2  0  0  3  0  0  0  0  0  0
  182.4620  176.9550  136.2820 C   0  0  2  0  0  3  0  0  0  0  0  0
  182.6830  176.8150  137.7910 C   0  0  2  0  0  3  0  0  0  0  0  0
  181.3190  179.0750  137.1650 C   0  0  1  0  0  3  0  0  0  0  0  0
  180.6970  176.1780  134.6790 S   0  0  0  0  0  1  0  0  0  0  0  0
  180.3050  177.6510  135.4740 O   0  0  0  0  0  0  0  0  0  0  0  0
  193.8790  175.1330  135.7970 C   0  0  0  0  0  0  0  0  0  0  0  0
  193.7850  174.3940  134.7800 O   0  0  0  0  0  0  0  0  0  0  0  0
  195.1320  175.4220  136.3470 O   0  0  0  0  0  0  0  0  0  0  0  0
  195.7080  174.6410  137.3920 C   0  0  2  0  0  3  0  0  0  0  0  0
  197.7480  175.8230  136.6850 O   0  0  0  0  0  0  0  0  0  0  0  0
  198.0630  174.5250  136.2280 C   0  0  1  0  0  0  0  0  0  0  0  0
  197.4270  174.2450  135.0310 F   0  0  0  0  0  0  0  0  0  0  0  0
  199.5510  174.2480  136.3380 C   0  0  0  0  0  1  0  0  0  0  0  0
  197.2440  174.7500  137.4500 C   0  0  2  0  0  0  0  0  0  0  0  0
  198.3830  175.9210  139.2030 O   0  0  0  0  0  1  0  0  0  0  0  0
  197.9290  174.6620  138.8080 C   0  0  0  0  0  2  0  0  0  0  0  0
  195.2370  172.5770  138.5310 O   0  0  0  0  0  1  0  0  0  0  0  0
  195.2580  173.1890  137.2750 C   0  0  0  0  0  2  0  0  0  0  0  0
  191.6620  177.3540  139.5780 O   0  0  0  0  0  0  0  0  0  0  0  0
  192.8390  177.3400  140.3810 C   0  0  0  0  0  2  0  0  0  0  0  0
  192.4970  177.1540  141.8540 C   0  0  0  0  0  2  0  0  0  0  0  0
  191.3670  177.9070  142.1940 O   0  0  0  0  0  0  0  0  0  0  0  0
  189.2590  177.7880  143.3590 C   0  0  0  0  0  2  0  0  0  0  0  0
  189.0020  177.5960  146.9080 O   0  0  0  0  0  0  0  0  0  0  0  0
  190.4020  177.1700  145.1580 C   0  0  2  0  0  3  0  0  0  0  0  0
  190.4480  177.0100  142.7470 C   0  0  2  0  0  3  0  0  0  0  0  0
  188.3510  177.9580  145.6860 C   0  0  1  0  0  3  0  0  0  0  0  0
  191.1150  176.6030  147.4890 C   0  0  0  0  0  2  0  0  0  0  0  0
  190.2290  177.0330  146.6030 C   0  0  0  0  0  0  0  0  0  0  0  0
  189.0570  177.1890  144.6580 N   0  0  1  0  0  0  0  0  0  0  0  0
  191.2880  176.0510  144.0900 S   0  0  0  0  0  0  0  0  0  0  0  0
  186.8900  177.5240  145.7600 C   0  0  0  0  0  2  0  0  0  0  0  0
  186.1000  178.3710  146.7470 C   0  0  0  0  0  2  0  0  0  0  0  0
  184.6600  178.5150  146.2890 C   0  0  0  0  0  1  0  0  0  0  0  0
  1 14  1  0  0  0  0
  1  4  1  0  0  0  0
  2  7  1  0  0  0  0
  3  2  2  0  0  0  0
  4 12  1  0  0  0  0
  5  7  1  0  0  0  0
  6  3  1  0  0  0  0
  6  5  2  0  0  0  0
  8 17  1  6  0  0  0
  8  6  1  0  0  0  0
  9 11  2  0  0  0  0
 10 44  1  0  0  0  0
 11 10  1  0  0  0  0
 12  3  1  0  0  0  0
 12 10  2  0  0  0  0
 13  4  2  0  0  0  0
 13  9  1  0  0  0  0
 14  8  1  0  0  0  0
 16 17  2  0  0  0  0
 17 15  1  0  0  0  0
 18 15  1  0  0  0  0
 19 23  1  0  0  0  0
 20 22  1  0  0  0  0
 21 24  1  0  0  0  0
 23 22  1  0  0  0  0
 25 30  1  1  0  0  0
 25 26  1  0  0  0  0
 25 28  1  0  0  0  0
 26 18  1  6  0  0  0
 26 27  1  0  0  0  0
 27 24  1  1  0  0  0
 27 20  1  0  0  0  0
 28 21  1  0  0  0  0
 28 19  1  1  0  0  0
 29 30  1  0  0  0  0
 31 33  1  0  0  0  0
 31  9  1  0  0  0  0
 32 31  2  0  0  0  0
 33 34  1  0  0  0  0
 34 43  1  6  0  0  0
 34 39  1  0  0  0  0
 35 39  1  0  0  0  0
 36 38  1  1  0  0  0
 36 35  1  0  0  0  0
 36 39  1  0  0  0  0
 37 36  1  0  0  0  0
 39 41  1  1  0  0  0
 41 40  1  0  0  0  0
 43 42  1  0  0  0  0
 44 45  1  0  0  0  0
 45 46  1  0  0  0  0
 46 47  1  0  0  0  0
 50 56  1  6  0  0  0
 50 54  1  0  0  0  0
 51 47  1  1  0  0  0
 51 48  1  0  0  0  0
 51 56  1  0  0  0  0
 52 57  1  1  0  0  0
 52 49  1  0  0  0  0
 54 49  1  0  0  0  0
 54 53  2  0  0  0  0
 55 48  1  6  0  0  0
 55 50  1  0  0  0  0
 55 52  1  0  0  0  0
 57 58  1  0  0  0  0
 59 58  1  0  0  0  0
M  END
>  <MODEL>
4

>  <REMARK>
 VINA RESULT:      -6.8      3.748     10.495
  Name = 
  17 active torsions:
  status: ('A' for Active; 'I' for Inactive)
    1  A    between atoms: C_4  and  C_19
    2  A    between atoms: C_4  and  O_20
    3  A    between atoms: C_4  and  C_54
    4  A    between atoms: C_6  and  C_28
    5  A    between atoms: C_6  and  C_30
    6  A    between atoms: N_7  and  N_59
    7  A    between atoms: C_10  and  O_20
    8  A    between atoms: C_10  and  C_36
    9  A    between atoms: C_14  and  C_54
   10  A    between atoms: C_27  and  O_58
   11  A    between atoms: C_32  and  O_38
   12  A    between atoms: C_35  and  C_45
   13  A    between atoms: C_39  and  O_46
   14  A    between atoms: C_40  and  N_59
   15  A    between atoms: O_46  and  C_56
   16  A    between atoms: C_52  and  C_56
   17  A    between atoms: C_52  and  O_58
                            x       y       z     vdW  Elec       q    Type
                         _______ _______ _______ _____ _____    ______ ____

>  <TORSDO>
F 17

$$$$
=
 OpenBabel10232411313D

 59 66  0  0  1  0  0  0  0  0999 V2000
  192.2400  176.3470  138.5600 C   0  0  0  0  0  2  0  0  0  0  0  0
  188.7010  177.8220  136.6360 C   0  0  0  0  0  3  0  0  0  0  0  0
  189.6120  177.1180  137.3000 C   0  0  2  0  0  3  0  0  0  0  0  0
  191.1220  176.9320  139.3460 C   0  0  0  0  0  0  0  0  0  0  0  0
  189.6330  176.2990  135.1690 C   0  0  0  0  0  3  0  0  0  0  0  0
  190.2100  176.1600  136.3530 C   0  0  0  0  0  0  0  0  0  0  0  0
  188.6120  177.3790  135.2180 C   0  0  0  0  0  3  0  0  0  0  0  0
  191.3280  175.1650  136.5590 C   0  0  2  0  0  3  0  0  0  0  0  0
  190.3850  177.7020  141.5290 C   0  0  0  0  0  0  0  0  0  0  0  0
  188.8940  177.8850  139.6120 C   0  0  0  0  0  0  0  0  0  0  0  0
  189.1670  178.0880  140.9730 C   0  0  0  0  0  3  0  0  0  0  0  0
  189.8820  177.3030  138.7660 C   0  0  0  0  0  0  0  0  0  0  0  0
  191.3540  177.1250  140.7100 C   0  0  0  0  0  3  0  0  0  0  0  0
  191.8130  175.0100  137.9930 C   0  0  0  0  0  2  0  0  0  0  0  0
  193.4430  174.3870  135.4160 N   0  0  0  0  0  2  0  0  0  0  0  0
  192.5520  176.4940  134.9810 O   0  0  0  0  0  0  0  0  0  0  0  0
  192.4660  175.4060  135.6120 C   0  0  0  0  0  0  0  0  0  0  0  0
  194.3540  174.4620  134.3510 N   0  0  0  0  0  2  0  0  0  0  0  0
  197.7240  173.3690  137.4040 C   0  0  0  0  0  2  0  0  0  0  0  0
  198.0390  173.6280  134.5310 C   0  0  0  0  0  2  0  0  0  0  0  0
  196.4010  175.4250  136.8670 O   0  0  0  0  0  0  0  0  0  0  0  0
  199.2240  174.0370  135.4130 C   0  0  0  0  0  2  0  0  0  0  0  0
  198.9180  174.1890  136.9100 C   0  0  0  0  0  2  0  0  0  0  0  0
  196.8620  175.7200  135.5480 C   0  0  0  0  0  2  0  0  0  0  0  0
  195.4180  173.2660  136.1840 C   0  0  2  0  0  3  0  0  0  0  0  0
  195.5510  173.7210  134.7280 C   0  0  2  0  0  3  0  0  0  0  0  0
  196.8150  174.5620  134.5260 C   0  0  2  0  0  3  0  0  0  0  0  0
  196.3500  174.0330  137.1460 C   0  0  1  0  0  3  0  0  0  0  0  0
  194.0190  171.2250  136.1790 S   0  0  0  0  0  1  0  0  0  0  0  0
  195.6020  171.8850  136.2830 O   0  0  0  0  0  0  0  0  0  0  0  0
  190.6510  177.8990  142.9630 C   0  0  0  0  0  0  0  0  0  0  0  0
  191.4020  178.8360  143.3440 O   0  0  0  0  0  0  0  0  0  0  0  0
  190.0750  177.0310  143.8960 O   0  0  0  0  0  0  0  0  0  0  0  0
  189.4600  177.4960  145.0970 C   0  0  2  0  0  3  0  0  0  0  0  0
  191.4630  177.6280  146.5210 O   0  0  0  0  0  0  0  0  0  0  0  0
  191.4500  176.2400  146.2690 C   0  0  1  0  0  0  0  0  0  0  0  0
  191.9680  175.9500  145.0190 F   0  0  0  0  0  0  0  0  0  0  0  0
  191.9660  175.4580  147.4640 C   0  0  0  0  0  1  0  0  0  0  0  0
  190.1940  177.0300  146.3700 C   0  0  2  0  0  0  0  0  0  0  0  0
  189.6170  178.2060  148.3770 O   0  0  0  0  0  1  0  0  0  0  0  0
  189.4260  177.0080  147.6850 C   0  0  0  0  0  2  0  0  0  0  0  0
  187.2000  178.1520  145.5820 O   0  0  0  0  0  1  0  0  0  0  0  0
  187.9900  177.0940  145.1250 C   0  0  0  0  0  2  0  0  0  0  0  0
  187.6390  178.2380  139.0950 O   0  0  0  0  0  0  0  0  0  0  0  0
  186.4660  178.4140  139.8850 C   0  0  0  0  0  2  0  0  0  0  0  0
  185.2520  178.6970  139.0090 C   0  0  0  0  0  2  0  0  0  0  0  0
  184.2340  177.7720  139.2690 O   0  0  0  0  0  0  0  0  0  0  0  0
  182.8740  176.1360  138.1310 C   0  0  0  0  0  2  0  0  0  0  0  0
  184.2400  173.4570  136.2190 O   0  0  0  0  0  0  0  0  0  0  0  0
  184.6970  175.5480  137.0110 C   0  0  2  0  0  3  0  0  0  0  0  0
  183.6510  177.4710  138.0330 C   0  0  2  0  0  3  0  0  0  0  0  0
  183.1130  173.9370  136.9600 C   0  0  1  0  0  3  0  0  0  0  0  0
  186.3770  174.3620  135.5820 C   0  0  0  0  0  2  0  0  0  0  0  0
  185.1920  174.4610  136.1660 C   0  0  0  0  0  0  0  0  0  0  0  0
  183.2720  175.3930  136.9570 N   0  0  1  0  0  0  0  0  0  0  0  0
  184.9950  177.2880  136.7710 S   0  0  0  0  0  0  0  0  0  0  0  0
  181.8370  173.5440  136.2210 C   0  0  0  0  0  2  0  0  0  0  0  0
  181.8850  172.1000  135.7430 C   0  0  0  0  0  2  0  0  0  0  0  0
  180.8070  171.2780  136.4250 C   0  0  0  0  0  1  0  0  0  0  0  0
  1  4  1  0  0  0  0
  3  2  1  1  0  0  0
  3 12  1  0  0  0  0
  4 13  1  0  0  0  0
  5  7  1  0  0  0  0
  5  6  2  0  0  0  0
  6  8  1  0  0  0  0
  6  3  1  0  0  0  0
  7  2  2  0  0  0  0
  8 17  1  6  0  0  0
  8 14  1  0  0  0  0
  9 31  1  0  0  0  0
 10 11  2  0  0  0  0
 11  9  1  0  0  0  0
 12  4  2  0  0  0  0
 12 10  1  0  0  0  0
 13  9  2  0  0  0  0
 14  1  1  0  0  0  0
 15 17  1  0  0  0  0
 16 17  2  0  0  0  0
 18 15  1  0  0  0  0
 20 22  1  0  0  0  0
 21 28  1  0  0  0  0
 22 23  1  0  0  0  0
 23 19  1  0  0  0  0
 24 21  1  0  0  0  0
 25 30  1  6  0  0  0
 25 28  1  0  0  0  0
 26 18  1  1  0  0  0
 26 25  1  0  0  0  0
 27 20  1  1  0  0  0
 27 26  1  0  0  0  0
 27 24  1  0  0  0  0
 28 19  1  6  0  0  0
 29 30  1  0  0  0  0
 31 32  2  0  0  0  0
 31 33  1  0  0  0  0
 33 34  1  0  0  0  0
 34 43  1  1  0  0  0
 34 39  1  0  0  0  0
 36 39  1  0  0  0  0
 36 35  1  0  0  0  0
 36 38  1  1  0  0  0
 37 36  1  0  0  0  0
 39 35  1  0  0  0  0
 39 41  1  1  0  0  0
 41 40  1  0  0  0  0
 43 42  1  0  0  0  0
 44 10  1  0  0  0  0
 44 45  1  0  0  0  0
 46 47  1  0  0  0  0
 46 45  1  0  0  0  0
 49 52  1  0  0  0  0
 50 54  1  6  0  0  0
 51 48  1  0  0  0  0
 51 47  1  1  0  0  0
 52 57  1  6  0  0  0
 53 54  2  0  0  0  0
 54 49  1  0  0  0  0
 55 52  1  0  0  0  0
 55 50  1  0  0  0  0
 55 48  1  1  0  0  0
 56 50  1  0  0  0  0
 56 51  1  0  0  0  0
 58 57  1  0  0  0  0
 58 59  1  0  0  0  0
M  END
>  <MODEL>
5

>  <REMARK>
 VINA RESULT:      -6.4      2.994      8.073
  Name = 
  17 active torsions:
  status: ('A' for Active; 'I' for Inactive)
    1  A    between atoms: C_4  and  C_19
    2  A    between atoms: C_4  and  O_20
    3  A    between atoms: C_4  and  C_54
    4  A    between atoms: C_6  and  C_28
    5  A    between atoms: C_6  and  C_30
    6  A    between atoms: N_7  and  N_59
    7  A    between atoms: C_10  and  O_20
    8  A    between atoms: C_10  and  C_36
    9  A    between atoms: C_14  and  C_54
   10  A    between atoms: C_27  and  O_58
   11  A    between atoms: C_32  and  O_38
   12  A    between atoms: C_35  and  C_45
   13  A    between atoms: C_39  and  O_46
   14  A    between atoms: C_40  and  N_59
   15  A    between atoms: O_46  and  C_56
   16  A    between atoms: C_52  and  C_56
   17  A    between atoms: C_52  and  O_58
                            x       y       z     vdW  Elec       q    Type
                         _______ _______ _______ _____ _____    ______ ____

>  <TORSDO>
F 17

$$$$
=
 OpenBabel10232411313D

 59 66  0  0  1  0  0  0  0  0999 V2000
  187.2040  177.9000  138.7950 C   0  0  0  0  0  2  0  0  0  0  0  0
  189.9820  175.2820  136.8370 C   0  0  0  0  0  3  0  0  0  0  0  0
  189.3150  176.3180  137.3350 C   0  0  2  0  0  3  0  0  0  0  0  0
  188.5200  177.5760  139.4050 C   0  0  0  0  0  0  0  0  0  0  0  0
  188.6150  176.1170  135.1700 C   0  0  0  0  0  3  0  0  0  0  0  0
  188.4360  176.8350  136.2700 C   0  0  0  0  0  0  0  0  0  0  0  0
  189.6160  175.0440  135.4140 C   0  0  0  0  0  3  0  0  0  0  0  0
  187.4260  177.9560  136.3080 C   0  0  2  0  0  3  0  0  0  0  0  0
  189.9150  177.7500  141.3860 C   0  0  0  0  0  0  0  0  0  0  0  0
  190.7330  176.5530  139.4290 C   0  0  0  0  0  0  0  0  0  0  0  0
  190.9030  177.0030  140.7470 C   0  0  0  0  0  3  0  0  0  0  0  0
  189.5210  176.8300  138.7320 C   0  0  0  0  0  0  0  0  0  0  0  0
  188.7300  178.0310  140.7090 C   0  0  0  0  0  3  0  0  0  0  0  0
  187.4120  178.7850  137.5840 C   0  0  0  0  0  2  0  0  0  0  0  0
  185.2680  176.7900  136.9170 N   0  0  0  0  0  2  0  0  0  0  0  0
  185.5830  177.6910  134.7940 O   0  0  0  0  0  0  0  0  0  0  0  0
  186.0510  177.4760  135.9440 C   0  0  0  0  0  0  0  0  0  0  0  0
  183.8980  176.5730  136.7110 N   0  0  0  0  0  2  0  0  0  0  0  0
  180.4510  177.6710  139.6740 C   0  0  0  0  0  2  0  0  0  0  0  0
  183.2550  177.3650  140.3530 C   0  0  0  0  0  2  0  0  0  0  0  0
  181.6230  178.8320  137.7930 O   0  0  0  0  0  0  0  0  0  0  0  0
  182.4470  178.4100  141.1330 C   0  0  0  0  0  2  0  0  0  0  0  0
  181.0750  178.7650  140.5420 C   0  0  0  0  0  2  0  0  0  0  0  0
  182.9400  178.9760  138.3280 C   0  0  0  0  0  2  0  0  0  0  0  0
  181.7390  176.3660  137.8160 C   0  0  2  0  0  3  0  0  0  0  0  0
  183.2520  176.4870  138.0160 C   0  0  2  0  0  3  0  0  0  0  0  0
  183.5990  177.6960  138.8900 C   0  0  2  0  0  3  0  0  0  0  0  0
  180.9710  177.6440  138.2170 C   0  0  1  0  0  3  0  0  0  0  0  0
  181.2660  173.9930  137.3000 S   0  0  0  0  0  1  0  0  0  0  0  0
  181.2470  175.2410  138.4810 O   0  0  0  0  0  0  0  0  0  0  0  0
  190.1150  178.2360  142.7610 C   0  0  0  0  0  0  0  0  0  0  0  0
  191.2780  178.4790  143.1820 O   0  0  0  0  0  0  0  0  0  0  0  0
  189.0090  178.4140  143.5970 O   0  0  0  0  0  0  0  0  0  0  0  0
  188.3610  177.3250  144.2520 C   0  0  2  0  0  3  0  0  0  0  0  0
  185.9860  176.9160  143.7520 O   0  0  0  0  0  0  0  0  0  0  0  0
  186.0140  178.3190  143.6070 C   0  0  1  0  0  0  0  0  0  0  0  0
  186.5370  178.6880  142.3800 F   0  0  0  0  0  0  0  0  0  0  0  0
  184.7050  178.9460  144.0520 C   0  0  0  0  0  1  0  0  0  0  0  0
  186.8840  177.6140  144.5860 C   0  0  2  0  0  0  0  0  0  0  0  0
  186.6920  178.7940  146.6630 O   0  0  0  0  0  1  0  0  0  0  0  0
  186.4460  177.5670  146.0440 C   0  0  0  0  0  2  0  0  0  0  0  0
  189.7760  178.0260  146.0640 O   0  0  0  0  0  1  0  0  0  0  0  0
  189.1430  176.9170  145.4950 C   0  0  0  0  0  2  0  0  0  0  0  0
  191.7670  175.8480  138.7960 O   0  0  0  0  0  0  0  0  0  0  0  0
  193.0050  176.4280  138.3940 C   0  0  0  0  0  2  0  0  0  0  0  0
  193.8960  175.4010  137.7080 C   0  0  0  0  0  2  0  0  0  0  0  0
  194.7040  176.0170  136.7460 O   0  0  0  0  0  0  0  0  0  0  0  0
  195.2410  173.6650  136.7230 C   0  0  0  0  0  2  0  0  0  0  0  0
  198.5160  172.4070  137.3500 O   0  0  0  0  0  0  0  0  0  0  0  0
  197.3780  174.2560  136.6460 C   0  0  2  0  0  3  0  0  0  0  0  0
  195.1920  174.9920  135.9280 C   0  0  2  0  0  3  0  0  0  0  0  0
  197.1120  172.1270  137.3570 C   0  0  1  0  0  3  0  0  0  0  0  0
  199.8810  174.2820  136.7080 C   0  0  0  0  0  2  0  0  0  0  0  0
  198.7090  173.6790  136.8390 C   0  0  0  0  0  0  0  0  0  0  0  0
  196.5430  173.1100  136.4310 N   0  0  1  0  0  0  0  0  0  0  0  0
  196.9090  175.4280  135.3880 S   0  0  0  0  0  0  0  0  0  0  0  0
  196.8910  170.7140  136.8270 C   0  0  0  0  0  2  0  0  0  0  0  0
  195.8610  169.9560  137.6540 C   0  0  0  0  0  2  0  0  0  0  0  0
  195.1460  168.9270  136.7980 C   0  0  0  0  0  1  0  0  0  0  0  0
  1  4  1  0  0  0  0
  3  2  1  6  0  0  0
  3 12  1  0  0  0  0
  4 13  1  0  0  0  0
  5  7  1  0  0  0  0
  5  6  2  0  0  0  0
  6  8  1  0  0  0  0
  6  3  1  0  0  0  0
  7  2  2  0  0  0  0
  8 17  1  1  0  0  0
  8 14  1  0  0  0  0
  9 31  1  0  0  0  0
 10 11  2  0  0  0  0
 11  9  1  0  0  0  0
 12  4  2  0  0  0  0
 12 10  1  0  0  0  0
 13  9  2  0  0  0  0
 14  1  1  0  0  0  0
 16 17  2  0  0  0  0
 17 15  1  0  0  0  0
 18 15  1  0  0  0  0
 19 23  1  0  0  0  0
 20 22  1  0  0  0  0
 21 28  1  0  0  0  0
 21 24  1  0  0  0  0
 23 22  1  0  0  0  0
 25 26  1  0  0  0  0
 25 28  1  0  0  0  0
 25 30  1  1  0  0  0
 26 18  1  6  0  0  0
 26 27  1  0  0  0  0
 27 24  1  6  0  0  0
 27 20  1  0  0  0  0
 28 19  1  1  0  0  0
 29 30  1  0  0  0  0
 31 32  2  0  0  0  0
 31 33  1  0  0  0  0
 33 34  1  0  0  0  0
 34 39  1  0  0  0  0
 34 43  1  1  0  0  0
 35 39  1  0  0  0  0
 36 35  1  0  0  0  0
 36 38  1  1  0  0  0
 36 39  1  0  0  0  0
 37 36  1  0  0  0  0
 39 41  1  1  0  0  0
 41 40  1  0  0  0  0
 43 42  1  0  0  0  0
 44 10  1  0  0  0  0
 45 44  1  0  0  0  0
 46 45  1  0  0  0  0
 47 46  1  0  0  0  0
 49 52  1  0  0  0  0
 50 56  1  6  0  0  0
 50 54  1  0  0  0  0
 51 48  1  0  0  0  0
 51 47  1  1  0  0  0
 52 57  1  6  0  0  0
 53 54  2  0  0  0  0
 54 49  1  0  0  0  0
 55 50  1  0  0  0  0
 55 48  1  1  0  0  0
 55 52  1  0  0  0  0
 56 51  1  0  0  0  0
 57 58  1  0  0  0  0
 59 58  1  0  0  0  0
M  END
>  <MODEL>
6

>  <REMARK>
 VINA RESULT:      -6.4      3.055     11.243
  Name = 
  17 active torsions:
  status: ('A' for Active; 'I' for Inactive)
    1  A    between atoms: C_4  and  C_19
    2  A    between atoms: C_4  and  O_20
    3  A    between atoms: C_4  and  C_54
    4  A    between atoms: C_6  and  C_28
    5  A    between atoms: C_6  and  C_30
    6  A    between atoms: N_7  and  N_59
    7  A    between atoms: C_10  and  O_20
    8  A    between atoms: C_10  and  C_36
    9  A    between atoms: C_14  and  C_54
   10  A    between atoms: C_27  and  O_58
   11  A    between atoms: C_32  and  O_38
   12  A    between atoms: C_35  and  C_45
   13  A    between atoms: C_39  and  O_46
   14  A    between atoms: C_40  and  N_59
   15  A    between atoms: O_46  and  C_56
   16  A    between atoms: C_52  and  C_56
   17  A    between atoms: C_52  and  O_58
                            x       y       z     vdW  Elec       q    Type
                         _______ _______ _______ _____ _____    ______ ____

>  <TORSDO>
F 17

$$$$
=
 OpenBabel10232411313D

 59 66  0  0  1  0  0  0  0  0999 V2000
  186.8560  177.8180  138.1080 C   0  0  0  0  0  2  0  0  0  0  0  0
  190.2210  175.5680  136.6870 C   0  0  0  0  0  3  0  0  0  0  0  0
  189.3720  176.5110  137.0790 C   0  0  2  0  0  3  0  0  0  0  0  0
  188.0260  177.5430  138.9830 C   0  0  0  0  0  0  0  0  0  0  0  0
  189.1940  176.4310  134.8040 C   0  0  0  0  0  3  0  0  0  0  0  0
  188.7110  177.0450  135.8740 C   0  0  0  0  0  0  0  0  0  0  0  0
  190.2050  175.4160  135.2060 C   0  0  0  0  0  3  0  0  0  0  0  0
  187.6240  178.0850  135.7460 C   0  0  2  0  0  3  0  0  0  0  0  0
  188.9210  177.6610  141.2390 C   0  0  0  0  0  0  0  0  0  0  0  0
  190.2580  176.6830  139.4530 C   0  0  0  0  0  0  0  0  0  0  0  0
  190.0880  177.0400  140.7990 C   0  0  0  0  0  3  0  0  0  0  0  0
  189.2130  176.9260  138.5150 C   0  0  0  0  0  0  0  0  0  0  0  0
  187.8980  177.9090  140.3250 C   0  0  0  0  0  3  0  0  0  0  0  0
  187.2520  178.8080  137.0320 C   0  0  0  0  0  2  0  0  0  0  0  0
  186.0820  176.1600  135.1970 N   0  0  0  0  0  2  0  0  0  0  0  0
  185.6830  178.2920  134.3500 O   0  0  0  0  0  0  0  0  0  0  0  0
  186.4130  177.5380  135.0490 C   0  0  0  0  0  0  0  0  0  0  0  0
  184.8270  175.6770  134.7950 N   0  0  0  0  0  2  0  0  0  0  0  0
  181.0140  174.3690  137.1660 C   0  0  0  0  0  2  0  0  0  0  0  0
  183.4470  175.4590  138.3100 C   0  0  0  0  0  2  0  0  0  0  0  0
  181.5900  176.2400  135.6060 O   0  0  0  0  0  0  0  0  0  0  0  0
  182.1230  175.8030  139.0030 C   0  0  0  0  0  2  0  0  0  0  0  0
  180.8520  175.4810  138.2030 C   0  0  0  0  0  2  0  0  0  0  0  0
  182.5540  176.9600  136.3750 C   0  0  0  0  0  2  0  0  0  0  0  0
  183.0040  174.2190  135.4820 C   0  0  2  0  0  3  0  0  0  0  0  0
  184.1830  175.0730  135.9560 C   0  0  2  0  0  3  0  0  0  0  0  0
  183.7260  176.1380  136.9570 C   0  0  2  0  0  3  0  0  0  0  0  0
  181.6310  174.8370  135.8260 C   0  0  1  0  0  3  0  0  0  0  0  0
  183.4130  171.9510  134.5810 S   0  0  0  0  0  1  0  0  0  0  0  0
  183.1170  172.9160  135.9720 O   0  0  0  0  0  0  0  0  0  0  0  0
  188.7650  178.0520  142.6490 C   0  0  0  0  0  0  0  0  0  0  0  0
  187.6840  178.5620  143.0470 O   0  0  0  0  0  0  0  0  0  0  0  0
  189.8280  177.8650  143.5370 O   0  0  0  0  0  0  0  0  0  0  0  0
  189.9140  176.7360  144.4040 C   0  0  2  0  0  3  0  0  0  0  0  0
  189.3350  176.3150  146.7590 O   0  0  0  0  0  0  0  0  0  0  0  0
  188.9480  177.6700  146.6650 C   0  0  1  0  0  0  0  0  0  0  0  0
  187.7140  177.8000  146.0530 F   0  0  0  0  0  0  0  0  0  0  0  0
  189.1880  178.4040  147.9710 C   0  0  0  0  0  1  0  0  0  0  0  0
  190.0920  177.1240  145.8850 C   0  0  2  0  0  0  0  0  0  0  0  0
  191.9110  176.2580  147.1840 O   0  0  0  0  0  1  0  0  0  0  0  0
  191.5030  177.3490  146.4130 C   0  0  0  0  0  2  0  0  0  0  0  0
  190.5330  174.8960  142.9870 O   0  0  0  0  0  1  0  0  0  0  0  0
  191.0210  175.7970  143.9380 C   0  0  0  0  0  2  0  0  0  0  0  0
  191.4650  176.1060  139.0340 O   0  0  0  0  0  0  0  0  0  0  0  0
  192.6870  176.8230  138.8800 C   0  0  0  0  0  2  0  0  0  0  0  0
  193.7410  175.9700  138.1840 C   0  0  0  0  0  2  0  0  0  0  0  0
  194.0360  176.4920  136.9190 O   0  0  0  0  0  0  0  0  0  0  0  0
  194.3230  174.0970  136.9440 C   0  0  0  0  0  2  0  0  0  0  0  0
  197.4870  172.5190  137.3890 O   0  0  0  0  0  0  0  0  0  0  0  0
  196.4990  174.4560  136.6990 C   0  0  2  0  0  3  0  0  0  0  0  0
  194.3540  175.3980  136.1070 C   0  0  2  0  0  3  0  0  0  0  0  0
  196.0650  172.3890  137.5030 C   0  0  1  0  0  3  0  0  0  0  0  0
  198.9880  174.2190  136.5860 C   0  0  0  0  0  2  0  0  0  0  0  0
  197.7720  173.7480  136.8200 C   0  0  0  0  0  0  0  0  0  0  0  0
  195.5350  173.3990  136.5840 N   0  0  1  0  0  0  0  0  0  0  0  0
  196.0630  175.6350  135.4340 S   0  0  0  0  0  0  0  0  0  0  0  0
  195.6610  170.9920  137.0420 C   0  0  0  0  0  2  0  0  0  0  0  0
  196.3990  170.5810  135.7750 C   0  0  0  0  0  2  0  0  0  0  0  0
  197.1770  169.2990  136.0060 C   0  0  0  0  0  1  0  0  0  0  0  0
  1  4  1  0  0  0  0
  3  2  1  6  0  0  0
  3 12  1  0  0  0  0
  4 13  1  0  0  0  0
  5  7  1  0  0  0  0
  5  6  2  0  0  0  0
  6  3  1  0  0  0  0
  7  2  2  0  0  0  0
  8 17  1  1  0  0  0
  8  6  1  0  0  0  0
  8 14  1  0  0  0  0
  9 31  1  0  0  0  0
 10 11  2  0  0  0  0
 11  9  1  0  0  0  0
 12  4  2  0  0  0  0
 12 10  1  0  0  0  0
 13  9  2  0  0  0  0
 14  1  1  0  0  0  0
 16 17  2  0  0  0  0
 17 15  1  0  0  0  0
 18 15  1  0  0  0  0
 19 23  1  0  0  0  0
 20 22  1  0  0  0  0
 21 28  1  0  0  0  0
 21 24  1  0  0  0  0
 23 22  1  0  0  0  0
 25 28  1  0  0  0  0
 25 26  1  0  0  0  0
 25 30  1  1  0  0  0
 26 18  1  6  0  0  0
 26 27  1  0  0  0  0
 27 24  1  6  0  0  0
 27 20  1  0  0  0  0
 28 19  1  1  0  0  0
 29 30  1  0  0  0  0
 31 32  2  0  0  0  0
 31 33  1  0  0  0  0
 33 34  1  0  0  0  0
 34 43  1  6  0  0  0
 34 39  1  0  0  0  0
 36 35  1  0  0  0  0
 36 38  1  1  0  0  0
 37 36  1  0  0  0  0
 39 41  1  1  0  0  0
 39 36  1  0  0  0  0
 39 35  1  0  0  0  0
 41 40  1  0  0  0  0
 42 43  1  0  0  0  0
 44 10  1  0  0  0  0
 45 44  1  0  0  0  0
 46 45  1  0  0  0  0
 47 46  1  0  0  0  0
 49 52  1  0  0  0  0
 50 56  1  6  0  0  0
 50 54  1  0  0  0  0
 51 47  1  1  0  0  0
 51 48  1  0  0  0  0
 52 57  1  6  0  0  0
 53 54  2  0  0  0  0
 54 49  1  0  0  0  0
 55 50  1  0  0  0  0
 55 48  1  1  0  0  0
 55 52  1  0  0  0  0
 56 51  1  0  0  0  0
 58 59  1  0  0  0  0
 58 57  1  0  0  0  0
M  END
>  <MODEL>
7

>  <REMARK>
 VINA RESULT:      -6.1      3.214     11.103
  Name = 
  17 active torsions:
  status: ('A' for Active; 'I' for Inactive)
    1  A    between atoms: C_4  and  C_19
    2  A    between atoms: C_4  and  O_20
    3  A    between atoms: C_4  and  C_54
    4  A    between atoms: C_6  and  C_28
    5  A    between atoms: C_6  and  C_30
    6  A    between atoms: N_7  and  N_59
    7  A    between atoms: C_10  and  O_20
    8  A    between atoms: C_10  and  C_36
    9  A    between atoms: C_14  and  C_54
   10  A    between atoms: C_27  and  O_58
   11  A    between atoms: C_32  and  O_38
   12  A    between atoms: C_35  and  C_45
   13  A    between atoms: C_39  and  O_46
   14  A    between atoms: C_40  and  N_59
   15  A    between atoms: O_46  and  C_56
   16  A    between atoms: C_52  and  C_56
   17  A    between atoms: C_52  and  O_58
                            x       y       z     vdW  Elec       q    Type
                         _______ _______ _______ _____ _____    ______ ____

>  <TORSDO>
F 17

$$$$
=
 OpenBabel10232411313D

 59 66  0  0  1  0  0  0  0  0999 V2000
  186.8720  177.7540  137.7740 C   0  0  0  0  0  2  0  0  0  0  0  0
  190.0640  175.1970  136.4810 C   0  0  0  0  0  3  0  0  0  0  0  0
  189.2760  176.2190  136.7960 C   0  0  2  0  0  3  0  0  0  0  0  0
  188.0700  177.5260  138.6230 C   0  0  0  0  0  0  0  0  0  0  0  0
  188.9830  175.8850  134.5560 C   0  0  0  0  0  3  0  0  0  0  0  0
  188.5800  176.6410  135.5670 C   0  0  0  0  0  0  0  0  0  0  0  0
  189.9680  174.8760  135.0300 C   0  0  0  0  0  3  0  0  0  0  0  0
  187.5320  177.7090  135.3660 C   0  0  2  0  0  3  0  0  0  0  0  0
  189.0790  177.8600  140.8080 C   0  0  0  0  0  0  0  0  0  0  0  0
  190.2840  176.6200  139.0920 C   0  0  0  0  0  0  0  0  0  0  0  0
  190.1960  177.1380  140.3930 C   0  0  0  0  0  3  0  0  0  0  0  0
  189.2060  176.8030  138.1790 C   0  0  0  0  0  0  0  0  0  0  0  0
  188.0240  178.0500  139.9180 C   0  0  0  0  0  3  0  0  0  0  0  0
  187.2560  178.5930  136.5730 C   0  0  0  0  0  2  0  0  0  0  0  0
  186.0760  175.7320  134.7700 N   0  0  0  0  0  2  0  0  0  0  0  0
  185.3690  177.9090  134.3460 O   0  0  0  0  0  0  0  0  0  0  0  0
  186.2660  177.1430  134.7920 C   0  0  0  0  0  0  0  0  0  0  0  0
  184.8130  175.1830  134.5010 N   0  0  0  0  0  2  0  0  0  0  0  0
  183.3580  171.5000  136.9890 C   0  0  0  0  0  2  0  0  0  0  0  0
  182.2720  174.1880  137.1200 C   0  0  0  0  0  2  0  0  0  0  0  0
  183.2420  172.1870  134.5850 O   0  0  0  0  0  0  0  0  0  0  0  0
  181.3010  173.0200  137.3330 C   0  0  0  0  0  2  0  0  0  0  0  0
  181.8340  171.6330  136.9460 C   0  0  0  0  0  2  0  0  0  0  0  0
  182.3920  173.3330  134.6610 C   0  0  0  0  0  2  0  0  0  0  0  0
  185.0060  173.2400  135.9540 C   0  0  2  0  0  3  0  0  0  0  0  0
  184.3090  174.5850  135.7320 C   0  0  2  0  0  3  0  0  0  0  0  0
  182.7880  174.4180  135.6880 C   0  0  2  0  0  3  0  0  0  0  0  0
  184.0760  172.0300  135.7240 C   0  0  1  0  0  3  0  0  0  0  0  0
  187.2150  172.6960  136.9280 S   0  0  0  0  0  1  0  0  0  0  0  0
  185.5980  173.2000  137.2190 O   0  0  0  0  0  0  0  0  0  0  0  0
  189.0100  178.4180  142.1680 C   0  0  0  0  0  0  0  0  0  0  0  0
  188.4860  179.5480  142.3610 O   0  0  0  0  0  0  0  0  0  0  0  0
  189.5410  177.6920  143.2380 O   0  0  0  0  0  0  0  0  0  0  0  0
  188.9450  177.6920  144.5340 C   0  0  2  0  0  3  0  0  0  0  0  0
  191.1330  178.0530  145.6030 O   0  0  0  0  0  0  0  0  0  0  0  0
  191.2380  176.6740  145.3220 C   0  0  1  0  0  0  0  0  0  0  0  0
  191.5650  176.4540  143.9960 F   0  0  0  0  0  0  0  0  0  0  0  0
  192.0360  175.9520  146.3930 C   0  0  0  0  0  1  0  0  0  0  0  0
  189.9340  177.3100  145.6530 C   0  0  2  0  0  0  0  0  0  0  0  0
  188.8140  178.3890  147.4760 O   0  0  0  0  0  1  0  0  0  0  0  0
  189.4090  177.1910  147.0780 C   0  0  0  0  0  2  0  0  0  0  0  0
  186.5460  177.5570  144.5480 O   0  0  0  0  0  1  0  0  0  0  0  0
  187.7150  176.7920  144.5490 C   0  0  0  0  0  2  0  0  0  0  0  0
  191.4440  175.9420  138.6910 O   0  0  0  0  0  0  0  0  0  0  0  0
  192.7400  176.5320  138.6340 C   0  0  0  0  0  2  0  0  0  0  0  0
  193.7400  175.5960  137.9660 C   0  0  0  0  0  2  0  0  0  0  0  0
  194.0410  176.0420  136.6740 O   0  0  0  0  0  0  0  0  0  0  0  0
  194.5020  173.6850  136.8960 C   0  0  0  0  0  2  0  0  0  0  0  0
  197.7290  172.3960  137.6820 O   0  0  0  0  0  0  0  0  0  0  0  0
  196.6580  174.1980  136.7820 C   0  0  2  0  0  3  0  0  0  0  0  0
  194.5010  174.9250  135.9690 C   0  0  2  0  0  3  0  0  0  0  0  0
  196.3170  172.1620  137.7020 C   0  0  1  0  0  3  0  0  0  0  0  0
  199.1590  174.1510  136.8660 C   0  0  0  0  0  2  0  0  0  0  0  0
  197.9670  173.6020  137.0460 C   0  0  0  0  0  0  0  0  0  0  0  0
  195.7870  173.0630  136.6750 N   0  0  1  0  0  0  0  0  0  0  0  0
  196.2360  175.2500  135.4060 S   0  0  0  0  0  0  0  0  0  0  0  0
  196.0540  170.7090  137.3170 C   0  0  0  0  0  2  0  0  0  0  0  0
  197.3420  169.8990  137.2640 C   0  0  0  0  0  2  0  0  0  0  0  0
  197.2270  168.6630  138.1370 C   0  0  0  0  0  1  0  0  0  0  0  0
  1  4  1  0  0  0  0
  3  2  1  6  0  0  0
  3 12  1  0  0  0  0
  4 13  1  0  0  0  0
  5  7  1  0  0  0  0
  5  6  2  0  0  0  0
  6  3  1  0  0  0  0
  7  2  2  0  0  0  0
  8 17  1  1  0  0  0
  8  6  1  0  0  0  0
  8 14  1  0  0  0  0
  9 31  1  0  0  0  0
 10 11  2  0  0  0  0
 11  9  1  0  0  0  0
 12  4  2  0  0  0  0
 12 10  1  0  0  0  0
 13  9  2  0  0  0  0
 14  1  1  0  0  0  0
 15 17  1  0  0  0  0
 16 17  2  0  0  0  0
 18 15  1  0  0  0  0
 20 22  1  0  0  0  0
 21 24  1  0  0  0  0
 21 28  1  0  0  0  0
 23 19  1  0  0  0  0
 23 22  1  0  0  0  0
 25 30  1  1  0  0  0
 26 18  1  6  0  0  0
 26 25  1  0  0  0  0
 27 24  1  6  0  0  0
 27 26  1  0  0  0  0
 27 20  1  0  0  0  0
 28 25  1  0  0  0  0
 28 19  1  1  0  0  0
 29 30  1  0  0  0  0
 31 32  2  0  0  0  0
 31 33  1  0  0  0  0
 33 34  1  0  0  0  0
 34 43  1  6  0  0  0
 34 39  1  0  0  0  0
 35 39  1  0  0  0  0
 36 35  1  0  0  0  0
 36 39  1  0  0  0  0
 36 38  1  1  0  0  0
 37 36  1  0  0  0  0
 39 41  1  1  0  0  0
 41 40  1  0  0  0  0
 42 43  1  0  0  0  0
 44 10  1  0  0  0  0
 45 44  1  0  0  0  0
 46 45  1  0  0  0  0
 47 46  1  0  0  0  0
 49 52  1  0  0  0  0
 50 56  1  6  0  0  0
 50 54  1  0  0  0  0
 51 47  1  1  0  0  0
 51 48  1  0  0  0  0
 52 57  1  6  0  0  0
 53 54  2  0  0  0  0
 54 49  1  0  0  0  0
 55 50  1  0  0  0  0
 55 48  1  1  0  0  0
 55 52  1  0  0  0  0
 56 51  1  0  0  0  0
 58 57  1  0  0  0  0
 58 59  1  0  0  0  0
M  END
>  <MODEL>
8

>  <REMARK>
 VINA RESULT:      -5.9      3.144     10.773
  Name = 
  17 active torsions:
  status: ('A' for Active; 'I' for Inactive)
    1  A    between atoms: C_4  and  C_19
    2  A    between atoms: C_4  and  O_20
    3  A    between atoms: C_4  and  C_54
    4  A    between atoms: C_6  and  C_28
    5  A    between atoms: C_6  and  C_30
    6  A    between atoms: N_7  and  N_59
    7  A    between atoms: C_10  and  O_20
    8  A    between atoms: C_10  and  C_36
    9  A    between atoms: C_14  and  C_54
   10  A    between atoms: C_27  and  O_58
   11  A    between atoms: C_32  and  O_38
   12  A    between atoms: C_35  and  C_45
   13  A    between atoms: C_39  and  O_46
   14  A    between atoms: C_40  and  N_59
   15  A    between atoms: O_46  and  C_56
   16  A    between atoms: C_52  and  C_56
   17  A    between atoms: C_52  and  O_58
                            x       y       z     vdW  Elec       q    Type
                         _______ _______ _______ _____ _____    ______ ____

>  <TORSDO>
F 17

$$$$
=
 OpenBabel10232411313D

 59 66  0  0  1  0  0  0  0  0999 V2000
  189.6440  173.8620  135.5270 C   0  0  0  0  0  2  0  0  0  0  0  0
  189.4530  177.4430  137.8810 C   0  0  0  0  0  3  0  0  0  0  0  0
  189.5070  176.1920  137.4350 C   0  0  0  0  0  0  0  0  0  0  0  0
  190.8450  174.3920  136.2240 C   0  0  0  0  0  0  0  0  0  0  0  0
  187.2940  176.6230  137.7980 C   0  0  0  0  0  3  0  0  0  0  0  0
  188.1250  175.6830  137.3720 C   0  0  0  0  0  0  0  0  0  0  0  0
  188.0490  177.8500  138.1630 C   0  0  0  0  0  2  0  0  0  0  0  0
  187.6050  174.3520  136.8830 C   0  0  2  0  0  3  0  0  0  0  0  0
  193.2500  174.2030  136.5100 C   0  0  0  0  0  0  0  0  0  0  0  0
  192.0180  175.9300  137.7070 C   0  0  0  0  0  0  0  0  0  0  0  0
  193.2230  175.2910  137.3810 C   0  0  0  0  0  3  0  0  0  0  0  0
  190.7960  175.4880  137.1210 C   0  0  0  0  0  0  0  0  0  0  0  0
  192.0590  173.7610  135.9390 C   0  0  0  0  0  3  0  0  0  0  0  0
  188.6670  173.3160  136.5470 C   0  0  0  0  0  2  0  0  0  0  0  0
  185.5370  175.4330  135.9120 N   0  0  0  0  0  2  0  0  0  0  0  0
  186.7550  173.8680  134.6920 O   0  0  0  0  0  0  0  0  0  0  0  0
  186.6200  174.5190  135.7630 C   0  0  0  0  0  0  0  0  0  0  0  0
  184.7660  175.8170  134.8050 N   0  0  0  0  0  2  0  0  0  0  0  0
  181.2260  175.0320  137.7570 C   0  0  0  0  0  2  0  0  0  0  0  0
  181.0000  175.4810  134.9000 C   0  0  0  0  0  2  0  0  0  0  0  0
  183.0990  173.6660  136.8150 O   0  0  0  0  0  0  0  0  0  0  0  0
  179.9900  174.5270  135.5490 C   0  0  0  0  0  2  0  0  0  0  0  0
  180.3290  174.0710  136.9760 C   0  0  0  0  0  2  0  0  0  0  0  0
  182.7460  173.6190  135.4320 C   0  0  0  0  0  2  0  0  0  0  0  0
  183.3960  176.1170  136.7940 C   0  0  2  0  0  3  0  0  0  0  0  0
  183.4030  176.0540  135.2640 C   0  0  2  0  0  3  0  0  0  0  0  0
  182.4460  174.9740  134.7510 C   0  0  2  0  0  3  0  0  0  0  0  0
  182.7350  174.8850  137.4480 C   0  0  1  0  0  3  0  0  0  0  0  0
  183.8160  177.8420  138.5180 S   0  0  0  0  0  1  0  0  0  0  0  0
  182.8100  177.3070  137.2310 O   0  0  0  0  0  0  0  0  0  0  0  0
  194.5180  173.5270  136.1950 C   0  0  0  0  0  0  0  0  0  0  0  0
  194.5350  172.5640  135.3820 O   0  0  0  0  0  0  0  0  0  0  0  0
  195.6980  173.9510  136.8130 O   0  0  0  0  0  0  0  0  0  0  0  0
  196.9460  174.0110  136.1240 C   0  0  2  0  0  3  0  0  0  0  0  0
  199.3720  174.2680  136.4520 O   0  0  0  0  0  0  0  0  0  0  0  0
  199.2400  172.8980  136.7650 C   0  0  1  0  0  0  0  0  0  0  0  0
  199.1540  172.1250  135.6210 F   0  0  0  0  0  0  0  0  0  0  0  0
  200.2220  172.4830  137.8460 C   0  0  0  0  0  1  0  0  0  0  0  0
  198.1610  173.8780  137.0630 C   0  0  2  0  0  0  0  0  0  0  0  0
  198.8850  175.5330  138.6380 O   0  0  0  0  0  1  0  0  0  0  0  0
  198.0490  174.4260  138.4800 C   0  0  0  0  0  2  0  0  0  0  0  0
  196.4270  176.3520  135.9620 O   0  0  0  0  0  1  0  0  0  0  0  0
  197.0250  175.2840  135.2890 C   0  0  0  0  0  2  0  0  0  0  0  0
  192.0190  176.9890  138.6270 O   0  0  0  0  0  0  0  0  0  0  0  0
  192.9050  177.0860  139.7390 C   0  0  0  0  0  2  0  0  0  0  0  0
  192.1340  177.2800  141.0390 C   0  0  0  0  0  2  0  0  0  0  0  0
  190.8200  177.6840  140.7750 O   0  0  0  0  0  0  0  0  0  0  0  0
  188.6620  177.4830  141.8320 C   0  0  0  0  0  2  0  0  0  0  0  0
  188.1540  177.9460  145.3290 O   0  0  0  0  0  0  0  0  0  0  0  0
  189.7320  177.4000  143.7740 C   0  0  2  0  0  3  0  0  0  0  0  0
  189.9890  176.7850  141.4510 C   0  0  2  0  0  3  0  0  0  0  0  0
  187.5580  177.9650  144.0260 C   0  0  1  0  0  3  0  0  0  0  0  0
  190.3290  177.4060  146.2050 C   0  0  0  0  0  2  0  0  0  0  0  0
  189.4660  177.5210  145.2070 C   0  0  0  0  0  0  0  0  0  0  0  0
  188.4410  177.1240  143.2140 N   0  0  1  0  0  0  0  0  0  0  0  0
  190.8420  176.2390  143.0020 S   0  0  0  0  0  0  0  0  0  0  0  0
  186.1680  177.3420  144.1130 C   0  0  0  0  0  2  0  0  0  0  0  0
  185.1690  178.2850  144.7680 C   0  0  0  0  0  2  0  0  0  0  0  0
  185.0600  179.5760  143.9780 C   0  0  0  0  0  1  0  0  0  0  0  0
  1  4  1  0  0  0  0
  1 14  1  0  0  0  0
  2  7  1  0  0  0  0
  3  2  2  0  0  0  0
  4 12  1  0  0  0  0
  5  7  1  0  0  0  0
  6  3  1  0  0  0  0
  6  5  2  0  0  0  0
  8 17  1  6  0  0  0
  8  6  1  0  0  0  0
  9 11  2  0  0  0  0
 10 44  1  0  0  0  0
 11 10  1  0  0  0  0
 12  3  1  0  0  0  0
 12 10  2  0  0  0  0
 13  4  2  0  0  0  0
 13  9  1  0  0  0  0
 14  8  1  0  0  0  0
 16 17  2  0  0  0  0
 17 15  1  0  0  0  0
 18 15  1  0  0  0  0
 20 22  1  0  0  0  0
 21 28  1  0  0  0  0
 22 23  1  0  0  0  0
 23 19  1  0  0  0  0
 24 21  1  0  0  0  0
 25 30  1  6  0  0  0
 25 28  1  0  0  0  0
 26 18  1  1  0  0  0
 26 25  1  0  0  0  0
 27 20  1  1  0  0  0
 27 26  1  0  0  0  0
 27 24  1  0  0  0  0
 28 19  1  6  0  0  0
 30 29  1  0  0  0  0
 31  9  1  0  0  0  0
 31 33  1  0  0  0  0
 32 31  2  0  0  0  0
 34 43  1  1  0  0  0
 34 33  1  0  0  0  0
 34 39  1  0  0  0  0
 35 36  1  0  0  0  0
 35 39  1  0  0  0  0
 36 39  1  0  0  0  0
 36 38  1  1  0  0  0
 37 36  1  0  0  0  0
 39 41  1  1  0  0  0
 41 40  1  0  0  0  0
 43 42  1  0  0  0  0
 44 45  1  0  0  0  0
 45 46  1  0  0  0  0
 47 46  1  0  0  0  0
 50 56  1  1  0  0  0
 50 54  1  0  0  0  0
 51 47  1  1  0  0  0
 51 48  1  0  0  0  0
 51 56  1  0  0  0  0
 52 57  1  1  0  0  0
 52 49  1  0  0  0  0
 54 49  1  0  0  0  0
 54 53  2  0  0  0  0
 55 48  1  6  0  0  0
 55 50  1  0  0  0  0
 55 52  1  0  0  0  0
 57 58  1  0  0  0  0
 59 58  1  0  0  0  0
M  END
>  <MODEL>
9

>  <REMARK>
 VINA RESULT:      -5.9      3.327     10.461
  Name = 
  17 active torsions:
  status: ('A' for Active; 'I' for Inactive)
    1  A    between atoms: C_4  and  C_19
    2  A    between atoms: C_4  and  O_20
    3  A    between atoms: C_4  and  C_54
    4  A    between atoms: C_6  and  C_28
    5  A    between atoms: C_6  and  C_30
    6  A    between atoms: N_7  and  N_59
    7  A    between atoms: C_10  and  O_20
    8  A    between atoms: C_10  and  C_36
    9  A    between atoms: C_14  and  C_54
   10  A    between atoms: C_27  and  O_58
   11  A    between atoms: C_32  and  O_38
   12  A    between atoms: C_35  and  C_45
   13  A    between atoms: C_39  and  O_46
   14  A    between atoms: C_40  and  N_59
   15  A    between atoms: O_46  and  C_56
   16  A    between atoms: C_52  and  C_56
   17  A    between atoms: C_52  and  O_58
                            x       y       z     vdW  Elec       q    Type
                         _______ _______ _______ _____ _____    ______ ____

>  <TORSDO>
F 17

$$$$
