=
 OpenBabel10232412333D

 34 39  0  0  0  0  0  0  0  0999 V2000
  189.9750  177.2970  146.7810 C   0  0  0  0  0  0  0  0  0  0  0  0
  191.5690  176.1380  145.4110 C   0  0  0  0  0  0  0  0  0  0  0  0
  189.5250  177.2320  144.3760 C   0  0  0  0  0  0  0  0  0  0  0  0
  189.1000  177.5210  142.0410 C   0  0  0  0  0  0  0  0  0  0  0  0
  191.9830  176.5210  147.6880 N   0  0  0  0  0  0  0  0  0  0  0  0
  192.3450  176.0050  146.5160 N   0  0  0  0  0  0  0  0  0  0  0  0
  191.1780  177.2200  142.5440 C   0  0  0  0  0  3  0  0  0  0  0  0
  190.3770  176.9030  145.4830 C   0  0  0  0  0  0  0  0  0  0  0  0
  189.7530  177.5780  140.8270 C   0  0  0  0  0  3  0  0  0  0  0  0
  190.8090  177.1290  147.8340 N   0  0  0  0  0  0  0  0  0  0  0  0
  188.1840  177.6530  144.6420 C   0  0  0  0  0  0  0  0  0  0  0  0
  188.7030  177.8110  147.0070 C   0  0  0  0  0  3  0  0  0  0  0  0
  191.8710  175.3140  144.2910 N   0  0  0  0  0  1  0  0  0  0  0  0
  187.7580  177.7940  142.2490 C   0  0  0  0  0  3  0  0  0  0  0  0
  187.2760  177.8580  143.5640 C   0  0  0  0  0  0  0  0  0  0  0  0
  191.0780  177.3870  141.1760 C   0  0  0  0  0  0  0  0  0  0  0  0
  189.9370  177.2670  143.0650 N   0  0  0  0  0  0  0  0  0  0  0  0
  187.8090  177.9540  145.9560 C   0  0  0  0  0  3  0  0  0  0  0  0
  183.6000  178.5450  142.8700 C   0  0  0  0  0  0  0  0  0  0  0  0
  183.1330  178.8510  144.1490 C   0  0  0  0  0  3  0  0  0  0  0  0
  185.8370  178.1780  143.7620 C   0  0  0  0  0  0  0  0  0  0  0  0
  184.0100  178.8300  145.2360 C   0  0  0  0  0  3  0  0  0  0  0  0
  184.9450  178.2160  142.6770 C   0  0  0  0  0  3  0  0  0  0  0  0
  185.3540  178.4990  145.0420 C   0  0  0  0  0  3  0  0  0  0  0  0
  182.6700  178.5720  141.7120 C   0  0  0  0  0  1  0  0  0  0  0  0
  192.2180  177.3360  140.2210 C   0  0  0  0  0  2  0  0  0  0  0  0
  191.7320  176.9730  138.8990 N   0  0  0  0  0  2  0  0  0  0  0  0
  190.9030  176.3770  136.2360 O   0  0  0  0  0  0  0  0  0  0  0  0
  192.5230  176.2260  137.9720 C   0  0  0  0  0  0  0  0  0  0  0  0
  191.9740  175.8650  136.6560 C   0  0  0  0  0  0  0  0  0  0  0  0
  193.7540  174.2030  136.4300 C   0  0  0  0  0  2  0  0  0  0  0  0
  194.5830  175.1010  137.3510 C   0  0  0  0  0  2  0  0  0  0  0  0
  193.7160  175.8150  138.2950 N   0  0  0  0  0  0  0  0  0  0  0  0
  192.6720  174.9470  135.8710 O   0  0  0  0  0  0  0  0  0  0  0  0
  1 12  1  0  0  0  0
  1 10  2  0  0  0  0
  2  8  2  0  0  0  0
  2  6  1  0  0  0  0
  3 11  2  0  0  0  0
  3  8  1  0  0  0  0
  4 14  1  0  0  0  0
  4 17  1  0  0  0  0
  5 10  1  0  0  0  0
  6  5  2  0  0  0  0
  7 17  1  0  0  0  0
  8  1  1  0  0  0  0
  9 16  1  0  0  0  0
  9  4  2  0  0  0  0
 11 18  1  0  0  0  0
 13  2  1  0  0  0  0
 14 15  2  0  0  0  0
 15 21  1  0  0  0  0
 15 11  1  0  0  0  0
 16  7  2  0  0  0  0
 17  3  1  0  0  0  0
 18 12  2  0  0  0  0
 19 20  1  0  0  0  0
 20 22  2  0  0  0  0
 21 24  2  0  0  0  0
 23 19  2  0  0  0  0
 23 21  1  0  0  0  0
 24 22  1  0  0  0  0
 25 19  1  0  0  0  0
 26 16  1  0  0  0  0
 27 26  1  0  0  0  0
 28 30  2  0  0  0  0
 29 33  2  0  0  0  0
 29 27  1  0  0  0  0
 30 29  1  0  0  0  0
 31 32  1  0  0  0  0
 32 33  1  0  0  0  0
 34 31  1  0  0  0  0
 34 30  1  0  0  0  0
M  END
>  <MODEL>
1

>  <REMARK>
 VINA RESULT:     -12.2      0.000      0.000
  Name = 
  3 active torsions:
  status: ('A' for Active; 'I' for Inactive)
    1  A    between atoms: N_3  and  C_17
    2  A    between atoms: C_12  and  C_28
    3  A    between atoms: C_17  and  C_29
                            x       y       z     vdW  Elec       q    Type
                         _______ _______ _______ _____ _____    ______ ____

>  <TORSDO>
F 3

$$$$
=
 OpenBabel10232412333D

 34 39  0  0  0  0  0  0  0  0999 V2000
  189.9650  177.2200  146.6310 C   0  0  0  0  0  0  0  0  0  0  0  0
  191.3780  176.0260  145.1030 C   0  0  0  0  0  0  0  0  0  0  0  0
  189.2660  177.1750  144.2860 C   0  0  0  0  0  0  0  0  0  0  0  0
  188.6080  177.4820  142.0070 C   0  0  0  0  0  0  0  0  0  0  0  0
  192.0360  176.3910  147.3240 N   0  0  0  0  0  0  0  0  0  0  0  0
  192.2610  175.8700  146.1210 N   0  0  0  0  0  0  0  0  0  0  0  0
  190.7190  177.1270  142.2920 C   0  0  0  0  0  3  0  0  0  0  0  0
  190.2200  176.8200  145.2980 C   0  0  0  0  0  0  0  0  0  0  0  0
  189.1340  177.5260  140.7330 C   0  0  0  0  0  3  0  0  0  0  0  0
  190.9000  177.0280  147.5910 N   0  0  0  0  0  0  0  0  0  0  0  0
  187.9720  177.6290  144.6900 C   0  0  0  0  0  0  0  0  0  0  0  0
  188.7380  177.7660  146.9880 C   0  0  0  0  0  3  0  0  0  0  0  0
  191.5410  175.1980  143.9560 N   0  0  0  0  0  1  0  0  0  0  0  0
  187.3030  177.7880  142.3540 C   0  0  0  0  0  3  0  0  0  0  0  0
  186.9620  177.8610  143.7120 C   0  0  0  0  0  0  0  0  0  0  0  0
  190.4820  177.3000  140.9420 C   0  0  0  0  0  0  0  0  0  0  0  0
  189.5410  177.2040  142.9390 N   0  0  0  0  0  0  0  0  0  0  0  0
  187.7430  177.9350  146.0360 C   0  0  0  0  0  3  0  0  0  0  0  0
  183.2690  178.7120  143.3970 C   0  0  0  0  0  0  0  0  0  0  0  0
  182.9290  178.9560  144.7290 C   0  0  0  0  0  3  0  0  0  0  0  0
  185.5600  178.2170  144.0580 C   0  0  0  0  0  0  0  0  0  0  0  0
  183.8990  178.8390  145.7280 C   0  0  0  0  0  3  0  0  0  0  0  0
  184.5770  178.3510  143.0640 C   0  0  0  0  0  3  0  0  0  0  0  0
  185.2070  178.4760  145.3940 C   0  0  0  0  0  3  0  0  0  0  0  0
  182.2410  178.8410  142.3330 C   0  0  0  0  0  1  0  0  0  0  0  0
  191.5150  177.2230  139.8740 C   0  0  0  0  0  2  0  0  0  0  0  0
  191.2850  176.0440  139.0550 N   0  0  0  0  0  2  0  0  0  0  0  0
  190.6530  173.7470  137.4850 O   0  0  0  0  0  0  0  0  0  0  0  0
  190.6130  176.1060  137.7960 C   0  0  0  0  0  0  0  0  0  0  0  0
  190.4260  174.8850  136.9970 C   0  0  0  0  0  0  0  0  0  0  0  0
  189.9380  176.2940  135.0580 C   0  0  0  0  0  2  0  0  0  0  0  0
  189.4510  177.3440  136.0600 C   0  0  0  0  0  2  0  0  0  0  0  0
  190.2000  177.2450  137.3170 N   0  0  0  0  0  0  0  0  0  0  0  0
  189.9790  175.0100  135.6810 O   0  0  0  0  0  0  0  0  0  0  0  0
  1 12  1  0  0  0  0
  1 10  2  0  0  0  0
  2  8  2  0  0  0  0
  2  6  1  0  0  0  0
  3 11  2  0  0  0  0
  3  8  1  0  0  0  0
  4 14  1  0  0  0  0
  4 17  1  0  0  0  0
  5 10  1  0  0  0  0
  6  5  2  0  0  0  0
  7 17  1  0  0  0  0
  8  1  1  0  0  0  0
  9 16  1  0  0  0  0
  9  4  2  0  0  0  0
 11 18  1  0  0  0  0
 13  2  1  0  0  0  0
 14 15  2  0  0  0  0
 15 21  1  0  0  0  0
 15 11  1  0  0  0  0
 16  7  2  0  0  0  0
 17  3  1  0  0  0  0
 18 12  2  0  0  0  0
 19 20  1  0  0  0  0
 20 22  2  0  0  0  0
 21 24  2  0  0  0  0
 23 19  2  0  0  0  0
 23 21  1  0  0  0  0
 24 22  1  0  0  0  0
 25 19  1  0  0  0  0
 26 16  1  0  0  0  0
 27 26  1  0  0  0  0
 29 27  1  0  0  0  0
 30 28  2  0  0  0  0
 30 29  1  0  0  0  0
 31 34  1  0  0  0  0
 31 32  1  0  0  0  0
 32 33  1  0  0  0  0
 33 29  2  0  0  0  0
 34 30  1  0  0  0  0
M  END
>  <MODEL>
2

>  <REMARK>
 VINA RESULT:     -12.2      1.323      1.707
  Name = 
  3 active torsions:
  status: ('A' for Active; 'I' for Inactive)
    1  A    between atoms: N_3  and  C_17
    2  A    between atoms: C_12  and  C_28
    3  A    between atoms: C_17  and  C_29
                            x       y       z     vdW  Elec       q    Type
                         _______ _______ _______ _____ _____    ______ ____

>  <TORSDO>
F 3

$$$$
=
 OpenBabel10232412333D

 34 39  0  0  0  0  0  0  0  0999 V2000
  182.6210  178.7880  141.7110 C   0  0  0  0  0  0  0  0  0  0  0  0
  183.4910  179.5580  139.6110 C   0  0  0  0  0  0  0  0  0  0  0  0
  185.0500  178.7040  141.4230 C   0  0  0  0  0  0  0  0  0  0  0  0
  187.3920  178.2730  141.1940 C   0  0  0  0  0  0  0  0  0  0  0  0
  181.1820  179.3240  139.9500 N   0  0  0  0  0  0  0  0  0  0  0  0
  182.2100  179.6690  139.1790 N   0  0  0  0  0  0  0  0  0  0  0  0
  186.2970  178.2950  139.3330 C   0  0  0  0  0  3  0  0  0  0  0  0
  183.7520  178.9970  140.8860 C   0  0  0  0  0  0  0  0  0  0  0  0
  188.3480  178.0070  140.2360 C   0  0  0  0  0  3  0  0  0  0  0  0
  181.3730  178.9200  141.2020 N   0  0  0  0  0  0  0  0  0  0  0  0
  185.1850  178.5200  142.8350 C   0  0  0  0  0  0  0  0  0  0  0  0
  182.7690  178.4990  143.0620 C   0  0  0  0  0  3  0  0  0  0  0  0
  184.5000  180.2220  138.8570 N   0  0  0  0  0  1  0  0  0  0  0  0
  187.5870  178.2310  142.5640 C   0  0  0  0  0  3  0  0  0  0  0  0
  186.4780  178.3600  143.4120 C   0  0  0  0  0  0  0  0  0  0  0  0
  187.6230  178.0220  139.0580 C   0  0  0  0  0  0  0  0  0  0  0  0
  186.1730  178.4860  140.6600 N   0  0  0  0  0  0  0  0  0  0  0  0
  184.0350  178.4010  143.6230 C   0  0  0  0  0  3  0  0  0  0  0  0
  188.0320  177.5390  146.7840 C   0  0  0  0  0  0  0  0  0  0  0  0
  187.0970  178.0970  147.6590 C   0  0  0  0  0  3  0  0  0  0  0  0
  186.7110  178.2860  144.8790 C   0  0  0  0  0  0  0  0  0  0  0  0
  185.9670  178.7430  147.1530 C   0  0  0  0  0  3  0  0  0  0  0  0
  187.8360  177.6280  145.4030 C   0  0  0  0  0  3  0  0  0  0  0  0
  185.7730  178.8330  145.7720 C   0  0  0  0  0  3  0  0  0  0  0  0
  189.2320  176.8480  147.3200 C   0  0  0  0  0  1  0  0  0  0  0  0
  188.1900  177.8100  137.6990 C   0  0  0  0  0  2  0  0  0  0  0  0
  188.4400  176.3930  137.4890 N   0  0  0  0  0  2  0  0  0  0  0  0
  188.9850  173.6540  136.9080 O   0  0  0  0  0  0  0  0  0  0  0  0
  189.7580  175.8610  137.3480 C   0  0  0  0  0  0  0  0  0  0  0  0
  189.9560  174.4150  137.1600 C   0  0  0  0  0  0  0  0  0  0  0  0
  192.3080  174.7140  137.7620 C   0  0  0  0  0  2  0  0  0  0  0  0
  192.1670  176.1410  137.2280 C   0  0  0  0  0  2  0  0  0  0  0  0
  190.8010  176.6370  137.4300 N   0  0  0  0  0  0  0  0  0  0  0  0
  191.2490  173.9000  137.2580 O   0  0  0  0  0  0  0  0  0  0  0  0
  1 12  1  0  0  0  0
  2  8  1  0  0  0  0
  3 11  2  0  0  0  0
  4 14  1  0  0  0  0
  5 10  2  0  0  0  0
  6  2  2  0  0  0  0
  6  5  1  0  0  0  0
  7 17  1  0  0  0  0
  8  3  1  0  0  0  0
  8  1  2  0  0  0  0
  9  4  2  0  0  0  0
 10  1  1  0  0  0  0
 11 15  1  0  0  0  0
 11 18  1  0  0  0  0
 12 18  2  0  0  0  0
 13  2  1  0  0  0  0
 14 15  2  0  0  0  0
 15 21  1  0  0  0  0
 16  7  2  0  0  0  0
 16  9  1  0  0  0  0
 17  4  1  0  0  0  0
 17  3  1  0  0  0  0
 19 25  1  0  0  0  0
 19 20  1  0  0  0  0
 21 23  1  0  0  0  0
 21 24  2  0  0  0  0
 22 20  2  0  0  0  0
 23 19  2  0  0  0  0
 24 22  1  0  0  0  0
 26 16  1  0  0  0  0
 27 26  1  0  0  0  0
 28 30  2  0  0  0  0
 29 33  2  0  0  0  0
 29 27  1  0  0  0  0
 30 34  1  0  0  0  0
 30 29  1  0  0  0  0
 32 33  1  0  0  0  0
 32 31  1  0  0  0  0
 34 31  1  0  0  0  0
M  END
>  <MODEL>
3

>  <REMARK>
 VINA RESULT:     -10.7      3.581      6.216
  Name = 
  3 active torsions:
  status: ('A' for Active; 'I' for Inactive)
    1  A    between atoms: N_3  and  C_17
    2  A    between atoms: C_12  and  C_28
    3  A    between atoms: C_17  and  C_29
                            x       y       z     vdW  Elec       q    Type
                         _______ _______ _______ _____ _____    ______ ____

>  <TORSDO>
F 3

$$$$
=
 OpenBabel10232412333D

 34 39  0  0  0  0  0  0  0  0999 V2000
  188.8060  177.7600  146.5900 C   0  0  0  0  0  0  0  0  0  0  0  0
  190.5070  176.6120  145.3470 C   0  0  0  0  0  0  0  0  0  0  0  0
  188.4650  177.5640  144.1750 C   0  0  0  0  0  0  0  0  0  0  0  0
  188.1320  177.7250  141.8120 C   0  0  0  0  0  0  0  0  0  0  0  0
  190.8030  177.1190  147.6180 N   0  0  0  0  0  0  0  0  0  0  0  0
  191.2380  176.5660  146.4880 N   0  0  0  0  0  0  0  0  0  0  0  0
  190.1970  177.5410  142.4160 C   0  0  0  0  0  3  0  0  0  0  0  0
  189.2820  177.3250  145.3310 C   0  0  0  0  0  0  0  0  0  0  0  0
  188.8350  177.7550  140.6260 C   0  0  0  0  0  3  0  0  0  0  0  0
  189.6000  177.6790  147.6840 N   0  0  0  0  0  0  0  0  0  0  0  0
  187.0980  177.9360  144.3640 C   0  0  0  0  0  0  0  0  0  0  0  0
  187.5050  178.2280  146.7380 C   0  0  0  0  0  3  0  0  0  0  0  0
  190.8930  175.7510  144.2810 N   0  0  0  0  0  1  0  0  0  0  0  0
  186.7720  177.9470  141.9510 C   0  0  0  0  0  3  0  0  0  0  0  0
  186.2300  178.0510  143.2390 C   0  0  0  0  0  0  0  0  0  0  0  0
  190.1510  177.6390  141.0390 C   0  0  0  0  0  0  0  0  0  0  0  0
  188.9330  177.5570  142.8820 N   0  0  0  0  0  0  0  0  0  0  0  0
  186.6530  178.2810  145.6440 C   0  0  0  0  0  3  0  0  0  0  0  0
  182.5890  178.6890  142.3470 C   0  0  0  0  0  0  0  0  0  0  0  0
  182.0270  178.8820  143.6100 C   0  0  0  0  0  3  0  0  0  0  0  0
  184.7710  178.3150  143.3610 C   0  0  0  0  0  0  0  0  0  0  0  0
  182.8300  178.8000  144.7500 C   0  0  0  0  0  3  0  0  0  0  0  0
  183.9530  178.4130  142.2230 C   0  0  0  0  0  3  0  0  0  0  0  0
  184.1940  178.5220  144.6260 C   0  0  0  0  0  3  0  0  0  0  0  0
  181.7380  178.7810  141.1330 C   0  0  0  0  0  1  0  0  0  0  0  0
  191.3330  177.5950  140.1360 C   0  0  0  0  0  2  0  0  0  0  0  0
  190.9020  177.2880  138.7820 N   0  0  0  0  0  2  0  0  0  0  0  0
  190.1800  176.8080  136.0640 O   0  0  0  0  0  0  0  0  0  0  0  0
  191.7380  176.6000  137.8500 C   0  0  0  0  0  0  0  0  0  0  0  0
  191.2440  176.2940  136.4990 C   0  0  0  0  0  0  0  0  0  0  0  0
  193.0600  174.6730  136.2600 C   0  0  0  0  0  2  0  0  0  0  0  0
  193.8390  175.5390  137.2530 C   0  0  0  0  0  2  0  0  0  0  0  0
  192.9260  176.1930  138.1970 N   0  0  0  0  0  0  0  0  0  0  0  0
  191.9860  175.4260  135.6970 O   0  0  0  0  0  0  0  0  0  0  0  0
  1 12  1  0  0  0  0
  1 10  2  0  0  0  0
  2  6  1  0  0  0  0
  3 11  2  0  0  0  0
  3  8  1  0  0  0  0
  4 14  1  0  0  0  0
  4 17  1  0  0  0  0
  5 10  1  0  0  0  0
  6  5  2  0  0  0  0
  7 17  1  0  0  0  0
  8  2  2  0  0  0  0
  8  1  1  0  0  0  0
  9 16  1  0  0  0  0
  9  4  2  0  0  0  0
 11 18  1  0  0  0  0
 13  2  1  0  0  0  0
 14 15  2  0  0  0  0
 15 21  1  0  0  0  0
 15 11  1  0  0  0  0
 16  7  2  0  0  0  0
 17  3  1  0  0  0  0
 18 12  2  0  0  0  0
 19 20  1  0  0  0  0
 20 22  2  0  0  0  0
 21 24  2  0  0  0  0
 23 19  2  0  0  0  0
 23 21  1  0  0  0  0
 24 22  1  0  0  0  0
 25 19  1  0  0  0  0
 26 16  1  0  0  0  0
 27 26  1  0  0  0  0
 28 30  2  0  0  0  0
 29 33  2  0  0  0  0
 29 27  1  0  0  0  0
 30 29  1  0  0  0  0
 31 32  1  0  0  0  0
 32 33  1  0  0  0  0
 34 31  1  0  0  0  0
 34 30  1  0  0  0  0
M  END
>  <MODEL>
4

>  <REMARK>
 VINA RESULT:     -10.6      0.884      1.092
  Name = 
  3 active torsions:
  status: ('A' for Active; 'I' for Inactive)
    1  A    between atoms: N_3  and  C_17
    2  A    between atoms: C_12  and  C_28
    3  A    between atoms: C_17  and  C_29
                            x       y       z     vdW  Elec       q    Type
                         _______ _______ _______ _____ _____    ______ ____

>  <TORSDO>
F 3

$$$$
=
 OpenBabel10232412333D

 34 39  0  0  0  0  0  0  0  0999 V2000
  187.0470  177.9630  145.9400 C   0  0  0  0  0  0  0  0  0  0  0  0
  188.7910  176.9690  144.6260 C   0  0  0  0  0  0  0  0  0  0  0  0
  186.7320  177.9520  143.5120 C   0  0  0  0  0  0  0  0  0  0  0  0
  186.4130  178.2920  141.1670 C   0  0  0  0  0  0  0  0  0  0  0  0
  189.0540  177.3000  146.9330 N   0  0  0  0  0  0  0  0  0  0  0  0
  189.5140  176.8520  145.7670 N   0  0  0  0  0  0  0  0  0  0  0  0
  188.4770  178.1210  141.7760 C   0  0  0  0  0  3  0  0  0  0  0  0
  187.5450  177.6440  144.6550 C   0  0  0  0  0  0  0  0  0  0  0  0
  187.1250  178.4380  139.9940 C   0  0  0  0  0  3  0  0  0  0  0  0
  187.8340  177.8180  147.0320 N   0  0  0  0  0  0  0  0  0  0  0  0
  185.3520  178.2670  143.7160 C   0  0  0  0  0  0  0  0  0  0  0  0
  185.7310  178.3780  146.1100 C   0  0  0  0  0  3  0  0  0  0  0  0
  189.2120  176.2080  143.4990 N   0  0  0  0  0  1  0  0  0  0  0  0
  185.0460  178.4620  141.3080 C   0  0  0  0  0  3  0  0  0  0  0  0
  184.4900  178.4460  142.5950 C   0  0  0  0  0  0  0  0  0  0  0  0
  188.4400  178.3290  140.4110 C   0  0  0  0  0  0  0  0  0  0  0  0
  187.2100  178.0620  142.2280 N   0  0  0  0  0  0  0  0  0  0  0  0
  184.8860  178.4950  145.0150 C   0  0  0  0  0  3  0  0  0  0  0  0
  180.8320  179.0020  141.7170 C   0  0  0  0  0  0  0  0  0  0  0  0
  180.2610  179.1210  142.9850 C   0  0  0  0  0  3  0  0  0  0  0  0
  183.0230  178.6560  142.7220 C   0  0  0  0  0  0  0  0  0  0  0  0
  181.0630  179.0160  144.1240 C   0  0  0  0  0  3  0  0  0  0  0  0
  182.2060  178.7770  141.5870 C   0  0  0  0  0  3  0  0  0  0  0  0
  182.4360  178.7890  143.9930 C   0  0  0  0  0  3  0  0  0  0  0  0
  179.9820  179.1190  140.5050 C   0  0  0  0  0  1  0  0  0  0  0  0
  189.6300  178.3920  139.5200 C   0  0  0  0  0  2  0  0  0  0  0  0
  189.8980  177.0730  138.9690 N   0  0  0  0  0  2  0  0  0  0  0  0
  190.2450  174.4690  137.8570 O   0  0  0  0  0  0  0  0  0  0  0  0
  189.7480  176.7790  137.5790 C   0  0  0  0  0  0  0  0  0  0  0  0
  190.0550  175.4340  137.0700 C   0  0  0  0  0  0  0  0  0  0  0  0
  190.1320  176.3650  134.8100 C   0  0  0  0  0  2  0  0  0  0  0  0
  189.1570  177.4310  135.3160 C   0  0  0  0  0  2  0  0  0  0  0  0
  189.3840  177.7060  136.7390 N   0  0  0  0  0  0  0  0  0  0  0  0
  190.1230  175.2410  135.6900 O   0  0  0  0  0  0  0  0  0  0  0  0
  1 12  1  0  0  0  0
  1 10  2  0  0  0  0
  2  8  2  0  0  0  0
  2  6  1  0  0  0  0
  3 11  2  0  0  0  0
  3  8  1  0  0  0  0
  4 14  1  0  0  0  0
  4 17  1  0  0  0  0
  5 10  1  0  0  0  0
  6  5  2  0  0  0  0
  7 17  1  0  0  0  0
  8  1  1  0  0  0  0
  9 16  1  0  0  0  0
  9  4  2  0  0  0  0
 11 18  1  0  0  0  0
 13  2  1  0  0  0  0
 14 15  2  0  0  0  0
 15 21  1  0  0  0  0
 15 11  1  0  0  0  0
 16  7  2  0  0  0  0
 17  3  1  0  0  0  0
 18 12  2  0  0  0  0
 19 20  1  0  0  0  0
 20 22  2  0  0  0  0
 21 24  2  0  0  0  0
 23 19  2  0  0  0  0
 23 21  1  0  0  0  0
 24 22  1  0  0  0  0
 25 19  1  0  0  0  0
 26 16  1  0  0  0  0
 27 26  1  0  0  0  0
 29 27  1  0  0  0  0
 30 29  1  0  0  0  0
 30 28  2  0  0  0  0
 31 32  1  0  0  0  0
 31 34  1  0  0  0  0
 32 33  1  0  0  0  0
 33 29  2  0  0  0  0
 34 30  1  0  0  0  0
M  END
>  <MODEL>
5

>  <REMARK>
 VINA RESULT:     -10.5      2.196      3.214
  Name = 
  3 active torsions:
  status: ('A' for Active; 'I' for Inactive)
    1  A    between atoms: N_3  and  C_17
    2  A    between atoms: C_12  and  C_28
    3  A    between atoms: C_17  and  C_29
                            x       y       z     vdW  Elec       q    Type
                         _______ _______ _______ _____ _____    ______ ____

>  <TORSDO>
F 3

$$$$
=
 OpenBabel10232412333D

 34 39  0  0  0  0  0  0  0  0999 V2000
  191.1580  177.3820  140.7660 C   0  0  0  0  0  0  0  0  0  0  0  0
  189.5130  177.0010  139.0620 C   0  0  0  0  0  0  0  0  0  0  0  0
  188.8120  177.6290  141.4200 C   0  0  0  0  0  0  0  0  0  0  0  0
  186.6050  178.2020  142.1400 C   0  0  0  0  0  0  0  0  0  0  0  0
  191.7990  177.0660  138.5430 N   0  0  0  0  0  0  0  0  0  0  0  0
  190.5320  176.8980  138.1730 N   0  0  0  0  0  0  0  0  0  0  0  0
  186.9440  178.4260  140.0190 C   0  0  0  0  0  3  0  0  0  0  0  0
  189.7910  177.3630  140.4040 C   0  0  0  0  0  0  0  0  0  0  0  0
  185.4010  178.6640  141.6520 C   0  0  0  0  0  3  0  0  0  0  0  0
  192.1170  177.2740  139.8170 N   0  0  0  0  0  0  0  0  0  0  0  0
  189.2170  177.5900  142.7910 C   0  0  0  0  0  0  0  0  0  0  0  0
  191.5400  177.4590  142.1010 C   0  0  0  0  0  3  0  0  0  0  0  0
  188.2360  176.5160  138.6590 N   0  0  0  0  0  1  0  0  0  0  0  0
  186.9240  178.0340  143.4770 C   0  0  0  0  0  3  0  0  0  0  0  0
  188.2440  177.7180  143.8240 C   0  0  0  0  0  0  0  0  0  0  0  0
  185.6440  178.8030  140.2970 C   0  0  0  0  0  0  0  0  0  0  0  0
  187.5180  178.0190  141.1670 N   0  0  0  0  0  0  0  0  0  0  0  0
  190.5800  177.5260  143.1010 C   0  0  0  0  0  3  0  0  0  0  0  0
  190.1050  176.9300  147.0460 C   0  0  0  0  0  0  0  0  0  0  0  0
  189.1330  177.2270  148.0030 C   0  0  0  0  0  3  0  0  0  0  0  0
  188.5670  177.5680  145.2690 C   0  0  0  0  0  0  0  0  0  0  0  0
  187.8770  177.6870  147.6020 C   0  0  0  0  0  3  0  0  0  0  0  0
  189.8210  177.0940  145.6870 C   0  0  0  0  0  3  0  0  0  0  0  0
  187.5940  177.8520  146.2430 C   0  0  0  0  0  3  0  0  0  0  0  0
  191.4400  176.4360  147.4710 C   0  0  0  0  0  1  0  0  0  0  0  0
  184.6490  179.2560  139.2880 C   0  0  0  0  0  2  0  0  0  0  0  0
  183.3070  179.1330  139.8360 N   0  0  0  0  0  2  0  0  0  0  0  0
  180.6100  178.9150  140.7390 O   0  0  0  0  0  0  0  0  0  0  0  0
  182.4650  178.0140  139.5530 C   0  0  0  0  0  0  0  0  0  0  0  0
  181.1250  177.9280  140.1520 C   0  0  0  0  0  0  0  0  0  0  0  0
  181.0840  175.5480  139.5860 C   0  0  0  0  0  2  0  0  0  0  0  0
  182.0350  175.9000  138.4390 C   0  0  0  0  0  2  0  0  0  0  0  0
  182.8880  177.0360  138.8040 N   0  0  0  0  0  0  0  0  0  0  0  0
  180.4230  176.7260  140.0470 O   0  0  0  0  0  0  0  0  0  0  0  0
  1 12  1  0  0  0  0
  2  8  1  0  0  0  0
  3 11  2  0  0  0  0
  4 14  1  0  0  0  0
  5 10  2  0  0  0  0
  6  5  1  0  0  0  0
  6  2  2  0  0  0  0
  7 16  2  0  0  0  0
  7 17  1  0  0  0  0
  8  1  2  0  0  0  0
  8  3  1  0  0  0  0
  9  4  2  0  0  0  0
 10  1  1  0  0  0  0
 11 18  1  0  0  0  0
 11 15  1  0  0  0  0
 12 18  2  0  0  0  0
 13  2  1  0  0  0  0
 14 15  2  0  0  0  0
 15 21  1  0  0  0  0
 16  9  1  0  0  0  0
 17  3  1  0  0  0  0
 17  4  1  0  0  0  0
 19 25  1  0  0  0  0
 19 20  1  0  0  0  0
 21 23  1  0  0  0  0
 21 24  2  0  0  0  0
 22 20  2  0  0  0  0
 23 19  2  0  0  0  0
 24 22  1  0  0  0  0
 26 27  1  0  0  0  0
 26 16  1  0  0  0  0
 29 27  1  0  0  0  0
 29 30  1  0  0  0  0
 30 28  2  0  0  0  0
 31 34  1  0  0  0  0
 32 33  1  0  0  0  0
 32 31  1  0  0  0  0
 33 29  2  0  0  0  0
 34 30  1  0  0  0  0
M  END
>  <MODEL>
6

>  <REMARK>
 VINA RESULT:     -10.3      4.335      7.625
  Name = 
  3 active torsions:
  status: ('A' for Active; 'I' for Inactive)
    1  A    between atoms: N_3  and  C_17
    2  A    between atoms: C_12  and  C_28
    3  A    between atoms: C_17  and  C_29
                            x       y       z     vdW  Elec       q    Type
                         _______ _______ _______ _____ _____    ______ ____

>  <TORSDO>
F 3

$$$$
=
 OpenBabel10232412333D

 34 39  0  0  0  0  0  0  0  0999 V2000
  191.1730  177.3810  140.7690 C   0  0  0  0  0  0  0  0  0  0  0  0
  189.5360  176.9950  139.0580 C   0  0  0  0  0  0  0  0  0  0  0  0
  188.8240  177.6250  141.4120 C   0  0  0  0  0  0  0  0  0  0  0  0
  186.6130  178.1970  142.1200 C   0  0  0  0  0  0  0  0  0  0  0  0
  191.8250  177.0630  138.5490 N   0  0  0  0  0  0  0  0  0  0  0  0
  190.5600  176.8920  138.1730 N   0  0  0  0  0  0  0  0  0  0  0  0
  186.9620  178.4180  140.0010 C   0  0  0  0  0  3  0  0  0  0  0  0
  189.8080  177.3590  140.4000 C   0  0  0  0  0  0  0  0  0  0  0  0
  185.4100  178.6570  141.6260 C   0  0  0  0  0  3  0  0  0  0  0  0
  192.1370  177.2720  139.8240 N   0  0  0  0  0  0  0  0  0  0  0  0
  189.2230  177.5890  142.7840 C   0  0  0  0  0  0  0  0  0  0  0  0
  191.5490  177.4600  142.1050 C   0  0  0  0  0  3  0  0  0  0  0  0
  188.2620  176.5080  138.6500 N   0  0  0  0  0  1  0  0  0  0  0  0
  186.9260  178.0310  143.4590 C   0  0  0  0  0  3  0  0  0  0  0  0
  188.2450  177.7170  143.8130 C   0  0  0  0  0  0  0  0  0  0  0  0
  185.6600  178.7940  140.2720 C   0  0  0  0  0  0  0  0  0  0  0  0
  187.5310  178.0130  141.1520 N   0  0  0  0  0  0  0  0  0  0  0  0
  190.5850  177.5280  143.1010 C   0  0  0  0  0  3  0  0  0  0  0  0
  190.0930  176.9390  147.0450 C   0  0  0  0  0  0  0  0  0  0  0  0
  189.1150  177.2330  147.9970 C   0  0  0  0  0  3  0  0  0  0  0  0
  188.5620  177.5690  145.2590 C   0  0  0  0  0  0  0  0  0  0  0  0
  187.8590  177.6880  147.5890 C   0  0  0  0  0  3  0  0  0  0  0  0
  189.8150  177.1010  145.6840 C   0  0  0  0  0  3  0  0  0  0  0  0
  187.5830  177.8510  146.2280 C   0  0  0  0  0  3  0  0  0  0  0  0
  191.4280  176.4500  147.4760 C   0  0  0  0  0  1  0  0  0  0  0  0
  184.6690  179.2440  139.2580 C   0  0  0  0  0  2  0  0  0  0  0  0
  184.5650  178.2510  138.2010 N   0  0  0  0  0  2  0  0  0  0  0  0
  184.4390  176.1810  136.2430 O   0  0  0  0  0  0  0  0  0  0  0  0
  183.6800  177.1320  138.2880 C   0  0  0  0  0  0  0  0  0  0  0  0
  183.5980  176.1680  137.1800 C   0  0  0  0  0  0  0  0  0  0  0  0
  181.4930  175.3500  138.1200 C   0  0  0  0  0  2  0  0  0  0  0  0
  182.0290  175.8080  139.4780 C   0  0  0  0  0  2  0  0  0  0  0  0
  182.9050  176.9750  139.3220 N   0  0  0  0  0  0  0  0  0  0  0  0
  182.5680  175.2260  137.1900 O   0  0  0  0  0  0  0  0  0  0  0  0
  1 12  1  0  0  0  0
  2  8  1  0  0  0  0
  3 11  2  0  0  0  0
  4 14  1  0  0  0  0
  5 10  2  0  0  0  0
  6  5  1  0  0  0  0
  6  2  2  0  0  0  0
  7 16  2  0  0  0  0
  7 17  1  0  0  0  0
  8  1  2  0  0  0  0
  8  3  1  0  0  0  0
  9  4  2  0  0  0  0
 10  1  1  0  0  0  0
 11 18  1  0  0  0  0
 11 15  1  0  0  0  0
 12 18  2  0  0  0  0
 13  2  1  0  0  0  0
 14 15  2  0  0  0  0
 15 21  1  0  0  0  0
 16  9  1  0  0  0  0
 17  3  1  0  0  0  0
 17  4  1  0  0  0  0
 19 25  1  0  0  0  0
 19 20  1  0  0  0  0
 21 23  1  0  0  0  0
 21 24  2  0  0  0  0
 22 20  2  0  0  0  0
 23 19  2  0  0  0  0
 24 22  1  0  0  0  0
 26 16  1  0  0  0  0
 27 29  1  0  0  0  0
 27 26  1  0  0  0  0
 28 30  2  0  0  0  0
 29 33  2  0  0  0  0
 30 34  1  0  0  0  0
 30 29  1  0  0  0  0
 31 32  1  0  0  0  0
 33 32  1  0  0  0  0
 34 31  1  0  0  0  0
M  END
>  <MODEL>
7

>  <REMARK>
 VINA RESULT:     -10.3      3.666      7.047
  Name = 
  3 active torsions:
  status: ('A' for Active; 'I' for Inactive)
    1  A    between atoms: N_3  and  C_17
    2  A    between atoms: C_12  and  C_28
    3  A    between atoms: C_17  and  C_29
                            x       y       z     vdW  Elec       q    Type
                         _______ _______ _______ _____ _____    ______ ____

>  <TORSDO>
F 3

$$$$
=
 OpenBabel10232412333D

 34 39  0  0  0  0  0  0  0  0999 V2000
  182.6480  178.7890  141.7150 C   0  0  0  0  0  0  0  0  0  0  0  0
  183.4860  179.5780  139.6090 C   0  0  0  0  0  0  0  0  0  0  0  0
  185.0740  178.7190  141.3940 C   0  0  0  0  0  0  0  0  0  0  0  0
  187.4140  178.3030  141.1310 C   0  0  0  0  0  0  0  0  0  0  0  0
  181.1830  179.3290  139.9780 N   0  0  0  0  0  0  0  0  0  0  0  0
  182.1990  179.6850  139.1950 N   0  0  0  0  0  0  0  0  0  0  0  0
  186.2950  178.3310  139.2850 C   0  0  0  0  0  3  0  0  0  0  0  0
  183.7670  179.0090  140.8760 C   0  0  0  0  0  0  0  0  0  0  0  0
  188.3590  178.0480  140.1590 C   0  0  0  0  0  3  0  0  0  0  0  0
  181.3930  178.9180  141.2240 N   0  0  0  0  0  0  0  0  0  0  0  0
  185.2280  178.5270  142.8030 C   0  0  0  0  0  0  0  0  0  0  0  0
  182.8160  178.4910  143.0620 C   0  0  0  0  0  3  0  0  0  0  0  0
  184.4820  180.2520  138.8460 N   0  0  0  0  0  1  0  0  0  0  0  0
  187.6280  178.2520  142.4980 C   0  0  0  0  0  3  0  0  0  0  0  0
  186.5300  178.3700  143.3610 C   0  0  0  0  0  0  0  0  0  0  0  0
  187.6190  178.0670  138.9900 C   0  0  0  0  0  0  0  0  0  0  0  0
  186.1880  178.5130  140.6150 N   0  0  0  0  0  0  0  0  0  0  0  0
  184.0890  178.3960  143.6050 C   0  0  0  0  0  3  0  0  0  0  0  0
  188.1520  177.5670  146.7060 C   0  0  0  0  0  0  0  0  0  0  0  0
  187.2090  178.0790  147.5980 C   0  0  0  0  0  3  0  0  0  0  0  0
  186.7830  178.2860  144.8250 C   0  0  0  0  0  0  0  0  0  0  0  0
  186.0490  178.6890  147.1130 C   0  0  0  0  0  3  0  0  0  0  0  0
  187.9370  177.6650  145.3280 C   0  0  0  0  0  3  0  0  0  0  0  0
  185.8360  178.7880  145.7350 C   0  0  0  0  0  3  0  0  0  0  0  0
  189.3830  176.9130  147.2200 C   0  0  0  0  0  1  0  0  0  0  0  0
  188.1690  177.8680  137.6230 C   0  0  0  0  0  2  0  0  0  0  0  0
  187.0890  177.5360  136.7060 N   0  0  0  0  0  2  0  0  0  0  0  0
  185.0980  176.8160  134.7930 O   0  0  0  0  0  0  0  0  0  0  0  0
  186.7010  176.1880  136.4360 C   0  0  0  0  0  0  0  0  0  0  0  0
  185.5870  175.9090  135.5170 C   0  0  0  0  0  0  0  0  0  0  0  0
  185.4770  173.6400  136.4240 C   0  0  0  0  0  2  0  0  0  0  0  0
  186.9680  173.7930  136.7380 C   0  0  0  0  0  2  0  0  0  0  0  0
  187.2930  175.1930  137.0330 N   0  0  0  0  0  0  0  0  0  0  0  0
  185.0830  174.6090  135.4540 O   0  0  0  0  0  0  0  0  0  0  0  0
  1 12  1  0  0  0  0
  2  8  1  0  0  0  0
  3 11  2  0  0  0  0
  4 14  1  0  0  0  0
  5 10  2  0  0  0  0
  6  2  2  0  0  0  0
  6  5  1  0  0  0  0
  7 17  1  0  0  0  0
  8  3  1  0  0  0  0
  8  1  2  0  0  0  0
  9  4  2  0  0  0  0
 10  1  1  0  0  0  0
 11 15  1  0  0  0  0
 11 18  1  0  0  0  0
 12 18  2  0  0  0  0
 13  2  1  0  0  0  0
 14 15  2  0  0  0  0
 15 21  1  0  0  0  0
 16  7  2  0  0  0  0
 16  9  1  0  0  0  0
 17  4  1  0  0  0  0
 17  3  1  0  0  0  0
 19 25  1  0  0  0  0
 19 20  1  0  0  0  0
 21 23  1  0  0  0  0
 21 24  2  0  0  0  0
 22 20  2  0  0  0  0
 23 19  2  0  0  0  0
 24 22  1  0  0  0  0
 26 16  1  0  0  0  0
 27 26  1  0  0  0  0
 28 30  2  0  0  0  0
 29 27  1  0  0  0  0
 29 33  2  0  0  0  0
 30 29  1  0  0  0  0
 31 32  1  0  0  0  0
 32 33  1  0  0  0  0
 34 30  1  0  0  0  0
 34 31  1  0  0  0  0
M  END
>  <MODEL>
8

>  <REMARK>
 VINA RESULT:     -10.2      4.501      6.906
  Name = 
  3 active torsions:
  status: ('A' for Active; 'I' for Inactive)
    1  A    between atoms: N_3  and  C_17
    2  A    between atoms: C_12  and  C_28
    3  A    between atoms: C_17  and  C_29
                            x       y       z     vdW  Elec       q    Type
                         _______ _______ _______ _____ _____    ______ ____

>  <TORSDO>
F 3

$$$$
=
 OpenBabel10232412333D

 34 39  0  0  0  0  0  0  0  0999 V2000
  185.2230  178.1540  143.4960 C   0  0  0  0  0  0  0  0  0  0  0  0
  185.7130  178.7890  141.2350 C   0  0  0  0  0  0  0  0  0  0  0  0
  187.5350  177.8670  142.7440 C   0  0  0  0  0  0  0  0  0  0  0  0
  189.7470  177.2460  142.0820 C   0  0  0  0  0  0  0  0  0  0  0  0
  183.5060  178.7490  142.0290 N   0  0  0  0  0  0  0  0  0  0  0  0
  184.3830  178.9890  141.0570 N   0  0  0  0  0  0  0  0  0  0  0  0
  188.3100  177.2990  140.4710 C   0  0  0  0  0  3  0  0  0  0  0  0
  186.1800  178.2470  142.4580 C   0  0  0  0  0  0  0  0  0  0  0  0
  190.4720  176.8760  140.9690 C   0  0  0  0  0  3  0  0  0  0  0  0
  183.9120  178.3690  143.2360 N   0  0  0  0  0  0  0  0  0  0  0  0
  187.9320  177.7160  144.1090 C   0  0  0  0  0  0  0  0  0  0  0  0
  185.6150  177.8930  144.8040 C   0  0  0  0  0  3  0  0  0  0  0  0
  186.5980  179.3480  140.2690 N   0  0  0  0  0  1  0  0  0  0  0  0
  190.2060  177.2280  143.3880 C   0  0  0  0  0  3  0  0  0  0  0  0
  189.3000  177.4710  144.4290 C   0  0  0  0  0  0  0  0  0  0  0  0
  189.5320  176.9140  139.9550 C   0  0  0  0  0  0  0  0  0  0  0  0
  188.4660  177.5390  141.7870 N   0  0  0  0  0  0  0  0  0  0  0  0
  186.9560  177.7120  145.1110 C   0  0  0  0  0  3  0  0  0  0  0  0
  191.4020  176.5960  147.4750 C   0  0  0  0  0  0  0  0  0  0  0  0
  190.7260  177.2870  148.4820 C   0  0  0  0  0  3  0  0  0  0  0  0
  189.8120  177.4210  145.8240 C   0  0  0  0  0  0  0  0  0  0  0  0
  189.5910  178.0400  148.1700 C   0  0  0  0  0  3  0  0  0  0  0  0
  190.9440  176.6580  146.1560 C   0  0  0  0  0  3  0  0  0  0  0  0
  189.1350  178.1030  146.8500 C   0  0  0  0  0  3  0  0  0  0  0  0
  192.6050  175.7900  147.8050 C   0  0  0  0  0  1  0  0  0  0  0  0
  189.8020  176.6170  138.5220 C   0  0  0  0  0  2  0  0  0  0  0  0
  188.8670  177.3550  137.6860 N   0  0  0  0  0  2  0  0  0  0  0  0
  187.0930  178.7010  135.9040 O   0  0  0  0  0  0  0  0  0  0  0  0
  187.7130  176.7440  137.1070 C   0  0  0  0  0  0  0  0  0  0  0  0
  186.7870  177.5410  136.2880 C   0  0  0  0  0  0  0  0  0  0  0  0
  185.1200  175.7700  136.5450 C   0  0  0  0  0  2  0  0  0  0  0  0
  186.3000  174.8100  136.7070 C   0  0  0  0  0  2  0  0  0  0  0  0
  187.4390  175.4900  137.3330 N   0  0  0  0  0  0  0  0  0  0  0  0
  185.5600  176.9820  135.9320 O   0  0  0  0  0  0  0  0  0  0  0  0
  1 12  1  0  0  0  0
  2  8  1  0  0  0  0
  3 11  2  0  0  0  0
  4 14  1  0  0  0  0
  5 10  2  0  0  0  0
  6  2  2  0  0  0  0
  6  5  1  0  0  0  0
  7 17  1  0  0  0  0
  8  3  1  0  0  0  0
  8  1  2  0  0  0  0
  9  4  2  0  0  0  0
 10  1  1  0  0  0  0
 11 15  1  0  0  0  0
 11 18  1  0  0  0  0
 12 18  2  0  0  0  0
 13  2  1  0  0  0  0
 14 15  2  0  0  0  0
 15 21  1  0  0  0  0
 16  7  2  0  0  0  0
 16  9  1  0  0  0  0
 17  4  1  0  0  0  0
 17  3  1  0  0  0  0
 19 25  1  0  0  0  0
 19 20  1  0  0  0  0
 21 23  1  0  0  0  0
 21 24  2  0  0  0  0
 22 20  2  0  0  0  0
 23 19  2  0  0  0  0
 24 22  1  0  0  0  0
 26 16  1  0  0  0  0
 27 26  1  0  0  0  0
 28 30  2  0  0  0  0
 29 33  2  0  0  0  0
 29 27  1  0  0  0  0
 30 29  1  0  0  0  0
 31 32  1  0  0  0  0
 32 33  1  0  0  0  0
 34 30  1  0  0  0  0
 34 31  1  0  0  0  0
M  END
>  <MODEL>
9

>  <REMARK>
 VINA RESULT:      -9.9      3.381      6.166
  Name = 
  3 active torsions:
  status: ('A' for Active; 'I' for Inactive)
    1  A    between atoms: N_3  and  C_17
    2  A    between atoms: C_12  and  C_28
    3  A    between atoms: C_17  and  C_29
                            x       y       z     vdW  Elec       q    Type
                         _______ _______ _______ _____ _____    ______ ____

>  <TORSDO>
F 3

$$$$
