=
 OpenBabel10232410493D

 35 39  0  0  1  0  0  0  0  0999 V2000
  189.0610  177.2200  142.4200 N   0  0  0  0  0  0  0  0  0  0  0  0
  187.7860  178.2220  140.5880 C   0  0  0  0  0  2  0  0  0  0  0  0
  184.8800  178.4220  138.8300 C   0  0  0  0  0  0  0  0  0  0  0  0
  185.8080  177.5790  138.1370 N   0  0  0  0  0  2  0  0  0  0  0  0
  187.9880  177.0320  137.3680 N   0  0  0  0  0  0  0  0  0  0  0  0
  187.9930  178.5540  139.1460 C   0  0  2  0  0  3  0  0  0  0  0  0
  187.2350  177.6920  138.1890 C   0  0  0  0  0  0  0  0  0  0  0  0
  189.3990  177.3020  137.6170 C   0  0  0  0  0  2  0  0  0  0  0  0
  188.9010  177.6870  141.0700 C   0  0  0  0  0  0  0  0  0  0  0  0
  189.3570  178.0230  138.9110 C   0  0  2  0  0  3  0  0  0  0  0  0
  189.8750  177.4860  140.0040 C   0  0  0  0  0  3  0  0  0  0  0  0
  185.2610  179.4960  139.3700 O   0  0  0  0  0  0  0  0  0  0  0  0
  182.1620  176.0830  139.5940 C   0  0  0  0  0  2  0  0  0  0  0  0
  183.4320  178.0570  138.8520 C   0  0  1  0  0  3  0  0  0  0  0  0
  183.2690  176.5570  138.6730 C   0  0  1  0  0  3  0  0  0  0  0  0
  183.1270  177.1620  140.0420 C   0  0  2  0  0  3  0  0  0  0  0  0
  189.8170  176.0000  142.7080 C   0  0  0  0  0  2  0  0  0  0  0  0
  191.2930  176.2200  142.4280 C   0  0  0  0  0  2  0  0  0  0  0  0
  191.9340  176.6240  143.5990 O   0  0  0  0  0  0  0  0  0  0  0  0
  191.6470  175.6200  144.5240 C   0  0  0  0  0  3  0  0  0  0  0  0
  191.9140  176.0840  145.8110 O   0  0  0  0  0  1  0  0  0  0  0  0
  192.4380  174.5020  144.2610 O   0  0  0  0  0  1  0  0  0  0  0  0
  188.3580  177.9120  143.5000 C   0  0  2  0  0  3  0  0  0  0  0  0
  190.3700  179.0910  144.3870 O   0  0  0  0  0  0  0  0  0  0  0  0
  189.1160  177.7670  145.7730 O   0  0  0  0  0  1  0  0  0  0  0  0
  189.2890  178.2520  144.6230 C   0  0  0  0  0  0  0  0  0  0  0  0
  187.1420  177.1140  143.9670 C   0  0  0  0  0  2  0  0  0  0  0  0
  185.4510  178.0560  145.4290 C   0  0  0  0  0  3  0  0  0  0  0  0
  183.0680  178.9310  143.7060 C   0  0  0  0  0  0  0  0  0  0  0  0
  181.7430  178.8200  143.0440 C   0  0  0  0  0  1  0  0  0  0  0  0
  185.4990  178.8440  143.0760 C   0  0  0  0  0  3  0  0  0  0  0  0
  183.1240  178.7910  145.0310 C   0  0  0  0  0  3  0  0  0  0  0  0
  184.3660  179.0000  145.8310 C   0  0  0  0  0  2  0  0  0  0  0  0
  185.9720  178.0090  144.2010 C   0  0  0  0  0  0  0  0  0  0  0  0
  184.2380  179.2440  142.8620 C   0  0  0  0  0  3  0  0  0  0  0  0
  1 17  1  0  0  0  0
  1 23  1  0  0  0  0
  2  9  1  0  0  0  0
  3 12  2  0  0  0  0
  4  7  1  0  0  0  0
  4  3  1  0  0  0  0
  5  8  1  0  0  0  0
  5  7  2  0  0  0  0
  6  2  1  1  0  0  0
  7  6  1  0  0  0  0
  9  1  1  0  0  0  0
 10  8  1  6  0  0  0
 10  6  1  0  0  0  0
 10 11  1  0  0  0  0
 11  9  2  0  0  0  0
 14  3  1  1  0  0  0
 14 16  1  0  0  0  0
 15 14  1  0  0  0  0
 15 13  1  6  0  0  0
 15 16  1  0  0  0  0
 16 13  1  6  0  0  0
 18 17  1  0  0  0  0
 18 19  1  0  0  0  0
 19 20  1  0  0  0  0
 20 21  1  0  0  0  0
 22 20  1  0  0  0  0
 23 27  1  1  0  0  0
 23 26  1  0  0  0  0
 24 26  2  0  0  0  0
 26 25  1  0  0  0  0
 27 34  1  0  0  0  0
 28 33  1  0  0  0  0
 29 32  2  0  0  0  0
 30 29  1  0  0  0  0
 31 34  1  0  0  0  0
 32 33  1  0  0  0  0
 34 28  2  0  0  0  0
 35 31  2  0  0  0  0
 35 29  1  0  0  0  0
M  END
>  <MODEL>
1

>  <REMARK>
 VINA RESULT:      -8.1      0.000      0.000
  Name = 
  10 active torsions:
  status: ('A' for Active; 'I' for Inactive)
    1  A    between atoms: C_2  and  O_19
    2  A    between atoms: C_7  and  C_17
    3  A    between atoms: C_7  and  N_29
    4  A    between atoms: C_8  and  C_15
    5  A    between atoms: C_11  and  C_18
    6  A    between atoms: C_11  and  C_22
    7  A    between atoms: C_11  and  N_29
    8  A    between atoms: C_17  and  O_19
    9  A    between atoms: C_18  and  C_33
   10  A    between atoms: C_26  and  N_29
                            x       y       z     vdW  Elec       q    Type
                         _______ _______ _______ _____ _____    ______ ____

>  <TORSDO>
F 10

$$$$
=
 OpenBabel10232410493D

 35 39  0  0  1  0  0  0  0  0999 V2000
  187.3870  178.1380  139.1150 N   0  0  0  0  0  0  0  0  0  0  0  0
  188.8510  177.1410  140.8040 C   0  0  0  0  0  2  0  0  0  0  0  0
  190.2330  177.2840  143.9090 C   0  0  0  0  0  0  0  0  0  0  0  0
  191.1670  177.7750  142.9410 N   0  0  0  0  0  2  0  0  0  0  0  0
  192.2440  177.6960  140.8240 N   0  0  0  0  0  0  0  0  0  0  0  0
  190.2140  176.5330  140.8690 C   0  0  2  0  0  3  0  0  0  0  0  0
  191.2390  177.3640  141.5700 C   0  0  0  0  0  0  0  0  0  0  0  0
  192.0910  177.1720  139.4730 C   0  0  0  0  0  2  0  0  0  0  0  0
  188.5980  177.4950  139.5500 C   0  0  0  0  0  0  0  0  0  0  0  0
  190.6840  176.7070  139.4740 C   0  0  2  0  0  3  0  0  0  0  0  0
  189.7750  177.2960  138.7140 C   0  0  0  0  0  3  0  0  0  0  0  0
  189.5360  176.2600  143.6730 O   0  0  0  0  0  0  0  0  0  0  0  0
  189.8860  177.1560  147.5570 C   0  0  0  0  0  2  0  0  0  0  0  0
  190.1370  177.9530  145.2410 C   0  0  1  0  0  3  0  0  0  0  0  0
  189.2630  177.1310  146.1750 C   0  0  1  0  0  3  0  0  0  0  0  0
  190.7590  177.0820  146.3200 C   0  0  2  0  0  3  0  0  0  0  0  0
  187.3160  178.8030  137.8140 C   0  0  0  0  0  2  0  0  0  0  0  0
  187.0510  177.7860  136.7180 C   0  0  0  0  0  2  0  0  0  0  0  0
  187.8200  178.0980  135.5970 O   0  0  0  0  0  0  0  0  0  0  0  0
  188.3450  176.8750  135.1760 C   0  0  0  0  0  3  0  0  0  0  0  0
  187.9120  175.8650  136.0340 O   0  0  0  0  0  1  0  0  0  0  0  0
  189.7370  176.9340  135.1950 O   0  0  0  0  0  1  0  0  0  0  0  0
  186.2570  178.2250  140.0390 C   0  0  2  0  0  3  0  0  0  0  0  0
  184.6580  179.9780  139.2680 O   0  0  0  0  0  1  0  0  0  0  0  0
  184.2480  177.7720  138.8050 O   0  0  0  0  0  0  0  0  0  0  0  0
  185.0040  178.6340  139.3280 C   0  0  0  0  0  0  0  0  0  0  0  0
  186.5820  179.1320  141.2250 C   0  0  0  0  0  2  0  0  0  0  0  0
  184.6130  179.1920  142.6400 C   0  0  0  0  0  3  0  0  0  0  0  0
  185.4620  178.4800  145.5010 C   0  0  0  0  0  0  0  0  0  0  0  0
  185.8850  178.7220  146.9040 C   0  0  0  0  0  1  0  0  0  0  0  0
  186.4790  177.7120  143.3360 C   0  0  0  0  0  3  0  0  0  0  0  0
  184.3130  179.0160  145.0880 C   0  0  0  0  0  3  0  0  0  0  0  0
  183.7140  178.7500  143.7480 C   0  0  0  0  0  2  0  0  0  0  0  0
  185.8400  178.7040  142.4460 C   0  0  0  0  0  0  0  0  0  0  0  0
  186.3150  177.6150  144.6620 C   0  0  0  0  0  3  0  0  0  0  0  0
  1  9  1  0  0  0  0
  1 23  1  0  0  0  0
  4  3  1  0  0  0  0
  5  7  2  0  0  0  0
  6  2  1  6  0  0  0
  6  7  1  0  0  0  0
  7  4  1  0  0  0  0
  8 10  1  0  0  0  0
  8  5  1  0  0  0  0
  9  2  1  0  0  0  0
 10 11  1  1  0  0  0
 10  6  1  0  0  0  0
 11  9  2  0  0  0  0
 12  3  2  0  0  0  0
 14  3  1  6  0  0  0
 14 15  1  0  0  0  0
 14 16  1  0  0  0  0
 15 16  1  0  0  0  0
 15 13  1  1  0  0  0
 16 13  1  1  0  0  0
 17  1  1  0  0  0  0
 18 17  1  0  0  0  0
 19 18  1  0  0  0  0
 20 22  1  0  0  0  0
 20 19  1  0  0  0  0
 20 21  1  0  0  0  0
 23 27  1  1  0  0  0
 24 26  1  0  0  0  0
 25 26  2  0  0  0  0
 26 23  1  0  0  0  0
 27 34  1  0  0  0  0
 28 33  1  0  0  0  0
 29 30  1  0  0  0  0
 31 35  2  0  0  0  0
 32 29  2  0  0  0  0
 33 32  1  0  0  0  0
 34 28  2  0  0  0  0
 34 31  1  0  0  0  0
 35 29  1  0  0  0  0
M  END
>  <MODEL>
2

>  <REMARK>
 VINA RESULT:      -8.1      2.330      6.374
  Name = 
  10 active torsions:
  status: ('A' for Active; 'I' for Inactive)
    1  A    between atoms: C_2  and  O_19
    2  A    between atoms: C_7  and  C_17
    3  A    between atoms: C_7  and  N_29
    4  A    between atoms: C_8  and  C_15
    5  A    between atoms: C_11  and  C_18
    6  A    between atoms: C_11  and  C_22
    7  A    between atoms: C_11  and  N_29
    8  A    between atoms: C_17  and  O_19
    9  A    between atoms: C_18  and  C_33
   10  A    between atoms: C_26  and  N_29
                            x       y       z     vdW  Elec       q    Type
                         _______ _______ _______ _____ _____    ______ ____

>  <TORSDO>
F 10

$$$$
=
 OpenBabel10232410493D

 35 39  0  0  1  0  0  0  0  0999 V2000
  189.4880  176.9140  142.2030 N   0  0  0  0  0  0  0  0  0  0  0  0
  188.6570  177.6280  140.0160 C   0  0  0  0  0  2  0  0  0  0  0  0
  186.1000  177.7660  137.7750 C   0  0  0  0  0  0  0  0  0  0  0  0
  186.9840  176.6920  137.4340 N   0  0  0  0  0  2  0  0  0  0  0  0
  189.1490  175.7470  137.1800 N   0  0  0  0  0  0  0  0  0  0  0  0
  189.1190  177.6100  138.5940 C   0  0  2  0  0  3  0  0  0  0  0  0
  188.3900  176.6510  137.7100 C   0  0  0  0  0  0  0  0  0  0  0  0
  190.5320  175.9030  137.6120 C   0  0  0  0  0  2  0  0  0  0  0  0
  189.5980  177.0890  140.7800 C   0  0  0  0  0  0  0  0  0  0  0  0
  190.4080  176.8900  138.7110 C   0  0  2  0  0  3  0  0  0  0  0  0
  190.6760  176.5500  139.9610 C   0  0  0  0  0  3  0  0  0  0  0  0
  186.5520  178.8820  138.1500 O   0  0  0  0  0  0  0  0  0  0  0  0
  182.9420  176.1470  138.6960 C   0  0  0  0  0  2  0  0  0  0  0  0
  184.6260  177.5810  137.6160 C   0  0  1  0  0  3  0  0  0  0  0  0
  184.2450  176.1420  137.9210 C   0  0  1  0  0  3  0  0  0  0  0  0
  183.9900  177.2120  138.9460 C   0  0  2  0  0  3  0  0  0  0  0  0
  190.1570  175.7990  142.8760 C   0  0  0  0  0  2  0  0  0  0  0  0
  191.5130  176.2400  143.3990 C   0  0  0  0  0  2  0  0  0  0  0  0
  191.9680  175.3200  144.3430 O   0  0  0  0  0  0  0  0  0  0  0  0
  191.6860  175.9100  145.5760 C   0  0  0  0  0  3  0  0  0  0  0  0
  192.0790  177.2470  145.5520 O   0  0  0  0  0  1  0  0  0  0  0  0
  192.3810  175.2410  146.5830 O   0  0  0  0  0  1  0  0  0  0  0  0
  188.6010  177.7950  142.9610 C   0  0  2  0  0  3  0  0  0  0  0  0
  188.9780  178.1640  145.4000 O   0  0  0  0  0  1  0  0  0  0  0  0
  190.2400  179.3010  143.8620 O   0  0  0  0  0  0  0  0  0  0  0  0
  189.3290  178.4590  144.0890 C   0  0  0  0  0  0  0  0  0  0  0  0
  187.3510  177.0510  143.4280 C   0  0  0  0  0  2  0  0  0  0  0  0
  185.5540  178.1370  144.6410 C   0  0  0  0  0  3  0  0  0  0  0  0
  183.3200  178.8140  142.6510 C   0  0  0  0  0  0  0  0  0  0  0  0
  182.0500  178.6280  141.9010 C   0  0  0  0  0  1  0  0  0  0  0  0
  185.7920  178.6690  142.2290 C   0  0  0  0  0  3  0  0  0  0  0  0
  183.2690  178.8160  143.9830 C   0  0  0  0  0  3  0  0  0  0  0  0
  184.4450  179.1150  144.8520 C   0  0  0  0  0  2  0  0  0  0  0  0
  186.1700  177.9610  143.4710 C   0  0  0  0  0  0  0  0  0  0  0  0
  184.5550  179.0390  141.8740 C   0  0  0  0  0  3  0  0  0  0  0  0
  1 17  1  0  0  0  0
  1 23  1  0  0  0  0
  2  9  1  0  0  0  0
  3 12  2  0  0  0  0
  4  7  1  0  0  0  0
  4  3  1  0  0  0  0
  5  8  1  0  0  0  0
  5  7  2  0  0  0  0
  6 10  1  0  0  0  0
  6  2  1  1  0  0  0
  7  6  1  0  0  0  0
  9  1  1  0  0  0  0
 10  8  1  6  0  0  0
 10 11  1  0  0  0  0
 11  9  2  0  0  0  0
 14  3  1  1  0  0  0
 14 15  1  0  0  0  0
 14 16  1  0  0  0  0
 15 13  1  6  0  0  0
 15 16  1  0  0  0  0
 16 13  1  6  0  0  0
 17 18  1  0  0  0  0
 18 19  1  0  0  0  0
 19 20  1  0  0  0  0
 20 22  1  0  0  0  0
 21 20  1  0  0  0  0
 23 27  1  1  0  0  0
 23 26  1  0  0  0  0
 25 26  2  0  0  0  0
 26 24  1  0  0  0  0
 27 34  1  0  0  0  0
 28 33  1  0  0  0  0
 29 32  2  0  0  0  0
 30 29  1  0  0  0  0
 31 34  1  0  0  0  0
 32 33  1  0  0  0  0
 34 28  2  0  0  0  0
 35 31  2  0  0  0  0
 35 29  1  0  0  0  0
M  END
>  <MODEL>
3

>  <REMARK>
 VINA RESULT:      -8.0      1.069      1.389
  Name = 
  10 active torsions:
  status: ('A' for Active; 'I' for Inactive)
    1  A    between atoms: C_2  and  O_19
    2  A    between atoms: C_7  and  C_17
    3  A    between atoms: C_7  and  N_29
    4  A    between atoms: C_8  and  C_15
    5  A    between atoms: C_11  and  C_18
    6  A    between atoms: C_11  and  C_22
    7  A    between atoms: C_11  and  N_29
    8  A    between atoms: C_17  and  O_19
    9  A    between atoms: C_18  and  C_33
   10  A    between atoms: C_26  and  N_29
                            x       y       z     vdW  Elec       q    Type
                         _______ _______ _______ _____ _____    ______ ____

>  <TORSDO>
F 10

$$$$
=
 OpenBabel10232410493D

 35 39  0  0  1  0  0  0  0  0999 V2000
  189.2100  177.4220  141.0100 N   0  0  0  0  0  0  0  0  0  0  0  0
  187.3930  178.3650  139.6710 C   0  0  0  0  0  2  0  0  0  0  0  0
  184.0660  178.9620  139.2870 C   0  0  0  0  0  0  0  0  0  0  0  0
  184.4400  177.8050  138.5300 N   0  0  0  0  0  2  0  0  0  0  0  0
  185.9200  176.6070  137.1090 N   0  0  0  0  0  0  0  0  0  0  0  0
  186.9580  178.3720  138.2410 C   0  0  2  0  0  3  0  0  0  0  0  0
  185.7310  177.5690  137.9550 C   0  0  0  0  0  0  0  0  0  0  0  0
  187.3100  176.5580  136.6710 C   0  0  0  0  0  2  0  0  0  0  0  0
  188.5150  177.6650  139.7750 C   0  0  0  0  0  0  0  0  0  0  0  0
  187.9700  177.4860  137.6190 C   0  0  2  0  0  3  0  0  0  0  0  0
  188.8510  177.0420  138.5010 C   0  0  0  0  0  3  0  0  0  0  0  0
  184.8010  179.9870  139.3080 O   0  0  0  0  0  0  0  0  0  0  0  0
  180.9770  177.3180  140.3810 C   0  0  0  0  0  2  0  0  0  0  0  0
  182.7540  178.9780  140.0020 C   0  0  1  0  0  3  0  0  0  0  0  0
  181.7740  178.0420  139.3150 C   0  0  1  0  0  3  0  0  0  0  0  0
  182.4500  177.6080  140.5860 C   0  0  2  0  0  3  0  0  0  0  0  0
  190.3830  176.5470  141.0520 C   0  0  0  0  0  2  0  0  0  0  0  0
  191.5950  177.2670  140.4890 C   0  0  0  0  0  2  0  0  0  0  0  0
  191.7880  176.8850  139.1610 O   0  0  0  0  0  0  0  0  0  0  0  0
  193.1580  176.6410  139.0580 C   0  0  0  0  0  3  0  0  0  0  0  0
  193.8500  177.5230  139.8880 O   0  0  0  0  0  1  0  0  0  0  0  0
  193.5680  176.8280  137.7390 O   0  0  0  0  0  1  0  0  0  0  0  0
  188.6630  177.9650  142.2530 C   0  0  2  0  0  3  0  0  0  0  0  0
  189.9060  177.1840  144.2700 O   0  0  0  0  0  1  0  0  0  0  0  0
  190.4620  179.1750  143.2830 O   0  0  0  0  0  0  0  0  0  0  0  0
  189.7340  178.1470  143.2850 C   0  0  0  0  0  0  0  0  0  0  0  0
  187.4980  177.1160  142.7600 C   0  0  0  0  0  2  0  0  0  0  0  0
  186.4750  177.8110  144.8470 C   0  0  0  0  0  3  0  0  0  0  0  0
  183.6660  178.8780  144.2330 C   0  0  0  0  0  0  0  0  0  0  0  0
  182.1880  178.8390  144.0830 C   0  0  0  0  0  1  0  0  0  0  0  0
  185.7050  178.9250  142.7680 C   0  0  0  0  0  3  0  0  0  0  0  0
  184.1860  178.5520  145.4170 C   0  0  0  0  0  3  0  0  0  0  0  0
  185.6390  178.6680  145.7380 C   0  0  0  0  0  2  0  0  0  0  0  0
  186.5200  177.9470  143.5200 C   0  0  0  0  0  0  0  0  0  0  0  0
  184.4660  179.3290  143.0770 C   0  0  0  0  0  3  0  0  0  0  0  0
  1 17  1  0  0  0  0
  1 23  1  0  0  0  0
  2  9  1  0  0  0  0
  3 12  2  0  0  0  0
  4  3  1  0  0  0  0
  5  7  2  0  0  0  0
  6  2  1  1  0  0  0
  7  6  1  0  0  0  0
  7  4  1  0  0  0  0
  8  5  1  0  0  0  0
  9  1  1  0  0  0  0
 10  8  1  1  0  0  0
 10  6  1  0  0  0  0
 10 11  1  0  0  0  0
 11  9  2  0  0  0  0
 14  3  1  6  0  0  0
 14 16  1  0  0  0  0
 15 14  1  0  0  0  0
 15 13  1  1  0  0  0
 15 16  1  0  0  0  0
 16 13  1  1  0  0  0
 18 17  1  0  0  0  0
 19 18  1  0  0  0  0
 20 19  1  0  0  0  0
 20 21  1  0  0  0  0
 22 20  1  0  0  0  0
 23 27  1  1  0  0  0
 23 26  1  0  0  0  0
 25 26  2  0  0  0  0
 26 24  1  0  0  0  0
 27 34  1  0  0  0  0
 28 33  1  0  0  0  0
 29 32  2  0  0  0  0
 30 29  1  0  0  0  0
 31 35  2  0  0  0  0
 31 34  1  0  0  0  0
 32 33  1  0  0  0  0
 34 28  2  0  0  0  0
 35 29  1  0  0  0  0
M  END
>  <MODEL>
4

>  <REMARK>
 VINA RESULT:      -7.8      1.965      2.510
  Name = 
  10 active torsions:
  status: ('A' for Active; 'I' for Inactive)
    1  A    between atoms: C_2  and  O_19
    2  A    between atoms: C_7  and  C_17
    3  A    between atoms: C_7  and  N_29
    4  A    between atoms: C_8  and  C_15
    5  A    between atoms: C_11  and  C_18
    6  A    between atoms: C_11  and  C_22
    7  A    between atoms: C_11  and  N_29
    8  A    between atoms: C_17  and  O_19
    9  A    between atoms: C_18  and  C_33
   10  A    between atoms: C_26  and  N_29
                            x       y       z     vdW  Elec       q    Type
                         _______ _______ _______ _____ _____    ______ ____

>  <TORSDO>
F 10

$$$$
=
 OpenBabel10232410493D

 35 39  0  0  1  0  0  0  0  0999 V2000
  189.5780  177.8130  141.0710 N   0  0  0  0  0  0  0  0  0  0  0  0
  189.3880  177.0100  138.7680 C   0  0  0  0  0  2  0  0  0  0  0  0
  187.7890  175.0550  136.4890 C   0  0  0  0  0  0  0  0  0  0  0  0
  188.9700  174.3900  136.9520 N   0  0  0  0  0  2  0  0  0  0  0  0
  191.2540  174.3660  137.6050 N   0  0  0  0  0  0  0  0  0  0  0  0
  190.2930  176.4980  137.6950 C   0  0  2  0  0  3  0  0  0  0  0  0
  190.1630  175.0370  137.4100 C   0  0  0  0  0  0  0  0  0  0  0  0
  192.3270  175.2340  138.0760 C   0  0  0  0  0  2  0  0  0  0  0  0
  190.1160  177.3150  139.8340 C   0  0  0  0  0  0  0  0  0  0  0  0
  191.6010  176.4870  138.3900 C   0  0  2  0  0  3  0  0  0  0  0  0
  191.5050  176.9200  139.6370 C   0  0  0  0  0  3  0  0  0  0  0  0
  187.8010  176.2890  136.2300 O   0  0  0  0  0  0  0  0  0  0  0  0
  184.8840  173.1680  137.6920 C   0  0  0  0  0  2  0  0  0  0  0  0
  186.5480  174.2600  136.2430 C   0  0  1  0  0  3  0  0  0  0  0  0
  186.3590  173.2330  137.3470 C   0  0  1  0  0  3  0  0  0  0  0  0
  185.5390  174.4930  137.3540 C   0  0  2  0  0  3  0  0  0  0  0  0
  188.5200  178.8240  141.0760 C   0  0  0  0  0  2  0  0  0  0  0  0
  187.1620  178.1640  140.9150 C   0  0  0  0  0  2  0  0  0  0  0  0
  186.4590  178.7880  139.8840 O   0  0  0  0  0  0  0  0  0  0  0  0
  185.1860  179.0110  140.4080 C   0  0  0  0  0  3  0  0  0  0  0  0
  184.5010  179.9130  139.5950 O   0  0  0  0  0  1  0  0  0  0  0  0
  185.2950  179.5380  141.6940 O   0  0  0  0  0  1  0  0  0  0  0  0
  190.1810  177.3850  142.3330 C   0  0  2  0  0  3  0  0  0  0  0  0
  190.6580  175.0660  143.1170 O   0  0  0  0  0  1  0  0  0  0  0  0
  188.5050  175.6970  142.6520 O   0  0  0  0  0  0  0  0  0  0  0  0
  189.7240  176.0110  142.7150 C   0  0  0  0  0  0  0  0  0  0  0  0
  189.9390  178.4130  143.4370 C   0  0  0  0  0  2  0  0  0  0  0  0
  187.7930  177.9350  144.4620 C   0  0  0  0  0  3  0  0  0  0  0  0
  188.2180  177.6250  147.4840 C   0  0  0  0  0  0  0  0  0  0  0  0
  188.2620  178.0390  148.9110 C   0  0  0  0  0  1  0  0  0  0  0  0
  189.8250  177.1120  145.6230 C   0  0  0  0  0  3  0  0  0  0  0  0
  187.0700  177.7750  146.8210 C   0  0  0  0  0  3  0  0  0  0  0  0
  186.8550  177.2890  145.4270 C   0  0  0  0  0  2  0  0  0  0  0  0
  189.1210  177.8310  144.5400 C   0  0  0  0  0  0  0  0  0  0  0  0
  189.4330  177.0230  146.9010 C   0  0  0  0  0  3  0  0  0  0  0  0
  1 17  1  0  0  0  0
  1 23  1  0  0  0  0
  2  9  1  0  0  0  0
  3  4  1  0  0  0  0
  4  7  1  0  0  0  0
  5  8  1  0  0  0  0
  6 10  1  0  0  0  0
  6  2  1  1  0  0  0
  7  5  2  0  0  0  0
  7  6  1  0  0  0  0
  9  1  1  0  0  0  0
 10  8  1  1  0  0  0
 10 11  1  0  0  0  0
 11  9  2  0  0  0  0
 12  3  2  0  0  0  0
 14  3  1  1  0  0  0
 14 15  1  0  0  0  0
 14 16  1  0  0  0  0
 15 16  1  0  0  0  0
 15 13  1  6  0  0  0
 16 13  1  6  0  0  0
 18 17  1  0  0  0  0
 19 20  1  0  0  0  0
 19 18  1  0  0  0  0
 20 22  1  0  0  0  0
 21 20  1  0  0  0  0
 23 26  1  0  0  0  0
 23 27  1  1  0  0  0
 25 26  2  0  0  0  0
 26 24  1  0  0  0  0
 27 34  1  0  0  0  0
 28 34  2  0  0  0  0
 28 33  1  0  0  0  0
 29 30  1  0  0  0  0
 31 35  2  0  0  0  0
 32 29  2  0  0  0  0
 33 32  1  0  0  0  0
 34 31  1  0  0  0  0
 35 29  1  0  0  0  0
M  END
>  <MODEL>
5

>  <REMARK>
 VINA RESULT:      -7.7      2.618      5.049
  Name = 
  10 active torsions:
  status: ('A' for Active; 'I' for Inactive)
    1  A    between atoms: C_2  and  O_19
    2  A    between atoms: C_7  and  C_17
    3  A    between atoms: C_7  and  N_29
    4  A    between atoms: C_8  and  C_15
    5  A    between atoms: C_11  and  C_18
    6  A    between atoms: C_11  and  C_22
    7  A    between atoms: C_11  and  N_29
    8  A    between atoms: C_17  and  O_19
    9  A    between atoms: C_18  and  C_33
   10  A    between atoms: C_26  and  N_29
                            x       y       z     vdW  Elec       q    Type
                         _______ _______ _______ _____ _____    ______ ____

>  <TORSDO>
F 10

$$$$
=
 OpenBabel10232410493D

 35 39  0  0  1  0  0  0  0  0999 V2000
  189.3080  177.4340  144.3840 N   0  0  0  0  0  0  0  0  0  0  0  0
  186.9340  177.5070  143.7960 C   0  0  0  0  0  2  0  0  0  0  0  0
  184.4560  178.7750  141.8390 C   0  0  0  0  0  0  0  0  0  0  0  0
  184.4870  179.4700  143.0920 N   0  0  0  0  0  2  0  0  0  0  0  0
  184.7120  179.5400  145.4560 N   0  0  0  0  0  0  0  0  0  0  0  0
  185.6200  177.6060  144.5010 C   0  0  2  0  0  3  0  0  0  0  0  0
  184.9190  178.9160  144.3400 C   0  0  0  0  0  0  0  0  0  0  0  0
  185.2450  178.7880  146.5850 C   0  0  0  0  0  2  0  0  0  0  0  0
  187.9060  177.4940  144.6990 C   0  0  0  0  0  0  0  0  0  0  0  0
  186.0510  177.7410  145.9130 C   0  0  2  0  0  3  0  0  0  0  0  0
  187.3680  177.7170  146.0350 C   0  0  0  0  0  3  0  0  0  0  0  0
  184.5970  177.5230  141.7910 O   0  0  0  0  0  0  0  0  0  0  0  0
  182.9840  179.0420  138.4920 C   0  0  0  0  0  2  0  0  0  0  0  0
  184.1840  179.5370  140.5840 C   0  0  1  0  0  3  0  0  0  0  0  0
  184.1070  178.5850  139.4020 C   0  0  1  0  0  3  0  0  0  0  0  0
  182.8410  179.1350  139.9980 C   0  0  2  0  0  3  0  0  0  0  0  0
  190.3050  178.0200  145.2800 C   0  0  0  0  0  2  0  0  0  0  0  0
  190.5020  177.1320  146.4970 C   0  0  0  0  0  2  0  0  0  0  0  0
  191.8590  177.0740  146.8150 O   0  0  0  0  0  0  0  0  0  0  0  0
  192.0490  175.7900  147.3250 C   0  0  0  0  0  3  0  0  0  0  0  0
  193.0990  175.8050  148.2430 O   0  0  0  0  0  1  0  0  0  0  0  0
  192.3560  174.9150  146.2850 O   0  0  0  0  0  1  0  0  0  0  0  0
  189.7230  176.8830  143.0940 C   0  0  2  0  0  3  0  0  0  0  0  0
  190.5650  174.5480  143.3450 O   0  0  0  0  0  1  0  0  0  0  0  0
  192.0390  176.3010  143.3410 O   0  0  0  0  0  0  0  0  0  0  0  0
  190.8460  175.9050  143.2570 C   0  0  0  0  0  0  0  0  0  0  0  0
  190.0550  177.9950  142.1000 C   0  0  0  0  0  2  0  0  0  0  0  0
  190.5850  177.0920  139.9130 C   0  0  0  0  0  3  0  0  0  0  0  0
  188.5830  178.2330  137.8880 C   0  0  0  0  0  0  0  0  0  0  0  0
  188.0640  179.1570  136.8460 C   0  0  0  0  0  1  0  0  0  0  0  0
  188.2360  177.7690  140.3330 C   0  0  0  0  0  3  0  0  0  0  0  0
  189.7280  177.5940  137.6480 C   0  0  0  0  0  3  0  0  0  0  0  0
  190.2940  176.5500  138.5520 C   0  0  0  0  0  2  0  0  0  0  0  0
  189.6550  177.6130  140.7150 C   0  0  0  0  0  0  0  0  0  0  0  0
  187.7710  178.0380  139.1050 C   0  0  0  0  0  3  0  0  0  0  0  0
  1  9  1  0  0  0  0
  1 17  1  0  0  0  0
  2  9  1  0  0  0  0
  3  4  1  0  0  0  0
  4  7  1  0  0  0  0
  5  8  1  0  0  0  0
  6  2  1  6  0  0  0
  6 10  1  0  0  0  0
  7  6  1  0  0  0  0
  7  5  2  0  0  0  0
  9 11  2  0  0  0  0
 10 11  1  6  0  0  0
 10  8  1  0  0  0  0
 12  3  2  0  0  0  0
 14  3  1  1  0  0  0
 15 13  1  6  0  0  0
 15 16  1  0  0  0  0
 15 14  1  0  0  0  0
 16 13  1  6  0  0  0
 16 14  1  0  0  0  0
 17 18  1  0  0  0  0
 18 19  1  0  0  0  0
 19 20  1  0  0  0  0
 20 21  1  0  0  0  0
 22 20  1  0  0  0  0
 23 27  1  6  0  0  0
 23 26  1  0  0  0  0
 23  1  1  0  0  0  0
 26 25  2  0  0  0  0
 26 24  1  0  0  0  0
 28 34  2  0  0  0  0
 29 35  1  0  0  0  0
 30 29  1  0  0  0  0
 31 34  1  0  0  0  0
 32 29  2  0  0  0  0
 32 33  1  0  0  0  0
 33 28  1  0  0  0  0
 34 27  1  0  0  0  0
 35 31  2  0  0  0  0
M  END
>  <MODEL>
6

>  <REMARK>
 VINA RESULT:      -7.5      2.253      5.497
  Name = 
  10 active torsions:
  status: ('A' for Active; 'I' for Inactive)
    1  A    between atoms: C_2  and  O_19
    2  A    between atoms: C_7  and  C_17
    3  A    between atoms: C_7  and  N_29
    4  A    between atoms: C_8  and  C_15
    5  A    between atoms: C_11  and  C_18
    6  A    between atoms: C_11  and  C_22
    7  A    between atoms: C_11  and  N_29
    8  A    between atoms: C_17  and  O_19
    9  A    between atoms: C_18  and  C_33
   10  A    between atoms: C_26  and  N_29
                            x       y       z     vdW  Elec       q    Type
                         _______ _______ _______ _____ _____    ______ ____

>  <TORSDO>
F 10

$$$$
=
 OpenBabel10232410493D

 35 39  0  0  1  0  0  0  0  0999 V2000
  186.6440  177.7980  137.9090 N   0  0  0  0  0  0  0  0  0  0  0  0
  185.4360  178.7240  139.8240 C   0  0  0  0  0  2  0  0  0  0  0  0
  184.7300  178.6170  143.1500 C   0  0  0  0  0  0  0  0  0  0  0  0
  183.6900  177.9630  142.4140 N   0  0  0  0  0  2  0  0  0  0  0  0
  182.2110  177.7870  140.5640 N   0  0  0  0  0  0  0  0  0  0  0  0
  184.0470  179.1750  140.1450 C   0  0  2  0  0  3  0  0  0  0  0  0
  183.2960  178.2770  141.0730 C   0  0  0  0  0  0  0  0  0  0  0  0
  182.0240  178.2400  139.1910 C   0  0  0  0  0  2  0  0  0  0  0  0
  185.4750  178.3240  138.5590 C   0  0  0  0  0  0  0  0  0  0  0  0
  183.3340  178.8620  138.8850 C   0  0  2  0  0  3  0  0  0  0  0  0
  184.1390  178.3350  137.9760 C   0  0  0  0  0  3  0  0  0  0  0  0
  185.2330  179.6980  142.7380 O   0  0  0  0  0  0  0  0  0  0  0  0
  185.4610  178.9580  146.7270 C   0  0  0  0  0  2  0  0  0  0  0  0
  185.1740  178.0480  144.4580 C   0  0  1  0  0  3  0  0  0  0  0  0
  185.8800  179.1140  145.2790 C   0  0  1  0  0  3  0  0  0  0  0  0
  184.4620  178.7400  145.6080 C   0  0  2  0  0  3  0  0  0  0  0  0
  186.5250  176.8450  136.8050 C   0  0  0  0  0  2  0  0  0  0  0  0
  186.0860  175.4880  137.3280 C   0  0  0  0  0  2  0  0  0  0  0  0
  187.0910  174.5500  137.0900 O   0  0  0  0  0  0  0  0  0  0  0  0
  186.4190  173.3340  136.9670 C   0  0  0  0  0  3  0  0  0  0  0  0
  185.6430  173.3480  135.8080 O   0  0  0  0  0  1  0  0  0  0  0  0
  185.5940  173.1430  138.0740 O   0  0  0  0  0  1  0  0  0  0  0  0
  187.9650  178.1340  138.4400 C   0  0  2  0  0  3  0  0  0  0  0  0
  189.5610  177.9140  136.5350 O   0  0  0  0  0  0  0  0  0  0  0  0
  188.9410  179.9920  137.2740 O   0  0  0  0  0  1  0  0  0  0  0  0
  188.8370  178.7410  137.3840 C   0  0  0  0  0  0  0  0  0  0  0  0
  188.6130  176.9250  139.1130 C   0  0  0  0  0  2  0  0  0  0  0  0
  190.4710  176.8760  140.6710 C   0  0  0  0  0  3  0  0  0  0  0  0
  189.3680  177.3270  143.4980 C   0  0  0  0  0  0  0  0  0  0  0  0
  188.8580  176.9590  144.8440 C   0  0  0  0  0  1  0  0  0  0  0  0
  188.4680  178.1910  141.3170 C   0  0  0  0  0  3  0  0  0  0  0  0
  190.5760  176.8900  143.1420 C   0  0  0  0  0  3  0  0  0  0  0  0
  191.2550  177.2870  141.8740 C   0  0  0  0  0  2  0  0  0  0  0  0
  189.2330  177.3040  140.4150 C   0  0  0  0  0  0  0  0  0  0  0  0
  188.5260  178.2000  142.6560 C   0  0  0  0  0  3  0  0  0  0  0  0
  1 23  1  0  0  0  0
  1  9  1  0  0  0  0
  4  3  1  0  0  0  0
  5  7  2  0  0  0  0
  6  2  1  6  0  0  0
  6  7  1  0  0  0  0
  7  4  1  0  0  0  0
  8  5  1  0  0  0  0
  9  2  1  0  0  0  0
 10 11  1  6  0  0  0
 10  8  1  0  0  0  0
 10  6  1  0  0  0  0
 11  9  2  0  0  0  0
 12  3  2  0  0  0  0
 14  3  1  6  0  0  0
 14 15  1  0  0  0  0
 14 16  1  0  0  0  0
 15 16  1  0  0  0  0
 15 13  1  1  0  0  0
 16 13  1  1  0  0  0
 17 18  1  0  0  0  0
 17  1  1  0  0  0  0
 19 18  1  0  0  0  0
 20 19  1  0  0  0  0
 20 22  1  0  0  0  0
 21 20  1  0  0  0  0
 23 27  1  6  0  0  0
 24 26  2  0  0  0  0
 25 26  1  0  0  0  0
 26 23  1  0  0  0  0
 27 34  1  0  0  0  0
 28 33  1  0  0  0  0
 29 30  1  0  0  0  0
 31 35  2  0  0  0  0
 32 29  2  0  0  0  0
 33 32  1  0  0  0  0
 34 28  2  0  0  0  0
 34 31  1  0  0  0  0
 35 29  1  0  0  0  0
M  END
>  <MODEL>
7

>  <REMARK>
 VINA RESULT:      -7.4      3.164      6.746
  Name = 
  10 active torsions:
  status: ('A' for Active; 'I' for Inactive)
    1  A    between atoms: C_2  and  O_19
    2  A    between atoms: C_7  and  C_17
    3  A    between atoms: C_7  and  N_29
    4  A    between atoms: C_8  and  C_15
    5  A    between atoms: C_11  and  C_18
    6  A    between atoms: C_11  and  C_22
    7  A    between atoms: C_11  and  N_29
    8  A    between atoms: C_17  and  O_19
    9  A    between atoms: C_18  and  C_33
   10  A    between atoms: C_26  and  N_29
                            x       y       z     vdW  Elec       q    Type
                         _______ _______ _______ _____ _____    ______ ____

>  <TORSDO>
F 10

$$$$
=
 OpenBabel10232410493D

 35 39  0  0  1  0  0  0  0  0999 V2000
  188.7360  178.1170  140.4930 N   0  0  0  0  0  0  0  0  0  0  0  0
  187.6070  177.1250  138.5630 C   0  0  0  0  0  2  0  0  0  0  0  0
  186.3600  174.3590  137.0230 C   0  0  0  0  0  0  0  0  0  0  0  0
  187.6600  174.6580  136.5020 N   0  0  0  0  0  2  0  0  0  0  0  0
  189.3270  176.1710  135.7430 N   0  0  0  0  0  0  0  0  0  0  0  0
  187.6950  177.1910  137.0720 C   0  0  2  0  0  3  0  0  0  0  0  0
  188.2440  175.9640  136.4220 C   0  0  0  0  0  0  0  0  0  0  0  0
  189.7330  177.5690  135.8150 C   0  0  0  0  0  2  0  0  0  0  0  0
  188.5130  177.9420  139.0840 C   0  0  0  0  0  0  0  0  0  0  0  0
  188.8530  178.0970  136.8840 C   0  0  2  0  0  3  0  0  0  0  0  0
  189.3570  178.5050  138.0370 C   0  0  0  0  0  3  0  0  0  0  0  0
  185.5250  175.2770  137.2450 O   0  0  0  0  0  0  0  0  0  0  0  0
  183.8760  171.6630  136.9700 C   0  0  0  0  0  2  0  0  0  0  0  0
  185.9670  172.9340  137.2400 C   0  0  1  0  0  3  0  0  0  0  0  0
  184.5090  172.8540  137.6610 C   0  0  1  0  0  3  0  0  0  0  0  0
  184.8930  172.5220  136.2460 C   0  0  2  0  0  3  0  0  0  0  0  0
  187.8910  179.0150  141.2810 C   0  0  0  0  0  2  0  0  0  0  0  0
  186.4600  178.5050  141.3030 C   0  0  0  0  0  2  0  0  0  0  0  0
  185.5900  179.5460  140.9780 O   0  0  0  0  0  0  0  0  0  0  0  0
  184.7410  179.0090  140.0100 C   0  0  0  0  0  3  0  0  0  0  0  0
  184.2410  180.0360  139.2100 O   0  0  0  0  0  1  0  0  0  0  0  0
  183.6820  178.3490  140.6320 O   0  0  0  0  0  1  0  0  0  0  0  0
  189.8950  177.4770  141.1150 C   0  0  2  0  0  3  0  0  0  0  0  0
  191.9760  177.5100  139.7400 O   0  0  0  0  0  1  0  0  0  0  0  0
  190.4810  175.7890  139.5110 O   0  0  0  0  0  0  0  0  0  0  0  0
  190.7960  176.8660  140.0850 C   0  0  0  0  0  0  0  0  0  0  0  0
  189.4640  176.4750  142.1850 C   0  0  0  0  0  2  0  0  0  0  0  0
  191.0340  176.5070  144.0330 C   0  0  0  0  0  3  0  0  0  0  0  0
  189.4890  177.1750  146.5980 C   0  0  0  0  0  0  0  0  0  0  0  0
  188.7520  176.9110  147.8610 C   0  0  0  0  0  1  0  0  0  0  0  0
  188.9890  177.8960  144.2440 C   0  0  0  0  0  3  0  0  0  0  0  0
  190.7270  176.6940  146.4800 C   0  0  0  0  0  3  0  0  0  0  0  0
  191.6190  176.9890  145.3200 C   0  0  0  0  0  2  0  0  0  0  0  0
  189.8690  176.9360  143.5440 C   0  0  0  0  0  0  0  0  0  0  0  0
  188.8240  178.0000  145.5700 C   0  0  0  0  0  3  0  0  0  0  0  0
  1 23  1  0  0  0  0
  1 17  1  0  0  0  0
  2  9  1  0  0  0  0
  3 12  2  0  0  0  0
  4  3  1  0  0  0  0
  5  8  1  0  0  0  0
  5  7  2  0  0  0  0
  6  2  1  1  0  0  0
  7  4  1  0  0  0  0
  7  6  1  0  0  0  0
  9  1  1  0  0  0  0
 10  8  1  1  0  0  0
 10  6  1  0  0  0  0
 10 11  1  0  0  0  0
 11  9  2  0  0  0  0
 14  3  1  6  0  0  0
 14 15  1  0  0  0  0
 15 13  1  1  0  0  0
 16 13  1  1  0  0  0
 16 14  1  0  0  0  0
 16 15  1  0  0  0  0
 17 18  1  0  0  0  0
 19 18  1  0  0  0  0
 20 22  1  0  0  0  0
 20 19  1  0  0  0  0
 21 20  1  0  0  0  0
 23 27  1  1  0  0  0
 24 26  1  0  0  0  0
 25 26  2  0  0  0  0
 26 23  1  0  0  0  0
 27 34  1  0  0  0  0
 28 33  1  0  0  0  0
 29 30  1  0  0  0  0
 31 35  2  0  0  0  0
 32 29  2  0  0  0  0
 33 32  1  0  0  0  0
 34 28  2  0  0  0  0
 34 31  1  0  0  0  0
 35 29  1  0  0  0  0
M  END
>  <MODEL>
8

>  <REMARK>
 VINA RESULT:      -6.9      3.120      5.574
  Name = 
  10 active torsions:
  status: ('A' for Active; 'I' for Inactive)
    1  A    between atoms: C_2  and  O_19
    2  A    between atoms: C_7  and  C_17
    3  A    between atoms: C_7  and  N_29
    4  A    between atoms: C_8  and  C_15
    5  A    between atoms: C_11  and  C_18
    6  A    between atoms: C_11  and  C_22
    7  A    between atoms: C_11  and  N_29
    8  A    between atoms: C_17  and  O_19
    9  A    between atoms: C_18  and  C_33
   10  A    between atoms: C_26  and  N_29
                            x       y       z     vdW  Elec       q    Type
                         _______ _______ _______ _____ _____    ______ ____

>  <TORSDO>
F 10

$$$$
=
 OpenBabel10232410493D

 35 39  0  0  1  0  0  0  0  0999 V2000
  186.5010  178.0720  143.2260 N   0  0  0  0  0  0  0  0  0  0  0  0
  187.4940  178.3560  141.0090 C   0  0  0  0  0  2  0  0  0  0  0  0
  187.4600  177.6210  137.6870 C   0  0  0  0  0  0  0  0  0  0  0  0
  188.4230  176.7980  138.3540 N   0  0  0  0  0  2  0  0  0  0  0  0
  190.1500  176.4470  139.9480 N   0  0  0  0  0  0  0  0  0  0  0  0
  188.8570  178.3450  140.3950 C   0  0  2  0  0  3  0  0  0  0  0  0
  189.1480  177.1560  139.5370 C   0  0  0  0  0  0  0  0  0  0  0  0
  190.7210  177.0010  141.1690 C   0  0  0  0  0  2  0  0  0  0  0  0
  187.6100  178.1520  142.3150 C   0  0  0  0  0  0  0  0  0  0  0  0
  189.7050  178.0070  141.5620 C   0  0  2  0  0  3  0  0  0  0  0  0
  188.9930  177.8550  142.6670 C   0  0  0  0  0  3  0  0  0  0  0  0
  187.3460  178.8440  137.9720 O   0  0  0  0  0  0  0  0  0  0  0  0
  184.7420  175.4600  136.5110 C   0  0  0  0  0  2  0  0  0  0  0  0
  186.6290  177.0380  136.5910 C   0  0  1  0  0  3  0  0  0  0  0  0
  186.1760  175.6380  136.9690 C   0  0  1  0  0  3  0  0  0  0  0  0
  185.2110  176.7860  137.0750 C   0  0  2  0  0  3  0  0  0  0  0  0
  186.5900  177.2720  144.4480 C   0  0  0  0  0  2  0  0  0  0  0  0
  187.3790  178.0190  145.5090 C   0  0  0  0  0  2  0  0  0  0  0  0
  187.1610  177.4280  146.7530 O   0  0  0  0  0  0  0  0  0  0  0  0
  188.4220  177.3830  147.3490 C   0  0  0  0  0  3  0  0  0  0  0  0
  188.5310  178.4120  148.2830 O   0  0  0  0  0  1  0  0  0  0  0  0
  189.4050  177.5370  146.3730 O   0  0  0  0  0  1  0  0  0  0  0  0
  185.2340  178.7060  142.8620 C   0  0  2  0  0  3  0  0  0  0  0  0
  183.5440  178.6670  144.6970 O   0  0  0  0  0  1  0  0  0  0  0  0
  184.9380  180.4710  144.4630 O   0  0  0  0  0  0  0  0  0  0  0  0
  184.5780  179.3340  144.0540 C   0  0  0  0  0  0  0  0  0  0  0  0
  184.3150  177.7250  142.1360 C   0  0  0  0  0  2  0  0  0  0  0  0
  182.0980  178.4490  141.4700 C   0  0  0  0  0  3  0  0  0  0  0  0
  182.1020  178.8940  138.4350 C   0  0  0  0  0  0  0  0  0  0  0  0
  181.8970  178.5610  137.0010 C   0  0  0  0  0  1  0  0  0  0  0  0
  184.0080  179.1540  140.0510 C   0  0  0  0  0  3  0  0  0  0  0  0
  181.0550  178.8080  139.2570 C   0  0  0  0  0  3  0  0  0  0  0  0
  181.0950  179.2310  140.6870 C   0  0  0  0  0  2  0  0  0  0  0  0
  183.4040  178.4390  141.1960 C   0  0  0  0  0  0  0  0  0  0  0  0
  183.4420  179.3510  138.8530 C   0  0  0  0  0  3  0  0  0  0  0  0
  1 17  1  0  0  0  0
  2  9  1  0  0  0  0
  3 12  2  0  0  0  0
  3  4  1  0  0  0  0
  4  7  1  0  0  0  0
  5  8  1  0  0  0  0
  6  2  1  1  0  0  0
  6 10  1  0  0  0  0
  7  5  2  0  0  0  0
  7  6  1  0  0  0  0
  9 11  2  0  0  0  0
  9  1  1  0  0  0  0
 10  8  1  6  0  0  0
 10 11  1  0  0  0  0
 14 15  1  0  0  0  0
 14 16  1  0  0  0  0
 14  3  1  1  0  0  0
 15 13  1  6  0  0  0
 15 16  1  0  0  0  0
 16 13  1  6  0  0  0
 17 18  1  0  0  0  0
 18 19  1  0  0  0  0
 19 20  1  0  0  0  0
 20 21  1  0  0  0  0
 22 20  1  0  0  0  0
 23 27  1  1  0  0  0
 23  1  1  0  0  0  0
 23 26  1  0  0  0  0
 26 25  2  0  0  0  0
 26 24  1  0  0  0  0
 29 35  1  0  0  0  0
 29 32  2  0  0  0  0
 30 29  1  0  0  0  0
 31 34  1  0  0  0  0
 32 33  1  0  0  0  0
 33 28  1  0  0  0  0
 34 28  2  0  0  0  0
 34 27  1  0  0  0  0
 35 31  2  0  0  0  0
M  END
>  <MODEL>
9

>  <REMARK>
 VINA RESULT:      -6.8      2.244      4.198
  Name = 
  10 active torsions:
  status: ('A' for Active; 'I' for Inactive)
    1  A    between atoms: C_2  and  O_19
    2  A    between atoms: C_7  and  C_17
    3  A    between atoms: C_7  and  N_29
    4  A    between atoms: C_8  and  C_15
    5  A    between atoms: C_11  and  C_18
    6  A    between atoms: C_11  and  C_22
    7  A    between atoms: C_11  and  N_29
    8  A    between atoms: C_17  and  O_19
    9  A    between atoms: C_18  and  C_33
   10  A    between atoms: C_26  and  N_29
                            x       y       z     vdW  Elec       q    Type
                         _______ _______ _______ _____ _____    ______ ____

>  <TORSDO>
F 10

$$$$
