=
 OpenBabel10232408373D

 28 31  0  0  1  0  0  0  0  0999 V2000
  188.6130  177.4440  147.4390 C   0  0  1  0  0  3  0  0  0  0  0  0
  191.4520  176.6870  143.7010 N   0  0  0  0  0  0  0  0  0  0  0  0
  191.9880  176.0370  146.2290 S   0  0  0  0  0  0  0  0  0  0  0  0
  189.9370  177.1310  145.5770 C   0  0  0  0  0  0  0  0  0  0  0  0
  191.0930  176.6770  144.9540 C   0  0  0  0  0  0  0  0  0  0  0  0
  188.7800  177.7460  145.1750 O   0  0  0  0  0  0  0  0  0  0  0  0
  189.8990  176.9300  146.9090 C   0  0  0  0  0  0  0  0  0  0  0  0
  188.8760  178.5600  148.4320 C   0  0  0  0  0  1  0  0  0  0  0  0
  190.9370  176.3390  147.4700 O   0  0  0  0  0  0  0  0  0  0  0  0
  187.9210  177.9930  146.2440 N   0  0  0  0  0  0  0  0  0  0  0  0
  188.1430  178.1490  139.5850 N   0  0  0  0  0  0  0  0  0  0  0  0
  189.0670  178.0160  140.4920 C   0  0  0  0  0  0  0  0  0  0  0  0
  188.8610  178.5140  141.8150 N   0  0  0  0  0  0  0  0  0  0  0  0
  189.1910  176.4040  138.2020 C   0  0  0  0  0  3  0  0  0  0  0  0
  190.7460  177.1970  142.5600 C   0  0  0  0  0  0  0  0  0  0  0  0
  191.0150  176.7880  141.3520 N   0  0  0  0  0  0  0  0  0  0  0  0
  190.1560  176.2560  139.1230 C   0  0  0  0  0  3  0  0  0  0  0  0
  189.6450  178.1550  142.7880 C   0  0  0  0  0  3  0  0  0  0  0  0
  188.3140  177.6390  138.2160 C   0  0  2  0  0  3  0  0  0  0  0  0
  190.3710  177.3310  140.1550 C   0  0  1  0  0  3  0  0  0  0  0  0
  188.9350  179.9010  137.7080 O   0  0  0  0  0  1  0  0  0  0  0  0
  189.3300  178.3650  136.0550 O   0  0  0  0  0  0  0  0  0  0  0  0
  188.8710  178.7040  137.3220 C   0  0  0  0  0  0  0  0  0  0  0  0
  186.7200  177.1920  146.0330 C   0  0  0  0  0  2  0  0  0  0  0  0
  185.5230  178.0890  145.7530 C   0  0  0  0  0  2  0  0  0  0  0  0
  185.4050  178.3710  144.2680 C   0  0  0  0  0  2  0  0  0  0  0  0
  183.3070  179.1290  145.2130 N   0  0  0  0  0  1  0  0  0  0  0  0
  184.0920  179.0730  143.9930 C   0  0  0  0  0  2  0  0  0  0  0  0
  1  8  1  1  0  0  0
  2  5  2  0  0  0  0
  3  9  1  0  0  0  0
  4  7  2  0  0  0  0
  5  4  1  0  0  0  0
  5  3  1  0  0  0  0
  6  4  1  0  0  0  0
  6 10  1  0  0  0  0
  7  1  1  0  0  0  0
  7  9  1  0  0  0  0
 10  1  1  0  0  0  0
 11 12  2  0  0  0  0
 12 13  1  0  0  0  0
 13 18  2  0  0  0  0
 14 19  1  0  0  0  0
 14 17  2  0  0  0  0
 15 18  1  0  0  0  0
 15  2  1  0  0  0  0
 16 15  2  0  0  0  0
 19 23  1  6  0  0  0
 19 11  1  0  0  0  0
 20 17  1  6  0  0  0
 20 12  1  0  0  0  0
 20 16  1  0  0  0  0
 22 23  2  0  0  0  0
 23 21  1  0  0  0  0
 24 10  1  0  0  0  0
 25 24  1  0  0  0  0
 26 25  1  0  0  0  0
 28 26  1  0  0  0  0
 28 27  1  0  0  0  0
M  END
>  <MODEL>
1

>  <REMARK>
 VINA RESULT:      -8.5      0.000      0.000
  Name = 
  6 active torsions:
  status: ('A' for Active; 'I' for Inactive)
    1  A    between atoms: N_3  and  C_13
    2  A    between atoms: C_6  and  C_23
    3  A    between atoms: C_20  and  C_23
    4  A    between atoms: C_20  and  C_26
    5  A    between atoms: C_22  and  CA_27
    6  A    between atoms: N_24  and  C_26
                            x       y       z     vdW  Elec       q    Type
                         _______ _______ _______ _____ _____    ______ ____

>  <TORSDO>
F 6

$$$$
=
 OpenBabel10232408373D

 28 31  0  0  1  0  0  0  0  0999 V2000
  189.2990  177.0970  138.7320 C   0  0  1  0  0  3  0  0  0  0  0  0
  192.0220  177.4370  142.6140 N   0  0  0  0  0  0  0  0  0  0  0  0
  192.8940  177.2800  140.1010 S   0  0  0  0  0  0  0  0  0  0  0  0
  190.5460  177.2450  140.6650 C   0  0  0  0  0  0  0  0  0  0  0  0
  191.7560  177.3260  141.3430 C   0  0  0  0  0  0  0  0  0  0  0  0
  189.2220  177.2330  141.0160 O   0  0  0  0  0  0  0  0  0  0  0  0
  190.6560  177.1610  139.3240 C   0  0  0  0  0  0  0  0  0  0  0  0
  189.1240  175.7870  137.9860 C   0  0  0  0  0  1  0  0  0  0  0  0
  191.8700  177.1650  138.8070 O   0  0  0  0  0  0  0  0  0  0  0  0
  188.3870  177.1270  139.9060 N   0  0  0  0  0  0  0  0  0  0  0  0
  188.4880  176.8550  146.7620 N   0  0  0  0  0  0  0  0  0  0  0  0
  189.3740  177.2300  145.8860 C   0  0  0  0  0  0  0  0  0  0  0  0
  190.7400  176.8300  146.0200 N   0  0  0  0  0  0  0  0  0  0  0  0
  186.6600  177.3840  145.2010 C   0  0  0  0  0  3  0  0  0  0  0  0
  191.1160  177.4960  143.7270 C   0  0  0  0  0  0  0  0  0  0  0  0
  189.9010  177.9480  143.5950 N   0  0  0  0  0  0  0  0  0  0  0  0
  187.5590  177.7800  144.2860 C   0  0  0  0  0  3  0  0  0  0  0  0
  191.5690  176.9630  145.0270 C   0  0  0  0  0  3  0  0  0  0  0  0
  187.0720  177.2360  146.6510 C   0  0  2  0  0  3  0  0  0  0  0  0
  188.9690  178.0930  144.7140 C   0  0  1  0  0  3  0  0  0  0  0  0
  187.5560  178.8480  148.3620 O   0  0  0  0  0  1  0  0  0  0  0  0
  185.7140  179.2870  147.0740 O   0  0  0  0  0  0  0  0  0  0  0  0
  186.8030  178.4950  147.4170 C   0  0  0  0  0  0  0  0  0  0  0  0
  187.6130  178.3600  139.8210 C   0  0  0  0  0  2  0  0  0  0  0  0
  187.0570  178.7350  141.1870 C   0  0  0  0  0  2  0  0  0  0  0  0
  185.5700  179.0170  141.0960 C   0  0  0  0  0  2  0  0  0  0  0  0
  184.3990  179.9600  139.1950 N   0  0  0  0  0  1  0  0  0  0  0  0
  185.1000  178.7830  139.6760 C   0  0  0  0  0  2  0  0  0  0  0  0
  1  8  1  1  0  0  0
  1  7  1  0  0  0  0
  1 10  1  0  0  0  0
  2 15  1  0  0  0  0
  3  5  1  0  0  0  0
  4  6  1  0  0  0  0
  4  5  1  0  0  0  0
  5  2  2  0  0  0  0
  7  4  2  0  0  0  0
  9  7  1  0  0  0  0
  9  3  1  0  0  0  0
 10  6  1  0  0  0  0
 12 13  1  0  0  0  0
 12 11  2  0  0  0  0
 14 19  1  0  0  0  0
 15 18  1  0  0  0  0
 16 15  2  0  0  0  0
 16 20  1  0  0  0  0
 17 14  2  0  0  0  0
 18 13  2  0  0  0  0
 19 11  1  0  0  0  0
 19 23  1  1  0  0  0
 20 17  1  6  0  0  0
 20 12  1  0  0  0  0
 22 23  2  0  0  0  0
 23 21  1  0  0  0  0
 24 10  1  0  0  0  0
 24 25  1  0  0  0  0
 26 25  1  0  0  0  0
 27 28  1  0  0  0  0
 28 26  1  0  0  0  0
M  END
>  <MODEL>
2

>  <REMARK>
 VINA RESULT:      -8.2      2.634      6.742
  Name = 
  6 active torsions:
  status: ('A' for Active; 'I' for Inactive)
    1  A    between atoms: N_3  and  C_13
    2  A    between atoms: C_6  and  C_23
    3  A    between atoms: C_20  and  C_23
    4  A    between atoms: C_20  and  C_26
    5  A    between atoms: C_22  and  CA_27
    6  A    between atoms: N_24  and  C_26
                            x       y       z     vdW  Elec       q    Type
                         _______ _______ _______ _____ _____    ______ ____

>  <TORSDO>
F 6

$$$$
=
 OpenBabel10232408373D

 28 31  0  0  1  0  0  0  0  0999 V2000
  189.2080  177.3430  142.9010 C   0  0  1  0  0  3  0  0  0  0  0  0
  190.0540  176.8910  138.2450 N   0  0  0  0  0  0  0  0  0  0  0  0
  187.9760  178.1470  139.3420 S   0  0  0  0  0  0  0  0  0  0  0  0
  189.6820  177.0630  140.6620 C   0  0  0  0  0  0  0  0  0  0  0  0
  189.4050  177.2560  139.3150 C   0  0  0  0  0  0  0  0  0  0  0  0
  190.6680  176.4430  141.3850 O   0  0  0  0  0  0  0  0  0  0  0  0
  188.7840  177.6100  141.5060 C   0  0  0  0  0  0  0  0  0  0  0  0
  188.1530  176.5140  143.6090 C   0  0  0  0  0  1  0  0  0  0  0  0
  187.7620  178.2560  140.9780 O   0  0  0  0  0  0  0  0  0  0  0  0
  190.4540  176.5460  142.7570 N   0  0  0  0  0  0  0  0  0  0  0  0
  194.8700  174.5070  137.1690 N   0  0  0  0  0  0  0  0  0  0  0  0
  193.7520  174.9580  137.6610 C   0  0  0  0  0  0  0  0  0  0  0  0
  193.6900  176.2640  138.2380 N   0  0  0  0  0  0  0  0  0  0  0  0
  193.6620  172.7740  135.9060 C   0  0  0  0  0  3  0  0  0  0  0  0
  191.2770  176.1470  138.1370 C   0  0  0  0  0  0  0  0  0  0  0  0
  191.2950  174.9240  137.6880 N   0  0  0  0  0  0  0  0  0  0  0  0
  192.5000  173.2210  136.4070 C   0  0  0  0  0  3  0  0  0  0  0  0
  192.5430  176.8260  138.4810 C   0  0  0  0  0  3  0  0  0  0  0  0
  194.9700  173.1740  136.5550 C   0  0  2  0  0  3  0  0  0  0  0  0
  192.5060  174.1040  137.6270 C   0  0  1  0  0  3  0  0  0  0  0  0
  195.3480  172.4150  138.8010 O   0  0  0  0  0  1  0  0  0  0  0  0
  195.8490  170.9140  137.1460 O   0  0  0  0  0  0  0  0  0  0  0  0
  195.3990  172.1580  137.5690 C   0  0  0  0  0  0  0  0  0  0  0  0
  191.5440  177.3430  143.3110 C   0  0  0  0  0  2  0  0  0  0  0  0
  191.3130  177.6060  144.7920 C   0  0  0  0  0  2  0  0  0  0  0  0
  191.6520  176.3750  145.6090 C   0  0  0  0  0  2  0  0  0  0  0  0
  192.4360  176.2220  147.8970 N   0  0  0  0  0  1  0  0  0  0  0  0
  191.3200  176.6320  147.0640 C   0  0  0  0  0  2  0  0  0  0  0  0
  1  8  1  1  0  0  0
  2  5  2  0  0  0  0
  3  9  1  0  0  0  0
  4  6  1  0  0  0  0
  4  7  2  0  0  0  0
  5  3  1  0  0  0  0
  5  4  1  0  0  0  0
  6 10  1  0  0  0  0
  7  1  1  0  0  0  0
  9  7  1  0  0  0  0
 10  1  1  0  0  0  0
 10 24  1  0  0  0  0
 11 12  2  0  0  0  0
 12 13  1  0  0  0  0
 13 18  2  0  0  0  0
 14 17  2  0  0  0  0
 14 19  1  0  0  0  0
 15  2  1  0  0  0  0
 15 18  1  0  0  0  0
 16 15  2  0  0  0  0
 19 11  1  0  0  0  0
 19 23  1  1  0  0  0
 20 17  1  6  0  0  0
 20 12  1  0  0  0  0
 20 16  1  0  0  0  0
 22 23  2  0  0  0  0
 23 21  1  0  0  0  0
 24 25  1  0  0  0  0
 25 26  1  0  0  0  0
 26 28  1  0  0  0  0
 28 27  1  0  0  0  0
M  END
>  <MODEL>
3

>  <REMARK>
 VINA RESULT:      -8.2      4.536      6.696
  Name = 
  6 active torsions:
  status: ('A' for Active; 'I' for Inactive)
    1  A    between atoms: N_3  and  C_13
    2  A    between atoms: C_6  and  C_23
    3  A    between atoms: C_20  and  C_23
    4  A    between atoms: C_20  and  C_26
    5  A    between atoms: C_22  and  CA_27
    6  A    between atoms: N_24  and  C_26
                            x       y       z     vdW  Elec       q    Type
                         _______ _______ _______ _____ _____    ______ ____

>  <TORSDO>
F 6

$$$$
=
 OpenBabel10232408373D

 28 31  0  0  1  0  0  0  0  0999 V2000
  188.6230  177.5670  147.4470 C   0  0  1  0  0  3  0  0  0  0  0  0
  191.7070  176.2280  144.0870 N   0  0  0  0  0  0  0  0  0  0  0  0
  192.0300  175.9280  146.7140 S   0  0  0  0  0  0  0  0  0  0  0  0
  190.0710  176.9650  145.7570 C   0  0  0  0  0  0  0  0  0  0  0  0
  191.2540  176.4030  145.2960 C   0  0  0  0  0  0  0  0  0  0  0  0
  188.9690  177.5440  145.1840 O   0  0  0  0  0  0  0  0  0  0  0  0
  189.9260  176.9550  147.0970 C   0  0  0  0  0  0  0  0  0  0  0  0
  188.8470  178.8050  148.2940 C   0  0  0  0  0  1  0  0  0  0  0  0
  190.8990  176.4250  147.8140 O   0  0  0  0  0  0  0  0  0  0  0  0
  188.0410  177.9590  146.1360 N   0  0  0  0  0  0  0  0  0  0  0  0
  189.5990  178.3760  139.5060 N   0  0  0  0  0  0  0  0  0  0  0  0
  190.0850  177.6370  140.4610 C   0  0  0  0  0  0  0  0  0  0  0  0
  191.4990  177.5160  140.6350 N   0  0  0  0  0  0  0  0  0  0  0  0
  187.4040  178.4410  140.6180 C   0  0  0  0  0  3  0  0  0  0  0  0
  191.1060  176.5890  142.8330 C   0  0  0  0  0  0  0  0  0  0  0  0
  189.8130  176.6060  142.6760 N   0  0  0  0  0  0  0  0  0  0  0  0
  187.8860  177.6750  141.6100 C   0  0  0  0  0  3  0  0  0  0  0  0
  191.9910  177.0140  141.7290 C   0  0  0  0  0  3  0  0  0  0  0  0
  188.1510  178.5350  139.3040 C   0  0  2  0  0  3  0  0  0  0  0  0
  189.1590  176.8990  141.4000 C   0  0  1  0  0  3  0  0  0  0  0  0
  188.3790  176.5840  137.9240 O   0  0  0  0  0  1  0  0  0  0  0  0
  186.3370  177.6190  137.8550 O   0  0  0  0  0  0  0  0  0  0  0  0
  187.6410  177.5240  138.3230 C   0  0  0  0  0  0  0  0  0  0  0  0
  186.8330  177.1640  145.9440 C   0  0  0  0  0  2  0  0  0  0  0  0
  185.5990  177.9660  146.3310 C   0  0  0  0  0  2  0  0  0  0  0  0
  185.3750  179.1020  145.3520 C   0  0  0  0  0  2  0  0  0  0  0  0
  184.4340  178.3050  143.2660 N   0  0  0  0  0  1  0  0  0  0  0  0
  184.1030  178.8480  144.5720 C   0  0  0  0  0  2  0  0  0  0  0  0
  1  8  1  1  0  0  0
  2  5  2  0  0  0  0
  3  9  1  0  0  0  0
  4  7  2  0  0  0  0
  5  4  1  0  0  0  0
  5  3  1  0  0  0  0
  6  4  1  0  0  0  0
  6 10  1  0  0  0  0
  7  1  1  0  0  0  0
  7  9  1  0  0  0  0
 10  1  1  0  0  0  0
 11 12  2  0  0  0  0
 12 13  1  0  0  0  0
 12 20  1  0  0  0  0
 13 18  2  0  0  0  0
 14 17  2  0  0  0  0
 15  2  1  0  0  0  0
 16 15  2  0  0  0  0
 18 15  1  0  0  0  0
 19 23  1  6  0  0  0
 19 11  1  0  0  0  0
 19 14  1  0  0  0  0
 20 17  1  1  0  0  0
 20 16  1  0  0  0  0
 21 23  1  0  0  0  0
 22 23  2  0  0  0  0
 24 10  1  0  0  0  0
 24 25  1  0  0  0  0
 26 25  1  0  0  0  0
 27 28  1  0  0  0  0
 28 26  1  0  0  0  0
M  END
>  <MODEL>
4

>  <REMARK>
 VINA RESULT:      -8.2      1.398      1.830
  Name = 
  6 active torsions:
  status: ('A' for Active; 'I' for Inactive)
    1  A    between atoms: N_3  and  C_13
    2  A    between atoms: C_6  and  C_23
    3  A    between atoms: C_20  and  C_23
    4  A    between atoms: C_20  and  C_26
    5  A    between atoms: C_22  and  CA_27
    6  A    between atoms: N_24  and  C_26
                            x       y       z     vdW  Elec       q    Type
                         _______ _______ _______ _____ _____    ______ ____

>  <TORSDO>
F 6

$$$$
=
 OpenBabel10232408373D

 28 31  0  0  1  0  0  0  0  0999 V2000
  189.6320  177.0100  143.0610 C   0  0  1  0  0  3  0  0  0  0  0  0
  185.7510  178.3360  145.4640 N   0  0  0  0  0  0  0  0  0  0  0  0
  188.0970  177.6640  146.5320 S   0  0  0  0  0  0  0  0  0  0  0  0
  187.7020  177.6440  144.1500 C   0  0  0  0  0  0  0  0  0  0  0  0
  186.9790  177.9320  145.3010 C   0  0  0  0  0  0  0  0  0  0  0  0
  187.4480  177.6490  142.8030 O   0  0  0  0  0  0  0  0  0  0  0  0
  188.9780  177.2690  144.3650 C   0  0  0  0  0  0  0  0  0  0  0  0
  190.0720  175.5600  142.9850 C   0  0  0  0  0  1  0  0  0  0  0  0
  189.3980  177.2150  145.6150 O   0  0  0  0  0  0  0  0  0  0  0  0
  188.5610  177.2580  142.0600 N   0  0  0  0  0  0  0  0  0  0  0  0
  181.6410  178.5850  141.8460 N   0  0  0  0  0  0  0  0  0  0  0  0
  182.6250  178.7880  142.6730 C   0  0  0  0  0  0  0  0  0  0  0  0
  182.3790  178.9050  144.0770 N   0  0  0  0  0  0  0  0  0  0  0  0
  183.2080  177.8290  140.1050 C   0  0  0  0  0  3  0  0  0  0  0  0
  184.7440  178.6000  144.4740 C   0  0  0  0  0  0  0  0  0  0  0  0
  185.0170  178.5720  143.2000 N   0  0  0  0  0  0  0  0  0  0  0  0
  184.2370  178.0380  140.9420 C   0  0  0  0  0  3  0  0  0  0  0  0
  183.3590  178.8360  144.9280 C   0  0  0  0  0  3  0  0  0  0  0  0
  181.8560  178.4460  140.3970 C   0  0  2  0  0  3  0  0  0  0  0  0
  184.0420  178.9030  142.1590 C   0  0  1  0  0  3  0  0  0  0  0  0
  180.7050  180.4990  139.9240 O   0  0  0  0  0  1  0  0  0  0  0  0
  182.7050  180.2070  138.8450 O   0  0  0  0  0  0  0  0  0  0  0  0
  181.7120  179.7720  139.7140 C   0  0  0  0  0  0  0  0  0  0  0  0
  188.9740  178.4040  141.2580 C   0  0  0  0  0  2  0  0  0  0  0  0
  188.2710  178.3910  139.9080 C   0  0  0  0  0  2  0  0  0  0  0  0
  188.8970  177.3570  138.9930 C   0  0  0  0  0  2  0  0  0  0  0  0
  188.9780  179.4270  137.7360 N   0  0  0  0  0  1  0  0  0  0  0  0
  189.3950  178.0360  137.7350 C   0  0  0  0  0  2  0  0  0  0  0  0
  1  8  1  1  0  0  0
  1  7  1  0  0  0  0
  4  7  2  0  0  0  0
  4  5  1  0  0  0  0
  5  2  2  0  0  0  0
  5  3  1  0  0  0  0
  6  4  1  0  0  0  0
  7  9  1  0  0  0  0
  9  3  1  0  0  0  0
 10  6  1  0  0  0  0
 10  1  1  0  0  0  0
 11 12  2  0  0  0  0
 12 13  1  0  0  0  0
 13 18  2  0  0  0  0
 14 19  1  0  0  0  0
 14 17  2  0  0  0  0
 15 18  1  0  0  0  0
 15  2  1  0  0  0  0
 16 15  2  0  0  0  0
 19 23  1  6  0  0  0
 19 11  1  0  0  0  0
 20 17  1  6  0  0  0
 20 12  1  0  0  0  0
 20 16  1  0  0  0  0
 22 23  2  0  0  0  0
 23 21  1  0  0  0  0
 24 10  1  0  0  0  0
 25 24  1  0  0  0  0
 26 25  1  0  0  0  0
 28 27  1  0  0  0  0
 28 26  1  0  0  0  0
M  END
>  <MODEL>
5

>  <REMARK>
 VINA RESULT:      -7.8      3.122      6.224
  Name = 
  6 active torsions:
  status: ('A' for Active; 'I' for Inactive)
    1  A    between atoms: N_3  and  C_13
    2  A    between atoms: C_6  and  C_23
    3  A    between atoms: C_20  and  C_23
    4  A    between atoms: C_20  and  C_26
    5  A    between atoms: C_22  and  CA_27
    6  A    between atoms: N_24  and  C_26
                            x       y       z     vdW  Elec       q    Type
                         _______ _______ _______ _____ _____    ______ ____

>  <TORSDO>
F 6

$$$$
=
 OpenBabel10232408373D

 28 31  0  0  1  0  0  0  0  0999 V2000
  190.4070  177.6960  143.4470 C   0  0  1  0  0  3  0  0  0  0  0  0
  187.3190  178.2870  139.8810 N   0  0  0  0  0  0  0  0  0  0  0  0
  189.8970  177.6630  139.6300 S   0  0  0  0  0  0  0  0  0  0  0  0
  188.8510  178.0180  141.7760 C   0  0  0  0  0  0  0  0  0  0  0  0
  188.4720  178.0500  140.4410 C   0  0  0  0  0  0  0  0  0  0  0  0
  188.2270  178.2200  142.9800 O   0  0  0  0  0  0  0  0  0  0  0  0
  190.1450  177.7100  141.9880 C   0  0  0  0  0  0  0  0  0  0  0  0
  191.4430  178.7490  143.7940 C   0  0  0  0  0  1  0  0  0  0  0  0
  190.9000  177.4760  140.9310 O   0  0  0  0  0  0  0  0  0  0  0  0
  189.1010  178.0640  144.0540 N   0  0  0  0  0  0  0  0  0  0  0  0
  182.6070  178.8050  142.6320 N   0  0  0  0  0  0  0  0  0  0  0  0
  183.6930  178.9400  141.9270 C   0  0  0  0  0  0  0  0  0  0  0  0
  184.9500  179.1650  142.5700 N   0  0  0  0  0  0  0  0  0  0  0  0
  181.4480  177.7730  140.7210 C   0  0  0  0  0  3  0  0  0  0  0  0
  186.0620  178.6090  140.4970 C   0  0  0  0  0  0  0  0  0  0  0  0
  184.9350  178.4760  139.8570 N   0  0  0  0  0  0  0  0  0  0  0  0
  182.5570  177.9080  139.9780 C   0  0  0  0  0  3  0  0  0  0  0  0
  186.0630  179.0310  141.9130 C   0  0  0  0  0  3  0  0  0  0  0  0
  181.2980  178.5600  142.0070 C   0  0  2  0  0  3  0  0  0  0  0  0
  183.6380  178.8580  140.4200 C   0  0  1  0  0  3  0  0  0  0  0  0
  180.3000  180.2250  140.5950 O   0  0  0  0  0  0  0  0  0  0  0  0
  180.2040  180.6410  142.8450 O   0  0  0  0  0  1  0  0  0  0  0  0
  180.5780  179.8510  141.7650 C   0  0  0  0  0  0  0  0  0  0  0  0
  188.6430  176.9130  144.8250 C   0  0  0  0  0  2  0  0  0  0  0  0
  187.9440  177.3680  146.0980 C   0  0  0  0  0  2  0  0  0  0  0  0
  186.4450  177.4500  145.8800 C   0  0  0  0  0  2  0  0  0  0  0  0
  184.4790  178.7880  146.3470 N   0  0  0  0  0  1  0  0  0  0  0  0
  185.8900  178.6290  146.6510 C   0  0  0  0  0  2  0  0  0  0  0  0
  1  8  1  6  0  0  0
  1 10  1  0  0  0  0
  2  5  2  0  0  0  0
  2 15  1  0  0  0  0
  3  5  1  0  0  0  0
  3  9  1  0  0  0  0
  4  7  2  0  0  0  0
  4  6  1  0  0  0  0
  5  4  1  0  0  0  0
  6 10  1  0  0  0  0
  7  1  1  0  0  0  0
  9  7  1  0  0  0  0
 10 24  1  0  0  0  0
 12 13  1  0  0  0  0
 12 11  2  0  0  0  0
 14 19  1  0  0  0  0
 15 18  1  0  0  0  0
 16 20  1  0  0  0  0
 16 15  2  0  0  0  0
 17 14  2  0  0  0  0
 18 13  2  0  0  0  0
 19 23  1  6  0  0  0
 19 11  1  0  0  0  0
 20 17  1  1  0  0  0
 20 12  1  0  0  0  0
 21 23  2  0  0  0  0
 23 22  1  0  0  0  0
 24 25  1  0  0  0  0
 26 25  1  0  0  0  0
 26 28  1  0  0  0  0
 27 28  1  0  0  0  0
M  END
>  <MODEL>
6

>  <REMARK>
 VINA RESULT:      -7.7      3.774      6.005
  Name = 
  6 active torsions:
  status: ('A' for Active; 'I' for Inactive)
    1  A    between atoms: N_3  and  C_13
    2  A    between atoms: C_6  and  C_23
    3  A    between atoms: C_20  and  C_23
    4  A    between atoms: C_20  and  C_26
    5  A    between atoms: C_22  and  CA_27
    6  A    between atoms: N_24  and  C_26
                            x       y       z     vdW  Elec       q    Type
                         _______ _______ _______ _____ _____    ______ ____

>  <TORSDO>
F 6

$$$$
=
 OpenBabel10232408373D

 28 31  0  0  1  0  0  0  0  0999 V2000
  182.2250  178.8760  142.2770 C   0  0  1  0  0  3  0  0  0  0  0  0
  185.8730  178.8020  139.2300 N   0  0  0  0  0  0  0  0  0  0  0  0
  183.3610  179.4760  138.6470 S   0  0  0  0  0  0  0  0  0  0  0  0
  184.0420  178.7960  140.8610 C   0  0  0  0  0  0  0  0  0  0  0  0
  184.6390  178.9610  139.6170 C   0  0  0  0  0  0  0  0  0  0  0  0
  184.4610  178.4120  142.1080 O   0  0  0  0  0  0  0  0  0  0  0  0
  182.7250  179.0790  140.8970 C   0  0  0  0  0  0  0  0  0  0  0  0
  181.1650  177.7910  142.2860 C   0  0  0  0  0  1  0  0  0  0  0  0
  182.1530  179.4730  139.7750 O   0  0  0  0  0  0  0  0  0  0  0  0
  183.4180  178.4130  143.0330 N   0  0  0  0  0  0  0  0  0  0  0  0
  189.9990  176.4400  141.9550 N   0  0  0  0  0  0  0  0  0  0  0  0
  189.1650  177.2200  141.3310 C   0  0  0  0  0  0  0  0  0  0  0  0
  189.1720  177.2950  139.9040 N   0  0  0  0  0  0  0  0  0  0  0  0
  188.6280  176.5390  143.9970 C   0  0  0  0  0  3  0  0  0  0  0  0
  187.0150  178.3830  139.9920 C   0  0  0  0  0  0  0  0  0  0  0  0
  187.0130  178.4070  141.2950 N   0  0  0  0  0  0  0  0  0  0  0  0
  187.7590  177.3490  143.3720 C   0  0  0  0  0  3  0  0  0  0  0  0
  188.1850  177.8490  139.2650 C   0  0  0  0  0  3  0  0  0  0  0  0
  190.0130  176.3260  143.4210 C   0  0  2  0  0  3  0  0  0  0  0  0
  188.1770  178.0570  142.1100 C   0  0  1  0  0  3  0  0  0  0  0  0
  190.9450  177.5880  145.2390 O   0  0  0  0  0  1  0  0  0  0  0  0
  191.9770  177.8510  143.2110 O   0  0  0  0  0  0  0  0  0  0  0  0
  190.9950  177.2890  144.0160 C   0  0  0  0  0  0  0  0  0  0  0  0
  183.7210  179.4320  144.0320 C   0  0  0  0  0  2  0  0  0  0  0  0
  184.1670  178.7850  145.3350 C   0  0  0  0  0  2  0  0  0  0  0  0
  185.5990  179.1680  145.6550 C   0  0  0  0  0  2  0  0  0  0  0  0
  187.0870  177.8050  146.9970 N   0  0  0  0  0  1  0  0  0  0  0  0
  185.9440  178.6990  147.0520 C   0  0  0  0  0  2  0  0  0  0  0  0
  1  8  1  6  0  0  0
  1 10  1  0  0  0  0
  2  5  2  0  0  0  0
  2 15  1  0  0  0  0
  3  5  1  0  0  0  0
  3  9  1  0  0  0  0
  4  7  2  0  0  0  0
  4  6  1  0  0  0  0
  5  4  1  0  0  0  0
  6 10  1  0  0  0  0
  7  1  1  0  0  0  0
  9  7  1  0  0  0  0
 10 24  1  0  0  0  0
 11 19  1  0  0  0  0
 12 11  2  0  0  0  0
 12 20  1  0  0  0  0
 13 12  1  0  0  0  0
 15 16  2  0  0  0  0
 16 20  1  0  0  0  0
 17 14  2  0  0  0  0
 18 13  2  0  0  0  0
 18 15  1  0  0  0  0
 19 14  1  0  0  0  0
 19 23  1  1  0  0  0
 20 17  1  1  0  0  0
 22 23  2  0  0  0  0
 23 21  1  0  0  0  0
 24 25  1  0  0  0  0
 25 26  1  0  0  0  0
 26 28  1  0  0  0  0
 27 28  1  0  0  0  0
M  END
>  <MODEL>
7

>  <REMARK>
 VINA RESULT:      -7.7      3.519      6.558
  Name = 
  6 active torsions:
  status: ('A' for Active; 'I' for Inactive)
    1  A    between atoms: N_3  and  C_13
    2  A    between atoms: C_6  and  C_23
    3  A    between atoms: C_20  and  C_23
    4  A    between atoms: C_20  and  C_26
    5  A    between atoms: C_22  and  CA_27
    6  A    between atoms: N_24  and  C_26
                            x       y       z     vdW  Elec       q    Type
                         _______ _______ _______ _____ _____    ______ ____

>  <TORSDO>
F 6

$$$$
=
 OpenBabel10232408373D

 28 31  0  0  1  0  0  0  0  0999 V2000
  188.3850  176.1820  136.1760 C   0  0  1  0  0  3  0  0  0  0  0  0
  190.6820  176.9340  140.2700 N   0  0  0  0  0  0  0  0  0  0  0  0
  191.8150  176.4560  137.9060 S   0  0  0  0  0  0  0  0  0  0  0  0
  189.4200  176.5380  138.2050 C   0  0  0  0  0  0  0  0  0  0  0  0
  190.5520  176.6750  138.9990 C   0  0  0  0  0  0  0  0  0  0  0  0
  188.0660  176.5960  138.4050 O   0  0  0  0  0  0  0  0  0  0  0  0
  189.6710  176.2900  136.9040 C   0  0  0  0  0  0  0  0  0  0  0  0
  188.2480  174.7960  135.5760 C   0  0  0  0  0  1  0  0  0  0  0  0
  190.9330  176.2060  136.5290 O   0  0  0  0  0  0  0  0  0  0  0  0
  187.3530  176.3730  137.2290 N   0  0  0  0  0  0  0  0  0  0  0  0
  186.4540  177.0620  143.7550 N   0  0  0  0  0  0  0  0  0  0  0  0
  187.5660  177.2080  143.0930 C   0  0  0  0  0  0  0  0  0  0  0  0
  188.6450  176.2890  143.2770 N   0  0  0  0  0  0  0  0  0  0  0  0
  185.2710  178.5290  142.1720 C   0  0  0  0  0  3  0  0  0  0  0  0
  189.6640  177.1460  141.2600 C   0  0  0  0  0  0  0  0  0  0  0  0
  188.7410  178.0530  141.1060 N   0  0  0  0  0  0  0  0  0  0  0  0
  186.4090  178.6960  141.4790 C   0  0  0  0  0  3  0  0  0  0  0  0
  189.6390  176.2590  142.4400 C   0  0  0  0  0  3  0  0  0  0  0  0
  185.3180  177.9800  143.5830 C   0  0  2  0  0  3  0  0  0  0  0  0
  187.7280  178.3520  142.1190 C   0  0  1  0  0  3  0  0  0  0  0  0
  184.8140  180.1930  144.3650 O   0  0  0  0  0  0  0  0  0  0  0  0
  186.0540  178.8920  145.7860 O   0  0  0  0  0  1  0  0  0  0  0  0
  185.3770  179.0880  144.5890 C   0  0  0  0  0  0  0  0  0  0  0  0
  186.6350  177.6030  136.9140 C   0  0  0  0  0  2  0  0  0  0  0  0
  185.8860  178.1120  138.1370 C   0  0  0  0  0  2  0  0  0  0  0  0
  184.3970  177.8640  137.9890 C   0  0  0  0  0  2  0  0  0  0  0  0
  184.3890  180.0640  139.0060 N   0  0  0  0  0  1  0  0  0  0  0  0
  183.6380  178.8280  138.8750 C   0  0  0  0  0  2  0  0  0  0  0  0
  1  8  1  1  0  0  0
  1  7  1  0  0  0  0
  1 10  1  0  0  0  0
  2 15  1  0  0  0  0
  3  5  1  0  0  0  0
  4  6  1  0  0  0  0
  4  5  1  0  0  0  0
  5  2  2  0  0  0  0
  7  4  2  0  0  0  0
  9  7  1  0  0  0  0
  9  3  1  0  0  0  0
 10  6  1  0  0  0  0
 12 13  1  0  0  0  0
 12 11  2  0  0  0  0
 14 19  1  0  0  0  0
 15 18  1  0  0  0  0
 16 15  2  0  0  0  0
 16 20  1  0  0  0  0
 17 14  2  0  0  0  0
 18 13  2  0  0  0  0
 19 11  1  0  0  0  0
 19 23  1  1  0  0  0
 20 17  1  6  0  0  0
 20 12  1  0  0  0  0
 21 23  2  0  0  0  0
 23 22  1  0  0  0  0
 24 10  1  0  0  0  0
 24 25  1  0  0  0  0
 26 25  1  0  0  0  0
 26 28  1  0  0  0  0
 28 27  1  0  0  0  0
M  END
>  <MODEL>
8

>  <REMARK>
 VINA RESULT:      -7.7      3.199      7.263
  Name = 
  6 active torsions:
  status: ('A' for Active; 'I' for Inactive)
    1  A    between atoms: N_3  and  C_13
    2  A    between atoms: C_6  and  C_23
    3  A    between atoms: C_20  and  C_23
    4  A    between atoms: C_20  and  C_26
    5  A    between atoms: C_22  and  CA_27
    6  A    between atoms: N_24  and  C_26
                            x       y       z     vdW  Elec       q    Type
                         _______ _______ _______ _____ _____    ______ ____

>  <TORSDO>
F 6

$$$$
=
 OpenBabel10232408373D

 28 31  0  0  1  0  0  0  0  0999 V2000
  184.7510  178.8210  144.1310 C   0  0  1  0  0  3  0  0  0  0  0  0
  189.0330  177.0760  145.2360 N   0  0  0  0  0  0  0  0  0  0  0  0
  187.0400  177.5300  146.9460 S   0  0  0  0  0  0  0  0  0  0  0  0
  186.8560  177.9980  144.5850 C   0  0  0  0  0  0  0  0  0  0  0  0
  187.8200  177.5010  145.4530 C   0  0  0  0  0  0  0  0  0  0  0  0
  186.7800  178.2480  143.2390 O   0  0  0  0  0  0  0  0  0  0  0  0
  185.6860  178.3230  145.1680 C   0  0  0  0  0  0  0  0  0  0  0  0
  184.3680  180.2580  144.4310 C   0  0  0  0  0  1  0  0  0  0  0  0
  185.5790  178.1410  146.4710 O   0  0  0  0  0  0  0  0  0  0  0  0
  185.5410  178.7680  142.8730 N   0  0  0  0  0  0  0  0  0  0  0  0
  191.8570  177.6250  140.5710 N   0  0  0  0  0  0  0  0  0  0  0  0
  191.2540  177.2400  141.6590 C   0  0  0  0  0  0  0  0  0  0  0  0
  191.8970  177.3750  142.9290 N   0  0  0  0  0  0  0  0  0  0  0  0
  189.7190  177.6590  139.3510 C   0  0  0  0  0  3  0  0  0  0  0  0
  189.7610  177.0060  144.0000 C   0  0  0  0  0  0  0  0  0  0  0  0
  189.1590  176.7950  142.8650 N   0  0  0  0  0  0  0  0  0  0  0  0
  189.0810  177.2570  140.4620 C   0  0  0  0  0  3  0  0  0  0  0  0
  191.2170  177.2520  144.0310 C   0  0  0  0  0  3  0  0  0  0  0  0
  191.2230  177.5140  139.2480 C   0  0  2  0  0  3  0  0  0  0  0  0
  189.8670  176.6450  141.5920 C   0  0  1  0  0  3  0  0  0  0  0  0
  192.7480  176.0440  138.1180 O   0  0  0  0  0  0  0  0  0  0  0  0
  190.6580  175.1960  138.5160 O   0  0  0  0  0  1  0  0  0  0  0  0
  191.5950  176.2190  138.5930 C   0  0  0  0  0  0  0  0  0  0  0  0
  184.8980  177.7930  141.9990 C   0  0  0  0  0  2  0  0  0  0  0  0
  183.7020  178.4150  141.2930 C   0  0  0  0  0  2  0  0  0  0  0  0
  183.5520  177.8420  139.8970 C   0  0  0  0  0  2  0  0  0  0  0  0
  184.3610  180.0250  139.2250 N   0  0  0  0  0  1  0  0  0  0  0  0
  184.4470  178.6030  138.9440 C   0  0  0  0  0  2  0  0  0  0  0  0
  1  8  1  1  0  0  0
  1  7  1  0  0  0  0
  2  5  2  0  0  0  0
  4  7  2  0  0  0  0
  4  5  1  0  0  0  0
  5  3  1  0  0  0  0
  6  4  1  0  0  0  0
  7  9  1  0  0  0  0
  9  3  1  0  0  0  0
 10  6  1  0  0  0  0
 10  1  1  0  0  0  0
 11 12  2  0  0  0  0
 12 13  1  0  0  0  0
 13 18  2  0  0  0  0
 14 17  2  0  0  0  0
 15 18  1  0  0  0  0
 15  2  1  0  0  0  0
 16 15  2  0  0  0  0
 19 23  1  1  0  0  0
 19 14  1  0  0  0  0
 19 11  1  0  0  0  0
 20 17  1  6  0  0  0
 20 12  1  0  0  0  0
 20 16  1  0  0  0  0
 21 23  2  0  0  0  0
 22 23  1  0  0  0  0
 24 10  1  0  0  0  0
 25 24  1  0  0  0  0
 26 25  1  0  0  0  0
 28 27  1  0  0  0  0
 28 26  1  0  0  0  0
M  END
>  <MODEL>
9

>  <REMARK>
 VINA RESULT:      -7.6      2.647      4.078
  Name = 
  6 active torsions:
  status: ('A' for Active; 'I' for Inactive)
    1  A    between atoms: N_3  and  C_13
    2  A    between atoms: C_6  and  C_23
    3  A    between atoms: C_20  and  C_23
    4  A    between atoms: C_20  and  C_26
    5  A    between atoms: C_22  and  CA_27
    6  A    between atoms: N_24  and  C_26
                            x       y       z     vdW  Elec       q    Type
                         _______ _______ _______ _____ _____    ______ ____

>  <TORSDO>
F 6

$$$$
