=
 OpenBabel10232412163D

 48 54  0  0  1  0  0  0  0  0999 V2000
  188.8590  177.1530  138.3570 C   0  0  2  0  0  3  0  0  0  0  0  0
  188.6650  175.8330  137.6380 C   0  0  0  0  0  2  0  0  0  0  0  0
  188.7150  176.1420  136.2240 N   0  0  0  0  0  0  0  0  0  0  0  0
  189.3580  178.1480  137.3130 C   0  0  0  0  0  2  0  0  0  0  0  0
  189.0970  177.5170  135.9590 C   0  0  0  0  0  2  0  0  0  0  0  0
  187.5280  174.5560  134.8150 C   0  0  0  0  0  3  0  0  0  0  0  0
  188.6810  175.1130  135.2220 C   0  0  0  0  0  0  0  0  0  0  0  0
  186.1730  174.8790  135.3650 C   0  0  1  0  0  3  0  0  0  0  0  0
  185.3840  175.6810  134.3470 C   0  0  0  0  0  1  0  0  0  0  0  0
  183.6200  172.5990  137.0010 C   0  0  0  0  0  3  0  0  0  0  0  0
  185.0670  171.2380  135.6160 C   0  0  0  0  0  0  0  0  0  0  0  0
  183.9860  171.3490  136.4960 C   0  0  0  0  0  3  0  0  0  0  0  0
  185.7830  172.3800  135.2420 C   0  0  0  0  0  3  0  0  0  0  0  0
  185.4230  173.6380  135.7520 C   0  0  0  0  0  0  0  0  0  0  0  0
  185.5240  169.6730  134.9820 Cl  0  0  0  0  0  0  0  0  0  0  0  0
  184.3360  173.7420  136.6280 C   0  0  0  0  0  3  0  0  0  0  0  0
  189.9230  174.6460  134.6770 N   0  0  0  0  0  2  0  0  0  0  0  0
  190.7650  173.6330  135.3050 C   0  0  2  0  0  3  0  0  0  0  0  0
  191.2840  174.1590  136.6120 C   0  0  0  0  0  2  0  0  0  0  0  0
  192.0140  173.4310  134.4870 C   0  0  0  0  0  2  0  0  0  0  0  0
  193.1470  173.7190  135.3550 N   0  0  0  0  0  2  0  0  0  0  0  0
  192.6690  174.5480  136.3870 N   0  0  2  0  0  0  0  0  0  0  0  0
  194.1340  176.4730  137.3070 O   0  0  0  0  0  1  0  0  0  0  0  0
  193.4160  174.2070  137.5930 C   0  0  2  0  0  3  0  0  0  0  0  0
  194.2390  175.3240  138.0960 C   0  0  1  0  0  3  0  0  0  0  0  0
  194.8600  174.2480  137.3100 N   0  0  0  0  0  0  0  0  0  0  0  0
  195.4910  173.3510  138.2610 C   0  0  0  0  0  1  0  0  0  0  0  0
  191.1600  177.1560  139.1520 O   0  0  0  0  0  1  0  0  0  0  0  0
  189.8250  176.9830  139.5310 C   0  0  1  0  0  3  0  0  0  0  0  0
  188.0130  177.6110  141.2170 C   0  0  2  0  0  3  0  0  0  0  0  0
  187.9840  178.0220  142.6830 C   0  0  2  0  0  3  0  0  0  0  0  0
  189.4410  177.8290  140.7560 C   0  0  1  0  0  3  0  0  0  0  0  0
  190.3170  177.7400  142.0050 C   0  0  2  0  0  3  0  0  0  0  0  0
  190.7080  176.3150  142.3740 C   0  0  0  0  0  1  0  0  0  0  0  0
  189.4260  178.2820  143.1050 C   0  0  0  0  0  2  0  0  0  0  0  0
  187.3940  176.9070  143.5330 C   0  0  0  0  0  2  0  0  0  0  0  0
  187.2810  177.3370  144.9170 N   0  0  0  0  0  0  0  0  0  0  0  0
  186.2960  178.0180  145.6870 C   0  0  0  0  0  0  0  0  0  0  0  0
  187.4290  178.4020  148.1170 C   0  0  0  0  0  3  0  0  0  0  0  0
  185.1300  178.4430  145.4800 O   0  0  0  0  0  0  0  0  0  0  0  0
  188.7070  178.0690  148.6350 C   0  0  0  0  0  3  0  0  0  0  0  0
  187.2210  178.0220  146.8030 C   0  0  0  0  0  0  0  0  0  0  0  0
  188.1590  177.3790  146.0440 C   0  0  0  0  0  0  0  0  0  0  0  0
  189.6850  177.3970  147.8370 C   0  0  0  0  0  3  0  0  0  0  0  0
  189.4210  177.0320  146.4930 C   0  0  0  0  0  3  0  0  0  0  0  0
  187.0460  178.4790  140.4260 C   0  0  0  0  0  2  0  0  0  0  0  0
  184.9660  179.0960  140.8210 C   0  0  0  0  0  1  0  0  0  0  0  0
  186.2680  179.2430  141.2960 O   0  0  0  0  0  0  0  0  0  0  0  0
  1 29  1  1  0  0  0
  2  1  1  0  0  0  0
  3  2  1  0  0  0  0
  4  1  1  0  0  0  0
  5  3  1  0  0  0  0
  5  4  1  0  0  0  0
  6  7  2  0  0  0  0
  6  8  1  0  0  0  0
  7  3  1  0  0  0  0
  8  9  1  6  0  0  0
  8 14  1  0  0  0  0
 11 12  1  0  0  0  0
 12 10  2  0  0  0  0
 13 11  2  0  0  0  0
 13 14  1  0  0  0  0
 14 16  2  0  0  0  0
 15 11  1  0  0  0  0
 16 10  1  0  0  0  0
 17  7  1  0  0  0  0
 18 17  1  6  0  0  0
 18 19  1  0  0  0  0
 20 18  1  0  0  0  0
 20 21  1  0  0  0  0
 21 22  1  0  0  0  0
 22 19  1  1  0  0  0
 22 24  1  0  0  0  0
 24 26  1  6  0  0  0
 24 25  1  0  0  0  0
 25 23  1  6  0  0  0
 26 25  1  0  0  0  0
 26 27  1  0  0  0  0
 29 28  1  6  0  0  0
 30 46  1  6  0  0  0
 30 31  1  0  0  0  0
 31 35  1  0  0  0  0
 31 36  1  1  0  0  0
 32 29  1  6  0  0  0
 32 30  1  0  0  0  0
 32 33  1  0  0  0  0
 33 34  1  1  0  0  0
 33 35  1  0  0  0  0
 36 37  1  0  0  0  0
 37 38  1  0  0  0  0
 37 43  1  0  0  0  0
 38 42  1  0  0  0  0
 39 41  1  0  0  0  0
 40 38  2  0  0  0  0
 42 39  2  0  0  0  0
 43 45  2  0  0  0  0
 43 42  1  0  0  0  0
 44 41  2  0  0  0  0
 45 44  1  0  0  0  0
 46 48  1  0  0  0  0
 47 48  1  0  0  0  0
M  END
>  <MODEL>
1

>  <REMARK>
 VINA RESULT:      -8.3      0.000      0.000
  Name = 
  12 active torsions:
  status: ('A' for Active; 'I' for Inactive)
    1  A    between atoms: C_1  and  N_16
    2  A    between atoms: C_3  and  C_7
    3  A    between atoms: C_3  and  C_43
    4  A    between atoms: C_4  and  C_35
    5  A    between atoms: N_5  and  C_40
    6  A    between atoms: C_9  and  N_16
    7  A    between atoms: C_9  and  N_22
    8  A    between atoms: O_10  and  C_41
    9  A    between atoms: C_11  and  C_41
   10  A    between atoms: C_17  and  C_40
   11  A    between atoms: C_18  and  N_26
   12  A    between atoms: C_19  and  C_35
                            x       y       z     vdW  Elec       q    Type
                         _______ _______ _______ _____ _____    ______ ____

>  <TORSDO>
F 12

$$$$
=
 OpenBabel10232412163D

 48 54  0  0  1  0  0  0  0  0999 V2000
  188.3260  177.5190  138.2230 C   0  0  2  0  0  3  0  0  0  0  0  0
  187.5320  176.3200  137.7430 C   0  0  0  0  0  2  0  0  0  0  0  0
  187.5340  176.3980  136.2970 N   0  0  0  0  0  0  0  0  0  0  0  0
  189.0560  178.0740  137.0030 C   0  0  0  0  0  2  0  0  0  0  0  0
  188.4040  177.4430  135.7880 C   0  0  0  0  0  2  0  0  0  0  0  0
  187.1990  174.0580  135.7320 C   0  0  0  0  0  3  0  0  0  0  0  0
  186.9700  175.3580  135.4820 C   0  0  0  0  0  0  0  0  0  0  0  0
  188.0850  173.5320  136.8190 C   0  0  1  0  0  3  0  0  0  0  0  0
  187.5990  172.1640  137.2600 C   0  0  0  0  0  1  0  0  0  0  0  0
  191.1690  172.6980  134.7740 C   0  0  0  0  0  3  0  0  0  0  0  0
  191.8650  174.0140  136.6840 C   0  0  0  0  0  0  0  0  0  0  0  0
  192.1810  173.3180  135.5130 C   0  0  0  0  0  3  0  0  0  0  0  0
  190.5370  174.0900  137.1160 C   0  0  0  0  0  3  0  0  0  0  0  0
  189.5190  173.4640  136.3790 C   0  0  0  0  0  0  0  0  0  0  0  0
  193.1310  174.7910  137.6080 Cl  0  0  0  0  0  0  0  0  0  0  0  0
  189.8400  172.7730  135.2050 C   0  0  0  0  0  3  0  0  0  0  0  0
  186.1720  175.7310  134.3490 N   0  0  0  0  0  2  0  0  0  0  0  0
  184.7150  175.7700  134.3500 C   0  0  2  0  0  3  0  0  0  0  0  0
  184.2510  176.9920  135.0890 C   0  0  0  0  0  2  0  0  0  0  0  0
  184.1740  174.6330  135.1800 C   0  0  0  0  0  2  0  0  0  0  0  0
  183.3640  175.2210  136.2370 N   0  0  0  0  0  2  0  0  0  0  0  0
  183.8070  176.5470  136.4010 N   0  0  2  0  0  0  0  0  0  0  0  0
  183.5380  176.9490  138.9440 O   0  0  0  0  0  1  0  0  0  0  0  0
  182.6420  177.3490  136.7600 C   0  0  2  0  0  3  0  0  0  0  0  0
  182.5160  177.5640  138.2150 C   0  0  1  0  0  3  0  0  0  0  0  0
  181.7040  176.5340  137.5500 N   0  0  0  0  0  0  0  0  0  0  0  0
  180.3870  177.1110  137.3480 C   0  0  0  0  0  1  0  0  0  0  0  0
  190.6110  177.0970  138.9470 O   0  0  0  0  0  1  0  0  0  0  0  0
  189.2730  177.1130  139.3530 C   0  0  1  0  0  3  0  0  0  0  0  0
  187.6720  177.7370  141.2420 C   0  0  2  0  0  3  0  0  0  0  0  0
  187.8120  178.0850  142.7180 C   0  0  2  0  0  3  0  0  0  0  0  0
  189.0540  177.9200  140.6440 C   0  0  1  0  0  3  0  0  0  0  0  0
  190.0490  177.7430  141.7900 C   0  0  2  0  0  3  0  0  0  0  0  0
  190.4140  176.2890  142.0610 C   0  0  0  0  0  1  0  0  0  0  0  0
  189.2990  178.2700  142.9980 C   0  0  0  0  0  2  0  0  0  0  0  0
  187.2640  176.9570  143.5810 C   0  0  0  0  0  2  0  0  0  0  0  0
  187.2010  177.3750  144.9720 N   0  0  0  0  0  0  0  0  0  0  0  0
  186.2350  178.0270  145.7880 C   0  0  0  0  0  0  0  0  0  0  0  0
  187.4630  178.4210  148.1710 C   0  0  0  0  0  3  0  0  0  0  0  0
  185.0520  178.4260  145.6350 O   0  0  0  0  0  0  0  0  0  0  0  0
  188.7690  178.1150  148.6310 C   0  0  0  0  0  3  0  0  0  0  0  0
  187.2070  178.0450  146.8630 C   0  0  0  0  0  0  0  0  0  0  0  0
  188.1260  177.4290  146.0610 C   0  0  0  0  0  0  0  0  0  0  0  0
  189.7270  177.4720  147.7860 C   0  0  0  0  0  3  0  0  0  0  0  0
  189.4140  177.1090  146.4520 C   0  0  0  0  0  3  0  0  0  0  0  0
  186.6680  178.6750  140.5910 C   0  0  0  0  0  2  0  0  0  0  0  0
  184.7300  179.0460  141.5780 C   0  0  0  0  0  1  0  0  0  0  0  0
  186.0580  179.4710  141.5610 O   0  0  0  0  0  0  0  0  0  0  0  0
  1 29  1  1  0  0  0
  2  1  1  0  0  0  0
  3  2  1  0  0  0  0
  4  1  1  0  0  0  0
  5  3  1  0  0  0  0
  5  4  1  0  0  0  0
  6  8  1  0  0  0  0
  7  6  2  0  0  0  0
  7  3  1  0  0  0  0
  8  9  1  6  0  0  0
 10 16  2  0  0  0  0
 10 12  1  0  0  0  0
 11 13  1  0  0  0  0
 11 15  1  0  0  0  0
 12 11  2  0  0  0  0
 14  8  1  0  0  0  0
 14 13  2  0  0  0  0
 16 14  1  0  0  0  0
 17  7  1  0  0  0  0
 18 17  1  1  0  0  0
 18 19  1  0  0  0  0
 18 20  1  0  0  0  0
 20 21  1  0  0  0  0
 21 22  1  0  0  0  0
 22 19  1  6  0  0  0
 22 24  1  0  0  0  0
 24 26  1  1  0  0  0
 24 25  1  0  0  0  0
 25 23  1  1  0  0  0
 26 25  1  0  0  0  0
 27 26  1  0  0  0  0
 29 28  1  6  0  0  0
 30 46  1  6  0  0  0
 30 31  1  0  0  0  0
 31 35  1  0  0  0  0
 31 36  1  1  0  0  0
 32 29  1  6  0  0  0
 32 30  1  0  0  0  0
 32 33  1  0  0  0  0
 33 34  1  1  0  0  0
 33 35  1  0  0  0  0
 36 37  1  0  0  0  0
 37 38  1  0  0  0  0
 37 43  1  0  0  0  0
 38 42  1  0  0  0  0
 39 41  1  0  0  0  0
 40 38  2  0  0  0  0
 42 39  2  0  0  0  0
 43 45  2  0  0  0  0
 43 42  1  0  0  0  0
 44 41  2  0  0  0  0
 45 44  1  0  0  0  0
 46 48  1  0  0  0  0
 48 47  1  0  0  0  0
M  END
>  <MODEL>
2

>  <REMARK>
 VINA RESULT:      -7.8      2.627      5.722
  Name = 
  12 active torsions:
  status: ('A' for Active; 'I' for Inactive)
    1  A    between atoms: C_1  and  N_16
    2  A    between atoms: C_3  and  C_7
    3  A    between atoms: C_3  and  C_43
    4  A    between atoms: C_4  and  C_35
    5  A    between atoms: N_5  and  C_40
    6  A    between atoms: C_9  and  N_16
    7  A    between atoms: C_9  and  N_22
    8  A    between atoms: O_10  and  C_41
    9  A    between atoms: C_11  and  C_41
   10  A    between atoms: C_17  and  C_40
   11  A    between atoms: C_18  and  N_26
   12  A    between atoms: C_19  and  C_35
                            x       y       z     vdW  Elec       q    Type
                         _______ _______ _______ _____ _____    ______ ____

>  <TORSDO>
F 12

$$$$
=
 OpenBabel10232412163D

 48 54  0  0  1  0  0  0  0  0999 V2000
  189.6650  176.4430  138.5310 C   0  0  2  0  0  3  0  0  0  0  0  0
  188.6260  177.2900  139.2370 C   0  0  0  0  0  2  0  0  0  0  0  0
  189.1360  177.5050  140.5760 N   0  0  0  0  0  0  0  0  0  0  0  0
  190.9200  176.4790  139.3980 C   0  0  0  0  0  2  0  0  0  0  0  0
  190.4930  177.0200  140.7480 C   0  0  0  0  0  2  0  0  0  0  0  0
  188.9510  178.5860  142.7450 C   0  0  0  0  0  3  0  0  0  0  0  0
  188.4680  178.3690  141.5100 C   0  0  0  0  0  0  0  0  0  0  0  0
  190.1760  177.9420  143.3180 C   0  0  1  0  0  3  0  0  0  0  0  0
  191.3550  178.8910  143.2040 C   0  0  0  0  0  1  0  0  0  0  0  0
  188.4700  177.2510  146.6340 C   0  0  0  0  0  3  0  0  0  0  0  0
  190.8070  176.6580  146.8520 C   0  0  0  0  0  0  0  0  0  0  0  0
  189.5280  176.7650  147.4070 C   0  0  0  0  0  3  0  0  0  0  0  0
  191.0280  177.0360  145.5240 C   0  0  0  0  0  3  0  0  0  0  0  0
  189.9680  177.5310  144.7460 C   0  0  0  0  0  0  0  0  0  0  0  0
  192.1320  176.0480  147.8190 Cl  0  0  0  0  0  0  0  0  0  0  0  0
  188.6890  177.6310  145.3060 C   0  0  0  0  0  3  0  0  0  0  0  0
  187.2310  178.9790  141.1170 N   0  0  0  0  0  2  0  0  0  0  0  0
  185.9360  178.3110  141.1650 C   0  0  2  0  0  3  0  0  0  0  0  0
  185.2600  178.4390  139.8300 C   0  0  0  0  0  2  0  0  0  0  0  0
  185.0130  179.0540  142.0970 C   0  0  0  0  0  2  0  0  0  0  0  0
  183.8480  179.4530  141.3200 N   0  0  0  0  0  2  0  0  0  0  0  0
  184.2460  179.4730  139.9710 N   0  0  2  0  0  0  0  0  0  0  0  0
  183.0070  181.4240  138.8040 O   0  0  0  0  0  1  0  0  0  0  0  0
  183.0940  179.0600  139.1760 C   0  0  2  0  0  3  0  0  0  0  0  0
  182.4090  180.1920  138.5210 C   0  0  1  0  0  3  0  0  0  0  0  0
  181.8630  179.6190  139.7600 N   0  0  0  0  0  0  0  0  0  0  0  0
  180.7810  178.7350  139.3660 C   0  0  0  0  0  1  0  0  0  0  0  0
  191.1960  176.6930  136.6540 O   0  0  0  0  0  1  0  0  0  0  0  0
  189.9020  176.9640  137.1120 C   0  0  1  0  0  3  0  0  0  0  0  0
  187.8690  175.4820  136.6800 C   0  0  2  0  0  3  0  0  0  0  0  0
  186.5930  175.5960  135.8560 C   0  0  2  0  0  3  0  0  0  0  0  0
  188.8160  176.5240  136.1170 C   0  0  1  0  0  3  0  0  0  0  0  0
  187.9430  177.5990  135.4700 C   0  0  2  0  0  3  0  0  0  0  0  0
  187.4480  178.6530  136.4530 C   0  0  0  0  0  1  0  0  0  0  0  0
  186.7400  176.8260  134.9670 C   0  0  0  0  0  2  0  0  0  0  0  0
  185.3880  175.7660  136.7700 C   0  0  0  0  0  2  0  0  0  0  0  0
  184.6520  174.5170  136.8680 N   0  0  0  0  0  0  0  0  0  0  0  0
  184.8520  173.2750  137.5360 C   0  0  0  0  0  0  0  0  0  0  0  0
  182.8260  171.6810  136.7010 C   0  0  0  0  0  3  0  0  0  0  0  0
  185.7000  172.8170  138.3440 O   0  0  0  0  0  0  0  0  0  0  0  0
  181.7560  171.8980  135.7960 C   0  0  0  0  0  3  0  0  0  0  0  0
  183.6670  172.7680  136.8730 C   0  0  0  0  0  0  0  0  0  0  0  0
  183.4980  173.9630  136.2310 C   0  0  0  0  0  0  0  0  0  0  0  0
  181.5850  173.1490  135.1260 C   0  0  0  0  0  3  0  0  0  0  0  0
  182.4770  174.2310  135.3370 C   0  0  0  0  0  3  0  0  0  0  0  0
  188.4460  174.0830  136.5310 C   0  0  0  0  0  2  0  0  0  0  0  0
  188.3390  172.1180  135.5340 C   0  0  0  0  0  1  0  0  0  0  0  0
  187.6820  173.3440  135.6280 O   0  0  0  0  0  0  0  0  0  0  0  0
  1 29  1  6  0  0  0
  1  2  1  0  0  0  0
  1  4  1  0  0  0  0
  2  3  1  0  0  0  0
  3  5  1  0  0  0  0
  3  7  1  0  0  0  0
  4  5  1  0  0  0  0
  6  8  1  0  0  0  0
  7  6  2  0  0  0  0
  8  9  1  1  0  0  0
  8 14  1  0  0  0  0
 10 12  1  0  0  0  0
 11 12  2  0  0  0  0
 11 15  1  0  0  0  0
 13 11  1  0  0  0  0
 14 16  1  0  0  0  0
 14 13  2  0  0  0  0
 16 10  2  0  0  0  0
 17  7  1  0  0  0  0
 18 17  1  6  0  0  0
 18 20  1  0  0  0  0
 19 18  1  0  0  0  0
 21 20  1  0  0  0  0
 22 19  1  1  0  0  0
 22 21  1  0  0  0  0
 24 26  1  1  0  0  0
 24 22  1  0  0  0  0
 25 23  1  1  0  0  0
 25 24  1  0  0  0  0
 25 26  1  0  0  0  0
 27 26  1  0  0  0  0
 29 28  1  6  0  0  0
 30 46  1  6  0  0  0
 31 30  1  0  0  0  0
 31 36  1  1  0  0  0
 32 30  1  0  0  0  0
 32 29  1  1  0  0  0
 33 32  1  0  0  0  0
 33 34  1  1  0  0  0
 35 33  1  0  0  0  0
 35 31  1  0  0  0  0
 36 37  1  0  0  0  0
 37 38  1  0  0  0  0
 38 40  2  0  0  0  0
 39 42  1  0  0  0  0
 41 39  2  0  0  0  0
 42 38  1  0  0  0  0
 43 37  1  0  0  0  0
 43 42  2  0  0  0  0
 44 45  2  0  0  0  0
 44 41  1  0  0  0  0
 45 43  1  0  0  0  0
 47 48  1  0  0  0  0
 48 46  1  0  0  0  0
M  END
>  <MODEL>
3

>  <REMARK>
 VINA RESULT:      -7.8      3.896     10.189
  Name = 
  12 active torsions:
  status: ('A' for Active; 'I' for Inactive)
    1  A    between atoms: C_1  and  N_16
    2  A    between atoms: C_3  and  C_7
    3  A    between atoms: C_3  and  C_43
    4  A    between atoms: C_4  and  C_35
    5  A    between atoms: N_5  and  C_40
    6  A    between atoms: C_9  and  N_16
    7  A    between atoms: C_9  and  N_22
    8  A    between atoms: O_10  and  C_41
    9  A    between atoms: C_11  and  C_41
   10  A    between atoms: C_17  and  C_40
   11  A    between atoms: C_18  and  N_26
   12  A    between atoms: C_19  and  C_35
                            x       y       z     vdW  Elec       q    Type
                         _______ _______ _______ _____ _____    ______ ____

>  <TORSDO>
F 12

$$$$
=
 OpenBabel10232412163D

 48 54  0  0  1  0  0  0  0  0999 V2000
  188.0050  177.5170  137.9630 C   0  0  2  0  0  3  0  0  0  0  0  0
  188.1580  176.0320  137.7000 C   0  0  0  0  0  2  0  0  0  0  0  0
  187.9500  175.8600  136.2770 N   0  0  0  0  0  0  0  0  0  0  0  0
  188.0440  178.2070  136.6030 C   0  0  0  0  0  2  0  0  0  0  0  0
  187.8470  177.1200  135.5640 C   0  0  0  0  0  2  0  0  0  0  0  0
  187.1100  173.7410  135.4340 C   0  0  0  0  0  3  0  0  0  0  0  0
  188.1330  174.5880  135.6340 C   0  0  0  0  0  0  0  0  0  0  0  0
  185.6990  173.9700  135.8850 C   0  0  1  0  0  3  0  0  0  0  0  0
  184.9940  174.8960  134.9110 C   0  0  0  0  0  1  0  0  0  0  0  0
  183.0830  171.4470  136.9710 C   0  0  0  0  0  3  0  0  0  0  0  0
  184.6390  170.3290  135.4900 C   0  0  0  0  0  0  0  0  0  0  0  0
  183.5010  170.2930  136.3030 C   0  0  0  0  0  3  0  0  0  0  0  0
  185.3590  171.5190  135.3470 C   0  0  0  0  0  3  0  0  0  0  0  0
  184.9460  172.6790  136.0230 C   0  0  0  0  0  0  0  0  0  0  0  0
  185.1610  168.8850  134.6520 Cl  0  0  0  0  0  0  0  0  0  0  0  0
  183.8030  172.6380  136.8300 C   0  0  0  0  0  3  0  0  0  0  0  0
  189.4560  174.2060  135.2330 N   0  0  0  0  0  2  0  0  0  0  0  0
  190.2660  173.2100  135.9250 C   0  0  2  0  0  3  0  0  0  0  0  0
  191.2480  173.9060  136.8230 C   0  0  0  0  0  2  0  0  0  0  0  0
  191.1460  172.4910  134.9340 C   0  0  0  0  0  2  0  0  0  0  0  0
  192.5240  172.6960  135.3560 N   0  0  0  0  0  2  0  0  0  0  0  0
  192.5390  173.8570  136.1510 N   0  0  2  0  0  0  0  0  0  0  0  0
  194.6730  175.2840  135.8210 O   0  0  0  0  0  1  0  0  0  0  0  0
  193.5550  173.6610  137.1800 C   0  0  2  0  0  3  0  0  0  0  0  0
  194.7580  174.4890  136.9670 C   0  0  1  0  0  3  0  0  0  0  0  0
  194.7620  173.0710  136.5790 N   0  0  0  0  0  0  0  0  0  0  0  0
  195.4430  172.3520  137.6400 C   0  0  0  0  0  1  0  0  0  0  0  0
  189.0710  179.3920  139.0900 O   0  0  0  0  0  1  0  0  0  0  0  0
  189.0990  178.0050  138.9140 C   0  0  1  0  0  3  0  0  0  0  0  0
  190.3380  177.5610  141.1020 C   0  0  2  0  0  3  0  0  0  0  0  0
  189.9380  177.2170  142.5300 C   0  0  2  0  0  3  0  0  0  0  0  0
  189.1280  177.2380  140.2470 C   0  0  1  0  0  3  0  0  0  0  0  0
  187.9110  177.3300  141.1660 C   0  0  2  0  0  3  0  0  0  0  0  0
  187.3660  178.7450  141.3140 C   0  0  0  0  0  1  0  0  0  0  0  0
  188.4480  176.8920  142.5140 C   0  0  0  0  0  2  0  0  0  0  0  0
  190.1940  178.4030  143.4500 C   0  0  0  0  0  2  0  0  0  0  0  0
  189.9470  178.0270  144.8330 N   0  0  0  0  0  0  0  0  0  0  0  0
  190.7210  177.4380  145.8730 C   0  0  0  0  0  0  0  0  0  0  0  0
  188.9890  177.0620  147.9230 C   0  0  0  0  0  3  0  0  0  0  0  0
  191.9200  177.0850  146.0110 O   0  0  0  0  0  0  0  0  0  0  0  0
  187.6020  177.3270  148.0580 C   0  0  0  0  0  3  0  0  0  0  0  0
  189.5270  177.4100  146.6960 C   0  0  0  0  0  0  0  0  0  0  0  0
  188.7990  177.9650  145.6810 C   0  0  0  0  0  0  0  0  0  0  0  0
  186.8450  177.9060  146.9930 C   0  0  0  0  0  3  0  0  0  0  0  0
  187.4450  178.2430  145.7540 C   0  0  0  0  0  3  0  0  0  0  0  0
  191.5360  176.7170  140.6930 C   0  0  0  0  0  2  0  0  0  0  0  0
  192.8380  176.9580  138.9290 C   0  0  0  0  0  1  0  0  0  0  0  0
  192.5360  177.5320  140.1630 O   0  0  0  0  0  0  0  0  0  0  0  0
  1 29  1  1  0  0  0
  2  1  1  0  0  0  0
  3  2  1  0  0  0  0
  4  1  1  0  0  0  0
  5  3  1  0  0  0  0
  5  4  1  0  0  0  0
  6  7  2  0  0  0  0
  6  8  1  0  0  0  0
  7  3  1  0  0  0  0
  8  9  1  6  0  0  0
  8 14  1  0  0  0  0
 11 12  1  0  0  0  0
 12 10  2  0  0  0  0
 13 11  2  0  0  0  0
 13 14  1  0  0  0  0
 14 16  2  0  0  0  0
 15 11  1  0  0  0  0
 16 10  1  0  0  0  0
 17  7  1  0  0  0  0
 18 17  1  6  0  0  0
 18 19  1  0  0  0  0
 20 21  1  0  0  0  0
 20 18  1  0  0  0  0
 21 22  1  0  0  0  0
 22 19  1  1  0  0  0
 22 24  1  0  0  0  0
 24 26  1  6  0  0  0
 25 23  1  6  0  0  0
 25 24  1  0  0  0  0
 26 25  1  0  0  0  0
 26 27  1  0  0  0  0
 29 28  1  1  0  0  0
 30 46  1  6  0  0  0
 30 31  1  0  0  0  0
 31 36  1  1  0  0  0
 32 29  1  6  0  0  0
 32 30  1  0  0  0  0
 32 33  1  0  0  0  0
 33 34  1  1  0  0  0
 33 35  1  0  0  0  0
 35 31  1  0  0  0  0
 36 37  1  0  0  0  0
 37 43  1  0  0  0  0
 37 38  1  0  0  0  0
 38 40  2  0  0  0  0
 38 42  1  0  0  0  0
 39 41  1  0  0  0  0
 42 39  2  0  0  0  0
 43 45  2  0  0  0  0
 43 42  1  0  0  0  0
 44 41  2  0  0  0  0
 45 44  1  0  0  0  0
 47 48  1  0  0  0  0
 48 46  1  0  0  0  0
M  END
>  <MODEL>
4

>  <REMARK>
 VINA RESULT:      -7.7      1.603      2.643
  Name = 
  12 active torsions:
  status: ('A' for Active; 'I' for Inactive)
    1  A    between atoms: C_1  and  N_16
    2  A    between atoms: C_3  and  C_7
    3  A    between atoms: C_3  and  C_43
    4  A    between atoms: C_4  and  C_35
    5  A    between atoms: N_5  and  C_40
    6  A    between atoms: C_9  and  N_16
    7  A    between atoms: C_9  and  N_22
    8  A    between atoms: O_10  and  C_41
    9  A    between atoms: C_11  and  C_41
   10  A    between atoms: C_17  and  C_40
   11  A    between atoms: C_18  and  N_26
   12  A    between atoms: C_19  and  C_35
                            x       y       z     vdW  Elec       q    Type
                         _______ _______ _______ _____ _____    ______ ____

>  <TORSDO>
F 12

$$$$
=
 OpenBabel10232412163D

 48 54  0  0  1  0  0  0  0  0999 V2000
  189.5020  176.8290  138.8000 C   0  0  2  0  0  3  0  0  0  0  0  0
  189.9210  175.6990  137.8810 C   0  0  0  0  0  2  0  0  0  0  0  0
  189.9530  176.2650  136.5480 N   0  0  0  0  0  0  0  0  0  0  0  0
  189.6320  178.1180  137.9930 C   0  0  0  0  0  2  0  0  0  0  0  0
  189.7600  177.7040  136.5400 C   0  0  0  0  0  2  0  0  0  0  0  0
  191.6980  175.1010  135.3200 C   0  0  0  0  0  3  0  0  0  0  0  0
  190.4230  175.5130  135.4180 C   0  0  0  0  0  0  0  0  0  0  0  0
  192.7800  175.4020  136.3120 C   0  0  1  0  0  3  0  0  0  0  0  0
  192.9120  174.2510  137.2920 C   0  0  0  0  0  1  0  0  0  0  0  0
  196.0490  174.8190  134.4780 C   0  0  0  0  0  3  0  0  0  0  0  0
  195.8150  177.1980  134.8610 C   0  0  0  0  0  0  0  0  0  0  0  0
  196.5440  176.1190  134.3510 C   0  0  0  0  0  3  0  0  0  0  0  0
  194.5900  176.9750  135.4980 C   0  0  0  0  0  3  0  0  0  0  0  0
  194.0920  175.6690  135.6340 C   0  0  0  0  0  0  0  0  0  0  0  0
  196.4330  178.8270  134.7000 Cl  0  0  0  0  0  0  0  0  0  0  0  0
  194.8240  174.5940  135.1160 C   0  0  0  0  0  3  0  0  0  0  0  0
  189.5060  175.2340  134.3500 N   0  0  0  0  0  2  0  0  0  0  0  0
  188.3950  174.2950  134.4490 C   0  0  2  0  0  3  0  0  0  0  0  0
  187.0990  175.0530  134.4160 C   0  0  0  0  0  2  0  0  0  0  0  0
  188.3900  173.6520  135.8120 C   0  0  0  0  0  2  0  0  0  0  0  0
  187.1050  173.9530  136.4240 N   0  0  0  0  0  2  0  0  0  0  0  0
  186.6090  175.1050  135.7860 N   0  0  2  0  0  0  0  0  0  0  0  0
  185.3270  177.2480  136.4660 O   0  0  0  0  0  1  0  0  0  0  0  0
  185.1570  174.9760  135.7310 C   0  0  2  0  0  3  0  0  0  0  0  0
  184.4530  176.2130  136.1210 C   0  0  1  0  0  3  0  0  0  0  0  0
  184.5960  175.1130  137.0850 N   0  0  0  0  0  0  0  0  0  0  0  0
  183.3350  174.3930  137.0830 C   0  0  0  0  0  1  0  0  0  0  0  0
  191.7070  177.0700  139.8020 O   0  0  0  0  0  1  0  0  0  0  0  0
  190.3550  176.8290  140.0690 C   0  0  1  0  0  3  0  0  0  0  0  0
  188.3150  177.5450  141.4260 C   0  0  2  0  0  3  0  0  0  0  0  0
  188.0690  178.0380  142.8450 C   0  0  2  0  0  3  0  0  0  0  0  0
  189.7970  177.7420  141.1730 C   0  0  1  0  0  3  0  0  0  0  0  0
  190.4760  177.7270  142.5420 C   0  0  2  0  0  3  0  0  0  0  0  0
  190.8000  176.3270  143.0460 C   0  0  0  0  0  1  0  0  0  0  0  0
  189.4320  178.3270  143.4640 C   0  0  0  0  0  2  0  0  0  0  0  0
  187.3520  176.9710  143.6590 C   0  0  0  0  0  2  0  0  0  0  0  0
  187.1340  177.4370  145.0180 N   0  0  0  0  0  0  0  0  0  0  0  0
  186.1000  178.1530  145.6870 C   0  0  0  0  0  0  0  0  0  0  0  0
  187.0370  178.5820  148.1930 C   0  0  0  0  0  3  0  0  0  0  0  0
  184.9630  178.5900  145.3750 O   0  0  0  0  0  0  0  0  0  0  0  0
  188.2630  178.2430  148.8230 C   0  0  0  0  0  3  0  0  0  0  0  0
  186.9310  178.1720  146.8750 C   0  0  0  0  0  0  0  0  0  0  0  0
  187.9170  177.4950  146.2130 C   0  0  0  0  0  0  0  0  0  0  0  0
  189.2900  177.5370  148.1240 C   0  0  0  0  0  3  0  0  0  0  0  0
  189.1310  177.1410  146.7720 C   0  0  0  0  0  3  0  0  0  0  0  0
  187.4810  178.3630  140.4520 C   0  0  0  0  0  2  0  0  0  0  0  0
  185.3540  178.3650  139.8700 C   0  0  0  0  0  1  0  0  0  0  0  0
  186.1980  178.5540  140.9630 O   0  0  0  0  0  0  0  0  0  0  0  0
  1 29  1  1  0  0  0
  2  1  1  0  0  0  0
  3  2  1  0  0  0  0
  4  1  1  0  0  0  0
  5  3  1  0  0  0  0
  5  4  1  0  0  0  0
  6  7  2  0  0  0  0
  6  8  1  0  0  0  0
  7  3  1  0  0  0  0
  8  9  1  1  0  0  0
 10 16  1  0  0  0  0
 11 13  2  0  0  0  0
 12 10  2  0  0  0  0
 12 11  1  0  0  0  0
 13 14  1  0  0  0  0
 14  8  1  0  0  0  0
 15 11  1  0  0  0  0
 16 14  2  0  0  0  0
 17  7  1  0  0  0  0
 18 17  1  1  0  0  0
 18 20  1  0  0  0  0
 19 18  1  0  0  0  0
 20 21  1  0  0  0  0
 22 19  1  6  0  0  0
 22 21  1  0  0  0  0
 24 22  1  0  0  0  0
 24 25  1  0  0  0  0
 24 26  1  1  0  0  0
 25 23  1  1  0  0  0
 25 26  1  0  0  0  0
 27 26  1  0  0  0  0
 29 28  1  6  0  0  0
 30 46  1  6  0  0  0
 30 31  1  0  0  0  0
 31 35  1  0  0  0  0
 31 36  1  1  0  0  0
 32 29  1  6  0  0  0
 32 30  1  0  0  0  0
 32 33  1  0  0  0  0
 33 34  1  1  0  0  0
 33 35  1  0  0  0  0
 36 37  1  0  0  0  0
 37 38  1  0  0  0  0
 37 43  1  0  0  0  0
 38 42  1  0  0  0  0
 39 41  1  0  0  0  0
 40 38  2  0  0  0  0
 42 39  2  0  0  0  0
 43 45  2  0  0  0  0
 43 42  1  0  0  0  0
 44 41  2  0  0  0  0
 45 44  1  0  0  0  0
 46 48  1  0  0  0  0
 47 48  1  0  0  0  0
M  END
>  <MODEL>
5

>  <REMARK>
 VINA RESULT:      -7.6      2.789      6.073
  Name = 
  12 active torsions:
  status: ('A' for Active; 'I' for Inactive)
    1  A    between atoms: C_1  and  N_16
    2  A    between atoms: C_3  and  C_7
    3  A    between atoms: C_3  and  C_43
    4  A    between atoms: C_4  and  C_35
    5  A    between atoms: N_5  and  C_40
    6  A    between atoms: C_9  and  N_16
    7  A    between atoms: C_9  and  N_22
    8  A    between atoms: O_10  and  C_41
    9  A    between atoms: C_11  and  C_41
   10  A    between atoms: C_17  and  C_40
   11  A    between atoms: C_18  and  N_26
   12  A    between atoms: C_19  and  C_35
                            x       y       z     vdW  Elec       q    Type
                         _______ _______ _______ _____ _____    ______ ____

>  <TORSDO>
F 12

$$$$
=
 OpenBabel10232412163D

 48 54  0  0  1  0  0  0  0  0999 V2000
  189.9460  177.1290  138.9230 C   0  0  2  0  0  3  0  0  0  0  0  0
  189.3190  176.6620  140.2210 C   0  0  0  0  0  2  0  0  0  0  0  0
  188.7200  177.8390  140.8160 N   0  0  0  0  0  0  0  0  0  0  0  0
  189.3870  178.5220  138.6450 C   0  0  0  0  0  2  0  0  0  0  0  0
  188.7510  178.9940  139.9370 C   0  0  0  0  0  2  0  0  0  0  0  0
  188.4860  177.7440  143.2340 C   0  0  0  0  0  3  0  0  0  0  0  0
  187.9280  177.7630  142.0120 C   0  0  0  0  0  0  0  0  0  0  0  0
  189.9590  177.7450  143.5080 C   0  0  1  0  0  3  0  0  0  0  0  0
  190.5320  179.1220  143.2260 C   0  0  0  0  0  1  0  0  0  0  0  0
  191.7260  176.2050  146.4900 C   0  0  0  0  0  3  0  0  0  0  0  0
  189.7030  177.2730  147.2830 C   0  0  0  0  0  0  0  0  0  0  0  0
  190.8660  176.5400  147.5390 C   0  0  0  0  0  3  0  0  0  0  0  0
  189.4000  177.6700  145.9770 C   0  0  0  0  0  3  0  0  0  0  0  0
  190.2590  177.3300  144.9190 C   0  0  0  0  0  0  0  0  0  0  0  0
  188.6270  177.6950  148.5970 Cl  0  0  0  0  0  0  0  0  0  0  0  0
  191.4240  176.6010  145.1820 C   0  0  0  0  0  3  0  0  0  0  0  0
  186.5020  177.6640  141.8850 N   0  0  0  0  0  2  0  0  0  0  0  0
  185.6020  178.8100  141.8410 C   0  0  2  0  0  3  0  0  0  0  0  0
  184.2620  178.4110  142.3900 C   0  0  0  0  0  2  0  0  0  0  0  0
  185.3010  179.1670  140.4080 C   0  0  0  0  0  2  0  0  0  0  0  0
  183.8570  179.0790  140.2370 N   0  0  0  0  0  2  0  0  0  0  0  0
  183.3800  178.2240  141.2480 N   0  0  2  0  0  0  0  0  0  0  0  0
  181.4140  176.8230  140.3140 O   0  0  0  0  0  1  0  0  0  0  0  0
  182.0600  178.7120  141.6360 C   0  0  2  0  0  3  0  0  0  0  0  0
  180.9590  177.8920  141.0910 C   0  0  1  0  0  3  0  0  0  0  0  0
  181.3260  179.1590  140.4410 N   0  0  0  0  0  0  0  0  0  0  0  0
  180.3670  180.1500  140.8930 C   0  0  0  0  0  1  0  0  0  0  0  0
  189.4730  176.7590  136.5630 O   0  0  0  0  0  1  0  0  0  0  0  0
  189.6520  176.1320  137.8010 C   0  0  1  0  0  3  0  0  0  0  0  0
  190.6590  174.2410  136.4120 C   0  0  2  0  0  3  0  0  0  0  0  0
  192.0260  173.5790  136.3020 C   0  0  2  0  0  3  0  0  0  0  0  0
  190.6640  174.9760  137.7390 C   0  0  1  0  0  3  0  0  0  0  0  0
  192.1270  175.2710  138.0640 C   0  0  2  0  0  3  0  0  0  0  0  0
  192.6500  176.5460  137.4140 C   0  0  0  0  0  1  0  0  0  0  0  0
  192.8720  174.0970  137.4600 C   0  0  0  0  0  2  0  0  0  0  0  0
  192.6860  173.9470  134.9800 C   0  0  0  0  0  2  0  0  0  0  0  0
  194.1230  173.7450  135.0640 N   0  0  0  0  0  0  0  0  0  0  0  0
  194.9800  172.6120  135.1720 C   0  0  0  0  0  0  0  0  0  0  0  0
  197.4720  173.6310  135.4710 C   0  0  0  0  0  3  0  0  0  0  0  0
  194.8240  171.3650  135.1680 O   0  0  0  0  0  0  0  0  0  0  0  0
  197.9550  174.9630  135.5400 C   0  0  0  0  0  3  0  0  0  0  0  0
  196.1030  173.5200  135.3020 C   0  0  0  0  0  0  0  0  0  0  0  0
  195.2630  174.5940  135.2080 C   0  0  0  0  0  0  0  0  0  0  0  0
  197.0720  176.0830  135.4430 C   0  0  0  0  0  3  0  0  0  0  0  0
  195.6750  175.9130  135.2720 C   0  0  0  0  0  3  0  0  0  0  0  0
  189.5750  173.1740  136.3840 C   0  0  0  0  0  2  0  0  0  0  0  0
  187.5570  173.8390  135.7910 C   0  0  0  0  0  1  0  0  0  0  0  0
  188.7550  173.3550  135.2690 O   0  0  0  0  0  0  0  0  0  0  0  0
  1 29  1  6  0  0  0
  1  2  1  0  0  0  0
  2  3  1  0  0  0  0
  3  7  1  0  0  0  0
  4  1  1  0  0  0  0
  4  5  1  0  0  0  0
  5  3  1  0  0  0  0
  6  8  1  0  0  0  0
  7  6  2  0  0  0  0
  8  9  1  1  0  0  0
  8 14  1  0  0  0  0
 10 12  1  0  0  0  0
 11 12  2  0  0  0  0
 11 15  1  0  0  0  0
 13 11  1  0  0  0  0
 14 16  1  0  0  0  0
 14 13  2  0  0  0  0
 16 10  2  0  0  0  0
 17  7  1  0  0  0  0
 18 17  1  6  0  0  0
 18 19  1  0  0  0  0
 20 18  1  0  0  0  0
 21 20  1  0  0  0  0
 21 22  1  0  0  0  0
 22 24  1  0  0  0  0
 22 19  1  1  0  0  0
 24 26  1  6  0  0  0
 25 23  1  6  0  0  0
 25 24  1  0  0  0  0
 26 27  1  0  0  0  0
 26 25  1  0  0  0  0
 29 28  1  6  0  0  0
 30 46  1  1  0  0  0
 30 32  1  0  0  0  0
 31 36  1  6  0  0  0
 31 30  1  0  0  0  0
 31 35  1  0  0  0  0
 32 29  1  6  0  0  0
 32 33  1  0  0  0  0
 33 34  1  6  0  0  0
 35 33  1  0  0  0  0
 36 37  1  0  0  0  0
 37 38  1  0  0  0  0
 37 43  1  0  0  0  0
 38 42  1  0  0  0  0
 39 41  1  0  0  0  0
 40 38  2  0  0  0  0
 42 39  2  0  0  0  0
 43 45  2  0  0  0  0
 43 42  1  0  0  0  0
 44 41  2  0  0  0  0
 45 44  1  0  0  0  0
 48 47  1  0  0  0  0
 48 46  1  0  0  0  0
M  END
>  <MODEL>
6

>  <REMARK>
 VINA RESULT:      -7.4      3.828     11.005
  Name = 
  12 active torsions:
  status: ('A' for Active; 'I' for Inactive)
    1  A    between atoms: C_1  and  N_16
    2  A    between atoms: C_3  and  C_7
    3  A    between atoms: C_3  and  C_43
    4  A    between atoms: C_4  and  C_35
    5  A    between atoms: N_5  and  C_40
    6  A    between atoms: C_9  and  N_16
    7  A    between atoms: C_9  and  N_22
    8  A    between atoms: O_10  and  C_41
    9  A    between atoms: C_11  and  C_41
   10  A    between atoms: C_17  and  C_40
   11  A    between atoms: C_18  and  N_26
   12  A    between atoms: C_19  and  C_35
                            x       y       z     vdW  Elec       q    Type
                         _______ _______ _______ _____ _____    ______ ____

>  <TORSDO>
F 12

$$$$
=
 OpenBabel10232412163D

 48 54  0  0  1  0  0  0  0  0999 V2000
  189.0470  177.4180  139.3290 C   0  0  2  0  0  3  0  0  0  0  0  0
  188.7980  176.3360  138.2980 C   0  0  0  0  0  2  0  0  0  0  0  0
  188.6660  177.0230  137.0290 N   0  0  0  0  0  0  0  0  0  0  0  0
  189.3900  178.6880  138.5550 C   0  0  0  0  0  2  0  0  0  0  0  0
  188.9800  178.4380  137.1170 C   0  0  0  0  0  2  0  0  0  0  0  0
  189.1800  175.1500  135.5680 C   0  0  0  0  0  3  0  0  0  0  0  0
  188.5350  176.3070  135.7900 C   0  0  0  0  0  0  0  0  0  0  0  0
  190.1330  174.4970  136.5220 C   0  0  1  0  0  3  0  0  0  0  0  0
  190.0360  172.9880  136.3910 C   0  0  0  0  0  1  0  0  0  0  0  0
  193.1610  176.0950  134.8900 C   0  0  0  0  0  3  0  0  0  0  0  0
  193.8590  175.1470  137.0050 C   0  0  0  0  0  0  0  0  0  0  0  0
  194.1630  175.8400  135.8300 C   0  0  0  0  0  3  0  0  0  0  0  0
  192.5520  174.7070  137.2400 C   0  0  0  0  0  3  0  0  0  0  0  0
  191.5440  174.9550  136.2940 C   0  0  0  0  0  0  0  0  0  0  0  0
  195.1130  174.8300  138.1840 Cl  0  0  0  0  0  0  0  0  0  0  0  0
  191.8540  175.6550  135.1220 C   0  0  0  0  0  3  0  0  0  0  0  0
  187.7200  176.8730  134.7540 N   0  0  0  0  0  2  0  0  0  0  0  0
  186.4100  176.3610  134.3700 C   0  0  2  0  0  3  0  0  0  0  0  0
  185.3450  177.2860  134.8830 C   0  0  0  0  0  2  0  0  0  0  0  0
  186.1340  175.0700  135.0970 C   0  0  0  0  0  2  0  0  0  0  0  0
  184.9120  175.2630  135.8660 N   0  0  0  0  0  2  0  0  0  0  0  0
  184.7670  176.6500  136.0580 N   0  0  2  0  0  0  0  0  0  0  0  0
  183.9360  177.9710  138.1230 O   0  0  0  0  0  1  0  0  0  0  0  0
  183.3370  176.9390  136.0480 C   0  0  2  0  0  3  0  0  0  0  0  0
  182.8930  177.6950  137.2350 C   0  0  1  0  0  3  0  0  0  0  0  0
  182.6820  176.2410  137.1670 N   0  0  0  0  0  0  0  0  0  0  0  0
  181.2990  176.0400  136.7750 C   0  0  0  0  0  1  0  0  0  0  0  0
  191.3990  176.8860  139.6660 O   0  0  0  0  0  1  0  0  0  0  0  0
  190.1530  176.9890  140.2940 C   0  0  1  0  0  3  0  0  0  0  0  0
  188.9370  177.7530  142.4050 C   0  0  2  0  0  3  0  0  0  0  0  0
  189.3460  178.1310  143.8220 C   0  0  2  0  0  3  0  0  0  0  0  0
  190.2030  177.8390  141.5740 C   0  0  1  0  0  3  0  0  0  0  0  0
  191.3690  177.6340  142.5400 C   0  0  2  0  0  3  0  0  0  0  0  0
  191.6970  176.1690  142.7960 C   0  0  0  0  0  1  0  0  0  0  0  0
  190.8670  178.2350  143.8380 C   0  0  0  0  0  2  0  0  0  0  0  0
  188.8950  177.0590  144.8050 C   0  0  0  0  0  2  0  0  0  0  0  0
  187.7480  177.5260  145.5650 N   0  0  0  0  0  0  0  0  0  0  0  0
  187.4220  177.6210  146.9480 C   0  0  0  0  0  0  0  0  0  0  0  0
  184.8490  178.4660  147.0190 C   0  0  0  0  0  3  0  0  0  0  0  0
  188.0260  177.4020  148.0300 O   0  0  0  0  0  0  0  0  0  0  0  0
  183.9170  178.7660  145.9930 C   0  0  0  0  0  3  0  0  0  0  0  0
  186.0950  178.0640  146.5690 C   0  0  0  0  0  0  0  0  0  0  0  0
  186.4220  177.9550  145.2460 C   0  0  0  0  0  0  0  0  0  0  0  0
  184.2640  178.6490  144.6110 C   0  0  0  0  0  3  0  0  0  0  0  0
  185.5560  178.2300  144.2030 C   0  0  0  0  0  3  0  0  0  0  0  0
  187.8870  178.7320  141.9010 C   0  0  0  0  0  2  0  0  0  0  0  0
  186.0320  178.9700  140.7310 C   0  0  0  0  0  1  0  0  0  0  0  0
  186.7500  178.0400  141.4820 O   0  0  0  0  0  0  0  0  0  0  0  0
  1 29  1  1  0  0  0
  2  1  1  0  0  0  0
  3  5  1  0  0  0  0
  3  2  1  0  0  0  0
  4  1  1  0  0  0  0
  5  4  1  0  0  0  0
  6  7  2  0  0  0  0
  6  8  1  0  0  0  0
  7  3  1  0  0  0  0
  8  9  1  6  0  0  0
 10 16  2  0  0  0  0
 10 12  1  0  0  0  0
 11 13  1  0  0  0  0
 11 15  1  0  0  0  0
 12 11  2  0  0  0  0
 14  8  1  0  0  0  0
 14 13  2  0  0  0  0
 16 14  1  0  0  0  0
 17  7  1  0  0  0  0
 18 17  1  1  0  0  0
 18 19  1  0  0  0  0
 18 20  1  0  0  0  0
 20 21  1  0  0  0  0
 21 22  1  0  0  0  0
 22 19  1  6  0  0  0
 24 22  1  0  0  0  0
 24 26  1  1  0  0  0
 24 25  1  0  0  0  0
 25 23  1  1  0  0  0
 26 25  1  0  0  0  0
 27 26  1  0  0  0  0
 29 28  1  6  0  0  0
 30 46  1  6  0  0  0
 30 31  1  0  0  0  0
 31 35  1  0  0  0  0
 31 36  1  1  0  0  0
 32 29  1  6  0  0  0
 32 30  1  0  0  0  0
 32 33  1  0  0  0  0
 33 34  1  1  0  0  0
 33 35  1  0  0  0  0
 36 37  1  0  0  0  0
 37 38  1  0  0  0  0
 38 40  2  0  0  0  0
 41 39  2  0  0  0  0
 42 38  1  0  0  0  0
 42 39  1  0  0  0  0
 43 37  1  0  0  0  0
 43 42  2  0  0  0  0
 44 41  1  0  0  0  0
 45 44  2  0  0  0  0
 45 43  1  0  0  0  0
 47 48  1  0  0  0  0
 48 46  1  0  0  0  0
M  END
>  <MODEL>
7

>  <REMARK>
 VINA RESULT:      -7.2      2.892      6.125
  Name = 
  12 active torsions:
  status: ('A' for Active; 'I' for Inactive)
    1  A    between atoms: C_1  and  N_16
    2  A    between atoms: C_3  and  C_7
    3  A    between atoms: C_3  and  C_43
    4  A    between atoms: C_4  and  C_35
    5  A    between atoms: N_5  and  C_40
    6  A    between atoms: C_9  and  N_16
    7  A    between atoms: C_9  and  N_22
    8  A    between atoms: O_10  and  C_41
    9  A    between atoms: C_11  and  C_41
   10  A    between atoms: C_17  and  C_40
   11  A    between atoms: C_18  and  N_26
   12  A    between atoms: C_19  and  C_35
                            x       y       z     vdW  Elec       q    Type
                         _______ _______ _______ _____ _____    ______ ____

>  <TORSDO>
F 12

$$$$
=
 OpenBabel10232412163D

 48 54  0  0  1  0  0  0  0  0999 V2000
  187.2920  176.7710  136.6970 C   0  0  2  0  0  3  0  0  0  0  0  0
  186.0610  176.1720  137.3460 C   0  0  0  0  0  2  0  0  0  0  0  0
  185.1060  175.9750  136.2740 N   0  0  0  0  0  0  0  0  0  0  0  0
  187.1250  176.5860  135.1910 C   0  0  0  0  0  2  0  0  0  0  0  0
  185.6690  176.2310  134.9610 C   0  0  0  0  0  2  0  0  0  0  0  0
  183.7530  173.9740  136.5460 C   0  0  0  0  0  3  0  0  0  0  0  0
  183.8500  175.3120  136.4920 C   0  0  0  0  0  0  0  0  0  0  0  0
  184.8890  173.0180  136.3400 C   0  0  1  0  0  3  0  0  0  0  0  0
  185.6540  172.8430  137.6380 C   0  0  0  0  0  1  0  0  0  0  0  0
  184.9230  169.4960  134.9310 C   0  0  0  0  0  3  0  0  0  0  0  0
  182.6180  170.1370  135.2980 C   0  0  0  0  0  0  0  0  0  0  0  0
  183.5600  169.1950  134.8750 C   0  0  0  0  0  3  0  0  0  0  0  0
  183.0390  171.3820  135.7770 C   0  0  0  0  0  3  0  0  0  0  0  0
  184.4080  171.6910  135.8280 C   0  0  0  0  0  0  0  0  0  0  0  0
  180.9100  169.7600  135.2300 Cl  0  0  0  0  0  0  0  0  0  0  0  0
  185.3470  170.7410  135.4090 C   0  0  0  0  0  3  0  0  0  0  0  0
  182.6650  176.1130  136.6160 N   0  0  0  0  0  2  0  0  0  0  0  0
  181.7590  176.0650  137.7570 C   0  0  2  0  0  3  0  0  0  0  0  0
  181.0060  177.3610  137.8470 C   0  0  0  0  0  2  0  0  0  0  0  0
  182.5540  176.0330  139.0380 C   0  0  0  0  0  2  0  0  0  0  0  0
  182.1520  177.1910  139.8220 N   0  0  0  0  0  2  0  0  0  0  0  0
  181.6200  178.1300  138.9190 N   0  0  2  0  0  0  0  0  0  0  0  0
  181.8310  180.7090  138.8490 O   0  0  0  0  0  1  0  0  0  0  0  0
  180.5490  178.8370  139.6130 C   0  0  2  0  0  3  0  0  0  0  0  0
  180.6940  180.3050  139.5550 C   0  0  1  0  0  3  0  0  0  0  0  0
  181.1040  179.5730  140.7620 N   0  0  0  0  0  0  0  0  0  0  0  0
  180.0240  179.7160  141.7210 C   0  0  0  0  0  1  0  0  0  0  0  0
  189.3370  175.5340  136.2360 O   0  0  0  0  0  1  0  0  0  0  0  0
  188.5580  176.1100  137.2450 C   0  0  1  0  0  3  0  0  0  0  0  0
  188.9030  177.0060  139.6110 C   0  0  2  0  0  3  0  0  0  0  0  0
  190.0960  177.4610  140.4400 C   0  0  2  0  0  3  0  0  0  0  0  0
  189.3710  177.0330  138.1680 C   0  0  1  0  0  3  0  0  0  0  0  0
  190.8900  176.8740  138.2030 C   0  0  2  0  0  3  0  0  0  0  0  0
  191.3480  175.4230  138.2710 C   0  0  0  0  0  1  0  0  0  0  0  0
  191.2910  177.5530  139.4970 C   0  0  0  0  0  2  0  0  0  0  0  0
  190.3890  176.4520  141.5420 C   0  0  0  0  0  2  0  0  0  0  0  0
  190.0440  177.0110  142.8380 N   0  0  0  0  0  0  0  0  0  0  0  0
  190.7630  177.6560  143.8850 C   0  0  0  0  0  0  0  0  0  0  0  0
  188.9620  178.0030  145.8790 C   0  0  0  0  0  3  0  0  0  0  0  0
  191.9470  178.0450  144.0530 O   0  0  0  0  0  0  0  0  0  0  0  0
  187.5920  177.6540  145.9960 C   0  0  0  0  0  3  0  0  0  0  0  0
  189.5460  177.6560  144.6730 C   0  0  0  0  0  0  0  0  0  0  0  0
  188.8750  177.0250  143.6620 C   0  0  0  0  0  0  0  0  0  0  0  0
  186.8960  176.9940  144.9360 C   0  0  0  0  0  3  0  0  0  0  0  0
  187.5430  176.6580  143.7200 C   0  0  0  0  0  3  0  0  0  0  0  0
  187.7400  177.9630  139.8250 C   0  0  0  0  0  2  0  0  0  0  0  0
  186.7640  179.1040  141.4410 C   0  0  0  0  0  1  0  0  0  0  0  0
  188.0140  178.8160  140.8940 O   0  0  0  0  0  0  0  0  0  0  0  0
  1 29  1  1  0  0  0
  1  2  1  0  0  0  0
  3  7  1  0  0  0  0
  3  2  1  0  0  0  0
  4  1  1  0  0  0  0
  5  4  1  0  0  0  0
  5  3  1  0  0  0  0
  7  6  2  0  0  0  0
  7 17  1  0  0  0  0
  8  6  1  0  0  0  0
  8  9  1  1  0  0  0
 10 16  1  0  0  0  0
 11 13  2  0  0  0  0
 12 10  2  0  0  0  0
 12 11  1  0  0  0  0
 13 14  1  0  0  0  0
 14  8  1  0  0  0  0
 15 11  1  0  0  0  0
 16 14  2  0  0  0  0
 18 17  1  6  0  0  0
 18 19  1  0  0  0  0
 18 20  1  0  0  0  0
 20 21  1  0  0  0  0
 22 19  1  6  0  0  0
 22 24  1  0  0  0  0
 22 21  1  0  0  0  0
 24 26  1  1  0  0  0
 25 23  1  6  0  0  0
 25 24  1  0  0  0  0
 25 26  1  0  0  0  0
 26 27  1  0  0  0  0
 29 28  1  6  0  0  0
 30 46  1  6  0  0  0
 30 31  1  0  0  0  0
 31 36  1  1  0  0  0
 32 29  1  6  0  0  0
 32 33  1  0  0  0  0
 32 30  1  0  0  0  0
 33 34  1  1  0  0  0
 33 35  1  0  0  0  0
 35 31  1  0  0  0  0
 36 37  1  0  0  0  0
 37 43  1  0  0  0  0
 37 38  1  0  0  0  0
 38 40  2  0  0  0  0
 38 42  1  0  0  0  0
 39 41  1  0  0  0  0
 42 39  2  0  0  0  0
 43 45  2  0  0  0  0
 43 42  1  0  0  0  0
 44 41  2  0  0  0  0
 45 44  1  0  0  0  0
 46 48  1  0  0  0  0
 48 47  1  0  0  0  0
M  END
>  <MODEL>
8

>  <REMARK>
 VINA RESULT:      -7.1      3.277      6.816
  Name = 
  12 active torsions:
  status: ('A' for Active; 'I' for Inactive)
    1  A    between atoms: C_1  and  N_16
    2  A    between atoms: C_3  and  C_7
    3  A    between atoms: C_3  and  C_43
    4  A    between atoms: C_4  and  C_35
    5  A    between atoms: N_5  and  C_40
    6  A    between atoms: C_9  and  N_16
    7  A    between atoms: C_9  and  N_22
    8  A    between atoms: O_10  and  C_41
    9  A    between atoms: C_11  and  C_41
   10  A    between atoms: C_17  and  C_40
   11  A    between atoms: C_18  and  N_26
   12  A    between atoms: C_19  and  C_35
                            x       y       z     vdW  Elec       q    Type
                         _______ _______ _______ _____ _____    ______ ____

>  <TORSDO>
F 12

$$$$
=
 OpenBabel10232412163D

 48 54  0  0  1  0  0  0  0  0999 V2000
  191.0190  176.9540  139.2170 C   0  0  2  0  0  3  0  0  0  0  0  0
  190.3640  176.7240  140.5640 C   0  0  0  0  0  2  0  0  0  0  0  0
  189.3180  177.7200  140.6690 N   0  0  0  0  0  0  0  0  0  0  0  0
  190.0930  177.8790  138.4330 C   0  0  0  0  0  2  0  0  0  0  0  0
  189.1210  178.4660  139.4390 C   0  0  0  0  0  2  0  0  0  0  0  0
  188.8190  177.8320  143.0460 C   0  0  0  0  0  3  0  0  0  0  0  0
  188.3980  177.7390  141.7730 C   0  0  0  0  0  0  0  0  0  0  0  0
  190.2520  177.8720  143.4790 C   0  0  1  0  0  3  0  0  0  0  0  0
  190.7800  179.2920  143.3740 C   0  0  0  0  0  1  0  0  0  0  0  0
  191.7790  176.1710  146.5060 C   0  0  0  0  0  3  0  0  0  0  0  0
  189.6180  177.0530  147.1490 C   0  0  0  0  0  0  0  0  0  0  0  0
  190.7900  176.3640  147.4740 C   0  0  0  0  0  3  0  0  0  0  0  0
  189.4340  177.5480  145.8530 C   0  0  0  0  0  3  0  0  0  0  0  0
  190.4230  177.3500  144.8760 C   0  0  0  0  0  0  0  0  0  0  0  0
  188.3800  177.2970  148.3610 Cl  0  0  0  0  0  0  0  0  0  0  0  0
  191.5970  176.6640  145.2100 C   0  0  0  0  0  3  0  0  0  0  0  0
  186.9960  177.6140  141.4990 N   0  0  0  0  0  2  0  0  0  0  0  0
  186.0480  178.7200  141.5570 C   0  0  2  0  0  3  0  0  0  0  0  0
  184.7380  178.2250  142.0990 C   0  0  0  0  0  2  0  0  0  0  0  0
  185.7020  179.1690  140.1600 C   0  0  0  0  0  2  0  0  0  0  0  0
  184.2600  179.0310  140.0090 N   0  0  0  0  0  2  0  0  0  0  0  0
  183.8400  178.0840  140.9620 N   0  0  2  0  0  0  0  0  0  0  0  0
  181.9160  176.6600  139.9780 O   0  0  0  0  0  1  0  0  0  0  0  0
  182.5100  178.4850  141.4090 C   0  0  2  0  0  3  0  0  0  0  0  0
  181.4340  177.6540  140.8340 C   0  0  1  0  0  3  0  0  0  0  0  0
  181.7280  178.9750  140.2620 N   0  0  0  0  0  0  0  0  0  0  0  0
  180.7370  179.8900  140.7990 C   0  0  0  0  0  1  0  0  0  0  0  0
  190.0880  175.0390  138.0360 O   0  0  0  0  0  1  0  0  0  0  0  0
  191.2690  175.6200  138.5110 C   0  0  1  0  0  3  0  0  0  0  0  0
  193.2850  174.4950  137.4220 C   0  0  2  0  0  3  0  0  0  0  0  0
  193.8810  174.4470  136.0210 C   0  0  2  0  0  3  0  0  0  0  0  0
  192.3650  175.7000  137.4360 C   0  0  1  0  0  3  0  0  0  0  0  0
  191.9470  175.9430  135.9870 C   0  0  2  0  0  3  0  0  0  0  0  0
  190.7550  175.1030  135.5480 C   0  0  0  0  0  1  0  0  0  0  0  0
  193.1550  175.4970  135.1870 C   0  0  0  0  0  2  0  0  0  0  0  0
  193.6750  173.0710  135.4060 C   0  0  0  0  0  2  0  0  0  0  0  0
  194.7520  172.1780  135.8010 N   0  0  0  0  0  0  0  0  0  0  0  0
  194.8310  170.9290  136.4800 C   0  0  0  0  0  0  0  0  0  0  0  0
  197.4810  170.4460  136.7770 C   0  0  0  0  0  3  0  0  0  0  0  0
  194.0020  170.0980  136.9320 O   0  0  0  0  0  0  0  0  0  0  0  0
  198.6310  171.1880  136.4060 C   0  0  0  0  0  3  0  0  0  0  0  0
  196.2760  171.0370  136.4370 C   0  0  0  0  0  0  0  0  0  0  0  0
  196.1800  172.2410  135.7960 C   0  0  0  0  0  0  0  0  0  0  0  0
  198.5240  172.4470  135.7380 C   0  0  0  0  0  3  0  0  0  0  0  0
  197.2640  173.0100  135.4130 C   0  0  0  0  0  3  0  0  0  0  0  0
  194.4010  174.6480  138.4440 C   0  0  0  0  0  2  0  0  0  0  0  0
  196.5950  174.5750  138.6600 C   0  0  0  0  0  1  0  0  0  0  0  0
  195.5850  175.0190  137.8070 O   0  0  0  0  0  0  0  0  0  0  0  0
  1 29  1  6  0  0  0
  1  2  1  0  0  0  0
  2  3  1  0  0  0  0
  3  7  1  0  0  0  0
  4  1  1  0  0  0  0
  4  5  1  0  0  0  0
  5  3  1  0  0  0  0
  6  8  1  0  0  0  0
  7  6  2  0  0  0  0
  8  9  1  1  0  0  0
  8 14  1  0  0  0  0
 10 12  1  0  0  0  0
 11 12  2  0  0  0  0
 11 15  1  0  0  0  0
 13 11  1  0  0  0  0
 14 16  1  0  0  0  0
 14 13  2  0  0  0  0
 16 10  2  0  0  0  0
 17  7  1  0  0  0  0
 18 17  1  6  0  0  0
 18 19  1  0  0  0  0
 20 18  1  0  0  0  0
 21 20  1  0  0  0  0
 21 22  1  0  0  0  0
 22 24  1  0  0  0  0
 22 19  1  1  0  0  0
 24 26  1  6  0  0  0
 25 23  1  6  0  0  0
 25 24  1  0  0  0  0
 26 27  1  0  0  0  0
 26 25  1  0  0  0  0
 29 28  1  6  0  0  0
 30 32  1  0  0  0  0
 30 46  1  1  0  0  0
 31 36  1  6  0  0  0
 31 30  1  0  0  0  0
 32 29  1  1  0  0  0
 33 34  1  6  0  0  0
 33 32  1  0  0  0  0
 35 33  1  0  0  0  0
 35 31  1  0  0  0  0
 36 37  1  0  0  0  0
 37 38  1  0  0  0  0
 38 40  2  0  0  0  0
 41 39  2  0  0  0  0
 42 38  1  0  0  0  0
 42 39  1  0  0  0  0
 43 37  1  0  0  0  0
 43 42  2  0  0  0  0
 44 41  1  0  0  0  0
 45 44  2  0  0  0  0
 45 43  1  0  0  0  0
 48 46  1  0  0  0  0
 48 47  1  0  0  0  0
M  END
>  <MODEL>
9

>  <REMARK>
 VINA RESULT:      -7.1      4.127     11.214
  Name = 
  12 active torsions:
  status: ('A' for Active; 'I' for Inactive)
    1  A    between atoms: C_1  and  N_16
    2  A    between atoms: C_3  and  C_7
    3  A    between atoms: C_3  and  C_43
    4  A    between atoms: C_4  and  C_35
    5  A    between atoms: N_5  and  C_40
    6  A    between atoms: C_9  and  N_16
    7  A    between atoms: C_9  and  N_22
    8  A    between atoms: O_10  and  C_41
    9  A    between atoms: C_11  and  C_41
   10  A    between atoms: C_17  and  C_40
   11  A    between atoms: C_18  and  N_26
   12  A    between atoms: C_19  and  C_35
                            x       y       z     vdW  Elec       q    Type
                         _______ _______ _______ _____ _____    ______ ____

>  <TORSDO>
F 12

$$$$
