=
 OpenBabel10232409243D

 52 57  0  0  1  0  0  0  0  0999 V2000
  190.5930  175.9320  137.9240 C   0  0  2  0  0  3  0  0  0  0  0  0
  188.4290  177.9330  139.3660 C   0  0  0  0  0  2  0  0  0  0  0  0
  188.6260  178.1810  140.8620 C   0  0  0  0  0  2  0  0  0  0  0  0
  190.5410  177.0380  138.9860 C   0  0  1  0  0  3  0  0  0  0  0  0
  189.6430  178.0950  138.6670 O   0  0  0  0  0  0  0  0  0  0  0  0
  189.9400  177.5680  141.3610 C   0  0  2  0  0  3  0  0  0  0  0  0
  190.4500  176.4810  140.4200 C   0  0  0  0  0  2  0  0  0  0  0  0
  189.8440  177.0610  142.8030 C   0  0  2  0  0  3  0  0  0  0  0  0
  189.8660  175.5370  142.8760 C   0  0  0  0  0  1  0  0  0  0  0  0
  188.4550  177.7690  144.8680 C   0  0  0  0  0  0  0  0  0  0  0  0
  184.3730  179.0180  144.7720 C   0  0  1  0  0  3  0  0  0  0  0  0
  187.0500  178.0530  145.0620 C   0  0  0  0  0  0  0  0  0  0  0  0
  186.7640  178.2730  147.4760 N   0  0  0  0  0  0  0  0  0  0  0  0
  188.0920  177.9860  147.9510 C   0  0  0  0  0  3  0  0  0  0  0  0
  186.2790  178.3250  146.2720 C   0  0  0  0  0  0  0  0  0  0  0  0
  187.4180  177.7220  142.8830 O   0  0  0  0  0  0  0  0  0  0  0  0
  184.8940  178.6500  146.0910 N   0  0  0  0  0  2  0  0  0  0  0  0
  188.6570  177.6010  143.4650 N   0  0  0  0  0  0  0  0  0  0  0  0
  186.4790  178.0110  143.8670 C   0  0  0  0  0  0  0  0  0  0  0  0
  189.3890  177.6050  145.7940 C   0  0  0  0  0  3  0  0  0  0  0  0
  189.1940  177.7090  147.2460 C   0  0  0  0  0  3  0  0  0  0  0  0
  185.0000  178.1680  143.6520 C   0  0  0  0  0  2  0  0  0  0  0  0
  182.8690  178.8690  144.7540 C   0  0  0  0  0  1  0  0  0  0  0  0
  191.1210  176.4390  136.5720 C   0  0  1  0  0  3  0  0  0  0  0  0
  192.9940  174.9460  137.3270 N   0  0  0  0  0  0  0  0  0  0  0  0
  193.6300  176.2360  136.9700 C   0  0  0  0  0  0  0  0  0  0  0  0
  192.4690  175.7690  136.2070 C   0  0  2  0  0  3  0  0  0  0  0  0
  193.4720  177.2090  137.9610 O   0  0  0  0  0  1  0  0  0  0  0  0
  194.8890  176.1410  136.3670 O   0  0  0  0  0  1  0  0  0  0  0  0
  193.6750  173.8160  136.7110 C   0  0  0  0  0  2  0  0  0  0  0  0
  195.4190  172.7530  138.4290 C   0  0  0  0  0  3  0  0  0  0  0  0
  194.6230  173.2340  137.6590 C   0  0  0  0  0  0  0  0  0  0  0  0
  190.1540  176.2940  135.5660 O   0  0  0  0  0  0  0  0  0  0  0  0
  189.3650  177.4430  135.6570 C   0  0  0  0  0  2  0  0  0  0  0  0
  188.2710  177.3930  134.6120 C   0  0  0  0  0  2  0  0  0  0  0  0
  187.0790  176.6550  135.1840 C   0  0  0  0  0  2  0  0  0  0  0  0
  186.8480  177.0840  136.5480 N   0  0  0  0  0  2  0  0  0  0  0  0
  185.5190  176.6250  136.9050 C   0  0  0  0  0  2  0  0  0  0  0  0
  184.6690  177.7950  137.3590 C   0  0  0  0  0  2  0  0  0  0  0  0
  185.4540  178.6560  138.2260 N   0  0  0  0  0  2  0  0  0  0  0  0
  183.5050  177.7470  140.1290 C   0  0  0  0  0  1  0  0  0  0  0  0
  184.4450  179.1400  139.5460 S   0  0  0  0  0  0  0  0  0  0  0  0
  185.3110  179.6480  140.6610 O   0  0  0  0  0  0  0  0  0  0  0  0
  183.5090  180.2330  139.1090 O   0  0  0  0  0  0  0  0  0  0  0  0
  189.2960  175.1180  137.8300 C   0  0  0  0  0  2  0  0  0  0  0  0
  189.4840  173.7650  137.1560 C   0  0  0  0  0  2  0  0  0  0  0  0
  187.0460  172.4780  134.5530 C   0  0  0  0  0  3  0  0  0  0  0  0
  188.2210  173.3490  136.4880 C   0  0  0  0  0  0  0  0  0  0  0  0
  185.8300  172.9630  136.5910 C   0  0  0  0  0  3  0  0  0  0  0  0
  188.2340  172.8960  135.1640 C   0  0  0  0  0  3  0  0  0  0  0  0
  187.0180  173.3770  137.2020 C   0  0  0  0  0  3  0  0  0  0  0  0
  185.8450  172.5130  135.2670 C   0  0  0  0  0  3  0  0  0  0  0  0
  1 45  1  6  0  0  0
  2  3  1  0  0  0  0
  3  6  1  0  0  0  0
  4  1  1  6  0  0  0
  4  7  1  0  0  0  0
  5  4  1  0  0  0  0
  5  2  1  0  0  0  0
  6  8  1  1  0  0  0
  7  6  1  0  0  0  0
  8  9  1  6  0  0  0
  8 18  1  0  0  0  0
 10 12  1  0  0  0  0
 10 20  2  0  0  0  0
 11 23  1  1  0  0  0
 11 17  1  0  0  0  0
 12 15  1  0  0  0  0
 13 14  1  0  0  0  0
 15 13  2  0  0  0  0
 16 18  1  0  0  0  0
 16 19  1  0  0  0  0
 17 15  1  0  0  0  0
 18 10  1  0  0  0  0
 19 12  2  0  0  0  0
 20 21  1  0  0  0  0
 21 14  2  0  0  0  0
 22 19  1  0  0  0  0
 22 11  1  0  0  0  0
 24 33  1  6  0  0  0
 24  1  1  0  0  0  0
 26 25  1  0  0  0  0
 26 28  1  0  0  0  0
 27 24  1  1  0  0  0
 27 26  1  0  0  0  0
 27 25  1  0  0  0  0
 29 26  1  0  0  0  0
 30 25  1  0  0  0  0
 30 32  1  0  0  0  0
 32 31  3  0  0  0  0
 33 34  1  0  0  0  0
 35 36  1  0  0  0  0
 35 34  1  0  0  0  0
 36 37  1  0  0  0  0
 37 38  1  0  0  0  0
 38 39  1  0  0  0  0
 39 40  1  0  0  0  0
 40 42  1  0  0  0  0
 42 41  1  0  0  0  0
 42 43  2  0  0  0  0
 44 42  2  0  0  0  0
 46 45  1  0  0  0  0
 47 50  2  0  0  0  0
 47 52  1  0  0  0  0
 48 46  1  0  0  0  0
 48 51  2  0  0  0  0
 49 51  1  0  0  0  0
 50 48  1  0  0  0  0
 52 49  2  0  0  0  0
M  END
>  <MODEL>
1

>  <REMARK>
 VINA RESULT:      -7.9      0.000      0.000
  Name = 
  19 active torsions:
  status: ('A' for Active; 'I' for Inactive)
    1  A    between atoms: C_2  and  N_14
    2  A    between atoms: C_2  and  C_25
    3  A    between atoms: C_3  and  C_15
    4  A    between atoms: C_3  and  C_35
    5  A    between atoms: C_5  and  N_23
    6  A    between atoms: C_5  and  C_32
    7  A    between atoms: C_15  and  C_28
    8  A    between atoms: C_15  and  C_30
    9  A    between atoms: S_16  and  N_49
   10  A    between atoms: N_20  and  C_24
   11  A    between atoms: N_20  and  C_48
   12  A    between atoms: C_21  and  C_33
   13  A    between atoms: C_21  and  O_42
   14  A    between atoms: C_22  and  C_30
   15  A    between atoms: C_24  and  C_41
   16  A    between atoms: C_26  and  C_35
   17  A    between atoms: C_30  and  O_42
   18  A    between atoms: C_33  and  C_48
   19  A    between atoms: C_41  and  N_49
                            x       y       z     vdW  Elec       q    Type
                         _______ _______ _______ _____ _____    ______ ____

>  <TORSDO>
F 19

$$$$
=
 OpenBabel10232409243D

 52 57  0  0  1  0  0  0  0  0999 V2000
  188.1820  178.3660  141.7490 C   0  0  2  0  0  3  0  0  0  0  0  0
  185.9860  178.5460  144.1790 C   0  0  0  0  0  2  0  0  0  0  0  0
  184.5130  178.4900  143.7690 C   0  0  0  0  0  2  0  0  0  0  0  0
  186.8310  177.7650  142.1590 C   0  0  1  0  0  3  0  0  0  0  0  0
  186.7180  177.5150  143.5560 O   0  0  0  0  0  0  0  0  0  0  0  0
  184.3610  178.1710  142.2770 C   0  0  2  0  0  3  0  0  0  0  0  0
  185.6370  178.4800  141.5000 C   0  0  0  0  0  2  0  0  0  0  0  0
  183.1430  178.8540  141.6490 C   0  0  2  0  0  3  0  0  0  0  0  0
  181.9600  178.9100  142.6120 C   0  0  0  0  0  1  0  0  0  0  0  0
  182.2110  178.8180  139.2360 C   0  0  0  0  0  0  0  0  0  0  0  0
  181.4640  175.2930  136.9450 C   0  0  1  0  0  3  0  0  0  0  0  0
  181.7410  177.7540  138.3750 C   0  0  0  0  0  0  0  0  0  0  0  0
  180.7520  178.8750  136.4460 N   0  0  0  0  0  0  0  0  0  0  0  0
  180.8990  180.2600  136.8100 C   0  0  0  0  0  3  0  0  0  0  0  0
  181.1000  177.7860  137.0630 C   0  0  0  0  0  0  0  0  0  0  0  0
  182.5760  176.8490  140.2400 O   0  0  0  0  0  0  0  0  0  0  0  0
  180.8320  176.5190  136.4490 N   0  0  0  0  0  2  0  0  0  0  0  0
  182.7690  178.2010  140.3960 N   0  0  0  0  0  0  0  0  0  0  0  0
  181.9730  176.6140  139.0090 C   0  0  0  0  0  0  0  0  0  0  0  0
  182.0890  180.1260  139.0560 C   0  0  0  0  0  3  0  0  0  0  0  0
  181.4620  180.7850  137.9030 C   0  0  0  0  0  3  0  0  0  0  0  0
  181.5450  175.2730  138.4810 C   0  0  0  0  0  2  0  0  0  0  0  0
  180.6990  174.0860  136.4520 C   0  0  0  0  0  1  0  0  0  0  0  0
  188.6170  177.9280  140.3400 C   0  0  1  0  0  3  0  0  0  0  0  0
  187.0630  177.5530  138.4040 N   0  0  0  0  0  0  0  0  0  0  0  0
  188.1770  178.3710  137.8700 C   0  0  0  0  0  0  0  0  0  0  0  0
  187.7290  178.5760  139.2500 C   0  0  2  0  0  3  0  0  0  0  0  0
  189.3250  177.6180  137.6110 O   0  0  0  0  0  1  0  0  0  0  0  0
  187.8170  179.3310  136.9170 O   0  0  0  0  0  1  0  0  0  0  0  0
  185.7640  178.1070  138.0500 C   0  0  0  0  0  2  0  0  0  0  0  0
  184.6480  176.6360  136.1230 C   0  0  0  0  0  3  0  0  0  0  0  0
  185.1580  177.3060  136.9870 C   0  0  0  0  0  0  0  0  0  0  0  0
  189.9850  178.1680  140.1390 O   0  0  0  0  0  0  0  0  0  0  0  0
  190.5780  176.9040  140.1530 C   0  0  0  0  0  2  0  0  0  0  0  0
  192.0120  177.0100  139.6800 C   0  0  0  0  0  2  0  0  0  0  0  0
  192.1580  176.2480  138.3800 C   0  0  0  0  0  2  0  0  0  0  0  0
  193.4580  176.5180  137.8000 N   0  0  0  0  0  2  0  0  0  0  0  0
  193.5740  175.6660  136.6310 C   0  0  0  0  0  2  0  0  0  0  0  0
  195.0320  175.4970  136.2540 C   0  0  0  0  0  2  0  0  0  0  0  0
  195.7360  174.8250  137.3310 N   0  0  0  0  0  2  0  0  0  0  0  0
  198.0660  173.4710  136.3380 C   0  0  0  0  0  1  0  0  0  0  0  0
  197.4340  174.9810  137.0350 S   0  0  0  0  0  0  0  0  0  0  0  0
  197.6590  176.1010  136.0620 O   0  0  0  0  0  0  0  0  0  0  0  0
  198.1570  175.2860  138.3170 O   0  0  0  0  0  0  0  0  0  0  0  0
  189.2670  178.2110  142.8230 C   0  0  0  0  0  2  0  0  0  0  0  0
  189.4030  176.7840  143.3390 C   0  0  0  0  0  2  0  0  0  0  0  0
  189.7030  177.1000  147.1040 C   0  0  0  0  0  3  0  0  0  0  0  0
  189.9710  176.7920  144.7130 C   0  0  0  0  0  0  0  0  0  0  0  0
  191.8420  176.4070  146.2050 C   0  0  0  0  0  3  0  0  0  0  0  0
  189.1680  177.1240  145.8110 C   0  0  0  0  0  3  0  0  0  0  0  0
  191.3070  176.4280  144.9130 C   0  0  0  0  0  3  0  0  0  0  0  0
  191.0400  176.7420  147.3000 C   0  0  0  0  0  3  0  0  0  0  0  0
  1 45  1  1  0  0  0
  3  2  1  0  0  0  0
  4  1  1  1  0  0  0
  4  5  1  0  0  0  0
  5  2  1  0  0  0  0
  6  8  1  6  0  0  0
  6  3  1  0  0  0  0
  7  4  1  0  0  0  0
  7  6  1  0  0  0  0
  8  9  1  1  0  0  0
 10 18  1  0  0  0  0
 11 23  1  1  0  0  0
 11 22  1  0  0  0  0
 12 19  2  0  0  0  0
 12 10  1  0  0  0  0
 13 14  1  0  0  0  0
 13 15  2  0  0  0  0
 14 21  2  0  0  0  0
 15 12  1  0  0  0  0
 16 18  1  0  0  0  0
 17 11  1  0  0  0  0
 17 15  1  0  0  0  0
 18  8  1  0  0  0  0
 19 16  1  0  0  0  0
 20 10  2  0  0  0  0
 21 20  1  0  0  0  0
 22 19  1  0  0  0  0
 24 33  1  6  0  0  0
 24  1  1  0  0  0  0
 25 27  1  0  0  0  0
 26 25  1  0  0  0  0
 26 27  1  0  0  0  0
 27 24  1  1  0  0  0
 28 26  1  0  0  0  0
 29 26  1  0  0  0  0
 30 25  1  0  0  0  0
 31 32  3  0  0  0  0
 32 30  1  0  0  0  0
 33 34  1  0  0  0  0
 35 34  1  0  0  0  0
 36 35  1  0  0  0  0
 37 36  1  0  0  0  0
 38 37  1  0  0  0  0
 39 38  1  0  0  0  0
 39 40  1  0  0  0  0
 41 42  1  0  0  0  0
 42 40  1  0  0  0  0
 42 44  2  0  0  0  0
 43 42  2  0  0  0  0
 45 46  1  0  0  0  0
 46 48  1  0  0  0  0
 47 52  1  0  0  0  0
 48 51  2  0  0  0  0
 48 50  1  0  0  0  0
 49 52  2  0  0  0  0
 50 47  2  0  0  0  0
 51 49  1  0  0  0  0
M  END
>  <MODEL>
2

>  <REMARK>
 VINA RESULT:      -7.9      3.507      9.218
  Name = 
  19 active torsions:
  status: ('A' for Active; 'I' for Inactive)
    1  A    between atoms: C_2  and  N_14
    2  A    between atoms: C_2  and  C_25
    3  A    between atoms: C_3  and  C_15
    4  A    between atoms: C_3  and  C_35
    5  A    between atoms: C_5  and  N_23
    6  A    between atoms: C_5  and  C_32
    7  A    between atoms: C_15  and  C_28
    8  A    between atoms: C_15  and  C_30
    9  A    between atoms: S_16  and  N_49
   10  A    between atoms: N_20  and  C_24
   11  A    between atoms: N_20  and  C_48
   12  A    between atoms: C_21  and  C_33
   13  A    between atoms: C_21  and  O_42
   14  A    between atoms: C_22  and  C_30
   15  A    between atoms: C_24  and  C_41
   16  A    between atoms: C_26  and  C_35
   17  A    between atoms: C_30  and  O_42
   18  A    between atoms: C_33  and  C_48
   19  A    between atoms: C_41  and  N_49
                            x       y       z     vdW  Elec       q    Type
                         _______ _______ _______ _____ _____    ______ ____

>  <TORSDO>
F 19

$$$$
=
 OpenBabel10232409243D

 52 57  0  0  1  0  0  0  0  0999 V2000
  188.9750  175.7240  137.5290 C   0  0  2  0  0  3  0  0  0  0  0  0
  187.9870  176.9280  134.6420 C   0  0  0  0  0  2  0  0  0  0  0  0
  186.5010  177.2710  134.5220 C   0  0  0  0  0  2  0  0  0  0  0  0
  188.0160  176.7790  136.9620 C   0  0  1  0  0  3  0  0  0  0  0  0
  188.5300  177.4660  135.8260 O   0  0  0  0  0  0  0  0  0  0  0  0
  185.7890  177.1460  135.8740 C   0  0  2  0  0  3  0  0  0  0  0  0
  186.5690  176.2650  136.8450 C   0  0  0  0  0  2  0  0  0  0  0  0
  184.3380  176.6790  135.7340 C   0  0  2  0  0  3  0  0  0  0  0  0
  183.6120  177.3960  134.6000 C   0  0  0  0  0  1  0  0  0  0  0  0
  182.5640  176.0100  137.4960 C   0  0  0  0  0  0  0  0  0  0  0  0
  181.5630  178.2930  140.9620 C   0  0  1  0  0  3  0  0  0  0  0  0
  181.9740  176.7080  138.6170 C   0  0  0  0  0  0  0  0  0  0  0  0
  180.1520  175.2770  139.3830 N   0  0  0  0  0  0  0  0  0  0  0  0
  180.2050  174.2040  138.4240 C   0  0  0  0  0  3  0  0  0  0  0  0
  180.8800  176.3440  139.5140 C   0  0  0  0  0  0  0  0  0  0  0  0
  183.5980  177.9800  137.7560 O   0  0  0  0  0  0  0  0  0  0  0  0
  180.6010  177.2520  140.5870 N   0  0  0  0  0  2  0  0  0  0  0  0
  183.6180  176.8340  136.9980 N   0  0  0  0  0  0  0  0  0  0  0  0
  182.6120  177.8640  138.7300 C   0  0  0  0  0  0  0  0  0  0  0  0
  182.1750  174.8640  136.9540 C   0  0  0  0  0  3  0  0  0  0  0  0
  181.0550  174.0290  137.4070 C   0  0  0  0  0  3  0  0  0  0  0  0
  182.2340  178.9220  139.7290 C   0  0  0  0  0  2  0  0  0  0  0  0
  180.8700  179.3620  141.7760 C   0  0  0  0  0  1  0  0  0  0  0  0
  190.1740  176.3510  138.2610 C   0  0  1  0  0  3  0  0  0  0  0  0
  192.3410  175.1190  137.9590 N   0  0  0  0  0  0  0  0  0  0  0  0
  192.7120  176.5400  138.1470 C   0  0  0  0  0  0  0  0  0  0  0  0
  191.4750  176.2060  137.4350 C   0  0  2  0  0  3  0  0  0  0  0  0
  192.6640  176.9400  139.4850 O   0  0  0  0  0  1  0  0  0  0  0  0
  193.8020  176.9850  137.3900 O   0  0  0  0  0  1  0  0  0  0  0  0
  192.9990  174.5340  136.7980 C   0  0  0  0  0  2  0  0  0  0  0  0
  194.9070  172.8560  137.6150 C   0  0  0  0  0  3  0  0  0  0  0  0
  194.0480  173.6150  137.2370 C   0  0  0  0  0  0  0  0  0  0  0  0
  189.9050  177.6800  138.6220 O   0  0  0  0  0  0  0  0  0  0  0  0
  189.6630  177.6380  139.9970 C   0  0  0  0  0  2  0  0  0  0  0  0
  188.2560  178.1190  140.2800 C   0  0  0  0  0  2  0  0  0  0  0  0
  188.1360  178.4480  141.7530 C   0  0  0  0  0  2  0  0  0  0  0  0
  187.4060  177.3950  142.4300 N   0  0  0  0  0  2  0  0  0  0  0  0
  187.3640  177.7580  143.8340 C   0  0  0  0  0  2  0  0  0  0  0  0
  188.4420  177.0140  144.5960 C   0  0  0  0  0  2  0  0  0  0  0  0
  189.4090  177.9640  145.1180 N   0  0  0  0  0  2  0  0  0  0  0  0
  191.7460  176.5580  146.0180 C   0  0  0  0  0  1  0  0  0  0  0  0
  190.9870  177.4210  144.6600 S   0  0  0  0  0  0  0  0  0  0  0  0
  190.8630  176.4850  143.4940 O   0  0  0  0  0  0  0  0  0  0  0  0
  191.8440  178.5920  144.2650 O   0  0  0  0  0  0  0  0  0  0  0  0
  189.3520  174.6370  136.5140 C   0  0  0  0  0  2  0  0  0  0  0  0
  188.8540  173.2520  136.9060 C   0  0  0  0  0  2  0  0  0  0  0  0
  185.1200  172.5960  136.9290 C   0  0  0  0  0  3  0  0  0  0  0  0
  187.4500  173.0670  136.4490 C   0  0  0  0  0  0  0  0  0  0  0  0
  185.8090  173.1140  134.6660 C   0  0  0  0  0  3  0  0  0  0  0  0
  186.4430  172.7390  137.3640 C   0  0  0  0  0  3  0  0  0  0  0  0
  187.1300  173.2590  135.1000 C   0  0  0  0  0  3  0  0  0  0  0  0
  184.8040  172.7820  135.5800 C   0  0  0  0  0  3  0  0  0  0  0  0
  1 45  1  6  0  0  0
  1 24  1  0  0  0  0
  2  5  1  0  0  0  0
  3  2  1  0  0  0  0
  3  6  1  0  0  0  0
  4  1  1  6  0  0  0
  5  4  1  0  0  0  0
  6  8  1  6  0  0  0
  6  7  1  0  0  0  0
  7  4  1  0  0  0  0
  8  9  1  6  0  0  0
  8 18  1  0  0  0  0
 10 12  1  0  0  0  0
 11 23  1  6  0  0  0
 12 19  2  0  0  0  0
 12 15  1  0  0  0  0
 13 15  2  0  0  0  0
 14 13  1  0  0  0  0
 15 17  1  0  0  0  0
 16 19  1  0  0  0  0
 17 11  1  0  0  0  0
 18 10  1  0  0  0  0
 18 16  1  0  0  0  0
 19 22  1  0  0  0  0
 20 21  1  0  0  0  0
 20 10  2  0  0  0  0
 21 14  2  0  0  0  0
 22 11  1  0  0  0  0
 24 33  1  6  0  0  0
 25 26  1  0  0  0  0
 26 28  1  0  0  0  0
 27 25  1  0  0  0  0
 27 26  1  0  0  0  0
 27 24  1  1  0  0  0
 29 26  1  0  0  0  0
 30 32  1  0  0  0  0
 30 25  1  0  0  0  0
 32 31  3  0  0  0  0
 33 34  1  0  0  0  0
 34 35  1  0  0  0  0
 35 36  1  0  0  0  0
 36 37  1  0  0  0  0
 37 38  1  0  0  0  0
 38 39  1  0  0  0  0
 39 40  1  0  0  0  0
 42 40  1  0  0  0  0
 42 41  1  0  0  0  0
 43 42  2  0  0  0  0
 44 42  2  0  0  0  0
 45 46  1  0  0  0  0
 47 50  1  0  0  0  0
 48 46  1  0  0  0  0
 48 50  2  0  0  0  0
 49 51  2  0  0  0  0
 49 52  1  0  0  0  0
 51 48  1  0  0  0  0
 52 47  2  0  0  0  0
M  END
>  <MODEL>
3

>  <REMARK>
 VINA RESULT:      -7.7      2.649      6.445
  Name = 
  19 active torsions:
  status: ('A' for Active; 'I' for Inactive)
    1  A    between atoms: C_2  and  N_14
    2  A    between atoms: C_2  and  C_25
    3  A    between atoms: C_3  and  C_15
    4  A    between atoms: C_3  and  C_35
    5  A    between atoms: C_5  and  N_23
    6  A    between atoms: C_5  and  C_32
    7  A    between atoms: C_15  and  C_28
    8  A    between atoms: C_15  and  C_30
    9  A    between atoms: S_16  and  N_49
   10  A    between atoms: N_20  and  C_24
   11  A    between atoms: N_20  and  C_48
   12  A    between atoms: C_21  and  C_33
   13  A    between atoms: C_21  and  O_42
   14  A    between atoms: C_22  and  C_30
   15  A    between atoms: C_24  and  C_41
   16  A    between atoms: C_26  and  C_35
   17  A    between atoms: C_30  and  O_42
   18  A    between atoms: C_33  and  C_48
   19  A    between atoms: C_41  and  N_49
                            x       y       z     vdW  Elec       q    Type
                         _______ _______ _______ _____ _____    ______ ____

>  <TORSDO>
F 19

$$$$
=
 OpenBabel10232409243D

 52 57  0  0  1  0  0  0  0  0999 V2000
  189.0400  176.2410  136.8310 C   0  0  2  0  0  3  0  0  0  0  0  0
  191.3150  176.9170  139.0960 C   0  0  0  0  0  2  0  0  0  0  0  0
  190.8110  177.1220  140.5260 C   0  0  0  0  0  2  0  0  0  0  0  0
  189.3760  175.9180  138.2930 C   0  0  1  0  0  3  0  0  0  0  0  0
  190.7680  175.7460  138.5350 O   0  0  0  0  0  0  0  0  0  0  0  0
  189.3200  176.7820  140.6450 C   0  0  2  0  0  3  0  0  0  0  0  0
  188.6220  176.8190  139.2890 C   0  0  0  0  0  2  0  0  0  0  0  0
  188.5970  177.6580  141.6720 C   0  0  2  0  0  3  0  0  0  0  0  0
  188.8480  179.1440  141.4350 C   0  0  0  0  0  1  0  0  0  0  0  0
  188.1960  177.4560  144.2210 C   0  0  0  0  0  0  0  0  0  0  0  0
  191.0930  176.1370  147.0660 C   0  0  1  0  0  3  0  0  0  0  0  0
  189.0740  177.2000  145.3410 C   0  0  0  0  0  0  0  0  0  0  0  0
  187.7120  177.5800  147.3300 N   0  0  0  0  0  0  0  0  0  0  0  0
  186.4650  178.0040  146.7480 C   0  0  0  0  0  3  0  0  0  0  0  0
  188.8330  177.2200  146.7810 C   0  0  0  0  0  0  0  0  0  0  0  0
  190.2460  176.9870  143.4500 O   0  0  0  0  0  0  0  0  0  0  0  0
  189.9280  176.8320  147.6210 N   0  0  0  0  0  2  0  0  0  0  0  0
  188.9680  177.2740  143.0340 N   0  0  0  0  0  0  0  0  0  0  0  0
  190.2710  176.9320  144.8390 C   0  0  0  0  0  0  0  0  0  0  0  0
  186.9350  177.8640  144.2510 C   0  0  0  0  0  3  0  0  0  0  0  0
  186.1370  178.1200  145.4570 C   0  0  0  0  0  3  0  0  0  0  0  0
  191.4890  176.6950  145.6880 C   0  0  0  0  0  2  0  0  0  0  0  0
  192.2590  176.2450  148.0230 C   0  0  0  0  0  1  0  0  0  0  0  0
  189.9790  175.5320  135.8410 C   0  0  1  0  0  3  0  0  0  0  0  0
  187.8900  174.1900  135.4630 N   0  0  0  0  0  0  0  0  0  0  0  0
  189.0100  173.2290  135.3370 C   0  0  0  0  0  0  0  0  0  0  0  0
  189.1900  174.6100  134.8790 C   0  0  2  0  0  3  0  0  0  0  0  0
  189.5230  172.8300  136.5740 O   0  0  0  0  0  1  0  0  0  0  0  0
  188.8470  172.2360  134.3650 O   0  0  0  0  0  1  0  0  0  0  0  0
  186.9610  174.0900  134.3460 C   0  0  0  0  0  2  0  0  0  0  0  0
  184.7160  172.8990  135.1620 C   0  0  0  0  0  3  0  0  0  0  0  0
  185.7310  173.4330  134.7840 C   0  0  0  0  0  0  0  0  0  0  0  0
  190.7890  176.4570  135.1650 O   0  0  0  0  0  0  0  0  0  0  0  0
  191.8560  175.7050  134.6670 C   0  0  0  0  0  2  0  0  0  0  0  0
  192.7000  175.2000  135.8160 C   0  0  0  0  0  2  0  0  0  0  0  0
  193.5480  176.3380  136.3420 C   0  0  0  0  0  2  0  0  0  0  0  0
  194.9150  175.8900  136.5130 N   0  0  0  0  0  2  0  0  0  0  0  0
  194.8470  174.5950  137.1630 C   0  0  0  0  0  2  0  0  0  0  0  0
  196.0270  173.7400  136.7440 C   0  0  0  0  0  2  0  0  0  0  0  0
  196.9010  173.5310  137.8840 N   0  0  0  0  0  2  0  0  0  0  0  0
  198.3560  175.0500  135.9280 C   0  0  0  0  0  1  0  0  0  0  0  0
  198.4120  174.3050  137.5430 S   0  0  0  0  0  0  0  0  0  0  0  0
  198.6550  175.3730  138.5670 O   0  0  0  0  0  0  0  0  0  0  0  0
  199.5310  173.3020  137.5970 O   0  0  0  0  0  0  0  0  0  0  0  0
  188.8580  177.7410  136.5670 C   0  0  0  0  0  2  0  0  0  0  0  0
  187.6390  178.0560  135.7090 C   0  0  0  0  0  2  0  0  0  0  0  0
  184.2860  176.6230  136.7430 C   0  0  0  0  0  3  0  0  0  0  0  0
  186.3940  177.7940  136.4780 C   0  0  0  0  0  0  0  0  0  0  0  0
  185.0340  178.1710  138.4490 C   0  0  0  0  0  3  0  0  0  0  0  0
  185.4410  176.8860  135.9990 C   0  0  0  0  0  3  0  0  0  0  0  0
  186.1900  178.4320  137.7060 C   0  0  0  0  0  3  0  0  0  0  0  0
  184.0820  177.2670  137.9670 C   0  0  0  0  0  3  0  0  0  0  0  0
  1 45  1  1  0  0  0
  2  3  1  0  0  0  0
  3  6  1  0  0  0  0
  4  1  1  6  0  0  0
  4  5  1  0  0  0  0
  4  7  1  0  0  0  0
  5  2  1  0  0  0  0
  6  8  1  1  0  0  0
  7  6  1  0  0  0  0
  8  9  1  6  0  0  0
  8 18  1  0  0  0  0
 10 20  2  0  0  0  0
 10 12  1  0  0  0  0
 11 17  1  0  0  0  0
 11 23  1  1  0  0  0
 12 15  1  0  0  0  0
 14 13  1  0  0  0  0
 15 13  2  0  0  0  0
 15 17  1  0  0  0  0
 16 19  1  0  0  0  0
 18 16  1  0  0  0  0
 18 10  1  0  0  0  0
 19 12  2  0  0  0  0
 19 22  1  0  0  0  0
 20 21  1  0  0  0  0
 21 14  2  0  0  0  0
 22 11  1  0  0  0  0
 24 33  1  6  0  0  0
 24  1  1  0  0  0  0
 26 25  1  0  0  0  0
 26 28  1  0  0  0  0
 27 26  1  0  0  0  0
 27 25  1  0  0  0  0
 27 24  1  1  0  0  0
 29 26  1  0  0  0  0
 30 32  1  0  0  0  0
 30 25  1  0  0  0  0
 32 31  3  0  0  0  0
 34 33  1  0  0  0  0
 34 35  1  0  0  0  0
 35 36  1  0  0  0  0
 36 37  1  0  0  0  0
 37 38  1  0  0  0  0
 39 38  1  0  0  0  0
 39 40  1  0  0  0  0
 41 42  1  0  0  0  0
 42 44  2  0  0  0  0
 42 40  1  0  0  0  0
 42 43  2  0  0  0  0
 46 48  1  0  0  0  0
 46 45  1  0  0  0  0
 47 52  1  0  0  0  0
 48 51  2  0  0  0  0
 50 48  1  0  0  0  0
 50 47  2  0  0  0  0
 51 49  1  0  0  0  0
 52 49  2  0  0  0  0
M  END
>  <MODEL>
4

>  <REMARK>
 VINA RESULT:      -7.6      3.191      6.957
  Name = 
  19 active torsions:
  status: ('A' for Active; 'I' for Inactive)
    1  A    between atoms: C_2  and  N_14
    2  A    between atoms: C_2  and  C_25
    3  A    between atoms: C_3  and  C_15
    4  A    between atoms: C_3  and  C_35
    5  A    between atoms: C_5  and  N_23
    6  A    between atoms: C_5  and  C_32
    7  A    between atoms: C_15  and  C_28
    8  A    between atoms: C_15  and  C_30
    9  A    between atoms: S_16  and  N_49
   10  A    between atoms: N_20  and  C_24
   11  A    between atoms: N_20  and  C_48
   12  A    between atoms: C_21  and  C_33
   13  A    between atoms: C_21  and  O_42
   14  A    between atoms: C_22  and  C_30
   15  A    between atoms: C_24  and  C_41
   16  A    between atoms: C_26  and  C_35
   17  A    between atoms: C_30  and  O_42
   18  A    between atoms: C_33  and  C_48
   19  A    between atoms: C_41  and  N_49
                            x       y       z     vdW  Elec       q    Type
                         _______ _______ _______ _____ _____    ______ ____

>  <TORSDO>
F 19

$$$$
=
 OpenBabel10232409243D

 52 57  0  0  1  0  0  0  0  0999 V2000
  189.2310  175.6260  137.5830 C   0  0  2  0  0  3  0  0  0  0  0  0
  188.0730  177.2300  134.9660 C   0  0  0  0  0  2  0  0  0  0  0  0
  186.5700  177.5140  134.9530 C   0  0  0  0  0  2  0  0  0  0  0  0
  188.2050  176.7100  137.2270 C   0  0  1  0  0  3  0  0  0  0  0  0
  188.6410  177.5960  136.2020 O   0  0  0  0  0  0  0  0  0  0  0  0
  185.9200  177.1370  136.2900 C   0  0  2  0  0  3  0  0  0  0  0  0
  186.7770  176.1510  137.0780 C   0  0  0  0  0  2  0  0  0  0  0  0
  184.4860  176.6270  136.1260 C   0  0  2  0  0  3  0  0  0  0  0  0
  183.7830  177.2700  134.9340 C   0  0  0  0  0  1  0  0  0  0  0  0
  182.6350  176.0280  137.8330 C   0  0  0  0  0  0  0  0  0  0  0  0
  181.5330  178.4130  141.1980 C   0  0  1  0  0  3  0  0  0  0  0  0
  182.0120  176.7630  138.9110 C   0  0  0  0  0  0  0  0  0  0  0  0
  180.1410  175.3770  139.6410 N   0  0  0  0  0  0  0  0  0  0  0  0
  180.2160  174.2790  138.7120 C   0  0  0  0  0  3  0  0  0  0  0  0
  180.8790  176.4370  139.7730 C   0  0  0  0  0  0  0  0  0  0  0  0
  183.6870  177.9900  138.0830 O   0  0  0  0  0  0  0  0  0  0  0  0
  180.5720  177.3760  140.8120 N   0  0  0  0  0  2  0  0  0  0  0  0
  183.7200  176.8240  137.3550 N   0  0  0  0  0  0  0  0  0  0  0  0
  182.6620  177.9130  139.0200 C   0  0  0  0  0  0  0  0  0  0  0  0
  182.2520  174.8740  137.3050 C   0  0  0  0  0  3  0  0  0  0  0  0
  181.1030  174.0660  137.7340 C   0  0  0  0  0  3  0  0  0  0  0  0
  182.2600  179.0010  139.9760 C   0  0  0  0  0  2  0  0  0  0  0  0
  180.8240  179.5130  141.9560 C   0  0  0  0  0  1  0  0  0  0  0  0
  190.4990  176.2060  138.2310 C   0  0  1  0  0  3  0  0  0  0  0  0
  192.6500  175.1300  137.5090 N   0  0  0  0  0  0  0  0  0  0  0  0
  192.9910  176.5390  137.8150 C   0  0  0  0  0  0  0  0  0  0  0  0
  191.6830  176.2240  137.2330 C   0  0  2  0  0  3  0  0  0  0  0  0
  193.1070  176.7810  139.1870 O   0  0  0  0  0  1  0  0  0  0  0  0
  193.9530  177.1220  136.9830 O   0  0  0  0  0  1  0  0  0  0  0  0
  193.1690  174.7160  136.2120 C   0  0  0  0  0  2  0  0  0  0  0  0
  192.7770  172.0950  135.8950 C   0  0  0  0  0  3  0  0  0  0  0  0
  192.9630  173.2800  136.0340 C   0  0  0  0  0  0  0  0  0  0  0  0
  190.2460  177.4660  138.7950 O   0  0  0  0  0  0  0  0  0  0  0  0
  190.0370  177.2170  140.1530 C   0  0  0  0  0  2  0  0  0  0  0  0
  188.9200  178.1000  140.6660 C   0  0  0  0  0  2  0  0  0  0  0  0
  189.0210  178.1960  142.1730 C   0  0  0  0  0  2  0  0  0  0  0  0
  187.7300  177.9170  142.7680 N   0  0  0  0  0  2  0  0  0  0  0  0
  186.7400  178.1490  141.7330 C   0  0  0  0  0  2  0  0  0  0  0  0
  185.5960  178.9760  142.2850 C   0  0  0  0  0  2  0  0  0  0  0  0
  184.6580  178.1060  142.9720 N   0  0  0  0  0  2  0  0  0  0  0  0
  185.1480  178.4520  145.7810 C   0  0  0  0  0  1  0  0  0  0  0  0
  184.1270  178.9240  144.4020 S   0  0  0  0  0  0  0  0  0  0  0  0
  184.2430  180.4040  144.1910 O   0  0  0  0  0  0  0  0  0  0  0  0
  182.6930  178.5760  144.6950 O   0  0  0  0  0  0  0  0  0  0  0  0
  189.5000  174.6440  136.4340 C   0  0  0  0  0  2  0  0  0  0  0  0
  189.0890  173.2140  136.7590 C   0  0  0  0  0  2  0  0  0  0  0  0
  185.3780  172.5950  137.2190 C   0  0  0  0  0  3  0  0  0  0  0  0
  187.6440  173.0210  136.4660 C   0  0  0  0  0  0  0  0  0  0  0  0
  185.8180  172.9960  134.8720 C   0  0  0  0  0  3  0  0  0  0  0  0
  186.7400  172.7460  137.5000 C   0  0  0  0  0  3  0  0  0  0  0  0
  187.1790  173.1500  135.1530 C   0  0  0  0  0  3  0  0  0  0  0  0
  184.9170  172.7180  135.9050 C   0  0  0  0  0  3  0  0  0  0  0  0
  1 45  1  6  0  0  0
  1 24  1  0  0  0  0
  2  5  1  0  0  0  0
  3  2  1  0  0  0  0
  3  6  1  0  0  0  0
  4  1  1  6  0  0  0
  5  4  1  0  0  0  0
  6  8  1  6  0  0  0
  6  7  1  0  0  0  0
  7  4  1  0  0  0  0
  8  9  1  6  0  0  0
  8 18  1  0  0  0  0
 10 12  1  0  0  0  0
 11 23  1  6  0  0  0
 12 19  2  0  0  0  0
 12 15  1  0  0  0  0
 13 15  2  0  0  0  0
 14 13  1  0  0  0  0
 15 17  1  0  0  0  0
 16 19  1  0  0  0  0
 17 11  1  0  0  0  0
 18 10  1  0  0  0  0
 18 16  1  0  0  0  0
 19 22  1  0  0  0  0
 20 21  1  0  0  0  0
 20 10  2  0  0  0  0
 21 14  2  0  0  0  0
 22 11  1  0  0  0  0
 24 33  1  6  0  0  0
 25 26  1  0  0  0  0
 26 28  1  0  0  0  0
 27 25  1  0  0  0  0
 27 26  1  0  0  0  0
 27 24  1  1  0  0  0
 29 26  1  0  0  0  0
 30 25  1  0  0  0  0
 31 32  3  0  0  0  0
 32 30  1  0  0  0  0
 33 34  1  0  0  0  0
 34 35  1  0  0  0  0
 35 36  1  0  0  0  0
 36 37  1  0  0  0  0
 38 39  1  0  0  0  0
 38 37  1  0  0  0  0
 39 40  1  0  0  0  0
 40 42  1  0  0  0  0
 42 44  2  0  0  0  0
 42 41  1  0  0  0  0
 43 42  2  0  0  0  0
 45 46  1  0  0  0  0
 47 50  1  0  0  0  0
 48 46  1  0  0  0  0
 48 50  2  0  0  0  0
 49 51  2  0  0  0  0
 49 52  1  0  0  0  0
 51 48  1  0  0  0  0
 52 47  2  0  0  0  0
M  END
>  <MODEL>
5

>  <REMARK>
 VINA RESULT:      -7.4      2.480      5.839
  Name = 
  19 active torsions:
  status: ('A' for Active; 'I' for Inactive)
    1  A    between atoms: C_2  and  N_14
    2  A    between atoms: C_2  and  C_25
    3  A    between atoms: C_3  and  C_15
    4  A    between atoms: C_3  and  C_35
    5  A    between atoms: C_5  and  N_23
    6  A    between atoms: C_5  and  C_32
    7  A    between atoms: C_15  and  C_28
    8  A    between atoms: C_15  and  C_30
    9  A    between atoms: S_16  and  N_49
   10  A    between atoms: N_20  and  C_24
   11  A    between atoms: N_20  and  C_48
   12  A    between atoms: C_21  and  C_33
   13  A    between atoms: C_21  and  O_42
   14  A    between atoms: C_22  and  C_30
   15  A    between atoms: C_24  and  C_41
   16  A    between atoms: C_26  and  C_35
   17  A    between atoms: C_30  and  O_42
   18  A    between atoms: C_33  and  C_48
   19  A    between atoms: C_41  and  N_49
                            x       y       z     vdW  Elec       q    Type
                         _______ _______ _______ _____ _____    ______ ____

>  <TORSDO>
F 19

$$$$
=
 OpenBabel10232409243D

 52 57  0  0  1  0  0  0  0  0999 V2000
  189.3990  177.1930  138.9080 C   0  0  2  0  0  3  0  0  0  0  0  0
  187.3840  178.5340  136.6940 C   0  0  0  0  0  2  0  0  0  0  0  0
  185.9950  178.9350  137.1940 C   0  0  0  0  0  2  0  0  0  0  0  0
  188.3440  178.3020  138.7970 C   0  0  1  0  0  3  0  0  0  0  0  0
  188.3860  179.0090  137.5630 O   0  0  0  0  0  0  0  0  0  0  0  0
  185.8880  178.7890  138.7170 C   0  0  2  0  0  3  0  0  0  0  0  0
  186.9510  177.8460  139.2710 C   0  0  0  0  0  2  0  0  0  0  0  0
  184.4840  178.3800  139.1710 C   0  0  2  0  0  3  0  0  0  0  0  0
  183.4060  179.2890  138.5880 C   0  0  0  0  0  1  0  0  0  0  0  0
  183.2230  178.4320  141.4310 C   0  0  0  0  0  0  0  0  0  0  0  0
  185.0770  178.5460  145.2750 C   0  0  1  0  0  3  0  0  0  0  0  0
  183.6530  178.6390  142.7960 C   0  0  0  0  0  0  0  0  0  0  0  0
  181.5980  178.8450  144.0960 N   0  0  0  0  0  0  0  0  0  0  0  0
  180.5950  178.7540  143.0660 C   0  0  0  0  0  3  0  0  0  0  0  0
  182.8940  178.7900  144.0350 C   0  0  0  0  0  0  0  0  0  0  0  0
  185.4600  178.5420  141.4850 O   0  0  0  0  0  0  0  0  0  0  0  0
  183.6550  178.9020  145.2440 N   0  0  0  0  0  2  0  0  0  0  0  0
  184.4020  178.3390  140.6310 N   0  0  0  0  0  0  0  0  0  0  0  0
  184.9770  178.7010  142.7790 C   0  0  0  0  0  0  0  0  0  0  0  0
  181.9840  178.4120  140.9610 C   0  0  0  0  0  3  0  0  0  0  0  0
  180.7560  178.5700  141.7520 C   0  0  0  0  0  3  0  0  0  0  0  0
  185.8060  178.9960  143.9970 C   0  0  0  0  0  2  0  0  0  0  0  0
  185.7330  179.1630  146.4900 C   0  0  0  0  0  1  0  0  0  0  0  0
  189.3020  176.1720  137.7630 C   0  0  1  0  0  3  0  0  0  0  0  0
  191.7140  176.5380  137.1680 N   0  0  0  0  0  0  0  0  0  0  0  0
  191.1660  175.6710  136.0990 C   0  0  0  0  0  0  0  0  0  0  0  0
  190.6770  175.5200  137.4720 C   0  0  2  0  0  3  0  0  0  0  0  0
  190.4110  176.3800  135.1610 O   0  0  0  0  0  1  0  0  0  0  0  0
  192.0400  174.6960  135.6060 O   0  0  0  0  0  1  0  0  0  0  0  0
  192.9620  176.0150  137.7050 C   0  0  0  0  0  2  0  0  0  0  0  0
  193.5670  177.2880  139.9710 C   0  0  0  0  0  3  0  0  0  0  0  0
  193.2910  176.7040  138.9520 C   0  0  0  0  0  0  0  0  0  0  0  0
  188.2960  175.2270  138.0150 O   0  0  0  0  0  0  0  0  0  0  0  0
  187.6600  175.0410  136.7860 C   0  0  0  0  0  2  0  0  0  0  0  0
  186.1850  174.7890  137.0100 C   0  0  0  0  0  2  0  0  0  0  0  0
  185.9810  173.3260  137.3430 C   0  0  0  0  0  2  0  0  0  0  0  0
  184.5670  173.0120  137.3170 N   0  0  0  0  0  2  0  0  0  0  0  0
  184.0990  173.3230  135.9800 C   0  0  0  0  0  2  0  0  0  0  0  0
  182.6880  173.8730  136.0380 C   0  0  0  0  0  2  0  0  0  0  0  0
  182.1090  173.5850  137.3380 N   0  0  0  0  0  2  0  0  0  0  0  0
  181.7270  176.3890  136.8530 C   0  0  0  0  0  1  0  0  0  0  0  0
  181.6640  175.0900  138.0670 S   0  0  0  0  0  0  0  0  0  0  0  0
  180.2650  174.9820  138.5970 O   0  0  0  0  0  0  0  0  0  0  0  0
  182.5990  175.4130  139.2000 O   0  0  0  0  0  0  0  0  0  0  0  0
  189.4800  176.5690  140.3070 C   0  0  0  0  0  2  0  0  0  0  0  0
  190.4720  177.2750  141.2230 C   0  0  0  0  0  2  0  0  0  0  0  0
  188.3650  176.6100  144.3030 C   0  0  0  0  0  3  0  0  0  0  0  0
  189.9170  177.3670  142.6000 C   0  0  0  0  0  0  0  0  0  0  0  0
  189.9820  178.3360  144.8210 C   0  0  0  0  0  3  0  0  0  0  0  0
  188.8600  176.5380  142.9960 C   0  0  0  0  0  3  0  0  0  0  0  0
  190.4800  178.2620  143.5160 C   0  0  0  0  0  3  0  0  0  0  0  0
  188.9250  177.5100  145.2140 C   0  0  0  0  0  3  0  0  0  0  0  0
  1 45  1  1  0  0  0
  2  3  1  0  0  0  0
  2  5  1  0  0  0  0
  3  6  1  0  0  0  0
  4  1  1  6  0  0  0
  4  7  1  0  0  0  0
  5  4  1  0  0  0  0
  6  8  1  6  0  0  0
  6  7  1  0  0  0  0
  8  9  1  1  0  0  0
  8 18  1  0  0  0  0
 10 12  1  0  0  0  0
 11 23  1  1  0  0  0
 12 15  1  0  0  0  0
 14 13  1  0  0  0  0
 15 13  2  0  0  0  0
 15 17  1  0  0  0  0
 16 19  1  0  0  0  0
 17 11  1  0  0  0  0
 18 10  1  0  0  0  0
 18 16  1  0  0  0  0
 19 12  2  0  0  0  0
 19 22  1  0  0  0  0
 20 10  2  0  0  0  0
 20 21  1  0  0  0  0
 21 14  2  0  0  0  0
 22 11  1  0  0  0  0
 24 33  1  1  0  0  0
 24  1  1  0  0  0  0
 25 27  1  0  0  0  0
 25 30  1  0  0  0  0
 26 25  1  0  0  0  0
 26 27  1  0  0  0  0
 27 24  1  6  0  0  0
 28 26  1  0  0  0  0
 29 26  1  0  0  0  0
 30 32  1  0  0  0  0
 32 31  3  0  0  0  0
 34 35  1  0  0  0  0
 34 33  1  0  0  0  0
 35 36  1  0  0  0  0
 37 36  1  0  0  0  0
 38 39  1  0  0  0  0
 38 37  1  0  0  0  0
 39 40  1  0  0  0  0
 40 42  1  0  0  0  0
 41 42  1  0  0  0  0
 42 43  2  0  0  0  0
 42 44  2  0  0  0  0
 45 46  1  0  0  0  0
 46 48  1  0  0  0  0
 47 52  1  0  0  0  0
 48 50  1  0  0  0  0
 48 51  2  0  0  0  0
 49 52  2  0  0  0  0
 50 47  2  0  0  0  0
 51 49  1  0  0  0  0
M  END
>  <MODEL>
6

>  <REMARK>
 VINA RESULT:      -7.3      2.453      5.546
  Name = 
  19 active torsions:
  status: ('A' for Active; 'I' for Inactive)
    1  A    between atoms: C_2  and  N_14
    2  A    between atoms: C_2  and  C_25
    3  A    between atoms: C_3  and  C_15
    4  A    between atoms: C_3  and  C_35
    5  A    between atoms: C_5  and  N_23
    6  A    between atoms: C_5  and  C_32
    7  A    between atoms: C_15  and  C_28
    8  A    between atoms: C_15  and  C_30
    9  A    between atoms: S_16  and  N_49
   10  A    between atoms: N_20  and  C_24
   11  A    between atoms: N_20  and  C_48
   12  A    between atoms: C_21  and  C_33
   13  A    between atoms: C_21  and  O_42
   14  A    between atoms: C_22  and  C_30
   15  A    between atoms: C_24  and  C_41
   16  A    between atoms: C_26  and  C_35
   17  A    between atoms: C_30  and  O_42
   18  A    between atoms: C_33  and  C_48
   19  A    between atoms: C_41  and  N_49
                            x       y       z     vdW  Elec       q    Type
                         _______ _______ _______ _____ _____    ______ ____

>  <TORSDO>
F 19

$$$$
=
 OpenBabel10232409243D

 52 57  0  0  1  0  0  0  0  0999 V2000
  185.3120  178.3230  140.2360 C   0  0  2  0  0  3  0  0  0  0  0  0
  184.2540  179.8380  142.9470 C   0  0  0  0  0  2  0  0  0  0  0  0
  184.9270  179.4320  144.2590 C   0  0  0  0  0  2  0  0  0  0  0  0
  185.8570  178.9020  141.5490 C   0  0  1  0  0  3  0  0  0  0  0  0
  185.2150  180.1060  141.9520 O   0  0  0  0  0  0  0  0  0  0  0  0
  186.1210  178.5020  144.0090 C   0  0  2  0  0  3  0  0  0  0  0  0
  186.0370  177.8310  142.6410 C   0  0  0  0  0  2  0  0  0  0  0  0
  186.3110  177.4740  145.1270 C   0  0  2  0  0  3  0  0  0  0  0  0
  185.4750  177.8080  146.3590 C   0  0  0  0  0  1  0  0  0  0  0  0
  188.7870  176.9220  144.6160 C   0  0  0  0  0  0  0  0  0  0  0  0
  191.9180  176.7720  147.5140 C   0  0  1  0  0  3  0  0  0  0  0  0
  189.9340  176.6610  145.4580 C   0  0  0  0  0  0  0  0  0  0  0  0
  191.6880  175.9010  143.9410 N   0  0  0  0  0  0  0  0  0  0  0  0
  190.9960  175.8960  142.6790 C   0  0  0  0  0  3  0  0  0  0  0  0
  191.2900  176.2250  145.1340 C   0  0  0  0  0  0  0  0  0  0  0  0
  188.2170  177.2640  146.7550 O   0  0  0  0  0  0  0  0  0  0  0  0
  192.2150  176.1400  146.2260 N   0  0  0  0  0  2  0  0  0  0  0  0
  187.7250  177.3390  145.4740 N   0  0  0  0  0  0  0  0  0  0  0  0
  189.5510  176.8710  146.7090 C   0  0  0  0  0  0  0  0  0  0  0  0
  188.6780  176.7400  143.3070 C   0  0  0  0  0  3  0  0  0  0  0  0
  189.7340  176.2510  142.4120 C   0  0  0  0  0  3  0  0  0  0  0  0
  190.4360  176.6210  147.8980 C   0  0  0  0  0  2  0  0  0  0  0  0
  192.7950  176.1740  148.5920 C   0  0  0  0  0  1  0  0  0  0  0  0
  186.4280  177.9770  139.2370 C   0  0  1  0  0  3  0  0  0  0  0  0
  185.0950  176.8160  137.4530 N   0  0  0  0  0  0  0  0  0  0  0  0
  186.4550  176.9850  136.8900 C   0  0  0  0  0  0  0  0  0  0  0  0
  185.9090  178.0150  137.7790 C   0  0  2  0  0  3  0  0  0  0  0  0
  187.3660  176.0470  137.3820 O   0  0  0  0  0  1  0  0  0  0  0  0
  186.5100  177.2680  135.5200 O   0  0  0  0  0  1  0  0  0  0  0  0
  184.0640  177.2680  136.5290 C   0  0  0  0  0  2  0  0  0  0  0  0
  182.4170  175.2480  135.9540 C   0  0  0  0  0  3  0  0  0  0  0  0
  183.1690  176.1580  136.2070 C   0  0  0  0  0  0  0  0  0  0  0  0
  187.5520  178.7920  139.4350 O   0  0  0  0  0  0  0  0  0  0  0  0
  188.5970  177.9060  139.7040 C   0  0  0  0  0  2  0  0  0  0  0  0
  189.6700  178.0490  138.6470 C   0  0  0  0  0  2  0  0  0  0  0  0
  190.6250  176.8790  138.7540 C   0  0  0  0  0  2  0  0  0  0  0  0
  191.3580  176.7320  137.5130 N   0  0  0  0  0  2  0  0  0  0  0  0
  191.9620  175.4140  137.5430 C   0  0  0  0  0  2  0  0  0  0  0  0
  193.4110  175.4950  137.1080 C   0  0  0  0  0  2  0  0  0  0  0  0
  194.2720  175.4330  138.2760 N   0  0  0  0  0  2  0  0  0  0  0  0
  194.9000  173.0010  136.8830 C   0  0  0  0  0  1  0  0  0  0  0  0
  195.5210  174.2790  137.9540 S   0  0  0  0  0  0  0  0  0  0  0  0
  196.6650  174.9740  137.2760 O   0  0  0  0  0  0  0  0  0  0  0  0
  196.0050  173.6680  139.2400 O   0  0  0  0  0  0  0  0  0  0  0  0
  184.1630  179.1480  139.6400 C   0  0  0  0  0  2  0  0  0  0  0  0
  182.7870  178.6640  140.0800 C   0  0  0  0  0  2  0  0  0  0  0  0
  180.9740  179.8330  136.9630 C   0  0  0  0  0  3  0  0  0  0  0  0
  181.8380  178.7170  138.9360 C   0  0  0  0  0  0  0  0  0  0  0  0
  180.0770  177.6840  137.6290 C   0  0  0  0  0  3  0  0  0  0  0  0
  181.8490  179.8060  138.0540 C   0  0  0  0  0  3  0  0  0  0  0  0
  180.9540  177.6550  138.7180 C   0  0  0  0  0  3  0  0  0  0  0  0
  180.0870  178.7730  136.7520 C   0  0  0  0  0  3  0  0  0  0  0  0
  1 45  1  6  0  0  0
  2  3  1  0  0  0  0
  4  1  1  6  0  0  0
  4  5  1  0  0  0  0
  4  7  1  0  0  0  0
  5  2  1  0  0  0  0
  6  3  1  0  0  0  0
  6  8  1  1  0  0  0
  7  6  1  0  0  0  0
  8 18  1  0  0  0  0
  8  9  1  1  0  0  0
 10 12  1  0  0  0  0
 10 18  1  0  0  0  0
 11 22  1  0  0  0  0
 11 23  1  1  0  0  0
 12 19  2  0  0  0  0
 13 15  2  0  0  0  0
 14 13  1  0  0  0  0
 15 12  1  0  0  0  0
 15 17  1  0  0  0  0
 17 11  1  0  0  0  0
 18 16  1  0  0  0  0
 19 16  1  0  0  0  0
 19 22  1  0  0  0  0
 20 10  2  0  0  0  0
 21 14  2  0  0  0  0
 21 20  1  0  0  0  0
 24 33  1  6  0  0  0
 24  1  1  0  0  0  0
 25 27  1  0  0  0  0
 26 28  1  0  0  0  0
 26 25  1  0  0  0  0
 26 27  1  0  0  0  0
 27 24  1  1  0  0  0
 29 26  1  0  0  0  0
 30 25  1  0  0  0  0
 31 32  3  0  0  0  0
 32 30  1  0  0  0  0
 33 34  1  0  0  0  0
 35 36  1  0  0  0  0
 35 34  1  0  0  0  0
 37 38  1  0  0  0  0
 37 36  1  0  0  0  0
 39 38  1  0  0  0  0
 39 40  1  0  0  0  0
 41 42  1  0  0  0  0
 42 40  1  0  0  0  0
 42 44  2  0  0  0  0
 43 42  2  0  0  0  0
 45 46  1  0  0  0  0
 47 50  1  0  0  0  0
 48 46  1  0  0  0  0
 49 51  2  0  0  0  0
 50 48  2  0  0  0  0
 51 48  1  0  0  0  0
 52 47  2  0  0  0  0
 52 49  1  0  0  0  0
M  END
>  <MODEL>
7

>  <REMARK>
 VINA RESULT:      -7.3      2.941      7.701
  Name = 
  19 active torsions:
  status: ('A' for Active; 'I' for Inactive)
    1  A    between atoms: C_2  and  N_14
    2  A    between atoms: C_2  and  C_25
    3  A    between atoms: C_3  and  C_15
    4  A    between atoms: C_3  and  C_35
    5  A    between atoms: C_5  and  N_23
    6  A    between atoms: C_5  and  C_32
    7  A    between atoms: C_15  and  C_28
    8  A    between atoms: C_15  and  C_30
    9  A    between atoms: S_16  and  N_49
   10  A    between atoms: N_20  and  C_24
   11  A    between atoms: N_20  and  C_48
   12  A    between atoms: C_21  and  C_33
   13  A    between atoms: C_21  and  O_42
   14  A    between atoms: C_22  and  C_30
   15  A    between atoms: C_24  and  C_41
   16  A    between atoms: C_26  and  C_35
   17  A    between atoms: C_30  and  O_42
   18  A    between atoms: C_33  and  C_48
   19  A    between atoms: C_41  and  N_49
                            x       y       z     vdW  Elec       q    Type
                         _______ _______ _______ _____ _____    ______ ____

>  <TORSDO>
F 19

$$$$
=
 OpenBabel10232409243D

 52 57  0  0  1  0  0  0  0  0999 V2000
  189.0950  175.7090  137.6580 C   0  0  2  0  0  3  0  0  0  0  0  0
  187.7960  177.3300  135.1200 C   0  0  0  0  0  2  0  0  0  0  0  0
  186.3050  177.6590  135.2150 C   0  0  0  0  0  2  0  0  0  0  0  0
  188.0780  176.8210  137.3700 C   0  0  1  0  0  3  0  0  0  0  0  0
  188.4640  177.6870  136.3080 O   0  0  0  0  0  0  0  0  0  0  0  0
  185.7440  177.3110  136.5990 C   0  0  2  0  0  3  0  0  0  0  0  0
  186.6270  176.3040  137.3300 C   0  0  0  0  0  2  0  0  0  0  0  0
  184.2870  176.8430  136.5440 C   0  0  2  0  0  3  0  0  0  0  0  0
  183.5970  177.2720  135.2530 C   0  0  0  0  0  1  0  0  0  0  0  0
  182.4490  178.2220  137.7330 C   0  0  0  0  0  0  0  0  0  0  0  0
  182.0160  178.6060  141.9630 C   0  0  1  0  0  3  0  0  0  0  0  0
  182.2390  178.6060  139.1120 C   0  0  0  0  0  0  0  0  0  0  0  0
  180.3940  180.2020  139.0640 N   0  0  0  0  0  0  0  0  0  0  0  0
  180.1360  180.3020  137.6510 C   0  0  0  0  0  3  0  0  0  0  0  0
  181.2580  179.4950  139.7280 C   0  0  0  0  0  0  0  0  0  0  0  0
  183.9880  177.2180  139.0140 O   0  0  0  0  0  0  0  0  0  0  0  0
  181.2860  179.5890  141.1580 N   0  0  0  0  0  2  0  0  0  0  0  0
  183.5470  177.3100  137.7150 N   0  0  0  0  0  0  0  0  0  0  0  0
  183.1710  177.9940  139.8280 C   0  0  0  0  0  0  0  0  0  0  0  0
  181.8200  178.6730  136.6570 C   0  0  0  0  0  3  0  0  0  0  0  0
  180.7310  179.6590  136.6420 C   0  0  0  0  0  3  0  0  0  0  0  0
  183.3480  178.2050  141.3060 C   0  0  0  0  0  2  0  0  0  0  0  0
  182.2680  179.1610  143.3470 C   0  0  0  0  0  1  0  0  0  0  0  0
  190.3480  176.2300  138.3810 C   0  0  1  0  0  3  0  0  0  0  0  0
  192.5040  175.1570  137.6700 N   0  0  0  0  0  0  0  0  0  0  0  0
  192.8590  176.5380  138.0700 C   0  0  0  0  0  0  0  0  0  0  0  0
  191.5670  176.2830  137.4270 C   0  0  2  0  0  3  0  0  0  0  0  0
  192.9310  176.6970  139.4570 O   0  0  0  0  0  1  0  0  0  0  0  0
  193.8590  177.1500  137.3070 O   0  0  0  0  0  1  0  0  0  0  0  0
  193.0600  174.8080  136.3700 C   0  0  0  0  0  2  0  0  0  0  0  0
  192.6110  172.2300  135.8470 C   0  0  0  0  0  3  0  0  0  0  0  0
  192.8040  173.3980  136.0840 C   0  0  0  0  0  0  0  0  0  0  0  0
  190.0940  177.4610  139.0060 O   0  0  0  0  0  0  0  0  0  0  0  0
  189.7600  177.1350  140.3220 C   0  0  0  0  0  2  0  0  0  0  0  0
  188.6550  178.0480  140.8070 C   0  0  0  0  0  2  0  0  0  0  0  0
  188.6380  178.0380  142.3200 C   0  0  0  0  0  2  0  0  0  0  0  0
  187.9350  176.8630  142.7920 N   0  0  0  0  0  2  0  0  0  0  0  0
  187.6860  177.0700  144.2070 C   0  0  0  0  0  2  0  0  0  0  0  0
  188.8180  177.8690  144.8220 C   0  0  0  0  0  2  0  0  0  0  0  0
  189.5340  177.0380  145.7730 N   0  0  0  0  0  2  0  0  0  0  0  0
  191.2790  175.8130  143.8490 C   0  0  0  0  0  1  0  0  0  0  0  0
  191.1770  176.9170  145.2410 S   0  0  0  0  0  0  0  0  0  0  0  0
  191.6570  178.2760  144.8240 O   0  0  0  0  0  0  0  0  0  0  0  0
  192.0460  176.4050  146.3550 O   0  0  0  0  0  0  0  0  0  0  0  0
  189.3900  174.8240  136.4400 C   0  0  0  0  0  2  0  0  0  0  0  0
  188.9320  173.3830  136.6200 C   0  0  0  0  0  2  0  0  0  0  0  0
  185.5920  173.4840  134.8320 C   0  0  0  0  0  3  0  0  0  0  0  0
  187.4740  173.2730  136.3460 C   0  0  0  0  0  0  0  0  0  0  0  0
  185.2490  172.6550  137.0810 C   0  0  0  0  0  3  0  0  0  0  0  0
  186.9600  173.6180  135.0900 C   0  0  0  0  0  3  0  0  0  0  0  0
  186.6170  172.7870  137.3390 C   0  0  0  0  0  3  0  0  0  0  0  0
  184.7360  173.0040  135.8280 C   0  0  0  0  0  3  0  0  0  0  0  0
  1 45  1  6  0  0  0
  1 24  1  0  0  0  0
  2  3  1  0  0  0  0
  2  5  1  0  0  0  0
  3  6  1  0  0  0  0
  4  1  1  6  0  0  0
  5  4  1  0  0  0  0
  6  8  1  6  0  0  0
  6  7  1  0  0  0  0
  7  4  1  0  0  0  0
  8  9  1  6  0  0  0
  8 18  1  0  0  0  0
 10 12  1  0  0  0  0
 11 23  1  1  0  0  0
 12 15  1  0  0  0  0
 12 19  2  0  0  0  0
 13 15  2  0  0  0  0
 14 13  1  0  0  0  0
 15 17  1  0  0  0  0
 16 19  1  0  0  0  0
 17 11  1  0  0  0  0
 18 10  1  0  0  0  0
 18 16  1  0  0  0  0
 19 22  1  0  0  0  0
 20 10  2  0  0  0  0
 21 20  1  0  0  0  0
 21 14  2  0  0  0  0
 22 11  1  0  0  0  0
 24 33  1  6  0  0  0
 25 26  1  0  0  0  0
 26 28  1  0  0  0  0
 27 25  1  0  0  0  0
 27 26  1  0  0  0  0
 27 24  1  1  0  0  0
 29 26  1  0  0  0  0
 30 25  1  0  0  0  0
 31 32  3  0  0  0  0
 32 30  1  0  0  0  0
 33 34  1  0  0  0  0
 34 35  1  0  0  0  0
 35 36  1  0  0  0  0
 36 37  1  0  0  0  0
 37 38  1  0  0  0  0
 38 39  1  0  0  0  0
 39 40  1  0  0  0  0
 41 42  1  0  0  0  0
 42 40  1  0  0  0  0
 42 44  2  0  0  0  0
 43 42  2  0  0  0  0
 45 46  1  0  0  0  0
 47 50  2  0  0  0  0
 47 52  1  0  0  0  0
 48 46  1  0  0  0  0
 48 51  2  0  0  0  0
 49 51  1  0  0  0  0
 50 48  1  0  0  0  0
 52 49  2  0  0  0  0
M  END
>  <MODEL>
8

>  <REMARK>
 VINA RESULT:      -7.2      2.602      6.364
  Name = 
  19 active torsions:
  status: ('A' for Active; 'I' for Inactive)
    1  A    between atoms: C_2  and  N_14
    2  A    between atoms: C_2  and  C_25
    3  A    between atoms: C_3  and  C_15
    4  A    between atoms: C_3  and  C_35
    5  A    between atoms: C_5  and  N_23
    6  A    between atoms: C_5  and  C_32
    7  A    between atoms: C_15  and  C_28
    8  A    between atoms: C_15  and  C_30
    9  A    between atoms: S_16  and  N_49
   10  A    between atoms: N_20  and  C_24
   11  A    between atoms: N_20  and  C_48
   12  A    between atoms: C_21  and  C_33
   13  A    between atoms: C_21  and  O_42
   14  A    between atoms: C_22  and  C_30
   15  A    between atoms: C_24  and  C_41
   16  A    between atoms: C_26  and  C_35
   17  A    between atoms: C_30  and  O_42
   18  A    between atoms: C_33  and  C_48
   19  A    between atoms: C_41  and  N_49
                            x       y       z     vdW  Elec       q    Type
                         _______ _______ _______ _____ _____    ______ ____

>  <TORSDO>
F 19

$$$$
=
 OpenBabel10232409243D

 52 57  0  0  1  0  0  0  0  0999 V2000
  182.4150  177.7740  140.1710 C   0  0  2  0  0  3  0  0  0  0  0  0
  181.4490  178.8140  143.1290 C   0  0  0  0  0  2  0  0  0  0  0  0
  182.5530  179.0340  144.1660 C   0  0  0  0  0  2  0  0  0  0  0  0
  182.8600  178.7320  141.2840 C   0  0  1  0  0  3  0  0  0  0  0  0
  181.7840  179.4270  141.9040 O   0  0  0  0  0  0  0  0  0  0  0  0
  183.9440  178.8890  143.5380 C   0  0  2  0  0  3  0  0  0  0  0  0
  183.8970  178.1010  142.2320 C   0  0  0  0  0  2  0  0  0  0  0  0
  184.9710  178.3030  144.5100 C   0  0  2  0  0  3  0  0  0  0  0  0
  185.2770  179.2550  145.6630 C   0  0  0  0  0  1  0  0  0  0  0  0
  187.4590  177.6010  144.3870 C   0  0  0  0  0  0  0  0  0  0  0  0
  189.7280  177.2200  140.7900 C   0  0  1  0  0  3  0  0  0  0  0  0
  188.4260  177.5790  143.3110 C   0  0  0  0  0  0  0  0  0  0  0  0
  190.5650  177.0810  144.3760 N   0  0  0  0  0  0  0  0  0  0  0  0
  190.1890  177.0260  145.7650 C   0  0  0  0  0  3  0  0  0  0  0  0
  189.8590  177.2970  143.3080 C   0  0  0  0  0  0  0  0  0  0  0  0
  186.4330  178.1350  142.4690 O   0  0  0  0  0  0  0  0  0  0  0  0
  190.5080  177.2860  142.0290 N   0  0  0  0  0  2  0  0  0  0  0  0
  186.1960  177.9230  143.8060 N   0  0  0  0  0  0  0  0  0  0  0  0
  187.7780  177.9040  142.2020 C   0  0  0  0  0  0  0  0  0  0  0  0
  187.6790  177.4420  145.6840 C   0  0  0  0  0  3  0  0  0  0  0  0
  188.9790  177.1740  146.3140 C   0  0  0  0  0  3  0  0  0  0  0  0
  188.4530  178.0770  140.8710 C   0  0  0  0  0  2  0  0  0  0  0  0
  190.5800  177.6680  139.6230 C   0  0  0  0  0  1  0  0  0  0  0  0
  182.5800  178.3820  138.7690 C   0  0  1  0  0  3  0  0  0  0  0  0
  181.7510  180.1780  137.2220 N   0  0  0  0  0  0  0  0  0  0  0  0
  181.9100  180.8300  138.5430 C   0  0  0  0  0  0  0  0  0  0  0  0
  181.4790  179.4310  138.4770 C   0  0  2  0  0  3  0  0  0  0  0  0
  183.2410  181.1390  138.8370 O   0  0  0  0  0  1  0  0  0  0  0  0
  180.9480  181.7950  138.8590 O   0  0  0  0  0  1  0  0  0  0  0  0
  180.4500  180.4590  136.6310 C   0  0  0  0  0  2  0  0  0  0  0  0
  180.6710  182.5110  134.9380 C   0  0  0  0  0  3  0  0  0  0  0  0
  180.5630  181.5790  135.6980 C   0  0  0  0  0  0  0  0  0  0  0  0
  183.8760  178.8900  138.5900 O   0  0  0  0  0  0  0  0  0  0  0  0
  184.6310  177.8030  138.1460 C   0  0  0  0  0  2  0  0  0  0  0  0
  186.1040  178.0970  138.3330 C   0  0  0  0  0  2  0  0  0  0  0  0
  186.8040  177.9730  136.9960 C   0  0  0  0  0  2  0  0  0  0  0  0
  187.7860  176.9100  137.0570 N   0  0  0  0  0  2  0  0  0  0  0  0
  188.3610  176.8020  135.7290 C   0  0  0  0  0  2  0  0  0  0  0  0
  189.2410  175.5710  135.6420 C   0  0  0  0  0  2  0  0  0  0  0  0
  190.6330  175.9620  135.7740 N   0  0  0  0  0  2  0  0  0  0  0  0
  192.8530  175.6090  137.5610 C   0  0  0  0  0  1  0  0  0  0  0  0
  191.3920  174.8620  136.8740 S   0  0  0  0  0  0  0  0  0  0  0  0
  190.4350  174.5460  137.9860 O   0  0  0  0  0  0  0  0  0  0  0  0
  191.7620  173.5910  136.1620 O   0  0  0  0  0  0  0  0  0  0  0  0
  181.0400  177.1420  140.4290 C   0  0  0  0  0  2  0  0  0  0  0  0
  180.9940  175.6540  140.1070 C   0  0  0  0  0  2  0  0  0  0  0  0
  180.0370  175.7910  136.4420 C   0  0  0  0  0  3  0  0  0  0  0  0
  181.0180  175.4500  138.6340 C   0  0  0  0  0  0  0  0  0  0  0  0
  182.1360  174.6020  136.6570 C   0  0  0  0  0  3  0  0  0  0  0  0
  179.9910  175.9610  137.8300 C   0  0  0  0  0  3  0  0  0  0  0  0
  182.0920  174.7750  138.0440 C   0  0  0  0  0  3  0  0  0  0  0  0
  181.1080  175.1100  135.8560 C   0  0  0  0  0  3  0  0  0  0  0  0
  1 45  1  1  0  0  0
  2  3  1  0  0  0  0
  4  1  1  1  0  0  0
  4  5  1  0  0  0  0
  4  7  1  0  0  0  0
  5  2  1  0  0  0  0
  6  3  1  0  0  0  0
  6  8  1  1  0  0  0
  7  6  1  0  0  0  0
  8  9  1  1  0  0  0
 10 20  2  0  0  0  0
 11 23  1  6  0  0  0
 11 22  1  0  0  0  0
 11 17  1  0  0  0  0
 12 10  1  0  0  0  0
 13 14  1  0  0  0  0
 14 21  2  0  0  0  0
 15 12  1  0  0  0  0
 15 13  2  0  0  0  0
 16 18  1  0  0  0  0
 17 15  1  0  0  0  0
 18 10  1  0  0  0  0
 18  8  1  0  0  0  0
 19 16  1  0  0  0  0
 19 12  2  0  0  0  0
 20 21  1  0  0  0  0
 22 19  1  0  0  0  0
 24 33  1  1  0  0  0
 24  1  1  0  0  0  0
 25 27  1  0  0  0  0
 25 26  1  0  0  0  0
 26 28  1  0  0  0  0
 26 29  1  0  0  0  0
 27 26  1  0  0  0  0
 27 24  1  1  0  0  0
 30 25  1  0  0  0  0
 31 32  3  0  0  0  0
 32 30  1  0  0  0  0
 34 35  1  0  0  0  0
 34 33  1  0  0  0  0
 36 37  1  0  0  0  0
 36 35  1  0  0  0  0
 38 37  1  0  0  0  0
 39 38  1  0  0  0  0
 39 40  1  0  0  0  0
 40 42  1  0  0  0  0
 42 41  1  0  0  0  0
 42 43  2  0  0  0  0
 44 42  2  0  0  0  0
 46 45  1  0  0  0  0
 47 50  1  0  0  0  0
 48 46  1  0  0  0  0
 49 51  2  0  0  0  0
 50 48  2  0  0  0  0
 51 48  1  0  0  0  0
 52 47  2  0  0  0  0
 52 49  1  0  0  0  0
M  END
>  <MODEL>
9

>  <REMARK>
 VINA RESULT:      -7.2      2.986      8.164
  Name = 
  19 active torsions:
  status: ('A' for Active; 'I' for Inactive)
    1  A    between atoms: C_2  and  N_14
    2  A    between atoms: C_2  and  C_25
    3  A    between atoms: C_3  and  C_15
    4  A    between atoms: C_3  and  C_35
    5  A    between atoms: C_5  and  N_23
    6  A    between atoms: C_5  and  C_32
    7  A    between atoms: C_15  and  C_28
    8  A    between atoms: C_15  and  C_30
    9  A    between atoms: S_16  and  N_49
   10  A    between atoms: N_20  and  C_24
   11  A    between atoms: N_20  and  C_48
   12  A    between atoms: C_21  and  C_33
   13  A    between atoms: C_21  and  O_42
   14  A    between atoms: C_22  and  C_30
   15  A    between atoms: C_24  and  C_41
   16  A    between atoms: C_26  and  C_35
   17  A    between atoms: C_30  and  O_42
   18  A    between atoms: C_33  and  C_48
   19  A    between atoms: C_41  and  N_49
                            x       y       z     vdW  Elec       q    Type
                         _______ _______ _______ _____ _____    ______ ____

>  <TORSDO>
F 19

$$$$
