=
 OpenBabel10232408073D

 38 41  0  0  1  0  0  0  0  0999 V2000
  189.6710  176.8100  136.4760 C   0  0  2  0  0  3  0  0  0  0  0  0
  190.4770  171.9080  135.3400 C   0  0  0  0  0  3  0  0  0  0  0  0
  188.9860  177.9760  137.2180 C   0  0  2  0  0  3  0  0  0  0  0  0
  192.7360  172.8140  135.1860 N   0  0  0  0  0  1  0  0  0  0  0  0
  191.7980  175.4190  136.1290 C   0  0  2  0  0  3  0  0  0  0  0  0
  189.1180  172.0570  135.6180 C   0  0  0  0  0  3  0  0  0  0  0  0
  189.4910  174.3730  136.2180 C   0  0  0  0  0  0  0  0  0  0  0  0
  188.9700  175.5900  136.6620 O   0  0  0  0  0  0  0  0  0  0  0  0
  190.6030  175.8760  139.0910 N   0  0  0  0  0  2  0  0  0  0  0  0
  188.6260  173.2860  136.0580 C   0  0  0  0  0  3  0  0  0  0  0  0
  190.8580  174.2450  135.9110 C   0  0  0  0  0  0  0  0  0  0  0  0
  191.5210  176.6890  138.2990 C   0  0  0  0  0  2  0  0  0  0  0  0
  191.1680  176.6430  136.8080 C   0  0  2  0  0  3  0  0  0  0  0  0
  189.2120  177.8710  139.6920 C   0  0  0  0  0  2  0  0  0  0  0  0
  191.3470  172.9930  135.4720 C   0  0  0  0  0  0  0  0  0  0  0  0
  190.0320  176.6690  140.1820 C   0  0  2  0  0  3  0  0  0  0  0  0
  188.3000  177.5400  138.5120 C   0  0  0  0  0  2  0  0  0  0  0  0
  192.4890  175.8470  134.8480 C   0  0  0  0  0  1  0  0  0  0  0  0
  187.0390  179.4090  137.0920 O   0  0  0  0  0  1  0  0  0  0  0  0
  188.0050  178.7470  136.3310 C   0  0  2  0  0  3  0  0  0  0  0  0
  187.3210  177.7880  135.3740 C   0  0  0  0  0  2  0  0  0  0  0  0
  185.8510  177.6650  135.7180 C   0  0  0  0  0  2  0  0  0  0  0  0
  185.5870  176.2950  136.3330 C   0  0  0  0  0  2  0  0  0  0  0  0
  184.7090  176.4260  137.5640 C   0  0  0  0  0  2  0  0  0  0  0  0
  184.1270  177.7540  137.6060 N   0  0  0  0  0  2  0  0  0  0  0  0
  183.7580  178.0260  138.9830 C   0  0  0  0  0  2  0  0  0  0  0  0
  185.4550  179.1850  140.4530 N   0  0  0  0  0  1  0  0  0  0  0  0
  184.4450  179.2690  139.4550 C   0  0  0  0  0  0  0  0  0  0  0  0
  184.1270  180.3850  138.9700 O   0  0  0  0  0  0  0  0  0  0  0  0
  191.1120  177.1740  141.1350 C   0  0  0  0  0  2  0  0  0  0  0  0
  188.9110  177.5090  144.2160 C   0  0  0  0  0  3  0  0  0  0  0  0
  191.1190  176.7560  144.9070 C   0  0  0  0  0  0  0  0  0  0  0  0
  191.5490  176.8270  143.5740 C   0  0  0  0  0  3  0  0  0  0  0  0
  189.3420  177.5500  142.8860 C   0  0  0  0  0  3  0  0  0  0  0  0
  190.6630  177.2190  142.5650 C   0  0  0  0  0  0  0  0  0  0  0  0
  189.7970  177.1190  145.2240 C   0  0  0  0  0  3  0  0  0  0  0  0
  192.0000  176.2750  145.8820 O   0  0  0  0  0  0  0  0  0  0  0  0
  191.6740  176.2200  147.2610 C   0  0  0  0  0  1  0  0  0  0  0  0
  1  8  1  1  0  0  0
  1 13  1  0  0  0  0
  1  3  1  0  0  0  0
  2 15  2  0  0  0  0
  2  6  1  0  0  0  0
  3 20  1  6  0  0  0
  3 17  1  0  0  0  0
  4 15  1  0  0  0  0
  5 18  1  6  0  0  0
  5 13  1  0  0  0  0
  6 10  2  0  0  0  0
  7  8  1  0  0  0  0
  9 16  1  0  0  0  0
 10  7  1  0  0  0  0
 11  5  1  0  0  0  0
 11  7  2  0  0  0  0
 12  9  1  0  0  0  0
 13 12  1  1  0  0  0
 14 16  1  0  0  0  0
 15 11  1  0  0  0  0
 16 30  1  1  0  0  0
 17 14  1  0  0  0  0
 20 19  1  1  0  0  0
 21 22  1  0  0  0  0
 21 20  1  0  0  0  0
 22 23  1  0  0  0  0
 23 24  1  0  0  0  0
 24 25  1  0  0  0  0
 25 26  1  0  0  0  0
 26 28  1  0  0  0  0
 28 27  1  0  0  0  0
 29 28  2  0  0  0  0
 30 35  1  0  0  0  0
 31 36  1  0  0  0  0
 32 36  2  0  0  0  0
 32 37  1  0  0  0  0
 33 32  1  0  0  0  0
 34 31  2  0  0  0  0
 35 34  1  0  0  0  0
 35 33  2  0  0  0  0
 37 38  1  0  0  0  0
M  END
>  <MODEL>
1

>  <REMARK>
 VINA RESULT:      -6.8      0.000      0.000
  Name = 
  11 active torsions:
  status: ('A' for Active; 'I' for Inactive)
    1  A    between atoms: C_3  and  C_20
    2  A    between atoms: C_4  and  C_20
    3  A    between atoms: C_4  and  C_30
    4  A    between atoms: O_5  and  C_7
    5  A    between atoms: C_11  and  N_23
    6  A    between atoms: C_11  and  C_25
    7  A    between atoms: N_23  and  C_34
    8  A    between atoms: C_25  and  C_30
    9  A    between atoms: C_26  and  C_35
   10  A    between atoms: C_29  and  C_35
   11  A    between atoms: C_34  and  C_36
                            x       y       z     vdW  Elec       q    Type
                         _______ _______ _______ _____ _____    ______ ____

>  <TORSDO>
F 11

$$$$
=
 OpenBabel10232408073D

 38 41  0  0  1  0  0  0  0  0999 V2000
  189.8660  176.8270  136.4090 C   0  0  2  0  0  3  0  0  0  0  0  0
  190.6980  171.9480  135.1950 C   0  0  0  0  0  3  0  0  0  0  0  0
  189.1650  177.9780  137.1590 C   0  0  2  0  0  3  0  0  0  0  0  0
  192.9590  172.8570  135.1100 N   0  0  0  0  0  1  0  0  0  0  0  0
  192.0010  175.4430  136.0820 C   0  0  2  0  0  3  0  0  0  0  0  0
  189.3340  172.0930  135.4460 C   0  0  0  0  0  3  0  0  0  0  0  0
  189.6920  174.3960  136.1000 C   0  0  0  0  0  0  0  0  0  0  0  0
  189.1610  175.6040  136.5560 O   0  0  0  0  0  0  0  0  0  0  0  0
  190.7400  175.8420  139.0250 N   0  0  0  0  0  2  0  0  0  0  0  0
  188.8310  173.3130  135.8990 C   0  0  0  0  0  3  0  0  0  0  0  0
  191.0660  174.2740  135.8210 C   0  0  0  0  0  0  0  0  0  0  0  0
  191.6750  176.6700  138.2710 C   0  0  0  0  0  2  0  0  0  0  0  0
  191.3550  176.6540  136.7710 C   0  0  2  0  0  3  0  0  0  0  0  0
  189.3360  177.8260  139.6340 C   0  0  0  0  0  2  0  0  0  0  0  0
  191.5650  173.0300  135.3680 C   0  0  0  0  0  0  0  0  0  0  0  0
  190.1450  176.6140  140.1190 C   0  0  2  0  0  3  0  0  0  0  0  0
  188.4500  177.5180  138.4280 C   0  0  0  0  0  2  0  0  0  0  0  0
  192.7200  175.8960  134.8260 C   0  0  0  0  0  1  0  0  0  0  0  0
  187.2350  179.4340  137.0190 O   0  0  0  0  0  1  0  0  0  0  0  0
  188.2030  178.7670  136.2650 C   0  0  2  0  0  3  0  0  0  0  0  0
  187.5210  177.8230  135.2920 C   0  0  0  0  0  2  0  0  0  0  0  0
  186.0450  177.7160  135.6150 C   0  0  0  0  0  2  0  0  0  0  0  0
  185.7370  176.3090  136.1180 C   0  0  0  0  0  2  0  0  0  0  0  0
  184.8720  176.3680  137.3640 C   0  0  0  0  0  2  0  0  0  0  0  0
  184.2560  177.6770  137.4660 N   0  0  0  0  0  2  0  0  0  0  0  0
  183.9050  177.8880  138.8590 C   0  0  0  0  0  2  0  0  0  0  0  0
  185.7130  178.8990  140.3050 N   0  0  0  0  0  1  0  0  0  0  0  0
  184.6390  179.0790  139.3900 C   0  0  0  0  0  0  0  0  0  0  0  0
  184.3030  180.2360  139.0300 O   0  0  0  0  0  0  0  0  0  0  0  0
  191.2030  177.0990  141.1060 C   0  0  0  0  0  2  0  0  0  0  0  0
  191.0480  177.7430  144.8490 C   0  0  0  0  0  3  0  0  0  0  0  0
  188.8510  177.0330  144.0830 C   0  0  0  0  0  0  0  0  0  0  0  0
  189.3650  176.8740  142.7880 C   0  0  0  0  0  3  0  0  0  0  0  0
  191.5450  177.6070  143.5480 C   0  0  0  0  0  3  0  0  0  0  0  0
  190.7070  177.1640  142.5190 C   0  0  0  0  0  0  0  0  0  0  0  0
  189.7090  177.4520  145.1170 C   0  0  0  0  0  3  0  0  0  0  0  0
  187.4860  176.8230  144.3040 O   0  0  0  0  0  0  0  0  0  0  0  0
  186.7780  177.4040  145.3870 C   0  0  0  0  0  1  0  0  0  0  0  0
  1  8  1  1  0  0  0
  1 13  1  0  0  0  0
  1  3  1  0  0  0  0
  2 15  2  0  0  0  0
  2  6  1  0  0  0  0
  3 20  1  6  0  0  0
  3 17  1  0  0  0  0
  4 15  1  0  0  0  0
  5 18  1  6  0  0  0
  5 13  1  0  0  0  0
  6 10  2  0  0  0  0
  7  8  1  0  0  0  0
  9 16  1  0  0  0  0
 10  7  1  0  0  0  0
 11  5  1  0  0  0  0
 11  7  2  0  0  0  0
 12  9  1  0  0  0  0
 13 12  1  1  0  0  0
 14 16  1  0  0  0  0
 15 11  1  0  0  0  0
 16 30  1  1  0  0  0
 17 14  1  0  0  0  0
 20 19  1  1  0  0  0
 21 22  1  0  0  0  0
 21 20  1  0  0  0  0
 22 23  1  0  0  0  0
 23 24  1  0  0  0  0
 24 25  1  0  0  0  0
 25 26  1  0  0  0  0
 26 28  1  0  0  0  0
 28 27  1  0  0  0  0
 29 28  2  0  0  0  0
 30 35  1  0  0  0  0
 31 36  1  0  0  0  0
 32 37  1  0  0  0  0
 32 36  2  0  0  0  0
 33 32  1  0  0  0  0
 34 31  2  0  0  0  0
 35 33  2  0  0  0  0
 35 34  1  0  0  0  0
 37 38  1  0  0  0  0
M  END
>  <MODEL>
2

>  <REMARK>
 VINA RESULT:      -6.8      0.969      1.408
  Name = 
  11 active torsions:
  status: ('A' for Active; 'I' for Inactive)
    1  A    between atoms: C_3  and  C_20
    2  A    between atoms: C_4  and  C_20
    3  A    between atoms: C_4  and  C_30
    4  A    between atoms: O_5  and  C_7
    5  A    between atoms: C_11  and  N_23
    6  A    between atoms: C_11  and  C_25
    7  A    between atoms: N_23  and  C_34
    8  A    between atoms: C_25  and  C_30
    9  A    between atoms: C_26  and  C_35
   10  A    between atoms: C_29  and  C_35
   11  A    between atoms: C_34  and  C_36
                            x       y       z     vdW  Elec       q    Type
                         _______ _______ _______ _____ _____    ______ ____

>  <TORSDO>
F 11

$$$$
=
 OpenBabel10232408073D

 38 41  0  0  1  0  0  0  0  0999 V2000
  186.8410  177.9530  137.9260 C   0  0  2  0  0  3  0  0  0  0  0  0
  188.8220  173.7150  135.9050 C   0  0  0  0  0  3  0  0  0  0  0  0
  186.0550  178.7620  138.9790 C   0  0  2  0  0  3  0  0  0  0  0  0
  190.5340  175.3600  135.3480 N   0  0  0  0  0  1  0  0  0  0  0  0
  189.1150  177.4150  136.8700 C   0  0  2  0  0  3  0  0  0  0  0  0
  187.6210  173.3660  136.5220 C   0  0  0  0  0  3  0  0  0  0  0  0
  187.3850  175.6260  137.3560 C   0  0  0  0  0  0  0  0  0  0  0  0
  186.6480  176.5570  138.0910 O   0  0  0  0  0  0  0  0  0  0  0  0
  188.7120  177.2500  140.0670 N   0  0  0  0  0  2  0  0  0  0  0  0
  186.9050  174.3180  137.2480 C   0  0  0  0  0  3  0  0  0  0  0  0
  188.5780  176.0010  136.7120 C   0  0  0  0  0  0  0  0  0  0  0  0
  189.0630  178.3780  139.2090 C   0  0  0  0  0  2  0  0  0  0  0  0
  188.3420  178.3000  137.8570 C   0  0  2  0  0  3  0  0  0  0  0  0
  186.9830  178.5970  141.2800 C   0  0  0  0  0  2  0  0  0  0  0  0
  189.2990  175.0260  135.9840 C   0  0  0  0  0  0  0  0  0  0  0  0
  188.2460  177.7290  141.3710 C   0  0  2  0  0  3  0  0  0  0  0  0
  185.9330  178.0390  140.3200 C   0  0  0  0  0  2  0  0  0  0  0  0
  189.2470  178.1310  135.5400 C   0  0  0  0  0  1  0  0  0  0  0  0
  184.2690  180.3940  139.0710 O   0  0  0  0  0  1  0  0  0  0  0  0
  184.6720  179.1930  138.4820 C   0  0  2  0  0  3  0  0  0  0  0  0
  183.6560  178.1110  138.7980 C   0  0  0  0  0  2  0  0  0  0  0  0
  182.3880  178.7300  139.3500 C   0  0  0  0  0  2  0  0  0  0  0  0
  181.9260  177.9370  140.5670 C   0  0  0  0  0  2  0  0  0  0  0  0
  181.8650  178.8310  141.7920 C   0  0  0  0  0  2  0  0  0  0  0  0
  183.1390  178.7950  142.4830 N   0  0  0  0  0  2  0  0  0  0  0  0
  182.8650  178.8260  143.9080 C   0  0  0  0  0  2  0  0  0  0  0  0
  184.2300  179.0700  146.0200 N   0  0  0  0  0  1  0  0  0  0  0  0
  184.1350  178.6220  144.6730 C   0  0  0  0  0  0  0  0  0  0  0  0
  185.1150  178.0580  144.1230 O   0  0  0  0  0  0  0  0  0  0  0  0
  189.3290  178.5210  142.0990 C   0  0  0  0  0  2  0  0  0  0  0  0
  191.4940  176.8640  144.7480 C   0  0  0  0  0  3  0  0  0  0  0  0
  189.3210  177.3730  145.7160 C   0  0  0  0  0  0  0  0  0  0  0  0
  188.8960  177.8690  144.4750 C   0  0  0  0  0  3  0  0  0  0  0  0
  191.0690  177.3850  143.5210 C   0  0  0  0  0  3  0  0  0  0  0  0
  189.7670  177.8800  143.3810 C   0  0  0  0  0  0  0  0  0  0  0  0
  190.6230  176.8520  145.8390 C   0  0  0  0  0  3  0  0  0  0  0  0
  188.4590  177.4570  146.8150 O   0  0  0  0  0  0  0  0  0  0  0  0
  188.8450  178.0100  148.0620 C   0  0  0  0  0  1  0  0  0  0  0  0
  1  8  1  1  0  0  0
  1  3  1  0  0  0  0
  2 15  2  0  0  0  0
  2  6  1  0  0  0  0
  3 20  1  6  0  0  0
  3 17  1  0  0  0  0
  4 15  1  0  0  0  0
  5 18  1  6  0  0  0
  5 13  1  0  0  0  0
  6 10  2  0  0  0  0
  7  8  1  0  0  0  0
  9 16  1  0  0  0  0
 10  7  1  0  0  0  0
 11  5  1  0  0  0  0
 11  7  2  0  0  0  0
 12  9  1  0  0  0  0
 13  1  1  0  0  0  0
 13 12  1  1  0  0  0
 14 16  1  0  0  0  0
 15 11  1  0  0  0  0
 16 30  1  6  0  0  0
 17 14  1  0  0  0  0
 20 21  1  0  0  0  0
 20 19  1  1  0  0  0
 21 22  1  0  0  0  0
 22 23  1  0  0  0  0
 23 24  1  0  0  0  0
 24 25  1  0  0  0  0
 25 26  1  0  0  0  0
 26 28  1  0  0  0  0
 28 27  1  0  0  0  0
 29 28  2  0  0  0  0
 30 35  1  0  0  0  0
 31 36  1  0  0  0  0
 32 36  2  0  0  0  0
 32 37  1  0  0  0  0
 33 32  1  0  0  0  0
 34 31  2  0  0  0  0
 35 34  1  0  0  0  0
 35 33  2  0  0  0  0
 37 38  1  0  0  0  0
M  END
>  <MODEL>
3

>  <REMARK>
 VINA RESULT:      -6.8      2.508      3.677
  Name = 
  11 active torsions:
  status: ('A' for Active; 'I' for Inactive)
    1  A    between atoms: C_3  and  C_20
    2  A    between atoms: C_4  and  C_20
    3  A    between atoms: C_4  and  C_30
    4  A    between atoms: O_5  and  C_7
    5  A    between atoms: C_11  and  N_23
    6  A    between atoms: C_11  and  C_25
    7  A    between atoms: N_23  and  C_34
    8  A    between atoms: C_25  and  C_30
    9  A    between atoms: C_26  and  C_35
   10  A    between atoms: C_29  and  C_35
   11  A    between atoms: C_34  and  C_36
                            x       y       z     vdW  Elec       q    Type
                         _______ _______ _______ _____ _____    ______ ____

>  <TORSDO>
F 11

$$$$
=
 OpenBabel10232408073D

 38 41  0  0  1  0  0  0  0  0999 V2000
  189.6990  176.9860  136.9070 C   0  0  2  0  0  3  0  0  0  0  0  0
  190.5080  172.1270  135.6020 C   0  0  0  0  0  3  0  0  0  0  0  0
  189.0020  178.1260  137.6780 C   0  0  2  0  0  3  0  0  0  0  0  0
  192.7740  173.0260  135.5370 N   0  0  0  0  0  1  0  0  0  0  0  0
  191.8270  175.5980  136.5570 C   0  0  2  0  0  3  0  0  0  0  0  0
  189.1440  172.2740  135.8530 C   0  0  0  0  0  3  0  0  0  0  0  0
  189.5130  174.5620  136.5520 C   0  0  0  0  0  0  0  0  0  0  0  0
  188.9870  175.7640  137.0300 O   0  0  0  0  0  0  0  0  0  0  0  0
  190.5640  175.9470  139.5060 N   0  0  0  0  0  2  0  0  0  0  0  0
  188.6470  173.4870  136.3290 C   0  0  0  0  0  3  0  0  0  0  0  0
  190.8860  174.4380  136.2720 C   0  0  0  0  0  0  0  0  0  0  0  0
  191.5040  176.7840  138.7680 C   0  0  0  0  0  2  0  0  0  0  0  0
  191.1870  176.7980  137.2680 C   0  0  2  0  0  3  0  0  0  0  0  0
  189.1690  177.9250  140.1510 C   0  0  0  0  0  2  0  0  0  0  0  0
  191.3800  173.2010  135.7960 C   0  0  0  0  0  0  0  0  0  0  0  0
  189.9710  176.7010  140.6130 C   0  0  2  0  0  3  0  0  0  0  0  0
  188.2830  177.6450  138.9370 C   0  0  0  0  0  2  0  0  0  0  0  0
  192.5510  176.0710  135.3110 C   0  0  0  0  0  1  0  0  0  0  0  0
  186.7810  179.0410  137.3800 O   0  0  0  0  0  1  0  0  0  0  0  0
  188.0460  178.9370  136.7980 C   0  0  2  0  0  3  0  0  0  0  0  0
  187.9220  178.2770  135.4380 C   0  0  0  0  0  2  0  0  0  0  0  0
  186.4860  177.8660  135.1840 C   0  0  0  0  0  2  0  0  0  0  0  0
  186.4260  176.3650  134.9260 C   0  0  0  0  0  2  0  0  0  0  0  0
  185.1540  175.7770  135.5070 C   0  0  0  0  0  2  0  0  0  0  0  0
  185.4370  175.1910  136.8030 N   0  0  0  0  0  2  0  0  0  0  0  0
  184.2710  174.4220  137.2000 C   0  0  0  0  0  2  0  0  0  0  0  0
  183.8500  171.9310  137.1890 N   0  0  0  0  0  1  0  0  0  0  0  0
  184.6820  173.0260  137.5520 C   0  0  0  0  0  0  0  0  0  0  0  0
  185.7580  172.8250  138.1700 O   0  0  0  0  0  0  0  0  0  0  0  0
  191.0310  177.1610  141.6110 C   0  0  0  0  0  2  0  0  0  0  0  0
  188.6910  177.2200  144.6060 C   0  0  0  0  0  3  0  0  0  0  0  0
  190.9860  177.0930  145.4050 C   0  0  0  0  0  0  0  0  0  0  0  0
  191.4390  177.1490  144.0790 C   0  0  0  0  0  3  0  0  0  0  0  0
  189.1530  177.2480  143.2860 C   0  0  0  0  0  3  0  0  0  0  0  0
  190.5270  177.2210  143.0210 C   0  0  0  0  0  0  0  0  0  0  0  0
  189.6030  177.1480  145.6610 C   0  0  0  0  0  3  0  0  0  0  0  0
  191.9160  176.9300  146.4360 O   0  0  0  0  0  0  0  0  0  0  0  0
  192.1960  175.6760  147.0360 C   0  0  0  0  0  1  0  0  0  0  0  0
  1  8  1  1  0  0  0
  1 13  1  0  0  0  0
  1  3  1  0  0  0  0
  2 15  2  0  0  0  0
  2  6  1  0  0  0  0
  3 20  1  6  0  0  0
  3 17  1  0  0  0  0
  4 15  1  0  0  0  0
  5 18  1  6  0  0  0
  5 13  1  0  0  0  0
  6 10  2  0  0  0  0
  7  8  1  0  0  0  0
  9 16  1  0  0  0  0
 10  7  1  0  0  0  0
 11  7  2  0  0  0  0
 11  5  1  0  0  0  0
 12  9  1  0  0  0  0
 13 12  1  1  0  0  0
 14 16  1  0  0  0  0
 15 11  1  0  0  0  0
 16 30  1  1  0  0  0
 17 14  1  0  0  0  0
 20 19  1  1  0  0  0
 21 20  1  0  0  0  0
 22 21  1  0  0  0  0
 23 22  1  0  0  0  0
 23 24  1  0  0  0  0
 24 25  1  0  0  0  0
 25 26  1  0  0  0  0
 26 28  1  0  0  0  0
 27 28  1  0  0  0  0
 28 29  2  0  0  0  0
 30 35  1  0  0  0  0
 31 36  1  0  0  0  0
 32 36  2  0  0  0  0
 32 37  1  0  0  0  0
 33 32  1  0  0  0  0
 34 31  2  0  0  0  0
 35 34  1  0  0  0  0
 35 33  2  0  0  0  0
 37 38  1  0  0  0  0
M  END
>  <MODEL>
4

>  <REMARK>
 VINA RESULT:      -6.6      1.603      2.353
  Name = 
  11 active torsions:
  status: ('A' for Active; 'I' for Inactive)
    1  A    between atoms: C_3  and  C_20
    2  A    between atoms: C_4  and  C_20
    3  A    between atoms: C_4  and  C_30
    4  A    between atoms: O_5  and  C_7
    5  A    between atoms: C_11  and  N_23
    6  A    between atoms: C_11  and  C_25
    7  A    between atoms: N_23  and  C_34
    8  A    between atoms: C_25  and  C_30
    9  A    between atoms: C_26  and  C_35
   10  A    between atoms: C_29  and  C_35
   11  A    between atoms: C_34  and  C_36
                            x       y       z     vdW  Elec       q    Type
                         _______ _______ _______ _____ _____    ______ ____

>  <TORSDO>
F 11

$$$$
=
 OpenBabel10232408073D

 38 41  0  0  1  0  0  0  0  0999 V2000
  190.3570  177.2070  137.4890 C   0  0  2  0  0  3  0  0  0  0  0  0
  192.1220  172.5870  136.2580 C   0  0  0  0  0  3  0  0  0  0  0  0
  189.3250  178.1990  138.0640 C   0  0  2  0  0  3  0  0  0  0  0  0
  194.1720  173.7200  136.9350 N   0  0  0  0  0  1  0  0  0  0  0  0
  192.6500  176.0840  137.7400 C   0  0  2  0  0  3  0  0  0  0  0  0
  190.7380  172.5690  136.0860 C   0  0  0  0  0  3  0  0  0  0  0  0
  190.5920  174.8160  136.9750 C   0  0  0  0  0  0  0  0  0  0  0  0
  189.8010  175.9110  137.3270 O   0  0  0  0  0  0  0  0  0  0  0  0
  190.5300  176.0480  140.1730 N   0  0  0  0  0  2  0  0  0  0  0  0
  189.9740  173.6790  136.4460 C   0  0  0  0  0  3  0  0  0  0  0  0
  191.9900  174.8600  137.1240 C   0  0  0  0  0  0  0  0  0  0  0  0
  191.5350  177.0390  139.8010 C   0  0  0  0  0  2  0  0  0  0  0  0
  191.6810  177.1460  138.2780 C   0  0  2  0  0  3  0  0  0  0  0  0
  188.7700  177.8080  140.4550 C   0  0  0  0  0  2  0  0  0  0  0  0
  192.7540  173.7260  136.7630 C   0  0  0  0  0  0  0  0  0  0  0  0
  189.5430  176.6390  141.0810 C   0  0  2  0  0  3  0  0  0  0  0  0
  188.3290  177.5410  139.0160 C   0  0  0  0  0  2  0  0  0  0  0  0
  193.6470  176.7330  136.8010 C   0  0  0  0  0  1  0  0  0  0  0  0
  187.2540  179.2180  137.3330 O   0  0  0  0  0  1  0  0  0  0  0  0
  188.5820  178.9770  136.9730 C   0  0  2  0  0  3  0  0  0  0  0  0
  188.6170  178.1930  135.6740 C   0  0  0  0  0  2  0  0  0  0  0  0
  187.2080  177.9250  135.1870 C   0  0  0  0  0  2  0  0  0  0  0  0
  186.8420  176.4710  135.4660 C   0  0  0  0  0  2  0  0  0  0  0  0
  185.3560  176.3410  135.7400 C   0  0  0  0  0  2  0  0  0  0  0  0
  185.1400  175.3760  136.8010 N   0  0  0  0  0  2  0  0  0  0  0  0
  186.3820  174.6480  136.9900 C   0  0  0  0  0  2  0  0  0  0  0  0
  186.6360  172.2040  136.4050 N   0  0  0  0  0  1  0  0  0  0  0  0
  186.0880  173.2050  137.2540 C   0  0  0  0  0  0  0  0  0  0  0  0
  185.3560  172.8800  138.2230 O   0  0  0  0  0  0  0  0  0  0  0  0
  190.1900  177.1220  142.3760 C   0  0  0  0  0  2  0  0  0  0  0  0
  186.9390  177.2620  144.3400 C   0  0  0  0  0  3  0  0  0  0  0  0
  188.8030  177.3140  145.9030 C   0  0  0  0  0  0  0  0  0  0  0  0
  189.6960  177.3020  144.8220 C   0  0  0  0  0  3  0  0  0  0  0  0
  187.8390  177.2230  143.2700 C   0  0  0  0  0  3  0  0  0  0  0  0
  189.2170  177.2520  143.5080 C   0  0  0  0  0  0  0  0  0  0  0  0
  187.4180  177.3130  145.6510 C   0  0  0  0  0  3  0  0  0  0  0  0
  189.3100  177.2740  147.2060 O   0  0  0  0  0  0  0  0  0  0  0  0
  188.9300  178.1960  148.2140 C   0  0  0  0  0  1  0  0  0  0  0  0
  1  8  1  1  0  0  0
  1  3  1  0  0  0  0
  1 13  1  0  0  0  0
  2 15  1  0  0  0  0
  3 20  1  6  0  0  0
  3 17  1  0  0  0  0
  5 18  1  6  0  0  0
  5 13  1  0  0  0  0
  6  2  2  0  0  0  0
  6 10  1  0  0  0  0
  7 11  1  0  0  0  0
  7  8  1  0  0  0  0
  9 16  1  0  0  0  0
 10  7  2  0  0  0  0
 11  5  1  0  0  0  0
 12  9  1  0  0  0  0
 13 12  1  1  0  0  0
 14 16  1  0  0  0  0
 15  4  1  0  0  0  0
 15 11  2  0  0  0  0
 16 30  1  1  0  0  0
 17 14  1  0  0  0  0
 20 19  1  1  0  0  0
 21 20  1  0  0  0  0
 22 23  1  0  0  0  0
 22 21  1  0  0  0  0
 23 24  1  0  0  0  0
 24 25  1  0  0  0  0
 25 26  1  0  0  0  0
 26 28  1  0  0  0  0
 27 28  1  0  0  0  0
 28 29  2  0  0  0  0
 30 35  1  0  0  0  0
 31 36  1  0  0  0  0
 32 37  1  0  0  0  0
 33 32  1  0  0  0  0
 34 35  1  0  0  0  0
 34 31  2  0  0  0  0
 35 33  2  0  0  0  0
 36 32  2  0  0  0  0
 37 38  1  0  0  0  0
M  END
>  <MODEL>
5

>  <REMARK>
 VINA RESULT:      -6.5      2.001      2.848
  Name = 
  11 active torsions:
  status: ('A' for Active; 'I' for Inactive)
    1  A    between atoms: C_3  and  C_20
    2  A    between atoms: C_4  and  C_20
    3  A    between atoms: C_4  and  C_30
    4  A    between atoms: O_5  and  C_7
    5  A    between atoms: C_11  and  N_23
    6  A    between atoms: C_11  and  C_25
    7  A    between atoms: N_23  and  C_34
    8  A    between atoms: C_25  and  C_30
    9  A    between atoms: C_26  and  C_35
   10  A    between atoms: C_29  and  C_35
   11  A    between atoms: C_34  and  C_36
                            x       y       z     vdW  Elec       q    Type
                         _______ _______ _______ _____ _____    ______ ____

>  <TORSDO>
F 11

$$$$
=
 OpenBabel10232408073D

 38 41  0  0  1  0  0  0  0  0999 V2000
  191.2350  176.4780  137.6310 C   0  0  2  0  0  3  0  0  0  0  0  0
  188.5710  177.8040  141.7680 C   0  0  0  0  0  3  0  0  0  0  0  0
  192.1010  175.5330  136.7720 C   0  0  2  0  0  3  0  0  0  0  0  0
  187.2630  178.8530  139.9970 N   0  0  0  0  0  1  0  0  0  0  0  0
  188.9690  177.6350  137.9580 C   0  0  2  0  0  3  0  0  0  0  0  0
  189.6360  177.0080  142.1900 C   0  0  0  0  0  3  0  0  0  0  0  0
  190.2700  176.6240  139.8860 C   0  0  0  0  0  0  0  0  0  0  0  0
  191.1320  176.0180  138.9700 O   0  0  0  0  0  0  0  0  0  0  0  0
  189.1310  174.4450  137.4970 N   0  0  0  0  0  2  0  0  0  0  0  0
  190.4820  176.4170  141.2520 C   0  0  0  0  0  3  0  0  0  0  0  0
  189.2190  177.4500  139.4460 C   0  0  0  0  0  0  0  0  0  0  0  0
  189.0680  175.5430  136.5380 C   0  0  0  0  0  2  0  0  0  0  0  0
  189.8410  176.7700  137.0380 C   0  0  2  0  0  3  0  0  0  0  0  0
  191.0170  173.3540  136.2610 C   0  0  0  0  0  2  0  0  0  0  0  0
  188.3630  178.0380  140.4060 C   0  0  0  0  0  0  0  0  0  0  0  0
  189.6020  173.2220  136.8410 C   0  0  2  0  0  3  0  0  0  0  0  0
  191.9900  174.0700  137.1970 C   0  0  0  0  0  2  0  0  0  0  0  0
  189.0670  179.0880  137.5350 C   0  0  0  0  0  1  0  0  0  0  0  0
  193.8360  176.9860  137.6300 O   0  0  0  0  0  1  0  0  0  0  0  0
  193.5700  175.9610  136.7200 C   0  0  2  0  0  3  0  0  0  0  0  0
  193.9150  176.4290  135.3190 C   0  0  0  0  0  2  0  0  0  0  0  0
  195.4130  176.6110  135.1820 C   0  0  0  0  0  2  0  0  0  0  0  0
  196.1020  175.2560  135.3010 C   0  0  0  0  0  2  0  0  0  0  0  0
  197.5040  175.4200  135.8580 C   0  0  0  0  0  2  0  0  0  0  0  0
  197.4560  175.4050  137.3070 N   0  0  0  0  0  2  0  0  0  0  0  0
  197.2220  174.0330  137.7230 C   0  0  0  0  0  2  0  0  0  0  0  0
  196.1350  175.0400  139.7690 N   0  0  0  0  0  1  0  0  0  0  0  0
  196.1830  174.0000  138.7990 C   0  0  0  0  0  0  0  0  0  0  0  0
  195.3570  173.0530  138.8460 O   0  0  0  0  0  0  0  0  0  0  0  0
  188.6580  172.7830  135.7250 C   0  0  0  0  0  2  0  0  0  0  0  0
  185.4090  172.7890  137.6990 C   0  0  0  0  0  3  0  0  0  0  0  0
  185.0120  173.8190  135.5300 C   0  0  0  0  0  0  0  0  0  0  0  0
  186.3440  173.5620  135.1770 C   0  0  0  0  0  3  0  0  0  0  0  0
  186.7430  172.5630  137.3460 C   0  0  0  0  0  3  0  0  0  0  0  0
  187.2100  172.9400  136.0820 C   0  0  0  0  0  0  0  0  0  0  0  0
  184.5450  173.4090  136.7930 C   0  0  0  0  0  3  0  0  0  0  0  0
  184.1940  174.5220  134.6400 O   0  0  0  0  0  0  0  0  0  0  0  0
  183.5700  175.7520  134.9680 C   0  0  0  0  0  1  0  0  0  0  0  0
  1  8  1  1  0  0  0
  2  6  1  0  0  0  0
  3 20  1  1  0  0  0
  3 17  1  0  0  0  0
  3  1  1  0  0  0  0
  4 15  1  0  0  0  0
  5 18  1  6  0  0  0
  5 11  1  0  0  0  0
  7 10  1  0  0  0  0
  8  7  1  0  0  0  0
 10  6  2  0  0  0  0
 11  7  2  0  0  0  0
 11 15  1  0  0  0  0
 12  9  1  0  0  0  0
 13 12  1  1  0  0  0
 13  1  1  0  0  0  0
 13  5  1  0  0  0  0
 14 16  1  0  0  0  0
 14 17  1  0  0  0  0
 15  2  2  0  0  0  0
 16 30  1  6  0  0  0
 16  9  1  0  0  0  0
 20 19  1  1  0  0  0
 21 20  1  0  0  0  0
 22 23  1  0  0  0  0
 22 21  1  0  0  0  0
 23 24  1  0  0  0  0
 24 25  1  0  0  0  0
 25 26  1  0  0  0  0
 26 28  1  0  0  0  0
 28 29  2  0  0  0  0
 28 27  1  0  0  0  0
 30 35  1  0  0  0  0
 32 36  1  0  0  0  0
 33 32  2  0  0  0  0
 33 35  1  0  0  0  0
 34 31  1  0  0  0  0
 35 34  2  0  0  0  0
 36 31  2  0  0  0  0
 37 38  1  0  0  0  0
 37 32  1  0  0  0  0
M  END
>  <MODEL>
6

>  <REMARK>
 VINA RESULT:      -6.4      3.148      8.824
  Name = 
  11 active torsions:
  status: ('A' for Active; 'I' for Inactive)
    1  A    between atoms: C_3  and  C_20
    2  A    between atoms: C_4  and  C_20
    3  A    between atoms: C_4  and  C_30
    4  A    between atoms: O_5  and  C_7
    5  A    between atoms: C_11  and  N_23
    6  A    between atoms: C_11  and  C_25
    7  A    between atoms: N_23  and  C_34
    8  A    between atoms: C_25  and  C_30
    9  A    between atoms: C_26  and  C_35
   10  A    between atoms: C_29  and  C_35
   11  A    between atoms: C_34  and  C_36
                            x       y       z     vdW  Elec       q    Type
                         _______ _______ _______ _____ _____    ______ ____

>  <TORSDO>
F 11

$$$$
=
 OpenBabel10232408073D

 38 41  0  0  1  0  0  0  0  0999 V2000
  185.0900  178.5520  139.2680 C   0  0  2  0  0  3  0  0  0  0  0  0
  180.8470  181.0990  138.0510 C   0  0  0  0  0  3  0  0  0  0  0  0
  186.4710  178.3790  139.9340 C   0  0  2  0  0  3  0  0  0  0  0  0
  179.9820  178.8380  138.3480 N   0  0  0  0  0  1  0  0  0  0  0  0
  182.6080  177.9060  139.2370 C   0  0  2  0  0  3  0  0  0  0  0  0
  181.8940  182.0190  138.0890 C   0  0  0  0  0  3  0  0  0  0  0  0
  183.3980  180.2860  138.8610 C   0  0  0  0  0  0  0  0  0  0  0  0
  184.6800  179.9110  139.2650 O   0  0  0  0  0  0  0  0  0  0  0  0
  183.9980  178.9440  141.9570 N   0  0  0  0  0  2  0  0  0  0  0  0
  183.1660  181.6150  138.4950 C   0  0  0  0  0  3  0  0  0  0  0  0
  182.3580  179.3400  138.7970 C   0  0  0  0  0  0  0  0  0  0  0  0
  183.9120  177.6050  141.3840 C   0  0  0  0  0  2  0  0  0  0  0  0
  183.9890  177.6440  139.8530 C   0  0  2  0  0  3  0  0  0  0  0  0
  186.4520  178.6940  142.3990 C   0  0  0  0  0  2  0  0  0  0  0  0
  181.0710  179.7620  138.3900 C   0  0  0  0  0  0  0  0  0  0  0  0
  185.0580  178.9980  142.9680 C   0  0  2  0  0  3  0  0  0  0  0  0
  186.7220  179.3790  141.0600 C   0  0  0  0  0  2  0  0  0  0  0  0
  182.3500  176.9100  138.1230 C   0  0  0  0  0  1  0  0  0  0  0  0
  187.4040  177.5320  137.8660 O   0  0  0  0  0  1  0  0  0  0  0  0
  187.6230  178.4160  138.9250 C   0  0  2  0  0  3  0  0  0  0  0  0
  188.9220  178.0570  139.6210 C   0  0  0  0  0  2  0  0  0  0  0  0
  189.8550  177.3540  138.6570 C   0  0  0  0  0  2  0  0  0  0  0  0
  190.8840  176.5480  139.4420 C   0  0  0  0  0  2  0  0  0  0  0  0
  191.0550  177.1210  140.8370 C   0  0  0  0  0  2  0  0  0  0  0  0
  190.4190  176.2460  141.8030 N   0  0  0  0  0  2  0  0  0  0  0  0
  190.0930  177.0450  142.9690 C   0  0  0  0  0  2  0  0  0  0  0  0
  191.8730  175.7840  144.2430 N   0  0  0  0  0  1  0  0  0  0  0  0
  191.2330  177.0170  143.9380 C   0  0  0  0  0  0  0  0  0  0  0  0
  191.6220  178.0820  144.4820 O   0  0  0  0  0  0  0  0  0  0  0  0
  184.7840  178.0380  144.1220 C   0  0  0  0  0  2  0  0  0  0  0  0
  186.1780  179.1690  147.4730 C   0  0  0  0  0  3  0  0  0  0  0  0
  187.7310  177.5890  146.4690 C   0  0  0  0  0  0  0  0  0  0  0  0
  186.9020  177.5060  145.3420 C   0  0  0  0  0  3  0  0  0  0  0  0
  185.3440  179.0580  146.3550 C   0  0  0  0  0  3  0  0  0  0  0  0
  185.7090  178.2340  145.2850 C   0  0  0  0  0  0  0  0  0  0  0  0
  187.3690  178.4420  147.5280 C   0  0  0  0  0  3  0  0  0  0  0  0
  188.8720  176.7810  146.5370 O   0  0  0  0  0  0  0  0  0  0  0  0
  189.9710  177.0640  147.3870 C   0  0  0  0  0  1  0  0  0  0  0  0
  1  8  1  1  0  0  0
  1 13  1  0  0  0  0
  1  3  1  0  0  0  0
  2  6  2  0  0  0  0
  2 15  1  0  0  0  0
  3 20  1  6  0  0  0
  3 17  1  0  0  0  0
  4 15  1  0  0  0  0
  5 18  1  6  0  0  0
  5 13  1  0  0  0  0
  6 10  1  0  0  0  0
  7  8  1  0  0  0  0
  9 16  1  0  0  0  0
 10  7  2  0  0  0  0
 11  7  1  0  0  0  0
 11  5  1  0  0  0  0
 12  9  1  0  0  0  0
 13 12  1  1  0  0  0
 14 16  1  0  0  0  0
 15 11  2  0  0  0  0
 16 30  1  1  0  0  0
 17 14  1  0  0  0  0
 20 19  1  6  0  0  0
 20 21  1  0  0  0  0
 22 23  1  0  0  0  0
 22 21  1  0  0  0  0
 23 24  1  0  0  0  0
 24 25  1  0  0  0  0
 25 26  1  0  0  0  0
 26 28  1  0  0  0  0
 28 27  1  0  0  0  0
 28 29  2  0  0  0  0
 30 35  1  0  0  0  0
 31 36  1  0  0  0  0
 32 37  1  0  0  0  0
 32 36  2  0  0  0  0
 33 32  1  0  0  0  0
 34 31  2  0  0  0  0
 35 33  2  0  0  0  0
 35 34  1  0  0  0  0
 37 38  1  0  0  0  0
M  END
>  <MODEL>
7

>  <REMARK>
 VINA RESULT:      -6.4      3.231      7.706
  Name = 
  11 active torsions:
  status: ('A' for Active; 'I' for Inactive)
    1  A    between atoms: C_3  and  C_20
    2  A    between atoms: C_4  and  C_20
    3  A    between atoms: C_4  and  C_30
    4  A    between atoms: O_5  and  C_7
    5  A    between atoms: C_11  and  N_23
    6  A    between atoms: C_11  and  C_25
    7  A    between atoms: N_23  and  C_34
    8  A    between atoms: C_25  and  C_30
    9  A    between atoms: C_26  and  C_35
   10  A    between atoms: C_29  and  C_35
   11  A    between atoms: C_34  and  C_36
                            x       y       z     vdW  Elec       q    Type
                         _______ _______ _______ _____ _____    ______ ____

>  <TORSDO>
F 11

$$$$
=
 OpenBabel10232408073D

 38 41  0  0  1  0  0  0  0  0999 V2000
  189.4730  176.7410  136.6620 C   0  0  2  0  0  3  0  0  0  0  0  0
  190.9260  172.0450  135.3180 C   0  0  0  0  0  3  0  0  0  0  0  0
  188.6610  177.7720  137.4720 C   0  0  2  0  0  3  0  0  0  0  0  0
  193.0230  173.2740  135.1120 N   0  0  0  0  0  1  0  0  0  0  0  0
  191.7620  175.6850  136.1840 C   0  0  2  0  0  3  0  0  0  0  0  0
  189.5730  171.9880  135.6520 C   0  0  0  0  0  3  0  0  0  0  0  0
  189.6340  174.3130  136.3230 C   0  0  0  0  0  0  0  0  0  0  0  0
  188.9630  175.4270  136.8300 O   0  0  0  0  0  0  0  0  0  0  0  0
  190.6410  175.8720  139.2040 N   0  0  0  0  0  2  0  0  0  0  0  0
  188.9290  173.1180  136.1550 C   0  0  0  0  0  3  0  0  0  0  0  0
  190.9910  174.3940  135.9590 C   0  0  0  0  0  0  0  0  0  0  0  0
  191.3980  176.8340  138.4090 C   0  0  0  0  0  2  0  0  0  0  0  0
  190.9920  176.7830  136.9310 C   0  0  2  0  0  3  0  0  0  0  0  0
  189.0050  177.6260  139.9300 C   0  0  0  0  0  2  0  0  0  0  0  0
  191.6360  173.2400  135.4560 C   0  0  0  0  0  0  0  0  0  0  0  0
  190.0090  176.5410  140.3450 C   0  0  2  0  0  3  0  0  0  0  0  0
  188.1000  177.2020  138.7740 C   0  0  0  0  0  2  0  0  0  0  0  0
  192.3290  176.2480  134.8950 C   0  0  0  0  0  1  0  0  0  0  0  0
  187.5320  179.8080  136.8060 O   0  0  0  0  0  1  0  0  0  0  0  0
  187.5420  178.4200  136.6510 C   0  0  2  0  0  3  0  0  0  0  0  0
  186.2010  177.8550  137.0820 C   0  0  0  0  0  2  0  0  0  0  0  0
  185.3950  178.9160  137.8030 C   0  0  0  0  0  2  0  0  0  0  0  0
  184.2570  178.2530  138.5710 C   0  0  0  0  0  2  0  0  0  0  0  0
  183.7170  179.1910  139.6350 C   0  0  0  0  0  2  0  0  0  0  0  0
  184.5740  179.1460  140.8030 N   0  0  0  0  0  2  0  0  0  0  0  0
  183.8470  178.4560  141.8540 C   0  0  0  0  0  2  0  0  0  0  0  0
  183.8830  179.6590  144.0750 N   0  0  0  0  0  1  0  0  0  0  0  0
  184.4850  178.7340  143.1780 C   0  0  0  0  0  0  0  0  0  0  0  0
  185.5540  178.1510  143.4940 O   0  0  0  0  0  0  0  0  0  0  0  0
  191.0450  177.1670  141.2740 C   0  0  0  0  0  2  0  0  0  0  0  0
  188.8090  177.2900  144.3460 C   0  0  0  0  0  3  0  0  0  0  0  0
  191.1240  177.0950  145.0670 C   0  0  0  0  0  0  0  0  0  0  0  0
  191.5350  177.1390  143.7270 C   0  0  0  0  0  3  0  0  0  0  0  0
  189.2270  177.3060  143.0110 C   0  0  0  0  0  3  0  0  0  0  0  0
  190.5900  177.2400  142.7000 C   0  0  0  0  0  0  0  0  0  0  0  0
  189.7530  177.1910  145.3700 C   0  0  0  0  0  3  0  0  0  0  0  0
  192.0830  176.9030  146.0680 O   0  0  0  0  0  0  0  0  0  0  0  0
  192.0370  175.8250  146.9880 C   0  0  0  0  0  1  0  0  0  0  0  0
  1  8  1  1  0  0  0
  1 13  1  0  0  0  0
  1  3  1  0  0  0  0
  2 15  2  0  0  0  0
  2  6  1  0  0  0  0
  3 20  1  6  0  0  0
  3 17  1  0  0  0  0
  4 15  1  0  0  0  0
  5 18  1  6  0  0  0
  5 13  1  0  0  0  0
  6 10  2  0  0  0  0
  7  8  1  0  0  0  0
  9 16  1  0  0  0  0
 10  7  1  0  0  0  0
 11  5  1  0  0  0  0
 11  7  2  0  0  0  0
 12  9  1  0  0  0  0
 13 12  1  1  0  0  0
 14 16  1  0  0  0  0
 15 11  1  0  0  0  0
 16 30  1  1  0  0  0
 17 14  1  0  0  0  0
 20 19  1  1  0  0  0
 20 21  1  0  0  0  0
 21 22  1  0  0  0  0
 22 23  1  0  0  0  0
 23 24  1  0  0  0  0
 24 25  1  0  0  0  0
 25 26  1  0  0  0  0
 26 28  1  0  0  0  0
 28 29  2  0  0  0  0
 28 27  1  0  0  0  0
 30 35  1  0  0  0  0
 31 36  1  0  0  0  0
 32 36  2  0  0  0  0
 32 37  1  0  0  0  0
 33 32  1  0  0  0  0
 34 31  2  0  0  0  0
 35 34  1  0  0  0  0
 35 33  2  0  0  0  0
 37 38  1  0  0  0  0
M  END
>  <MODEL>
8

>  <REMARK>
 VINA RESULT:      -6.2      1.418      1.751
  Name = 
  11 active torsions:
  status: ('A' for Active; 'I' for Inactive)
    1  A    between atoms: C_3  and  C_20
    2  A    between atoms: C_4  and  C_20
    3  A    between atoms: C_4  and  C_30
    4  A    between atoms: O_5  and  C_7
    5  A    between atoms: C_11  and  N_23
    6  A    between atoms: C_11  and  C_25
    7  A    between atoms: N_23  and  C_34
    8  A    between atoms: C_25  and  C_30
    9  A    between atoms: C_26  and  C_35
   10  A    between atoms: C_29  and  C_35
   11  A    between atoms: C_34  and  C_36
                            x       y       z     vdW  Elec       q    Type
                         _______ _______ _______ _____ _____    ______ ____

>  <TORSDO>
F 11

$$$$
=
 OpenBabel10232408073D

 38 41  0  0  1  0  0  0  0  0999 V2000
  186.7520  177.9620  137.9310 C   0  0  2  0  0  3  0  0  0  0  0  0
  188.5370  173.6660  135.8490 C   0  0  0  0  0  3  0  0  0  0  0  0
  186.0170  178.7920  139.0040 C   0  0  2  0  0  3  0  0  0  0  0  0
  190.2970  175.2510  135.2660 N   0  0  0  0  0  1  0  0  0  0  0  0
  188.9840  177.3470  136.8270 C   0  0  2  0  0  3  0  0  0  0  0  0
  187.3370  173.3570  136.4880 C   0  0  0  0  0  3  0  0  0  0  0  0
  187.2000  175.6200  137.3390 C   0  0  0  0  0  0  0  0  0  0  0  0
  186.5110  176.5720  138.0930 O   0  0  0  0  0  0  0  0  0  0  0  0
  188.6380  177.1790  140.0310 N   0  0  0  0  0  2  0  0  0  0  0  0
  186.6700  174.3300  137.2340 C   0  0  0  0  0  3  0  0  0  0  0  0
  188.3930  175.9550  136.6730 C   0  0  0  0  0  0  0  0  0  0  0  0
  189.0130  178.2970  139.1710 C   0  0  0  0  0  2  0  0  0  0  0  0
  188.2630  178.2540  137.8340 C   0  0  2  0  0  3  0  0  0  0  0  0
  186.9830  178.5800  141.2850 C   0  0  0  0  0  2  0  0  0  0  0  0
  189.0640  174.9580  135.9250 C   0  0  0  0  0  0  0  0  0  0  0  0
  188.2150  177.6670  141.3460 C   0  0  2  0  0  3  0  0  0  0  0  0
  185.8950  178.0660  140.3430 C   0  0  0  0  0  2  0  0  0  0  0  0
  189.1160  178.0660  135.4980 C   0  0  0  0  0  1  0  0  0  0  0  0
  184.4410  180.6230  138.8470 O   0  0  0  0  0  1  0  0  0  0  0  0
  184.6410  179.2760  138.5360 C   0  0  2  0  0  3  0  0  0  0  0  0
  183.5570  178.4420  139.1920 C   0  0  0  0  0  2  0  0  0  0  0  0
  182.5370  179.3410  139.8610 C   0  0  0  0  0  2  0  0  0  0  0  0
  181.3420  179.5290  138.9340 C   0  0  0  0  0  2  0  0  0  0  0  0
  180.8210  180.9520  139.0220 C   0  0  0  0  0  2  0  0  0  0  0  0
  181.4960  181.7790  138.0410 N   0  0  0  0  0  2  0  0  0  0  0  0
  180.6070  182.8770  137.7070 C   0  0  0  0  0  2  0  0  0  0  0  0
  181.0370  184.4800  135.8030 N   0  0  0  0  0  1  0  0  0  0  0  0
  181.3900  183.9930  137.0910 C   0  0  0  0  0  0  0  0  0  0  0  0
  182.3610  184.4970  137.7130 O   0  0  0  0  0  0  0  0  0  0  0  0
  189.3400  178.4140  142.0570 C   0  0  0  0  0  2  0  0  0  0  0  0
  191.2080  176.8430  144.9710 C   0  0  0  0  0  3  0  0  0  0  0  0
  189.0330  177.6050  145.7510 C   0  0  0  0  0  0  0  0  0  0  0  0
  188.7210  178.0170  144.4480 C   0  0  0  0  0  3  0  0  0  0  0  0
  190.8970  177.2820  143.6800 C   0  0  0  0  0  3  0  0  0  0  0  0
  189.6510  177.8610  143.4140 C   0  0  0  0  0  0  0  0  0  0  0  0
  190.2780  176.9990  146.0020 C   0  0  0  0  0  3  0  0  0  0  0  0
  188.1200  177.8550  146.7810 O   0  0  0  0  0  0  0  0  0  0  0  0
  188.2570  177.3170  148.0860 C   0  0  0  0  0  1  0  0  0  0  0  0
  1  8  1  1  0  0  0
  1  3  1  0  0  0  0
  2 15  2  0  0  0  0
  2  6  1  0  0  0  0
  3 20  1  6  0  0  0
  3 17  1  0  0  0  0
  4 15  1  0  0  0  0
  5 18  1  6  0  0  0
  5 13  1  0  0  0  0
  6 10  2  0  0  0  0
  7  8  1  0  0  0  0
  9 16  1  0  0  0  0
 10  7  1  0  0  0  0
 11  5  1  0  0  0  0
 11  7  2  0  0  0  0
 12  9  1  0  0  0  0
 13  1  1  0  0  0  0
 13 12  1  1  0  0  0
 14 16  1  0  0  0  0
 15 11  1  0  0  0  0
 16 30  1  6  0  0  0
 17 14  1  0  0  0  0
 20 19  1  1  0  0  0
 20 21  1  0  0  0  0
 21 22  1  0  0  0  0
 23 24  1  0  0  0  0
 23 22  1  0  0  0  0
 25 24  1  0  0  0  0
 26 25  1  0  0  0  0
 27 28  1  0  0  0  0
 28 26  1  0  0  0  0
 28 29  2  0  0  0  0
 30 35  1  0  0  0  0
 31 36  1  0  0  0  0
 32 36  2  0  0  0  0
 32 37  1  0  0  0  0
 33 32  1  0  0  0  0
 34 31  2  0  0  0  0
 35 34  1  0  0  0  0
 35 33  2  0  0  0  0
 37 38  1  0  0  0  0
M  END
>  <MODEL>
9

>  <REMARK>
 VINA RESULT:      -6.0      2.823      3.923
  Name = 
  11 active torsions:
  status: ('A' for Active; 'I' for Inactive)
    1  A    between atoms: C_3  and  C_20
    2  A    between atoms: C_4  and  C_20
    3  A    between atoms: C_4  and  C_30
    4  A    between atoms: O_5  and  C_7
    5  A    between atoms: C_11  and  N_23
    6  A    between atoms: C_11  and  C_25
    7  A    between atoms: N_23  and  C_34
    8  A    between atoms: C_25  and  C_30
    9  A    between atoms: C_26  and  C_35
   10  A    between atoms: C_29  and  C_35
   11  A    between atoms: C_34  and  C_36
                            x       y       z     vdW  Elec       q    Type
                         _______ _______ _______ _____ _____    ______ ____

>  <TORSDO>
F 11

$$$$
