=
 OpenBabel10232408373D

 28 33  0  0  1  0  0  0  0  0999 V2000
  185.9830  178.3650  146.1340 C   0  0  0  0  0  3  0  0  0  0  0  0
  184.6990  178.5910  146.5180 N   0  0  0  0  0  0  0  0  0  0  0  0
  183.7260  178.7840  145.6240 N   0  0  0  0  0  0  0  0  0  0  0  0
  183.9810  178.7620  144.2890 C   0  0  0  0  0  0  0  0  0  0  0  0
  186.3040  178.3340  144.7770 C   0  0  0  0  0  3  0  0  0  0  0  0
  180.6810  179.0930  141.5760 C   0  0  0  0  0  2  0  0  0  0  0  0
  184.8300  179.9970  139.5600 O   0  0  0  0  0  1  0  0  0  0  0  0
  182.9540  178.9670  143.3680 C   0  0  0  0  0  3  0  0  0  0  0  0
  183.2120  178.9300  141.9870 C   0  0  0  0  0  0  0  0  0  0  0  0
  181.7080  178.9530  138.3160 O   0  0  0  0  0  0  0  0  0  0  0  0
  182.0980  179.2210  140.9970 C   0  0  1  0  0  3  0  0  0  0  0  0
  185.5700  178.5190  142.4750 C   0  0  0  0  0  3  0  0  0  0  0  0
  184.9080  178.7040  140.0850 C   0  0  2  0  0  3  0  0  0  0  0  0
  181.2450  176.6950  139.7880 C   0  0  0  0  0  2  0  0  0  0  0  0
  180.3280  177.6960  141.8240 N   0  0  0  0  0  2  0  0  0  0  0  0
  185.2930  178.5350  143.8410 C   0  0  0  0  0  0  0  0  0  0  0  0
  182.2400  178.1850  139.5040 P   0  0  1  0  0  0  0  0  0  0  0  0
  184.0020  177.7380  139.3200 C   0  0  1  0  0  3  0  0  0  0  0  0
  179.9820  177.0800  140.5470 C   0  0  0  0  0  2  0  0  0  0  0  0
  184.5450  178.7200  141.5440 C   0  0  0  0  0  0  0  0  0  0  0  0
  183.9060  176.1040  137.3100 C   0  0  0  0  0  2  0  0  0  0  0  0
  186.0120  174.9910  136.5650 C   0  0  0  0  0  3  0  0  0  0  0  0
  186.4170  177.5090  136.2890 C   0  0  1  0  0  3  0  0  0  0  0  0
  184.4800  177.4090  137.9010 C   0  0  2  0  0  3  0  0  0  0  0  0
  185.9960  177.5750  137.7570 C   0  0  0  0  0  2  0  0  0  0  0  0
  184.8860  174.9630  137.2910 C   0  0  0  0  0  3  0  0  0  0  0  0
  187.5830  176.7310  136.1700 O   0  0  0  0  0  0  0  0  0  0  0  0
  186.4040  176.1430  135.6710 C   0  0  1  0  0  3  0  0  0  0  0  0
  1  2  1  0  0  0  0
  3  2  2  0  0  0  0
  4  3  1  0  0  0  0
  5  1  2  0  0  0  0
  6 15  1  0  0  0  0
  8  4  2  0  0  0  0
  9  8  1  0  0  0  0
 11  6  1  1  0  0  0
 11  9  1  0  0  0  0
 12 16  2  0  0  0  0
 13  7  1  6  0  0  0
 13 20  1  0  0  0  0
 14 19  1  0  0  0  0
 16  4  1  0  0  0  0
 16  5  1  0  0  0  0
 17 10  2  6  0  0  0
 17 14  1  0  0  0  0
 17 11  1  0  0  0  0
 18 24  1  6  0  0  0
 18 17  1  0  0  0  0
 18 13  1  0  0  0  0
 19 15  1  0  0  0  0
 20  9  2  0  0  0  0
 20 12  1  0  0  0  0
 22 26  2  0  0  0  0
 23 25  1  1  0  0  0
 24 21  1  1  0  0  0
 25 24  1  0  0  0  0
 26 21  1  0  0  0  0
 27 23  1  0  0  0  0
 28 27  1  0  0  0  0
 28 23  1  0  0  0  0
 28 22  1  1  0  0  0
M  END
>  <MODEL>
1

>  <REMARK>
 VINA RESULT:      -8.4      0.000      0.000
  Name = 
  1 active torsions:
  status: ('A' for Active; 'I' for Inactive)
    1  A    between atoms: C_8  and  C_26
                            x       y       z     vdW  Elec       q    Type
                         _______ _______ _______ _____ _____    ______ ____

>  <TORSDO>
F 1

$$$$
=
 OpenBabel10232408373D

 28 33  0  0  1  0  0  0  0  0999 V2000
  186.4630  177.8160  145.3180 C   0  0  0  0  0  3  0  0  0  0  0  0
  185.2080  178.2160  144.9830 N   0  0  0  0  0  0  0  0  0  0  0  0
  184.8700  178.4680  143.7150 N   0  0  0  0  0  0  0  0  0  0  0  0
  185.7700  178.3340  142.7060 C   0  0  0  0  0  0  0  0  0  0  0  0
  187.4290  177.6630  144.3240 C   0  0  0  0  0  3  0  0  0  0  0  0
  184.4160  178.8870  138.6790 C   0  0  0  0  0  2  0  0  0  0  0  0
  189.0870  179.1660  139.1130 O   0  0  0  0  0  1  0  0  0  0  0  0
  185.4020  178.6030  141.3880 C   0  0  0  0  0  3  0  0  0  0  0  0
  186.3260  178.4500  140.3410 C   0  0  0  0  0  0  0  0  0  0  0  0
  186.9450  178.4260  136.4220 O   0  0  0  0  0  0  0  0  0  0  0  0
  185.9310  178.8100  138.9190 C   0  0  1  0  0  3  0  0  0  0  0  0
  188.0170  177.7920  141.9760 C   0  0  0  0  0  3  0  0  0  0  0  0
  188.7110  177.9070  139.5900 C   0  0  2  0  0  3  0  0  0  0  0  0
  185.4930  176.3340  137.4200 C   0  0  0  0  0  2  0  0  0  0  0  0
  183.8030  177.5600  138.6950 N   0  0  0  0  0  2  0  0  0  0  0  0
  187.0810  177.9250  143.0010 C   0  0  0  0  0  0  0  0  0  0  0  0
  186.6810  177.6750  137.7060 P   0  0  1  0  0  0  0  0  0  0  0  0
  188.2080  177.0110  138.4580 C   0  0  1  0  0  3  0  0  0  0  0  0
  184.0850  176.9120  137.4170 C   0  0  0  0  0  2  0  0  0  0  0  0
  187.6550  178.0560  140.6500 C   0  0  0  0  0  0  0  0  0  0  0  0
  188.8810  175.3900  136.5500 C   0  0  0  0  0  2  0  0  0  0  0  0
  190.7620  173.7960  136.9340 C   0  0  0  0  0  3  0  0  0  0  0  0
  191.7710  176.1420  137.1840 C   0  0  1  0  0  3  0  0  0  0  0  0
  189.3000  176.5410  137.4890 C   0  0  2  0  0  3  0  0  0  0  0  0
  190.6440  176.3440  138.1960 C   0  0  0  0  0  2  0  0  0  0  0  0
  189.4470  174.0520  136.9380 C   0  0  0  0  0  3  0  0  0  0  0  0
  192.6190  175.1100  137.6260 O   0  0  0  0  0  0  0  0  0  0  0  0
  191.8100  174.8000  136.5150 C   0  0  1  0  0  3  0  0  0  0  0  0
  2  1  1  0  0  0  0
  3  2  2  0  0  0  0
  4 16  1  0  0  0  0
  4  3  1  0  0  0  0
  5  1  2  0  0  0  0
  6 15  1  0  0  0  0
  8  4  2  0  0  0  0
  9 20  2  0  0  0  0
  9  8  1  0  0  0  0
 11  6  1  1  0  0  0
 11  9  1  0  0  0  0
 12 16  2  0  0  0  0
 13  7  1  6  0  0  0
 13 20  1  0  0  0  0
 14 17  1  0  0  0  0
 16  5  1  0  0  0  0
 17 10  2  6  0  0  0
 17 18  1  0  0  0  0
 17 11  1  0  0  0  0
 18 24  1  6  0  0  0
 18 13  1  0  0  0  0
 19 14  1  0  0  0  0
 19 15  1  0  0  0  0
 20 12  1  0  0  0  0
 21 26  1  0  0  0  0
 22 26  2  0  0  0  0
 23 27  1  0  0  0  0
 23 25  1  1  0  0  0
 24 21  1  1  0  0  0
 24 25  1  0  0  0  0
 28 22  1  1  0  0  0
 28 23  1  0  0  0  0
 28 27  1  0  0  0  0
M  END
>  <MODEL>
2

>  <REMARK>
 VINA RESULT:      -7.4      3.221      4.207
  Name = 
  1 active torsions:
  status: ('A' for Active; 'I' for Inactive)
    1  A    between atoms: C_8  and  C_26
                            x       y       z     vdW  Elec       q    Type
                         _______ _______ _______ _____ _____    ______ ____

>  <TORSDO>
F 1

$$$$
=
 OpenBabel10232408373D

 28 33  0  0  1  0  0  0  0  0999 V2000
  181.8720  177.8030  138.8260 C   0  0  0  0  0  3  0  0  0  0  0  0
  182.8140  178.0430  137.8770 N   0  0  0  0  0  0  0  0  0  0  0  0
  184.0910  178.2690  138.2010 N   0  0  0  0  0  0  0  0  0  0  0  0
  184.4990  178.2690  139.4960 C   0  0  0  0  0  0  0  0  0  0  0  0
  182.2330  177.7930  140.1730 C   0  0  0  0  0  3  0  0  0  0  0  0
  188.6820  178.7080  140.3160 C   0  0  0  0  0  2  0  0  0  0  0  0
  185.9650  179.5810  144.0500 O   0  0  0  0  0  1  0  0  0  0  0  0
  185.8350  178.5090  139.8180 C   0  0  0  0  0  3  0  0  0  0  0  0
  186.2630  178.4950  141.1560 C   0  0  0  0  0  0  0  0  0  0  0  0
  189.3270  178.6140  143.6740 O   0  0  0  0  0  0  0  0  0  0  0  0
  187.7070  178.8230  141.4960 C   0  0  1  0  0  3  0  0  0  0  0  0
  183.9670  178.0350  141.8500 C   0  0  0  0  0  3  0  0  0  0  0  0
  185.6790  178.2770  143.6370 C   0  0  2  0  0  3  0  0  0  0  0  0
  189.0920  176.3360  142.1790 C   0  0  0  0  0  2  0  0  0  0  0  0
  188.9090  177.3120  139.9430 N   0  0  0  0  0  2  0  0  0  0  0  0
  183.5620  178.0280  140.5150 C   0  0  0  0  0  0  0  0  0  0  0  0
  188.3150  177.8150  142.8870 P   0  0  1  0  0  0  0  0  0  0  0  0
  186.8620  177.3420  143.8890 C   0  0  1  0  0  3  0  0  0  0  0  0
  189.8340  176.7270  140.9090 C   0  0  0  0  0  2  0  0  0  0  0  0
  185.3050  178.2700  142.1810 C   0  0  0  0  0  0  0  0  0  0  0  0
  185.9950  177.4640  146.3290 C   0  0  0  0  0  2  0  0  0  0  0  0
  187.3130  178.7550  148.0100 C   0  0  0  0  0  3  0  0  0  0  0  0
  188.8700  176.8920  147.1820 C   0  0  1  0  0  3  0  0  0  0  0  0
  187.1220  177.0330  145.3690 C   0  0  2  0  0  3  0  0  0  0  0  0
  188.5340  177.4460  145.7980 C   0  0  0  0  0  2  0  0  0  0  0  0
  186.3110  178.7030  147.1210 C   0  0  0  0  0  3  0  0  0  0  0  0
  189.5230  177.8830  147.9370 O   0  0  0  0  0  0  0  0  0  0  0  0
  188.2060  177.5820  148.3360 C   0  0  1  0  0  3  0  0  0  0  0  0
  1  5  1  0  0  0  0
  2  3  1  0  0  0  0
  2  1  2  0  0  0  0
  3  4  2  0  0  0  0
  4  8  1  0  0  0  0
  4 16  1  0  0  0  0
  5 16  2  0  0  0  0
  8  9  2  0  0  0  0
  9 11  1  0  0  0  0
  9 20  1  0  0  0  0
 11  6  1  6  0  0  0
 11 17  1  0  0  0  0
 12 20  2  0  0  0  0
 13 18  1  0  0  0  0
 13  7  1  6  0  0  0
 14 17  1  0  0  0  0
 15  6  1  0  0  0  0
 15 19  1  0  0  0  0
 16 12  1  0  0  0  0
 17 10  2  1  0  0  0
 17 18  1  0  0  0  0
 18 24  1  1  0  0  0
 19 14  1  0  0  0  0
 20 13  1  0  0  0  0
 21 26  1  0  0  0  0
 23 25  1  6  0  0  0
 23 27  1  0  0  0  0
 23 28  1  0  0  0  0
 24 25  1  1  0  0  0
 24 21  1  0  0  0  0
 26 22  2  0  0  0  0
 27 28  1  0  0  0  0
 28 22  1  6  0  0  0
M  END
>  <MODEL>
3

>  <REMARK>
 VINA RESULT:      -7.1      3.998      7.953
  Name = 
  1 active torsions:
  status: ('A' for Active; 'I' for Inactive)
    1  A    between atoms: C_8  and  C_26
                            x       y       z     vdW  Elec       q    Type
                         _______ _______ _______ _____ _____    ______ ____

>  <TORSDO>
F 1

$$$$
=
 OpenBabel10232408373D

 28 33  0  0  1  0  0  0  0  0999 V2000
  185.3850  178.5200  144.2290 C   0  0  0  0  0  3  0  0  0  0  0  0
  184.1720  178.5470  143.6170 N   0  0  0  0  0  0  0  0  0  0  0  0
  184.0580  178.4980  142.2870 N   0  0  0  0  0  0  0  0  0  0  0  0
  185.1550  178.4190  141.4890 C   0  0  0  0  0  0  0  0  0  0  0  0
  186.5460  178.4420  143.4600 C   0  0  0  0  0  3  0  0  0  0  0  0
  184.5780  177.9600  137.2680 C   0  0  0  0  0  2  0  0  0  0  0  0
  188.9020  179.4180  138.3950 O   0  0  0  0  0  1  0  0  0  0  0  0
  185.0200  178.3700  140.1020 C   0  0  0  0  0  3  0  0  0  0  0  0
  186.1520  178.2740  139.2750 C   0  0  0  0  0  0  0  0  0  0  0  0
  187.5590  177.7530  135.6020 O   0  0  0  0  0  0  0  0  0  0  0  0
  185.9940  178.2890  137.7640 C   0  0  1  0  0  3  0  0  0  0  0  0
  187.5670  178.3190  141.2660 C   0  0  0  0  0  3  0  0  0  0  0  0
  188.7000  178.2020  139.0540 C   0  0  2  0  0  3  0  0  0  0  0  0
  186.3900  175.5680  136.7600 C   0  0  0  0  0  2  0  0  0  0  0  0
  184.2590  176.5460  137.4590 N   0  0  0  0  0  2  0  0  0  0  0  0
  186.4330  178.3900  142.0730 C   0  0  0  0  0  0  0  0  0  0  0  0
  187.1940  177.1830  136.9530 P   0  0  1  0  0  0  0  0  0  0  0  0
  188.6360  177.0380  138.0660 C   0  0  1  0  0  3  0  0  0  0  0  0
  184.9250  175.7830  136.4070 C   0  0  0  0  0  2  0  0  0  0  0  0
  187.4410  178.2660  139.8730 C   0  0  0  0  0  0  0  0  0  0  0  0
  189.9280  175.4960  136.4320 C   0  0  0  0  0  2  0  0  0  0  0  0
  191.8190  174.1250  137.3130 C   0  0  0  0  0  3  0  0  0  0  0  0
  192.4750  176.5710  137.7270 C   0  0  1  0  0  3  0  0  0  0  0  0
  189.9770  176.6900  137.4070 C   0  0  2  0  0  3  0  0  0  0  0  0
  191.1190  176.6490  138.4270 C   0  0  0  0  0  2  0  0  0  0  0  0
  190.5230  174.2320  136.9870 C   0  0  0  0  0  3  0  0  0  0  0  0
  193.2950  175.6430  138.3940 O   0  0  0  0  0  0  0  0  0  0  0  0
  192.8220  175.2390  137.1300 C   0  0  1  0  0  3  0  0  0  0  0  0
  2  1  1  0  0  0  0
  3  2  2  0  0  0  0
  4 16  1  0  0  0  0
  4  3  1  0  0  0  0
  5  1  2  0  0  0  0
  6 15  1  0  0  0  0
  8  4  2  0  0  0  0
  9 20  2  0  0  0  0
  9  8  1  0  0  0  0
 11  6  1  1  0  0  0
 11  9  1  0  0  0  0
 12 16  2  0  0  0  0
 13  7  1  6  0  0  0
 13 20  1  0  0  0  0
 14 17  1  0  0  0  0
 16  5  1  0  0  0  0
 17 10  2  6  0  0  0
 17 11  1  0  0  0  0
 17 18  1  0  0  0  0
 18 24  1  6  0  0  0
 18 13  1  0  0  0  0
 19 14  1  0  0  0  0
 19 15  1  0  0  0  0
 20 12  1  0  0  0  0
 21 26  1  0  0  0  0
 23 27  1  0  0  0  0
 23 25  1  1  0  0  0
 24 21  1  1  0  0  0
 24 25  1  0  0  0  0
 26 22  2  0  0  0  0
 28 22  1  1  0  0  0
 28 23  1  0  0  0  0
 28 27  1  0  0  0  0
M  END
>  <MODEL>
4

>  <REMARK>
 VINA RESULT:      -6.7      3.639      4.944
  Name = 
  1 active torsions:
  status: ('A' for Active; 'I' for Inactive)
    1  A    between atoms: C_8  and  C_26
                            x       y       z     vdW  Elec       q    Type
                         _______ _______ _______ _____ _____    ______ ____

>  <TORSDO>
F 1

$$$$
=
 OpenBabel10232408373D

 28 33  0  0  1  0  0  0  0  0999 V2000
  189.2190  177.9920  142.4280 C   0  0  0  0  0  3  0  0  0  0  0  0
  188.1970  178.3580  141.6100 N   0  0  0  0  0  0  0  0  0  0  0  0
  188.2680  178.1920  140.2860 N   0  0  0  0  0  0  0  0  0  0  0  0
  189.3680  177.6490  139.7020 C   0  0  0  0  0  0  0  0  0  0  0  0
  190.3740  177.4310  141.8830 C   0  0  0  0  0  3  0  0  0  0  0  0
  189.2820  176.9140  135.4810 C   0  0  0  0  0  2  0  0  0  0  0  0
  193.6300  176.9310  137.2670 O   0  0  0  0  0  1  0  0  0  0  0  0
  189.4270  177.4840  138.3180 C   0  0  0  0  0  3  0  0  0  0  0  0
  190.5560  176.9090  137.7120 C   0  0  0  0  0  0  0  0  0  0  0  0
  192.2000  175.5040  134.3860 O   0  0  0  0  0  0  0  0  0  0  0  0
  190.6340  176.7960  136.2000 C   0  0  1  0  0  3  0  0  0  0  0  0
  191.5900  176.7060  139.9160 C   0  0  0  0  0  3  0  0  0  0  0  0
  192.9140  175.9460  137.9530 C   0  0  2  0  0  3  0  0  0  0  0  0
  190.1750  174.0050  135.4490 C   0  0  0  0  0  2  0  0  0  0  0  0
  188.4560  175.7270  135.6980 N   0  0  0  0  0  2  0  0  0  0  0  0
  190.4520  177.2560  140.5040 C   0  0  0  0  0  0  0  0  0  0  0  0
  191.4650  175.2590  135.6830 P   0  0  1  0  0  0  0  0  0  0  0  0
  192.5830  174.7640  137.0410 C   0  0  1  0  0  3  0  0  0  0  0  0
  188.9500  174.6630  134.8290 C   0  0  0  0  0  2  0  0  0  0  0  0
  191.6560  176.5330  138.5290 C   0  0  0  0  0  0  0  0  0  0  0  0
  193.5080  172.8370  135.5750 C   0  0  0  0  0  2  0  0  0  0  0  0
  194.4370  170.8110  136.6990 C   0  0  0  0  0  3  0  0  0  0  0  0
  195.8880  172.7760  137.4870 C   0  0  1  0  0  3  0  0  0  0  0  0
  193.7920  173.9030  136.6530 C   0  0  2  0  0  3  0  0  0  0  0  0
  194.5490  173.3960  137.8840 C   0  0  0  0  0  2  0  0  0  0  0  0
  193.4060  171.4370  136.1160 C   0  0  0  0  0  3  0  0  0  0  0  0
  196.0920  171.5910  138.2180 O   0  0  0  0  0  0  0  0  0  0  0  0
  195.8110  171.4200  136.8480 C   0  0  1  0  0  3  0  0  0  0  0  0
  2  1  2  0  0  0  0
  3  2  1  0  0  0  0
  4  3  2  0  0  0  0
  4 16  1  0  0  0  0
  5  1  1  0  0  0  0
  6 15  1  0  0  0  0
  8  4  1  0  0  0  0
  9  8  2  0  0  0  0
  9 20  1  0  0  0  0
 11  6  1  6  0  0  0
 11  9  1  0  0  0  0
 12 16  1  0  0  0  0
 13  7  1  6  0  0  0
 13 20  1  0  0  0  0
 14 17  1  0  0  0  0
 16  5  2  0  0  0  0
 17 10  2  6  0  0  0
 17 11  1  0  0  0  0
 17 18  1  0  0  0  0
 18 24  1  6  0  0  0
 18 13  1  0  0  0  0
 19 14  1  0  0  0  0
 19 15  1  0  0  0  0
 20 12  2  0  0  0  0
 21 26  1  0  0  0  0
 23 25  1  1  0  0  0
 23 27  1  0  0  0  0
 24 21  1  1  0  0  0
 24 25  1  0  0  0  0
 26 22  2  0  0  0  0
 28 22  1  1  0  0  0
 28 23  1  0  0  0  0
 28 27  1  0  0  0  0
M  END
>  <MODEL>
5

>  <REMARK>
 VINA RESULT:      -6.4      6.977      9.133
  Name = 
  1 active torsions:
  status: ('A' for Active; 'I' for Inactive)
    1  A    between atoms: C_8  and  C_26
                            x       y       z     vdW  Elec       q    Type
                         _______ _______ _______ _____ _____    ______ ____

>  <TORSDO>
F 1

$$$$
=
 OpenBabel10232408373D

 28 33  0  0  1  0  0  0  0  0999 V2000
  189.6060  178.1190  142.7400 C   0  0  0  0  0  3  0  0  0  0  0  0
  188.4710  178.1030  141.9920 N   0  0  0  0  0  0  0  0  0  0  0  0
  188.4850  177.7280  140.7090 N   0  0  0  0  0  0  0  0  0  0  0  0
  189.6380  177.3490  140.0990 C   0  0  0  0  0  0  0  0  0  0  0  0
  190.8190  177.7420  142.1660 C   0  0  0  0  0  3  0  0  0  0  0  0
  189.4300  175.8900  136.0760 C   0  0  0  0  0  2  0  0  0  0  0  0
  193.7660  177.1790  137.3530 O   0  0  0  0  0  1  0  0  0  0  0  0
  189.6360  176.9620  138.7590 C   0  0  0  0  0  3  0  0  0  0  0  0
  190.8240  176.5550  138.1290 C   0  0  0  0  0  0  0  0  0  0  0  0
  192.5140  174.9910  134.8980 O   0  0  0  0  0  0  0  0  0  0  0  0
  190.8190  176.2010  136.6520 C   0  0  1  0  0  3  0  0  0  0  0  0
  192.0300  176.9730  140.2120 C   0  0  0  0  0  3  0  0  0  0  0  0
  193.3540  176.1940  138.2560 C   0  0  2  0  0  3  0  0  0  0  0  0
  190.9810  173.2900  136.3920 C   0  0  0  0  0  2  0  0  0  0  0  0
  188.9250  174.6060  136.5600 N   0  0  0  0  0  2  0  0  0  0  0  0
  190.8380  177.3510  140.8290 C   0  0  0  0  0  0  0  0  0  0  0  0
  191.9510  174.8190  136.2890 P   0  0  1  0  0  0  0  0  0  0  0  0
  193.2470  174.8290  137.5770 C   0  0  1  0  0  3  0  0  0  0  0  0
  189.5950  173.5430  135.8160 C   0  0  0  0  0  2  0  0  0  0  0  0
  192.0370  176.5800  138.8690 C   0  0  0  0  0  0  0  0  0  0  0  0
  195.2730  173.3910  138.3200 C   0  0  0  0  0  2  0  0  0  0  0  0
  197.5480  174.4160  138.2990 C   0  0  0  0  0  3  0  0  0  0  0  0
  196.7200  174.5010  135.8710 C   0  0  1  0  0  3  0  0  0  0  0  0
  194.5950  174.2020  137.1970 C   0  0  2  0  0  3  0  0  0  0  0  0
  195.5060  175.2030  136.4790 C   0  0  0  0  0  2  0  0  0  0  0  0
  196.4310  174.0980  138.9670 C   0  0  0  0  0  3  0  0  0  0  0  0
  197.8730  175.2720  136.1040 O   0  0  0  0  0  0  0  0  0  0  0  0
  197.7790  174.0780  136.8460 C   0  0  1  0  0  3  0  0  0  0  0  0
  2  1  2  0  0  0  0
  3  2  1  0  0  0  0
  4  3  2  0  0  0  0
  4 16  1  0  0  0  0
  5  1  1  0  0  0  0
  6 15  1  0  0  0  0
  8  4  1  0  0  0  0
  9  8  2  0  0  0  0
  9 20  1  0  0  0  0
 11  6  1  1  0  0  0
 11  9  1  0  0  0  0
 12 16  1  0  0  0  0
 13  7  1  6  0  0  0
 13 20  1  0  0  0  0
 16  5  2  0  0  0  0
 17 10  2  6  0  0  0
 17 14  1  0  0  0  0
 17 11  1  0  0  0  0
 17 18  1  0  0  0  0
 18 24  1  6  0  0  0
 18 13  1  0  0  0  0
 19 14  1  0  0  0  0
 19 15  1  0  0  0  0
 20 12  2  0  0  0  0
 21 26  1  0  0  0  0
 22 26  2  0  0  0  0
 23 27  1  0  0  0  0
 23 25  1  1  0  0  0
 23 28  1  0  0  0  0
 24 25  1  1  0  0  0
 24 21  1  0  0  0  0
 27 28  1  0  0  0  0
 28 22  1  1  0  0  0
M  END
>  <MODEL>
6

>  <REMARK>
 VINA RESULT:      -6.3      7.609      9.602
  Name = 
  1 active torsions:
  status: ('A' for Active; 'I' for Inactive)
    1  A    between atoms: C_8  and  C_26
                            x       y       z     vdW  Elec       q    Type
                         _______ _______ _______ _____ _____    ______ ____

>  <TORSDO>
F 1

$$$$
=
 OpenBabel10232408373D

 28 33  0  0  1  0  0  0  0  0999 V2000
  181.5370  178.5530  139.9680 C   0  0  0  0  0  3  0  0  0  0  0  0
  181.7020  178.5810  138.6190 N   0  0  0  0  0  0  0  0  0  0  0  0
  182.9160  178.5580  138.0620 N   0  0  0  0  0  0  0  0  0  0  0  0
  184.0390  178.5060  138.8250 C   0  0  0  0  0  0  0  0  0  0  0  0
  182.6550  178.5010  140.8000 C   0  0  0  0  0  3  0  0  0  0  0  0
  187.8260  178.1280  136.8550 C   0  0  0  0  0  2  0  0  0  0  0  0
  188.1950  179.6040  141.3020 O   0  0  0  0  0  1  0  0  0  0  0  0
  185.3000  178.4850  138.2290 C   0  0  0  0  0  3  0  0  0  0  0  0
  186.4630  178.4160  139.0140 C   0  0  0  0  0  0  0  0  0  0  0  0
  190.4060  177.9840  139.0960 O   0  0  0  0  0  0  0  0  0  0  0  0
  187.8300  178.4600  138.3540 C   0  0  1  0  0  3  0  0  0  0  0  0
  185.0680  178.4340  141.0190 C   0  0  0  0  0  3  0  0  0  0  0  0
  187.5340  178.3730  141.3370 C   0  0  2  0  0  3  0  0  0  0  0  0
  188.9710  175.7650  138.3930 C   0  0  0  0  0  2  0  0  0  0  0  0
  187.5710  176.7080  136.6220 N   0  0  0  0  0  2  0  0  0  0  0  0
  183.9230  178.4770  140.2250 C   0  0  0  0  0  0  0  0  0  0  0  0
  189.0250  177.3830  139.2110 P   0  0  1  0  0  0  0  0  0  0  0  0
  188.4680  177.2290  140.9450 C   0  0  1  0  0  3  0  0  0  0  0  0
  188.8030  175.9730  136.8940 C   0  0  0  0  0  2  0  0  0  0  0  0
  186.3360  178.4080  140.4290 C   0  0  0  0  0  0  0  0  0  0  0  0
  189.0590  176.0900  143.1970 C   0  0  0  0  0  2  0  0  0  0  0  0
  189.9320  177.4980  145.0640 C   0  0  0  0  0  3  0  0  0  0  0  0
  191.6220  177.7490  143.1500 C   0  0  1  0  0  3  0  0  0  0  0  0
  189.5490  176.9070  141.9840 C   0  0  2  0  0  3  0  0  0  0  0  0
  190.3920  178.1390  142.3300 C   0  0  0  0  0  2  0  0  0  0  0  0
  188.8990  176.9020  144.4530 C   0  0  0  0  0  3  0  0  0  0  0  0
  191.8040  178.6760  144.1920 O   0  0  0  0  0  0  0  0  0  0  0  0
  191.3600  177.3980  144.5850 C   0  0  1  0  0  3  0  0  0  0  0  0
  1  5  1  0  0  0  0
  2  1  2  0  0  0  0
  3  2  1  0  0  0  0
  3  4  2  0  0  0  0
  4 16  1  0  0  0  0
  8  4  1  0  0  0  0
  8  9  2  0  0  0  0
  9 20  1  0  0  0  0
 11  6  1  6  0  0  0
 11  9  1  0  0  0  0
 11 17  1  0  0  0  0
 13  7  1  6  0  0  0
 14 17  1  0  0  0  0
 15  6  1  0  0  0  0
 15 19  1  0  0  0  0
 16  5  2  0  0  0  0
 16 12  1  0  0  0  0
 17 10  2  6  0  0  0
 17 18  1  0  0  0  0
 18 13  1  0  0  0  0
 18 24  1  1  0  0  0
 19 14  1  0  0  0  0
 20 12  2  0  0  0  0
 20 13  1  0  0  0  0
 21 26  1  0  0  0  0
 23 25  1  6  0  0  0
 23 27  1  0  0  0  0
 23 28  1  0  0  0  0
 24 25  1  1  0  0  0
 24 21  1  0  0  0  0
 26 22  2  0  0  0  0
 27 28  1  0  0  0  0
 28 22  1  6  0  0  0
M  END
>  <MODEL>
7

>  <REMARK>
 VINA RESULT:      -6.2      4.051      7.109
  Name = 
  1 active torsions:
  status: ('A' for Active; 'I' for Inactive)
    1  A    between atoms: C_8  and  C_26
                            x       y       z     vdW  Elec       q    Type
                         _______ _______ _______ _____ _____    ______ ____

>  <TORSDO>
F 1

$$$$
=
 OpenBabel10232408373D

 28 33  0  0  1  0  0  0  0  0999 V2000
  187.4410  177.6260  146.1460 C   0  0  0  0  0  3  0  0  0  0  0  0
  186.3940  178.1010  146.8720 N   0  0  0  0  0  0  0  0  0  0  0  0
  185.2730  178.5270  146.2850 N   0  0  0  0  0  0  0  0  0  0  0  0
  185.1320  178.5040  144.9330 C   0  0  0  0  0  0  0  0  0  0  0  0
  187.3540  177.5810  144.7550 C   0  0  0  0  0  3  0  0  0  0  0  0
  181.3510  179.6220  143.2560 C   0  0  0  0  0  2  0  0  0  0  0  0
  184.8600  179.7140  140.1310 O   0  0  0  0  0  1  0  0  0  0  0  0
  183.9560  178.9550  144.3350 C   0  0  0  0  0  3  0  0  0  0  0  0
  183.8020  178.9170  142.9390 C   0  0  0  0  0  0  0  0  0  0  0  0
  181.3680  179.3950  139.8420 O   0  0  0  0  0  0  0  0  0  0  0  0
  182.5420  179.4730  142.2980 C   0  0  1  0  0  3  0  0  0  0  0  0
  186.0600  178.0030  142.7500 C   0  0  0  0  0  3  0  0  0  0  0  0
  184.8070  178.4140  140.6410 C   0  0  2  0  0  3  0  0  0  0  0  0
  180.8700  177.2300  141.4370 C   0  0  0  0  0  2  0  0  0  0  0  0
  180.7950  178.3210  143.6250 N   0  0  0  0  0  2  0  0  0  0  0  0
  186.1870  178.0240  144.1380 C   0  0  0  0  0  0  0  0  0  0  0  0
  182.0370  178.4890  140.8490 P   0  0  1  0  0  0  0  0  0  0  0  0
  183.5400  177.6900  140.1860 C   0  0  1  0  0  3  0  0  0  0  0  0
  179.9820  177.8410  142.5120 C   0  0  0  0  0  2  0  0  0  0  0  0
  184.8810  178.4500  142.1420 C   0  0  0  0  0  0  0  0  0  0  0  0
  182.9120  178.3990  137.7730 C   0  0  0  0  0  2  0  0  0  0  0  0
  181.2660  177.0180  136.5030 C   0  0  0  0  0  3  0  0  0  0  0  0
  183.2350  175.4570  137.0240 C   0  0  1  0  0  3  0  0  0  0  0  0
  183.5200  177.3230  138.6960 C   0  0  2  0  0  3  0  0  0  0  0  0
  182.9970  175.9020  138.4670 C   0  0  0  0  0  2  0  0  0  0  0  0
  181.5270  178.0730  137.2870 C   0  0  0  0  0  3  0  0  0  0  0  0
  182.0930  174.7890  136.5450 O   0  0  0  0  0  0  0  0  0  0  0  0
  182.3250  176.0670  135.9990 C   0  0  1  0  0  3  0  0  0  0  0  0
  1  2  1  0  0  0  0
  3  2  2  0  0  0  0
  4  3  1  0  0  0  0
  5  1  2  0  0  0  0
  6 15  1  0  0  0  0
  8  4  1  0  0  0  0
  9  8  2  0  0  0  0
 11  9  1  0  0  0  0
 11  6  1  1  0  0  0
 12 16  1  0  0  0  0
 13  7  1  1  0  0  0
 13 20  1  0  0  0  0
 14 19  1  0  0  0  0
 16  5  1  0  0  0  0
 16  4  2  0  0  0  0
 17 10  2  6  0  0  0
 17 14  1  0  0  0  0
 17 11  1  0  0  0  0
 18 24  1  6  0  0  0
 18 13  1  0  0  0  0
 18 17  1  0  0  0  0
 19 15  1  0  0  0  0
 20 12  2  0  0  0  0
 20  9  1  0  0  0  0
 22 26  2  0  0  0  0
 23 25  1  1  0  0  0
 24 21  1  6  0  0  0
 25 24  1  0  0  0  0
 26 21  1  0  0  0  0
 27 23  1  0  0  0  0
 28 22  1  1  0  0  0
 28 27  1  0  0  0  0
 28 23  1  0  0  0  0
M  END
>  <MODEL>
8

>  <REMARK>
 VINA RESULT:      -6.2      1.974      2.497
  Name = 
  1 active torsions:
  status: ('A' for Active; 'I' for Inactive)
    1  A    between atoms: C_8  and  C_26
                            x       y       z     vdW  Elec       q    Type
                         _______ _______ _______ _____ _____    ______ ____

>  <TORSDO>
F 1

$$$$
=
 OpenBabel10232408373D

 28 33  0  0  1  0  0  0  0  0999 V2000
  183.7460  178.8750  145.5750 C   0  0  0  0  0  3  0  0  0  0  0  0
  184.4810  178.7510  146.7120 N   0  0  0  0  0  0  0  0  0  0  0  0
  185.7600  178.3670  146.6790 N   0  0  0  0  0  0  0  0  0  0  0  0
  186.3800  178.0830  145.5040 C   0  0  0  0  0  0  0  0  0  0  0  0
  184.3300  178.5940  144.3400 C   0  0  0  0  0  3  0  0  0  0  0  0
  190.5660  177.1670  145.5770 C   0  0  0  0  0  2  0  0  0  0  0  0
  188.4430  175.8000  141.6130 O   0  0  0  0  0  1  0  0  0  0  0  0
  187.7160  177.6810  145.4870 C   0  0  0  0  0  3  0  0  0  0  0  0
  188.3640  177.4010  144.2720 C   0  0  0  0  0  0  0  0  0  0  0  0
  191.7790  176.5550  142.4370 O   0  0  0  0  0  0  0  0  0  0  0  0
  189.7980  176.9010  144.2740 C   0  0  1  0  0  3  0  0  0  0  0  0
  186.2850  177.8960  143.0890 C   0  0  0  0  0  3  0  0  0  0  0  0
  188.2390  177.1780  141.7270 C   0  0  2  0  0  3  0  0  0  0  0  0
  191.5490  179.0920  143.4340 C   0  0  0  0  0  2  0  0  0  0  0  0
  190.8800  178.5860  145.7330 N   0  0  0  0  0  2  0  0  0  0  0  0
  185.6630  178.1940  144.3010 C   0  0  0  0  0  0  0  0  0  0  0  0
  190.7430  177.5690  142.8650 P   0  0  1  0  0  0  0  0  0  0  0  0
  189.5440  177.9500  141.5410 C   0  0  1  0  0  3  0  0  0  0  0  0
  192.0160  178.8980  144.8700 C   0  0  0  0  0  2  0  0  0  0  0  0
  187.6260  177.4960  143.0620 C   0  0  0  0  0  0  0  0  0  0  0  0
  189.1240  178.5250  139.0480 C   0  0  0  0  0  2  0  0  0  0  0  0
  189.1440  176.6790  137.3680 C   0  0  0  0  0  3  0  0  0  0  0  0
  191.4840  176.6910  138.4210 C   0  0  1  0  0  3  0  0  0  0  0  0
  190.0860  177.9440  140.1050 C   0  0  2  0  0  3  0  0  0  0  0  0
  190.7160  176.5970  139.7390 C   0  0  0  0  0  2  0  0  0  0  0  0
  188.4580  177.4820  138.1930 C   0  0  0  0  0  3  0  0  0  0  0  0
  191.2190  175.5510  137.6410 O   0  0  0  0  0  0  0  0  0  0  0  0
  190.6400  176.7500  137.1820 C   0  0  1  0  0  3  0  0  0  0  0  0
  1  2  1  0  0  0  0
  3  2  2  0  0  0  0
  4  3  1  0  0  0  0
  5  1  2  0  0  0  0
  6 15  1  0  0  0  0
  8  4  1  0  0  0  0
  9 11  1  0  0  0  0
  9  8  2  0  0  0  0
 11  6  1  1  0  0  0
 12 16  1  0  0  0  0
 13  7  1  1  0  0  0
 13 20  1  0  0  0  0
 14 19  1  0  0  0  0
 16  5  1  0  0  0  0
 16  4  2  0  0  0  0
 17 10  2  6  0  0  0
 17 14  1  0  0  0  0
 17 11  1  0  0  0  0
 18 24  1  6  0  0  0
 18 13  1  0  0  0  0
 18 17  1  0  0  0  0
 19 15  1  0  0  0  0
 20 12  2  0  0  0  0
 20  9  1  0  0  0  0
 22 26  2  0  0  0  0
 23 25  1  1  0  0  0
 24 21  1  6  0  0  0
 25 24  1  0  0  0  0
 26 21  1  0  0  0  0
 27 23  1  0  0  0  0
 28 22  1  1  0  0  0
 28 27  1  0  0  0  0
 28 23  1  0  0  0  0
M  END
>  <MODEL>
9

>  <REMARK>
 VINA RESULT:      -6.0      4.228      6.572
  Name = 
  1 active torsions:
  status: ('A' for Active; 'I' for Inactive)
    1  A    between atoms: C_8  and  C_26
                            x       y       z     vdW  Elec       q    Type
                         _______ _______ _______ _____ _____    ______ ____

>  <TORSDO>
F 1

$$$$
