=
 OpenBabel10232412133D

 68 78  0  0  1  0  0  0  0  0999 V2000
  185.1260  175.7900  137.0730 C   0  0  0  0  0  3  0  0  0  0  0  0
  188.1370  178.2410  141.1150 C   0  0  0  0  0  2  0  0  0  0  0  0
  191.7310  178.3730  140.3680 C   0  0  0  0  0  3  0  0  0  0  0  0
  185.8950  178.3860  140.0450 C   0  0  2  0  0  3  0  0  0  0  0  0
  185.3100  178.4690  142.4280 F   0  0  0  0  0  0  0  0  0  0  0  0
  192.0780  176.0070  135.5460 C   0  0  0  0  0  0  0  0  0  0  0  0
  189.2470  179.0390  141.7740 C   0  0  0  0  0  2  0  0  0  0  0  0
  192.0810  176.4930  136.9230 C   0  0  0  0  0  3  0  0  0  0  0  0
  188.8650  177.1100  135.6730 C   0  0  0  0  0  0  0  0  0  0  0  0
  183.4010  177.4210  138.5400 N   0  0  0  0  0  0  0  0  0  0  0  0
  193.9330  174.4890  136.0220 C   0  0  1  0  0  3  0  0  0  0  0  0
  194.0970  172.9940  135.6850 C   0  0  2  0  0  3  0  0  0  0  0  0
  183.0420  177.2930  142.1660 F   0  0  0  0  0  0  0  0  0  0  0  0
  187.6010  176.7010  136.1260 C   0  0  0  0  0  0  0  0  0  0  0  0
  189.9940  177.5540  143.5820 N   0  0  0  0  0  0  0  0  0  0  0  0
  193.2660  173.5440  138.3010 C   0  0  0  0  0  2  0  0  0  0  0  0
  188.0450  174.5040  135.3010 N   0  0  0  0  0  2  0  0  0  0  0  0
  190.2490  178.1010  142.3630 C   0  0  0  0  0  0  0  0  0  0  0  0
  186.7410  177.5790  136.8010 C   0  0  0  0  0  3  0  0  0  0  0  0
  187.2050  175.3630  135.9260 C   0  0  0  0  0  0  0  0  0  0  0  0
  185.2500  179.0980  138.8740 C   0  0  1  0  0  3  0  0  0  0  0  0
  183.0520  177.1150  139.7610 C   0  0  0  0  0  0  0  0  0  0  0  0
  194.8890  172.2700  136.7720 C   0  0  0  0  0  2  0  0  0  0  0  0
  184.5590  178.1020  137.9550 C   0  0  1  0  0  3  0  0  0  0  0  0
  194.8000  172.8280  134.3460 C   0  0  0  0  0  1  0  0  0  0  0  0
  192.6820  176.3970  139.2890 C   0  0  0  0  0  2  0  0  0  0  0  0
  192.8720  175.0550  135.1800 N   0  0  0  0  0  0  0  0  0  0  0  0
  191.9430  176.1860  143.4500 C   0  0  0  0  0  3  0  0  0  0  0  0
  193.7830  174.7890  137.5530 C   0  0  1  0  0  0  0  0  0  0  0  0
  192.3250  177.8060  139.3620 N   0  0  0  0  0  0  0  0  0  0  0  0
  183.7370  177.5330  141.0230 C   0  0  0  0  0  0  0  0  0  0  0  0
  189.2740  178.2930  135.8680 O   0  0  0  0  0  0  0  0  0  0  0  0
  184.9310  178.1250  141.1670 C   0  0  0  0  0  0  0  0  0  0  0  0
  190.8140  176.6280  144.1490 C   0  0  0  0  0  0  0  0  0  0  0  0
  187.1170  179.1770  140.5050 C   0  0  0  0  0  2  0  0  0  0  0  0
  185.5040  177.1260  137.2940 C   0  0  0  0  0  0  0  0  0  0  0  0
  191.3910  177.7060  141.6430 C   0  0  0  0  0  0  0  0  0  0  0  0
  189.2410  174.8980  134.8590 N   0  0  0  0  0  0  0  0  0  0  0  0
  192.2320  176.7370  142.2030 C   0  0  0  0  0  3  0  0  0  0  0  0
  194.1530  172.3010  138.1170 C   0  0  0  0  0  2  0  0  0  0  0  0
  185.9740  174.9140  136.3970 C   0  0  0  0  0  3  0  0  0  0  0  0
  195.1680  175.1560  138.0780 C   0  0  0  0  0  1  0  0  0  0  0  0
  189.6810  176.1750  135.0180 C   0  0  0  0  0  0  0  0  0  0  0  0
  191.0670  176.5290  134.5820 C   0  0  0  0  0  2  0  0  0  0  0  0
  192.8640  175.9570  137.8600 C   0  0  0  0  0  0  0  0  0  0  0  0
  190.4460  176.0530  145.4840 C   0  0  2  0  0  3  0  0  0  0  0  0
  189.4170  176.9000  146.2140 C   0  0  0  0  0  1  0  0  0  0  0  0
  191.6340  175.8850  146.3100 N   0  0  0  0  0  1  0  0  0  0  0  0
  183.6170  180.3920  138.1350 C   0  0  0  0  0  1  0  0  0  0  0  0
  184.3850  180.1270  139.2690 O   0  0  0  0  0  0  0  0  0  0  0  0
  181.8950  176.3420  139.9400 O   0  0  0  0  0  0  0  0  0  0  0  0
  181.8050  174.9780  139.5370 C   0  0  0  0  0  2  0  0  0  0  0  0
  181.6720  173.8350  135.9380 C   0  0  0  0  0  0  0  0  0  0  0  0
  181.0830  175.0580  135.2870 C   0  0  0  0  0  2  0  0  0  0  0  0
  181.3580  174.8930  138.1170 C   0  0  0  0  0  0  0  0  0  0  0  0
  181.8490  173.7950  137.2620 C   0  0  0  0  0  3  0  0  0  0  0  0
  180.5570  175.8370  137.6120 C   0  0  0  0  0  3  0  0  0  0  0  0
  180.0490  175.7280  136.1980 C   0  0  0  0  0  2  0  0  0  0  0  0
  181.9610  171.4880  134.3770 C   0  0  1  0  0  3  0  0  0  0  0  0
  184.0250  171.2100  135.4600 C   0  0  0  0  0  2  0  0  0  0  0  0
  181.8780  170.3190  135.3480 C   0  0  2  0  0  3  0  0  0  0  0  0
  183.1470  170.2170  136.0620 N   0  0  1  0  0  0  0  0  0  0  0  0
  183.6670  168.9170  135.7130 C   0  0  1  0  0  3  0  0  0  0  0  0
  181.6100  169.1350  134.6320 O   0  0  0  0  0  0  0  0  0  0  0  0
  184.1000  168.2580  136.8630 O   0  0  0  0  0  1  0  0  0  0  0  0
  182.5110  168.1780  135.1130 C   0  0  0  0  0  2  0  0  0  0  0  0
  182.1470  172.7640  135.1290 N   0  0  0  0  0  0  0  0  0  0  0  0
  183.2360  172.0070  134.4400 C   0  0  2  0  0  3  0  0  0  0  0  0
  1 36  1  0  0  0  0
  2  7  1  0  0  0  0
  3 37  1  0  0  0  0
  4 35  1  1  0  0  0
  4 33  1  0  0  0  0
  6  8  1  0  0  0  0
  7 18  1  0  0  0  0
  8 45  2  0  0  0  0
  9 32  2  0  0  0  0
  9 14  1  0  0  0  0
 10 22  2  0  0  0  0
 11 27  1  6  0  0  0
 11 29  1  0  0  0  0
 12 25  1  6  0  0  0
 12 11  1  0  0  0  0
 12 23  1  0  0  0  0
 14 19  1  0  0  0  0
 15 34  1  0  0  0  0
 17 20  1  0  0  0  0
 18 15  2  0  0  0  0
 19 36  2  0  0  0  0
 20 14  2  0  0  0  0
 20 41  1  0  0  0  0
 21 50  1  1  0  0  0
 21  4  1  0  0  0  0
 22 51  1  0  0  0  0
 22 31  1  0  0  0  0
 23 40  1  0  0  0  0
 24 36  1  1  0  0  0
 24 10  1  0  0  0  0
 24 21  1  0  0  0  0
 26 30  1  0  0  0  0
 27  6  2  0  0  0  0
 28 34  2  0  0  0  0
 29 45  1  0  0  0  0
 29 42  1  1  0  0  0
 29 16  1  0  0  0  0
 30  3  2  0  0  0  0
 31 33  2  0  0  0  0
 31 13  1  0  0  0  0
 33  5  1  0  0  0  0
 34 46  1  0  0  0  0
 35  2  1  0  0  0  0
 37 39  2  0  0  0  0
 37 18  1  0  0  0  0
 38 43  2  0  0  0  0
 38 17  1  0  0  0  0
 39 28  1  0  0  0  0
 40 16  1  0  0  0  0
 41  1  2  0  0  0  0
 43  9  1  0  0  0  0
 44 43  1  0  0  0  0
 44  6  1  0  0  0  0
 45 26  1  0  0  0  0
 46 47  1  1  0  0  0
 46 48  1  0  0  0  0
 49 50  1  0  0  0  0
 52 51  1  0  0  0  0
 53 56  2  0  0  0  0
 54 53  1  0  0  0  0
 54 58  1  0  0  0  0
 55 52  1  0  0  0  0
 56 55  1  0  0  0  0
 57 55  2  0  0  0  0
 58 57  1  0  0  0  0
 59 68  1  0  0  0  0
 59 67  1  1  0  0  0
 59 61  1  0  0  0  0
 61 64  1  6  0  0  0
 61 62  1  0  0  0  0
 62 60  1  6  0  0  0
 63 62  1  0  0  0  0
 63 65  1  1  0  0  0
 64 66  1  0  0  0  0
 66 63  1  0  0  0  0
 67 53  1  0  0  0  0
 68 67  1  0  0  0  0
 68 60  1  1  0  0  0
M  END
>  <MODEL>
1

>  <REMARK>
 VINA RESULT:      -1.2      0.000      0.000
  Name = 
  6 active torsions:
  status: ('A' for Active; 'I' for Inactive)
    1  A    between atoms: C_10  and  N_57
    2  A    between atoms: C_17  and  C_25
    3  A    between atoms: C_17  and  O_30
    4  A    between atoms: C_20  and  C_54
    5  A    between atoms: O_24  and  C_35
    6  A    between atoms: O_30  and  C_36
                            x       y       z     vdW  Elec       q    Type
                         _______ _______ _______ _____ _____    ______ ____

>  <TORSDO>
F 6

$$$$
=
 OpenBabel10232412133D

 68 78  0  0  1  0  0  0  0  0999 V2000
  190.2420  176.4940  139.1010 C   0  0  0  0  0  3  0  0  0  0  0  0
  187.0690  173.7740  135.3670 C   0  0  0  0  0  2  0  0  0  0  0  0
  183.5940  174.9650  135.2760 C   0  0  0  0  0  3  0  0  0  0  0  0
  189.4110  174.5530  135.6800 C   0  0  2  0  0  3  0  0  0  0  0  0
  189.7570  172.2500  134.9010 F   0  0  0  0  0  0  0  0  0  0  0  0
  183.5270  178.8630  138.9870 C   0  0  0  0  0  0  0  0  0  0  0  0
  185.9730  173.5260  134.3470 C   0  0  0  0  0  2  0  0  0  0  0  0
  183.4280  177.7050  138.1020 C   0  0  0  0  0  3  0  0  0  0  0  0
  186.7970  178.6760  138.0740 C   0  0  0  0  0  0  0  0  0  0  0  0
  191.9480  175.3800  137.1940 N   0  0  0  0  0  0  0  0  0  0  0  0
  181.5050  178.1880  140.1820 C   0  0  1  0  0  3  0  0  0  0  0  0
  181.2440  178.0810  141.6970 C   0  0  2  0  0  3  0  0  0  0  0  0
  191.9260  171.8660  136.2220 F   0  0  0  0  0  0  0  0  0  0  0  0
  187.9670  177.9690  138.3930 C   0  0  0  0  0  0  0  0  0  0  0  0
  184.9180  171.4640  135.1620 N   0  0  0  0  0  0  0  0  0  0  0  0
  181.8510  175.6670  140.4160 C   0  0  0  0  0  2  0  0  0  0  0  0
  187.4140  178.1470  140.7080 N   0  0  0  0  0  2  0  0  0  0  0  0
  184.8370  172.8120  135.0030 C   0  0  0  0  0  0  0  0  0  0  0  0
  188.8290  177.4860  137.3980 C   0  0  0  0  0  3  0  0  0  0  0  0
  188.2600  177.7090  139.7460 C   0  0  0  0  0  0  0  0  0  0  0  0
  190.2320  175.7940  135.3980 C   0  0  1  0  0  3  0  0  0  0  0  0
  192.1430  174.0900  137.1290 C   0  0  0  0  0  0  0  0  0  0  0  0
  180.2840  176.9340  142.0080 C   0  0  0  0  0  2  0  0  0  0  0  0
  190.9210  176.2800  136.6640 C   0  0  1  0  0  3  0  0  0  0  0  0
  180.6670  179.3850  142.2280 C   0  0  0  0  0  1  0  0  0  0  0  0
  182.5850  175.5130  137.4340 C   0  0  0  0  0  2  0  0  0  0  0  0
  182.6920  179.0230  139.9600 N   0  0  0  0  0  0  0  0  0  0  0  0
  182.8770  171.4200  136.3960 C   0  0  0  0  0  3  0  0  0  0  0  0
  181.5260  176.8110  139.4350 C   0  0  1  0  0  0  0  0  0  0  0  0
  183.0570  175.8200  136.0920 N   0  0  0  0  0  0  0  0  0  0  0  0
  191.3740  173.1060  136.3070 C   0  0  0  0  0  0  0  0  0  0  0  0
  186.4780  178.8950  136.8680 O   0  0  0  0  0  0  0  0  0  0  0  0
  190.2290  173.2940  135.6360 C   0  0  0  0  0  0  0  0  0  0  0  0
  183.9650  170.7520  135.8220 C   0  0  0  0  0  0  0  0  0  0  0  0
  188.2240  174.5050  134.7210 C   0  0  0  0  0  2  0  0  0  0  0  0
  189.9640  176.7320  137.7430 C   0  0  0  0  0  0  0  0  0  0  0  0
  183.7430  173.5170  135.5360 C   0  0  0  0  0  0  0  0  0  0  0  0
  186.3090  178.8310  140.4050 N   0  0  0  0  0  0  0  0  0  0  0  0
  182.7660  172.8010  136.2400 C   0  0  0  0  0  3  0  0  0  0  0  0
  180.8800  175.5790  141.6050 C   0  0  0  0  0  2  0  0  0  0  0  0
  189.3910  176.9760  140.0950 C   0  0  0  0  0  3  0  0  0  0  0  0
  180.1330  176.5950  138.8500 C   0  0  0  0  0  1  0  0  0  0  0  0
  185.9710  179.1170  139.1190 C   0  0  0  0  0  0  0  0  0  0  0  0
  184.6730  179.8060  138.8420 C   0  0  0  0  0  2  0  0  0  0  0  0
  182.5100  176.7560  138.2810 C   0  0  0  0  0  0  0  0  0  0  0  0
  184.1420  169.2710  135.9790 C   0  0  2  0  0  3  0  0  0  0  0  0
  185.1000  168.6930  134.9490 C   0  0  0  0  0  1  0  0  0  0  0  0
  182.8550  168.5930  135.9020 N   0  0  0  0  0  1  0  0  0  0  0  0
  192.1960  176.4810  134.6520 C   0  0  0  0  0  1  0  0  0  0  0  0
  191.1410  175.6200  134.3460 O   0  0  0  0  0  0  0  0  0  0  0  0
  193.2020  173.5470  137.8720 O   0  0  0  0  0  0  0  0  0  0  0  0
  193.6890  172.2230  137.6720 C   0  0  0  0  0  2  0  0  0  0  0  0
  197.2360  173.4840  138.0040 C   0  0  0  0  0  0  0  0  0  0  0  0
  197.9120  172.6810  136.9250 C   0  0  0  0  0  2  0  0  0  0  0  0
  195.1780  172.2340  137.5900 C   0  0  0  0  0  0  0  0  0  0  0  0
  195.9380  173.3040  138.2670 C   0  0  0  0  0  3  0  0  0  0  0  0
  195.8150  171.3070  136.8670 C   0  0  0  0  0  3  0  0  0  0  0  0
  197.3210  171.2710  136.8300 C   0  0  0  0  0  2  0  0  0  0  0  0
  199.1310  175.0360  139.4290 C   0  0  1  0  0  3  0  0  0  0  0  0
  197.2880  176.0110  140.5080 C   0  0  0  0  0  2  0  0  0  0  0  0
  199.0710  174.5600  140.8730 C   0  0  2  0  0  3  0  0  0  0  0  0
  197.8750  175.1190  141.4980 N   0  0  1  0  0  0  0  0  0  0  0  0
  198.3680  175.9410  142.5760 C   0  0  1  0  0  3  0  0  0  0  0  0
  200.2320  174.9790  141.5530 O   0  0  0  0  0  0  0  0  0  0  0  0
  197.6470  175.6730  143.7390 O   0  0  0  0  0  1  0  0  0  0  0  0
  199.7960  175.5320  142.7620 C   0  0  0  0  0  2  0  0  0  0  0  0
  197.9550  174.5160  138.6710 N   0  0  0  0  0  0  0  0  0  0  0  0
  198.0790  175.9010  139.2190 C   0  0  2  0  0  3  0  0  0  0  0  0
  1 41  1  0  0  0  0
  3 37  1  0  0  0  0
  3 30  2  0  0  0  0
  4 35  1  6  0  0  0
  5 33  1  0  0  0  0
  6 27  2  0  0  0  0
  7 18  1  0  0  0  0
  7  2  1  0  0  0  0
  8 45  2  0  0  0  0
  8  6  1  0  0  0  0
  9 14  1  0  0  0  0
  9 43  1  0  0  0  0
 11 27  1  1  0  0  0
 11 12  1  0  0  0  0
 12 23  1  0  0  0  0
 12 25  1  6  0  0  0
 13 31  1  0  0  0  0
 14 20  1  0  0  0  0
 15 34  1  0  0  0  0
 16 40  1  0  0  0  0
 18 15  2  0  0  0  0
 18 37  1  0  0  0  0
 19 36  1  0  0  0  0
 19 14  2  0  0  0  0
 20 41  2  0  0  0  0
 20 17  1  0  0  0  0
 21 50  1  6  0  0  0
 21  4  1  0  0  0  0
 21 24  1  0  0  0  0
 22 10  2  0  0  0  0
 22 51  1  0  0  0  0
 24 10  1  1  0  0  0
 24 36  1  0  0  0  0
 26 45  1  0  0  0  0
 29 42  1  6  0  0  0
 29 11  1  0  0  0  0
 29 16  1  0  0  0  0
 30 26  1  0  0  0  0
 31 22  1  0  0  0  0
 32  9  2  0  0  0  0
 33  4  1  0  0  0  0
 33 31  2  0  0  0  0
 34 46  1  0  0  0  0
 34 28  2  0  0  0  0
 35  2  1  0  0  0  0
 36  1  2  0  0  0  0
 37 39  2  0  0  0  0
 38 17  1  0  0  0  0
 39 28  1  0  0  0  0
 40 23  1  0  0  0  0
 43 38  2  0  0  0  0
 44  6  1  0  0  0  0
 44 43  1  0  0  0  0
 45 29  1  0  0  0  0
 46 47  1  6  0  0  0
 48 46  1  0  0  0  0
 50 49  1  0  0  0  0
 52 51  1  0  0  0  0
 53 56  2  0  0  0  0
 53 67  1  0  0  0  0
 54 53  1  0  0  0  0
 55 52  1  0  0  0  0
 55 56  1  0  0  0  0
 57 55  2  0  0  0  0
 58 57  1  0  0  0  0
 58 54  1  0  0  0  0
 59 67  1  6  0  0  0
 59 61  1  0  0  0  0
 61 62  1  0  0  0  0
 61 64  1  1  0  0  0
 62 60  1  6  0  0  0
 62 63  1  0  0  0  0
 63 66  1  0  0  0  0
 63 65  1  1  0  0  0
 64 66  1  0  0  0  0
 67 68  1  0  0  0  0
 68 59  1  0  0  0  0
 68 60  1  1  0  0  0
M  END
>  <MODEL>
2

>  <REMARK>
 VINA RESULT:       0.2      3.944     12.309
  Name = 
  6 active torsions:
  status: ('A' for Active; 'I' for Inactive)
    1  A    between atoms: C_10  and  N_57
    2  A    between atoms: C_17  and  C_25
    3  A    between atoms: C_17  and  O_30
    4  A    between atoms: C_20  and  C_54
    5  A    between atoms: O_24  and  C_35
    6  A    between atoms: O_30  and  C_36
                            x       y       z     vdW  Elec       q    Type
                         _______ _______ _______ _____ _____    ______ ____

>  <TORSDO>
F 6

$$$$
