=
 OpenBabel10232412063D

 66 71  0  0  1  0  0  0  0  0999 V2000
  192.3160  173.0570  135.8100 C   0  0  2  0  0  3  0  0  0  0  0  0
  190.1590  172.2980  134.7610 C   0  0  0  0  0  2  0  0  0  0  0  0
  191.6450  172.5540  134.5350 C   0  0  0  0  0  2  0  0  0  0  0  0
  189.4480  173.5020  134.8800 O   0  0  0  0  0  0  0  0  0  0  0  0
  190.6140  174.9450  136.4160 C   0  0  0  0  0  2  0  0  0  0  0  0
  192.0580  174.5720  136.0040 C   0  0  1  0  0  3  0  0  0  0  0  0
  189.5520  173.8560  136.2340 C   0  0  1  0  0  3  0  0  0  0  0  0
  188.2420  174.3410  136.7760 C   0  0  0  0  0  0  0  0  0  0  0  0
  188.1950  175.5850  137.4750 N   0  0  0  0  0  2  0  0  0  0  0  0
  187.1880  173.6610  136.6280 O   0  0  0  0  0  0  0  0  0  0  0  0
  186.7750  177.2350  136.3230 C   0  0  0  0  0  0  0  0  0  0  0  0
  187.0370  176.3820  137.4360 N   0  0  0  0  0  2  0  0  0  0  0  0
  187.7210  177.6330  135.5970 O   0  0  0  0  0  0  0  0  0  0  0  0
  185.3720  177.6690  136.0300 C   0  0  0  0  0  2  0  0  0  0  0  0
  182.3580  176.1070  137.5640 C   0  0  0  0  0  0  0  0  0  0  0  0
  184.4590  177.1900  137.0610 N   0  0  0  0  0  0  0  0  0  0  0  0
  182.0890  177.1260  138.6560 C   0  0  0  0  0  2  0  0  0  0  0  0
  184.5040  177.8010  138.3770 C   0  0  0  0  0  2  0  0  0  0  0  0
  183.4440  176.2240  136.7460 C   0  0  0  0  0  0  0  0  0  0  0  0
  183.1120  178.2900  138.7250 C   0  0  2  0  0  3  0  0  0  0  0  0
  183.1540  179.0280  139.9970 N   0  0  0  0  0  0  0  0  0  0  0  0
  183.7950  178.7230  142.2920 C   0  0  0  0  0  2  0  0  0  0  0  0
  184.2790  178.6700  140.8610 C   0  0  0  0  0  2  0  0  0  0  0  0
  181.9460  178.6890  140.7380 C   0  0  0  0  0  2  0  0  0  0  0  0
  182.2880  178.7050  142.2140 C   0  0  0  0  0  2  0  0  0  0  0  0
  179.9850  175.2100  137.0640 C   0  0  0  0  0  1  0  0  0  0  0  0
  181.8040  173.8030  137.6560 O   0  0  0  0  0  0  0  0  0  0  0  0
  181.4020  174.9840  137.4770 C   0  0  0  0  0  0  0  0  0  0  0  0
  183.6250  175.4470  135.5920 O   0  0  0  0  0  0  0  0  0  0  0  0
  184.2340  174.1470  135.5750 C   0  0  0  0  0  1  0  0  0  0  0  0
  193.7750  172.7100  135.6990 C   0  0  0  0  0  0  0  0  0  0  0  0
  194.4650  173.2380  134.8340 O   0  0  0  0  0  0  0  0  0  0  0  0
  194.3220  171.6070  136.5590 C   0  0  0  0  0  2  0  0  0  0  0  0
  195.2680  170.6950  135.7840 C   0  0  0  0  0  2  0  0  0  0  0  0
  198.6160  169.0450  136.7160 C   0  0  0  0  0  1  0  0  0  0  0  0
  197.2130  170.9910  137.2980 C   0  0  0  0  0  2  0  0  0  0  0  0
  196.3040  169.9630  136.6600 C   0  0  2  0  0  3  0  0  0  0  0  0
  197.7330  170.1480  136.1550 C   0  0  2  0  0  3  0  0  0  0  0  0
  193.1360  175.3210  136.8220 C   0  0  1  0  0  3  0  0  0  0  0  0
  191.5200  176.1460  138.5040 C   0  0  0  0  0  3  0  0  0  0  0  0
  192.5160  176.4130  137.6520 C   0  0  0  0  0  3  0  0  0  0  0  0
  190.1050  178.0150  141.5520 C   0  0  0  0  0  2  0  0  0  0  0  0
  190.7520  176.9970  140.7200 C   0  0  0  0  0  0  0  0  0  0  0  0
  190.2660  177.5120  142.9230 N   0  0  0  0  0  0  0  0  0  0  0  0
  191.0390  175.8300  141.4400 N   0  0  0  0  0  2  0  0  0  0  0  0
  190.9100  177.1330  139.3990 C   0  0  0  0  0  3  0  0  0  0  0  0
  190.6360  176.0860  142.8210 C   0  0  0  0  0  2  0  0  0  0  0  0
  189.0510  177.7100  143.7400 C   0  0  2  0  0  3  0  0  0  0  0  0
  188.0360  177.2280  146.1110 C   0  0  2  0  0  3  0  0  0  0  0  0
  188.9320  176.7490  144.9740 C   0  0  2  0  0  3  0  0  0  0  0  0
  190.2970  177.3730  146.5590 O   0  0  0  0  0  0  0  0  0  0  0  0
  187.4670  178.4790  145.8400 O   0  0  0  0  0  1  0  0  0  0  0  0
  189.0660  177.3090  147.2160 C   0  0  1  0  0  3  0  0  0  0  0  0
  190.1780  176.4950  145.5710 O   0  0  0  0  0  0  0  0  0  0  0  0
  188.8960  178.4570  148.1930 C   0  0  0  0  0  3  0  0  0  0  0  0
  187.9400  178.5150  148.9630 O   0  0  0  0  0  0  0  0  0  0  0  0
  187.8150  177.6560  142.8210 C   0  0  0  0  0  3  0  0  0  0  0  0
  186.9340  176.6460  143.2290 O   0  0  0  0  0  1  0  0  0  0  0  0
  187.1530  178.8830  142.7940 O   0  0  0  0  0  1  0  0  0  0  0  0
  194.0120  174.3800  137.6710 C   0  0  0  0  0  2  0  0  0  0  0  0
  195.3850  174.9760  137.9440 C   0  0  2  0  0  3  0  0  0  0  0  0
  196.1970  175.0590  136.6720 C   0  0  0  0  0  2  0  0  0  0  0  0
  197.5070  174.3160  136.8260 C   0  0  0  0  0  1  0  0  0  0  0  0
  196.1120  174.1390  138.9860 C   0  0  0  0  0  2  0  0  0  0  0  0
  196.1350  174.8820  140.2400 N   0  0  0  0  0  2  0  0  0  0  0  0
  197.4440  175.5070  140.3200 C   0  0  0  0  0  1  0  0  0  0  0  0
  1 31  1  6  0  0  0
  1  6  1  0  0  0  0
  2  4  1  0  0  0  0
  3  2  1  0  0  0  0
  3  1  1  0  0  0  0
  4  7  1  0  0  0  0
  6  5  1  0  0  0  0
  6 39  1  1  0  0  0
  7  5  1  0  0  0  0
  7  8  1  6  0  0  0
  8  9  1  0  0  0  0
 10  8  2  0  0  0  0
 11 12  1  0  0  0  0
 12  9  1  0  0  0  0
 13 11  2  0  0  0  0
 14 11  1  0  0  0  0
 14 16  1  0  0  0  0
 15 17  1  0  0  0  0
 16 18  1  0  0  0  0
 17 20  1  0  0  0  0
 19 16  1  0  0  0  0
 19 15  2  0  0  0  0
 20 18  1  1  0  0  0
 20 21  1  0  0  0  0
 21 24  1  0  0  0  0
 21 23  1  0  0  0  0
 23 22  1  0  0  0  0
 24 25  1  0  0  0  0
 25 22  1  0  0  0  0
 26 28  1  0  0  0  0
 28 15  1  0  0  0  0
 28 27  2  0  0  0  0
 29 19  1  0  0  0  0
 30 29  1  0  0  0  0
 31 33  1  0  0  0  0
 32 31  2  0  0  0  0
 34 33  1  0  0  0  0
 37 34  1  6  0  0  0
 37 36  1  0  0  0  0
 38 37  1  0  0  0  0
 38 35  1  1  0  0  0
 38 36  1  0  0  0  0
 39 41  1  1  0  0  0
 39 60  1  0  0  0  0
 40 46  1  0  0  0  0
 41 40  2  0  0  0  0
 42 44  1  0  0  0  0
 43 45  1  0  0  0  0
 43 42  1  0  0  0  0
 44 48  1  0  0  0  0
 45 47  1  0  0  0  0
 46 43  2  0  0  0  0
 47 44  1  0  0  0  0
 48 57  1  6  0  0  0
 49 52  1  6  0  0  0
 49 53  1  0  0  0  0
 50 48  1  6  0  0  0
 50 54  1  0  0  0  0
 50 49  1  0  0  0  0
 51 53  1  0  0  0  0
 53 55  1  6  0  0  0
 54 51  1  0  0  0  0
 55 56  2  0  0  0  0
 57 58  1  0  0  0  0
 59 57  1  0  0  0  0
 60 61  1  0  0  0  0
 61 62  1  6  0  0  0
 61 64  1  0  0  0  0
 62 63  1  0  0  0  0
 64 65  1  0  0  0  0
 65 66  1  0  0  0  0
M  END
>  <MODEL>
1

>  <REMARK>
 VINA RESULT:      -5.4      0.000      0.000
  Name = 
  23 active torsions:
  status: ('A' for Active; 'I' for Inactive)
    1  A    between atoms: C_1  and  C_11
    2  A    between atoms: N_2  and  C_52
    3  A    between atoms: C_3  and  C_49
    4  A    between atoms: C_4  and  C_11
    5  A    between atoms: C_4  and  C_14
    6  A    between atoms: C_7  and  C_64
    7  A    between atoms: C_9  and  C_45
    8  A    between atoms: C_14  and  C_32
    9  A    between atoms: O_15  and  C_44
   10  A    between atoms: C_18  and  N_20
   11  A    between atoms: C_18  and  C_22
   12  A    between atoms: C_19  and  C_54
   13  A    between atoms: C_21  and  C_25
   14  A    between atoms: C_21  and  C_52
   15  A    between atoms: C_21  and  C_55
   16  A    between atoms: N_24  and  C_48
   17  A    between atoms: C_25  and  C_63
   18  A    between atoms: N_28  and  C_45
   19  A    between atoms: N_30  and  N_53
   20  A    between atoms: C_38  and  C_60
   21  A    between atoms: C_43  and  C_63
   22  A    between atoms: C_45  and  C_46
   23  A    between atoms: C_47  and  C_63
                            x       y       z     vdW  Elec       q    Type
                         _______ _______ _______ _____ _____    ______ ____

>  <TORSDO>
F 23

$$$$
=
 OpenBabel10232412063D

 66 71  0  0  1  0  0  0  0  0999 V2000
  189.8170  177.5400  142.6700 C   0  0  2  0  0  3  0  0  0  0  0  0
  191.0890  177.4060  140.5040 C   0  0  0  0  0  2  0  0  0  0  0  0
  191.0360  178.0290  141.8940 C   0  0  0  0  0  2  0  0  0  0  0  0
  190.1040  177.9520  139.6640 O   0  0  0  0  0  0  0  0  0  0  0  0
  188.0020  177.9680  140.8400 C   0  0  0  0  0  2  0  0  0  0  0  0
  188.5470  178.3170  142.2450 C   0  0  1  0  0  3  0  0  0  0  0  0
  188.9490  177.1960  139.9150 C   0  0  1  0  0  3  0  0  0  0  0  0
  188.2340  176.8490  138.6450 C   0  0  0  0  0  0  0  0  0  0  0  0
  187.7570  177.9000  137.8050 N   0  0  0  0  0  2  0  0  0  0  0  0
  188.0430  175.6440  138.3180 O   0  0  0  0  0  0  0  0  0  0  0  0
  188.8210  177.2690  135.6740 C   0  0  0  0  0  0  0  0  0  0  0  0
  187.6860  177.7220  136.4120 N   0  0  0  0  0  2  0  0  0  0  0  0
  189.9790  177.4400  136.1320 O   0  0  0  0  0  0  0  0  0  0  0  0
  188.6300  176.6040  134.3470 C   0  0  0  0  0  2  0  0  0  0  0  0
  186.9840  173.4100  135.3320 C   0  0  0  0  0  0  0  0  0  0  0  0
  188.4240  175.1700  134.5130 N   0  0  0  0  0  0  0  0  0  0  0  0
  188.1880  172.6890  135.9100 C   0  0  0  0  0  2  0  0  0  0  0  0
  189.5820  174.2950  134.5520 C   0  0  0  0  0  2  0  0  0  0  0  0
  187.1110  174.6450  134.7650 C   0  0  0  0  0  0  0  0  0  0  0  0
  189.5200  173.4780  135.8280 C   0  0  2  0  0  3  0  0  0  0  0  0
  190.7460  172.6760  135.9580 N   0  0  0  0  0  0  0  0  0  0  0  0
  193.1250  172.8760  135.6880 C   0  0  0  0  0  2  0  0  0  0  0  0
  191.9160  173.4350  136.4010 C   0  0  0  0  0  2  0  0  0  0  0  0
  191.0720  172.1590  134.6360 C   0  0  0  0  0  2  0  0  0  0  0  0
  192.5810  172.0750  134.5290 C   0  0  0  0  0  2  0  0  0  0  0  0
  185.1630  172.1740  136.6890 C   0  0  0  0  0  1  0  0  0  0  0  0
  184.9960  172.5650  134.3530 O   0  0  0  0  0  0  0  0  0  0  0  0
  185.7010  172.6800  135.3910 C   0  0  0  0  0  0  0  0  0  0  0  0
  186.0150  175.4480  134.4150 O   0  0  0  0  0  0  0  0  0  0  0  0
  185.1690  176.1240  135.3570 C   0  0  0  0  0  1  0  0  0  0  0  0
  190.1450  177.6850  144.1300 C   0  0  0  0  0  0  0  0  0  0  0  0
  190.2220  178.8010  144.6310 O   0  0  0  0  0  0  0  0  0  0  0  0
  190.5200  176.4580  144.9120 C   0  0  0  0  0  2  0  0  0  0  0  0
  190.7670  176.7730  146.3830 C   0  0  0  0  0  2  0  0  0  0  0  0
  193.6410  176.2690  148.8920 C   0  0  0  0  0  1  0  0  0  0  0  0
  191.8910  174.9960  147.7040 C   0  0  0  0  0  2  0  0  0  0  0  0
  192.1230  176.2700  146.9210 C   0  0  2  0  0  3  0  0  0  0  0  0
  192.1870  176.2800  148.4460 C   0  0  2  0  0  3  0  0  0  0  0  0
  187.4400  178.4030  143.3210 C   0  0  1  0  0  3  0  0  0  0  0  0
  186.0580  179.1750  141.4210 C   0  0  0  0  0  3  0  0  0  0  0  0
  186.1370  178.8510  142.7160 C   0  0  0  0  0  3  0  0  0  0  0  0
  182.7650  179.1610  139.4350 C   0  0  0  0  0  2  0  0  0  0  0  0
  183.9760  178.7100  140.1270 C   0  0  0  0  0  0  0  0  0  0  0  0
  182.0950  177.9140  139.0380 N   0  0  0  0  0  0  0  0  0  0  0  0
  184.2110  177.3420  139.9440 N   0  0  0  0  0  2  0  0  0  0  0  0
  184.8190  179.5520  140.7360 C   0  0  0  0  0  3  0  0  0  0  0  0
  183.0910  176.8300  139.1580 C   0  0  0  0  0  2  0  0  0  0  0  0
  181.5250  177.9920  137.6770 C   0  0  2  0  0  3  0  0  0  0  0  0
  180.0180  179.6260  136.2840 C   0  0  2  0  0  3  0  0  0  0  0  0
  180.2050  178.8330  137.5720 C   0  0  2  0  0  3  0  0  0  0  0  0
  180.5830  180.9130  138.1160 O   0  0  0  0  0  0  0  0  0  0  0  0
  181.0930  179.4560  135.4020 O   0  0  0  0  0  1  0  0  0  0  0  0
  179.9820  181.0240  136.8610 C   0  0  1  0  0  3  0  0  0  0  0  0
  180.0960  179.7800  138.6040 O   0  0  0  0  0  0  0  0  0  0  0  0
  180.6430  182.1010  136.0200 C   0  0  0  0  0  3  0  0  0  0  0  0
  180.0340  183.1090  135.6650 O   0  0  0  0  0  0  0  0  0  0  0  0
  181.3680  176.5640  137.1170 C   0  0  0  0  0  3  0  0  0  0  0  0
  180.0150  176.2190  137.0050 O   0  0  0  0  0  1  0  0  0  0  0  0
  181.9960  176.4380  135.8780 O   0  0  0  0  0  1  0  0  0  0  0  0
  187.2820  177.1010  144.1300 C   0  0  0  0  0  2  0  0  0  0  0  0
  186.4000  177.2980  145.3540 C   0  0  2  0  0  3  0  0  0  0  0  0
  185.7400  178.6580  145.3280 C   0  0  0  0  0  2  0  0  0  0  0  0
  184.3440  178.5850  145.9090 C   0  0  0  0  0  1  0  0  0  0  0  0
  187.2300  177.1350  146.6180 C   0  0  0  0  0  2  0  0  0  0  0  0
  187.2010  178.3930  147.3540 N   0  0  0  0  0  2  0  0  0  0  0  0
  188.3240  178.3520  148.2760 C   0  0  0  0  0  1  0  0  0  0  0  0
  1 31  1  1  0  0  0
  2  3  1  0  0  0  0
  3  1  1  0  0  0  0
  4  7  1  0  0  0  0
  4  2  1  0  0  0  0
  5  6  1  0  0  0  0
  6  1  1  0  0  0  0
  6 39  1  1  0  0  0
  7  8  1  6  0  0  0
  7  5  1  0  0  0  0
  9  8  1  0  0  0  0
 10  8  2  0  0  0  0
 11 13  2  0  0  0  0
 11 12  1  0  0  0  0
 12  9  1  0  0  0  0
 14 16  1  0  0  0  0
 14 11  1  0  0  0  0
 15 28  1  0  0  0  0
 15 17  1  0  0  0  0
 16 18  1  0  0  0  0
 16 19  1  0  0  0  0
 19 15  2  0  0  0  0
 20 18  1  6  0  0  0
 20 17  1  0  0  0  0
 20 21  1  0  0  0  0
 21 23  1  0  0  0  0
 22 23  1  0  0  0  0
 24 21  1  0  0  0  0
 25 24  1  0  0  0  0
 25 22  1  0  0  0  0
 27 28  2  0  0  0  0
 28 26  1  0  0  0  0
 29 19  1  0  0  0  0
 29 30  1  0  0  0  0
 31 32  2  0  0  0  0
 31 33  1  0  0  0  0
 33 34  1  0  0  0  0
 36 38  1  0  0  0  0
 37 34  1  1  0  0  0
 37 36  1  0  0  0  0
 37 38  1  0  0  0  0
 38 35  1  6  0  0  0
 39 41  1  6  0  0  0
 39 60  1  0  0  0  0
 40 41  2  0  0  0  0
 42 43  1  0  0  0  0
 43 46  2  0  0  0  0
 44 47  1  0  0  0  0
 44 42  1  0  0  0  0
 45 43  1  0  0  0  0
 46 40  1  0  0  0  0
 47 45  1  0  0  0  0
 48 57  1  1  0  0  0
 48 44  1  0  0  0  0
 49 52  1  6  0  0  0
 49 53  1  0  0  0  0
 49 50  1  0  0  0  0
 50 48  1  6  0  0  0
 50 54  1  0  0  0  0
 51 54  1  0  0  0  0
 53 55  1  6  0  0  0
 53 51  1  0  0  0  0
 56 55  2  0  0  0  0
 58 57  1  0  0  0  0
 59 57  1  0  0  0  0
 61 60  1  6  0  0  0
 61 64  1  0  0  0  0
 62 61  1  0  0  0  0
 62 63  1  0  0  0  0
 64 65  1  0  0  0  0
 65 66  1  0  0  0  0
M  END
>  <MODEL>
2

>  <REMARK>
 VINA RESULT:      -5.2      3.101      9.837
  Name = 
  23 active torsions:
  status: ('A' for Active; 'I' for Inactive)
    1  A    between atoms: C_1  and  C_11
    2  A    between atoms: N_2  and  C_52
    3  A    between atoms: C_3  and  C_49
    4  A    between atoms: C_4  and  C_11
    5  A    between atoms: C_4  and  C_14
    6  A    between atoms: C_7  and  C_64
    7  A    between atoms: C_9  and  C_45
    8  A    between atoms: C_14  and  C_32
    9  A    between atoms: O_15  and  C_44
   10  A    between atoms: C_18  and  N_20
   11  A    between atoms: C_18  and  C_22
   12  A    between atoms: C_19  and  C_54
   13  A    between atoms: C_21  and  C_25
   14  A    between atoms: C_21  and  C_52
   15  A    between atoms: C_21  and  C_55
   16  A    between atoms: N_24  and  C_48
   17  A    between atoms: C_25  and  C_63
   18  A    between atoms: N_28  and  C_45
   19  A    between atoms: N_30  and  N_53
   20  A    between atoms: C_38  and  C_60
   21  A    between atoms: C_43  and  C_63
   22  A    between atoms: C_45  and  C_46
   23  A    between atoms: C_47  and  C_63
                            x       y       z     vdW  Elec       q    Type
                         _______ _______ _______ _____ _____    ______ ____

>  <TORSDO>
F 23

$$$$
=
 OpenBabel10232412063D

 66 71  0  0  1  0  0  0  0  0999 V2000
  189.6280  177.5540  143.4340 C   0  0  2  0  0  3  0  0  0  0  0  0
  191.8920  177.1700  142.4060 C   0  0  0  0  0  2  0  0  0  0  0  0
  191.1170  177.8830  143.5080 C   0  0  0  0  0  2  0  0  0  0  0  0
  191.6390  177.7460  141.1510 O   0  0  0  0  0  0  0  0  0  0  0  0
  189.2600  178.0250  140.8900 C   0  0  0  0  0  2  0  0  0  0  0  0
  188.9290  178.4130  142.3510 C   0  0  1  0  0  3  0  0  0  0  0  0
  190.4750  177.1130  140.6860 C   0  0  1  0  0  3  0  0  0  0  0  0
  190.5900  176.7510  139.2370 C   0  0  0  0  0  0  0  0  0  0  0  0
  190.8860  175.4010  138.8780 N   0  0  0  0  0  2  0  0  0  0  0  0
  190.4370  177.6230  138.3370 O   0  0  0  0  0  0  0  0  0  0  0  0
  189.1180  175.2390  137.1710 C   0  0  0  0  0  0  0  0  0  0  0  0
  190.3970  174.8590  137.6760 N   0  0  0  0  0  2  0  0  0  0  0  0
  188.2400  175.6870  137.9510 O   0  0  0  0  0  0  0  0  0  0  0  0
  188.8190  175.0890  135.7120 C   0  0  0  0  0  2  0  0  0  0  0  0
  190.5290  171.8800  134.9050 C   0  0  0  0  0  0  0  0  0  0  0  0
  189.7540  174.1610  135.0870 N   0  0  0  0  0  0  0  0  0  0  0  0
  191.9680  172.3630  134.9260 C   0  0  0  0  0  2  0  0  0  0  0  0
  191.0130  174.6710  134.5750 C   0  0  0  0  0  2  0  0  0  0  0  0
  189.4940  172.7490  135.0920 C   0  0  0  0  0  0  0  0  0  0  0  0
  192.1410  173.8780  135.2060 C   0  0  2  0  0  3  0  0  0  0  0  0
  193.4320  174.4570  134.8060 N   0  0  0  0  0  0  0  0  0  0  0  0
  195.4780  175.2600  135.7760 C   0  0  0  0  0  2  0  0  0  0  0  0
  194.5540  174.0700  135.6640 C   0  0  0  0  0  2  0  0  0  0  0  0
  193.3150  175.9050  134.9180 C   0  0  0  0  0  2  0  0  0  0  0  0
  194.6690  176.4510  135.3230 C   0  0  0  0  0  2  0  0  0  0  0  0
  191.4950  169.5440  134.3600 C   0  0  0  0  0  1  0  0  0  0  0  0
  189.1840  169.9340  134.7360 O   0  0  0  0  0  0  0  0  0  0  0  0
  190.3330  170.4400  134.6350 C   0  0  0  0  0  0  0  0  0  0  0  0
  188.1690  172.3340  135.2990 O   0  0  0  0  0  0  0  0  0  0  0  0
  187.5760  172.1240  136.5890 C   0  0  0  0  0  1  0  0  0  0  0  0
  189.0680  177.7630  144.8130 C   0  0  0  0  0  0  0  0  0  0  0  0
  188.7310  178.8850  145.1730 O   0  0  0  0  0  0  0  0  0  0  0  0
  189.0740  176.6110  145.7770 C   0  0  0  0  0  2  0  0  0  0  0  0
  189.5890  177.0210  147.1530 C   0  0  0  0  0  2  0  0  0  0  0  0
  192.9910  175.8020  148.4740 C   0  0  0  0  0  1  0  0  0  0  0  0
  191.6500  175.8580  146.4020 C   0  0  0  0  0  2  0  0  0  0  0  0
  191.1220  176.9540  147.3020 C   0  0  2  0  0  3  0  0  0  0  0  0
  191.5950  175.6290  147.8950 C   0  0  2  0  0  3  0  0  0  0  0  0
  187.4220  178.6660  142.5850 C   0  0  1  0  0  3  0  0  0  0  0  0
  185.3910  179.1200  141.2500 C   0  0  0  0  0  3  0  0  0  0  0  0
  186.7140  178.9300  141.2840 C   0  0  0  0  0  3  0  0  0  0  0  0
  183.0010  179.0670  138.2380 C   0  0  0  0  0  2  0  0  0  0  0  0
  183.7010  178.6840  139.4660 C   0  0  0  0  0  0  0  0  0  0  0  0
  181.9990  178.0070  138.0510 N   0  0  0  0  0  0  0  0  0  0  0  0
  183.3890  177.3790  139.8680 N   0  0  0  0  0  2  0  0  0  0  0  0
  184.6330  179.4520  140.0400 C   0  0  0  0  0  3  0  0  0  0  0  0
  182.3940  176.8810  138.9200 C   0  0  0  0  0  2  0  0  0  0  0  0
  181.8730  177.5970  136.6370 C   0  0  2  0  0  3  0  0  0  0  0  0
  183.1790  175.8450  135.1860 C   0  0  2  0  0  3  0  0  0  0  0  0
  183.2200  177.1540  135.9660 C   0  0  2  0  0  3  0  0  0  0  0  0
  184.2550  175.7000  137.2240 O   0  0  0  0  0  0  0  0  0  0  0  0
  181.9070  175.2570  135.2130 O   0  0  0  0  0  1  0  0  0  0  0  0
  184.1820  175.0490  135.9910 C   0  0  1  0  0  3  0  0  0  0  0  0
  184.2510  176.9880  136.9050 O   0  0  0  0  0  0  0  0  0  0  0  0
  183.8700  173.5730  136.1590 C   0  0  0  0  0  3  0  0  0  0  0  0
  183.0050  173.1800  136.9390 O   0  0  0  0  0  0  0  0  0  0  0  0
  181.1560  178.7140  135.8540 C   0  0  0  0  0  3  0  0  0  0  0  0
  180.8200  178.2810  134.5650 O   0  0  0  0  0  1  0  0  0  0  0  0
  180.0110  179.1440  136.5250 O   0  0  0  0  0  1  0  0  0  0  0  0
  186.7410  177.5460  143.3950 C   0  0  0  0  0  2  0  0  0  0  0  0
  185.7920  178.1020  144.4450 C   0  0  2  0  0  3  0  0  0  0  0  0
  185.9400  177.3560  145.7520 C   0  0  0  0  0  2  0  0  0  0  0  0
  185.6210  178.2600  146.9230 C   0  0  0  0  0  1  0  0  0  0  0  0
  184.3590  178.0140  143.9430 C   0  0  0  0  0  2  0  0  0  0  0  0
  183.8380  179.3680  143.7960 N   0  0  0  0  0  2  0  0  0  0  0  0
  182.3950  179.2670  143.9390 C   0  0  0  0  0  1  0  0  0  0  0  0
  1  3  1  0  0  0  0
  1 31  1  1  0  0  0
  2  3  1  0  0  0  0
  4  2  1  0  0  0  0
  5  6  1  0  0  0  0
  6 39  1  6  0  0  0
  6  1  1  0  0  0  0
  7  8  1  6  0  0  0
  7  5  1  0  0  0  0
  7  4  1  0  0  0  0
  9  8  1  0  0  0  0
 10  8  2  0  0  0  0
 11 12  1  0  0  0  0
 11 13  2  0  0  0  0
 12  9  1  0  0  0  0
 14 11  1  0  0  0  0
 15 17  1  0  0  0  0
 15 19  2  0  0  0  0
 16 19  1  0  0  0  0
 16 14  1  0  0  0  0
 17 20  1  0  0  0  0
 18 16  1  0  0  0  0
 19 29  1  0  0  0  0
 20 18  1  6  0  0  0
 21 24  1  0  0  0  0
 21 20  1  0  0  0  0
 21 23  1  0  0  0  0
 23 22  1  0  0  0  0
 24 25  1  0  0  0  0
 25 22  1  0  0  0  0
 26 28  1  0  0  0  0
 28 27  2  0  0  0  0
 28 15  1  0  0  0  0
 29 30  1  0  0  0  0
 31 32  2  0  0  0  0
 31 33  1  0  0  0  0
 33 34  1  0  0  0  0
 36 37  1  0  0  0  0
 36 38  1  0  0  0  0
 37 34  1  6  0  0  0
 37 38  1  0  0  0  0
 38 35  1  1  0  0  0
 39 41  1  6  0  0  0
 39 60  1  0  0  0  0
 40 41  2  0  0  0  0
 42 43  1  0  0  0  0
 43 45  1  0  0  0  0
 43 46  2  0  0  0  0
 44 42  1  0  0  0  0
 44 47  1  0  0  0  0
 46 40  1  0  0  0  0
 47 45  1  0  0  0  0
 48 57  1  6  0  0  0
 48 44  1  0  0  0  0
 49 52  1  1  0  0  0
 49 50  1  0  0  0  0
 49 53  1  0  0  0  0
 50 48  1  1  0  0  0
 50 54  1  0  0  0  0
 53 55  1  1  0  0  0
 53 51  1  0  0  0  0
 54 51  1  0  0  0  0
 55 56  2  0  0  0  0
 57 59  1  0  0  0  0
 58 57  1  0  0  0  0
 61 60  1  6  0  0  0
 61 62  1  0  0  0  0
 62 63  1  0  0  0  0
 64 61  1  0  0  0  0
 65 66  1  0  0  0  0
 65 64  1  0  0  0  0
M  END
>  <MODEL>
3

>  <REMARK>
 VINA RESULT:      -4.9      2.668     10.470
  Name = 
  23 active torsions:
  status: ('A' for Active; 'I' for Inactive)
    1  A    between atoms: C_1  and  C_11
    2  A    between atoms: N_2  and  C_52
    3  A    between atoms: C_3  and  C_49
    4  A    between atoms: C_4  and  C_11
    5  A    between atoms: C_4  and  C_14
    6  A    between atoms: C_7  and  C_64
    7  A    between atoms: C_9  and  C_45
    8  A    between atoms: C_14  and  C_32
    9  A    between atoms: O_15  and  C_44
   10  A    between atoms: C_18  and  N_20
   11  A    between atoms: C_18  and  C_22
   12  A    between atoms: C_19  and  C_54
   13  A    between atoms: C_21  and  C_25
   14  A    between atoms: C_21  and  C_52
   15  A    between atoms: C_21  and  C_55
   16  A    between atoms: N_24  and  C_48
   17  A    between atoms: C_25  and  C_63
   18  A    between atoms: N_28  and  C_45
   19  A    between atoms: N_30  and  N_53
   20  A    between atoms: C_38  and  C_60
   21  A    between atoms: C_43  and  C_63
   22  A    between atoms: C_45  and  C_46
   23  A    between atoms: C_47  and  C_63
                            x       y       z     vdW  Elec       q    Type
                         _______ _______ _______ _____ _____    ______ ____

>  <TORSDO>
F 23

$$$$
=
 OpenBabel10232412063D

 66 71  0  0  1  0  0  0  0  0999 V2000
  190.2560  177.9430  142.8060 C   0  0  2  0  0  3  0  0  0  0  0  0
  192.1210  177.3880  141.2110 C   0  0  0  0  0  2  0  0  0  0  0  0
  191.6210  178.3640  142.2700 C   0  0  0  0  0  2  0  0  0  0  0  0
  191.4020  177.5260  140.0120 O   0  0  0  0  0  0  0  0  0  0  0  0
  189.0470  177.5700  140.5190 C   0  0  0  0  0  2  0  0  0  0  0  0
  189.1280  178.3770  141.8370 C   0  0  1  0  0  3  0  0  0  0  0  0
  190.2690  176.7130  140.1700 C   0  0  1  0  0  3  0  0  0  0  0  0
  189.9850  175.9220  138.9300 C   0  0  0  0  0  0  0  0  0  0  0  0
  188.8260  176.2330  138.1550 N   0  0  0  0  0  2  0  0  0  0  0  0
  190.7510  174.9840  138.5700 O   0  0  0  0  0  0  0  0  0  0  0  0
  189.7700  176.7100  135.9300 C   0  0  0  0  0  0  0  0  0  0  0  0
  188.8260  176.0370  136.7620 N   0  0  0  0  0  2  0  0  0  0  0  0
  190.3020  177.7810  136.3180 O   0  0  0  0  0  0  0  0  0  0  0  0
  190.1130  176.1470  134.5870 C   0  0  0  0  0  2  0  0  0  0  0  0
  192.1590  173.1140  135.2930 C   0  0  0  0  0  0  0  0  0  0  0  0
  191.2830  175.2800  134.6750 N   0  0  0  0  0  0  0  0  0  0  0  0
  193.3590  173.7800  135.9400 C   0  0  0  0  0  2  0  0  0  0  0  0
  192.5980  175.8850  134.7750 C   0  0  0  0  0  2  0  0  0  0  0  0
  191.1300  173.8570  134.7920 C   0  0  0  0  0  0  0  0  0  0  0  0
  193.2880  175.3280  136.0060 C   0  0  2  0  0  3  0  0  0  0  0  0
  194.5710  176.0180  136.2060 N   0  0  0  0  0  0  0  0  0  0  0  0
  196.1900  177.3040  134.9820 C   0  0  0  0  0  2  0  0  0  0  0  0
  194.7380  177.2220  135.3910 C   0  0  0  0  0  2  0  0  0  0  0  0
  195.6280  175.1010  135.8000 C   0  0  0  0  0  2  0  0  0  0  0  0
  196.7580  175.9250  135.2170 C   0  0  0  0  0  2  0  0  0  0  0  0
  193.3570  170.8720  135.7640 C   0  0  0  0  0  1  0  0  0  0  0  0
  191.2090  171.0070  134.7630 O   0  0  0  0  0  0  0  0  0  0  0  0
  192.2020  171.6400  135.2120 C   0  0  0  0  0  0  0  0  0  0  0  0
  189.9070  173.3010  134.3840 O   0  0  0  0  0  0  0  0  0  0  0  0
  188.6540  174.0010  134.3920 C   0  0  0  0  0  1  0  0  0  0  0  0
  190.1260  178.5410  144.1790 C   0  0  0  0  0  0  0  0  0  0  0  0
  190.7250  179.5730  144.4560 O   0  0  0  0  0  0  0  0  0  0  0  0
  189.3780  177.7730  145.2330 C   0  0  0  0  0  2  0  0  0  0  0  0
  190.0760  176.4640  145.5870 C   0  0  0  0  0  2  0  0  0  0  0  0
  192.7950  175.9240  148.2560 C   0  0  0  0  0  1  0  0  0  0  0  0
  192.3610  175.5310  145.8580 C   0  0  0  0  0  2  0  0  0  0  0  0
  191.4320  176.6400  146.3010 C   0  0  2  0  0  3  0  0  0  0  0  0
  191.7530  175.4800  147.2410 C   0  0  2  0  0  3  0  0  0  0  0  0
  187.7480  178.6020  142.4970 C   0  0  1  0  0  3  0  0  0  0  0  0
  186.2240  178.3500  140.5660 C   0  0  0  0  0  3  0  0  0  0  0  0
  186.7590  179.1430  141.5000 C   0  0  0  0  0  3  0  0  0  0  0  0
  182.9610  178.8330  138.5890 C   0  0  0  0  0  2  0  0  0  0  0  0
  183.9230  178.3880  139.6010 C   0  0  0  0  0  0  0  0  0  0  0  0
  181.6800  178.2730  139.0440 N   0  0  0  0  0  0  0  0  0  0  0  0
  183.3850  177.4130  140.4500 N   0  0  0  0  0  2  0  0  0  0  0  0
  185.2030  178.7760  139.6040 C   0  0  0  0  0  3  0  0  0  0  0  0
  181.9910  177.2350  140.0460 C   0  0  0  0  0  2  0  0  0  0  0  0
  180.8730  177.7380  137.9270 C   0  0  2  0  0  3  0  0  0  0  0  0
  182.3060  175.7610  136.9680 C   0  0  2  0  0  3  0  0  0  0  0  0
  181.0350  176.1970  137.6880 C   0  0  2  0  0  3  0  0  0  0  0  0
  180.4010  175.6700  135.6660 O   0  0  0  0  0  0  0  0  0  0  0  0
  183.1230  176.8520  136.6390 O   0  0  0  0  0  1  0  0  0  0  0  0
  181.6880  175.1340  135.7380 C   0  0  1  0  0  3  0  0  0  0  0  0
  179.9820  175.6650  136.9240 O   0  0  0  0  0  0  0  0  0  0  0  0
  182.4500  175.3360  134.4410 C   0  0  0  0  0  3  0  0  0  0  0  0
  183.6470  175.0720  134.3460 O   0  0  0  0  0  0  0  0  0  0  0  0
  181.1560  178.5710  136.6610 C   0  0  0  0  0  3  0  0  0  0  0  0
  180.0690  178.5210  135.7790 O   0  0  0  0  0  1  0  0  0  0  0  0
  181.4460  179.8960  136.9850 O   0  0  0  0  0  1  0  0  0  0  0  0
  187.2130  177.3510  143.2190 C   0  0  0  0  0  2  0  0  0  0  0  0
  185.9870  177.6650  144.0630 C   0  0  2  0  0  3  0  0  0  0  0  0
  185.5870  179.1150  143.9110 C   0  0  0  0  0  2  0  0  0  0  0  0
  184.1350  179.2280  143.4970 C   0  0  0  0  0  1  0  0  0  0  0  0
  186.2700  177.3420  145.5230 C   0  0  0  0  0  2  0  0  0  0  0  0
  186.4430  178.5960  146.2470 N   0  0  0  0  0  2  0  0  0  0  0  0
  186.7460  178.2350  147.6210 C   0  0  0  0  0  1  0  0  0  0  0  0
  1 31  1  1  0  0  0
  2  3  1  0  0  0  0
  3  1  1  0  0  0  0
  4  7  1  0  0  0  0
  4  2  1  0  0  0  0
  5  6  1  0  0  0  0
  6 39  1  1  0  0  0
  6  1  1  0  0  0  0
  7  8  1  6  0  0  0
  7  5  1  0  0  0  0
  9  8  1  0  0  0  0
 10  8  2  0  0  0  0
 11 13  2  0  0  0  0
 11 12  1  0  0  0  0
 12  9  1  0  0  0  0
 14 16  1  0  0  0  0
 14 11  1  0  0  0  0
 15 17  1  0  0  0  0
 16 18  1  0  0  0  0
 16 19  1  0  0  0  0
 17 20  1  0  0  0  0
 19 15  2  0  0  0  0
 20 18  1  6  0  0  0
 20 21  1  0  0  0  0
 22 25  1  0  0  0  0
 22 23  1  0  0  0  0
 23 21  1  0  0  0  0
 24 21  1  0  0  0  0
 25 24  1  0  0  0  0
 27 28  2  0  0  0  0
 28 15  1  0  0  0  0
 28 26  1  0  0  0  0
 29 30  1  0  0  0  0
 29 19  1  0  0  0  0
 31 32  2  0  0  0  0
 31 33  1  0  0  0  0
 33 34  1  0  0  0  0
 36 37  1  0  0  0  0
 36 38  1  0  0  0  0
 37 34  1  6  0  0  0
 37 38  1  0  0  0  0
 38 35  1  1  0  0  0
 39 41  1  6  0  0  0
 39 60  1  0  0  0  0
 40 41  2  0  0  0  0
 42 44  1  0  0  0  0
 42 43  1  0  0  0  0
 43 46  2  0  0  0  0
 43 45  1  0  0  0  0
 44 47  1  0  0  0  0
 46 40  1  0  0  0  0
 47 45  1  0  0  0  0
 48 57  1  6  0  0  0
 48 44  1  0  0  0  0
 49 52  1  6  0  0  0
 49 50  1  0  0  0  0
 50 48  1  6  0  0  0
 51 53  1  0  0  0  0
 51 54  1  0  0  0  0
 53 55  1  6  0  0  0
 53 49  1  0  0  0  0
 54 50  1  0  0  0  0
 56 55  2  0  0  0  0
 57 59  1  0  0  0  0
 58 57  1  0  0  0  0
 61 60  1  6  0  0  0
 61 64  1  0  0  0  0
 62 61  1  0  0  0  0
 63 62  1  0  0  0  0
 64 65  1  0  0  0  0
 65 66  1  0  0  0  0
M  END
>  <MODEL>
4

>  <REMARK>
 VINA RESULT:      -4.4      2.670     10.464
  Name = 
  23 active torsions:
  status: ('A' for Active; 'I' for Inactive)
    1  A    between atoms: C_1  and  C_11
    2  A    between atoms: N_2  and  C_52
    3  A    between atoms: C_3  and  C_49
    4  A    between atoms: C_4  and  C_11
    5  A    between atoms: C_4  and  C_14
    6  A    between atoms: C_7  and  C_64
    7  A    between atoms: C_9  and  C_45
    8  A    between atoms: C_14  and  C_32
    9  A    between atoms: O_15  and  C_44
   10  A    between atoms: C_18  and  N_20
   11  A    between atoms: C_18  and  C_22
   12  A    between atoms: C_19  and  C_54
   13  A    between atoms: C_21  and  C_25
   14  A    between atoms: C_21  and  C_52
   15  A    between atoms: C_21  and  C_55
   16  A    between atoms: N_24  and  C_48
   17  A    between atoms: C_25  and  C_63
   18  A    between atoms: N_28  and  C_45
   19  A    between atoms: N_30  and  N_53
   20  A    between atoms: C_38  and  C_60
   21  A    between atoms: C_43  and  C_63
   22  A    between atoms: C_45  and  C_46
   23  A    between atoms: C_47  and  C_63
                            x       y       z     vdW  Elec       q    Type
                         _______ _______ _______ _____ _____    ______ ____

>  <TORSDO>
F 23

$$$$
=
 OpenBabel10232412063D

 66 71  0  0  1  0  0  0  0  0999 V2000
  192.2390  172.5680  135.4240 C   0  0  2  0  0  3  0  0  0  0  0  0
  190.1800  171.2220  134.8940 C   0  0  0  0  0  2  0  0  0  0  0  0
  191.6610  171.4240  134.5940 C   0  0  0  0  0  2  0  0  0  0  0  0
  189.4050  172.2560  134.3460 O   0  0  0  0  0  0  0  0  0  0  0  0
  190.4160  174.3680  134.9110 C   0  0  0  0  0  2  0  0  0  0  0  0
  191.8970  173.9360  134.7850 C   0  0  1  0  0  3  0  0  0  0  0  0
  189.4200  173.2750  135.3110 C   0  0  1  0  0  3  0  0  0  0  0  0
  188.0610  173.8790  135.4910 C   0  0  0  0  0  0  0  0  0  0  0  0
  187.0540  173.6350  134.5080 N   0  0  0  0  0  2  0  0  0  0  0  0
  187.8010  174.6040  136.4920 O   0  0  0  0  0  0  0  0  0  0  0  0
  185.3080  173.1890  136.1870 C   0  0  0  0  0  0  0  0  0  0  0  0
  185.6970  173.5890  134.8740 N   0  0  0  0  0  2  0  0  0  0  0  0
  186.0720  172.4710  136.8800 O   0  0  0  0  0  0  0  0  0  0  0  0
  183.9800  173.6140  136.7330 C   0  0  0  0  0  2  0  0  0  0  0  0
  182.7210  176.9950  137.6630 C   0  0  0  0  0  0  0  0  0  0  0  0
  184.0040  175.0250  137.1050 N   0  0  0  0  0  0  0  0  0  0  0  0
  183.6280  177.8380  136.7860 C   0  0  0  0  0  2  0  0  0  0  0  0
  185.1530  175.8290  136.7340 C   0  0  0  0  0  2  0  0  0  0  0  0
  182.8560  175.6380  137.7120 C   0  0  0  0  0  0  0  0  0  0  0  0
  184.6620  177.0340  135.9550 C   0  0  2  0  0  3  0  0  0  0  0  0
  185.8130  177.8000  135.4550 N   0  0  0  0  0  0  0  0  0  0  0  0
  187.9960  177.4540  134.5130 C   0  0  0  0  0  2  0  0  0  0  0  0
  186.5230  177.1600  134.3470 C   0  0  0  0  0  2  0  0  0  0  0  0
  186.7730  177.9070  136.5460 C   0  0  0  0  0  2  0  0  0  0  0  0
  188.1630  177.9080  135.9430 C   0  0  0  0  0  2  0  0  0  0  0  0
  180.9450  177.0530  139.5410 C   0  0  0  0  0  1  0  0  0  0  0  0
  181.6080  178.9810  138.3250 O   0  0  0  0  0  0  0  0  0  0  0  0
  181.7290  177.7350  138.4690 C   0  0  0  0  0  0  0  0  0  0  0  0
  181.9180  174.7930  138.3260 O   0  0  0  0  0  0  0  0  0  0  0  0
  181.2900  173.6740  137.6840 C   0  0  0  0  0  1  0  0  0  0  0  0
  193.7170  172.3160  135.5400 C   0  0  0  0  0  0  0  0  0  0  0  0
  194.3680  172.0290  134.5430 O   0  0  0  0  0  0  0  0  0  0  0  0
  194.3370  172.2760  136.9070 C   0  0  0  0  0  2  0  0  0  0  0  0
  195.8230  172.6160  136.8690 C   0  0  0  0  0  2  0  0  0  0  0  0
  197.7140  174.8520  139.3660 C   0  0  0  0  0  1  0  0  0  0  0  0
  195.4370  174.0380  138.8670 C   0  0  0  0  0  2  0  0  0  0  0  0
  196.4060  173.0700  138.2230 C   0  0  2  0  0  3  0  0  0  0  0  0
  196.7150  174.5650  138.2560 C   0  0  2  0  0  3  0  0  0  0  0  0
  192.8910  175.0760  135.1050 C   0  0  1  0  0  3  0  0  0  0  0  0
  191.9450  175.8010  137.2720 C   0  0  0  0  0  3  0  0  0  0  0  0
  192.9830  175.3060  136.5890 C   0  0  0  0  0  3  0  0  0  0  0  0
  190.9170  176.5470  140.9010 C   0  0  0  0  0  2  0  0  0  0  0  0
  190.8600  176.3490  139.4510 C   0  0  0  0  0  0  0  0  0  0  0  0
  189.5210  176.8020  141.2830 N   0  0  0  0  0  0  0  0  0  0  0  0
  189.6200  176.7220  138.9150 N   0  0  0  0  0  2  0  0  0  0  0  0
  191.9240  175.9900  138.7250 C   0  0  0  0  0  3  0  0  0  0  0  0
  188.7850  177.1240  140.0440 C   0  0  0  0  0  2  0  0  0  0  0  0
  189.4020  177.8770  142.2910 C   0  0  2  0  0  3  0  0  0  0  0  0
  191.3530  177.1310  143.8770 C   0  0  2  0  0  3  0  0  0  0  0  0
  190.7420  178.2350  143.0210 C   0  0  2  0  0  3  0  0  0  0  0  0
  190.3500  178.8220  145.0870 O   0  0  0  0  0  0  0  0  0  0  0  0
  190.5810  175.9620  143.8550 O   0  0  0  0  0  1  0  0  0  0  0  0
  191.3030  177.8110  145.2270 C   0  0  1  0  0  3  0  0  0  0  0  0
  190.5980  179.3310  143.8880 O   0  0  0  0  0  0  0  0  0  0  0  0
  190.9900  176.9100  146.4070 C   0  0  0  0  0  3  0  0  0  0  0  0
  190.2370  177.2670  147.3110 O   0  0  0  0  0  0  0  0  0  0  0  0
  188.2660  177.5210  143.2700 C   0  0  0  0  0  3  0  0  0  0  0  0
  187.0960  178.2230  142.9510 O   0  0  0  0  0  1  0  0  0  0  0  0
  188.0130  176.1490  143.2710 O   0  0  0  0  0  1  0  0  0  0  0  0
  194.2770  174.8640  134.4680 C   0  0  0  0  0  2  0  0  0  0  0  0
  195.3630  175.6380  135.2010 C   0  0  2  0  0  3  0  0  0  0  0  0
  194.8910  177.0350  135.5390 C   0  0  0  0  0  2  0  0  0  0  0  0
  195.7920  178.0710  134.9020 C   0  0  0  0  0  1  0  0  0  0  0  0
  196.6210  175.6950  134.3470 C   0  0  0  0  0  2  0  0  0  0  0  0
  197.7550  175.2940  135.1720 N   0  0  0  0  0  2  0  0  0  0  0  0
  198.1580  173.9800  134.7000 C   0  0  0  0  0  1  0  0  0  0  0  0
  1 31  1  6  0  0  0
  3  2  1  0  0  0  0
  3  1  1  0  0  0  0
  4  2  1  0  0  0  0
  4  7  1  0  0  0  0
  5  7  1  0  0  0  0
  6  5  1  0  0  0  0
  6 39  1  1  0  0  0
  6  1  1  0  0  0  0
  7  8  1  6  0  0  0
  8 10  2  0  0  0  0
  9 12  1  0  0  0  0
  9  8  1  0  0  0  0
 11 14  1  0  0  0  0
 11 13  2  0  0  0  0
 12 11  1  0  0  0  0
 14 16  1  0  0  0  0
 15 19  2  0  0  0  0
 15 28  1  0  0  0  0
 16 19  1  0  0  0  0
 17 15  1  0  0  0  0
 18 16  1  0  0  0  0
 19 29  1  0  0  0  0
 20 21  1  1  0  0  0
 20 18  1  0  0  0  0
 20 17  1  0  0  0  0
 21 24  1  0  0  0  0
 22 25  1  0  0  0  0
 23 22  1  0  0  0  0
 23 21  1  0  0  0  0
 25 24  1  0  0  0  0
 27 28  2  0  0  0  0
 28 26  1  0  0  0  0
 30 29  1  0  0  0  0
 31 33  1  0  0  0  0
 32 31  2  0  0  0  0
 34 33  1  0  0  0  0
 37 34  1  6  0  0  0
 37 38  1  0  0  0  0
 37 36  1  0  0  0  0
 38 36  1  0  0  0  0
 38 35  1  1  0  0  0
 39 60  1  1  0  0  0
 39 41  1  0  0  0  0
 40 46  1  0  0  0  0
 41 40  2  0  0  0  0
 42 44  1  0  0  0  0
 43 42  1  0  0  0  0
 44 48  1  0  0  0  0
 45 43  1  0  0  0  0
 45 47  1  0  0  0  0
 46 43  2  0  0  0  0
 47 44  1  0  0  0  0
 48 57  1  1  0  0  0
 49 52  1  1  0  0  0
 49 53  1  0  0  0  0
 50 48  1  1  0  0  0
 50 49  1  0  0  0  0
 50 54  1  0  0  0  0
 51 53  1  0  0  0  0
 53 55  1  1  0  0  0
 54 51  1  0  0  0  0
 55 56  2  0  0  0  0
 57 59  1  0  0  0  0
 58 57  1  0  0  0  0
 60 61  1  0  0  0  0
 61 64  1  6  0  0  0
 61 62  1  0  0  0  0
 63 62  1  0  0  0  0
 64 65  1  0  0  0  0
 66 65  1  0  0  0  0
M  END
>  <MODEL>
5

>  <REMARK>
 VINA RESULT:      -4.3      2.131      3.626
  Name = 
  23 active torsions:
  status: ('A' for Active; 'I' for Inactive)
    1  A    between atoms: C_1  and  C_11
    2  A    between atoms: N_2  and  C_52
    3  A    between atoms: C_3  and  C_49
    4  A    between atoms: C_4  and  C_11
    5  A    between atoms: C_4  and  C_14
    6  A    between atoms: C_7  and  C_64
    7  A    between atoms: C_9  and  C_45
    8  A    between atoms: C_14  and  C_32
    9  A    between atoms: O_15  and  C_44
   10  A    between atoms: C_18  and  N_20
   11  A    between atoms: C_18  and  C_22
   12  A    between atoms: C_19  and  C_54
   13  A    between atoms: C_21  and  C_25
   14  A    between atoms: C_21  and  C_52
   15  A    between atoms: C_21  and  C_55
   16  A    between atoms: N_24  and  C_48
   17  A    between atoms: C_25  and  C_63
   18  A    between atoms: N_28  and  C_45
   19  A    between atoms: N_30  and  N_53
   20  A    between atoms: C_38  and  C_60
   21  A    between atoms: C_43  and  C_63
   22  A    between atoms: C_45  and  C_46
   23  A    between atoms: C_47  and  C_63
                            x       y       z     vdW  Elec       q    Type
                         _______ _______ _______ _____ _____    ______ ____

>  <TORSDO>
F 23

$$$$
=
 OpenBabel10232412063D

 66 71  0  0  1  0  0  0  0  0999 V2000
  190.2650  177.3820  142.7930 C   0  0  2  0  0  3  0  0  0  0  0  0
  191.2970  177.4840  140.5010 C   0  0  0  0  0  2  0  0  0  0  0  0
  191.3750  177.9870  141.9380 C   0  0  0  0  0  2  0  0  0  0  0  0
  190.2090  178.0550  139.8210 O   0  0  0  0  0  0  0  0  0  0  0  0
  188.2480  177.8830  141.2090 C   0  0  0  0  0  2  0  0  0  0  0  0
  188.9310  178.1370  142.5750 C   0  0  1  0  0  3  0  0  0  0  0  0
  189.1140  177.2320  140.1260 C   0  0  1  0  0  3  0  0  0  0  0  0
  188.2770  176.9610  138.9130 C   0  0  0  0  0  0  0  0  0  0  0  0
  187.6050  178.0480  138.2750 N   0  0  0  0  0  2  0  0  0  0  0  0
  188.1540  175.7890  138.4590 O   0  0  0  0  0  0  0  0  0  0  0  0
  188.4600  177.9590  135.9660 C   0  0  0  0  0  0  0  0  0  0  0  0
  187.3730  178.0250  136.8880 N   0  0  0  0  0  2  0  0  0  0  0  0
  189.6030  178.3550  136.3100 O   0  0  0  0  0  0  0  0  0  0  0  0
  188.2340  177.4310  134.5840 C   0  0  0  0  0  2  0  0  0  0  0  0
  188.1130  173.7320  135.0120 C   0  0  0  0  0  0  0  0  0  0  0  0
  188.6390  176.0330  134.4930 N   0  0  0  0  0  0  0  0  0  0  0  0
  189.5540  173.4910  135.4220 C   0  0  0  0  0  2  0  0  0  0  0  0
  190.0480  175.7190  134.3460 C   0  0  0  0  0  2  0  0  0  0  0  0
  187.6780  174.9810  134.6760 C   0  0  0  0  0  0  0  0  0  0  0  0
  190.4420  174.7620  135.4550 C   0  0  2  0  0  3  0  0  0  0  0  0
  191.8930  174.5270  135.4090 N   0  0  0  0  0  0  0  0  0  0  0  0
  193.9400  175.4240  136.2910 C   0  0  0  0  0  2  0  0  0  0  0  0
  192.5920  174.8480  136.6550 C   0  0  0  0  0  2  0  0  0  0  0  0
  192.4470  175.4110  134.3920 C   0  0  0  0  0  2  0  0  0  0  0  0
  193.8380  175.8160  134.8360 C   0  0  0  0  0  2  0  0  0  0  0  0
  187.5820  171.3110  135.7470 C   0  0  0  0  0  1  0  0  0  0  0  0
  186.1490  172.5820  134.3460 O   0  0  0  0  0  0  0  0  0  0  0  0
  187.2440  172.5390  134.9680 C   0  0  0  0  0  0  0  0  0  0  0  0
  186.3230  175.3040  134.5020 O   0  0  0  0  0  0  0  0  0  0  0  0
  185.4260  175.6440  135.5690 C   0  0  0  0  0  1  0  0  0  0  0  0
  190.7460  177.4190  144.2170 C   0  0  0  0  0  0  0  0  0  0  0  0
  190.4630  178.3720  144.9330 O   0  0  0  0  0  0  0  0  0  0  0  0
  191.6930  176.3520  144.6880 C   0  0  0  0  0  2  0  0  0  0  0  0
  191.0640  175.4630  145.7560 C   0  0  0  0  0  2  0  0  0  0  0  0
  192.6890  175.6080  149.2410 C   0  0  0  0  0  1  0  0  0  0  0  0
  192.4190  176.9640  147.1960 C   0  0  0  0  0  2  0  0  0  0  0  0
  191.3020  175.9430  147.2020 C   0  0  2  0  0  3  0  0  0  0  0  0
  192.6900  175.5730  147.7210 C   0  0  2  0  0  3  0  0  0  0  0  0
  187.9460  178.0850  143.7650 C   0  0  1  0  0  3  0  0  0  0  0  0
  185.6930  178.5230  142.8450 C   0  0  0  0  0  3  0  0  0  0  0  0
  186.5810  177.6400  143.3130 C   0  0  0  0  0  3  0  0  0  0  0  0
  182.6310  177.9420  140.5930 C   0  0  0  0  0  2  0  0  0  0  0  0
  183.9800  178.2910  141.0450 C   0  0  0  0  0  0  0  0  0  0  0  0
  182.6890  178.1100  139.1330 N   0  0  0  0  0  0  0  0  0  0  0  0
  184.7380  178.8940  140.0340 N   0  0  0  0  0  2  0  0  0  0  0  0
  184.3720  178.1690  142.3180 C   0  0  0  0  0  3  0  0  0  0  0  0
  183.9020  178.8970  138.8360 C   0  0  0  0  0  2  0  0  0  0  0  0
  181.4700  178.7470  138.5930 C   0  0  2  0  0  3  0  0  0  0  0  0
  180.2630  176.5690  137.7650 C   0  0  2  0  0  3  0  0  0  0  0  0
  180.7890  177.9580  137.4200 C   0  0  2  0  0  3  0  0  0  0  0  0
  182.2070  176.5630  136.5180 O   0  0  0  0  0  0  0  0  0  0  0  0
  180.4920  176.2400  139.1070 O   0  0  0  0  0  1  0  0  0  0  0  0
  181.1210  175.7440  136.8310 C   0  0  1  0  0  3  0  0  0  0  0  0
  181.6620  177.7600  136.3370 O   0  0  0  0  0  0  0  0  0  0  0  0
  181.5750  174.3990  137.3690 C   0  0  0  0  0  3  0  0  0  0  0  0
  181.0040  173.3540  137.0610 O   0  0  0  0  0  0  0  0  0  0  0  0
  181.7910  180.2080  138.2210 C   0  0  0  0  0  3  0  0  0  0  0  0
  181.1480  180.5720  137.0310 O   0  0  0  0  0  1  0  0  0  0  0  0
  181.4260  181.0800  139.2460 O   0  0  0  0  0  1  0  0  0  0  0  0
  188.4660  177.2390  144.9430 C   0  0  0  0  0  2  0  0  0  0  0  0
  188.1730  177.8930  146.2840 C   0  0  2  0  0  3  0  0  0  0  0  0
  188.1150  176.8580  147.3860 C   0  0  0  0  0  2  0  0  0  0  0  0
  188.1930  177.5200  148.7450 C   0  0  0  0  0  1  0  0  0  0  0  0
  186.8620  178.6610  146.2070 C   0  0  0  0  0  2  0  0  0  0  0  0
  186.0860  178.3690  147.4070 N   0  0  0  0  0  2  0  0  0  0  0  0
  184.6920  178.3420  146.9950 C   0  0  0  0  0  1  0  0  0  0  0  0
  1 31  1  1  0  0  0
  2  3  1  0  0  0  0
  3  1  1  0  0  0  0
  4  7  1  0  0  0  0
  4  2  1  0  0  0  0
  5  6  1  0  0  0  0
  6  1  1  0  0  0  0
  6 39  1  1  0  0  0
  7  8  1  6  0  0  0
  7  5  1  0  0  0  0
  9  8  1  0  0  0  0
 10  8  2  0  0  0  0
 11 13  2  0  0  0  0
 11 12  1  0  0  0  0
 12  9  1  0  0  0  0
 14 11  1  0  0  0  0
 15 17  1  0  0  0  0
 16 14  1  0  0  0  0
 16 19  1  0  0  0  0
 17 20  1  0  0  0  0
 18 16  1  0  0  0  0
 19 15  2  0  0  0  0
 20 18  1  6  0  0  0
 21 20  1  0  0  0  0
 21 23  1  0  0  0  0
 22 23  1  0  0  0  0
 24 25  1  0  0  0  0
 24 21  1  0  0  0  0
 25 22  1  0  0  0  0
 27 28  2  0  0  0  0
 28 15  1  0  0  0  0
 28 26  1  0  0  0  0
 29 19  1  0  0  0  0
 29 30  1  0  0  0  0
 31 33  1  0  0  0  0
 31 32  2  0  0  0  0
 33 34  1  0  0  0  0
 36 37  1  0  0  0  0
 36 38  1  0  0  0  0
 37 34  1  6  0  0  0
 37 38  1  0  0  0  0
 38 35  1  1  0  0  0
 39 41  1  6  0  0  0
 39 60  1  0  0  0  0
 40 41  2  0  0  0  0
 42 43  1  0  0  0  0
 43 46  2  0  0  0  0
 44 42  1  0  0  0  0
 45 43  1  0  0  0  0
 46 40  1  0  0  0  0
 47 44  1  0  0  0  0
 47 45  1  0  0  0  0
 48 57  1  6  0  0  0
 48 44  1  0  0  0  0
 49 52  1  1  0  0  0
 50 49  1  0  0  0  0
 50 48  1  1  0  0  0
 51 53  1  0  0  0  0
 53 55  1  1  0  0  0
 53 49  1  0  0  0  0
 54 51  1  0  0  0  0
 54 50  1  0  0  0  0
 56 55  2  0  0  0  0
 57 59  1  0  0  0  0
 58 57  1  0  0  0  0
 61 60  1  6  0  0  0
 61 62  1  0  0  0  0
 62 63  1  0  0  0  0
 64 61  1  0  0  0  0
 64 65  1  0  0  0  0
 66 65  1  0  0  0  0
M  END
>  <MODEL>
6

>  <REMARK>
 VINA RESULT:      -4.2      3.094      9.657
  Name = 
  23 active torsions:
  status: ('A' for Active; 'I' for Inactive)
    1  A    between atoms: C_1  and  C_11
    2  A    between atoms: N_2  and  C_52
    3  A    between atoms: C_3  and  C_49
    4  A    between atoms: C_4  and  C_11
    5  A    between atoms: C_4  and  C_14
    6  A    between atoms: C_7  and  C_64
    7  A    between atoms: C_9  and  C_45
    8  A    between atoms: C_14  and  C_32
    9  A    between atoms: O_15  and  C_44
   10  A    between atoms: C_18  and  N_20
   11  A    between atoms: C_18  and  C_22
   12  A    between atoms: C_19  and  C_54
   13  A    between atoms: C_21  and  C_25
   14  A    between atoms: C_21  and  C_52
   15  A    between atoms: C_21  and  C_55
   16  A    between atoms: N_24  and  C_48
   17  A    between atoms: C_25  and  C_63
   18  A    between atoms: N_28  and  C_45
   19  A    between atoms: N_30  and  N_53
   20  A    between atoms: C_38  and  C_60
   21  A    between atoms: C_43  and  C_63
   22  A    between atoms: C_45  and  C_46
   23  A    between atoms: C_47  and  C_63
                            x       y       z     vdW  Elec       q    Type
                         _______ _______ _______ _____ _____    ______ ____

>  <TORSDO>
F 23

$$$$
=
 OpenBabel10232412063D

 66 71  0  0  1  0  0  0  0  0999 V2000
  193.2290  175.3140  137.5030 C   0  0  2  0  0  3  0  0  0  0  0  0
  192.8400  177.2160  139.1030 C   0  0  0  0  0  2  0  0  0  0  0  0
  193.5610  175.8920  138.8760 C   0  0  0  0  0  2  0  0  0  0  0  0
  191.4660  177.0180  139.3150 O   0  0  0  0  0  0  0  0  0  0  0  0
  190.6270  175.5260  137.6200 C   0  0  0  0  0  2  0  0  0  0  0  0
  191.8580  174.5930  137.5270 C   0  0  1  0  0  3  0  0  0  0  0  0
  190.9010  176.9770  138.0310 C   0  0  1  0  0  3  0  0  0  0  0  0
  189.6270  177.7630  137.9680 C   0  0  0  0  0  0  0  0  0  0  0  0
  188.3900  177.1090  138.2520 N   0  0  0  0  0  2  0  0  0  0  0  0
  189.6370  178.9880  137.6590 O   0  0  0  0  0  0  0  0  0  0  0  0
  187.4150  178.3190  140.1620 C   0  0  0  0  0  0  0  0  0  0  0  0
  187.3240  177.8210  138.8290 N   0  0  0  0  0  2  0  0  0  0  0  0
  188.2060  177.7870  140.9820 O   0  0  0  0  0  0  0  0  0  0  0  0
  186.5550  179.4670  140.5890 C   0  0  0  0  0  2  0  0  0  0  0  0
  183.1890  179.0380  142.1300 C   0  0  0  0  0  0  0  0  0  0  0  0
  185.5300  179.0230  141.5270 N   0  0  0  0  0  0  0  0  0  0  0  0
  183.5620  179.2620  143.5840 C   0  0  0  0  0  2  0  0  0  0  0  0
  185.9180  178.6920  142.8860 C   0  0  0  0  0  2  0  0  0  0  0  0
  184.1430  179.0370  141.1540 C   0  0  0  0  0  0  0  0  0  0  0  0
  185.0710  179.5130  143.8380 C   0  0  2  0  0  3  0  0  0  0  0  0
  185.5300  179.2950  145.2180 N   0  0  0  0  0  0  0  0  0  0  0  0
  186.4040  177.5540  146.6230 C   0  0  0  0  0  2  0  0  0  0  0  0
  186.6180  178.3240  145.3420 C   0  0  0  0  0  2  0  0  0  0  0  0
  184.4090  178.7490  145.9710 C   0  0  0  0  0  2  0  0  0  0  0  0
  184.9670  177.8030  147.0140 C   0  0  0  0  0  2  0  0  0  0  0  0
  180.6990  179.6280  142.4950 C   0  0  0  0  0  1  0  0  0  0  0  0
  181.4220  177.9310  141.0020 O   0  0  0  0  0  0  0  0  0  0  0  0
  181.7590  178.7910  141.8580 C   0  0  0  0  0  0  0  0  0  0  0  0
  183.8410  179.0540  139.7830 O   0  0  0  0  0  0  0  0  0  0  0  0
  184.2550  178.0490  138.8470 C   0  0  0  0  0  1  0  0  0  0  0  0
  194.3700  174.4120  137.1240 C   0  0  0  0  0  0  0  0  0  0  0  0
  194.6650  173.4640  137.8430 O   0  0  0  0  0  0  0  0  0  0  0  0
  195.2220  174.7830  135.9430 C   0  0  0  0  0  2  0  0  0  0  0  0
  196.5530  174.0370  135.9440 C   0  0  0  0  0  2  0  0  0  0  0  0
  200.0590  174.6150  137.4190 C   0  0  0  0  0  1  0  0  0  0  0  0
  198.6140  175.3670  135.5650 C   0  0  0  0  0  2  0  0  0  0  0  0
  197.7060  174.7960  136.6320 C   0  0  2  0  0  3  0  0  0  0  0  0
  199.0680  174.1630  136.3580 C   0  0  2  0  0  3  0  0  0  0  0  0
  191.6900  173.4680  136.4810 C   0  0  1  0  0  3  0  0  0  0  0  0
  189.2310  173.6210  136.2740 C   0  0  0  0  0  3  0  0  0  0  0  0
  190.4290  173.6620  135.6830 C   0  0  0  0  0  3  0  0  0  0  0  0
  185.5110  174.0100  135.3800 C   0  0  0  0  0  2  0  0  0  0  0  0
  186.7440  173.7740  136.1360 C   0  0  0  0  0  0  0  0  0  0  0  0
  184.4490  173.9240  136.3940 N   0  0  0  0  0  0  0  0  0  0  0  0
  186.4890  173.3010  137.4290 N   0  0  0  0  0  2  0  0  0  0  0  0
  187.9600  173.8690  135.5870 C   0  0  0  0  0  3  0  0  0  0  0  0
  185.0370  173.2760  137.5830 C   0  0  0  0  0  2  0  0  0  0  0  0
  183.2600  173.1980  135.9000 C   0  0  2  0  0  3  0  0  0  0  0  0
  181.0860  174.6370  135.6090 C   0  0  2  0  0  3  0  0  0  0  0  0
  181.8980  173.6990  136.4950 C   0  0  2  0  0  3  0  0  0  0  0  0
  182.1380  175.6810  137.3790 O   0  0  0  0  0  0  0  0  0  0  0  0
  181.7240  174.8890  134.3870 O   0  0  0  0  0  1  0  0  0  0  0  0
  181.0710  175.8610  136.4970 C   0  0  1  0  0  3  0  0  0  0  0  0
  182.0710  174.3960  137.7020 O   0  0  0  0  0  0  0  0  0  0  0  0
  181.1610  177.1960  135.7800 C   0  0  0  0  0  3  0  0  0  0  0  0
  180.2560  177.6010  135.0530 O   0  0  0  0  0  0  0  0  0  0  0  0
  183.4780  171.6850  136.1010 C   0  0  0  0  0  3  0  0  0  0  0  0
  182.2710  171.0460  136.4140 O   0  0  0  0  0  1  0  0  0  0  0  0
  184.0450  171.1030  134.9680 O   0  0  0  0  0  1  0  0  0  0  0  0
  192.9240  173.2960  135.5750 C   0  0  0  0  0  2  0  0  0  0  0  0
  192.8270  172.0460  134.7150 C   0  0  2  0  0  3  0  0  0  0  0  0
  191.3880  171.7510  134.3560 C   0  0  0  0  0  2  0  0  0  0  0  0
  191.0490  170.3060  134.6510 C   0  0  0  0  0  1  0  0  0  0  0  0
  193.4430  170.8650  135.4510 C   0  0  0  0  0  2  0  0  0  0  0  0
  194.7860  170.6460  134.9280 N   0  0  0  0  0  2  0  0  0  0  0  0
  195.6870  170.7460  136.0640 C   0  0  0  0  0  1  0  0  0  0  0  0
  1 31  1  1  0  0  0
  1  6  1  0  0  0  0
  1  3  1  0  0  0  0
  2  4  1  0  0  0  0
  3  2  1  0  0  0  0
  5  7  1  0  0  0  0
  6 39  1  6  0  0  0
  6  5  1  0  0  0  0
  7  8  1  1  0  0  0
  7  4  1  0  0  0  0
  8  9  1  0  0  0  0
  9 12  1  0  0  0  0
 10  8  2  0  0  0  0
 11 14  1  0  0  0  0
 11 13  2  0  0  0  0
 12 11  1  0  0  0  0
 14 16  1  0  0  0  0
 15 17  1  0  0  0  0
 16 18  1  0  0  0  0
 17 20  1  0  0  0  0
 19 16  1  0  0  0  0
 19 15  2  0  0  0  0
 20 18  1  6  0  0  0
 20 21  1  0  0  0  0
 21 23  1  0  0  0  0
 21 24  1  0  0  0  0
 22 25  1  0  0  0  0
 23 22  1  0  0  0  0
 24 25  1  0  0  0  0
 27 28  2  0  0  0  0
 28 15  1  0  0  0  0
 28 26  1  0  0  0  0
 29 19  1  0  0  0  0
 30 29  1  0  0  0  0
 31 32  2  0  0  0  0
 33 34  1  0  0  0  0
 33 31  1  0  0  0  0
 36 38  1  0  0  0  0
 36 37  1  0  0  0  0
 37 34  1  6  0  0  0
 38 37  1  0  0  0  0
 38 35  1  1  0  0  0
 39 60  1  6  0  0  0
 41 40  2  0  0  0  0
 41 39  1  0  0  0  0
 42 43  1  0  0  0  0
 42 44  1  0  0  0  0
 43 45  1  0  0  0  0
 44 47  1  0  0  0  0
 45 47  1  0  0  0  0
 46 43  2  0  0  0  0
 46 40  1  0  0  0  0
 48 57  1  1  0  0  0
 48 44  1  0  0  0  0
 49 52  1  6  0  0  0
 49 50  1  0  0  0  0
 49 53  1  0  0  0  0
 50 48  1  6  0  0  0
 50 54  1  0  0  0  0
 51 54  1  0  0  0  0
 53 55  1  6  0  0  0
 53 51  1  0  0  0  0
 56 55  2  0  0  0  0
 57 58  1  0  0  0  0
 59 57  1  0  0  0  0
 61 62  1  1  0  0  0
 61 64  1  0  0  0  0
 61 60  1  0  0  0  0
 62 63  1  0  0  0  0
 65 64  1  0  0  0  0
 65 66  1  0  0  0  0
M  END
>  <MODEL>
7

>  <REMARK>
 VINA RESULT:      -3.7      2.880      7.185
  Name = 
  23 active torsions:
  status: ('A' for Active; 'I' for Inactive)
    1  A    between atoms: C_1  and  C_11
    2  A    between atoms: N_2  and  C_52
    3  A    between atoms: C_3  and  C_49
    4  A    between atoms: C_4  and  C_11
    5  A    between atoms: C_4  and  C_14
    6  A    between atoms: C_7  and  C_64
    7  A    between atoms: C_9  and  C_45
    8  A    between atoms: C_14  and  C_32
    9  A    between atoms: O_15  and  C_44
   10  A    between atoms: C_18  and  N_20
   11  A    between atoms: C_18  and  C_22
   12  A    between atoms: C_19  and  C_54
   13  A    between atoms: C_21  and  C_25
   14  A    between atoms: C_21  and  C_52
   15  A    between atoms: C_21  and  C_55
   16  A    between atoms: N_24  and  C_48
   17  A    between atoms: C_25  and  C_63
   18  A    between atoms: N_28  and  C_45
   19  A    between atoms: N_30  and  N_53
   20  A    between atoms: C_38  and  C_60
   21  A    between atoms: C_43  and  C_63
   22  A    between atoms: C_45  and  C_46
   23  A    between atoms: C_47  and  C_63
                            x       y       z     vdW  Elec       q    Type
                         _______ _______ _______ _____ _____    ______ ____

>  <TORSDO>
F 23

$$$$
=
 OpenBabel10232412063D

 66 71  0  0  1  0  0  0  0  0999 V2000
  190.6290  176.8440  140.3290 C   0  0  2  0  0  3  0  0  0  0  0  0
  192.9590  177.7240  140.6850 C   0  0  0  0  0  2  0  0  0  0  0  0
  191.4700  178.0390  140.7710 C   0  0  0  0  0  2  0  0  0  0  0  0
  193.3930  177.6770  139.3510 O   0  0  0  0  0  0  0  0  0  0  0  0
  191.8560  176.3260  138.0800 C   0  0  0  0  0  2  0  0  0  0  0  0
  190.5510  176.7690  138.7840 C   0  0  1  0  0  3  0  0  0  0  0  0
  193.1330  176.3650  138.9270 C   0  0  1  0  0  3  0  0  0  0  0  0
  194.2750  175.8080  138.1340 C   0  0  0  0  0  0  0  0  0  0  0  0
  195.2140  174.9460  138.7760 N   0  0  0  0  0  0  0  0  0  0  0  0
  194.4190  176.0990  136.9130 O   0  0  0  0  0  0  0  0  0  0  0  0
  195.4020  173.5520  136.7540 C   0  0  0  0  0  0  0  0  0  0  0  0
  195.8630  173.9310  138.0500 N   0  0  0  0  0  0  0  0  0  0  0  0
  194.2090  173.7680  136.4210 O   0  0  0  0  0  0  0  0  0  0  0  0
  196.3380  172.8830  135.7960 C   0  0  0  0  0  2  0  0  0  0  0  0
  198.0000  169.5800  136.2490 C   0  0  0  0  0  0  0  0  0  0  0  0
  196.5050  171.4750  136.1380 N   0  0  0  0  0  0  0  0  0  0  0  0
  196.9140  168.6850  135.6780 C   0  0  0  0  0  2  0  0  0  0  0  0
  195.3420  170.6070  136.1240 C   0  0  0  0  0  2  0  0  0  0  0  0
  197.8140  170.9270  136.3560 C   0  0  0  0  0  0  0  0  0  0  0  0
  195.6350  169.4290  135.2150 C   0  0  2  0  0  3  0  0  0  0  0  0
  194.4290  168.6000  135.0790 N   0  0  0  0  0  0  0  0  0  0  0  0
  192.0490  168.7340  135.3790 C   0  0  0  0  0  2  0  0  0  0  0  0
  193.2350  169.3400  134.6670 C   0  0  0  0  0  2  0  0  0  0  0  0
  194.1300  168.0440  136.3920 C   0  0  0  0  0  2  0  0  0  0  0  0
  192.6250  167.9210  136.5130 C   0  0  0  0  0  2  0  0  0  0  0  0
  199.2930  168.2390  138.0420 C   0  0  0  0  0  1  0  0  0  0  0  0
  200.2060  168.7770  135.9180 O   0  0  0  0  0  0  0  0  0  0  0  0
  199.2290  168.8970  136.7030 C   0  0  0  0  0  0  0  0  0  0  0  0
  198.8480  171.8240  136.6670 O   0  0  0  0  0  0  0  0  0  0  0  0
  198.7800  172.8160  137.7020 C   0  0  0  0  0  1  0  0  0  0  0  0
  189.2860  176.9910  140.9880 C   0  0  0  0  0  0  0  0  0  0  0  0
  188.5130  177.8640  140.6120 O   0  0  0  0  0  0  0  0  0  0  0  0
  188.9800  176.1550  142.1980 C   0  0  0  0  0  2  0  0  0  0  0  0
  189.3470  176.8720  143.4940 C   0  0  0  0  0  2  0  0  0  0  0  0
  187.9170  177.0960  147.0590 C   0  0  0  0  0  1  0  0  0  0  0  0
  187.3690  177.7160  144.7340 C   0  0  0  0  0  2  0  0  0  0  0  0
  188.3840  176.5970  144.6660 C   0  0  2  0  0  3  0  0  0  0  0  0
  188.4760  177.6570  145.7610 C   0  0  2  0  0  3  0  0  0  0  0  0
  189.2910  176.0690  138.2250 C   0  0  1  0  0  3  0  0  0  0  0  0
  187.6400  177.8570  137.7860 C   0  0  0  0  0  3  0  0  0  0  0  0
  188.0490  176.8490  138.5630 C   0  0  0  0  0  3  0  0  0  0  0  0
  183.9810  178.9350  138.2720 C   0  0  0  0  0  2  0  0  0  0  0  0
  185.1750  178.1070  138.0830 C   0  0  0  0  0  0  0  0  0  0  0  0
  182.8920  177.9600  138.4310 N   0  0  0  0  0  0  0  0  0  0  0  0
  184.8560  176.7630  137.8530 N   0  0  0  0  0  2  0  0  0  0  0  0
  186.4070  178.6200  138.0010 C   0  0  0  0  0  3  0  0  0  0  0  0
  183.4020  176.6590  137.9540 C   0  0  0  0  0  2  0  0  0  0  0  0
  181.6650  178.3690  137.7150 C   0  0  2  0  0  3  0  0  0  0  0  0
  180.1950  179.5750  139.5220 C   0  0  2  0  0  3  0  0  0  0  0  0
  180.3690  178.3750  138.5980 C   0  0  2  0  0  3  0  0  0  0  0  0
  180.8090  177.6280  140.6020 O   0  0  0  0  0  0  0  0  0  0  0  0
  181.2590  180.4800  139.4130 O   0  0  0  0  0  1  0  0  0  0  0  0
  180.2030  178.8600  140.8550 C   0  0  1  0  0  3  0  0  0  0  0  0
  180.2930  177.2520  139.4380 O   0  0  0  0  0  0  0  0  0  0  0  0
  180.8880  179.5940  141.9930 C   0  0  0  0  0  3  0  0  0  0  0  0
  180.4220  180.6280  142.4690 O   0  0  0  0  0  0  0  0  0  0  0  0
  181.5170  177.5080  136.4450 C   0  0  0  0  0  3  0  0  0  0  0  0
  180.1720  177.1960  136.2090 O   0  0  0  0  0  1  0  0  0  0  0  0
  182.0580  178.1540  135.3330 O   0  0  0  0  0  1  0  0  0  0  0  0
  189.3880  175.7650  136.7180 C   0  0  0  0  0  2  0  0  0  0  0  0
  189.3720  174.2700  136.4380 C   0  0  2  0  0  3  0  0  0  0  0  0
  190.6910  173.8190  135.8520 C   0  0  0  0  0  2  0  0  0  0  0  0
  190.5200  172.5270  135.0830 C   0  0  0  0  0  1  0  0  0  0  0  0
  188.2290  173.9350  135.4920 C   0  0  0  0  0  2  0  0  0  0  0  0
  187.4860  172.8100  136.0480 N   0  0  0  0  0  2  0  0  0  0  0  0
  187.9530  172.6480  137.4150 C   0  0  0  0  0  1  0  0  0  0  0  0
  1  3  1  0  0  0  0
  1 31  1  1  0  0  0
  2  3  1  0  0  0  0
  4  2  1  0  0  0  0
  5  6  1  0  0  0  0
  5  7  1  0  0  0  0
  6 39  1  1  0  0  0
  6  1  1  0  0  0  0
  7  8  1  6  0  0  0
  7  4  1  0  0  0  0
  8  9  1  0  0  0  0
 10  8  2  0  0  0  0
 11 12  1  0  0  0  0
 12  9  2  0  0  0  0
 13 11  2  0  0  0  0
 14 16  1  0  0  0  0
 14 11  1  0  0  0  0
 15 19  2  0  0  0  0
 15 28  1  0  0  0  0
 16 19  1  0  0  0  0
 17 15  1  0  0  0  0
 18 16  1  0  0  0  0
 19 29  1  0  0  0  0
 20 21  1  1  0  0  0
 20 17  1  0  0  0  0
 20 18  1  0  0  0  0
 21 24  1  0  0  0  0
 22 25  1  0  0  0  0
 23 21  1  0  0  0  0
 23 22  1  0  0  0  0
 24 25  1  0  0  0  0
 27 28  2  0  0  0  0
 28 26  1  0  0  0  0
 29 30  1  0  0  0  0
 31 33  1  0  0  0  0
 32 31  2  0  0  0  0
 33 34  1  0  0  0  0
 36 38  1  0  0  0  0
 37 34  1  6  0  0  0
 37 36  1  0  0  0  0
 37 38  1  0  0  0  0
 38 35  1  1  0  0  0
 39 60  1  6  0  0  0
 39 41  1  0  0  0  0
 40 46  1  0  0  0  0
 40 41  2  0  0  0  0
 42 44  1  0  0  0  0
 43 42  1  0  0  0  0
 45 47  1  0  0  0  0
 45 43  1  0  0  0  0
 46 43  2  0  0  0  0
 47 44  1  0  0  0  0
 48 57  1  6  0  0  0
 48 44  1  0  0  0  0
 49 52  1  1  0  0  0
 49 53  1  0  0  0  0
 50 48  1  1  0  0  0
 50 54  1  0  0  0  0
 50 49  1  0  0  0  0
 51 53  1  0  0  0  0
 53 55  1  1  0  0  0
 54 51  1  0  0  0  0
 55 56  2  0  0  0  0
 58 57  1  0  0  0  0
 59 57  1  0  0  0  0
 61 64  1  6  0  0  0
 61 60  1  0  0  0  0
 62 61  1  0  0  0  0
 63 62  1  0  0  0  0
 64 65  1  0  0  0  0
 65 66  1  0  0  0  0
M  END
>  <MODEL>
8

>  <REMARK>
 VINA RESULT:      -3.5      2.936     11.257
  Name = 
  23 active torsions:
  status: ('A' for Active; 'I' for Inactive)
    1  A    between atoms: C_1  and  C_11
    2  A    between atoms: N_2  and  C_52
    3  A    between atoms: C_3  and  C_49
    4  A    between atoms: C_4  and  C_11
    5  A    between atoms: C_4  and  C_14
    6  A    between atoms: C_7  and  C_64
    7  A    between atoms: C_9  and  C_45
    8  A    between atoms: C_14  and  C_32
    9  A    between atoms: O_15  and  C_44
   10  A    between atoms: C_18  and  N_20
   11  A    between atoms: C_18  and  C_22
   12  A    between atoms: C_19  and  C_54
   13  A    between atoms: C_21  and  C_25
   14  A    between atoms: C_21  and  C_52
   15  A    between atoms: C_21  and  C_55
   16  A    between atoms: N_24  and  C_48
   17  A    between atoms: C_25  and  C_63
   18  A    between atoms: N_28  and  C_45
   19  A    between atoms: N_30  and  N_53
   20  A    between atoms: C_38  and  C_60
   21  A    between atoms: C_43  and  C_63
   22  A    between atoms: C_45  and  C_46
   23  A    between atoms: C_47  and  C_63
                            x       y       z     vdW  Elec       q    Type
                         _______ _______ _______ _____ _____    ______ ____

>  <TORSDO>
F 23

$$$$
=
 OpenBabel10232412063D

 66 71  0  0  1  0  0  0  0  0999 V2000
  184.1860  178.1960  137.7690 C   0  0  2  0  0  3  0  0  0  0  0  0
  185.6990  177.5530  135.8650 C   0  0  0  0  0  2  0  0  0  0  0  0
  184.5210  178.4180  136.2960 C   0  0  0  0  0  2  0  0  0  0  0  0
  185.3290  176.2010  135.7670 O   0  0  0  0  0  0  0  0  0  0  0  0
  184.1130  175.5840  137.7520 C   0  0  0  0  0  2  0  0  0  0  0  0
  183.3410  176.9110  137.9520 C   0  0  1  0  0  3  0  0  0  0  0  0
  185.4780  175.6870  137.0640 C   0  0  1  0  0  3  0  0  0  0  0  0
  186.1310  174.3390  137.0470 C   0  0  0  0  0  0  0  0  0  0  0  0
  186.7210  173.8660  135.8350 N   0  0  0  0  0  2  0  0  0  0  0  0
  186.1580  173.6180  138.0840 O   0  0  0  0  0  0  0  0  0  0  0  0
  189.1140  173.4550  135.4180 C   0  0  0  0  0  0  0  0  0  0  0  0
  187.8360  173.0100  135.8720 N   0  0  0  0  0  2  0  0  0  0  0  0
  189.1970  174.4030  134.5970 O   0  0  0  0  0  0  0  0  0  0  0  0
  190.3560  172.7790  135.9100 C   0  0  0  0  0  2  0  0  0  0  0  0
  193.7490  174.1440  136.6220 C   0  0  0  0  0  0  0  0  0  0  0  0
  191.4070  173.7570  136.1690 N   0  0  0  0  0  0  0  0  0  0  0  0
  193.3780  175.1630  137.6840 C   0  0  0  0  0  2  0  0  0  0  0  0
  191.0440  175.0430  136.7350 C   0  0  0  0  0  2  0  0  0  0  0  0
  192.7880  173.4080  135.9910 C   0  0  0  0  0  0  0  0  0  0  0  0
  191.8620  175.2590  137.9940 C   0  0  2  0  0  3  0  0  0  0  0  0
  191.4230  176.4940  138.6600 N   0  0  0  0  0  0  0  0  0  0  0  0
  191.3940  177.5120  140.8360 C   0  0  0  0  0  2  0  0  0  0  0  0
  192.2810  176.9150  139.7690 C   0  0  0  0  0  2  0  0  0  0  0  0
  190.1090  176.2380  139.2350 C   0  0  0  0  0  2  0  0  0  0  0  0
  189.9940  177.0500  140.5090 C   0  0  0  0  0  2  0  0  0  0  0  0
  196.1070  173.2310  137.1620 C   0  0  0  0  0  1  0  0  0  0  0  0
  195.6330  174.5400  135.2390 O   0  0  0  0  0  0  0  0  0  0  0  0
  195.1870  174.0340  136.3030 C   0  0  0  0  0  0  0  0  0  0  0  0
  193.0780  172.3080  135.1680 O   0  0  0  0  0  0  0  0  0  0  0  0
  193.7300  171.1100  135.6140 C   0  0  0  0  0  1  0  0  0  0  0  0
  183.4910  179.4390  138.2490 C   0  0  0  0  0  0  0  0  0  0  0  0
  183.9750  180.0980  139.1620 O   0  0  0  0  0  0  0  0  0  0  0  0
  182.1330  179.7660  137.6950 C   0  0  0  0  0  2  0  0  0  0  0  0
  181.4360  180.8580  138.5010 C   0  0  0  0  0  2  0  0  0  0  0  0
  180.2590  183.4280  135.8900 C   0  0  0  0  0  1  0  0  0  0  0  0
  180.1350  182.9640  138.3120 C   0  0  0  0  0  2  0  0  0  0  0  0
  181.3370  182.2160  137.7780 C   0  0  2  0  0  3  0  0  0  0  0  0
  180.0690  182.3400  136.9370 C   0  0  2  0  0  3  0  0  0  0  0  0
  182.4260  176.8990  139.1970 C   0  0  1  0  0  3  0  0  0  0  0  0
  183.0200  177.5280  141.5140 C   0  0  0  0  0  3  0  0  0  0  0  0
  182.9130  177.8810  140.2290 C   0  0  0  0  0  3  0  0  0  0  0  0
  185.1940  179.1470  144.2410 C   0  0  0  0  0  2  0  0  0  0  0  0
  184.7380  178.2570  143.1700 C   0  0  0  0  0  0  0  0  0  0  0  0
  186.5730  178.7110  144.5040 N   0  0  0  0  0  0  0  0  0  0  0  0
  185.6130  177.1830  142.9660 N   0  0  0  0  0  2  0  0  0  0  0  0
  183.5500  178.3950  142.5700 C   0  0  0  0  0  3  0  0  0  0  0  0
  186.7340  177.3830  143.8810 C   0  0  0  0  0  2  0  0  0  0  0  0
  186.8880  178.6870  145.9480 C   0  0  2  0  0  3  0  0  0  0  0  0
  188.5330  177.4350  147.5640 C   0  0  2  0  0  3  0  0  0  0  0  0
  187.4860  177.3310  146.4600 C   0  0  2  0  0  3  0  0  0  0  0  0
  189.3960  176.9240  145.4840 O   0  0  0  0  0  0  0  0  0  0  0  0
  188.7790  178.7660  147.9290 O   0  0  0  0  0  1  0  0  0  0  0  0
  189.7130  176.8260  146.8400 C   0  0  1  0  0  3  0  0  0  0  0  0
  188.1090  176.6040  145.4330 O   0  0  0  0  0  0  0  0  0  0  0  0
  191.0640  177.4460  147.1430 C   0  0  0  0  0  3  0  0  0  0  0  0
  191.7450  177.0780  148.0980 O   0  0  0  0  0  0  0  0  0  0  0  0
  185.6400  179.1250  146.7400 C   0  0  0  0  0  3  0  0  0  0  0  0
  184.8920  178.0130  147.1460 O   0  0  0  0  0  1  0  0  0  0  0  0
  185.9920  179.8930  147.8500 O   0  0  0  0  0  1  0  0  0  0  0  0
  180.9390  177.1130  138.8550 C   0  0  0  0  0  2  0  0  0  0  0  0
  180.3670  175.9500  138.0590 C   0  0  2  0  0  3  0  0  0  0  0  0
  180.2920  174.7020  138.9090 C   0  0  0  0  0  2  0  0  0  0  0  0
  180.5400  173.4670  138.0680 C   0  0  0  0  0  1  0  0  0  0  0  0
  181.2220  175.7010  136.8250 C   0  0  0  0  0  2  0  0  0  0  0  0
  180.7680  176.5920  135.7630 N   0  0  0  0  0  2  0  0  0  0  0  0
  180.9900  175.8830  134.5140 C   0  0  0  0  0  1  0  0  0  0  0  0
  1  6  1  0  0  0  0
  1 31  1  6  0  0  0
  2  3  1  0  0  0  0
  3  1  1  0  0  0  0
  4  2  1  0  0  0  0
  4  7  1  0  0  0  0
  5  6  1  0  0  0  0
  6 39  1  1  0  0  0
  7  8  1  6  0  0  0
  7  5  1  0  0  0  0
  8 10  2  0  0  0  0
  9 12  1  0  0  0  0
  9  8  1  0  0  0  0
 11 12  1  0  0  0  0
 11 14  1  0  0  0  0
 13 11  2  0  0  0  0
 14 16  1  0  0  0  0
 15 17  1  0  0  0  0
 16 18  1  0  0  0  0
 17 20  1  0  0  0  0
 19 16  1  0  0  0  0
 19 15  2  0  0  0  0
 20 18  1  6  0  0  0
 20 21  1  0  0  0  0
 21 24  1  0  0  0  0
 21 23  1  0  0  0  0
 23 22  1  0  0  0  0
 24 25  1  0  0  0  0
 25 22  1  0  0  0  0
 27 28  2  0  0  0  0
 28 15  1  0  0  0  0
 28 26  1  0  0  0  0
 29 30  1  0  0  0  0
 29 19  1  0  0  0  0
 31 32  2  0  0  0  0
 33 31  1  0  0  0  0
 33 34  1  0  0  0  0
 37 36  1  0  0  0  0
 37 34  1  1  0  0  0
 38 35  1  6  0  0  0
 38 37  1  0  0  0  0
 38 36  1  0  0  0  0
 39 60  1  6  0  0  0
 39 41  1  0  0  0  0
 40 46  1  0  0  0  0
 41 40  2  0  0  0  0
 42 44  1  0  0  0  0
 43 42  1  0  0  0  0
 44 48  1  0  0  0  0
 45 43  1  0  0  0  0
 45 47  1  0  0  0  0
 46 43  2  0  0  0  0
 47 44  1  0  0  0  0
 48 57  1  1  0  0  0
 49 52  1  6  0  0  0
 50 48  1  6  0  0  0
 50 49  1  0  0  0  0
 51 53  1  0  0  0  0
 53 55  1  6  0  0  0
 53 49  1  0  0  0  0
 54 51  1  0  0  0  0
 54 50  1  0  0  0  0
 55 56  2  0  0  0  0
 57 58  1  0  0  0  0
 57 59  1  0  0  0  0
 61 64  1  6  0  0  0
 61 60  1  0  0  0  0
 61 62  1  0  0  0  0
 63 62  1  0  0  0  0
 65 64  1  0  0  0  0
 66 65  1  0  0  0  0
M  END
>  <MODEL>
9

>  <REMARK>
 VINA RESULT:      -3.5      2.391     10.549
  Name = 
  23 active torsions:
  status: ('A' for Active; 'I' for Inactive)
    1  A    between atoms: C_1  and  C_11
    2  A    between atoms: N_2  and  C_52
    3  A    between atoms: C_3  and  C_49
    4  A    between atoms: C_4  and  C_11
    5  A    between atoms: C_4  and  C_14
    6  A    between atoms: C_7  and  C_64
    7  A    between atoms: C_9  and  C_45
    8  A    between atoms: C_14  and  C_32
    9  A    between atoms: O_15  and  C_44
   10  A    between atoms: C_18  and  N_20
   11  A    between atoms: C_18  and  C_22
   12  A    between atoms: C_19  and  C_54
   13  A    between atoms: C_21  and  C_25
   14  A    between atoms: C_21  and  C_52
   15  A    between atoms: C_21  and  C_55
   16  A    between atoms: N_24  and  C_48
   17  A    between atoms: C_25  and  C_63
   18  A    between atoms: N_28  and  C_45
   19  A    between atoms: N_30  and  N_53
   20  A    between atoms: C_38  and  C_60
   21  A    between atoms: C_43  and  C_63
   22  A    between atoms: C_45  and  C_46
   23  A    between atoms: C_47  and  C_63
                            x       y       z     vdW  Elec       q    Type
                         _______ _______ _______ _____ _____    ______ ____

>  <TORSDO>
F 23

$$$$
