=
 OpenBabel10232411023D

 26 29  0  0  1  0  0  0  0  0999 V2000
  188.1740  177.0420  146.4000 C   0  0  1  0  0  3  0  0  0  0  0  0
  186.4580  178.7980  146.5050 C   0  0  0  0  0  3  0  0  0  0  0  0
  186.4050  177.2040  144.5270 C   0  0  1  0  0  3  0  0  0  0  0  0
  187.3490  176.2990  143.8540 N   0  0  0  0  0  0  0  0  0  0  0  0
  189.5910  178.0760  148.5550 N   0  0  0  0  0  2  0  0  0  0  0  0
  189.1850  177.9530  143.5680 C   0  0  2  0  0  3  0  0  0  0  0  0
  189.2950  175.7490  142.6780 O   0  0  0  0  0  0  0  0  0  0  0  0
  184.1850  178.8650  145.4620 C   0  0  0  0  0  2  0  0  0  0  0  0
  186.9740  177.7460  145.8310 C   0  0  0  0  0  0  0  0  0  0  0  0
  189.4350  177.8420  146.2080 C   0  0  0  0  0  0  0  0  0  0  0  0
  190.3960  176.4190  142.0970 C   0  0  0  0  0  2  0  0  0  0  0  0
  189.9820  178.1230  144.8580 C   0  0  0  0  0  0  0  0  0  0  0  0
  188.2710  177.6460  148.7790 N   0  0  0  0  0  2  0  0  0  0  0  0
  188.5430  176.6150  143.4380 C   0  0  0  0  0  0  0  0  0  0  0  0
  190.1450  177.9060  142.3730 C   0  0  0  0  0  2  0  0  0  0  0  0
  190.0760  178.2820  147.2520 N   0  0  0  0  0  0  0  0  0  0  0  0
  187.9910  176.5620  147.8450 C   0  0  0  0  0  2  0  0  0  0  0  0
  191.1380  178.6280  144.7900 O   0  0  0  0  0  0  0  0  0  0  0  0
  185.8490  178.2970  143.5860 C   0  0  2  0  0  3  0  0  0  0  0  0
  185.3140  179.6740  146.0730 C   0  0  0  0  0  2  0  0  0  0  0  0
  184.4070  178.6790  143.9630 C   0  0  0  0  0  2  0  0  0  0  0  0
  185.9360  177.9320  142.0990 C   0  0  1  0  0  3  0  0  0  0  0  0
  184.6610  177.7810  141.5440 O   0  0  0  0  0  1  0  0  0  0  0  0
  186.7330  178.9780  141.3300 C   0  0  0  0  0  2  0  0  0  0  0  0
  186.7150  178.5470  138.9780 O   0  0  0  0  0  1  0  0  0  0  0  0
  187.4520  178.3510  140.1460 C   0  0  0  0  0  2  0  0  0  0  0  0
  1 17  1  1  0  0  0
  3  4  1  6  0  0  0
  3  9  1  0  0  0  0
  5 13  1  0  0  0  0
  6 15  1  6  0  0  0
  6 12  1  0  0  0  0
  7 14  1  0  0  0  0
  8 20  1  0  0  0  0
  9  1  1  0  0  0  0
  9  2  2  0  0  0  0
 10  1  1  0  0  0  0
 10 16  2  0  0  0  0
 11 15  1  0  0  0  0
 11  7  1  0  0  0  0
 12 10  1  0  0  0  0
 14  6  1  0  0  0  0
 14  4  2  0  0  0  0
 16  5  1  0  0  0  0
 17 13  1  0  0  0  0
 18 12  2  0  0  0  0
 19 22  1  6  0  0  0
 19 21  1  0  0  0  0
 19  3  1  0  0  0  0
 20  2  1  0  0  0  0
 21  8  1  0  0  0  0
 22 23  1  6  0  0  0
 24 22  1  0  0  0  0
 25 26  1  0  0  0  0
 26 24  1  0  0  0  0
M  END
>  <MODEL>
1

>  <REMARK>
 VINA RESULT:      -7.6      0.000      0.000
  Name = 
  3 active torsions:
  status: ('A' for Active; 'I' for Inactive)
    1  A    between atoms: C_3  and  C_14
    2  A    between atoms: C_3  and  C_24
    3  A    between atoms: C_14  and  C_23
                            x       y       z     vdW  Elec       q    Type
                         _______ _______ _______ _____ _____    ______ ____

>  <TORSDO>
F 3

$$$$
=
 OpenBabel10232411023D

 26 29  0  0  1  0  0  0  0  0999 V2000
  189.2790  176.7960  145.7520 C   0  0  1  0  0  3  0  0  0  0  0  0
  187.7790  178.3990  146.8560 C   0  0  0  0  0  3  0  0  0  0  0  0
  186.8810  177.1210  144.8520 C   0  0  1  0  0  3  0  0  0  0  0  0
  187.4450  176.3920  143.7050 N   0  0  0  0  0  0  0  0  0  0  0  0
  191.4830  177.5850  147.2480 N   0  0  0  0  0  2  0  0  0  0  0  0
  188.9920  178.1880  142.9490 C   0  0  2  0  0  3  0  0  0  0  0  0
  188.7030  176.1540  141.7470 O   0  0  0  0  0  0  0  0  0  0  0  0
  185.2790  178.4730  146.8930 C   0  0  0  0  0  2  0  0  0  0  0  0
  187.9540  177.4970  145.8650 C   0  0  0  0  0  0  0  0  0  0  0  0
  190.3420  177.6970  145.1810 C   0  0  0  0  0  0  0  0  0  0  0  0
  189.4540  176.9750  140.8750 C   0  0  0  0  0  2  0  0  0  0  0  0
  190.2630  178.2140  143.7930 C   0  0  0  0  0  0  0  0  0  0  0  0
  190.3820  177.0400  147.9320 N   0  0  0  0  0  2  0  0  0  0  0  0
  188.3500  176.8450  142.8840 C   0  0  0  0  0  0  0  0  0  0  0  0
  189.3520  178.3840  141.4710 C   0  0  0  0  0  2  0  0  0  0  0  0
  191.3680  178.0160  145.9150 N   0  0  0  0  0  0  0  0  0  0  0  0
  189.7270  176.0930  147.0390 C   0  0  0  0  0  2  0  0  0  0  0  0
  191.2830  178.7970  143.3280 O   0  0  0  0  0  0  0  0  0  0  0  0
  185.9830  178.3040  144.4260 C   0  0  2  0  0  3  0  0  0  0  0  0
  186.5650  179.2530  147.0950 C   0  0  0  0  0  2  0  0  0  0  0  0
  184.8400  178.5290  145.4310 C   0  0  0  0  0  2  0  0  0  0  0  0
  185.4260  178.1740  143.0020 C   0  0  1  0  0  3  0  0  0  0  0  0
  184.0330  178.0590  143.0170 O   0  0  0  0  0  1  0  0  0  0  0  0
  185.8570  179.3550  142.1410 C   0  0  0  0  0  2  0  0  0  0  0  0
  184.7850  179.6850  140.0300 O   0  0  0  0  0  1  0  0  0  0  0  0
  185.8170  178.9950  140.6650 C   0  0  0  0  0  2  0  0  0  0  0  0
  1  9  1  0  0  0  0
  1 17  1  1  0  0  0
  2 20  1  0  0  0  0
  3  4  1  6  0  0  0
  3  9  1  0  0  0  0
  5 13  1  0  0  0  0
  6 15  1  6  0  0  0
  6 12  1  0  0  0  0
  7 14  1  0  0  0  0
  8 20  1  0  0  0  0
  9  2  2  0  0  0  0
 10  1  1  0  0  0  0
 10 16  2  0  0  0  0
 11 15  1  0  0  0  0
 11  7  1  0  0  0  0
 12 10  1  0  0  0  0
 14  6  1  0  0  0  0
 14  4  2  0  0  0  0
 16  5  1  0  0  0  0
 17 13  1  0  0  0  0
 18 12  2  0  0  0  0
 19 22  1  6  0  0  0
 19  3  1  0  0  0  0
 19 21  1  0  0  0  0
 21  8  1  0  0  0  0
 22 23  1  1  0  0  0
 24 22  1  0  0  0  0
 25 26  1  0  0  0  0
 26 24  1  0  0  0  0
M  END
>  <MODEL>
2

>  <REMARK>
 VINA RESULT:      -7.4      1.337      1.515
  Name = 
  3 active torsions:
  status: ('A' for Active; 'I' for Inactive)
    1  A    between atoms: C_3  and  C_14
    2  A    between atoms: C_3  and  C_24
    3  A    between atoms: C_14  and  C_23
                            x       y       z     vdW  Elec       q    Type
                         _______ _______ _______ _____ _____    ______ ____

>  <TORSDO>
F 3

$$$$
=
 OpenBabel10232411023D

 26 29  0  0  1  0  0  0  0  0999 V2000
  187.4620  177.2350  145.4730 C   0  0  1  0  0  3  0  0  0  0  0  0
  185.9920  179.0830  144.7930 C   0  0  0  0  0  3  0  0  0  0  0  0
  186.6700  177.3930  143.0210 C   0  0  1  0  0  3  0  0  0  0  0  0
  187.7440  176.4040  142.8370 N   0  0  0  0  0  0  0  0  0  0  0  0
  187.9010  178.3030  148.0000 N   0  0  0  0  0  2  0  0  0  0  0  0
  189.6400  177.9410  143.3210 C   0  0  2  0  0  3  0  0  0  0  0  0
  189.9610  175.6900  142.6180 O   0  0  0  0  0  0  0  0  0  0  0  0
  184.3870  179.2170  142.8790 C   0  0  0  0  0  2  0  0  0  0  0  0
  186.6690  177.9710  144.4290 C   0  0  0  0  0  0  0  0  0  0  0  0
  188.7390  177.9550  145.8180 C   0  0  0  0  0  0  0  0  0  0  0  0
  191.2490  176.2690  142.5460 C   0  0  0  0  0  2  0  0  0  0  0  0
  189.8250  178.1360  144.8230 C   0  0  0  0  0  0  0  0  0  0  0  0
  186.5840  177.9570  147.6500 N   0  0  0  0  0  2  0  0  0  0  0  0
  189.0210  176.6340  142.9630 C   0  0  0  0  0  0  0  0  0  0  0  0
  191.0110  177.7800  142.6520 C   0  0  0  0  0  2  0  0  0  0  0  0
  188.9060  178.4140  147.0240 N   0  0  0  0  0  0  0  0  0  0  0  0
  186.6500  176.8420  146.7140 C   0  0  0  0  0  2  0  0  0  0  0  0
  190.9330  178.5730  145.2430 O   0  0  0  0  0  0  0  0  0  0  0  0
  186.6440  178.4630  141.9060 C   0  0  2  0  0  3  0  0  0  0  0  0
  185.2050  179.9950  143.8930 C   0  0  0  0  0  2  0  0  0  0  0  0
  185.2100  178.9410  141.6220 C   0  0  0  0  0  2  0  0  0  0  0  0
  187.3280  178.0170  140.6070 C   0  0  1  0  0  3  0  0  0  0  0  0
  186.4430  178.0840  139.5270 O   0  0  0  0  0  1  0  0  0  0  0  0
  188.5720  178.8520  140.3340 C   0  0  0  0  0  2  0  0  0  0  0  0
  189.0200  179.4900  138.0740 O   0  0  0  0  0  1  0  0  0  0  0  0
  189.2030  178.4690  139.0060 C   0  0  0  0  0  2  0  0  0  0  0  0
  1 10  1  0  0  0  0
  1 17  1  1  0  0  0
  3  4  1  6  0  0  0
  3  9  1  0  0  0  0
  4 14  2  0  0  0  0
  6 15  1  6  0  0  0
  6 12  1  0  0  0  0
  7 14  1  0  0  0  0
  8 20  1  0  0  0  0
  9  2  2  0  0  0  0
  9  1  1  0  0  0  0
 10 16  2  0  0  0  0
 11  7  1  0  0  0  0
 11 15  1  0  0  0  0
 12 18  2  0  0  0  0
 12 10  1  0  0  0  0
 13  5  1  0  0  0  0
 14  6  1  0  0  0  0
 16  5  1  0  0  0  0
 17 13  1  0  0  0  0
 19 22  1  6  0  0  0
 19  3  1  0  0  0  0
 20  2  1  0  0  0  0
 21 19  1  0  0  0  0
 21  8  1  0  0  0  0
 22 23  1  6  0  0  0
 24 22  1  0  0  0  0
 25 26  1  0  0  0  0
 26 24  1  0  0  0  0
M  END
>  <MODEL>
3

>  <REMARK>
 VINA RESULT:      -5.8      1.221      1.698
  Name = 
  3 active torsions:
  status: ('A' for Active; 'I' for Inactive)
    1  A    between atoms: C_3  and  C_14
    2  A    between atoms: C_3  and  C_24
    3  A    between atoms: C_14  and  C_23
                            x       y       z     vdW  Elec       q    Type
                         _______ _______ _______ _____ _____    ______ ____

>  <TORSDO>
F 3

$$$$
=
 OpenBabel10232411023D

 26 29  0  0  1  0  0  0  0  0999 V2000
  188.8560  176.5710  143.0720 C   0  0  1  0  0  3  0  0  0  0  0  0
  189.6180  177.5670  145.1860 C   0  0  0  0  0  3  0  0  0  0  0  0
  187.1500  177.0080  144.9600 C   0  0  1  0  0  3  0  0  0  0  0  0
  186.2000  176.7720  143.8610 N   0  0  0  0  0  0  0  0  0  0  0  0
  191.3090  176.9500  141.8240 N   0  0  0  0  0  2  0  0  0  0  0  0
  186.7310  178.8300  142.5690 C   0  0  2  0  0  3  0  0  0  0  0  0
  184.9940  177.3310  141.9360 O   0  0  0  0  0  0  0  0  0  0  0  0
  188.5980  177.4330  147.4660 C   0  0  0  0  0  2  0  0  0  0  0  0
  188.5850  177.0850  144.4580 C   0  0  0  0  0  0  0  0  0  0  0  0
  189.0820  177.6930  142.0930 C   0  0  0  0  0  0  0  0  0  0  0  0
  184.8040  178.4600  141.1060 C   0  0  0  0  0  2  0  0  0  0  0  0
  188.0060  178.6560  141.7490 C   0  0  0  0  0  0  0  0  0  0  0  0
  191.2670  176.1190  142.9570 N   0  0  0  0  0  2  0  0  0  0  0  0
  186.0150  177.5510  142.8330 C   0  0  0  0  0  0  0  0  0  0  0  0
  185.6750  179.5590  141.7270 C   0  0  0  0  0  2  0  0  0  0  0  0
  190.2410  177.8110  141.5160 N   0  0  0  0  0  0  0  0  0  0  0  0
  189.9490  175.4970  143.0050 C   0  0  0  0  0  2  0  0  0  0  0  0
  188.2130  179.4400  140.7820 O   0  0  0  0  0  0  0  0  0  0  0  0
  186.7380  178.1930  145.8620 C   0  0  2  0  0  3  0  0  0  0  0  0
  189.5470  178.1880  146.5530 C   0  0  0  0  0  2  0  0  0  0  0  0
  187.1740  177.9650  147.3190 C   0  0  0  0  0  2  0  0  0  0  0  0
  185.2430  178.5290  145.7950 C   0  0  1  0  0  3  0  0  0  0  0  0
  184.6610  178.4780  147.0660 O   0  0  0  0  0  1  0  0  0  0  0  0
  185.0200  179.8950  145.1600 C   0  0  0  0  0  2  0  0  0  0  0  0
  183.1250  178.6670  144.3750 O   0  0  0  0  0  1  0  0  0  0  0  0
  183.6980  179.9380  144.4120 C   0  0  0  0  0  2  0  0  0  0  0  0
  1 17  1  1  0  0  0
  1  9  1  0  0  0  0
  2 20  1  0  0  0  0
  3  4  1  6  0  0  0
  3 19  1  0  0  0  0
  5 13  1  0  0  0  0
  6 15  1  6  0  0  0
  6 14  1  0  0  0  0
  7 14  1  0  0  0  0
  9  3  1  0  0  0  0
  9  2  2  0  0  0  0
 10  1  1  0  0  0  0
 11 15  1  0  0  0  0
 11  7  1  0  0  0  0
 12 10  1  0  0  0  0
 12  6  1  0  0  0  0
 13 17  1  0  0  0  0
 14  4  2  0  0  0  0
 16  5  1  0  0  0  0
 16 10  2  0  0  0  0
 18 12  2  0  0  0  0
 19 22  1  1  0  0  0
 19 21  1  0  0  0  0
 20  8  1  0  0  0  0
 21  8  1  0  0  0  0
 22 23  1  1  0  0  0
 24 22  1  0  0  0  0
 25 26  1  0  0  0  0
 26 24  1  0  0  0  0
M  END
>  <MODEL>
4

>  <REMARK>
 VINA RESULT:      -5.8      2.501      4.613
  Name = 
  3 active torsions:
  status: ('A' for Active; 'I' for Inactive)
    1  A    between atoms: C_3  and  C_14
    2  A    between atoms: C_3  and  C_24
    3  A    between atoms: C_14  and  C_23
                            x       y       z     vdW  Elec       q    Type
                         _______ _______ _______ _____ _____    ______ ____

>  <TORSDO>
F 3

$$$$
=
 OpenBabel10232411023D

 26 29  0  0  1  0  0  0  0  0999 V2000
  184.8230  179.3430  143.1600 C   0  0  1  0  0  3  0  0  0  0  0  0
  186.4140  177.5900  143.8190 C   0  0  0  0  0  3  0  0  0  0  0  0
  186.9170  178.9180  141.7120 C   0  0  1  0  0  3  0  0  0  0  0  0
  186.1590  179.7440  140.7580 N   0  0  0  0  0  0  0  0  0  0  0  0
  182.9710  178.6140  145.0990 N   0  0  0  0  0  2  0  0  0  0  0  0
  184.3500  178.0930  140.3160 C   0  0  2  0  0  3  0  0  0  0  0  0
  184.5050  180.1680  139.1600 O   0  0  0  0  0  0  0  0  0  0  0  0
  188.8420  177.3570  143.2660 C   0  0  0  0  0  2  0  0  0  0  0  0
  186.0820  178.5550  142.9320 C   0  0  0  0  0  0  0  0  0  0  0  0
  183.5930  178.5440  142.8200 C   0  0  0  0  0  0  0  0  0  0  0  0
  183.5130  179.4460  138.4570 C   0  0  0  0  0  2  0  0  0  0  0  0
  183.3100  178.1010  141.4330 C   0  0  0  0  0  0  0  0  0  0  0  0
  184.2380  179.0490  145.5270 N   0  0  0  0  0  2  0  0  0  0  0  0
  185.0590  179.3940  140.1550 C   0  0  0  0  0  0  0  0  0  0  0  0
  183.6450  178.0020  138.9570 C   0  0  0  0  0  2  0  0  0  0  0  0
  182.7430  178.2510  143.7610 N   0  0  0  0  0  0  0  0  0  0  0  0
  184.7380  180.0010  144.5440 C   0  0  0  0  0  2  0  0  0  0  0  0
  182.1710  177.6090  141.1980 O   0  0  0  0  0  0  0  0  0  0  0  0
  187.6020  177.7060  141.0410 C   0  0  2  0  0  3  0  0  0  0  0  0
  187.5840  176.6490  143.7340 C   0  0  0  0  0  2  0  0  0  0  0  0
  188.9260  177.3540  141.7410 C   0  0  0  0  0  2  0  0  0  0  0  0
  187.8230  177.8790  139.5330 C   0  0  1  0  0  3  0  0  0  0  0  0
  188.7290  178.9120  139.2740 O   0  0  0  0  0  1  0  0  0  0  0  0
  188.3010  176.5780  138.9010 C   0  0  0  0  0  2  0  0  0  0  0  0
  190.5710  175.8310  138.9170 O   0  0  0  0  0  1  0  0  0  0  0  0
  189.6950  176.7360  138.3190 C   0  0  0  0  0  2  0  0  0  0  0  0
  1 17  1  1  0  0  0
  3  4  1  6  0  0  0
  3  9  1  0  0  0  0
  5 13  1  0  0  0  0
  6 15  1  6  0  0  0
  6 12  1  0  0  0  0
  7 14  1  0  0  0  0
  8 20  1  0  0  0  0
  9  1  1  0  0  0  0
  9  2  2  0  0  0  0
 10  1  1  0  0  0  0
 10 16  2  0  0  0  0
 11 15  1  0  0  0  0
 11  7  1  0  0  0  0
 12 10  1  0  0  0  0
 14  6  1  0  0  0  0
 14  4  2  0  0  0  0
 16  5  1  0  0  0  0
 17 13  1  0  0  0  0
 18 12  2  0  0  0  0
 19 22  1  6  0  0  0
 19  3  1  0  0  0  0
 19 21  1  0  0  0  0
 20  2  1  0  0  0  0
 21  8  1  0  0  0  0
 22 23  1  1  0  0  0
 24 22  1  0  0  0  0
 26 24  1  0  0  0  0
 26 25  1  0  0  0  0
M  END
>  <MODEL>
5

>  <REMARK>
 VINA RESULT:      -5.6      3.133      5.783
  Name = 
  3 active torsions:
  status: ('A' for Active; 'I' for Inactive)
    1  A    between atoms: C_3  and  C_14
    2  A    between atoms: C_3  and  C_24
    3  A    between atoms: C_14  and  C_23
                            x       y       z     vdW  Elec       q    Type
                         _______ _______ _______ _____ _____    ______ ____

>  <TORSDO>
F 3

$$$$
=
 OpenBabel10232411023D

 26 29  0  0  1  0  0  0  0  0999 V2000
  184.6780  177.1060  136.4880 C   0  0  1  0  0  3  0  0  0  0  0  0
  183.2570  176.3400  138.3410 C   0  0  0  0  0  3  0  0  0  0  0  0
  184.7050  178.3930  138.7260 C   0  0  1  0  0  3  0  0  0  0  0  0
  185.9110  178.9830  138.1240 N   0  0  0  0  0  0  0  0  0  0  0  0
  184.1210  174.8750  134.9290 N   0  0  0  0  0  2  0  0  0  0  0  0
  187.3090  176.9250  138.1970 C   0  0  2  0  0  3  0  0  0  0  0  0
  188.1580  179.0280  137.4750 O   0  0  0  0  0  0  0  0  0  0  0  0
  182.3530  177.6260  140.2880 C   0  0  0  0  0  2  0  0  0  0  0  0
  184.1670  177.2350  137.8960 C   0  0  0  0  0  0  0  0  0  0  0  0
  185.6580  175.9710  136.3500 C   0  0  0  0  0  0  0  0  0  0  0  0
  189.3040  178.2080  137.5980 C   0  0  0  0  0  2  0  0  0  0  0  0
  186.9690  175.9850  137.0440 C   0  0  0  0  0  0  0  0  0  0  0  0
  183.0510  175.7160  135.2830 N   0  0  0  0  0  2  0  0  0  0  0  0
  187.0320  178.3580  137.8960 C   0  0  0  0  0  0  0  0  0  0  0  0
  188.8300  176.9810  138.3840 C   0  0  0  0  0  2  0  0  0  0  0  0
  185.3600  174.9610  135.5860 N   0  0  0  0  0  0  0  0  0  0  0  0
  183.5740  177.0690  135.4230 C   0  0  0  0  0  2  0  0  0  0  0  0
  187.8080  175.0970  136.7240 O   0  0  0  0  0  0  0  0  0  0  0  0
  184.8870  178.0560  140.2230 C   0  0  2  0  0  3  0  0  0  0  0  0
  182.6800  176.2540  139.7270 C   0  0  0  0  0  2  0  0  0  0  0  0
  183.5680  178.2190  140.9970 C   0  0  0  0  0  2  0  0  0  0  0  0
  186.0090  178.8520  140.9020 C   0  0  1  0  0  3  0  0  0  0  0  0
  185.4860  179.8400  141.7420 O   0  0  0  0  0  1  0  0  0  0  0  0
  186.9380  177.9260  141.6780 C   0  0  0  0  0  2  0  0  0  0  0  0
  189.2610  177.4060  141.8970 O   0  0  0  0  0  1  0  0  0  0  0  0
  188.3650  178.4480  141.6590 C   0  0  0  0  0  2  0  0  0  0  0  0
  1 17  1  6  0  0  0
  1  9  1  0  0  0  0
  2 20  1  0  0  0  0
  3  9  1  6  0  0  0
  3 19  1  0  0  0  0
  4  3  1  0  0  0  0
  5 13  1  0  0  0  0
  5 16  1  0  0  0  0
  6 15  1  6  0  0  0
  7 11  1  0  0  0  0
  7 14  1  0  0  0  0
  8 21  1  0  0  0  0
  9  2  2  0  0  0  0
 10  1  1  0  0  0  0
 10 12  1  0  0  0  0
 11 15  1  0  0  0  0
 12  6  1  0  0  0  0
 13 17  1  0  0  0  0
 14  4  2  0  0  0  0
 14  6  1  0  0  0  0
 16 10  2  0  0  0  0
 18 12  2  0  0  0  0
 19 22  1  1  0  0  0
 19 21  1  0  0  0  0
 20  8  1  0  0  0  0
 22 24  1  0  0  0  0
 22 23  1  1  0  0  0
 26 24  1  0  0  0  0
 26 25  1  0  0  0  0
M  END
>  <MODEL>
6

>  <REMARK>
 VINA RESULT:      -5.3      5.013      8.080
  Name = 
  3 active torsions:
  status: ('A' for Active; 'I' for Inactive)
    1  A    between atoms: C_3  and  C_14
    2  A    between atoms: C_3  and  C_24
    3  A    between atoms: C_14  and  C_23
                            x       y       z     vdW  Elec       q    Type
                         _______ _______ _______ _____ _____    ______ ____

>  <TORSDO>
F 3

$$$$
=
 OpenBabel10232411023D

 26 29  0  0  1  0  0  0  0  0999 V2000
  188.7950  177.1480  141.5420 C   0  0  1  0  0  3  0  0  0  0  0  0
  190.6410  178.0090  142.9170 C   0  0  0  0  0  3  0  0  0  0  0  0
  188.7320  176.8230  144.1020 C   0  0  1  0  0  3  0  0  0  0  0  0
  187.3300  176.4890  143.8080 N   0  0  0  0  0  0  0  0  0  0  0  0
  189.7370  178.3670  139.2300 N   0  0  0  0  0  2  0  0  0  0  0  0
  186.6230  178.7750  143.1260 C   0  0  2  0  0  3  0  0  0  0  0  0
  185.0960  176.9570  143.2930 O   0  0  0  0  0  0  0  0  0  0  0  0
  191.4140  177.2770  145.1810 C   0  0  0  0  0  2  0  0  0  0  0  0
  189.4530  177.3660  142.8760 C   0  0  0  0  0  0  0  0  0  0  0  0
  188.1810  178.4150  141.0070 C   0  0  0  0  0  0  0  0  0  0  0  0
  184.2730  178.0940  143.1250 C   0  0  0  0  0  2  0  0  0  0  0  0
  187.0440  179.0790  141.6920 C   0  0  0  0  0  0  0  0  0  0  0  0
  190.5550  177.4050  139.8490 N   0  0  0  0  0  2  0  0  0  0  0  0
  186.4200  177.3230  143.3910 C   0  0  0  0  0  0  0  0  0  0  0  0
  185.1990  179.2920  143.3650 C   0  0  0  0  0  2  0  0  0  0  0  0
  188.6420  178.9310  139.9060 N   0  0  0  0  0  0  0  0  0  0  0  0
  189.6860  176.4420  140.5130 C   0  0  0  0  0  2  0  0  0  0  0  0
  186.4630  180.0190  141.0790 O   0  0  0  0  0  0  0  0  0  0  0  0
  188.8860  177.7080  145.3600 C   0  0  2  0  0  3  0  0  0  0  0  0
  191.4220  178.3870  144.1460 C   0  0  0  0  0  2  0  0  0  0  0  0
  190.2010  177.4070  146.0990 C   0  0  0  0  0  2  0  0  0  0  0  0
  187.6960  177.6200  146.3250 C   0  0  1  0  0  3  0  0  0  0  0  0
  188.0780  177.0440  147.5410 O   0  0  0  0  0  1  0  0  0  0  0  0
  187.0800  178.9940  146.5540 C   0  0  0  0  0  2  0  0  0  0  0  0
  184.7170  178.6610  146.6840 O   0  0  0  0  0  1  0  0  0  0  0  0
  185.8570  178.8990  147.4510 C   0  0  0  0  0  2  0  0  0  0  0  0
  1 17  1  6  0  0  0
  1  9  1  0  0  0  0
  2 20  1  0  0  0  0
  3  9  1  6  0  0  0
  3 19  1  0  0  0  0
  4  3  1  0  0  0  0
  5 13  1  0  0  0  0
  5 16  1  0  0  0  0
  6 15  1  6  0  0  0
  6 14  1  0  0  0  0
  7 14  1  0  0  0  0
  8 21  1  0  0  0  0
  9  2  2  0  0  0  0
 10  1  1  0  0  0  0
 10 12  1  0  0  0  0
 11  7  1  0  0  0  0
 11 15  1  0  0  0  0
 12  6  1  0  0  0  0
 13 17  1  0  0  0  0
 14  4  2  0  0  0  0
 16 10  2  0  0  0  0
 18 12  2  0  0  0  0
 19 21  1  0  0  0  0
 19 22  1  1  0  0  0
 20  8  1  0  0  0  0
 22 24  1  0  0  0  0
 22 23  1  1  0  0  0
 24 26  1  0  0  0  0
 25 26  1  0  0  0  0
M  END
>  <MODEL>
7

>  <REMARK>
 VINA RESULT:      -5.3      2.514      5.929
  Name = 
  3 active torsions:
  status: ('A' for Active; 'I' for Inactive)
    1  A    between atoms: C_3  and  C_14
    2  A    between atoms: C_3  and  C_24
    3  A    between atoms: C_14  and  C_23
                            x       y       z     vdW  Elec       q    Type
                         _______ _______ _______ _____ _____    ______ ____

>  <TORSDO>
F 3

$$$$
=
 OpenBabel10232411023D

 26 29  0  0  1  0  0  0  0  0999 V2000
  190.3690  176.5060  140.3690 C   0  0  1  0  0  3  0  0  0  0  0  0
  189.0050  178.2420  139.2890 C   0  0  0  0  0  3  0  0  0  0  0  0
  189.3960  176.0790  138.0160 C   0  0  1  0  0  3  0  0  0  0  0  0
  190.3680  174.9740  138.0510 N   0  0  0  0  0  0  0  0  0  0  0  0
  191.0970  178.1630  142.4760 N   0  0  0  0  0  2  0  0  0  0  0  0
  192.4160  176.3850  137.9880 C   0  0  2  0  0  3  0  0  0  0  0  0
  192.4930  174.0070  137.9140 O   0  0  0  0  0  0  0  0  0  0  0  0
  187.2670  178.0180  137.5040 C   0  0  0  0  0  2  0  0  0  0  0  0
  189.5570  177.0110  139.2080 C   0  0  0  0  0  0  0  0  0  0  0  0
  191.7240  177.1600  140.4310 C   0  0  0  0  0  0  0  0  0  0  0  0
  193.8150  174.4120  137.6140 C   0  0  0  0  0  2  0  0  0  0  0  0
  192.7370  176.9560  139.3660 C   0  0  0  0  0  0  0  0  0  0  0  0
  189.7320  177.8700  142.3080 N   0  0  0  0  0  2  0  0  0  0  0  0
  191.6650  175.0990  138.0380 C   0  0  0  0  0  0  0  0  0  0  0  0
  193.7100  175.9120  137.3140 C   0  0  0  0  0  2  0  0  0  0  0  0
  192.0250  177.9060  141.4530 N   0  0  0  0  0  0  0  0  0  0  0  0
  189.6300  176.5440  141.7120 C   0  0  0  0  0  2  0  0  0  0  0  0
  193.9080  177.3750  139.5870 O   0  0  0  0  0  0  0  0  0  0  0  0
  189.3680  176.8070  136.6530 C   0  0  2  0  0  3  0  0  0  0  0  0
  188.2250  178.9540  138.2180 C   0  0  0  0  0  2  0  0  0  0  0  0
  187.9600  177.3330  136.3290 C   0  0  0  0  0  2  0  0  0  0  0  0
  189.9060  175.9620  135.4900 C   0  0  1  0  0  3  0  0  0  0  0  0
  188.8620  175.3450  134.7950 O   0  0  0  0  0  1  0  0  0  0  0  0
  190.7500  176.8090  134.5480 C   0  0  0  0  0  2  0  0  0  0  0  0
  192.0590  174.8150  134.3930 O   0  0  0  0  0  1  0  0  0  0  0  0
  192.1340  176.2070  134.3670 C   0  0  0  0  0  2  0  0  0  0  0  0
  1 10  1  0  0  0  0
  1 17  1  1  0  0  0
  3  4  1  6  0  0  0
  3  9  1  0  0  0  0
  6 15  1  1  0  0  0
  6 14  1  0  0  0  0
  6 12  1  0  0  0  0
  7 14  1  0  0  0  0
  8 20  1  0  0  0  0
  9  2  2  0  0  0  0
  9  1  1  0  0  0  0
 10 16  2  0  0  0  0
 11  7  1  0  0  0  0
 12 18  2  0  0  0  0
 12 10  1  0  0  0  0
 13  5  1  0  0  0  0
 14  4  2  0  0  0  0
 15 11  1  0  0  0  0
 16  5  1  0  0  0  0
 17 13  1  0  0  0  0
 19 22  1  6  0  0  0
 19  3  1  0  0  0  0
 20  2  1  0  0  0  0
 21 19  1  0  0  0  0
 21  8  1  0  0  0  0
 22 23  1  6  0  0  0
 24 22  1  0  0  0  0
 26 25  1  0  0  0  0
 26 24  1  0  0  0  0
M  END
>  <MODEL>
8

>  <REMARK>
 VINA RESULT:      -5.2      5.063      7.141
  Name = 
  3 active torsions:
  status: ('A' for Active; 'I' for Inactive)
    1  A    between atoms: C_3  and  C_14
    2  A    between atoms: C_3  and  C_24
    3  A    between atoms: C_14  and  C_23
                            x       y       z     vdW  Elec       q    Type
                         _______ _______ _______ _____ _____    ______ ____

>  <TORSDO>
F 3

$$$$
=
 OpenBabel10232411023D

 26 29  0  0  1  0  0  0  0  0999 V2000
  189.6180  178.4240  142.7110 C   0  0  1  0  0  3  0  0  0  0  0  0
  190.5400  176.8640  141.0510 C   0  0  0  0  0  3  0  0  0  0  0  0
  188.8960  178.6240  140.2400 C   0  0  1  0  0  3  0  0  0  0  0  0
  187.8570  179.4770  140.8380 N   0  0  0  0  0  0  0  0  0  0  0  0
  190.7360  177.0540  144.8540 N   0  0  0  0  0  2  0  0  0  0  0  0
  186.6450  177.6630  142.0360 C   0  0  2  0  0  3  0  0  0  0  0  0
  185.8700  179.9130  141.9930 O   0  0  0  0  0  0  0  0  0  0  0  0
  190.7900  177.1380  138.5770 C   0  0  0  0  0  2  0  0  0  0  0  0
  189.7200  177.9090  141.3020 C   0  0  0  0  0  0  0  0  0  0  0  0
  188.7970  177.5110  143.5830 C   0  0  0  0  0  0  0  0  0  0  0  0
  184.7960  179.1810  142.5510 C   0  0  0  0  0  2  0  0  0  0  0  0
  187.3500  177.2930  143.3370 C   0  0  0  0  0  0  0  0  0  0  0  0
  191.6060  177.6040  143.8960 N   0  0  0  0  0  2  0  0  0  0  0  0
  186.8880  179.0700  141.6080 C   0  0  0  0  0  0  0  0  0  0  0  0
  185.1300  177.7120  142.2670 C   0  0  0  0  0  2  0  0  0  0  0  0
  189.3620  176.9140  144.5900 N   0  0  0  0  0  0  0  0  0  0  0  0
  190.9670  178.7910  143.3420 C   0  0  0  0  0  2  0  0  0  0  0  0
  186.6950  176.6740  144.2220 O   0  0  0  0  0  0  0  0  0  0  0  0
  188.3430  177.6860  139.1430 C   0  0  2  0  0  3  0  0  0  0  0  0
  190.7280  176.1600  139.7350 C   0  0  0  0  0  2  0  0  0  0  0  0
  189.3900  177.4320  138.0450 C   0  0  0  0  0  2  0  0  0  0  0  0
  187.0240  178.1690  138.5260 C   0  0  1  0  0  3  0  0  0  0  0  0
  187.2540  179.1630  137.5690 O   0  0  0  0  0  1  0  0  0  0  0  0
  186.2520  177.0070  137.9160 C   0  0  0  0  0  2  0  0  0  0  0  0
  184.3340  178.1170  138.8120 O   0  0  0  0  0  1  0  0  0  0  0  0
  184.7880  177.3660  137.7270 C   0  0  0  0  0  2  0  0  0  0  0  0
  1 17  1  1  0  0  0
  1 10  1  0  0  0  0
  2  9  2  0  0  0  0
  3  4  1  1  0  0  0
  3  9  1  0  0  0  0
  4 14  2  0  0  0  0
  6 15  1  1  0  0  0
  6 12  1  0  0  0  0
  7 11  1  0  0  0  0
  8 20  1  0  0  0  0
  9  1  1  0  0  0  0
 10 16  2  0  0  0  0
 12 10  1  0  0  0  0
 12 18  2  0  0  0  0
 13  5  1  0  0  0  0
 14  7  1  0  0  0  0
 14  6  1  0  0  0  0
 15 11  1  0  0  0  0
 16  5  1  0  0  0  0
 17 13  1  0  0  0  0
 19 22  1  6  0  0  0
 19  3  1  0  0  0  0
 20  2  1  0  0  0  0
 21  8  1  0  0  0  0
 21 19  1  0  0  0  0
 22 23  1  6  0  0  0
 24 22  1  0  0  0  0
 26 24  1  0  0  0  0
 26 25  1  0  0  0  0
M  END
>  <MODEL>
9

>  <REMARK>
 VINA RESULT:      -5.2      2.666      5.300
  Name = 
  3 active torsions:
  status: ('A' for Active; 'I' for Inactive)
    1  A    between atoms: C_3  and  C_14
    2  A    between atoms: C_3  and  C_24
    3  A    between atoms: C_14  and  C_23
                            x       y       z     vdW  Elec       q    Type
                         _______ _______ _______ _____ _____    ______ ____

>  <TORSDO>
F 3

$$$$
