=
 OpenBabel10232411483D

 47 51  0  0  1  0  0  0  0  0999 V2000
  188.7420  177.9170  141.5340 C   0  0  0  0  0  3  0  0  0  0  0  0
  188.9740  178.1870  139.1010 C   0  0  0  0  0  0  0  0  0  0  0  0
  190.1760  177.4120  141.6330 C   0  0  0  0  0  0  0  0  0  0  0  0
  190.9200  177.3360  140.5420 C   0  0  0  0  0  3  0  0  0  0  0  0
  188.5150  178.5440  137.9630 N   0  0  0  0  0  0  0  0  0  0  0  0
  190.2900  177.4580  139.2220 C   0  0  2  0  0  3  0  0  0  0  0  0
  188.2460  178.2820  140.3870 C   0  0  0  0  0  3  0  0  0  0  0  0
  191.5570  176.1620  143.2110 O   0  0  0  0  0  0  0  0  0  0  0  0
  190.6660  177.0380  142.9840 C   0  0  0  0  0  0  0  0  0  0  0  0
  190.4870  178.8620  144.4740 O   0  0  0  0  0  0  0  0  0  0  0  0
  189.0130  177.1780  144.8970 N   0  0  0  0  0  2  0  0  0  0  0  0
  190.0450  177.7390  144.1300 C   0  0  0  0  0  0  0  0  0  0  0  0
  185.6470  178.2810  145.4950 C   0  0  0  0  0  3  0  0  0  0  0  0
  186.7600  178.4120  147.5800 C   0  0  0  0  0  3  0  0  0  0  0  0
  186.7710  177.7210  144.9280 C   0  0  0  0  0  3  0  0  0  0  0  0
  187.9100  177.8560  147.0190 C   0  0  0  0  0  3  0  0  0  0  0  0
  187.8960  177.5610  145.6680 C   0  0  0  0  0  0  0  0  0  0  0  0
  185.6190  178.6590  146.8370 C   0  0  0  0  0  3  0  0  0  0  0  0
  187.3450  178.9440  137.3870 O   0  0  0  0  0  0  0  0  0  0  0  0
  186.6020  178.1180  136.4890 C   0  0  0  0  0  2  0  0  0  0  0  0
  185.8600  177.0770  137.2730 C   0  0  0  0  0  2  0  0  0  0  0  0
  184.8040  177.9850  137.9230 C   0  0  0  0  0  2  0  0  0  0  0  0
  183.9160  177.5620  138.9900 C   0  0  1  0  0  3  0  0  0  0  0  0
  184.1770  177.9310  141.5950 O   0  0  0  0  0  1  0  0  0  0  0  0
  182.2770  179.1870  140.3970 O   0  0  0  0  0  1  0  0  0  0  0  0
  183.7300  178.5260  140.2790 P   0  0  0  0  0  0  0  0  0  0  0  0
  184.7600  179.6920  139.7600 O   0  0  0  0  0  0  0  0  0  0  0  0
  181.9010  176.7460  137.7540 C   0  0  0  0  0  1  0  0  0  0  0  0
  183.1450  176.3050  138.7170 C   0  0  0  0  0  2  0  0  0  0  0  0
  191.1430  176.9840  138.1180 C   0  0  0  0  0  2  0  0  0  0  0  0
  192.0220  175.3460  135.8480 C   0  0  0  0  0  2  0  0  0  0  0  0
  189.5080  175.0040  137.4670 C   0  0  0  0  0  2  0  0  0  0  0  0
  192.0440  174.8570  137.3160 C   0  0  0  0  0  2  0  0  0  0  0  0
  190.8880  175.4820  138.0650 C   0  0  1  0  0  3  0  0  0  0  0  0
  189.5410  175.0360  136.0190 C   0  0  1  0  0  3  0  0  0  0  0  0
  190.6290  175.4410  135.1700 C   0  0  0  0  0  2  0  0  0  0  0  0
  188.6690  174.1040  135.3220 N   0  0  0  0  0  2  0  0  0  0  0  0
  183.6160  174.3010  135.0250 C   0  0  2  0  0  3  0  0  0  0  0  0
  182.6170  173.6000  135.7900 C   0  0  0  0  0  2  0  0  0  0  0  0
  184.3520  172.6490  137.3000 C   0  0  0  0  0  2  0  0  0  0  0  0
  185.4420  173.1390  136.3690 C   0  0  0  0  0  0  0  0  0  0  0  0
  183.1620  172.4890  136.5450 O   0  0  0  0  0  0  0  0  0  0  0  0
  186.7980  172.9450  136.4960 C   0  0  0  0  0  3  0  0  0  0  0  0
  185.0230  173.9900  135.3680 C   0  0  0  0  0  0  0  0  0  0  0  0
  183.2850  175.6480  134.5010 C   0  0  0  0  0  1  0  0  0  0  0  0
  186.3850  174.5440  134.5840 S   0  0  0  0  0  0  0  0  0  0  0  0
  187.4420  173.7360  135.5070 C   0  0  0  0  0  0  0  0  0  0  0  0
  1  3  1  0  0  0  0
  2  6  1  0  0  0  0
  2  7  1  0  0  0  0
  3  9  1  0  0  0  0
  4  3  2  0  0  0  0
  5  2  2  0  0  0  0
  6 30  1  6  0  0  0
  6  4  1  0  0  0  0
  7  1  2  0  0  0  0
  9  8  2  0  0  0  0
  9 12  1  0  0  0  0
 11 17  1  0  0  0  0
 12 10  2  0  0  0  0
 12 11  1  0  0  0  0
 13 18  1  0  0  0  0
 15 13  2  0  0  0  0
 15 17  1  0  0  0  0
 16 14  1  0  0  0  0
 17 16  2  0  0  0  0
 18 14  2  0  0  0  0
 19  5  1  0  0  0  0
 20 21  1  0  0  0  0
 20 19  1  0  0  0  0
 21 22  1  0  0  0  0
 23 22  1  6  0  0  0
 23 26  1  0  0  0  0
 26 25  1  0  0  0  0
 26 24  1  0  0  0  0
 27 26  2  0  0  0  0
 28 29  1  0  0  0  0
 29 23  1  0  0  0  0
 31 33  1  0  0  0  0
 32 34  1  0  0  0  0
 33 34  1  0  0  0  0
 34 30  1  6  0  0  0
 35 37  1  6  0  0  0
 35 32  1  0  0  0  0
 36 31  1  0  0  0  0
 36 35  1  0  0  0  0
 37 47  1  0  0  0  0
 38 45  1  1  0  0  0
 38 44  1  0  0  0  0
 38 39  1  0  0  0  0
 39 42  1  0  0  0  0
 41 43  1  0  0  0  0
 41 40  1  0  0  0  0
 42 40  1  0  0  0  0
 44 41  2  0  0  0  0
 46 44  1  0  0  0  0
 46 47  1  0  0  0  0
 47 43  2  0  0  0  0
M  END
>  <MODEL>
1

>  <REMARK>
 VINA RESULT:      -8.1      0.000      0.000
  Name = 
  14 active torsions:
  status: ('A' for Active; 'I' for Inactive)
    1  A    between atoms: C_2  and  C_5
    2  A    between atoms: C_2  and  C_40
    3  A    between atoms: C_5  and  O_21
    4  A    between atoms: P_12  and  C_28
    5  A    between atoms: C_13  and  C_31
    6  A    between atoms: N_17  and  C_29
    7  A    between atoms: O_21  and  N_43
    8  A    between atoms: C_22  and  C_46
    9  A    between atoms: C_25  and  N_26
   10  A    between atoms: N_26  and  C_42
   11  A    between atoms: C_28  and  C_33
   12  A    between atoms: C_28  and  C_40
   13  A    between atoms: C_31  and  C_44
   14  A    between atoms: C_34  and  C_46
                            x       y       z     vdW  Elec       q    Type
                         _______ _______ _______ _____ _____    ______ ____

>  <TORSDO>
F 14

$$$$
=
 OpenBabel10232411483D

 47 51  0  0  1  0  0  0  0  0999 V2000
  188.5670  178.4270  142.0040 C   0  0  0  0  0  3  0  0  0  0  0  0
  187.5460  178.2510  139.7730 C   0  0  0  0  0  0  0  0  0  0  0  0
  189.8240  177.7270  141.5040 C   0  0  0  0  0  0  0  0  0  0  0  0
  189.9060  177.3540  140.2370 C   0  0  0  0  0  3  0  0  0  0  0  0
  186.5930  178.4820  138.9550 N   0  0  0  0  0  0  0  0  0  0  0  0
  188.7010  177.3540  139.4000 C   0  0  2  0  0  3  0  0  0  0  0  0
  187.5780  178.6710  141.1930 C   0  0  0  0  0  3  0  0  0  0  0  0
  192.0120  176.9290  142.2370 O   0  0  0  0  0  0  0  0  0  0  0  0
  190.9110  177.5100  142.4910 C   0  0  0  0  0  0  0  0  0  0  0  0
  191.1080  179.1240  144.2050 O   0  0  0  0  0  0  0  0  0  0  0  0
  190.0010  177.2360  144.8390 N   0  0  0  0  0  2  0  0  0  0  0  0
  190.6640  177.9990  143.8660 C   0  0  0  0  0  0  0  0  0  0  0  0
  187.0130  178.0350  146.6650 C   0  0  0  0  0  3  0  0  0  0  0  0
  188.7160  177.7580  148.2850 C   0  0  0  0  0  3  0  0  0  0  0  0
  187.8920  177.6620  145.6730 C   0  0  0  0  0  3  0  0  0  0  0  0
  189.6230  177.3880  147.2910 C   0  0  0  0  0  3  0  0  0  0  0  0
  189.1860  177.3930  145.9780 C   0  0  0  0  0  0  0  0  0  0  0  0
  187.4090  178.1110  148.0000 C   0  0  0  0  0  3  0  0  0  0  0  0
  185.3150  178.9600  138.9470 O   0  0  0  0  0  0  0  0  0  0  0  0
  184.1690  178.1070  138.9520 C   0  0  0  0  0  2  0  0  0  0  0  0
  183.0440  178.7940  139.6670 C   0  0  0  0  0  2  0  0  0  0  0  0
  183.5160  178.5680  141.1120 C   0  0  0  0  0  2  0  0  0  0  0  0
  182.6760  178.7600  142.2800 C   0  0  1  0  0  3  0  0  0  0  0  0
  180.4590  177.7160  141.2870 O   0  0  0  0  0  0  0  0  0  0  0  0
  180.5530  180.2730  141.5650 O   0  0  0  0  0  1  0  0  0  0  0  0
  181.0700  178.8480  142.0800 P   0  0  0  0  0  0  0  0  0  0  0  0
  180.7020  178.7390  143.6750 O   0  0  0  0  0  1  0  0  0  0  0  0
  184.7950  179.5340  143.3580 C   0  0  0  0  0  1  0  0  0  0  0  0
  183.3950  178.7260  143.5950 C   0  0  0  0  0  2  0  0  0  0  0  0
  188.8490  176.5740  138.1580 C   0  0  0  0  0  2  0  0  0  0  0  0
  188.6910  176.6860  135.2310 C   0  0  0  0  0  2  0  0  0  0  0  0
  191.1850  176.6500  136.9130 C   0  0  0  0  0  2  0  0  0  0  0  0
  189.1110  177.8860  136.1110 C   0  0  0  0  0  2  0  0  0  0  0  0
  189.8480  177.3740  137.3300 C   0  0  1  0  0  3  0  0  0  0  0  0
  190.9620  175.7780  135.7770 C   0  0  1  0  0  3  0  0  0  0  0  0
  189.7280  175.5420  135.0760 C   0  0  0  0  0  2  0  0  0  0  0  0
  192.0990  175.5310  134.9060 N   0  0  0  0  0  2  0  0  0  0  0  0
  196.3510  174.2720  137.3570 C   0  0  2  0  0  3  0  0  0  0  0  0
  197.7020  174.7280  137.1590 C   0  0  0  0  0  2  0  0  0  0  0  0
  196.9510  176.4170  135.4910 C   0  0  0  0  0  2  0  0  0  0  0  0
  195.5730  175.7890  135.4640 C   0  0  0  0  0  0  0  0  0  0  0  0
  197.8820  175.4270  135.9020 O   0  0  0  0  0  0  0  0  0  0  0  0
  194.5040  176.1540  134.6790 C   0  0  0  0  0  3  0  0  0  0  0  0
  195.3380  174.8420  136.4400 C   0  0  0  0  0  0  0  0  0  0  0  0
  195.9360  173.8700  138.7240 C   0  0  0  0  0  1  0  0  0  0  0  0
  193.7280  174.4190  136.3440 S   0  0  0  0  0  0  0  0  0  0  0  0
  193.3710  175.4210  135.1240 C   0  0  0  0  0  0  0  0  0  0  0  0
  2  7  1  0  0  0  0
  3  1  1  0  0  0  0
  3  9  1  0  0  0  0
  4  3  2  0  0  0  0
  5  2  2  0  0  0  0
  6 30  1  6  0  0  0
  6  2  1  0  0  0  0
  6  4  1  0  0  0  0
  7  1  2  0  0  0  0
  8  9  2  0  0  0  0
  9 12  1  0  0  0  0
 11 17  1  0  0  0  0
 12 10  2  0  0  0  0
 12 11  1  0  0  0  0
 13 18  1  0  0  0  0
 15 17  1  0  0  0  0
 15 13  2  0  0  0  0
 16 14  1  0  0  0  0
 17 16  2  0  0  0  0
 18 14  2  0  0  0  0
 19 20  1  0  0  0  0
 19  5  1  0  0  0  0
 20 21  1  0  0  0  0
 21 22  1  0  0  0  0
 23 22  1  1  0  0  0
 23 29  1  0  0  0  0
 24 26  2  0  0  0  0
 25 26  1  0  0  0  0
 26 23  1  0  0  0  0
 26 27  1  0  0  0  0
 28 29  1  0  0  0  0
 31 33  1  0  0  0  0
 32 34  1  0  0  0  0
 33 34  1  0  0  0  0
 34 30  1  6  0  0  0
 35 37  1  6  0  0  0
 35 32  1  0  0  0  0
 36 31  1  0  0  0  0
 36 35  1  0  0  0  0
 37 47  1  0  0  0  0
 38 45  1  1  0  0  0
 39 38  1  0  0  0  0
 40 42  1  0  0  0  0
 41 40  1  0  0  0  0
 41 44  2  0  0  0  0
 42 39  1  0  0  0  0
 43 47  2  0  0  0  0
 43 41  1  0  0  0  0
 44 38  1  0  0  0  0
 46 44  1  0  0  0  0
 47 46  1  0  0  0  0
M  END
>  <MODEL>
2

>  <REMARK>
 VINA RESULT:      -7.9      2.974      5.965
  Name = 
  14 active torsions:
  status: ('A' for Active; 'I' for Inactive)
    1  A    between atoms: C_2  and  C_5
    2  A    between atoms: C_2  and  C_40
    3  A    between atoms: C_5  and  O_21
    4  A    between atoms: P_12  and  C_28
    5  A    between atoms: C_13  and  C_31
    6  A    between atoms: N_17  and  C_29
    7  A    between atoms: O_21  and  N_43
    8  A    between atoms: C_22  and  C_46
    9  A    between atoms: C_25  and  N_26
   10  A    between atoms: N_26  and  C_42
   11  A    between atoms: C_28  and  C_33
   12  A    between atoms: C_28  and  C_40
   13  A    between atoms: C_31  and  C_44
   14  A    between atoms: C_34  and  C_46
                            x       y       z     vdW  Elec       q    Type
                         _______ _______ _______ _____ _____    ______ ____

>  <TORSDO>
F 14

$$$$
=
 OpenBabel10232411483D

 47 51  0  0  1  0  0  0  0  0999 V2000
  184.4840  177.3490  137.1770 C   0  0  0  0  0  3  0  0  0  0  0  0
  185.7310  178.4430  138.9930 C   0  0  0  0  0  0  0  0  0  0  0  0
  183.1730  177.9030  137.7190 C   0  0  0  0  0  0  0  0  0  0  0  0
  183.1820  178.6740  138.7940 C   0  0  0  0  0  3  0  0  0  0  0  0
  186.8250  178.7440  139.5800 N   0  0  0  0  0  0  0  0  0  0  0  0
  184.3930  178.7570  139.6180 C   0  0  2  0  0  3  0  0  0  0  0  0
  185.6140  177.6350  137.7580 C   0  0  0  0  0  3  0  0  0  0  0  0
  180.9440  178.3200  136.8140 O   0  0  0  0  0  0  0  0  0  0  0  0
  181.9360  177.5440  136.9810 C   0  0  0  0  0  0  0  0  0  0  0  0
  181.6730  176.0220  135.1940 O   0  0  0  0  0  0  0  0  0  0  0  0
  181.9620  175.0230  137.2200 N   0  0  0  0  0  2  0  0  0  0  0  0
  181.8710  176.1740  136.4240 C   0  0  0  0  0  0  0  0  0  0  0  0
  184.3330  172.3390  136.9420 C   0  0  0  0  0  3  0  0  0  0  0  0
  182.1950  171.3500  136.7160 C   0  0  0  0  0  3  0  0  0  0  0  0
  183.7460  173.5580  137.1950 C   0  0  0  0  0  3  0  0  0  0  0  0
  181.5830  172.5800  136.9590 C   0  0  0  0  0  3  0  0  0  0  0  0
  182.3960  173.6830  137.1530 C   0  0  0  0  0  0  0  0  0  0  0  0
  183.5700  171.2020  136.6770 C   0  0  0  0  0  3  0  0  0  0  0  0
  188.1530  178.4370  139.5350 O   0  0  0  0  0  0  0  0  0  0  0  0
  188.7430  177.4260  140.3540 C   0  0  0  0  0  2  0  0  0  0  0  0
  190.1390  177.1570  139.8800 C   0  0  0  0  0  2  0  0  0  0  0  0
  189.9660  177.5620  138.4070 C   0  0  0  0  0  2  0  0  0  0  0  0
  190.4380  176.7690  137.2860 C   0  0  1  0  0  3  0  0  0  0  0  0
  191.6400  174.5250  138.0030 O   0  0  0  0  0  1  0  0  0  0  0  0
  192.9790  176.7140  138.2060 O   0  0  0  0  0  1  0  0  0  0  0  0
  191.8100  175.9230  137.4510 P   0  0  0  0  0  0  0  0  0  0  0  0
  192.1820  175.9030  135.8540 O   0  0  0  0  0  0  0  0  0  0  0  0
  188.3740  175.6040  136.4880 C   0  0  0  0  0  1  0  0  0  0  0  0
  189.5110  176.7150  136.1090 C   0  0  0  0  0  2  0  0  0  0  0  0
  184.1550  179.3280  140.9560 C   0  0  0  0  0  2  0  0  0  0  0  0
  183.0340  179.5370  143.6590 C   0  0  0  0  0  2  0  0  0  0  0  0
  185.2550  177.7220  142.7510 C   0  0  0  0  0  2  0  0  0  0  0  0
  182.7850  178.3330  142.7200 C   0  0  0  0  0  2  0  0  0  0  0  0
  184.0120  178.1110  141.8620 C   0  0  1  0  0  3  0  0  0  0  0  0
  185.3300  178.5700  143.9240 C   0  0  1  0  0  3  0  0  0  0  0  0
  184.4450  179.6410  144.2960 C   0  0  0  0  0  2  0  0  0  0  0  0
  185.9720  178.0070  145.1010 N   0  0  0  0  0  2  0  0  0  0  0  0
  190.8480  176.7100  144.6440 C   0  0  2  0  0  3  0  0  0  0  0  0
  191.8580  176.5360  145.6570 C   0  0  0  0  0  2  0  0  0  0  0  0
  190.1770  176.8300  147.4690 C   0  0  0  0  0  2  0  0  0  0  0  0
  189.1500  177.2870  146.4530 C   0  0  0  0  0  0  0  0  0  0  0  0
  191.4680  177.0860  146.9400 O   0  0  0  0  0  0  0  0  0  0  0  0
  187.8660  177.7160  146.6980 C   0  0  0  0  0  3  0  0  0  0  0  0
  189.5100  177.1140  145.1320 C   0  0  0  0  0  0  0  0  0  0  0  0
  190.9460  175.8990  143.4050 C   0  0  0  0  0  1  0  0  0  0  0  0
  188.1850  177.5070  144.2010 S   0  0  0  0  0  0  0  0  0  0  0  0
  187.2110  177.8590  145.4450 C   0  0  0  0  0  0  0  0  0  0  0  0
  1  3  1  0  0  0  0
  1  7  2  0  0  0  0
  2  5  2  0  0  0  0
  2  6  1  0  0  0  0
  3  4  2  0  0  0  0
  4  6  1  0  0  0  0
  6 30  1  6  0  0  0
  7  2  1  0  0  0  0
  8  9  2  0  0  0  0
  9  3  1  0  0  0  0
 10 12  2  0  0  0  0
 12  9  1  0  0  0  0
 12 11  1  0  0  0  0
 13 15  1  0  0  0  0
 14 16  2  0  0  0  0
 16 17  1  0  0  0  0
 17 15  2  0  0  0  0
 17 11  1  0  0  0  0
 18 14  1  0  0  0  0
 18 13  2  0  0  0  0
 19  5  1  0  0  0  0
 19 20  1  0  0  0  0
 21 20  1  0  0  0  0
 22 21  1  0  0  0  0
 23 29  1  1  0  0  0
 23 26  1  0  0  0  0
 23 22  1  0  0  0  0
 26 24  1  0  0  0  0
 26 25  1  0  0  0  0
 27 26  2  0  0  0  0
 29 28  1  0  0  0  0
 31 36  1  0  0  0  0
 32 35  1  0  0  0  0
 33 31  1  0  0  0  0
 34 30  1  1  0  0  0
 34 33  1  0  0  0  0
 34 32  1  0  0  0  0
 35 36  1  0  0  0  0
 35 37  1  1  0  0  0
 37 47  1  0  0  0  0
 38 45  1  1  0  0  0
 38 44  1  0  0  0  0
 38 39  1  0  0  0  0
 39 42  1  0  0  0  0
 41 43  1  0  0  0  0
 41 40  1  0  0  0  0
 42 40  1  0  0  0  0
 44 41  2  0  0  0  0
 46 44  1  0  0  0  0
 46 47  1  0  0  0  0
 47 43  2  0  0  0  0
M  END
>  <MODEL>
3

>  <REMARK>
 VINA RESULT:      -7.6      3.281      9.893
  Name = 
  14 active torsions:
  status: ('A' for Active; 'I' for Inactive)
    1  A    between atoms: C_2  and  C_5
    2  A    between atoms: C_2  and  C_40
    3  A    between atoms: C_5  and  O_21
    4  A    between atoms: P_12  and  C_28
    5  A    between atoms: C_13  and  C_31
    6  A    between atoms: N_17  and  C_29
    7  A    between atoms: O_21  and  N_43
    8  A    between atoms: C_22  and  C_46
    9  A    between atoms: C_25  and  N_26
   10  A    between atoms: N_26  and  C_42
   11  A    between atoms: C_28  and  C_33
   12  A    between atoms: C_28  and  C_40
   13  A    between atoms: C_31  and  C_44
   14  A    between atoms: C_34  and  C_46
                            x       y       z     vdW  Elec       q    Type
                         _______ _______ _______ _____ _____    ______ ____

>  <TORSDO>
F 14

$$$$
=
 OpenBabel10232411483D

 47 51  0  0  1  0  0  0  0  0999 V2000
  183.8580  176.6320  137.0800 C   0  0  0  0  0  3  0  0  0  0  0  0
  185.8830  175.5180  136.2400 C   0  0  0  0  0  0  0  0  0  0  0  0
  184.7010  177.5350  137.9700 C   0  0  0  0  0  0  0  0  0  0  0  0
  186.0190  177.4240  137.9540 C   0  0  0  0  0  3  0  0  0  0  0  0
  186.4640  174.6740  135.4780 N   0  0  0  0  0  0  0  0  0  0  0  0
  186.6430  176.2620  137.3110 C   0  0  2  0  0  3  0  0  0  0  0  0
  184.4230  175.7590  136.2960 C   0  0  0  0  0  3  0  0  0  0  0  0
  183.6800  179.6990  138.4550 O   0  0  0  0  0  0  0  0  0  0  0  0
  183.9740  178.5170  138.8150 C   0  0  0  0  0  0  0  0  0  0  0  0
  182.9840  176.9770  140.3080 O   0  0  0  0  0  0  0  0  0  0  0  0
  183.8250  178.8360  141.3220 N   0  0  0  0  0  2  0  0  0  0  0  0
  183.5910  178.0680  140.1720 C   0  0  0  0  0  0  0  0  0  0  0  0
  183.1100  179.0180  144.8380 C   0  0  0  0  0  3  0  0  0  0  0  0
  185.4120  178.4970  144.6630 C   0  0  0  0  0  3  0  0  0  0  0  0
  182.9840  178.9310  143.4690 C   0  0  0  0  0  3  0  0  0  0  0  0
  185.3050  178.4160  143.2750 C   0  0  0  0  0  3  0  0  0  0  0  0
  184.0740  178.6840  142.7020 C   0  0  0  0  0  0  0  0  0  0  0  0
  184.3360  178.8210  145.4710 C   0  0  0  0  0  3  0  0  0  0  0  0
  186.1600  173.6500  134.6290 O   0  0  0  0  0  0  0  0  0  0  0  0
  186.0910  172.2870  135.0520 C   0  0  0  0  0  2  0  0  0  0  0  0
  184.8630  171.6510  134.4750 C   0  0  0  0  0  2  0  0  0  0  0  0
  184.0290  171.5470  135.7620 C   0  0  0  0  0  2  0  0  0  0  0  0
  182.6830  171.0080  135.8170 C   0  0  1  0  0  3  0  0  0  0  0  0
  181.7420  173.4460  136.2210 O   0  0  0  0  0  1  0  0  0  0  0  0
  180.9200  171.5750  137.7850 O   0  0  0  0  0  1  0  0  0  0  0  0
  181.4800  171.9620  136.3360 P   0  0  0  0  0  0  0  0  0  0  0  0
  180.3790  171.4520  135.2320 O   0  0  0  0  0  0  0  0  0  0  0  0
  183.6580  168.7120  135.9840 C   0  0  0  0  0  1  0  0  0  0  0  0
  182.5250  169.6300  135.2480 C   0  0  0  0  0  2  0  0  0  0  0  0
  188.0550  176.0690  137.6890 C   0  0  0  0  0  2  0  0  0  0  0  0
  190.8630  176.9170  137.7110 C   0  0  0  0  0  2  0  0  0  0  0  0
  188.7750  177.4990  139.7980 C   0  0  0  0  0  2  0  0  0  0  0  0
  189.6800  177.8800  137.4510 C   0  0  0  0  0  2  0  0  0  0  0  0
  188.4810  177.4200  138.2500 C   0  0  1  0  0  3  0  0  0  0  0  0
  190.0930  176.9750  140.0950 C   0  0  1  0  0  3  0  0  0  0  0  0
  191.0550  176.4330  139.1730 C   0  0  0  0  0  2  0  0  0  0  0  0
  190.7580  177.5030  141.2750 N   0  0  0  0  0  2  0  0  0  0  0  0
  191.0690  176.8070  146.2840 C   0  0  2  0  0  3  0  0  0  0  0  0
  190.0590  176.9460  147.3010 C   0  0  0  0  0  2  0  0  0  0  0  0
  188.2960  177.3210  145.5840 C   0  0  0  0  0  2  0  0  0  0  0  0
  189.3570  177.4560  144.5120 C   0  0  0  0  0  0  0  0  0  0  0  0
  188.8820  177.6520  146.8330 O   0  0  0  0  0  0  0  0  0  0  0  0
  189.1670  177.7460  143.1800 C   0  0  0  0  0  3  0  0  0  0  0  0
  190.6350  177.1080  144.9000 C   0  0  0  0  0  0  0  0  0  0  0  0
  192.1520  175.8160  146.4960 C   0  0  0  0  0  1  0  0  0  0  0  0
  191.5970  177.1550  143.5400 S   0  0  0  0  0  0  0  0  0  0  0  0
  190.4150  177.5830  142.5210 C   0  0  0  0  0  0  0  0  0  0  0  0
  1  3  1  0  0  0  0
  2  7  1  0  0  0  0
  2  6  1  0  0  0  0
  3  9  1  0  0  0  0
  4  3  2  0  0  0  0
  5  2  2  0  0  0  0
  6 30  1  6  0  0  0
  6  4  1  0  0  0  0
  7  1  2  0  0  0  0
  8  9  2  0  0  0  0
  9 12  1  0  0  0  0
 11 17  1  0  0  0  0
 12 10  2  0  0  0  0
 12 11  1  0  0  0  0
 13 18  1  0  0  0  0
 14 18  2  0  0  0  0
 15 13  2  0  0  0  0
 16 14  1  0  0  0  0
 17 16  2  0  0  0  0
 17 15  1  0  0  0  0
 19 20  1  0  0  0  0
 19  5  1  0  0  0  0
 21 20  1  0  0  0  0
 21 22  1  0  0  0  0
 22 23  1  0  0  0  0
 23 29  1  6  0  0  0
 23 26  1  0  0  0  0
 24 26  1  0  0  0  0
 26 25  1  0  0  0  0
 27 26  2  0  0  0  0
 29 28  1  0  0  0  0
 31 36  1  0  0  0  0
 32 35  1  0  0  0  0
 33 31  1  0  0  0  0
 33 34  1  0  0  0  0
 34 30  1  6  0  0  0
 34 32  1  0  0  0  0
 35 37  1  6  0  0  0
 36 35  1  0  0  0  0
 37 47  1  0  0  0  0
 38 45  1  6  0  0  0
 38 39  1  0  0  0  0
 40 42  1  0  0  0  0
 41 44  2  0  0  0  0
 41 40  1  0  0  0  0
 42 39  1  0  0  0  0
 43 41  1  0  0  0  0
 44 38  1  0  0  0  0
 46 44  1  0  0  0  0
 47 43  2  0  0  0  0
 47 46  1  0  0  0  0
M  END
>  <MODEL>
4

>  <REMARK>
 VINA RESULT:      -7.2      3.035      7.719
  Name = 
  14 active torsions:
  status: ('A' for Active; 'I' for Inactive)
    1  A    between atoms: C_2  and  C_5
    2  A    between atoms: C_2  and  C_40
    3  A    between atoms: C_5  and  O_21
    4  A    between atoms: P_12  and  C_28
    5  A    between atoms: C_13  and  C_31
    6  A    between atoms: N_17  and  C_29
    7  A    between atoms: O_21  and  N_43
    8  A    between atoms: C_22  and  C_46
    9  A    between atoms: C_25  and  N_26
   10  A    between atoms: N_26  and  C_42
   11  A    between atoms: C_28  and  C_33
   12  A    between atoms: C_28  and  C_40
   13  A    between atoms: C_31  and  C_44
   14  A    between atoms: C_34  and  C_46
                            x       y       z     vdW  Elec       q    Type
                         _______ _______ _______ _____ _____    ______ ____

>  <TORSDO>
F 14

$$$$
=
 OpenBabel10232411483D

 47 51  0  0  1  0  0  0  0  0999 V2000
  184.0010  176.2550  136.4510 C   0  0  0  0  0  3  0  0  0  0  0  0
  186.2280  175.2790  136.0840 C   0  0  0  0  0  0  0  0  0  0  0  0
  184.5960  177.3090  137.3760 C   0  0  0  0  0  0  0  0  0  0  0  0
  185.9000  177.3280  137.5950 C   0  0  0  0  0  3  0  0  0  0  0  0
  187.0040  174.4350  135.5200 N   0  0  0  0  0  0  0  0  0  0  0  0
  186.7220  176.1820  137.1880 C   0  0  2  0  0  3  0  0  0  0  0  0
  184.7670  175.3790  135.8670 C   0  0  0  0  0  3  0  0  0  0  0  0
  182.5120  178.5750  137.5040 O   0  0  0  0  0  0  0  0  0  0  0  0
  183.6520  178.2820  137.9820 C   0  0  0  0  0  0  0  0  0  0  0  0
  184.4680  180.1560  139.1660 O   0  0  0  0  0  0  0  0  0  0  0  0
  184.1910  178.2990  140.4560 N   0  0  0  0  0  2  0  0  0  0  0  0
  184.1000  178.9570  139.2200 C   0  0  0  0  0  0  0  0  0  0  0  0
  185.2110  178.2220  143.8990 C   0  0  0  0  0  3  0  0  0  0  0  0
  182.9860  179.0270  143.8930 C   0  0  0  0  0  3  0  0  0  0  0  0
  185.2150  178.2150  142.5230 C   0  0  0  0  0  3  0  0  0  0  0  0
  182.9690  179.0160  142.4980 C   0  0  0  0  0  3  0  0  0  0  0  0
  184.0960  178.5590  141.8390 C   0  0  0  0  0  0  0  0  0  0  0  0
  184.0850  178.6120  144.6230 C   0  0  0  0  0  3  0  0  0  0  0  0
  186.9410  173.3180  134.7390 O   0  0  0  0  0  0  0  0  0  0  0  0
  185.7070  172.7160  134.3460 C   0  0  0  0  0  2  0  0  0  0  0  0
  185.1720  171.8980  135.4830 C   0  0  0  0  0  2  0  0  0  0  0  0
  183.6770  171.9590  135.1310 C   0  0  0  0  0  2  0  0  0  0  0  0
  182.6740  171.0730  135.6910 C   0  0  1  0  0  3  0  0  0  0  0  0
  181.0690  171.7180  137.6910 O   0  0  0  0  0  1  0  0  0  0  0  0
  179.9830  171.1190  135.4360 O   0  0  0  0  0  0  0  0  0  0  0  0
  181.2680  171.7030  136.1920 P   0  0  0  0  0  0  0  0  0  0  0  0
  181.5440  173.2080  135.6020 O   0  0  0  0  0  1  0  0  0  0  0  0
  181.8100  168.9250  134.7460 C   0  0  0  0  0  1  0  0  0  0  0  0
  183.0050  169.6120  135.6230 C   0  0  0  0  0  2  0  0  0  0  0  0
  188.0550  176.1620  137.8170 C   0  0  0  0  0  2  0  0  0  0  0  0
  190.6920  177.3950  138.1730 C   0  0  0  0  0  2  0  0  0  0  0  0
  188.2970  177.6830  139.9720 C   0  0  0  0  0  2  0  0  0  0  0  0
  189.4300  178.1820  137.7490 C   0  0  0  0  0  2  0  0  0  0  0  0
  188.2150  177.5600  138.4010 C   0  0  1  0  0  3  0  0  0  0  0  0
  189.6280  177.3490  140.4400 C   0  0  1  0  0  3  0  0  0  0  0  0
  190.7640  176.9460  139.6560 C   0  0  0  0  0  2  0  0  0  0  0  0
  190.0590  177.9670  141.6840 N   0  0  0  0  0  2  0  0  0  0  0  0
  188.8170  177.0820  146.5150 C   0  0  2  0  0  3  0  0  0  0  0  0
  189.6440  176.6770  147.6230 C   0  0  0  0  0  2  0  0  0  0  0  0
  191.7060  176.9150  146.2500 C   0  0  0  0  0  2  0  0  0  0  0  0
  190.8660  177.0740  145.0000 C   0  0  0  0  0  0  0  0  0  0  0  0
  190.9460  176.1950  147.2070 O   0  0  0  0  0  0  0  0  0  0  0  0
  191.3110  177.2140  143.7050 C   0  0  0  0  0  3  0  0  0  0  0  0
  189.5120  177.2370  145.2170 C   0  0  0  0  0  0  0  0  0  0  0  0
  187.6240  177.9170  146.7950 C   0  0  0  0  0  1  0  0  0  0  0  0
  188.8100  177.5720  143.7430 S   0  0  0  0  0  0  0  0  0  0  0  0
  190.1860  177.5230  142.8930 C   0  0  0  0  0  0  0  0  0  0  0  0
  1  3  1  0  0  0  0
  2  6  1  0  0  0  0
  3  4  2  0  0  0  0
  3  9  1  0  0  0  0
  5  2  2  0  0  0  0
  6  4  1  0  0  0  0
  6 30  1  6  0  0  0
  7  2  1  0  0  0  0
  7  1  2  0  0  0  0
  8  9  2  0  0  0  0
  9 12  1  0  0  0  0
 10 12  2  0  0  0  0
 11 17  1  0  0  0  0
 12 11  1  0  0  0  0
 13 18  1  0  0  0  0
 14 18  2  0  0  0  0
 15 13  2  0  0  0  0
 16 14  1  0  0  0  0
 17 16  2  0  0  0  0
 17 15  1  0  0  0  0
 19  5  1  0  0  0  0
 20 19  1  0  0  0  0
 20 21  1  0  0  0  0
 22 21  1  0  0  0  0
 23 22  1  6  0  0  0
 23 26  1  0  0  0  0
 25 26  2  0  0  0  0
 26 24  1  0  0  0  0
 27 26  1  0  0  0  0
 28 29  1  0  0  0  0
 29 23  1  0  0  0  0
 31 36  1  0  0  0  0
 32 35  1  0  0  0  0
 33 31  1  0  0  0  0
 33 34  1  0  0  0  0
 34 30  1  1  0  0  0
 34 32  1  0  0  0  0
 35 37  1  6  0  0  0
 36 35  1  0  0  0  0
 37 47  1  0  0  0  0
 38 45  1  1  0  0  0
 38 39  1  0  0  0  0
 40 42  1  0  0  0  0
 41 44  2  0  0  0  0
 41 40  1  0  0  0  0
 42 39  1  0  0  0  0
 43 41  1  0  0  0  0
 44 38  1  0  0  0  0
 46 44  1  0  0  0  0
 47 43  2  0  0  0  0
 47 46  1  0  0  0  0
M  END
>  <MODEL>
5

>  <REMARK>
 VINA RESULT:      -6.8      3.001      7.889
  Name = 
  14 active torsions:
  status: ('A' for Active; 'I' for Inactive)
    1  A    between atoms: C_2  and  C_5
    2  A    between atoms: C_2  and  C_40
    3  A    between atoms: C_5  and  O_21
    4  A    between atoms: P_12  and  C_28
    5  A    between atoms: C_13  and  C_31
    6  A    between atoms: N_17  and  C_29
    7  A    between atoms: O_21  and  N_43
    8  A    between atoms: C_22  and  C_46
    9  A    between atoms: C_25  and  N_26
   10  A    between atoms: N_26  and  C_42
   11  A    between atoms: C_28  and  C_33
   12  A    between atoms: C_28  and  C_40
   13  A    between atoms: C_31  and  C_44
   14  A    between atoms: C_34  and  C_46
                            x       y       z     vdW  Elec       q    Type
                         _______ _______ _______ _____ _____    ______ ____

>  <TORSDO>
F 14

$$$$
=
 OpenBabel10232411483D

 47 51  0  0  1  0  0  0  0  0999 V2000
  188.3090  178.4510  139.4780 C   0  0  0  0  0  3  0  0  0  0  0  0
  190.2950  177.1210  140.0560 C   0  0  0  0  0  0  0  0  0  0  0  0
  188.0090  177.5280  138.3050 C   0  0  0  0  0  0  0  0  0  0  0  0
  188.7940  176.4890  138.0720 C   0  0  0  0  0  3  0  0  0  0  0  0
  191.2960  176.8700  140.8080 N   0  0  0  0  0  0  0  0  0  0  0  0
  190.0920  176.3930  138.7500 C   0  0  2  0  0  3  0  0  0  0  0  0
  189.3250  178.2220  140.2590 C   0  0  0  0  0  3  0  0  0  0  0  0
  186.8350  178.0280  136.2230 O   0  0  0  0  0  0  0  0  0  0  0  0
  186.8170  177.8520  137.4810 C   0  0  0  0  0  0  0  0  0  0  0  0
  184.5190  177.3850  137.7710 O   0  0  0  0  0  0  0  0  0  0  0  0
  185.3720  178.8180  139.3220 N   0  0  0  0  0  2  0  0  0  0  0  0
  185.5320  177.9900  138.2010 C   0  0  0  0  0  0  0  0  0  0  0  0
  184.7970  179.0050  142.8630 C   0  0  0  0  0  3  0  0  0  0  0  0
  182.6720  178.6880  141.8700 C   0  0  0  0  0  3  0  0  0  0  0  0
  185.3710  179.0880  141.6150 C   0  0  0  0  0  3  0  0  0  0  0  0
  183.2390  178.7580  140.5980 C   0  0  0  0  0  3  0  0  0  0  0  0
  184.6100  178.9160  140.5050 C   0  0  0  0  0  0  0  0  0  0  0  0
  183.4300  178.7840  143.0240 C   0  0  0  0  0  3  0  0  0  0  0  0
  191.9830  177.4180  141.8520 O   0  0  0  0  0  0  0  0  0  0  0  0
  191.6000  177.2290  143.2150 C   0  0  0  0  0  2  0  0  0  0  0  0
  191.0110  178.5020  143.7440 C   0  0  0  0  0  2  0  0  0  0  0  0
  190.4450  177.9640  145.0680 C   0  0  0  0  0  3  0  0  0  0  0  0
  189.0280  177.8210  145.3470 C   0  0  0  0  0  0  0  0  0  0  0  0
  188.9770  178.7110  147.8370 O   0  0  0  0  0  1  0  0  0  0  0  0
  188.8640  176.1650  147.4770 O   0  0  0  0  0  1  0  0  0  0  0  0
  188.5510  177.6180  146.8830 P   0  0  0  0  0  0  0  0  0  0  0  0
  186.9440  177.6840  146.5650 O   0  0  0  0  0  0  0  0  0  0  0  0
  187.9500  176.5340  143.4940 C   0  0  0  0  0  1  0  0  0  0  0  0
  188.1230  178.0130  144.1670 C   0  0  0  0  0  2  0  0  0  0  0  0
  191.0080  175.4180  138.1300 C   0  0  0  0  0  2  0  0  0  0  0  0
  191.3030  174.7070  135.3000 C   0  0  0  0  0  2  0  0  0  0  0  0
  193.3930  175.9170  137.0940 C   0  0  0  0  0  2  0  0  0  0  0  0
  191.2100  176.1640  135.8110 C   0  0  0  0  0  2  0  0  0  0  0  0
  191.8540  176.2530  137.1770 C   0  0  1  0  0  3  0  0  0  0  0  0
  193.6180  174.7560  136.2560 C   0  0  1  0  0  3  0  0  0  0  0  0
  192.6360  173.9600  135.5690 C   0  0  0  0  0  2  0  0  0  0  0  0
  194.9050  174.6710  135.5840 N   0  0  0  0  0  2  0  0  0  0  0  0
  198.7220  171.6440  136.9730 C   0  0  2  0  0  3  0  0  0  0  0  0
  199.9380  171.9540  137.6810 C   0  0  0  0  0  2  0  0  0  0  0  0
  199.1750  174.2880  138.0920 C   0  0  0  0  0  2  0  0  0  0  0  0
  198.0210  174.0890  137.1300 C   0  0  0  0  0  0  0  0  0  0  0  0
  200.2060  173.3770  137.7440 O   0  0  0  0  0  0  0  0  0  0  0  0
  197.0860  175.0200  136.7440 C   0  0  0  0  0  3  0  0  0  0  0  0
  197.8180  172.7880  136.7150 C   0  0  0  0  0  0  0  0  0  0  0  0
  198.1380  170.2900  137.1360 C   0  0  0  0  0  1  0  0  0  0  0  0
  196.4120  172.7670  135.8200 S   0  0  0  0  0  0  0  0  0  0  0  0
  196.0910  174.3440  135.9860 C   0  0  0  0  0  0  0  0  0  0  0  0
  1  7  2  0  0  0  0
  2  7  1  0  0  0  0
  2  5  2  0  0  0  0
  3  1  1  0  0  0  0
  4  3  2  0  0  0  0
  4  6  1  0  0  0  0
  5 19  1  0  0  0  0
  6 30  1  1  0  0  0
  6  2  1  0  0  0  0
  8  9  2  0  0  0  0
  9 12  1  0  0  0  0
  9  3  1  0  0  0  0
 10 12  2  0  0  0  0
 11 17  1  0  0  0  0
 12 11  1  0  0  0  0
 13 18  1  0  0  0  0
 14 18  2  0  0  0  0
 15 13  2  0  0  0  0
 16 14  1  0  0  0  0
 17 16  2  0  0  0  0
 17 15  1  0  0  0  0
 19 20  1  0  0  0  0
 20 21  1  0  0  0  0
 21 22  1  0  0  0  0
 22 23  2  0  0  0  0
 23 26  1  0  0  0  0
 26 25  1  0  0  0  0
 26 24  1  0  0  0  0
 27 26  2  0  0  0  0
 28 29  1  0  0  0  0
 29 23  1  0  0  0  0
 31 36  1  0  0  0  0
 31 33  1  0  0  0  0
 32 34  1  0  0  0  0
 33 34  1  0  0  0  0
 34 30  1  1  0  0  0
 35 37  1  6  0  0  0
 35 32  1  0  0  0  0
 36 35  1  0  0  0  0
 37 47  1  0  0  0  0
 38 45  1  1  0  0  0
 38 39  1  0  0  0  0
 39 42  1  0  0  0  0
 41 40  1  0  0  0  0
 42 40  1  0  0  0  0
 43 41  1  0  0  0  0
 44 38  1  0  0  0  0
 44 41  2  0  0  0  0
 46 47  1  0  0  0  0
 46 44  1  0  0  0  0
 47 43  2  0  0  0  0
M  END
>  <MODEL>
6

>  <REMARK>
 VINA RESULT:      -6.7      4.279      8.419
  Name = 
  14 active torsions:
  status: ('A' for Active; 'I' for Inactive)
    1  A    between atoms: C_2  and  C_5
    2  A    between atoms: C_2  and  C_40
    3  A    between atoms: C_5  and  O_21
    4  A    between atoms: P_12  and  C_28
    5  A    between atoms: C_13  and  C_31
    6  A    between atoms: N_17  and  C_29
    7  A    between atoms: O_21  and  N_43
    8  A    between atoms: C_22  and  C_46
    9  A    between atoms: C_25  and  N_26
   10  A    between atoms: N_26  and  C_42
   11  A    between atoms: C_28  and  C_33
   12  A    between atoms: C_28  and  C_40
   13  A    between atoms: C_31  and  C_44
   14  A    between atoms: C_34  and  C_46
                            x       y       z     vdW  Elec       q    Type
                         _______ _______ _______ _____ _____    ______ ____

>  <TORSDO>
F 14

$$$$
=
 OpenBabel10232411483D

 47 51  0  0  1  0  0  0  0  0999 V2000
  186.4440  178.0900  142.7210 C   0  0  0  0  0  3  0  0  0  0  0  0
  188.6180  177.4610  141.7600 C   0  0  0  0  0  0  0  0  0  0  0  0
  185.9330  178.4960  141.3450 C   0  0  0  0  0  0  0  0  0  0  0  0
  186.7170  178.3620  140.2890 C   0  0  0  0  0  3  0  0  0  0  0  0
  189.7970  176.9820  141.8710 N   0  0  0  0  0  0  0  0  0  0  0  0
  188.1490  178.1010  140.4760 C   0  0  2  0  0  3  0  0  0  0  0  0
  187.6430  177.6030  142.8650 C   0  0  0  0  0  3  0  0  0  0  0  0
  183.8000  179.2350  142.2780 O   0  0  0  0  0  0  0  0  0  0  0  0
  184.5460  179.0210  141.2710 C   0  0  0  0  0  0  0  0  0  0  0  0
  184.4420  180.2780  139.2740 O   0  0  0  0  0  0  0  0  0  0  0  0
  182.9920  178.5220  139.3350 N   0  0  0  0  0  2  0  0  0  0  0  0
  184.0110  179.2900  139.9180 C   0  0  0  0  0  0  0  0  0  0  0  0
  183.2750  177.3840  135.9390 C   0  0  0  0  0  3  0  0  0  0  0  0
  180.9960  177.9370  136.2580 C   0  0  0  0  0  3  0  0  0  0  0  0
  183.5260  177.6460  137.2680 C   0  0  0  0  0  3  0  0  0  0  0  0
  181.2350  178.2170  137.6030 C   0  0  0  0  0  3  0  0  0  0  0  0
  182.5320  178.1020  138.0690 C   0  0  0  0  0  0  0  0  0  0  0  0
  182.0020  177.5420  135.3930 C   0  0  0  0  0  3  0  0  0  0  0  0
  190.6800  176.5910  142.8350 O   0  0  0  0  0  0  0  0  0  0  0  0
  191.6160  177.4870  143.4370 C   0  0  0  0  0  2  0  0  0  0  0  0
  190.9340  178.2520  144.5310 C   0  0  0  0  0  2  0  0  0  0  0  0
  190.4090  177.0640  145.3520 C   0  0  0  0  0  2  0  0  0  0  0  0
  190.3590  177.0380  146.8030 C   0  0  1  0  0  3  0  0  0  0  0  0
  189.0290  178.5600  148.5080 O   0  0  0  0  0  1  0  0  0  0  0  0
  188.2230  176.1360  148.1920 O   0  0  0  0  0  1  0  0  0  0  0  0
  188.9630  177.3980  147.5420 P   0  0  0  0  0  0  0  0  0  0  0  0
  188.1500  177.7940  146.1740 O   0  0  0  0  0  0  0  0  0  0  0  0
  192.2350  175.4200  146.4670 C   0  0  0  0  0  1  0  0  0  0  0  0
  191.6030  176.5410  147.4740 C   0  0  0  0  0  2  0  0  0  0  0  0
  188.9550  178.3500  139.2670 C   0  0  0  0  0  2  0  0  0  0  0  0
  189.6640  178.0850  136.4330 C   0  0  0  0  0  2  0  0  0  0  0  0
  187.7030  176.4040  137.9780 C   0  0  0  0  0  2  0  0  0  0  0  0
  190.1130  177.0850  137.5250 C   0  0  0  0  0  2  0  0  0  0  0  0
  189.0360  176.9900  138.5840 C   0  0  1  0  0  3  0  0  0  0  0  0
  187.4130  177.0160  136.6960 C   0  0  1  0  0  3  0  0  0  0  0  0
  188.1730  178.0250  136.0080 C   0  0  0  0  0  2  0  0  0  0  0  0
  186.6430  176.2230  135.7510 N   0  0  0  0  0  2  0  0  0  0  0  0
  184.8070  171.5010  135.7640 C   0  0  2  0  0  3  0  0  0  0  0  0
  185.4630  170.2540  135.4700 C   0  0  0  0  0  2  0  0  0  0  0  0
  187.6730  171.3860  135.3010 C   0  0  0  0  0  2  0  0  0  0  0  0
  186.9920  172.7380  135.3320 C   0  0  0  0  0  0  0  0  0  0  0  0
  186.7430  170.4310  134.8140 O   0  0  0  0  0  0  0  0  0  0  0  0
  187.5850  173.9750  135.2230 C   0  0  0  0  0  3  0  0  0  0  0  0
  185.6490  172.7140  135.6470 C   0  0  0  0  0  0  0  0  0  0  0  0
  183.6860  171.4970  136.7360 C   0  0  0  0  0  1  0  0  0  0  0  0
  185.1470  174.2960  135.8030 S   0  0  0  0  0  0  0  0  0  0  0  0
  186.5930  174.9550  135.4960 C   0  0  0  0  0  0  0  0  0  0  0  0
  1  7  2  0  0  0  0
  2  5  2  0  0  0  0
  2  7  1  0  0  0  0
  3  1  1  0  0  0  0
  4  6  1  0  0  0  0
  4  3  2  0  0  0  0
  5 19  1  0  0  0  0
  6 30  1  6  0  0  0
  6  2  1  0  0  0  0
  9  3  1  0  0  0  0
  9  8  2  0  0  0  0
 10 12  2  0  0  0  0
 11 12  1  0  0  0  0
 12  9  1  0  0  0  0
 13 15  1  0  0  0  0
 14 16  2  0  0  0  0
 15 17  2  0  0  0  0
 16 17  1  0  0  0  0
 17 11  1  0  0  0  0
 18 13  2  0  0  0  0
 18 14  1  0  0  0  0
 19 20  1  0  0  0  0
 20 21  1  0  0  0  0
 21 22  1  0  0  0  0
 23 22  1  6  0  0  0
 23 29  1  0  0  0  0
 23 26  1  0  0  0  0
 26 25  1  0  0  0  0
 26 24  1  0  0  0  0
 27 26  2  0  0  0  0
 28 29  1  0  0  0  0
 31 33  1  0  0  0  0
 32 34  1  0  0  0  0
 33 34  1  0  0  0  0
 34 30  1  6  0  0  0
 35 37  1  6  0  0  0
 35 32  1  0  0  0  0
 36 31  1  0  0  0  0
 36 35  1  0  0  0  0
 38 45  1  1  0  0  0
 39 38  1  0  0  0  0
 40 41  1  0  0  0  0
 41 44  2  0  0  0  0
 42 40  1  0  0  0  0
 42 39  1  0  0  0  0
 43 41  1  0  0  0  0
 43 47  2  0  0  0  0
 44 38  1  0  0  0  0
 44 46  1  0  0  0  0
 47 37  1  0  0  0  0
 47 46  1  0  0  0  0
M  END
>  <MODEL>
7

>  <REMARK>
 VINA RESULT:      -6.6      2.727      6.993
  Name = 
  14 active torsions:
  status: ('A' for Active; 'I' for Inactive)
    1  A    between atoms: C_2  and  C_5
    2  A    between atoms: C_2  and  C_40
    3  A    between atoms: C_5  and  O_21
    4  A    between atoms: P_12  and  C_28
    5  A    between atoms: C_13  and  C_31
    6  A    between atoms: N_17  and  C_29
    7  A    between atoms: O_21  and  N_43
    8  A    between atoms: C_22  and  C_46
    9  A    between atoms: C_25  and  N_26
   10  A    between atoms: N_26  and  C_42
   11  A    between atoms: C_28  and  C_33
   12  A    between atoms: C_28  and  C_40
   13  A    between atoms: C_31  and  C_44
   14  A    between atoms: C_34  and  C_46
                            x       y       z     vdW  Elec       q    Type
                         _______ _______ _______ _____ _____    ______ ____

>  <TORSDO>
F 14

$$$$
=
 OpenBabel10232411483D

 47 51  0  0  1  0  0  0  0  0999 V2000
  190.2630  177.4380  141.3050 C   0  0  0  0  0  3  0  0  0  0  0  0
  191.1260  176.9140  139.0630 C   0  0  0  0  0  0  0  0  0  0  0  0
  188.8700  177.6700  140.7340 C   0  0  0  0  0  0  0  0  0  0  0  0
  188.6580  177.5080  139.4390 C   0  0  0  0  0  3  0  0  0  0  0  0
  192.0690  176.5520  138.2810 N   0  0  0  0  0  0  0  0  0  0  0  0
  189.8000  177.3900  138.5250 C   0  0  2  0  0  3  0  0  0  0  0  0
  191.2440  177.0720  140.5310 C   0  0  0  0  0  3  0  0  0  0  0  0
  186.9250  178.9490  141.4700 O   0  0  0  0  0  0  0  0  0  0  0  0
  187.8060  178.0620  141.6930 C   0  0  0  0  0  0  0  0  0  0  0  0
  187.8810  176.1160  143.0300 O   0  0  0  0  0  0  0  0  0  0  0  0
  187.6620  178.0440  144.2210 N   0  0  0  0  0  2  0  0  0  0  0  0
  187.8050  177.3680  143.0000 C   0  0  0  0  0  0  0  0  0  0  0  0
  189.8200  177.2880  146.9920 C   0  0  0  0  0  3  0  0  0  0  0  0
  187.6830  177.7040  147.9200 C   0  0  0  0  0  3  0  0  0  0  0  0
  189.3450  177.6210  145.7430 C   0  0  0  0  0  3  0  0  0  0  0  0
  187.1830  178.0330  146.6610 C   0  0  0  0  0  3  0  0  0  0  0  0
  188.0370  177.9380  145.5770 C   0  0  0  0  0  0  0  0  0  0  0  0
  188.9930  177.3030  148.1140 C   0  0  0  0  0  3  0  0  0  0  0  0
  193.4150  176.3300  138.2990 O   0  0  0  0  0  0  0  0  0  0  0  0
  194.1240  175.7770  137.1880 C   0  0  0  0  0  2  0  0  0  0  0  0
  194.2080  174.2890  137.3460 C   0  0  0  0  0  2  0  0  0  0  0  0
  195.5650  174.0590  136.6620 C   0  0  0  0  0  2  0  0  0  0  0  0
  196.7240  173.4930  137.3270 C   0  0  1  0  0  3  0  0  0  0  0  0
  199.2010  173.9940  138.1060 O   0  0  0  0  0  1  0  0  0  0  0  0
  197.2860  175.0340  139.4750 O   0  0  0  0  0  1  0  0  0  0  0  0
  197.7750  174.4930  138.0500 P   0  0  0  0  0  0  0  0  0  0  0  0
  197.6020  175.7180  136.9730 O   0  0  0  0  0  0  0  0  0  0  0  0
  197.8310  171.5290  136.2460 C   0  0  0  0  0  1  0  0  0  0  0  0
  196.7570  171.9960  137.3850 C   0  0  0  0  0  2  0  0  0  0  0  0
  189.4420  177.5960  137.1090 C   0  0  0  0  0  2  0  0  0  0  0  0
  187.7480  177.4300  134.7210 C   0  0  0  0  0  2  0  0  0  0  0  0
  187.3350  176.0080  137.3400 C   0  0  0  0  0  2  0  0  0  0  0  0
  188.6740  176.2850  135.1940 C   0  0  0  0  0  2  0  0  0  0  0  0
  188.7490  176.3000  136.7050 C   0  0  1  0  0  3  0  0  0  0  0  0
  186.3030  176.7590  136.6540 C   0  0  1  0  0  3  0  0  0  0  0  0
  186.4590  177.6680  135.5510 C   0  0  0  0  0  2  0  0  0  0  0  0
  184.9640  176.1910  136.6630 N   0  0  0  0  0  2  0  0  0  0  0  0
  182.2140  178.0890  140.4710 C   0  0  2  0  0  3  0  0  0  0  0  0
  180.9560  177.6450  141.0140 C   0  0  0  0  0  2  0  0  0  0  0  0
  180.9850  175.6120  139.5780 C   0  0  0  0  0  2  0  0  0  0  0  0
  182.1520  176.1740  138.7920 C   0  0  0  0  0  0  0  0  0  0  0  0
  180.2750  176.6970  140.1550 O   0  0  0  0  0  0  0  0  0  0  0  0
  182.7700  175.6130  137.6980 C   0  0  0  0  0  3  0  0  0  0  0  0
  182.7370  177.3010  139.3310 C   0  0  0  0  0  0  0  0  0  0  0  0
  183.1750  178.7630  141.3780 C   0  0  0  0  0  1  0  0  0  0  0  0
  184.0920  177.6400  138.4220 S   0  0  0  0  0  0  0  0  0  0  0  0
  183.9260  176.3870  137.4120 C   0  0  0  0  0  0  0  0  0  0  0  0
  2  7  1  0  0  0  0
  3  1  1  0  0  0  0
  3  9  1  0  0  0  0
  4  3  2  0  0  0  0
  5 19  1  0  0  0  0
  5  2  2  0  0  0  0
  6 30  1  6  0  0  0
  6  2  1  0  0  0  0
  6  4  1  0  0  0  0
  7  1  2  0  0  0  0
  8  9  2  0  0  0  0
  9 12  1  0  0  0  0
 11 17  1  0  0  0  0
 12 10  2  0  0  0  0
 12 11  1  0  0  0  0
 13 18  1  0  0  0  0
 14 18  2  0  0  0  0
 15 13  2  0  0  0  0
 16 14  1  0  0  0  0
 17 15  1  0  0  0  0
 17 16  2  0  0  0  0
 20 21  1  0  0  0  0
 20 19  1  0  0  0  0
 22 21  1  0  0  0  0
 23 22  1  1  0  0  0
 23 29  1  0  0  0  0
 23 26  1  0  0  0  0
 26 24  1  0  0  0  0
 26 25  1  0  0  0  0
 27 26  2  0  0  0  0
 28 29  1  0  0  0  0
 31 33  1  0  0  0  0
 31 36  1  0  0  0  0
 33 34  1  0  0  0  0
 34 30  1  1  0  0  0
 34 32  1  0  0  0  0
 35 37  1  6  0  0  0
 35 32  1  0  0  0  0
 36 35  1  0  0  0  0
 37 47  1  0  0  0  0
 38 39  1  0  0  0  0
 38 45  1  1  0  0  0
 40 42  1  0  0  0  0
 41 44  2  0  0  0  0
 41 40  1  0  0  0  0
 42 39  1  0  0  0  0
 43 41  1  0  0  0  0
 44 38  1  0  0  0  0
 46 44  1  0  0  0  0
 47 43  2  0  0  0  0
 47 46  1  0  0  0  0
M  END
>  <MODEL>
8

>  <REMARK>
 VINA RESULT:      -6.6      4.018      7.318
  Name = 
  14 active torsions:
  status: ('A' for Active; 'I' for Inactive)
    1  A    between atoms: C_2  and  C_5
    2  A    between atoms: C_2  and  C_40
    3  A    between atoms: C_5  and  O_21
    4  A    between atoms: P_12  and  C_28
    5  A    between atoms: C_13  and  C_31
    6  A    between atoms: N_17  and  C_29
    7  A    between atoms: O_21  and  N_43
    8  A    between atoms: C_22  and  C_46
    9  A    between atoms: C_25  and  N_26
   10  A    between atoms: N_26  and  C_42
   11  A    between atoms: C_28  and  C_33
   12  A    between atoms: C_28  and  C_40
   13  A    between atoms: C_31  and  C_44
   14  A    between atoms: C_34  and  C_46
                            x       y       z     vdW  Elec       q    Type
                         _______ _______ _______ _____ _____    ______ ____

>  <TORSDO>
F 14

$$$$
=
 OpenBabel10232411483D

 47 51  0  0  1  0  0  0  0  0999 V2000
  189.9740  178.0720  140.6230 C   0  0  0  0  0  3  0  0  0  0  0  0
  187.5440  178.1040  140.2450 C   0  0  0  0  0  0  0  0  0  0  0  0
  189.7650  177.5650  142.0430 C   0  0  0  0  0  0  0  0  0  0  0  0
  188.5390  177.3380  142.4840 C   0  0  0  0  0  3  0  0  0  0  0  0
  186.5290  178.2900  139.4930 N   0  0  0  0  0  0  0  0  0  0  0  0
  187.3890  177.8390  141.7230 C   0  0  2  0  0  3  0  0  0  0  0  0
  188.9570  178.2750  139.8350 C   0  0  0  0  0  3  0  0  0  0  0  0
  192.0900  176.9130  142.4080 O   0  0  0  0  0  0  0  0  0  0  0  0
  190.9820  177.3390  142.8630 C   0  0  0  0  0  0  0  0  0  0  0  0
  191.7460  178.3240  144.8700 O   0  0  0  0  0  0  0  0  0  0  0  0
  189.8460  177.0910  145.1120 N   0  0  0  0  0  2  0  0  0  0  0  0
  190.8680  177.6220  144.3110 C   0  0  0  0  0  0  0  0  0  0  0  0
  186.9730  178.1560  146.9880 C   0  0  0  0  0  3  0  0  0  0  0  0
  188.7600  178.0370  148.5360 C   0  0  0  0  0  3  0  0  0  0  0  0
  187.7920  177.6520  146.0020 C   0  0  0  0  0  3  0  0  0  0  0  0
  189.6050  177.5360  147.5460 C   0  0  0  0  0  3  0  0  0  0  0  0
  189.0960  177.3960  146.2670 C   0  0  0  0  0  0  0  0  0  0  0  0
  187.4440  178.3800  148.2820 C   0  0  0  0  0  3  0  0  0  0  0  0
  186.2170  178.7910  138.2630 O   0  0  0  0  0  0  0  0  0  0  0  0
  186.3490  178.0310  137.0610 C   0  0  0  0  0  2  0  0  0  0  0  0
  187.6360  178.3940  136.3850 C   0  0  0  0  0  2  0  0  0  0  0  0
  187.9440  177.0390  135.7280 C   0  0  0  0  0  2  0  0  0  0  0  0
  188.1660  175.8100  136.4670 C   0  0  1  0  0  3  0  0  0  0  0  0
  186.5020  174.5750  134.8250 O   0  0  0  0  0  0  0  0  0  0  0  0
  186.2390  174.1310  137.3470 O   0  0  0  0  0  1  0  0  0  0  0  0
  187.2270  174.5280  136.1510 P   0  0  0  0  0  0  0  0  0  0  0  0
  188.4470  173.4320  136.1360 O   0  0  0  0  0  1  0  0  0  0  0  0
  190.6370  176.1960  136.4320 C   0  0  0  0  0  1  0  0  0  0  0  0
  189.3580  175.8200  137.3770 C   0  0  0  0  0  2  0  0  0  0  0  0
  186.1340  177.8560  142.4960 C   0  0  0  0  0  2  0  0  0  0  0  0
  184.0550  179.0970  144.1520 C   0  0  0  0  0  2  0  0  0  0  0  0
  184.2060  179.0710  141.1470 C   0  0  0  0  0  2  0  0  0  0  0  0
  185.1210  179.9020  143.3710 C   0  0  0  0  0  2  0  0  0  0  0  0
  185.4630  179.1640  142.0950 C   0  0  1  0  0  3  0  0  0  0  0  0
  183.0230  178.7110  141.9020 C   0  0  1  0  0  3  0  0  0  0  0  0
  182.9220  178.4500  143.3120 C   0  0  0  0  0  2  0  0  0  0  0  0
  181.7460  179.1630  141.3730 N   0  0  0  0  0  2  0  0  0  0  0  0
  181.1070  178.8170  136.3590 C   0  0  2  0  0  3  0  0  0  0  0  0
  180.7260  179.8260  135.4040 C   0  0  0  0  0  2  0  0  0  0  0  0
  180.8440  181.6030  137.1430 C   0  0  0  0  0  2  0  0  0  0  0  0
  180.9740  180.5500  138.2230 C   0  0  0  0  0  0  0  0  0  0  0  0
  180.1890  181.0180  136.0280 O   0  0  0  0  0  0  0  0  0  0  0  0
  181.0440  180.7510  139.5820 C   0  0  0  0  0  3  0  0  0  0  0  0
  181.1850  179.2640  137.7690 C   0  0  0  0  0  0  0  0  0  0  0  0
  181.9890  177.7140  135.9060 C   0  0  0  0  0  1  0  0  0  0  0  0
  181.4760  178.3080  139.1030 S   0  0  0  0  0  0  0  0  0  0  0  0
  181.3500  179.5020  140.1880 C   0  0  0  0  0  0  0  0  0  0  0  0
  1  3  1  0  0  0  0
  2  6  1  0  0  0  0
  3  4  2  0  0  0  0
  3  9  1  0  0  0  0
  5  2  2  0  0  0  0
  6  4  1  0  0  0  0
  6 30  1  6  0  0  0
  7  2  1  0  0  0  0
  7  1  2  0  0  0  0
  8  9  2  0  0  0  0
  9 12  1  0  0  0  0
 11 17  1  0  0  0  0
 12 10  2  0  0  0  0
 12 11  1  0  0  0  0
 13 18  1  0  0  0  0
 15 17  1  0  0  0  0
 15 13  2  0  0  0  0
 16 14  1  0  0  0  0
 17 16  2  0  0  0  0
 18 14  2  0  0  0  0
 19  5  1  0  0  0  0
 20 19  1  0  0  0  0
 21 20  1  0  0  0  0
 22 21  1  0  0  0  0
 23 22  1  6  0  0  0
 23 29  1  0  0  0  0
 24 26  2  0  0  0  0
 26 23  1  0  0  0  0
 26 25  1  0  0  0  0
 27 26  1  0  0  0  0
 28 29  1  0  0  0  0
 32 35  1  0  0  0  0
 32 34  1  0  0  0  0
 33 31  1  0  0  0  0
 34 30  1  1  0  0  0
 34 33  1  0  0  0  0
 35 37  1  1  0  0  0
 35 36  1  0  0  0  0
 36 31  1  0  0  0  0
 38 45  1  6  0  0  0
 38 44  1  0  0  0  0
 39 42  1  0  0  0  0
 39 38  1  0  0  0  0
 40 41  1  0  0  0  0
 41 43  1  0  0  0  0
 42 40  1  0  0  0  0
 43 47  2  0  0  0  0
 44 41  2  0  0  0  0
 44 46  1  0  0  0  0
 46 47  1  0  0  0  0
 47 37  1  0  0  0  0
M  END
>  <MODEL>
9

>  <REMARK>
 VINA RESULT:      -6.6      3.110      6.270
  Name = 
  14 active torsions:
  status: ('A' for Active; 'I' for Inactive)
    1  A    between atoms: C_2  and  C_5
    2  A    between atoms: C_2  and  C_40
    3  A    between atoms: C_5  and  O_21
    4  A    between atoms: P_12  and  C_28
    5  A    between atoms: C_13  and  C_31
    6  A    between atoms: N_17  and  C_29
    7  A    between atoms: O_21  and  N_43
    8  A    between atoms: C_22  and  C_46
    9  A    between atoms: C_25  and  N_26
   10  A    between atoms: N_26  and  C_42
   11  A    between atoms: C_28  and  C_33
   12  A    between atoms: C_28  and  C_40
   13  A    between atoms: C_31  and  C_44
   14  A    between atoms: C_34  and  C_46
                            x       y       z     vdW  Elec       q    Type
                         _______ _______ _______ _____ _____    ______ ____

>  <TORSDO>
F 14

$$$$
