=
 OpenBabel10232412293D

 55 60  0  0  1  0  0  0  0  0999 V2000
  190.4950  176.7020  140.1430 C   0  0  2  0  0  3  0  0  0  0  0  0
  190.8270  175.8800  138.8550 C   0  0  1  0  0  3  0  0  0  0  0  0
  188.4730  176.4310  135.8710 C   0  0  0  0  0  3  0  0  0  0  0  0
  187.7740  177.6760  137.8420 C   0  0  0  0  0  3  0  0  0  0  0  0
  189.7600  176.3090  137.8990 C   0  0  0  0  0  0  0  0  0  0  0  0
  189.5760  175.9180  136.5730 C   0  0  0  0  0  3  0  0  0  0  0  0
  188.8770  177.1560  138.5140 C   0  0  0  0  0  0  0  0  0  0  0  0
  189.2480  177.4100  139.8510 N   0  0  0  0  0  0  0  0  0  0  0  0
  187.5670  177.3070  136.5000 C   0  0  0  0  0  0  0  0  0  0  0  0
  194.2030  175.5870  137.0730 N   0  0  0  0  0  2  0  0  0  0  0  0
  192.4840  174.0420  137.4100 O   0  0  0  0  0  0  0  0  0  0  0  0
  192.9290  175.2120  137.5960 C   0  0  0  0  0  0  0  0  0  0  0  0
  192.1570  176.1700  138.3220 N   0  0  0  0  0  2  0  0  0  0  0  0
  195.0690  174.6430  136.3820 C   0  0  1  0  0  3  0  0  0  0  0  0
  197.6150  175.4340  137.9590 O   0  0  0  0  0  1  0  0  0  0  0  0
  195.8290  172.3640  137.0240 C   0  0  0  0  0  1  0  0  0  0  0  0
  196.3390  175.3540  135.9250 C   0  0  0  0  0  2  0  0  0  0  0  0
  197.1400  174.5810  136.9580 C   0  0  2  0  0  0  0  0  0  0  0  0
  195.8710  173.8430  137.4020 C   0  0  1  0  0  3  0  0  0  0  0  0
  198.2610  173.7590  136.3180 C   0  0  0  0  0  2  0  0  0  0  0  0
  199.3980  173.6960  137.1990 N   0  0  0  0  0  0  0  0  0  0  0  0
  199.9490  172.5660  137.4510 C   0  0  0  0  0  2  0  0  0  0  0  0
  186.4590  177.8130  135.7480 N   0  0  0  0  0  2  0  0  0  0  0  0
  184.5570  177.7290  134.3470 O   0  0  0  0  0  1  0  0  0  0  0  0
  185.2650  177.0630  135.3490 C   0  0  2  0  0  3  0  0  0  0  0  0
  182.3290  178.5640  139.0280 C   0  0  0  0  0  0  0  0  0  0  0  0
  181.4990  178.2500  140.0580 N   0  0  0  0  0  0  0  0  0  0  0  0
  182.9480  177.5360  138.3060 C   0  0  0  0  0  0  0  0  0  0  0  0
  182.5880  180.2570  138.6310 Cl  0  0  0  0  0  0  0  0  0  0  0  0
  182.7000  176.2030  138.6910 C   0  0  0  0  0  0  0  0  0  0  0  0
  184.1480  175.4210  136.9210 C   0  0  0  0  0  3  0  0  0  0  0  0
  181.2630  176.9570  140.4090 C   0  0  0  0  0  3  0  0  0  0  0  0
  181.8620  175.9450  139.7300 N   0  0  0  0  0  0  0  0  0  0  0  0
  183.3050  175.1500  138.0020 C   0  0  0  0  0  3  0  0  0  0  0  0
  183.7900  177.7970  137.2200 C   0  0  0  0  0  3  0  0  0  0  0  0
  184.3850  176.7430  136.5190 C   0  0  0  0  0  0  0  0  0  0  0  0
  188.4650  178.1800  140.8120 C   0  0  0  0  0  2  0  0  0  0  0  0
  187.7600  177.2480  141.7960 C   0  0  0  0  0  2  0  0  0  0  0  0
  186.8370  178.0320  142.7430 C   0  0  2  0  0  3  0  0  0  0  0  0
  187.9750  176.6850  146.0880 O   0  0  0  0  0  0  0  0  0  0  0  0
  187.7280  177.8350  146.8660 C   0  0  1  0  0  3  0  0  0  0  0  0
  186.4580  178.5210  146.4060 C   0  0  0  0  0  0  0  0  0  0  0  0
  185.8330  179.3150  147.1570 O   0  0  0  0  0  0  0  0  0  0  0  0
  186.0500  178.3660  145.0380 N   0  0  0  0  0  2  0  0  0  0  0  0
  188.1350  177.1040  144.7500 C   0  0  0  0  0  2  0  0  0  0  0  0
  186.7580  177.4430  144.1580 C   0  0  2  0  0  3  0  0  0  0  0  0
  187.6500  177.4240  148.3350 C   0  0  0  0  0  2  0  0  0  0  0  0
  188.0570  178.5270  149.1900 N   0  0  0  0  0  1  0  0  0  0  0  0
  185.5700  178.3170  142.1930 O   0  0  0  0  0  0  0  0  0  0  0  0
  185.6000  179.5710  141.7780 O   0  0  0  0  0  1  0  0  0  0  0  0
  191.5860  177.6780  140.6200 C   0  0  0  0  0  2  0  0  0  0  0  0
  191.2880  176.5790  142.7930 C   0  0  0  0  0  3  0  0  0  0  0  0
  191.9850  177.4360  142.0420 C   0  0  0  0  0  3  0  0  0  0  0  0
  191.6960  176.3440  144.2050 C   0  0  0  0  0  2  0  0  0  0  0  0
  191.5490  177.6310  144.9890 C   0  0  0  0  0  1  0  0  0  0  0  0
  1 51  1  6  0  0  0
  2 13  1  6  0  0  0
  2  1  1  0  0  0  0
  3  9  2  0  0  0  0
  3  6  1  0  0  0  0
  4  7  2  0  0  0  0
  5  7  1  0  0  0  0
  5  2  1  0  0  0  0
  6  5  2  0  0  0  0
  7  8  1  0  0  0  0
  8  1  1  0  0  0  0
  8 37  1  0  0  0  0
  9  4  1  0  0  0  0
 10 12  1  0  0  0  0
 11 12  2  0  0  0  0
 12 13  1  0  0  0  0
 14 10  1  1  0  0  0
 14 19  1  0  0  0  0
 17 14  1  0  0  0  0
 17 18  1  0  0  0  0
 18 19  1  0  0  0  0
 18 15  1  1  0  0  0
 19 16  1  6  0  0  0
 20 18  1  0  0  0  0
 20 21  1  0  0  0  0
 21 22  2  0  0  0  0
 23  9  1  0  0  0  0
 25 24  1  6  0  0  0
 25 23  1  0  0  0  0
 25 36  1  0  0  0  0
 26 27  1  0  0  0  0
 27 32  2  0  0  0  0
 28 30  1  0  0  0  0
 28 26  2  0  0  0  0
 29 26  1  0  0  0  0
 30 33  2  0  0  0  0
 31 34  2  0  0  0  0
 33 32  1  0  0  0  0
 34 30  1  0  0  0  0
 35 28  1  0  0  0  0
 36 31  1  0  0  0  0
 36 35  2  0  0  0  0
 37 38  1  0  0  0  0
 39 38  1  6  0  0  0
 40 41  1  0  0  0  0
 41 47  1  1  0  0  0
 42 41  1  0  0  0  0
 42 43  2  0  0  0  0
 44 42  1  0  0  0  0
 45 40  1  0  0  0  0
 46 39  1  6  0  0  0
 46 45  1  0  0  0  0
 46 44  1  0  0  0  0
 47 48  1  0  0  0  0
 49 39  1  0  0  0  0
 50 49  1  0  0  0  0
 51 53  1  0  0  0  0
 52 54  1  0  0  0  0
 53 52  2  0  0  0  0
 54 55  1  0  0  0  0
M  END
>  <MODEL>
1

>  <REMARK>
 VINA RESULT:      -7.5      0.000      0.000
  Name = 
  16 active torsions:
  status: ('A' for Active; 'I' for Inactive)
    1  A    between atoms: N_2  and  C_16
    2  A    between atoms: C_3  and  N_7
    3  A    between atoms: C_4  and  C_27
    4  A    between atoms: C_5  and  C_35
    5  A    between atoms: C_6  and  N_52
    6  A    between atoms: C_10  and  C_26
    7  A    between atoms: C_16  and  C_42
    8  A    between atoms: O_18  and  C_30
    9  A    between atoms: C_27  and  C_49
   10  A    between atoms: C_30  and  C_44
   11  A    between atoms: C_30  and  C_48
   12  A    between atoms: C_36  and  C_54
   13  A    between atoms: C_36  and  N_55
   14  A    between atoms: C_43  and  C_44
   15  A    between atoms: C_43  and  N_50
   16  A    between atoms: C_53  and  N_55
                            x       y       z     vdW  Elec       q    Type
                         _______ _______ _______ _____ _____    ______ ____

>  <TORSDO>
F 16

$$$$
=
 OpenBabel10232412293D

 55 60  0  0  1  0  0  0  0  0999 V2000
  189.7520  175.0500  135.9530 C   0  0  2  0  0  3  0  0  0  0  0  0
  191.1450  175.6350  136.3550 C   0  0  1  0  0  3  0  0  0  0  0  0
  191.3300  177.2740  139.8220 C   0  0  0  0  0  3  0  0  0  0  0  0
  189.0830  176.5160  139.2780 C   0  0  0  0  0  3  0  0  0  0  0  0
  190.8970  176.1840  137.7230 C   0  0  0  0  0  0  0  0  0  0  0  0
  191.8010  176.8030  138.5870 C   0  0  0  0  0  3  0  0  0  0  0  0
  189.5760  176.0550  138.0600 C   0  0  0  0  0  0  0  0  0  0  0  0
  188.8420  175.4090  137.0420 N   0  0  0  0  0  0  0  0  0  0  0  0
  189.9730  177.1370  140.1730 C   0  0  0  0  0  0  0  0  0  0  0  0
  194.5130  173.8480  136.0070 N   0  0  0  0  0  2  0  0  0  0  0  0
  193.8310  176.0040  135.4270 O   0  0  0  0  0  0  0  0  0  0  0  0
  193.5280  174.8760  135.9120 C   0  0  0  0  0  0  0  0  0  0  0  0
  192.2010  174.6250  136.3780 N   0  0  0  0  0  2  0  0  0  0  0  0
  195.8640  174.0140  135.4910 C   0  0  1  0  0  3  0  0  0  0  0  0
  197.2450  172.9340  138.0460 O   0  0  0  0  0  1  0  0  0  0  0  0
  197.4060  172.3860  134.4180 C   0  0  0  0  0  1  0  0  0  0  0  0
  196.7240  174.7260  136.5320 C   0  0  0  0  0  2  0  0  0  0  0  0
  197.4980  173.4410  136.7670 C   0  0  2  0  0  0  0  0  0  0  0  0
  196.6540  172.7270  135.7020 C   0  0  1  0  0  3  0  0  0  0  0  0
  198.9950  173.6140  136.4990 C   0  0  0  0  0  2  0  0  0  0  0  0
  199.7480  173.3800  137.7040 N   0  0  0  0  0  0  0  0  0  0  0  0
  200.0030  174.3540  138.4960 C   0  0  0  0  0  2  0  0  0  0  0  0
  189.5340  177.6240  141.4450 N   0  0  0  0  0  2  0  0  0  0  0  0
  187.7250  179.1430  141.3530 O   0  0  0  0  0  1  0  0  0  0  0  0
  188.1500  177.9050  141.8370 C   0  0  2  0  0  3  0  0  0  0  0  0
  190.0170  177.2150  146.3590 C   0  0  0  0  0  0  0  0  0  0  0  0
  189.8250  177.1710  147.7040 N   0  0  0  0  0  0  0  0  0  0  0  0
  188.9260  177.4630  145.5170 C   0  0  0  0  0  0  0  0  0  0  0  0
  191.6380  176.9720  145.7240 Cl  0  0  0  0  0  0  0  0  0  0  0  0
  187.6550  177.6370  146.0990 C   0  0  0  0  0  0  0  0  0  0  0  0
  186.6900  177.9540  143.9070 C   0  0  0  0  0  3  0  0  0  0  0  0
  188.5920  177.3520  148.2500 C   0  0  0  0  0  3  0  0  0  0  0  0
  187.5180  177.5810  147.4510 N   0  0  0  0  0  0  0  0  0  0  0  0
  186.5410  177.8760  145.2930 C   0  0  0  0  0  3  0  0  0  0  0  0
  189.0670  177.5470  144.1270 C   0  0  0  0  0  3  0  0  0  0  0  0
  187.9550  177.8010  143.3190 C   0  0  0  0  0  0  0  0  0  0  0  0
  187.3960  175.2150  137.0390 C   0  0  0  0  0  2  0  0  0  0  0  0
  186.7110  176.3130  136.2270 C   0  0  0  0  0  2  0  0  0  0  0  0
  186.7730  177.6660  136.9550 C   0  0  2  0  0  3  0  0  0  0  0  0
  183.1520  177.5790  138.0390 O   0  0  0  0  0  0  0  0  0  0  0  0
  183.3550  177.6240  139.4340 C   0  0  1  0  0  3  0  0  0  0  0  0
  184.5130  178.5420  139.7690 C   0  0  0  0  0  0  0  0  0  0  0  0
  184.6420  179.0400  140.9180 O   0  0  0  0  0  0  0  0  0  0  0  0
  185.5500  178.7240  138.7940 N   0  0  0  0  0  2  0  0  0  0  0  0
  184.3300  177.0680  137.4540 C   0  0  0  0  0  2  0  0  0  0  0  0
  185.4100  178.1620  137.4550 C   0  0  2  0  0  3  0  0  0  0  0  0
  182.0590  178.0780  140.1030 C   0  0  0  0  0  2  0  0  0  0  0  0
  181.6260  179.3510  139.5520 N   0  0  0  0  0  1  0  0  0  0  0  0
  187.4980  178.6530  136.2560 O   0  0  0  0  0  0  0  0  0  0  0  0
  188.1280  179.3840  137.1570 O   0  0  0  0  0  1  0  0  0  0  0  0
  189.7100  173.5370  135.6750 C   0  0  0  0  0  2  0  0  0  0  0  0
  187.8630  172.0090  135.1540 C   0  0  0  0  0  3  0  0  0  0  0  0
  188.5150  173.1390  134.8670 C   0  0  0  0  0  3  0  0  0  0  0  0
  186.6740  171.6240  134.3460 C   0  0  0  0  0  2  0  0  0  0  0  0
  185.4150  171.9540  135.1210 C   0  0  0  0  0  1  0  0  0  0  0  0
  1 51  1  1  0  0  0
  1  2  1  0  0  0  0
  1  8  1  0  0  0  0
  2 13  1  1  0  0  0
  2  5  1  0  0  0  0
  3  9  1  0  0  0  0
  4  9  2  0  0  0  0
  5  7  2  0  0  0  0
  5  6  1  0  0  0  0
  6  3  2  0  0  0  0
  7  4  1  0  0  0  0
  8  7  1  0  0  0  0
  9 23  1  0  0  0  0
 11 12  2  0  0  0  0
 12 10  1  0  0  0  0
 12 13  1  0  0  0  0
 14 19  1  0  0  0  0
 14 10  1  1  0  0  0
 14 17  1  0  0  0  0
 17 18  1  0  0  0  0
 18 15  1  1  0  0  0
 19 16  1  6  0  0  0
 19 18  1  0  0  0  0
 20 18  1  0  0  0  0
 20 21  1  0  0  0  0
 21 22  2  0  0  0  0
 23 25  1  0  0  0  0
 25 24  1  1  0  0  0
 25 36  1  0  0  0  0
 26 27  1  0  0  0  0
 27 32  2  0  0  0  0
 28 30  1  0  0  0  0
 28 26  2  0  0  0  0
 29 26  1  0  0  0  0
 30 33  2  0  0  0  0
 31 34  2  0  0  0  0
 33 32  1  0  0  0  0
 34 30  1  0  0  0  0
 35 28  1  0  0  0  0
 36 31  1  0  0  0  0
 36 35  2  0  0  0  0
 37  8  1  0  0  0  0
 38 37  1  0  0  0  0
 39 38  1  6  0  0  0
 40 41  1  0  0  0  0
 41 42  1  0  0  0  0
 41 47  1  1  0  0  0
 42 43  2  0  0  0  0
 44 42  1  0  0  0  0
 45 46  1  0  0  0  0
 45 40  1  0  0  0  0
 46 39  1  1  0  0  0
 46 44  1  0  0  0  0
 48 47  1  0  0  0  0
 49 39  1  0  0  0  0
 49 50  1  0  0  0  0
 53 52  2  0  0  0  0
 53 51  1  0  0  0  0
 54 55  1  0  0  0  0
 54 52  1  0  0  0  0
M  END
>  <MODEL>
2

>  <REMARK>
 VINA RESULT:      -7.3      2.730      6.968
  Name = 
  16 active torsions:
  status: ('A' for Active; 'I' for Inactive)
    1  A    between atoms: N_2  and  C_16
    2  A    between atoms: C_3  and  N_7
    3  A    between atoms: C_4  and  C_27
    4  A    between atoms: C_5  and  C_35
    5  A    between atoms: C_6  and  N_52
    6  A    between atoms: C_10  and  C_26
    7  A    between atoms: C_16  and  C_42
    8  A    between atoms: O_18  and  C_30
    9  A    between atoms: C_27  and  C_49
   10  A    between atoms: C_30  and  C_44
   11  A    between atoms: C_30  and  C_48
   12  A    between atoms: C_36  and  C_54
   13  A    between atoms: C_36  and  N_55
   14  A    between atoms: C_43  and  C_44
   15  A    between atoms: C_43  and  N_50
   16  A    between atoms: C_53  and  N_55
                            x       y       z     vdW  Elec       q    Type
                         _______ _______ _______ _____ _____    ______ ____

>  <TORSDO>
F 16

$$$$
=
 OpenBabel10232412293D

 55 60  0  0  1  0  0  0  0  0999 V2000
  189.2410  176.1160  136.8860 C   0  0  2  0  0  3  0  0  0  0  0  0
  190.3170  176.8580  137.7440 C   0  0  1  0  0  3  0  0  0  0  0  0
  189.0120  178.6270  140.8920 C   0  0  0  0  0  3  0  0  0  0  0  0
  187.2210  177.6180  139.5900 C   0  0  0  0  0  3  0  0  0  0  0  0
  189.5150  177.4250  138.8710 C   0  0  0  0  0  0  0  0  0  0  0  0
  189.9610  178.1650  139.9660 C   0  0  0  0  0  3  0  0  0  0  0  0
  188.1820  177.1700  138.6880 C   0  0  0  0  0  0  0  0  0  0  0  0
  187.9550  176.4160  137.5180 N   0  0  0  0  0  0  0  0  0  0  0  0
  187.6420  178.3610  140.7090 C   0  0  0  0  0  0  0  0  0  0  0  0
  193.6070  174.9440  138.1580 N   0  0  0  0  0  2  0  0  0  0  0  0
  192.8690  176.4290  136.5130 O   0  0  0  0  0  0  0  0  0  0  0  0
  192.6230  175.8050  137.5860 C   0  0  0  0  0  0  0  0  0  0  0  0
  191.3620  175.9650  138.2400 N   0  0  0  0  0  2  0  0  0  0  0  0
  194.8850  174.6850  137.5110 C   0  0  1  0  0  3  0  0  0  0  0  0
  195.1800  171.8270  138.6690 O   0  0  0  0  0  1  0  0  0  0  0  0
  195.4240  173.4850  135.4000 C   0  0  0  0  0  1  0  0  0  0  0  0
  195.8700  174.1240  138.5310 C   0  0  0  0  0  2  0  0  0  0  0  0
  195.8040  172.7700  137.8460 C   0  0  2  0  0  0  0  0  0  0  0  0
  194.8340  173.3360  136.8010 C   0  0  1  0  0  3  0  0  0  0  0  0
  197.1800  172.3000  137.3680 C   0  0  0  0  0  2  0  0  0  0  0  0
  197.2180  170.8630  137.2930 N   0  0  0  0  0  0  0  0  0  0  0  0
  198.3360  170.2470  137.4070 C   0  0  0  0  0  2  0  0  0  0  0  0
  186.7070  178.8430  141.6800 N   0  0  0  0  0  2  0  0  0  0  0  0
  184.4660  178.3990  142.2880 O   0  0  0  0  0  1  0  0  0  0  0  0
  185.7960  178.0270  142.4890 C   0  0  2  0  0  3  0  0  0  0  0  0
  189.0960  177.2790  146.0890 C   0  0  0  0  0  0  0  0  0  0  0  0
  189.4190  177.3560  147.4070 N   0  0  0  0  0  0  0  0  0  0  0  0
  187.8210  177.6770  145.6690 C   0  0  0  0  0  0  0  0  0  0  0  0
  190.3010  176.6910  144.9510 Cl  0  0  0  0  0  0  0  0  0  0  0  0
  186.9050  178.1270  146.6410 C   0  0  0  0  0  0  0  0  0  0  0  0
  185.2480  178.4840  144.9190 C   0  0  0  0  0  3  0  0  0  0  0  0
  188.5260  177.8030  148.3310 C   0  0  0  0  0  3  0  0  0  0  0  0
  187.2800  178.1830  147.9470 N   0  0  0  0  0  0  0  0  0  0  0  0
  185.6210  178.5230  146.2650 C   0  0  0  0  0  3  0  0  0  0  0  0
  187.4400  177.6450  144.3230 C   0  0  0  0  0  3  0  0  0  0  0  0
  186.1590  178.0560  143.9420 C   0  0  0  0  0  0  0  0  0  0  0  0
  186.6430  176.0710  136.9780 C   0  0  0  0  0  2  0  0  0  0  0  0
  185.8000  177.3280  136.7790 C   0  0  0  0  0  2  0  0  0  0  0  0
  184.4050  176.9830  136.2300 C   0  0  2  0  0  3  0  0  0  0  0  0
  182.6790  177.7890  139.4960 O   0  0  0  0  0  0  0  0  0  0  0  0
  182.2070  179.0770  139.1650 C   0  0  1  0  0  3  0  0  0  0  0  0
  181.7560  179.1180  137.7190 C   0  0  0  0  0  0  0  0  0  0  0  0
  180.9630  180.0040  137.3060 O   0  0  0  0  0  0  0  0  0  0  0  0
  182.3620  178.2130  136.7840 N   0  0  0  0  0  2  0  0  0  0  0  0
  183.7820  177.5130  138.6590 C   0  0  0  0  0  2  0  0  0  0  0  0
  183.2740  177.1740  137.2490 C   0  0  2  0  0  3  0  0  0  0  0  0
  181.0760  179.4440  140.1230 C   0  0  0  0  0  2  0  0  0  0  0  0
  180.8680  178.3800  141.0910 N   0  0  0  0  0  1  0  0  0  0  0  0
  184.3490  175.7380  135.5690 O   0  0  0  0  0  0  0  0  0  0  0  0
  183.3120  175.0850  136.0610 O   0  0  0  0  0  1  0  0  0  0  0  0
  189.4360  174.5990  136.7230 C   0  0  0  0  0  2  0  0  0  0  0  0
  187.9340  172.6620  136.6070 C   0  0  0  0  0  3  0  0  0  0  0  0
  188.2000  173.9140  136.2270 C   0  0  0  0  0  3  0  0  0  0  0  0
  186.7010  171.9930  136.1110 C   0  0  0  0  0  2  0  0  0  0  0  0
  186.5530  172.2530  134.6270 C   0  0  0  0  0  1  0  0  0  0  0  0
  1 51  1  1  0  0  0
  1  8  1  0  0  0  0
  1  2  1  0  0  0  0
  2 13  1  1  0  0  0
  2  5  1  0  0  0  0
  4  9  2  0  0  0  0
  5  6  1  0  0  0  0
  6  3  2  0  0  0  0
  7  5  2  0  0  0  0
  7  4  1  0  0  0  0
  8  7  1  0  0  0  0
  9  3  1  0  0  0  0
  9 23  1  0  0  0  0
 11 12  2  0  0  0  0
 12 10  1  0  0  0  0
 12 13  1  0  0  0  0
 14 10  1  1  0  0  0
 14 17  1  0  0  0  0
 18 17  1  0  0  0  0
 18 15  1  1  0  0  0
 19 16  1  6  0  0  0
 19 14  1  0  0  0  0
 19 18  1  0  0  0  0
 20 18  1  0  0  0  0
 21 20  1  0  0  0  0
 21 22  2  0  0  0  0
 23 25  1  0  0  0  0
 25 24  1  1  0  0  0
 25 36  1  0  0  0  0
 26 27  1  0  0  0  0
 27 32  2  0  0  0  0
 28 26  2  0  0  0  0
 28 30  1  0  0  0  0
 29 26  1  0  0  0  0
 30 33  2  0  0  0  0
 31 34  2  0  0  0  0
 33 32  1  0  0  0  0
 34 30  1  0  0  0  0
 35 28  1  0  0  0  0
 36 35  2  0  0  0  0
 36 31  1  0  0  0  0
 37  8  1  0  0  0  0
 38 37  1  0  0  0  0
 39 38  1  1  0  0  0
 41 40  1  0  0  0  0
 41 47  1  1  0  0  0
 42 41  1  0  0  0  0
 43 42  2  0  0  0  0
 44 46  1  0  0  0  0
 44 42  1  0  0  0  0
 45 40  1  0  0  0  0
 46 39  1  6  0  0  0
 46 45  1  0  0  0  0
 47 48  1  0  0  0  0
 49 50  1  0  0  0  0
 49 39  1  0  0  0  0
 53 52  2  0  0  0  0
 53 51  1  0  0  0  0
 54 52  1  0  0  0  0
 55 54  1  0  0  0  0
M  END
>  <MODEL>
3

>  <REMARK>
 VINA RESULT:      -6.9      2.577      7.088
  Name = 
  16 active torsions:
  status: ('A' for Active; 'I' for Inactive)
    1  A    between atoms: N_2  and  C_16
    2  A    between atoms: C_3  and  N_7
    3  A    between atoms: C_4  and  C_27
    4  A    between atoms: C_5  and  C_35
    5  A    between atoms: C_6  and  N_52
    6  A    between atoms: C_10  and  C_26
    7  A    between atoms: C_16  and  C_42
    8  A    between atoms: O_18  and  C_30
    9  A    between atoms: C_27  and  C_49
   10  A    between atoms: C_30  and  C_44
   11  A    between atoms: C_30  and  C_48
   12  A    between atoms: C_36  and  C_54
   13  A    between atoms: C_36  and  N_55
   14  A    between atoms: C_43  and  C_44
   15  A    between atoms: C_43  and  N_50
   16  A    between atoms: C_53  and  N_55
                            x       y       z     vdW  Elec       q    Type
                         _______ _______ _______ _____ _____    ______ ____

>  <TORSDO>
F 16

$$$$
=
 OpenBabel10232412293D

 55 60  0  0  1  0  0  0  0  0999 V2000
  190.3230  176.8130  139.8850 C   0  0  2  0  0  3  0  0  0  0  0  0
  190.5530  175.7990  138.7180 C   0  0  1  0  0  3  0  0  0  0  0  0
  188.1350  176.0980  135.7490 C   0  0  0  0  0  3  0  0  0  0  0  0
  187.5920  177.6510  137.5430 C   0  0  0  0  0  3  0  0  0  0  0  0
  189.4830  176.1660  137.7390 C   0  0  0  0  0  0  0  0  0  0  0  0
  189.2260  175.6100  136.4860 C   0  0  0  0  0  3  0  0  0  0  0  0
  188.6820  177.1510  138.2520 C   0  0  0  0  0  0  0  0  0  0  0  0
  189.1170  177.5610  139.5300 N   0  0  0  0  0  0  0  0  0  0  0  0
  187.3130  177.1150  136.2720 C   0  0  0  0  0  0  0  0  0  0  0  0
  193.8740  175.0020  136.9890 N   0  0  0  0  0  2  0  0  0  0  0  0
  192.1120  173.6320  137.6760 O   0  0  0  0  0  0  0  0  0  0  0  0
  192.6010  174.7970  137.6000 C   0  0  0  0  0  0  0  0  0  0  0  0
  191.8790  175.9170  138.1150 N   0  0  0  0  0  2  0  0  0  0  0  0
  194.6910  173.8980  136.5040 C   0  0  1  0  0  3  0  0  0  0  0  0
  197.3150  174.9510  137.7710 O   0  0  0  0  0  1  0  0  0  0  0  0
  195.4260  171.8040  137.6250 C   0  0  0  0  0  1  0  0  0  0  0  0
  195.9570  174.4480  135.8530 C   0  0  0  0  0  2  0  0  0  0  0  0
  196.7810  173.9070  137.0080 C   0  0  2  0  0  0  0  0  0  0  0  0
  195.5150  173.3280  137.6530 C   0  0  1  0  0  3  0  0  0  0  0  0
  197.8580  172.9260  136.5360 C   0  0  0  0  0  2  0  0  0  0  0  0
  199.0430  173.0610  137.3420 N   0  0  0  0  0  0  0  0  0  0  0  0
  200.0490  172.2940  137.1320 C   0  0  0  0  0  2  0  0  0  0  0  0
  186.2150  177.5900  135.4860 N   0  0  0  0  0  2  0  0  0  0  0  0
  184.5810  177.8680  137.1710 O   0  0  0  0  0  1  0  0  0  0  0  0
  184.7950  177.5090  135.8390 C   0  0  2  0  0  3  0  0  0  0  0  0
  184.6620  172.6370  136.6460 C   0  0  0  0  0  0  0  0  0  0  0  0
  184.0920  171.4290  136.3900 N   0  0  0  0  0  0  0  0  0  0  0  0
  184.1910  173.7740  135.9780 C   0  0  0  0  0  0  0  0  0  0  0  0
  185.9650  172.7300  137.8220 Cl  0  0  0  0  0  0  0  0  0  0  0  0
  183.1490  173.6180  135.0410 C   0  0  0  0  0  0  0  0  0  0  0  0
  183.1950  175.9920  134.5920 C   0  0  0  0  0  3  0  0  0  0  0  0
  183.0810  171.2990  135.4900 C   0  0  0  0  0  3  0  0  0  0  0  0
  182.6170  172.3860  134.8220 N   0  0  0  0  0  0  0  0  0  0  0  0
  182.6590  174.7260  134.3470 C   0  0  0  0  0  3  0  0  0  0  0  0
  184.7180  175.0470  136.2200 C   0  0  0  0  0  3  0  0  0  0  0  0
  184.2180  176.1600  135.5370 C   0  0  0  0  0  0  0  0  0  0  0  0
  188.4220  178.5110  140.3930 C   0  0  0  0  0  2  0  0  0  0  0  0
  187.0670  177.9510  140.8210 C   0  0  0  0  0  2  0  0  0  0  0  0
  186.4940  178.7300  142.0170 C   0  0  2  0  0  3  0  0  0  0  0  0
  187.7930  177.0470  145.1440 O   0  0  0  0  0  0  0  0  0  0  0  0
  187.4150  178.0330  146.0790 C   0  0  1  0  0  3  0  0  0  0  0  0
  186.0710  178.6270  145.7060 C   0  0  0  0  0  0  0  0  0  0  0  0
  185.3600  179.2220  146.5570 O   0  0  0  0  0  0  0  0  0  0  0  0
  185.6810  178.6280  144.3250 N   0  0  0  0  0  2  0  0  0  0  0  0
  187.8990  177.6740  143.8850 C   0  0  0  0  0  2  0  0  0  0  0  0
  186.4890  177.9330  143.3290 C   0  0  2  0  0  3  0  0  0  0  0  0
  187.3900  177.4050  147.4710 C   0  0  0  0  0  2  0  0  0  0  0  0
  188.2330  178.1610  148.3810 N   0  0  0  0  0  1  0  0  0  0  0  0
  185.2590  179.3560  141.7470 O   0  0  0  0  0  0  0  0  0  0  0  0
  185.1660  179.4800  140.4360 O   0  0  0  0  0  1  0  0  0  0  0  0
  191.4930  177.7650  140.1920 C   0  0  0  0  0  2  0  0  0  0  0  0
  191.4930  177.0500  142.5390 C   0  0  0  0  0  3  0  0  0  0  0  0
  191.6350  178.0420  141.6560 C   0  0  0  0  0  3  0  0  0  0  0  0
  191.6390  177.3350  143.9920 C   0  0  0  0  0  2  0  0  0  0  0  0
  191.6290  178.8330  144.2110 C   0  0  0  0  0  1  0  0  0  0  0  0
  1 51  1  6  0  0  0
  2 13  1  6  0  0  0
  2  1  1  0  0  0  0
  3  9  2  0  0  0  0
  3  6  1  0  0  0  0
  4  7  2  0  0  0  0
  5  7  1  0  0  0  0
  5  2  1  0  0  0  0
  6  5  2  0  0  0  0
  7  8  1  0  0  0  0
  8  1  1  0  0  0  0
  8 37  1  0  0  0  0
  9  4  1  0  0  0  0
 10 12  1  0  0  0  0
 12 11  2  0  0  0  0
 12 13  1  0  0  0  0
 14 10  1  1  0  0  0
 14 19  1  0  0  0  0
 17 14  1  0  0  0  0
 17 18  1  0  0  0  0
 18 19  1  0  0  0  0
 18 15  1  1  0  0  0
 19 16  1  6  0  0  0
 20 18  1  0  0  0  0
 20 21  1  0  0  0  0
 22 21  2  0  0  0  0
 23 25  1  0  0  0  0
 23  9  1  0  0  0  0
 25 24  1  1  0  0  0
 26 29  1  0  0  0  0
 27 26  1  0  0  0  0
 28 35  1  0  0  0  0
 28 26  2  0  0  0  0
 30 28  1  0  0  0  0
 31 36  1  0  0  0  0
 32 27  2  0  0  0  0
 33 30  2  0  0  0  0
 33 32  1  0  0  0  0
 34 31  2  0  0  0  0
 34 30  1  0  0  0  0
 36 25  1  0  0  0  0
 36 35  2  0  0  0  0
 37 38  1  0  0  0  0
 39 38  1  6  0  0  0
 40 41  1  0  0  0  0
 41 47  1  1  0  0  0
 42 41  1  0  0  0  0
 42 43  2  0  0  0  0
 44 42  1  0  0  0  0
 45 40  1  0  0  0  0
 46 39  1  6  0  0  0
 46 45  1  0  0  0  0
 46 44  1  0  0  0  0
 47 48  1  0  0  0  0
 49 39  1  0  0  0  0
 50 49  1  0  0  0  0
 51 53  1  0  0  0  0
 52 54  1  0  0  0  0
 53 52  2  0  0  0  0
 54 55  1  0  0  0  0
M  END
>  <MODEL>
4

>  <REMARK>
 VINA RESULT:      -6.7      2.153      2.652
  Name = 
  16 active torsions:
  status: ('A' for Active; 'I' for Inactive)
    1  A    between atoms: N_2  and  C_16
    2  A    between atoms: C_3  and  N_7
    3  A    between atoms: C_4  and  C_27
    4  A    between atoms: C_5  and  C_35
    5  A    between atoms: C_6  and  N_52
    6  A    between atoms: C_10  and  C_26
    7  A    between atoms: C_16  and  C_42
    8  A    between atoms: O_18  and  C_30
    9  A    between atoms: C_27  and  C_49
   10  A    between atoms: C_30  and  C_44
   11  A    between atoms: C_30  and  C_48
   12  A    between atoms: C_36  and  C_54
   13  A    between atoms: C_36  and  N_55
   14  A    between atoms: C_43  and  C_44
   15  A    between atoms: C_43  and  N_50
   16  A    between atoms: C_53  and  N_55
                            x       y       z     vdW  Elec       q    Type
                         _______ _______ _______ _____ _____    ______ ____

>  <TORSDO>
F 16

$$$$
=
 OpenBabel10232412293D

 55 60  0  0  1  0  0  0  0  0999 V2000
  189.0320  174.4730  136.0700 C   0  0  2  0  0  3  0  0  0  0  0  0
  190.2900  175.2910  136.5110 C   0  0  1  0  0  3  0  0  0  0  0  0
  189.6550  178.0690  139.0860 C   0  0  0  0  0  3  0  0  0  0  0  0
  187.6010  176.9590  138.3990 C   0  0  0  0  0  3  0  0  0  0  0  0
  189.7280  176.2660  137.4960 C   0  0  0  0  0  0  0  0  0  0  0  0
  190.4030  177.2340  138.2400 C   0  0  0  0  0  3  0  0  0  0  0  0
  188.3660  176.1420  137.5700 C   0  0  0  0  0  0  0  0  0  0  0  0
  187.8930  175.1100  136.7320 N   0  0  0  0  0  0  0  0  0  0  0  0
  188.2560  177.9390  139.1680 C   0  0  0  0  0  0  0  0  0  0  0  0
  193.5070  173.3140  137.1430 N   0  0  0  0  0  2  0  0  0  0  0  0
  192.7380  174.4720  135.2660 O   0  0  0  0  0  0  0  0  0  0  0  0
  192.5300  174.0960  136.4570 C   0  0  0  0  0  0  0  0  0  0  0  0
  191.3220  174.4590  137.1270 N   0  0  0  0  0  2  0  0  0  0  0  0
  194.7280  172.8540  136.4980 C   0  0  1  0  0  3  0  0  0  0  0  0
  196.6050  173.9190  138.7210 O   0  0  0  0  0  1  0  0  0  0  0  0
  196.0800  170.7980  136.8570 C   0  0  0  0  0  1  0  0  0  0  0  0
  195.7520  173.9850  136.4760 C   0  0  0  0  0  2  0  0  0  0  0  0
  196.5920  173.2410  137.4970 C   0  0  2  0  0  0  0  0  0  0  0  0
  195.5800  172.0880  137.5040 C   0  0  1  0  0  3  0  0  0  0  0  0
  198.0040  172.9530  136.9810 C   0  0  0  0  0  2  0  0  0  0  0  0
  198.9740  173.7060  137.7340 N   0  0  0  0  0  0  0  0  0  0  0  0
  200.0130  174.1750  137.1480 C   0  0  0  0  0  2  0  0  0  0  0  0
  187.5300  178.8050  140.0480 N   0  0  0  0  0  2  0  0  0  0  0  0
  185.2940  179.4570  140.4500 O   0  0  0  0  0  1  0  0  0  0  0  0
  186.2670  178.4950  140.7240 C   0  0  2  0  0  3  0  0  0  0  0  0
  184.4750  178.7310  145.3220 C   0  0  0  0  0  0  0  0  0  0  0  0
  184.6490  178.5110  146.6530 N   0  0  0  0  0  0  0  0  0  0  0  0
  185.5190  178.4380  144.4360 C   0  0  0  0  0  0  0  0  0  0  0  0
  182.9360  179.3670  144.7590 Cl  0  0  0  0  0  0  0  0  0  0  0  0
  186.7270  177.9410  144.9630 C   0  0  0  0  0  0  0  0  0  0  0  0
  187.6580  177.8320  142.7350 C   0  0  0  0  0  3  0  0  0  0  0  0
  185.8190  178.0210  147.1430 C   0  0  0  0  0  3  0  0  0  0  0  0
  186.8480  177.7410  146.3020 N   0  0  0  0  0  0  0  0  0  0  0  0
  187.7950  177.6450  144.1130 C   0  0  0  0  0  3  0  0  0  0  0  0
  185.3900  178.6180  143.0540 C   0  0  0  0  0  3  0  0  0  0  0  0
  186.4520  178.3080  142.1990 C   0  0  0  0  0  0  0  0  0  0  0  0
  186.4880  174.7930  136.4960 C   0  0  0  0  0  2  0  0  0  0  0  0
  185.7340  176.0310  136.0170 C   0  0  0  0  0  2  0  0  0  0  0  0
  184.3010  175.6780  135.5830 C   0  0  2  0  0  3  0  0  0  0  0  0
  182.6920  175.8870  138.9990 O   0  0  0  0  0  0  0  0  0  0  0  0
  182.8640  177.2690  139.2210 C   0  0  1  0  0  3  0  0  0  0  0  0
  182.6600  178.0400  137.9330 C   0  0  0  0  0  0  0  0  0  0  0  0
  182.3830  179.2690  137.9430 O   0  0  0  0  0  0  0  0  0  0  0  0
  182.9310  177.3810  136.6880 N   0  0  0  0  0  2  0  0  0  0  0  0
  183.6650  175.4830  138.0600 C   0  0  0  0  0  2  0  0  0  0  0  0
  183.2430  175.9570  136.6600 C   0  0  2  0  0  3  0  0  0  0  0  0
  181.8900  177.7140  140.3100 C   0  0  0  0  0  2  0  0  0  0  0  0
  180.5410  177.2780  139.9890 N   0  0  0  0  0  1  0  0  0  0  0  0
  184.1820  174.3950  135.0120 O   0  0  0  0  0  0  0  0  0  0  0  0
  182.9370  173.9980  135.2040 O   0  0  0  0  0  1  0  0  0  0  0  0
  189.0710  172.9640  136.3670 C   0  0  0  0  0  2  0  0  0  0  0  0
  187.4430  171.2340  135.7520 C   0  0  0  0  0  3  0  0  0  0  0  0
  188.3150  172.1640  135.3530 C   0  0  0  0  0  3  0  0  0  0  0  0
  186.6940  170.4470  134.7360 C   0  0  0  0  0  2  0  0  0  0  0  0
  185.2080  170.5780  134.9960 C   0  0  0  0  0  1  0  0  0  0  0  0
  1 51  1  1  0  0  0
  1  2  1  0  0  0  0
  1  8  1  0  0  0  0
  2 13  1  1  0  0  0
  2  5  1  0  0  0  0
  3  9  1  0  0  0  0
  4  9  2  0  0  0  0
  5  7  2  0  0  0  0
  5  6  1  0  0  0  0
  6  3  2  0  0  0  0
  7  4  1  0  0  0  0
  8  7  1  0  0  0  0
  9 23  1  0  0  0  0
 11 12  2  0  0  0  0
 12 13  1  0  0  0  0
 12 10  1  0  0  0  0
 14 10  1  1  0  0  0
 14 19  1  0  0  0  0
 17 14  1  0  0  0  0
 17 18  1  0  0  0  0
 18 19  1  0  0  0  0
 18 15  1  1  0  0  0
 19 16  1  6  0  0  0
 20 18  1  0  0  0  0
 20 21  1  0  0  0  0
 22 21  2  0  0  0  0
 23 25  1  0  0  0  0
 25 24  1  1  0  0  0
 25 36  1  0  0  0  0
 26 27  1  0  0  0  0
 27 32  2  0  0  0  0
 28 30  1  0  0  0  0
 28 26  2  0  0  0  0
 29 26  1  0  0  0  0
 30 33  2  0  0  0  0
 31 34  2  0  0  0  0
 33 32  1  0  0  0  0
 34 30  1  0  0  0  0
 35 28  1  0  0  0  0
 36 31  1  0  0  0  0
 36 35  2  0  0  0  0
 37  8  1  0  0  0  0
 38 37  1  0  0  0  0
 39 38  1  1  0  0  0
 40 41  1  0  0  0  0
 41 47  1  1  0  0  0
 42 43  2  0  0  0  0
 42 41  1  0  0  0  0
 44 42  1  0  0  0  0
 45 40  1  0  0  0  0
 46 39  1  6  0  0  0
 46 44  1  0  0  0  0
 46 45  1  0  0  0  0
 48 47  1  0  0  0  0
 49 50  1  0  0  0  0
 49 39  1  0  0  0  0
 53 52  2  0  0  0  0
 53 51  1  0  0  0  0
 54 55  1  0  0  0  0
 54 52  1  0  0  0  0
M  END
>  <MODEL>
5

>  <REMARK>
 VINA RESULT:      -6.6      2.504      6.655
  Name = 
  16 active torsions:
  status: ('A' for Active; 'I' for Inactive)
    1  A    between atoms: N_2  and  C_16
    2  A    between atoms: C_3  and  N_7
    3  A    between atoms: C_4  and  C_27
    4  A    between atoms: C_5  and  C_35
    5  A    between atoms: C_6  and  N_52
    6  A    between atoms: C_10  and  C_26
    7  A    between atoms: C_16  and  C_42
    8  A    between atoms: O_18  and  C_30
    9  A    between atoms: C_27  and  C_49
   10  A    between atoms: C_30  and  C_44
   11  A    between atoms: C_30  and  C_48
   12  A    between atoms: C_36  and  C_54
   13  A    between atoms: C_36  and  N_55
   14  A    between atoms: C_43  and  C_44
   15  A    between atoms: C_43  and  N_50
   16  A    between atoms: C_53  and  N_55
                            x       y       z     vdW  Elec       q    Type
                         _______ _______ _______ _____ _____    ______ ____

>  <TORSDO>
F 16

$$$$
=
 OpenBabel10232412293D

 55 60  0  0  1  0  0  0  0  0999 V2000
  184.2090  178.3760  139.4920 C   0  0  2  0  0  3  0  0  0  0  0  0
  185.0600  177.8250  138.3020 C   0  0  1  0  0  3  0  0  0  0  0  0
  188.8460  177.6170  138.9140 C   0  0  0  0  0  3  0  0  0  0  0  0
  187.6580  178.6000  140.7970 C   0  0  0  0  0  3  0  0  0  0  0  0
  186.4550  177.8630  138.8410 C   0  0  0  0  0  0  0  0  0  0  0  0
  187.6360  177.4560  138.2210 C   0  0  0  0  0  3  0  0  0  0  0  0
  186.4720  178.4260  140.0890 C   0  0  0  0  0  0  0  0  0  0  0  0
  185.1730  178.7700  140.5210 N   0  0  0  0  0  0  0  0  0  0  0  0
  188.8650  178.1910  140.2000 C   0  0  0  0  0  0  0  0  0  0  0  0
  183.6240  174.8220  136.4130 N   0  0  0  0  0  2  0  0  0  0  0  0
  183.5040  177.1170  136.0030 O   0  0  0  0  0  0  0  0  0  0  0  0
  183.9160  176.1790  136.7440 C   0  0  0  0  0  0  0  0  0  0  0  0
  184.6840  176.4680  137.9140 N   0  0  0  0  0  2  0  0  0  0  0  0
  182.7920  174.4600  135.2740 C   0  0  1  0  0  3  0  0  0  0  0  0
  181.6390  171.9100  136.6020 O   0  0  0  0  0  1  0  0  0  0  0  0
  180.3810  174.8700  134.8280 C   0  0  0  0  0  1  0  0  0  0  0  0
  182.9980  172.9860  134.9380 C   0  0  0  0  0  2  0  0  0  0  0  0
  181.5960  172.6810  135.4350 C   0  0  2  0  0  0  0  0  0  0  0  0
  181.3740  174.1660  135.7490 C   0  0  1  0  0  3  0  0  0  0  0  0
  180.7280  172.0400  134.3500 C   0  0  0  0  0  2  0  0  0  0  0  0
  180.3500  170.7050  134.7380 N   0  0  0  0  0  0  0  0  0  0  0  0
  181.2090  169.7560  134.6790 C   0  0  0  0  0  2  0  0  0  0  0  0
  190.1190  178.3320  140.8770 N   0  0  0  0  0  2  0  0  0  0  0  0
  190.5120  176.0010  140.9210 O   0  0  0  0  0  1  0  0  0  0  0  0
  190.9650  177.2420  141.3730 C   0  0  2  0  0  3  0  0  0  0  0  0
  192.0760  174.9550  145.6090 C   0  0  0  0  0  0  0  0  0  0  0  0
  192.2310  175.0140  146.9580 N   0  0  0  0  0  0  0  0  0  0  0  0
  191.6590  176.0980  144.9150 C   0  0  0  0  0  0  0  0  0  0  0  0
  192.4210  173.4440  144.7780 Cl  0  0  0  0  0  0  0  0  0  0  0  0
  191.3910  177.2690  145.6510 C   0  0  0  0  0  0  0  0  0  0  0  0
  190.8120  178.4240  143.6080 C   0  0  0  0  0  3  0  0  0  0  0  0
  191.9790  176.1570  147.6510 C   0  0  0  0  0  3  0  0  0  0  0  0
  191.5610  177.2730  147.0000 N   0  0  0  0  0  0  0  0  0  0  0  0
  190.9640  178.4260  144.9970 C   0  0  0  0  0  3  0  0  0  0  0  0
  191.5080  176.1060  143.5240 C   0  0  0  0  0  3  0  0  0  0  0  0
  191.0940  177.2680  142.8650 C   0  0  0  0  0  0  0  0  0  0  0  0
  184.8560  179.4870  141.7520 C   0  0  0  0  0  2  0  0  0  0  0  0
  184.3250  178.5220  142.8100 C   0  0  0  0  0  2  0  0  0  0  0  0
  184.2060  179.2080  144.1810 C   0  0  2  0  0  3  0  0  0  0  0  0
  186.5240  178.8530  147.1470 O   0  0  0  0  0  0  0  0  0  0  0  0
  187.0310  177.5700  146.8570 C   0  0  1  0  0  3  0  0  0  0  0  0
  187.2300  177.4050  145.3640 C   0  0  0  0  0  0  0  0  0  0  0  0
  188.0070  176.5310  144.8990 O   0  0  0  0  0  0  0  0  0  0  0  0
  186.4040  178.1690  144.4730 N   0  0  0  0  0  2  0  0  0  0  0  0
  185.2760  178.9730  146.4990 C   0  0  0  0  0  2  0  0  0  0  0  0
  185.5060  179.1940  144.9960 C   0  0  2  0  0  3  0  0  0  0  0  0
  188.3350  177.3730  147.6280 C   0  0  0  0  0  2  0  0  0  0  0  0
  188.2610  178.0300  148.9220 N   0  0  0  0  0  1  0  0  0  0  0  0
  183.0830  178.7930  144.9270 O   0  0  0  0  0  0  0  0  0  0  0  0
  182.0630  178.7280  144.0890 O   0  0  0  0  0  1  0  0  0  0  0  0
  183.1520  177.4170  140.0660 C   0  0  0  0  0  2  0  0  0  0  0  0
  181.3980  178.1570  138.5180 C   0  0  0  0  0  3  0  0  0  0  0  0
  181.7540  177.8660  139.7720 C   0  0  0  0  0  3  0  0  0  0  0  0
  180.0060  178.5990  138.2360 C   0  0  0  0  0  2  0  0  0  0  0  0
  180.0160  180.0620  137.8440 C   0  0  0  0  0  1  0  0  0  0  0  0
  1 51  1  1  0  0  0
  1  8  1  0  0  0  0
  2 13  1  1  0  0  0
  2  5  1  0  0  0  0
  2  1  1  0  0  0  0
  3  9  1  0  0  0  0
  5  7  2  0  0  0  0
  6  5  1  0  0  0  0
  6  3  2  0  0  0  0
  7  8  1  0  0  0  0
  7  4  1  0  0  0  0
  8 37  1  0  0  0  0
  9  4  2  0  0  0  0
  9 23  1  0  0  0  0
 10 12  1  0  0  0  0
 11 12  2  0  0  0  0
 12 13  1  0  0  0  0
 14 19  1  0  0  0  0
 14 10  1  1  0  0  0
 17 14  1  0  0  0  0
 17 18  1  0  0  0  0
 18 19  1  0  0  0  0
 18 15  1  1  0  0  0
 19 16  1  6  0  0  0
 20 21  1  0  0  0  0
 20 18  1  0  0  0  0
 22 21  2  0  0  0  0
 23 25  1  0  0  0  0
 25 24  1  1  0  0  0
 25 36  1  0  0  0  0
 26 27  1  0  0  0  0
 27 32  2  0  0  0  0
 28 26  2  0  0  0  0
 28 30  1  0  0  0  0
 29 26  1  0  0  0  0
 30 33  2  0  0  0  0
 31 34  2  0  0  0  0
 33 32  1  0  0  0  0
 34 30  1  0  0  0  0
 35 28  1  0  0  0  0
 36 35  2  0  0  0  0
 36 31  1  0  0  0  0
 37 38  1  0  0  0  0
 39 38  1  6  0  0  0
 39 49  1  0  0  0  0
 41 40  1  0  0  0  0
 41 47  1  1  0  0  0
 42 41  1  0  0  0  0
 43 42  2  0  0  0  0
 44 46  1  0  0  0  0
 44 42  1  0  0  0  0
 45 40  1  0  0  0  0
 46 39  1  6  0  0  0
 46 45  1  0  0  0  0
 47 48  1  0  0  0  0
 50 49  1  0  0  0  0
 52 53  2  0  0  0  0
 53 51  1  0  0  0  0
 54 52  1  0  0  0  0
 55 54  1  0  0  0  0
M  END
>  <MODEL>
6

>  <REMARK>
 VINA RESULT:      -6.6      4.486      9.856
  Name = 
  16 active torsions:
  status: ('A' for Active; 'I' for Inactive)
    1  A    between atoms: N_2  and  C_16
    2  A    between atoms: C_3  and  N_7
    3  A    between atoms: C_4  and  C_27
    4  A    between atoms: C_5  and  C_35
    5  A    between atoms: C_6  and  N_52
    6  A    between atoms: C_10  and  C_26
    7  A    between atoms: C_16  and  C_42
    8  A    between atoms: O_18  and  C_30
    9  A    between atoms: C_27  and  C_49
   10  A    between atoms: C_30  and  C_44
   11  A    between atoms: C_30  and  C_48
   12  A    between atoms: C_36  and  C_54
   13  A    between atoms: C_36  and  N_55
   14  A    between atoms: C_43  and  C_44
   15  A    between atoms: C_43  and  N_50
   16  A    between atoms: C_53  and  N_55
                            x       y       z     vdW  Elec       q    Type
                         _______ _______ _______ _____ _____    ______ ____

>  <TORSDO>
F 16

$$$$
=
 OpenBabel10232412293D

 55 60  0  0  1  0  0  0  0  0999 V2000
  187.9620  177.0710  138.2320 C   0  0  2  0  0  3  0  0  0  0  0  0
  188.0170  175.7940  137.3310 C   0  0  1  0  0  3  0  0  0  0  0  0
  185.0260  175.2840  134.9770 C   0  0  0  0  0  3  0  0  0  0  0  0
  184.7570  177.2380  136.4030 C   0  0  0  0  0  3  0  0  0  0  0  0
  186.7460  175.8820  136.5480 C   0  0  0  0  0  0  0  0  0  0  0  0
  186.2760  175.0180  135.5580 C   0  0  0  0  0  3  0  0  0  0  0  0
  186.0000  176.9530  136.9610 C   0  0  0  0  0  0  0  0  0  0  0  0
  186.6590  177.6850  137.9720 N   0  0  0  0  0  0  0  0  0  0  0  0
  184.2600  176.3890  135.3960 C   0  0  0  0  0  0  0  0  0  0  0  0
  191.3890  174.9380  135.7360 N   0  0  0  0  0  2  0  0  0  0  0  0
  190.3550  174.1770  137.6860 O   0  0  0  0  0  0  0  0  0  0  0  0
  190.3110  174.9300  136.6710 C   0  0  0  0  0  0  0  0  0  0  0  0
  189.1790  175.7720  136.4460 N   0  0  0  0  0  2  0  0  0  0  0  0
  192.6000  174.1560  135.9380 C   0  0  1  0  0  3  0  0  0  0  0  0
  194.5240  176.4840  135.2460 O   0  0  0  0  0  1  0  0  0  0  0  0
  194.1130  173.9820  137.9040 C   0  0  0  0  0  1  0  0  0  0  0  0
  193.5380  174.3490  134.7500 C   0  0  0  0  0  2  0  0  0  0  0  0
  194.4880  175.1400  135.6330 C   0  0  2  0  0  0  0  0  0  0  0  0
  193.5620  174.9250  136.8370 C   0  0  1  0  0  3  0  0  0  0  0  0
  195.8840  174.5140  135.6800 C   0  0  0  0  0  2  0  0  0  0  0  0
  196.8240  175.4360  136.2630 N   0  0  0  0  0  0  0  0  0  0  0  0
  198.0250  175.0560  136.5030 C   0  0  0  0  0  2  0  0  0  0  0  0
  182.9940  176.6300  134.7740 N   0  0  0  0  0  2  0  0  0  0  0  0
  180.6920  176.0950  134.8330 O   0  0  0  0  0  1  0  0  0  0  0  0
  181.7110  176.8160  135.4580 C   0  0  2  0  0  3  0  0  0  0  0  0
  181.0510  180.8110  138.2880 C   0  0  0  0  0  0  0  0  0  0  0  0
  180.7680  182.1370  138.3830 N   0  0  0  0  0  0  0  0  0  0  0  0
  181.0490  180.1960  137.0300 C   0  0  0  0  0  0  0  0  0  0  0  0
  181.4260  179.9150  139.7540 Cl  0  0  0  0  0  0  0  0  0  0  0  0
  180.7290  180.9780  135.9020 C   0  0  0  0  0  0  0  0  0  0  0  0
  181.0130  179.0450  134.4790 C   0  0  0  0  0  3  0  0  0  0  0  0
  180.4710  182.8790  137.2820 C   0  0  0  0  0  3  0  0  0  0  0  0
  180.4510  182.3000  136.0540 N   0  0  0  0  0  0  0  0  0  0  0  0
  180.7060  180.3990  134.6320 C   0  0  0  0  0  3  0  0  0  0  0  0
  181.3600  178.8420  136.8670 C   0  0  0  0  0  3  0  0  0  0  0  0
  181.3520  178.2640  135.5940 C   0  0  0  0  0  0  0  0  0  0  0  0
  186.0920  178.8140  138.7020 C   0  0  0  0  0  2  0  0  0  0  0  0
  185.4370  178.3390  139.9970 C   0  0  0  0  0  2  0  0  0  0  0  0
  186.1360  178.9390  141.2280 C   0  0  2  0  0  3  0  0  0  0  0  0
  189.2580  177.4970  142.8010 O   0  0  0  0  0  0  0  0  0  0  0  0
  188.9520  177.7720  144.1500 C   0  0  1  0  0  3  0  0  0  0  0  0
  187.4730  177.5650  144.4090 C   0  0  0  0  0  0  0  0  0  0  0  0
  187.0340  177.3720  145.5730 O   0  0  0  0  0  0  0  0  0  0  0  0
  186.5550  177.7360  143.3200 N   0  0  0  0  0  2  0  0  0  0  0  0
  188.5190  178.3990  142.0060 C   0  0  0  0  0  2  0  0  0  0  0  0
  187.0500  177.9500  141.9640 C   0  0  2  0  0  3  0  0  0  0  0  0
  189.8140  176.8780  145.0380 C   0  0  0  0  0  2  0  0  0  0  0  0
  191.0060  177.5910  145.4680 N   0  0  0  0  0  1  0  0  0  0  0  0
  185.2640  179.6330  142.0930 O   0  0  0  0  0  0  0  0  0  0  0  0
  184.0590  179.1180  141.9240 O   0  0  0  0  0  1  0  0  0  0  0  0
  189.1010  178.0870  138.0320 C   0  0  0  0  0  2  0  0  0  0  0  0
  191.0280  177.2450  139.2970 C   0  0  0  0  0  3  0  0  0  0  0  0
  190.0350  178.1340  139.2010 C   0  0  0  0  0  3  0  0  0  0  0  0
  191.9520  177.3030  140.4610 C   0  0  0  0  0  2  0  0  0  0  0  0
  193.3830  177.2650  139.9650 C   0  0  0  0  0  1  0  0  0  0  0  0
  1 51  1  6  0  0  0
  2 13  1  6  0  0  0
  2  1  1  0  0  0  0
  3  9  2  0  0  0  0
  3  6  1  0  0  0  0
  4  7  2  0  0  0  0
  5  7  1  0  0  0  0
  5  2  1  0  0  0  0
  6  5  2  0  0  0  0
  7  8  1  0  0  0  0
  8  1  1  0  0  0  0
  8 37  1  0  0  0  0
  9  4  1  0  0  0  0
 10 12  1  0  0  0  0
 12 11  2  0  0  0  0
 13 12  1  0  0  0  0
 14 10  1  6  0  0  0
 14 19  1  0  0  0  0
 17 18  1  0  0  0  0
 17 14  1  0  0  0  0
 18 15  1  6  0  0  0
 18 20  1  0  0  0  0
 18 19  1  0  0  0  0
 19 16  1  1  0  0  0
 20 21  1  0  0  0  0
 21 22  2  0  0  0  0
 23  9  1  0  0  0  0
 23 25  1  0  0  0  0
 25 24  1  6  0  0  0
 25 36  1  0  0  0  0
 26 27  1  0  0  0  0
 26 29  1  0  0  0  0
 28 26  2  0  0  0  0
 30 33  2  0  0  0  0
 30 28  1  0  0  0  0
 31 34  2  0  0  0  0
 31 36  1  0  0  0  0
 32 27  2  0  0  0  0
 33 32  1  0  0  0  0
 34 30  1  0  0  0  0
 35 28  1  0  0  0  0
 36 35  2  0  0  0  0
 37 38  1  0  0  0  0
 39 38  1  6  0  0  0
 39 49  1  0  0  0  0
 40 41  1  0  0  0  0
 41 42  1  0  0  0  0
 41 47  1  1  0  0  0
 42 43  2  0  0  0  0
 44 42  1  0  0  0  0
 45 40  1  0  0  0  0
 46 39  1  1  0  0  0
 46 45  1  0  0  0  0
 46 44  1  0  0  0  0
 47 48  1  0  0  0  0
 50 49  1  0  0  0  0
 51 53  1  0  0  0  0
 52 54  1  0  0  0  0
 53 52  2  0  0  0  0
 55 54  1  0  0  0  0
M  END
>  <MODEL>
7

>  <REMARK>
 VINA RESULT:      -6.4      2.620      3.674
  Name = 
  16 active torsions:
  status: ('A' for Active; 'I' for Inactive)
    1  A    between atoms: N_2  and  C_16
    2  A    between atoms: C_3  and  N_7
    3  A    between atoms: C_4  and  C_27
    4  A    between atoms: C_5  and  C_35
    5  A    between atoms: C_6  and  N_52
    6  A    between atoms: C_10  and  C_26
    7  A    between atoms: C_16  and  C_42
    8  A    between atoms: O_18  and  C_30
    9  A    between atoms: C_27  and  C_49
   10  A    between atoms: C_30  and  C_44
   11  A    between atoms: C_30  and  C_48
   12  A    between atoms: C_36  and  C_54
   13  A    between atoms: C_36  and  N_55
   14  A    between atoms: C_43  and  C_44
   15  A    between atoms: C_43  and  N_50
   16  A    between atoms: C_53  and  N_55
                            x       y       z     vdW  Elec       q    Type
                         _______ _______ _______ _____ _____    ______ ____

>  <TORSDO>
F 16

$$$$
=
 OpenBabel10232412293D

 55 60  0  0  1  0  0  0  0  0999 V2000
  187.9600  176.9120  138.1930 C   0  0  2  0  0  3  0  0  0  0  0  0
  187.9030  175.6290  137.3020 C   0  0  1  0  0  3  0  0  0  0  0  0
  184.7320  175.2130  135.1770 C   0  0  0  0  0  3  0  0  0  0  0  0
  184.6380  177.1840  136.6010 C   0  0  0  0  0  3  0  0  0  0  0  0
  186.5830  175.7570  136.6130 C   0  0  0  0  0  0  0  0  0  0  0  0
  186.0110  174.9050  135.6680 C   0  0  0  0  0  3  0  0  0  0  0  0
  185.9080  176.8580  137.0690 C   0  0  0  0  0  0  0  0  0  0  0  0
  186.6650  177.5720  138.0230 N   0  0  0  0  0  0  0  0  0  0  0  0
  184.0390  176.3470  135.6410 C   0  0  0  0  0  0  0  0  0  0  0  0
  191.2140  174.7950  135.5710 N   0  0  0  0  0  2  0  0  0  0  0  0
  190.3940  174.2660  137.6930 O   0  0  0  0  0  0  0  0  0  0  0  0
  190.2110  174.8490  136.5850 C   0  0  0  0  0  0  0  0  0  0  0  0
  188.9960  175.5590  136.3350 N   0  0  0  0  0  2  0  0  0  0  0  0
  192.5010  174.1460  135.7840 C   0  0  1  0  0  3  0  0  0  0  0  0
  194.1700  176.6420  135.0210 O   0  0  0  0  0  1  0  0  0  0  0  0
  194.0330  174.1780  137.7420 C   0  0  0  0  0  1  0  0  0  0  0  0
  193.4080  174.4060  134.5850 C   0  0  0  0  0  2  0  0  0  0  0  0
  194.2750  175.3110  135.4410 C   0  0  2  0  0  0  0  0  0  0  0  0
  193.3820  175.0330  136.6570 C   0  0  1  0  0  3  0  0  0  0  0  0
  195.7280  174.8340  135.4930 C   0  0  0  0  0  2  0  0  0  0  0  0
  196.6250  175.9430  135.2970 N   0  0  0  0  0  0  0  0  0  0  0  0
  197.8730  175.7280  135.1010 C   0  0  0  0  0  2  0  0  0  0  0  0
  182.7400  176.6300  135.1100 N   0  0  0  0  0  2  0  0  0  0  0  0
  180.4100  176.4540  134.7530 O   0  0  0  0  0  1  0  0  0  0  0  0
  181.4700  176.0630  135.5730 C   0  0  2  0  0  3  0  0  0  0  0  0
  181.0480  179.3980  139.1940 C   0  0  0  0  0  0  0  0  0  0  0  0
  180.7550  179.6760  140.4920 N   0  0  0  0  0  0  0  0  0  0  0  0
  181.0000  178.0710  138.7480 C   0  0  0  0  0  0  0  0  0  0  0  0
  181.4660  180.7200  138.1130 Cl  0  0  0  0  0  0  0  0  0  0  0  0
  180.6670  177.0640  139.6760 C   0  0  0  0  0  0  0  0  0  0  0  0
  180.8870  175.3920  137.9440 C   0  0  0  0  0  3  0  0  0  0  0  0
  180.4250  178.6930  141.3710 C   0  0  0  0  0  3  0  0  0  0  0  0
  180.3840  177.3980  140.9630 N   0  0  0  0  0  0  0  0  0  0  0  0
  180.6170  175.7280  139.2730 C   0  0  0  0  0  3  0  0  0  0  0  0
  181.2640  177.7250  137.4180 C   0  0  0  0  0  3  0  0  0  0  0  0
  181.2010  176.3900  137.0100 C   0  0  0  0  0  0  0  0  0  0  0  0
  186.1930  178.7250  138.7820 C   0  0  0  0  0  2  0  0  0  0  0  0
  185.4760  178.2720  140.0520 C   0  0  0  0  0  2  0  0  0  0  0  0
  186.1100  178.9000  141.3050 C   0  0  2  0  0  3  0  0  0  0  0  0
  189.1750  177.5670  143.0740 O   0  0  0  0  0  0  0  0  0  0  0  0
  188.7620  177.8010  144.4010 C   0  0  1  0  0  3  0  0  0  0  0  0
  187.2800  177.5230  144.5500 C   0  0  0  0  0  0  0  0  0  0  0  0
  186.7680  177.2870  145.6760 O   0  0  0  0  0  0  0  0  0  0  0  0
  186.4340  177.6750  143.4010 N   0  0  0  0  0  2  0  0  0  0  0  0
  188.4540  178.4510  142.2430 C   0  0  0  0  0  2  0  0  0  0  0  0
  187.0140  177.9370  142.0880 C   0  0  2  0  0  3  0  0  0  0  0  0
  189.5990  176.9280  145.3350 C   0  0  0  0  0  2  0  0  0  0  0  0
  189.8940  177.6430  146.5650 N   0  0  0  0  0  1  0  0  0  0  0  0
  185.1890  179.5830  142.1250 O   0  0  0  0  0  0  0  0  0  0  0  0
  183.9850  179.1410  141.8090 O   0  0  0  0  0  1  0  0  0  0  0  0
  189.1170  177.8850  137.9020 C   0  0  0  0  0  2  0  0  0  0  0  0
  190.9910  177.1220  139.2900 C   0  0  0  0  0  3  0  0  0  0  0  0
  190.0430  178.0360  139.0690 C   0  0  0  0  0  3  0  0  0  0  0  0
  191.9080  177.2840  140.4510 C   0  0  0  0  0  2  0  0  0  0  0  0
  193.3410  177.2810  139.9610 C   0  0  0  0  0  1  0  0  0  0  0  0
  1 51  1  6  0  0  0
  2 13  1  6  0  0  0
  2  1  1  0  0  0  0
  3  9  2  0  0  0  0
  3  6  1  0  0  0  0
  4  7  2  0  0  0  0
  5  7  1  0  0  0  0
  5  2  1  0  0  0  0
  6  5  2  0  0  0  0
  7  8  1  0  0  0  0
  8  1  1  0  0  0  0
  8 37  1  0  0  0  0
  9  4  1  0  0  0  0
 10 12  1  0  0  0  0
 12 11  2  0  0  0  0
 13 12  1  0  0  0  0
 14 10  1  6  0  0  0
 14 19  1  0  0  0  0
 17 18  1  0  0  0  0
 17 14  1  0  0  0  0
 18 15  1  6  0  0  0
 18 20  1  0  0  0  0
 18 19  1  0  0  0  0
 19 16  1  1  0  0  0
 21 20  1  0  0  0  0
 22 21  2  0  0  0  0
 23 25  1  0  0  0  0
 23  9  1  0  0  0  0
 25 24  1  6  0  0  0
 25 36  1  0  0  0  0
 26 27  1  0  0  0  0
 27 32  2  0  0  0  0
 28 26  2  0  0  0  0
 28 30  1  0  0  0  0
 29 26  1  0  0  0  0
 30 33  2  0  0  0  0
 31 34  2  0  0  0  0
 33 32  1  0  0  0  0
 34 30  1  0  0  0  0
 35 28  1  0  0  0  0
 36 35  2  0  0  0  0
 36 31  1  0  0  0  0
 37 38  1  0  0  0  0
 39 38  1  6  0  0  0
 39 49  1  0  0  0  0
 40 41  1  0  0  0  0
 41 42  1  0  0  0  0
 41 47  1  1  0  0  0
 42 43  2  0  0  0  0
 44 42  1  0  0  0  0
 45 40  1  0  0  0  0
 46 39  1  1  0  0  0
 46 45  1  0  0  0  0
 46 44  1  0  0  0  0
 47 48  1  0  0  0  0
 50 49  1  0  0  0  0
 51 53  1  0  0  0  0
 52 54  1  0  0  0  0
 53 52  2  0  0  0  0
 55 54  1  0  0  0  0
M  END
>  <MODEL>
8

>  <REMARK>
 VINA RESULT:      -6.3      2.187      3.182
  Name = 
  16 active torsions:
  status: ('A' for Active; 'I' for Inactive)
    1  A    between atoms: N_2  and  C_16
    2  A    between atoms: C_3  and  N_7
    3  A    between atoms: C_4  and  C_27
    4  A    between atoms: C_5  and  C_35
    5  A    between atoms: C_6  and  N_52
    6  A    between atoms: C_10  and  C_26
    7  A    between atoms: C_16  and  C_42
    8  A    between atoms: O_18  and  C_30
    9  A    between atoms: C_27  and  C_49
   10  A    between atoms: C_30  and  C_44
   11  A    between atoms: C_30  and  C_48
   12  A    between atoms: C_36  and  C_54
   13  A    between atoms: C_36  and  N_55
   14  A    between atoms: C_43  and  C_44
   15  A    between atoms: C_43  and  N_50
   16  A    between atoms: C_53  and  N_55
                            x       y       z     vdW  Elec       q    Type
                         _______ _______ _______ _____ _____    ______ ____

>  <TORSDO>
F 16

$$$$
=
 OpenBabel10232412293D

 55 60  0  0  1  0  0  0  0  0999 V2000
  188.6370  177.0140  138.8550 C   0  0  2  0  0  3  0  0  0  0  0  0
  189.9550  176.5290  139.5430 C   0  0  1  0  0  3  0  0  0  0  0  0
  192.8960  175.7950  137.1850 C   0  0  0  0  0  3  0  0  0  0  0  0
  190.8780  176.4240  135.9780 C   0  0  0  0  0  3  0  0  0  0  0  0
  190.8860  176.3380  138.3880 C   0  0  0  0  0  0  0  0  0  0  0  0
  192.2230  175.9400  138.4090 C   0  0  0  0  0  3  0  0  0  0  0  0
  190.2350  176.5630  137.2050 C   0  0  0  0  0  0  0  0  0  0  0  0
  188.8930  176.9470  137.4160 N   0  0  0  0  0  0  0  0  0  0  0  0
  192.2300  176.0310  135.9670 C   0  0  0  0  0  0  0  0  0  0  0  0
  191.3330  178.1750  142.7130 N   0  0  0  0  0  2  0  0  0  0  0  0
  190.5340  176.0200  142.3030 O   0  0  0  0  0  0  0  0  0  0  0  0
  190.7720  177.1800  141.8580 C   0  0  0  0  0  0  0  0  0  0  0  0
  190.4910  177.5010  140.4940 N   0  0  0  0  0  2  0  0  0  0  0  0
  191.5820  177.9360  144.1270 C   0  0  1  0  0  3  0  0  0  0  0  0
  188.6090  177.4070  144.8220 O   0  0  0  0  0  1  0  0  0  0  0  0
  191.8690  175.8140  145.3910 C   0  0  0  0  0  1  0  0  0  0  0  0
  190.5980  178.7480  144.9640 C   0  0  0  0  0  2  0  0  0  0  0  0
  189.8930  177.4670  145.3730 C   0  0  2  0  0  0  0  0  0  0  0  0
  190.8960  176.6430  144.5560 C   0  0  1  0  0  3  0  0  0  0  0  0
  189.8800  177.2790  146.8920 C   0  0  0  0  0  2  0  0  0  0  0  0
  188.5240  177.2000  147.3730 N   0  0  0  0  0  0  0  0  0  0  0  0
  188.2120  177.7410  148.4920 C   0  0  0  0  0  2  0  0  0  0  0  0
  192.9530  175.8790  134.7410 N   0  0  0  0  0  2  0  0  0  0  0  0
  193.1620  173.5250  134.7440 O   0  0  0  0  0  1  0  0  0  0  0  0
  193.7610  174.7220  134.3480 C   0  0  2  0  0  3  0  0  0  0  0  0
  197.8990  172.5420  135.9410 C   0  0  0  0  0  0  0  0  0  0  0  0
  199.1900  172.6540  136.3530 N   0  0  0  0  0  0  0  0  0  0  0  0
  197.1770  173.6990  135.6220 C   0  0  0  0  0  0  0  0  0  0  0  0
  197.1840  170.9410  135.8090 Cl  0  0  0  0  0  0  0  0  0  0  0  0
  197.8150  174.9480  135.7630 C   0  0  0  0  0  0  0  0  0  0  0  0
  195.8050  176.0610  135.0140 C   0  0  0  0  0  3  0  0  0  0  0  0
  199.7930  173.8670  136.4740 C   0  0  0  0  0  3  0  0  0  0  0  0
  199.1070  175.0030  136.1820 N   0  0  0  0  0  0  0  0  0  0  0  0
  197.1260  176.1250  135.4650 C   0  0  0  0  0  3  0  0  0  0  0  0
  195.8550  173.6450  135.1660 C   0  0  0  0  0  3  0  0  0  0  0  0
  195.1680  174.8220  134.8530 C   0  0  0  0  0  0  0  0  0  0  0  0
  187.9000  177.1520  136.3670 C   0  0  0  0  0  2  0  0  0  0  0  0
  186.6530  176.3140  136.6400 C   0  0  0  0  0  2  0  0  0  0  0  0
  186.7900  174.9000  136.0510 C   0  0  2  0  0  3  0  0  0  0  0  0
  184.1570  172.1920  135.8750 O   0  0  0  0  0  0  0  0  0  0  0  0
  183.3880  172.5830  136.9910 C   0  0  1  0  0  3  0  0  0  0  0  0
  183.3130  174.0940  137.0780 C   0  0  0  0  0  0  0  0  0  0  0  0
  182.4010  174.6680  137.7280 O   0  0  0  0  0  0  0  0  0  0  0  0
  184.3880  174.8680  136.5250 N   0  0  0  0  0  2  0  0  0  0  0  0
  185.4570  172.7100  136.0540 C   0  0  0  0  0  2  0  0  0  0  0  0
  185.4460  174.2180  135.7600 C   0  0  2  0  0  3  0  0  0  0  0  0
  182.0020  171.9520  136.8740 C   0  0  0  0  0  2  0  0  0  0  0  0
  181.4570  172.1710  135.5450 N   0  0  0  0  0  1  0  0  0  0  0  0
  187.6860  174.0750  136.7610 O   0  0  0  0  0  0  0  0  0  0  0  0
  188.6650  173.7600  135.9330 O   0  0  0  0  0  1  0  0  0  0  0  0
  188.1390  178.4120  139.2620 C   0  0  0  0  0  2  0  0  0  0  0  0
  187.1700  178.7470  141.4920 C   0  0  0  0  0  3  0  0  0  0  0  0
  186.9970  178.3510  140.2280 C   0  0  0  0  0  3  0  0  0  0  0  0
  186.0280  178.6850  142.4430 C   0  0  0  0  0  2  0  0  0  0  0  0
  184.7660  178.3270  141.6860 C   0  0  0  0  0  1  0  0  0  0  0  0
  1 51  1  1  0  0  0
  1  2  1  0  0  0  0
  2 13  1  1  0  0  0
  3  6  1  0  0  0  0
  4  7  2  0  0  0  0
  5  6  2  0  0  0  0
  5  2  1  0  0  0  0
  7  8  1  0  0  0  0
  7  5  1  0  0  0  0
  8  1  1  0  0  0  0
  9  4  1  0  0  0  0
  9  3  2  0  0  0  0
 12 11  2  0  0  0  0
 12 10  1  0  0  0  0
 13 12  1  0  0  0  0
 14 10  1  6  0  0  0
 14 19  1  0  0  0  0
 14 17  1  0  0  0  0
 17 18  1  0  0  0  0
 18 15  1  6  0  0  0
 18 20  1  0  0  0  0
 19 18  1  0  0  0  0
 19 16  1  1  0  0  0
 20 21  1  0  0  0  0
 21 22  2  0  0  0  0
 23  9  1  0  0  0  0
 25 23  1  0  0  0  0
 25 24  1  1  0  0  0
 25 36  1  0  0  0  0
 26 27  1  0  0  0  0
 27 32  2  0  0  0  0
 28 30  1  0  0  0  0
 28 26  2  0  0  0  0
 29 26  1  0  0  0  0
 30 33  2  0  0  0  0
 31 34  2  0  0  0  0
 33 32  1  0  0  0  0
 34 30  1  0  0  0  0
 35 28  1  0  0  0  0
 36 31  1  0  0  0  0
 36 35  2  0  0  0  0
 37 38  1  0  0  0  0
 37  8  1  0  0  0  0
 39 38  1  1  0  0  0
 39 49  1  0  0  0  0
 40 45  1  0  0  0  0
 40 41  1  0  0  0  0
 41 47  1  6  0  0  0
 41 42  1  0  0  0  0
 42 43  2  0  0  0  0
 44 42  1  0  0  0  0
 46 39  1  1  0  0  0
 46 45  1  0  0  0  0
 46 44  1  0  0  0  0
 48 47  1  0  0  0  0
 50 49  1  0  0  0  0
 51 53  1  0  0  0  0
 52 54  1  0  0  0  0
 53 52  2  0  0  0  0
 55 54  1  0  0  0  0
M  END
>  <MODEL>
9

>  <REMARK>
 VINA RESULT:      -6.3      3.484     10.592
  Name = 
  16 active torsions:
  status: ('A' for Active; 'I' for Inactive)
    1  A    between atoms: N_2  and  C_16
    2  A    between atoms: C_3  and  N_7
    3  A    between atoms: C_4  and  C_27
    4  A    between atoms: C_5  and  C_35
    5  A    between atoms: C_6  and  N_52
    6  A    between atoms: C_10  and  C_26
    7  A    between atoms: C_16  and  C_42
    8  A    between atoms: O_18  and  C_30
    9  A    between atoms: C_27  and  C_49
   10  A    between atoms: C_30  and  C_44
   11  A    between atoms: C_30  and  C_48
   12  A    between atoms: C_36  and  C_54
   13  A    between atoms: C_36  and  N_55
   14  A    between atoms: C_43  and  C_44
   15  A    between atoms: C_43  and  N_50
   16  A    between atoms: C_53  and  N_55
                            x       y       z     vdW  Elec       q    Type
                         _______ _______ _______ _____ _____    ______ ____

>  <TORSDO>
F 16

$$$$
