=
 OpenBabel10232412033D

 42 46  0  0  1  0  0  0  0  0999 V2000
  191.3310  175.8430  136.4540 C   0  0  0  0  0  0  0  0  0  0  0  0
  191.5670  176.5700  137.5150 N   0  0  0  0  0  0  0  0  0  0  0  0
  188.4810  173.3760  136.7620 C   0  0  0  0  0  3  0  0  0  0  0  0
  189.6120  174.0380  137.0200 C   0  0  0  0  0  3  0  0  0  0  0  0
  187.9070  175.0830  135.0850 N   0  0  0  0  0  2  0  0  0  0  0  0
  187.6350  173.7250  135.5660 C   0  0  2  0  0  3  0  0  0  0  0  0
  190.0330  175.1880  136.1930 C   0  0  0  0  0  0  0  0  0  0  0  0
  189.1740  175.7080  135.3080 C   0  0  0  0  0  3  0  0  0  0  0  0
  185.8020  173.9530  137.2710 C   0  0  0  0  0  2  0  0  0  0  0  0
  184.6380  173.1980  137.6870 N   0  0  0  0  0  2  0  0  0  0  0  0
  183.4580  171.2790  137.0820 O   0  0  0  0  0  0  0  0  0  0  0  0
  185.6320  171.7720  135.6130 S   0  0  0  0  0  0  0  0  0  0  0  0
  184.4460  172.0380  136.9050 C   0  0  0  0  0  0  0  0  0  0  0  0
  186.1510  173.5140  135.8480 C   0  0  2  0  0  3  0  0  0  0  0  0
  188.8050  178.4650  139.2200 C   0  0  0  0  0  3  0  0  0  0  0  0
  189.9240  177.0450  140.8290 C   0  0  0  0  0  3  0  0  0  0  0  0
  189.6590  177.9990  138.2180 C   0  0  0  0  0  3  0  0  0  0  0  0
  190.7760  176.5760  139.8240 C   0  0  0  0  0  3  0  0  0  0  0  0
  188.9400  177.9900  140.5280 C   0  0  0  0  0  0  0  0  0  0  0  0
  190.6360  177.0310  138.5070 C   0  0  0  0  0  0  0  0  0  0  0  0
  188.0020  178.4540  141.5850 C   0  0  0  0  0  2  0  0  0  0  0  0
  187.6640  177.3760  142.4220 O   0  0  0  0  0  0  0  0  0  0  0  0
  188.0890  177.7760  148.0980 C   0  0  0  0  0  1  0  0  0  0  0  0
  187.8120  177.7730  143.7700 C   0  0  1  0  0  3  0  0  0  0  0  0
  187.8970  177.3270  146.6660 C   0  0  2  0  0  3  0  0  0  0  0  0
  189.1730  177.5880  145.8790 C   0  0  0  0  0  2  0  0  0  0  0  0
  186.5040  177.6730  144.5970 C   0  0  1  0  0  3  0  0  0  0  0  0
  189.0100  177.0920  144.4490 C   0  0  0  0  0  2  0  0  0  0  0  0
  186.7430  178.1050  146.0450 C   0  0  0  0  0  2  0  0  0  0  0  0
  184.7510  177.8750  142.9430 O   0  0  0  0  0  1  0  0  0  0  0  0
  185.3640  178.5190  144.0220 C   0  0  1  0  0  3  0  0  0  0  0  0
  182.9530  178.9620  144.4790 C   0  0  0  0  0  1  0  0  0  0  0  0
  184.3390  178.8690  145.0870 C   0  0  0  0  0  2  0  0  0  0  0  0
  192.4450  175.5860  135.4810 C   0  0  2  0  0  3  0  0  0  0  0  0
  194.2320  176.7960  136.6160 O   0  0  0  0  0  0  0  0  0  0  0  0
  192.4630  174.1830  135.0870 N   0  0  0  0  0  0  0  0  0  0  0  0
  194.5050  174.5170  136.0900 N   0  0  0  0  0  2  0  0  0  0  0  0
  193.7770  175.7300  136.1220 C   0  0  0  0  0  0  0  0  0  0  0  0
  193.5950  173.6490  135.4230 C   0  0  0  0  0  0  0  0  0  0  0  0
  193.9030  172.2190  135.1570 C   0  0  0  0  0  2  0  0  0  0  0  0
  193.1400  171.4080  135.9970 O   0  0  0  0  0  0  0  0  0  0  0  0
  193.9480  170.3000  136.2380 C   0  0  0  0  0  1  0  0  0  0  0  0
  1  2  2  0  0  0  0
  2 20  1  0  0  0  0
  3  4  2  0  0  0  0
  5  8  1  0  0  0  0
  5  6  1  0  0  0  0
  6 14  1  0  0  0  0
  6  3  1  1  0  0  0
  7  1  1  0  0  0  0
  7  4  1  0  0  0  0
  8  7  2  0  0  0  0
  9 10  1  0  0  0  0
 12 14  1  0  0  0  0
 12 13  1  0  0  0  0
 13 11  2  0  0  0  0
 13 10  1  0  0  0  0
 14  9  1  1  0  0  0
 15 19  1  0  0  0  0
 17 20  1  0  0  0  0
 17 15  2  0  0  0  0
 18 16  1  0  0  0  0
 19 16  2  0  0  0  0
 19 21  1  0  0  0  0
 20 18  2  0  0  0  0
 21 22  1  0  0  0  0
 24 22  1  6  0  0  0
 24 28  1  0  0  0  0
 24 27  1  0  0  0  0
 25 23  1  1  0  0  0
 26 25  1  0  0  0  0
 27 31  1  6  0  0  0
 27 29  1  0  0  0  0
 28 26  1  0  0  0  0
 29 25  1  0  0  0  0
 31 30  1  6  0  0  0
 31 33  1  0  0  0  0
 32 33  1  0  0  0  0
 34 38  1  0  0  0  0
 34  1  1  1  0  0  0
 36 39  2  0  0  0  0
 36 34  1  0  0  0  0
 37 38  1  0  0  0  0
 38 35  2  0  0  0  0
 39 37  1  0  0  0  0
 40 39  1  0  0  0  0
 40 41  1  0  0  0  0
 41 42  1  0  0  0  0
M  END
>  <MODEL>
1

>  <REMARK>
 VINA RESULT:      -8.5      0.000      0.000
  Name = 
  11 active torsions:
  status: ('A' for Active; 'I' for Inactive)
    1  A    between atoms: C_7  and  C_17
    2  A    between atoms: C_7  and  C_20
    3  A    between atoms: O_8  and  C_34
    4  A    between atoms: C_9  and  O_37
    5  A    between atoms: C_15  and  C_29
    6  A    between atoms: C_15  and  O_37
    7  A    between atoms: C_18  and  C_35
    8  A    between atoms: C_24  and  C_26
    9  A    between atoms: C_24  and  C_31
   10  A    between atoms: C_34  and  C_41
   11  A    between atoms: N_40  and  C_42
                            x       y       z     vdW  Elec       q    Type
                         _______ _______ _______ _____ _____    ______ ____

>  <TORSDO>
F 11

$$$$
=
 OpenBabel10232412033D

 42 46  0  0  1  0  0  0  0  0999 V2000
  191.8570  175.6660  136.5470 C   0  0  0  0  0  0  0  0  0  0  0  0
  192.0070  176.4270  137.5990 N   0  0  0  0  0  0  0  0  0  0  0  0
  188.9570  173.2480  136.7590 C   0  0  0  0  0  3  0  0  0  0  0  0
  190.0630  173.9240  137.0790 C   0  0  0  0  0  3  0  0  0  0  0  0
  188.5860  174.8070  134.8900 N   0  0  0  0  0  2  0  0  0  0  0  0
  188.2470  173.4960  135.4540 C   0  0  2  0  0  3  0  0  0  0  0  0
  190.5850  174.9970  136.2060 C   0  0  0  0  0  0  0  0  0  0  0  0
  189.8320  175.4430  135.1930 C   0  0  0  0  0  3  0  0  0  0  0  0
  186.2660  173.7550  136.9810 C   0  0  0  0  0  2  0  0  0  0  0  0
  185.0520  173.0250  137.2790 N   0  0  0  0  0  2  0  0  0  0  0  0
  183.8920  171.1360  136.5500 O   0  0  0  0  0  0  0  0  0  0  0  0
  186.2060  171.5890  135.2960 S   0  0  0  0  0  0  0  0  0  0  0  0
  184.9090  171.8740  136.4730 C   0  0  0  0  0  0  0  0  0  0  0  0
  186.7390  173.3170  135.5940 C   0  0  2  0  0  3  0  0  0  0  0  0
  189.0710  178.3090  139.0000 C   0  0  0  0  0  3  0  0  0  0  0  0
  190.1520  177.0640  140.7710 C   0  0  0  0  0  3  0  0  0  0  0  0
  190.0020  177.8120  138.0850 C   0  0  0  0  0  3  0  0  0  0  0  0
  191.0820  176.5640  139.8530 C   0  0  0  0  0  3  0  0  0  0  0  0
  189.1480  177.9380  140.3460 C   0  0  0  0  0  0  0  0  0  0  0  0
  191.0000  176.9150  138.5000 C   0  0  0  0  0  0  0  0  0  0  0  0
  188.1300  178.4330  141.3110 C   0  0  0  0  0  2  0  0  0  0  0  0
  188.2830  177.7660  142.5400 O   0  0  0  0  0  0  0  0  0  0  0  0
  183.3810  178.9460  145.2120 C   0  0  0  0  0  1  0  0  0  0  0  0
  187.0420  177.7530  143.2150 C   0  0  1  0  0  3  0  0  0  0  0  0
  184.7230  178.9900  144.5160 C   0  0  2  0  0  3  0  0  0  0  0  0
  184.5990  178.3550  143.1380 C   0  0  0  0  0  2  0  0  0  0  0  0
  187.1250  178.2510  144.6820 C   0  0  1  0  0  3  0  0  0  0  0  0
  185.9320  178.4410  142.4060 C   0  0  0  0  0  2  0  0  0  0  0  0
  185.7460  178.2210  145.3440 C   0  0  0  0  0  2  0  0  0  0  0  0
  189.3720  177.9890  145.5370 O   0  0  0  0  0  1  0  0  0  0  0  0
  188.0910  177.4290  145.5410 C   0  0  1  0  0  3  0  0  0  0  0  0
  188.4310  178.0850  147.9220 C   0  0  0  0  0  1  0  0  0  0  0  0
  187.5790  177.2760  146.9630 C   0  0  0  0  0  2  0  0  0  0  0  0
  193.0450  175.3840  135.6730 C   0  0  2  0  0  3  0  0  0  0  0  0
  194.4120  177.3200  136.2460 O   0  0  0  0  0  0  0  0  0  0  0  0
  193.4360  173.9840  135.7820 N   0  0  0  0  0  0  0  0  0  0  0  0
  195.2770  175.1470  136.5200 N   0  0  0  0  0  2  0  0  0  0  0  0
  194.2650  176.0720  136.1670 C   0  0  0  0  0  0  0  0  0  0  0  0
  194.6490  173.9030  136.2310 C   0  0  0  0  0  0  0  0  0  0  0  0
  195.3210  172.5960  136.4580 C   0  0  0  0  0  2  0  0  0  0  0  0
  195.3390  172.3060  137.8210 O   0  0  0  0  0  0  0  0  0  0  0  0
  195.4820  170.9210  137.8800 C   0  0  0  0  0  1  0  0  0  0  0  0
  1  2  2  0  0  0  0
  2 20  1  0  0  0  0
  3  4  2  0  0  0  0
  5  8  1  0  0  0  0
  5  6  1  0  0  0  0
  6 14  1  0  0  0  0
  6  3  1  1  0  0  0
  7  1  1  0  0  0  0
  7  4  1  0  0  0  0
  8  7  2  0  0  0  0
  9 10  1  0  0  0  0
 12 14  1  0  0  0  0
 12 13  1  0  0  0  0
 13 11  2  0  0  0  0
 13 10  1  0  0  0  0
 14  9  1  1  0  0  0
 15 19  1  0  0  0  0
 17 20  1  0  0  0  0
 17 15  2  0  0  0  0
 18 16  1  0  0  0  0
 19 16  2  0  0  0  0
 19 21  1  0  0  0  0
 20 18  2  0  0  0  0
 21 22  1  0  0  0  0
 24 22  1  6  0  0  0
 24 27  1  0  0  0  0
 25 23  1  1  0  0  0
 25 29  1  0  0  0  0
 26 25  1  0  0  0  0
 27 29  1  0  0  0  0
 27 31  1  1  0  0  0
 28 26  1  0  0  0  0
 28 24  1  0  0  0  0
 31 30  1  1  0  0  0
 31 33  1  0  0  0  0
 33 32  1  0  0  0  0
 34 36  1  0  0  0  0
 34 38  1  0  0  0  0
 34  1  1  1  0  0  0
 36 39  2  0  0  0  0
 38 35  2  0  0  0  0
 38 37  1  0  0  0  0
 39 40  1  0  0  0  0
 39 37  1  0  0  0  0
 40 41  1  0  0  0  0
 41 42  1  0  0  0  0
M  END
>  <MODEL>
2

>  <REMARK>
 VINA RESULT:      -8.1      1.134      2.319
  Name = 
  11 active torsions:
  status: ('A' for Active; 'I' for Inactive)
    1  A    between atoms: C_7  and  C_17
    2  A    between atoms: C_7  and  C_20
    3  A    between atoms: O_8  and  C_34
    4  A    between atoms: C_9  and  O_37
    5  A    between atoms: C_15  and  C_29
    6  A    between atoms: C_15  and  O_37
    7  A    between atoms: C_18  and  C_35
    8  A    between atoms: C_24  and  C_26
    9  A    between atoms: C_24  and  C_31
   10  A    between atoms: C_34  and  C_41
   11  A    between atoms: N_40  and  C_42
                            x       y       z     vdW  Elec       q    Type
                         _______ _______ _______ _____ _____    ______ ____

>  <TORSDO>
F 11

$$$$
=
 OpenBabel10232412033D

 42 46  0  0  1  0  0  0  0  0999 V2000
  181.9170  178.7300  140.8890 C   0  0  0  0  0  0  0  0  0  0  0  0
  182.0260  178.8910  142.1820 N   0  0  0  0  0  0  0  0  0  0  0  0
  184.4310  177.0180  138.6410 C   0  0  0  0  0  3  0  0  0  0  0  0
  183.3470  177.2300  139.3910 C   0  0  0  0  0  3  0  0  0  0  0  0
  184.9190  179.4290  138.7260 N   0  0  0  0  0  2  0  0  0  0  0  0
  185.4650  178.0960  138.4500 C   0  0  2  0  0  3  0  0  0  0  0  0
  183.0800  178.5520  139.9940 C   0  0  0  0  0  0  0  0  0  0  0  0
  183.8130  179.6060  139.6160 C   0  0  0  0  0  3  0  0  0  0  0  0
  185.2830  177.1260  136.1380 C   0  0  0  0  0  2  0  0  0  0  0  0
  186.1830  176.6020  135.1320 N   0  0  0  0  0  2  0  0  0  0  0  0
  188.4720  176.3320  134.7650 O   0  0  0  0  0  0  0  0  0  0  0  0
  187.8300  177.4150  137.1190 S   0  0  0  0  0  0  0  0  0  0  0  0
  187.5360  176.6910  135.5270 C   0  0  0  0  0  0  0  0  0  0  0  0
  186.1020  178.0240  137.0660 C   0  0  2  0  0  3  0  0  0  0  0  0
  185.5270  178.1380  143.3230 C   0  0  0  0  0  3  0  0  0  0  0  0
  184.1760  178.7760  145.2270 C   0  0  0  0  0  3  0  0  0  0  0  0
  184.4240  178.3160  142.4830 C   0  0  0  0  0  3  0  0  0  0  0  0
  183.0740  178.9570  144.3850 C   0  0  0  0  0  3  0  0  0  0  0  0
  185.4020  178.3650  144.6960 C   0  0  0  0  0  0  0  0  0  0  0  0
  183.1940  178.7510  143.0050 C   0  0  0  0  0  0  0  0  0  0  0  0
  186.5880  178.2180  145.5830 C   0  0  0  0  0  2  0  0  0  0  0  0
  187.7630  178.3640  144.8250 O   0  0  0  0  0  0  0  0  0  0  0  0
  192.1220  175.9050  147.5650 C   0  0  0  0  0  1  0  0  0  0  0  0
  188.7570  177.5060  145.3450 C   0  0  1  0  0  3  0  0  0  0  0  0
  191.0870  176.8540  147.0020 C   0  0  2  0  0  3  0  0  0  0  0  0
  189.6960  176.3680  147.3840 C   0  0  0  0  0  2  0  0  0  0  0  0
  190.1930  177.8560  144.8720 C   0  0  1  0  0  3  0  0  0  0  0  0
  188.6470  177.3430  146.8690 C   0  0  0  0  0  2  0  0  0  0  0  0
  191.2150  176.8970  145.4840 C   0  0  0  0  0  2  0  0  0  0  0  0
  191.6910  177.6930  142.9810 O   0  0  0  0  0  1  0  0  0  0  0  0
  190.3480  177.8210  143.3490 C   0  0  1  0  0  3  0  0  0  0  0  0
  188.8690  177.1860  141.4450 C   0  0  0  0  0  1  0  0  0  0  0  0
  189.5170  176.7100  142.7300 C   0  0  0  0  0  2  0  0  0  0  0  0
  180.5590  178.8040  140.2540 C   0  0  2  0  0  3  0  0  0  0  0  0
  180.0040  181.1130  140.8040 O   0  0  0  0  0  0  0  0  0  0  0  0
  180.5860  178.2140  138.9220 N   0  0  0  0  0  0  0  0  0  0  0  0
  179.9820  180.4020  138.5600 N   0  0  0  0  0  2  0  0  0  0  0  0
  180.1720  180.2050  139.9490 C   0  0  0  0  0  0  0  0  0  0  0  0
  180.2580  179.1060  138.0410 C   0  0  0  0  0  0  0  0  0  0  0  0
  180.2070  178.7980  136.5870 C   0  0  0  0  0  2  0  0  0  0  0  0
  181.4980  178.7860  136.0620 O   0  0  0  0  0  0  0  0  0  0  0  0
  181.3130  178.7570  134.6820 C   0  0  0  0  0  1  0  0  0  0  0  0
  1  2  2  0  0  0  0
  2 20  1  0  0  0  0
  3  4  2  0  0  0  0
  4  7  1  0  0  0  0
  5  8  1  0  0  0  0
  6  3  1  6  0  0  0
  6  5  1  0  0  0  0
  7  1  1  0  0  0  0
  8  7  2  0  0  0  0
 10 13  1  0  0  0  0
 10  9  1  0  0  0  0
 11 13  2  0  0  0  0
 13 12  1  0  0  0  0
 14  9  1  6  0  0  0
 14 12  1  0  0  0  0
 14  6  1  0  0  0  0
 15 19  1  0  0  0  0
 17 20  1  0  0  0  0
 17 15  2  0  0  0  0
 18 16  1  0  0  0  0
 19 16  2  0  0  0  0
 19 21  1  0  0  0  0
 20 18  2  0  0  0  0
 22 21  1  0  0  0  0
 24 22  1  1  0  0  0
 24 28  1  0  0  0  0
 25 26  1  0  0  0  0
 25 23  1  1  0  0  0
 27 31  1  6  0  0  0
 27 24  1  0  0  0  0
 27 29  1  0  0  0  0
 28 26  1  0  0  0  0
 29 25  1  0  0  0  0
 31 30  1  1  0  0  0
 32 33  1  0  0  0  0
 33 31  1  0  0  0  0
 34  1  1  6  0  0  0
 36 34  1  0  0  0  0
 37 38  1  0  0  0  0
 38 34  1  0  0  0  0
 38 35  2  0  0  0  0
 39 37  1  0  0  0  0
 39 36  2  0  0  0  0
 40 39  1  0  0  0  0
 41 40  1  0  0  0  0
 42 41  1  0  0  0  0
M  END
>  <MODEL>
3

>  <REMARK>
 VINA RESULT:      -8.1      4.373      8.767
  Name = 
  11 active torsions:
  status: ('A' for Active; 'I' for Inactive)
    1  A    between atoms: C_7  and  C_17
    2  A    between atoms: C_7  and  C_20
    3  A    between atoms: O_8  and  C_34
    4  A    between atoms: C_9  and  O_37
    5  A    between atoms: C_15  and  C_29
    6  A    between atoms: C_15  and  O_37
    7  A    between atoms: C_18  and  C_35
    8  A    between atoms: C_24  and  C_26
    9  A    between atoms: C_24  and  C_31
   10  A    between atoms: C_34  and  C_41
   11  A    between atoms: N_40  and  C_42
                            x       y       z     vdW  Elec       q    Type
                         _______ _______ _______ _____ _____    ______ ____

>  <TORSDO>
F 11

$$$$
=
 OpenBabel10232412033D

 42 46  0  0  1  0  0  0  0  0999 V2000
  187.8780  178.0720  145.4420 C   0  0  0  0  0  0  0  0  0  0  0  0
  186.6060  178.2970  145.6460 N   0  0  0  0  0  0  0  0  0  0  0  0
  189.6680  178.3060  142.1190 C   0  0  0  0  0  3  0  0  0  0  0  0
  189.2210  178.6200  143.3380 C   0  0  0  0  0  3  0  0  0  0  0  0
  188.8960  175.9950  142.4710 N   0  0  0  0  0  2  0  0  0  0  0  0
  189.3080  176.9920  141.4770 C   0  0  2  0  0  3  0  0  0  0  0  0
  188.4280  177.6610  144.1340 C   0  0  0  0  0  0  0  0  0  0  0  0
  188.3330  176.3900  143.7260 C   0  0  0  0  0  3  0  0  0  0  0  0
  191.6940  177.3280  140.7590 C   0  0  0  0  0  2  0  0  0  0  0  0
  192.4610  177.2190  139.5360 N   0  0  0  0  0  2  0  0  0  0  0  0
  192.1770  176.5570  137.3160 O   0  0  0  0  0  0  0  0  0  0  0  0
  189.9760  176.4210  138.8200 S   0  0  0  0  0  0  0  0  0  0  0  0
  191.6770  176.7620  138.4530 C   0  0  0  0  0  0  0  0  0  0  0  0
  190.4370  176.4720  140.5930 C   0  0  2  0  0  3  0  0  0  0  0  0
  184.7400  178.3720  142.3850 C   0  0  0  0  0  3  0  0  0  0  0  0
  183.2200  178.8840  144.1970 C   0  0  0  0  0  3  0  0  0  0  0  0
  185.7830  178.2270  143.3030 C   0  0  0  0  0  3  0  0  0  0  0  0
  184.2650  178.7360  145.1160 C   0  0  0  0  0  3  0  0  0  0  0  0
  183.4580  178.7040  142.8320 C   0  0  0  0  0  0  0  0  0  0  0  0
  185.5480  178.3840  144.6790 C   0  0  0  0  0  0  0  0  0  0  0  0
  182.3390  178.8150  141.8580 C   0  0  0  0  0  2  0  0  0  0  0  0
  182.8460  179.1770  140.5970 O   0  0  0  0  0  0  0  0  0  0  0  0
  181.5180  174.4980  137.6130 C   0  0  0  0  0  1  0  0  0  0  0  0
  182.4350  178.2200  139.6430 C   0  0  1  0  0  3  0  0  0  0  0  0
  181.9930  175.4990  138.6430 C   0  0  2  0  0  3  0  0  0  0  0  0
  180.8230  176.3710  139.0770 C   0  0  0  0  0  2  0  0  0  0  0  0
  183.6030  177.3930  139.0450 C   0  0  1  0  0  3  0  0  0  0  0  0
  181.2770  177.3490  140.1530 C   0  0  0  0  0  2  0  0  0  0  0  0
  183.0830  176.3720  138.0320 C   0  0  0  0  0  2  0  0  0  0  0  0
  185.6270  178.6970  139.2690 O   0  0  0  0  0  1  0  0  0  0  0  0
  184.6620  178.2600  138.3570 C   0  0  1  0  0  3  0  0  0  0  0  0
  186.6780  178.1190  136.8960 C   0  0  0  0  0  1  0  0  0  0  0  0
  185.3160  177.5250  137.1990 C   0  0  0  0  0  2  0  0  0  0  0  0
  188.8290  178.1520  146.6010 C   0  0  2  0  0  3  0  0  0  0  0  0
  187.4990  176.9790  148.2730 O   0  0  0  0  0  0  0  0  0  0  0  0
  190.1810  177.8120  146.1740 N   0  0  0  0  0  0  0  0  0  0  0  0
  189.6680  176.2220  147.7540 N   0  0  0  0  0  2  0  0  0  0  0  0
  188.5610  177.0920  147.6060 C   0  0  0  0  0  0  0  0  0  0  0  0
  190.5980  176.7740  146.8290 C   0  0  0  0  0  0  0  0  0  0  0  0
  191.9440  176.1850  146.6010 C   0  0  0  0  0  2  0  0  0  0  0  0
  192.2150  175.2330  147.5830 O   0  0  0  0  0  0  0  0  0  0  0  0
  193.0410  175.8940  148.4890 C   0  0  0  0  0  1  0  0  0  0  0  0
  1  2  2  0  0  0  0
  3  4  2  0  0  0  0
  4  7  1  0  0  0  0
  5  8  1  0  0  0  0
  6  3  1  1  0  0  0
  6  5  1  0  0  0  0
  7  1  1  0  0  0  0
  8  7  2  0  0  0  0
 10  9  1  0  0  0  0
 11 13  2  0  0  0  0
 12 14  1  0  0  0  0
 13 12  1  0  0  0  0
 13 10  1  0  0  0  0
 14  9  1  6  0  0  0
 14  6  1  0  0  0  0
 15 19  2  0  0  0  0
 15 17  1  0  0  0  0
 16 18  2  0  0  0  0
 17 20  2  0  0  0  0
 19 16  1  0  0  0  0
 20 18  1  0  0  0  0
 20  2  1  0  0  0  0
 21 19  1  0  0  0  0
 22 21  1  0  0  0  0
 24 28  1  0  0  0  0
 24 22  1  1  0  0  0
 25 23  1  6  0  0  0
 25 26  1  0  0  0  0
 26 28  1  0  0  0  0
 27 31  1  6  0  0  0
 27 24  1  0  0  0  0
 29 25  1  0  0  0  0
 29 27  1  0  0  0  0
 31 30  1  1  0  0  0
 32 33  1  0  0  0  0
 33 31  1  0  0  0  0
 34  1  1  6  0  0  0
 34 38  1  0  0  0  0
 36 34  1  0  0  0  0
 36 39  2  0  0  0  0
 38 37  1  0  0  0  0
 38 35  2  0  0  0  0
 39 37  1  0  0  0  0
 40 39  1  0  0  0  0
 40 41  1  0  0  0  0
 41 42  1  0  0  0  0
M  END
>  <MODEL>
4

>  <REMARK>
 VINA RESULT:      -7.7      4.214      9.226
  Name = 
  11 active torsions:
  status: ('A' for Active; 'I' for Inactive)
    1  A    between atoms: C_7  and  C_17
    2  A    between atoms: C_7  and  C_20
    3  A    between atoms: O_8  and  C_34
    4  A    between atoms: C_9  and  O_37
    5  A    between atoms: C_15  and  C_29
    6  A    between atoms: C_15  and  O_37
    7  A    between atoms: C_18  and  C_35
    8  A    between atoms: C_24  and  C_26
    9  A    between atoms: C_24  and  C_31
   10  A    between atoms: C_34  and  C_41
   11  A    between atoms: N_40  and  C_42
                            x       y       z     vdW  Elec       q    Type
                         _______ _______ _______ _____ _____    ______ ____

>  <TORSDO>
F 11

$$$$
=
 OpenBabel10232412033D

 42 46  0  0  1  0  0  0  0  0999 V2000
  183.2530  178.6160  138.7310 C   0  0  0  0  0  0  0  0  0  0  0  0
  183.3430  179.1530  139.9200 N   0  0  0  0  0  0  0  0  0  0  0  0
  186.5670  177.4110  137.3630 C   0  0  0  0  0  3  0  0  0  0  0  0
  185.6440  178.1900  137.9340 C   0  0  0  0  0  3  0  0  0  0  0  0
  185.0040  175.5150  137.5070 N   0  0  0  0  0  2  0  0  0  0  0  0
  186.2180  176.0330  136.8670 C   0  0  2  0  0  3  0  0  0  0  0  0
  184.2710  177.7010  138.1750 C   0  0  0  0  0  0  0  0  0  0  0  0
  184.0010  176.4000  138.0170 C   0  0  0  0  0  3  0  0  0  0  0  0
  188.7210  175.8200  136.9630 C   0  0  0  0  0  2  0  0  0  0  0  0
  189.7270  174.8900  136.4930 N   0  0  0  0  0  2  0  0  0  0  0  0
  189.8700  172.8320  135.4020 O   0  0  0  0  0  0  0  0  0  0  0  0
  187.3880  173.7530  135.7440 S   0  0  0  0  0  0  0  0  0  0  0  0
  189.1590  173.7750  135.8370 C   0  0  0  0  0  0  0  0  0  0  0  0
  187.3890  175.0690  137.0190 C   0  0  2  0  0  3  0  0  0  0  0  0
  186.5490  178.5030  141.7700 C   0  0  0  0  0  3  0  0  0  0  0  0
  184.6700  178.1010  143.2420 C   0  0  0  0  0  3  0  0  0  0  0  0
  185.6680  178.8520  140.7440 C   0  0  0  0  0  3  0  0  0  0  0  0
  183.7890  178.4540  142.2150 C   0  0  0  0  0  3  0  0  0  0  0  0
  186.0500  178.1240  143.0200 C   0  0  0  0  0  0  0  0  0  0  0  0
  184.2810  178.8540  140.9660 C   0  0  0  0  0  0  0  0  0  0  0  0
  186.9910  177.7960  144.1250 C   0  0  0  0  0  2  0  0  0  0  0  0
  188.3050  177.7520  143.6270 O   0  0  0  0  0  0  0  0  0  0  0  0
  191.9950  176.1640  147.6800 C   0  0  0  0  0  1  0  0  0  0  0  0
  189.1280  177.0760  144.5560 C   0  0  1  0  0  3  0  0  0  0  0  0
  191.1460  176.9130  146.6750 C   0  0  2  0  0  3  0  0  0  0  0  0
  189.6740  176.6740  146.9790 C   0  0  0  0  0  2  0  0  0  0  0  0
  190.6410  177.1530  144.2200 C   0  0  1  0  0  3  0  0  0  0  0  0
  188.8100  177.4650  146.0070 C   0  0  0  0  0  2  0  0  0  0  0  0
  191.4670  176.4120  145.2720 C   0  0  0  0  0  2  0  0  0  0  0  0
  190.2490  175.4120  142.5890 O   0  0  0  0  0  1  0  0  0  0  0  0
  190.9810  176.5760  142.8430 C   0  0  1  0  0  3  0  0  0  0  0  0
  191.9480  177.6290  140.8010 C   0  0  0  0  0  1  0  0  0  0  0  0
  190.7590  177.5970  141.7410 C   0  0  0  0  0  2  0  0  0  0  0  0
  182.1050  178.9980  137.8420 C   0  0  2  0  0  3  0  0  0  0  0  0
  180.3860  177.5520  138.7890 O   0  0  0  0  0  0  0  0  0  0  0  0
  182.0340  180.4470  137.6960 N   0  0  0  0  0  0  0  0  0  0  0  0
  180.0320  179.8770  138.6700 N   0  0  0  0  0  2  0  0  0  0  0  0
  180.7960  178.7010  138.4770 C   0  0  0  0  0  0  0  0  0  0  0  0
  180.8970  180.8760  138.1440 C   0  0  0  0  0  0  0  0  0  0  0  0
  180.5400  182.3200  138.1350 C   0  0  0  0  0  2  0  0  0  0  0  0
  181.0320  182.9200  136.9770 O   0  0  0  0  0  0  0  0  0  0  0  0
  181.3320  184.2250  137.3620 C   0  0  0  0  0  1  0  0  0  0  0  0
  1  2  2  0  0  0  0
  2 20  1  0  0  0  0
  3  4  2  0  0  0  0
  4  7  1  0  0  0  0
  5  8  1  0  0  0  0
  6 14  1  0  0  0  0
  6  3  1  1  0  0  0
  6  5  1  0  0  0  0
  7  1  1  0  0  0  0
  8  7  2  0  0  0  0
 10  9  1  0  0  0  0
 11 13  2  0  0  0  0
 12 13  1  0  0  0  0
 12 14  1  0  0  0  0
 13 10  1  0  0  0  0
 14  9  1  6  0  0  0
 15 19  1  0  0  0  0
 17 20  1  0  0  0  0
 17 15  2  0  0  0  0
 18 16  1  0  0  0  0
 19 16  2  0  0  0  0
 19 21  1  0  0  0  0
 20 18  2  0  0  0  0
 22 21  1  0  0  0  0
 24 22  1  6  0  0  0
 24 28  1  0  0  0  0
 25 26  1  0  0  0  0
 25 23  1  1  0  0  0
 27 31  1  6  0  0  0
 27 24  1  0  0  0  0
 27 29  1  0  0  0  0
 28 26  1  0  0  0  0
 29 25  1  0  0  0  0
 31 30  1  6  0  0  0
 32 33  1  0  0  0  0
 33 31  1  0  0  0  0
 34 38  1  0  0  0  0
 34  1  1  1  0  0  0
 36 34  1  0  0  0  0
 36 39  2  0  0  0  0
 38 37  1  0  0  0  0
 38 35  2  0  0  0  0
 39 37  1  0  0  0  0
 40 39  1  0  0  0  0
 41 42  1  0  0  0  0
 41 40  1  0  0  0  0
M  END
>  <MODEL>
5

>  <REMARK>
 VINA RESULT:      -7.6      4.226      8.444
  Name = 
  11 active torsions:
  status: ('A' for Active; 'I' for Inactive)
    1  A    between atoms: C_7  and  C_17
    2  A    between atoms: C_7  and  C_20
    3  A    between atoms: O_8  and  C_34
    4  A    between atoms: C_9  and  O_37
    5  A    between atoms: C_15  and  C_29
    6  A    between atoms: C_15  and  O_37
    7  A    between atoms: C_18  and  C_35
    8  A    between atoms: C_24  and  C_26
    9  A    between atoms: C_24  and  C_31
   10  A    between atoms: C_34  and  C_41
   11  A    between atoms: N_40  and  C_42
                            x       y       z     vdW  Elec       q    Type
                         _______ _______ _______ _____ _____    ______ ____

>  <TORSDO>
F 11

$$$$
=
 OpenBabel10232412033D

 42 46  0  0  1  0  0  0  0  0999 V2000
  184.4720  178.9560  142.6670 C   0  0  0  0  0  0  0  0  0  0  0  0
  183.5910  178.8090  141.7120 N   0  0  0  0  0  0  0  0  0  0  0  0
  188.1310  178.6610  141.7580 C   0  0  0  0  0  3  0  0  0  0  0  0
  186.9030  179.1650  141.9040 C   0  0  0  0  0  3  0  0  0  0  0  0
  187.4990  176.7870  143.2230 N   0  0  0  0  0  2  0  0  0  0  0  0
  188.4570  177.2660  142.2200 C   0  0  2  0  0  3  0  0  0  0  0  0
  185.8420  178.4060  142.5980 C   0  0  0  0  0  0  0  0  0  0  0  0
  186.1630  177.2950  143.2720 C   0  0  0  0  0  3  0  0  0  0  0  0
  190.3080  175.6980  142.8800 C   0  0  0  0  0  2  0  0  0  0  0  0
  191.3490  175.6470  143.8860 N   0  0  0  0  0  2  0  0  0  0  0  0
  192.2320  176.9680  145.5950 O   0  0  0  0  0  0  0  0  0  0  0  0
  190.1510  178.0370  144.3090 S   0  0  0  0  0  0  0  0  0  0  0  0
  191.3660  176.8040  144.6960 C   0  0  0  0  0  0  0  0  0  0  0  0
  189.8940  177.1610  142.7190 C   0  0  2  0  0  3  0  0  0  0  0  0
  183.4500  176.5820  138.6890 C   0  0  0  0  0  3  0  0  0  0  0  0
  184.9370  178.4400  138.2540 C   0  0  0  0  0  3  0  0  0  0  0  0
  183.1940  177.0870  139.9650 C   0  0  0  0  0  3  0  0  0  0  0  0
  184.6780  178.9480  139.5310 C   0  0  0  0  0  3  0  0  0  0  0  0
  184.3250  177.2570  137.8330 C   0  0  0  0  0  0  0  0  0  0  0  0
  183.7870  178.2890  140.3880 C   0  0  0  0  0  0  0  0  0  0  0  0
  184.5620  176.7410  136.4580 C   0  0  0  0  0  2  0  0  0  0  0  0
  185.8770  177.0430  136.0620 O   0  0  0  0  0  0  0  0  0  0  0  0
  188.0050  171.7510  136.2210 C   0  0  0  0  0  1  0  0  0  0  0  0
  186.5940  175.8390  135.8850 C   0  0  1  0  0  3  0  0  0  0  0  0
  187.2400  173.0350  136.4530 C   0  0  2  0  0  3  0  0  0  0  0  0
  186.5100  173.4260  135.1760 C   0  0  0  0  0  2  0  0  0  0  0  0
  187.4820  175.4570  137.1000 C   0  0  1  0  0  3  0  0  0  0  0  0
  185.6930  174.6890  135.4110 C   0  0  0  0  0  2  0  0  0  0  0  0
  188.2150  174.1400  136.8420 C   0  0  0  0  0  2  0  0  0  0  0  0
  188.1140  177.2870  138.5480 O   0  0  0  0  0  1  0  0  0  0  0  0
  188.5200  176.5290  137.4450 C   0  0  1  0  0  3  0  0  0  0  0  0
  190.4920  176.4680  138.9690 C   0  0  0  0  0  1  0  0  0  0  0  0
  189.8890  175.9190  137.6910 C   0  0  0  0  0  2  0  0  0  0  0  0
  184.0650  179.6450  143.9370 C   0  0  2  0  0  3  0  0  0  0  0  0
  182.0150  178.4130  144.4050 O   0  0  0  0  0  0  0  0  0  0  0  0
  185.2110  179.7910  144.8270 N   0  0  0  0  0  0  0  0  0  0  0  0
  183.7310  178.4920  146.0150 N   0  0  0  0  0  2  0  0  0  0  0  0
  183.1600  178.7990  144.7560 C   0  0  0  0  0  0  0  0  0  0  0  0
  184.9830  179.1640  145.9390 C   0  0  0  0  0  0  0  0  0  0  0  0
  185.9800  179.1270  147.0410 C   0  0  0  0  0  2  0  0  0  0  0  0
  186.8570  178.0600  146.8480 O   0  0  0  0  0  0  0  0  0  0  0  0
  187.6370  178.0380  148.0010 C   0  0  0  0  0  1  0  0  0  0  0  0
  2  1  2  0  0  0  0
  3  4  2  0  0  0  0
  4  7  1  0  0  0  0
  5  8  1  0  0  0  0
  6  3  1  1  0  0  0
  6 14  1  0  0  0  0
  6  5  1  0  0  0  0
  7  1  1  0  0  0  0
  7  8  2  0  0  0  0
  9 10  1  0  0  0  0
 10 13  1  0  0  0  0
 12 13  1  0  0  0  0
 13 11  2  0  0  0  0
 14  9  1  1  0  0  0
 14 12  1  0  0  0  0
 15 17  1  0  0  0  0
 16 18  2  0  0  0  0
 17 20  2  0  0  0  0
 18 20  1  0  0  0  0
 19 16  1  0  0  0  0
 19 15  2  0  0  0  0
 20  2  1  0  0  0  0
 21 19  1  0  0  0  0
 22 21  1  0  0  0  0
 24 22  1  1  0  0  0
 24 27  1  0  0  0  0
 25 23  1  6  0  0  0
 25 29  1  0  0  0  0
 26 28  1  0  0  0  0
 26 25  1  0  0  0  0
 27 31  1  6  0  0  0
 28 24  1  0  0  0  0
 29 27  1  0  0  0  0
 31 33  1  0  0  0  0
 31 30  1  1  0  0  0
 33 32  1  0  0  0  0
 34  1  1  6  0  0  0
 34 38  1  0  0  0  0
 34 36  1  0  0  0  0
 35 38  2  0  0  0  0
 36 39  2  0  0  0  0
 38 37  1  0  0  0  0
 39 37  1  0  0  0  0
 39 40  1  0  0  0  0
 41 40  1  0  0  0  0
 41 42  1  0  0  0  0
M  END
>  <MODEL>
6

>  <REMARK>
 VINA RESULT:      -7.5      4.417     10.327
  Name = 
  11 active torsions:
  status: ('A' for Active; 'I' for Inactive)
    1  A    between atoms: C_7  and  C_17
    2  A    between atoms: C_7  and  C_20
    3  A    between atoms: O_8  and  C_34
    4  A    between atoms: C_9  and  O_37
    5  A    between atoms: C_15  and  C_29
    6  A    between atoms: C_15  and  O_37
    7  A    between atoms: C_18  and  C_35
    8  A    between atoms: C_24  and  C_26
    9  A    between atoms: C_24  and  C_31
   10  A    between atoms: C_34  and  C_41
   11  A    between atoms: N_40  and  C_42
                            x       y       z     vdW  Elec       q    Type
                         _______ _______ _______ _____ _____    ______ ____

>  <TORSDO>
F 11

$$$$
=
 OpenBabel10232412033D

 42 46  0  0  1  0  0  0  0  0999 V2000
  185.1420  178.9060  143.1860 C   0  0  0  0  0  0  0  0  0  0  0  0
  184.0220  178.9110  142.5100 N   0  0  0  0  0  0  0  0  0  0  0  0
  188.2460  178.1950  141.1460 C   0  0  0  0  0  3  0  0  0  0  0  0
  187.1770  178.8240  141.6410 C   0  0  0  0  0  3  0  0  0  0  0  0
  188.0260  176.5000  142.9180 N   0  0  0  0  0  2  0  0  0  0  0  0
  188.6150  176.8110  141.6110 C   0  0  2  0  0  3  0  0  0  0  0  0
  186.3660  178.2230  142.7200 C   0  0  0  0  0  0  0  0  0  0  0  0
  186.8230  177.1380  143.3570 C   0  0  0  0  0  3  0  0  0  0  0  0
  190.8180  177.6630  142.4730 C   0  0  0  0  0  2  0  0  0  0  0  0
  192.1660  177.8230  141.9680 N   0  0  0  0  0  2  0  0  0  0  0  0
  193.4150  177.3400  140.0570 O   0  0  0  0  0  0  0  0  0  0  0  0
  190.8420  176.6410  139.9250 S   0  0  0  0  0  0  0  0  0  0  0  0
  192.3050  177.3340  140.6500 C   0  0  0  0  0  0  0  0  0  0  0  0
  190.1270  176.6050  141.6120 C   0  0  2  0  0  3  0  0  0  0  0  0
  182.9190  176.8300  139.5810 C   0  0  0  0  0  3  0  0  0  0  0  0
  184.2070  178.7210  138.7900 C   0  0  0  0  0  3  0  0  0  0  0  0
  183.0830  177.2710  140.8960 C   0  0  0  0  0  3  0  0  0  0  0  0
  184.3660  179.1640  140.1070 C   0  0  0  0  0  3  0  0  0  0  0  0
  183.4840  177.5530  138.5260 C   0  0  0  0  0  0  0  0  0  0  0  0
  183.7870  178.4560  141.1680 C   0  0  0  0  0  0  0  0  0  0  0  0
  183.2730  177.1060  137.1240 C   0  0  0  0  0  2  0  0  0  0  0  0
  184.4280  177.3670  136.3670 O   0  0  0  0  0  0  0  0  0  0  0  0
  187.1720  172.4010  136.9710 C   0  0  0  0  0  1  0  0  0  0  0  0
  185.1620  176.1690  136.2160 C   0  0  1  0  0  3  0  0  0  0  0  0
  186.4080  173.6920  137.1680 C   0  0  2  0  0  3  0  0  0  0  0  0
  185.1320  173.6560  136.3390 C   0  0  0  0  0  2  0  0  0  0  0  0
  186.5460  176.1940  136.9150 C   0  0  1  0  0  3  0  0  0  0  0  0
  184.3280  174.9280  136.5690 C   0  0  0  0  0  2  0  0  0  0  0  0
  187.2750  174.8630  136.7210 C   0  0  0  0  0  2  0  0  0  0  0  0
  186.9800  177.8490  135.2070 O   0  0  0  0  0  1  0  0  0  0  0  0
  187.4540  177.3200  136.4120 C   0  0  1  0  0  3  0  0  0  0  0  0
  188.9820  179.0540  137.3470 C   0  0  0  0  0  1  0  0  0  0  0  0
  187.6100  178.4160  137.4520 C   0  0  0  0  0  2  0  0  0  0  0  0
  185.1810  179.5530  144.5390 C   0  0  2  0  0  3  0  0  0  0  0  0
  182.8720  179.1640  145.2190 O   0  0  0  0  0  0  0  0  0  0  0  0
  186.3780  179.1460  145.2650 N   0  0  0  0  0  0  0  0  0  0  0  0
  184.6410  178.3950  146.5710 N   0  0  0  0  0  2  0  0  0  0  0  0
  184.1080  179.0360  145.4270 C   0  0  0  0  0  0  0  0  0  0  0  0
  186.0410  178.5370  146.3580 C   0  0  0  0  0  0  0  0  0  0  0  0
  187.0530  177.9950  147.3030 C   0  0  0  0  0  2  0  0  0  0  0  0
  188.1230  177.4560  146.5910 O   0  0  0  0  0  0  0  0  0  0  0  0
  189.1950  177.5100  147.4790 C   0  0  0  0  0  1  0  0  0  0  0  0
  2  1  2  0  0  0  0
  3  4  2  0  0  0  0
  4  7  1  0  0  0  0
  5  8  1  0  0  0  0
  6  3  1  1  0  0  0
  6 14  1  0  0  0  0
  6  5  1  0  0  0  0
  7  1  1  0  0  0  0
  7  8  2  0  0  0  0
 10  9  1  0  0  0  0
 11 13  2  0  0  0  0
 12 13  1  0  0  0  0
 12 14  1  0  0  0  0
 13 10  1  0  0  0  0
 14  9  1  1  0  0  0
 15 17  1  0  0  0  0
 16 18  2  0  0  0  0
 17 20  2  0  0  0  0
 18 20  1  0  0  0  0
 19 16  1  0  0  0  0
 19 15  2  0  0  0  0
 20  2  1  0  0  0  0
 21 19  1  0  0  0  0
 22 21  1  0  0  0  0
 24 22  1  1  0  0  0
 24 28  1  0  0  0  0
 24 27  1  0  0  0  0
 25 23  1  6  0  0  0
 26 28  1  0  0  0  0
 26 25  1  0  0  0  0
 27 31  1  6  0  0  0
 29 27  1  0  0  0  0
 29 25  1  0  0  0  0
 31 30  1  6  0  0  0
 31 33  1  0  0  0  0
 32 33  1  0  0  0  0
 34  1  1  6  0  0  0
 34 36  1  0  0  0  0
 34 38  1  0  0  0  0
 35 38  2  0  0  0  0
 36 39  2  0  0  0  0
 38 37  1  0  0  0  0
 39 37  1  0  0  0  0
 39 40  1  0  0  0  0
 41 40  1  0  0  0  0
 41 42  1  0  0  0  0
M  END
>  <MODEL>
7

>  <REMARK>
 VINA RESULT:      -7.4      4.164      9.928
  Name = 
  11 active torsions:
  status: ('A' for Active; 'I' for Inactive)
    1  A    between atoms: C_7  and  C_17
    2  A    between atoms: C_7  and  C_20
    3  A    between atoms: O_8  and  C_34
    4  A    between atoms: C_9  and  O_37
    5  A    between atoms: C_15  and  C_29
    6  A    between atoms: C_15  and  O_37
    7  A    between atoms: C_18  and  C_35
    8  A    between atoms: C_24  and  C_26
    9  A    between atoms: C_24  and  C_31
   10  A    between atoms: C_34  and  C_41
   11  A    between atoms: N_40  and  C_42
                            x       y       z     vdW  Elec       q    Type
                         _______ _______ _______ _____ _____    ______ ____

>  <TORSDO>
F 11

$$$$
=
 OpenBabel10232412033D

 42 46  0  0  1  0  0  0  0  0999 V2000
  188.0950  178.0480  145.4720 C   0  0  0  0  0  0  0  0  0  0  0  0
  186.8230  178.2030  145.7330 N   0  0  0  0  0  0  0  0  0  0  0  0
  189.1870  176.0400  142.4580 C   0  0  0  0  0  3  0  0  0  0  0  0
  188.6540  176.3510  143.6430 C   0  0  0  0  0  3  0  0  0  0  0  0
  189.3900  178.4420  141.9580 N   0  0  0  0  0  2  0  0  0  0  0  0
  189.8410  177.0920  141.6020 C   0  0  2  0  0  3  0  0  0  0  0  0
  188.6130  177.7490  144.1210 C   0  0  0  0  0  0  0  0  0  0  0  0
  188.9170  178.7410  143.2750 C   0  0  0  0  0  3  0  0  0  0  0  0
  190.9900  176.5530  139.4320 C   0  0  0  0  0  2  0  0  0  0  0  0
  190.8410  176.9050  138.0350 N   0  0  0  0  0  2  0  0  0  0  0  0
  189.4060  178.1200  136.6540 O   0  0  0  0  0  0  0  0  0  0  0  0
  188.7770  178.1670  139.2480 S   0  0  0  0  0  0  0  0  0  0  0  0
  189.7290  177.7460  137.8110 C   0  0  0  0  0  0  0  0  0  0  0  0
  189.6460  176.8070  140.1170 C   0  0  2  0  0  3  0  0  0  0  0  0
  184.8020  178.1840  142.5640 C   0  0  0  0  0  3  0  0  0  0  0  0
  183.4290  178.9740  144.3940 C   0  0  0  0  0  3  0  0  0  0  0  0
  185.8760  178.0200  143.4440 C   0  0  0  0  0  3  0  0  0  0  0  0
  184.5030  178.8060  145.2740 C   0  0  0  0  0  3  0  0  0  0  0  0
  183.5780  178.6640  143.0390 C   0  0  0  0  0  0  0  0  0  0  0  0
  185.7270  178.3070  144.8110 C   0  0  0  0  0  0  0  0  0  0  0  0
  182.4240  178.7970  142.1100 C   0  0  0  0  0  2  0  0  0  0  0  0
  182.5900  177.9200  141.0240 O   0  0  0  0  0  0  0  0  0  0  0  0
  180.7220  180.4340  136.2540 C   0  0  0  0  0  1  0  0  0  0  0  0
  182.4180  178.6390  139.8200 C   0  0  1  0  0  3  0  0  0  0  0  0
  180.8840  179.6320  137.5270 C   0  0  2  0  0  3  0  0  0  0  0  0
  181.2790  180.5630  138.6640 C   0  0  0  0  0  2  0  0  0  0  0  0
  182.1600  177.7360  138.5850 C   0  0  1  0  0  3  0  0  0  0  0  0
  181.3940  179.7750  139.9620 C   0  0  0  0  0  2  0  0  0  0  0  0
  181.9700  178.5820  137.3250 C   0  0  0  0  0  2  0  0  0  0  0  0
  182.7810  175.4500  138.1010 O   0  0  0  0  0  1  0  0  0  0  0  0
  183.2880  176.7320  138.3290 C   0  0  1  0  0  3  0  0  0  0  0  0
  185.4840  177.7260  137.6920 C   0  0  0  0  0  1  0  0  0  0  0  0
  184.1720  177.1710  137.1740 C   0  0  0  0  0  2  0  0  0  0  0  0
  189.0840  178.0930  146.6000 C   0  0  2  0  0  3  0  0  0  0  0  0
  187.6960  177.1490  148.3670 O   0  0  0  0  0  0  0  0  0  0  0  0
  190.3820  177.5970  146.1590 N   0  0  0  0  0  0  0  0  0  0  0  0
  189.7620  176.1530  147.8370 N   0  0  0  0  0  2  0  0  0  0  0  0
  188.7430  177.1200  147.6680 C   0  0  0  0  0  0  0  0  0  0  0  0
  190.7140  176.5590  146.8600 C   0  0  0  0  0  0  0  0  0  0  0  0
  191.9880  175.8270  146.6310 C   0  0  0  0  0  2  0  0  0  0  0  0
  192.2850  175.0400  147.7420 O   0  0  0  0  0  0  0  0  0  0  0  0
  193.0950  175.8490  148.5360 C   0  0  0  0  0  1  0  0  0  0  0  0
  1  2  2  0  0  0  0
  3  4  2  0  0  0  0
  4  7  1  0  0  0  0
  5  8  1  0  0  0  0
  6  5  1  0  0  0  0
  6  3  1  1  0  0  0
  7  1  1  0  0  0  0
  8  7  2  0  0  0  0
 10  9  1  0  0  0  0
 11 13  2  0  0  0  0
 12 14  1  0  0  0  0
 13 10  1  0  0  0  0
 13 12  1  0  0  0  0
 14  9  1  6  0  0  0
 14  6  1  0  0  0  0
 15 19  2  0  0  0  0
 15 17  1  0  0  0  0
 16 18  2  0  0  0  0
 17 20  2  0  0  0  0
 19 16  1  0  0  0  0
 20 18  1  0  0  0  0
 20  2  1  0  0  0  0
 21 19  1  0  0  0  0
 22 21  1  0  0  0  0
 24 28  1  0  0  0  0
 24 22  1  1  0  0  0
 25 23  1  6  0  0  0
 25 26  1  0  0  0  0
 26 28  1  0  0  0  0
 27 31  1  6  0  0  0
 27 24  1  0  0  0  0
 29 25  1  0  0  0  0
 29 27  1  0  0  0  0
 31 30  1  6  0  0  0
 33 32  1  0  0  0  0
 33 31  1  0  0  0  0
 34  1  1  6  0  0  0
 34 38  1  0  0  0  0
 36 34  1  0  0  0  0
 36 39  2  0  0  0  0
 38 37  1  0  0  0  0
 38 35  2  0  0  0  0
 39 37  1  0  0  0  0
 40 39  1  0  0  0  0
 40 41  1  0  0  0  0
 41 42  1  0  0  0  0
M  END
>  <MODEL>
8

>  <REMARK>
 VINA RESULT:      -7.4      4.624      9.251
  Name = 
  11 active torsions:
  status: ('A' for Active; 'I' for Inactive)
    1  A    between atoms: C_7  and  C_17
    2  A    between atoms: C_7  and  C_20
    3  A    between atoms: O_8  and  C_34
    4  A    between atoms: C_9  and  O_37
    5  A    between atoms: C_15  and  C_29
    6  A    between atoms: C_15  and  O_37
    7  A    between atoms: C_18  and  C_35
    8  A    between atoms: C_24  and  C_26
    9  A    between atoms: C_24  and  C_31
   10  A    between atoms: C_34  and  C_41
   11  A    between atoms: N_40  and  C_42
                            x       y       z     vdW  Elec       q    Type
                         _______ _______ _______ _____ _____    ______ ____

>  <TORSDO>
F 11

$$$$
=
 OpenBabel10232412033D

 42 46  0  0  1  0  0  0  0  0999 V2000
  191.7070  176.5910  138.3040 C   0  0  0  0  0  0  0  0  0  0  0  0
  190.9620  176.9070  137.2760 N   0  0  0  0  0  0  0  0  0  0  0  0
  189.4680  176.8490  141.3410 C   0  0  0  0  0  3  0  0  0  0  0  0
  189.8910  176.5810  140.1030 C   0  0  0  0  0  3  0  0  0  0  0  0
  191.7980  177.2900  142.0020 N   0  0  0  0  0  2  0  0  0  0  0  0
  190.3870  177.4820  142.3530 C   0  0  2  0  0  3  0  0  0  0  0  0
  191.2930  176.8180  139.7040 C   0  0  0  0  0  0  0  0  0  0  0  0
  192.2040  177.1020  140.6430 C   0  0  0  0  0  3  0  0  0  0  0  0
  189.3080  178.0470  144.5530 C   0  0  0  0  0  2  0  0  0  0  0  0
  189.5890  177.8380  145.9580 N   0  0  0  0  0  2  0  0  0  0  0  0
  191.1430  176.7490  147.3150 O   0  0  0  0  0  0  0  0  0  0  0  0
  191.6040  176.5490  144.6930 S   0  0  0  0  0  0  0  0  0  0  0  0
  190.7610  177.0770  146.1620 C   0  0  0  0  0  0  0  0  0  0  0  0
  190.0870  176.9910  143.7660 C   0  0  2  0  0  3  0  0  0  0  0  0
  187.8930  179.0740  137.3650 C   0  0  0  0  0  3  0  0  0  0  0  0
  187.2370  176.7440  137.3450 C   0  0  0  0  0  3  0  0  0  0  0  0
  189.2370  178.6940  137.3220 C   0  0  0  0  0  3  0  0  0  0  0  0
  188.5820  176.3650  137.2990 C   0  0  0  0  0  3  0  0  0  0  0  0
  186.8920  178.0990  137.3790 C   0  0  0  0  0  0  0  0  0  0  0  0
  189.5910  177.3360  137.2650 C   0  0  0  0  0  0  0  0  0  0  0  0
  185.4610  178.5050  137.3790 C   0  0  0  0  0  2  0  0  0  0  0  0
  184.7260  177.6400  138.2090 O   0  0  0  0  0  0  0  0  0  0  0  0
  184.1460  179.1590  143.6790 C   0  0  0  0  0  1  0  0  0  0  0  0
  184.4830  178.2810  139.4440 C   0  0  1  0  0  3  0  0  0  0  0  0
  184.3880  178.4370  142.3710 C   0  0  2  0  0  3  0  0  0  0  0  0
  185.4690  179.1650  141.5840 C   0  0  0  0  0  2  0  0  0  0  0  0
  183.2900  177.6810  140.2350 C   0  0  1  0  0  3  0  0  0  0  0  0
  185.7580  178.4190  140.2890 C   0  0  0  0  0  2  0  0  0  0  0  0
  183.0960  178.4140  141.5630 C   0  0  0  0  0  2  0  0  0  0  0  0
  181.1440  176.6540  139.7990 O   0  0  0  0  0  1  0  0  0  0  0  0
  181.9700  177.7290  139.4580 C   0  0  1  0  0  3  0  0  0  0  0  0
  181.4890  179.9810  138.5020 C   0  0  0  0  0  1  0  0  0  0  0  0
  181.2470  179.0480  139.6720 C   0  0  0  0  0  2  0  0  0  0  0  0
  193.0840  176.0430  138.0670 C   0  0  2  0  0  3  0  0  0  0  0  0
  192.5100  173.7010  137.7060 O   0  0  0  0  0  0  0  0  0  0  0  0
  193.8250  176.9040  137.1530 N   0  0  0  0  0  0  0  0  0  0  0  0
  193.7150  174.8830  136.0640 N   0  0  0  0  0  2  0  0  0  0  0  0
  193.0440  174.7690  137.3050 C   0  0  0  0  0  0  0  0  0  0  0  0
  194.1550  176.2360  136.0930 C   0  0  0  0  0  0  0  0  0  0  0  0
  194.9120  176.8550  134.9740 C   0  0  0  0  0  2  0  0  0  0  0  0
  196.0520  177.4880  135.4690 O   0  0  0  0  0  0  0  0  0  0  0  0
  196.1140  178.6910  134.7700 C   0  0  0  0  0  1  0  0  0  0  0  0
  1  7  1  0  0  0  0
  2  1  2  0  0  0  0
  4  3  2  0  0  0  0
  5  6  1  0  0  0  0
  6  3  1  6  0  0  0
  6 14  1  0  0  0  0
  7  4  1  0  0  0  0
  7  8  2  0  0  0  0
  8  5  1  0  0  0  0
  9 10  1  0  0  0  0
 10 13  1  0  0  0  0
 12 13  1  0  0  0  0
 13 11  2  0  0  0  0
 14  9  1  1  0  0  0
 14 12  1  0  0  0  0
 15 19  1  0  0  0  0
 16 19  2  0  0  0  0
 17 15  2  0  0  0  0
 18 16  1  0  0  0  0
 20  2  1  0  0  0  0
 20 18  2  0  0  0  0
 20 17  1  0  0  0  0
 21 19  1  0  0  0  0
 21 22  1  0  0  0  0
 24 22  1  6  0  0  0
 24 27  1  0  0  0  0
 24 28  1  0  0  0  0
 25 23  1  1  0  0  0
 26 25  1  0  0  0  0
 27 31  1  6  0  0  0
 27 29  1  0  0  0  0
 28 26  1  0  0  0  0
 29 25  1  0  0  0  0
 31 33  1  0  0  0  0
 31 30  1  1  0  0  0
 32 33  1  0  0  0  0
 34  1  1  6  0  0  0
 36 34  1  0  0  0  0
 37 39  1  0  0  0  0
 37 38  1  0  0  0  0
 38 35  2  0  0  0  0
 38 34  1  0  0  0  0
 39 36  2  0  0  0  0
 40 41  1  0  0  0  0
 40 39  1  0  0  0  0
 42 41  1  0  0  0  0
M  END
>  <MODEL>
9

>  <REMARK>
 VINA RESULT:      -7.3      3.724      6.316
  Name = 
  11 active torsions:
  status: ('A' for Active; 'I' for Inactive)
    1  A    between atoms: C_7  and  C_17
    2  A    between atoms: C_7  and  C_20
    3  A    between atoms: O_8  and  C_34
    4  A    between atoms: C_9  and  O_37
    5  A    between atoms: C_15  and  C_29
    6  A    between atoms: C_15  and  O_37
    7  A    between atoms: C_18  and  C_35
    8  A    between atoms: C_24  and  C_26
    9  A    between atoms: C_24  and  C_31
   10  A    between atoms: C_34  and  C_41
   11  A    between atoms: N_40  and  C_42
                            x       y       z     vdW  Elec       q    Type
                         _______ _______ _______ _____ _____    ______ ____

>  <TORSDO>
F 11

$$$$
