=
 OpenBabel10222422113D

 29 30  0  0  1  0  0  0  0  0999 V2000
  191.0580  177.1750  144.9920 N   0  0  0  0  0  0  0  0  0  0  0  0
  192.3100  175.5480  146.0620 O   0  0  0  0  0  0  0  0  0  0  0  0
  191.4530  176.4610  146.1740 C   0  0  0  0  0  0  0  0  0  0  0  0
  189.9030  177.6820  144.6510 C   0  0  0  0  0  0  0  0  0  0  0  0
  188.6890  176.8730  146.7480 C   0  0  0  0  0  2  0  0  0  0  0  0
  188.7020  177.5310  145.4520 N   0  0  0  0  0  0  0  0  0  0  0  0
  189.6880  177.5540  147.6530 C   0  0  0  0  0  2  0  0  0  0  0  0
  191.0260  176.8470  147.5640 C   0  0  0  0  0  2  0  0  0  0  0  0
  186.4330  178.1510  146.1550 C   0  0  0  0  0  2  0  0  0  0  0  0
  186.8270  177.2510  143.8710 C   0  0  0  0  0  0  0  0  0  0  0  0
  187.5370  176.3860  143.2920 O   0  0  0  0  0  0  0  0  0  0  0  0
  185.5140  179.2980  145.9320 C   0  0  0  0  0  3  0  0  0  0  0  0
  187.4100  178.0530  145.0010 C   0  0  2  0  0  3  0  0  0  0  0  0
  184.6850  179.4050  144.8960 C   0  0  0  0  0  3  0  0  0  0  0  0
  183.4810  178.5590  143.0820 O   0  0  0  0  0  0  0  0  0  0  0  0
  185.4950  177.4680  143.3910 N   0  0  0  0  0  2  0  0  0  0  0  0
  184.5280  178.4610  143.7710 C   0  0  0  0  0  0  0  0  0  0  0  0
  189.8080  178.3830  143.4420 O   0  0  0  0  0  0  0  0  0  0  0  0
  190.7070  178.1810  142.3580 C   0  0  0  0  0  2  0  0  0  0  0  0
  189.9850  177.5250  141.1870 C   0  0  1  0  0  3  0  0  0  0  0  0
  189.1140  178.5120  140.3950 C   0  0  2  0  0  3  0  0  0  0  0  0
  187.8280  178.5260  140.9440 O   0  0  0  0  0  1  0  0  0  0  0  0
  189.0480  178.2260  138.8870 C   0  0  2  0  0  3  0  0  0  0  0  0
  188.9820  179.4720  138.1400 N   0  0  0  0  0  1  0  0  0  0  0  0
  187.8280  177.3800  138.5510 C   0  0  0  0  0  2  0  0  0  0  0  0
  186.8700  178.1450  137.2090 S   0  0  0  0  0  0  0  0  0  0  0  0
  185.3860  178.3090  138.2420 C   0  0  0  0  0  1  0  0  0  0  0  0
  190.9020  176.6590  140.3180 C   0  0  0  0  0  2  0  0  0  0  0  0
  192.1600  177.2440  140.1710 O   0  0  0  0  0  1  0  0  0  0  0  0
  1  3  1  0  0  0  0
  2  3  2  0  0  0  0
  3  8  1  0  0  0  0
  4  1  2  0  0  0  0
  4  6  1  0  0  0  0
  5  7  1  0  0  0  0
  6  5  1  0  0  0  0
  8  7  1  0  0  0  0
 10 13  1  0  0  0  0
 11 10  2  0  0  0  0
 12  9  1  0  0  0  0
 13  6  1  1  0  0  0
 13  9  1  0  0  0  0
 14 12  2  0  0  0  0
 15 17  2  0  0  0  0
 16 17  1  0  0  0  0
 16 10  1  0  0  0  0
 17 14  1  0  0  0  0
 18  4  1  0  0  0  0
 19 18  1  0  0  0  0
 20 28  1  6  0  0  0
 20 19  1  0  0  0  0
 21 22  1  1  0  0  0
 21 20  1  0  0  0  0
 23 24  1  6  0  0  0
 23 21  1  0  0  0  0
 25 23  1  0  0  0  0
 26 27  1  0  0  0  0
 26 25  1  0  0  0  0
 29 28  1  0  0  0  0
M  END
>  <MODEL>
1

>  <REMARK>
 VINA RESULT:      -7.2      0.000      0.000
  Name = 
  9 active torsions:
  status: ('A' for Active; 'I' for Inactive)
    1  A    between atoms: C_2  and  C_4
    2  A    between atoms: C_2  and  C_18
    3  A    between atoms: C_4  and  C_17
    4  A    between atoms: C_5  and  C_18
    5  A    between atoms: S_9  and  C_17
    6  A    between atoms: C_10  and  O_12
    7  A    between atoms: O_12  and  C_16
    8  A    between atoms: C_16  and  C_18
    9  A    between atoms: C_19  and  N_22
                            x       y       z     vdW  Elec       q    Type
                         _______ _______ _______ _____ _____    ______ ____

>  <TORSDO>
F 9

$$$$
=
 OpenBabel10222422113D

 29 30  0  0  1  0  0  0  0  0999 V2000
  190.3810  177.5700  145.9720 N   0  0  0  0  0  0  0  0  0  0  0  0
  191.2750  176.1400  147.5580 O   0  0  0  0  0  0  0  0  0  0  0  0
  190.4320  177.0380  147.3050 C   0  0  0  0  0  0  0  0  0  0  0  0
  189.3680  177.9950  145.2640 C   0  0  0  0  0  0  0  0  0  0  0  0
  187.6210  177.4550  147.0490 C   0  0  0  0  0  2  0  0  0  0  0  0
  187.9940  177.9260  145.7250 N   0  0  0  0  0  0  0  0  0  0  0  0
  188.3470  178.2800  148.0840 C   0  0  0  0  0  2  0  0  0  0  0  0
  189.6500  177.6020  148.4600 C   0  0  0  0  0  2  0  0  0  0  0  0
  185.6470  178.6500  145.7030 C   0  0  0  0  0  2  0  0  0  0  0  0
  186.5670  177.3470  143.7950 C   0  0  0  0  0  0  0  0  0  0  0  0
  187.3650  176.3960  143.5810 O   0  0  0  0  0  0  0  0  0  0  0  0
  184.8610  179.7290  145.0520 C   0  0  0  0  0  3  0  0  0  0  0  0
  186.8780  178.3470  144.8740 C   0  0  2  0  0  3  0  0  0  0  0  0
  184.3240  179.6380  143.8370 C   0  0  0  0  0  3  0  0  0  0  0  0
  183.5830  178.4650  141.9580 O   0  0  0  0  0  0  0  0  0  0  0  0
  185.4080  177.4630  142.9610 N   0  0  0  0  0  2  0  0  0  0  0  0
  184.4180  178.5020  142.8980 C   0  0  0  0  0  0  0  0  0  0  0  0
  189.6130  178.5190  143.9890 O   0  0  0  0  0  0  0  0  0  0  0  0
  190.7080  178.1070  143.1810 C   0  0  0  0  0  2  0  0  0  0  0  0
  190.3170  176.9020  142.3330 C   0  0  1  0  0  3  0  0  0  0  0  0
  190.8100  177.0100  140.8820 C   0  0  2  0  0  3  0  0  0  0  0  0
  192.0500  177.6550  140.8690 O   0  0  0  0  0  1  0  0  0  0  0  0
  189.8300  177.7170  139.9330 C   0  0  2  0  0  3  0  0  0  0  0  0
  188.5020  177.7680  140.5250 N   0  0  0  0  0  1  0  0  0  0  0  0
  189.7510  176.9880  138.5990 C   0  0  0  0  0  2  0  0  0  0  0  0
  188.1040  177.1920  137.8560 S   0  0  0  0  0  0  0  0  0  0  0  0
  188.6380  178.6000  136.8420 C   0  0  0  0  0  1  0  0  0  0  0  0
  190.6280  175.5610  143.0040 C   0  0  0  0  0  2  0  0  0  0  0  0
  191.8260  175.6180  143.7190 O   0  0  0  0  0  1  0  0  0  0  0  0
  1  3  1  0  0  0  0
  3  2  2  0  0  0  0
  3  8  1  0  0  0  0
  4  6  1  0  0  0  0
  4  1  2  0  0  0  0
  5  7  1  0  0  0  0
  6  5  1  0  0  0  0
  7  8  1  0  0  0  0
 10 13  1  0  0  0  0
 11 10  2  0  0  0  0
 12  9  1  0  0  0  0
 13  9  1  1  0  0  0
 13  6  1  0  0  0  0
 14 12  2  0  0  0  0
 15 17  2  0  0  0  0
 16 10  1  0  0  0  0
 17 16  1  0  0  0  0
 17 14  1  0  0  0  0
 18  4  1  0  0  0  0
 19 18  1  0  0  0  0
 20 28  1  1  0  0  0
 20 19  1  0  0  0  0
 21 22  1  1  0  0  0
 21 20  1  0  0  0  0
 23 24  1  1  0  0  0
 23 21  1  0  0  0  0
 25 23  1  0  0  0  0
 26 25  1  0  0  0  0
 27 26  1  0  0  0  0
 28 29  1  0  0  0  0
M  END
>  <MODEL>
2

>  <REMARK>
 VINA RESULT:      -7.2      1.474      1.894
  Name = 
  9 active torsions:
  status: ('A' for Active; 'I' for Inactive)
    1  A    between atoms: C_2  and  C_4
    2  A    between atoms: C_2  and  C_18
    3  A    between atoms: C_4  and  C_17
    4  A    between atoms: C_5  and  C_18
    5  A    between atoms: S_9  and  C_17
    6  A    between atoms: C_10  and  O_12
    7  A    between atoms: O_12  and  C_16
    8  A    between atoms: C_16  and  C_18
    9  A    between atoms: C_19  and  N_22
                            x       y       z     vdW  Elec       q    Type
                         _______ _______ _______ _____ _____    ______ ____

>  <TORSDO>
F 9

$$$$
=
 OpenBabel10222422113D

 29 30  0  0  1  0  0  0  0  0999 V2000
  187.4000  178.1070  139.4790 N   0  0  0  0  0  0  0  0  0  0  0  0
  187.0960  176.9060  137.5240 O   0  0  0  0  0  0  0  0  0  0  0  0
  187.9100  177.4730  138.2960 C   0  0  0  0  0  0  0  0  0  0  0  0
  187.9220  178.2310  140.6710 C   0  0  0  0  0  0  0  0  0  0  0  0
  190.0340  176.9040  140.1150 C   0  0  0  0  0  2  0  0  0  0  0  0
  189.1880  177.6300  141.0480 N   0  0  0  0  0  0  0  0  0  0  0  0
  190.3540  177.8030  138.9440 C   0  0  0  0  0  2  0  0  0  0  0  0
  189.3390  177.5860  137.8380 C   0  0  0  0  0  2  0  0  0  0  0  0
  191.2220  177.7330  142.4210 C   0  0  0  0  0  2  0  0  0  0  0  0
  189.1680  176.6550  143.3160 C   0  0  0  0  0  0  0  0  0  0  0  0
  188.2150  175.9310  142.9200 O   0  0  0  0  0  0  0  0  0  0  0  0
  191.7130  178.5590  143.5540 C   0  0  0  0  0  3  0  0  0  0  0  0
  189.7070  177.7300  142.4150 C   0  0  2  0  0  3  0  0  0  0  0  0
  191.4610  178.3010  144.8350 C   0  0  0  0  0  3  0  0  0  0  0  0
  190.7950  176.9270  146.6030 O   0  0  0  0  0  0  0  0  0  0  0  0
  189.6700  176.4500  144.6420 N   0  0  0  0  0  2  0  0  0  0  0  0
  190.6440  177.2010  145.3850 C   0  0  0  0  0  0  0  0  0  0  0  0
  187.2180  178.9550  141.6410 O   0  0  0  0  0  0  0  0  0  0  0  0
  185.8870  179.4150  141.4460 C   0  0  0  0  0  2  0  0  0  0  0  0
  184.9050  178.5440  142.2220 C   0  0  1  0  0  3  0  0  0  0  0  0
  184.4160  179.2060  143.5180 C   0  0  2  0  0  3  0  0  0  0  0  0
  185.0780  180.4260  143.6840 O   0  0  0  0  0  1  0  0  0  0  0  0
  184.5800  178.3350  144.7730 C   0  0  2  0  0  3  0  0  0  0  0  0
  183.7210  178.8200  145.8410 N   0  0  0  0  0  1  0  0  0  0  0  0
  186.0250  178.3490  145.2540 C   0  0  0  0  0  2  0  0  0  0  0  0
  186.1090  178.8150  147.0100 S   0  0  0  0  0  0  0  0  0  0  0  0
  187.4520  177.6410  147.3480 C   0  0  0  0  0  1  0  0  0  0  0  0
  183.7860  177.9670  141.3500 C   0  0  0  0  0  2  0  0  0  0  0  0
  182.5580  178.5610  141.6450 O   0  0  0  0  0  1  0  0  0  0  0  0
  1  4  2  0  0  0  0
  2  3  2  0  0  0  0
  3  1  1  0  0  0  0
  4  6  1  0  0  0  0
  4 18  1  0  0  0  0
  5  6  1  0  0  0  0
  7  5  1  0  0  0  0
  8  3  1  0  0  0  0
  8  7  1  0  0  0  0
  9 12  1  0  0  0  0
 10 16  1  0  0  0  0
 11 10  2  0  0  0  0
 12 14  2  0  0  0  0
 13  6  1  6  0  0  0
 13  9  1  0  0  0  0
 13 10  1  0  0  0  0
 14 17  1  0  0  0  0
 16 17  1  0  0  0  0
 17 15  2  0  0  0  0
 19 18  1  0  0  0  0
 19 20  1  0  0  0  0
 20 28  1  6  0  0  0
 20 21  1  0  0  0  0
 21 22  1  1  0  0  0
 21 23  1  0  0  0  0
 23 25  1  0  0  0  0
 23 24  1  1  0  0  0
 25 26  1  0  0  0  0
 26 27  1  0  0  0  0
 28 29  1  0  0  0  0
M  END
>  <MODEL>
3

>  <REMARK>
 VINA RESULT:      -7.1      2.637      6.949
  Name = 
  9 active torsions:
  status: ('A' for Active; 'I' for Inactive)
    1  A    between atoms: C_2  and  C_4
    2  A    between atoms: C_2  and  C_18
    3  A    between atoms: C_4  and  C_17
    4  A    between atoms: C_5  and  C_18
    5  A    between atoms: S_9  and  C_17
    6  A    between atoms: C_10  and  O_12
    7  A    between atoms: O_12  and  C_16
    8  A    between atoms: C_16  and  C_18
    9  A    between atoms: C_19  and  N_22
                            x       y       z     vdW  Elec       q    Type
                         _______ _______ _______ _____ _____    ______ ____

>  <TORSDO>
F 9

$$$$
=
 OpenBabel10222422113D

 29 30  0  0  1  0  0  0  0  0999 V2000
  191.1180  177.2700  145.2570 N   0  0  0  0  0  0  0  0  0  0  0  0
  192.3560  175.6510  146.3540 O   0  0  0  0  0  0  0  0  0  0  0  0
  191.4710  176.5400  146.4420 C   0  0  0  0  0  0  0  0  0  0  0  0
  189.9680  177.7560  144.8690 C   0  0  0  0  0  0  0  0  0  0  0  0
  188.6730  176.8720  146.8850 C   0  0  0  0  0  2  0  0  0  0  0  0
  188.7340  177.5580  145.6050 N   0  0  0  0  0  0  0  0  0  0  0  0
  189.6070  177.5560  147.8530 C   0  0  0  0  0  2  0  0  0  0  0  0
  190.9660  176.8840  147.8170 C   0  0  0  0  0  2  0  0  0  0  0  0
  186.4420  178.1900  146.2230 C   0  0  0  0  0  2  0  0  0  0  0  0
  186.9050  177.2180  143.9820 C   0  0  0  0  0  0  0  0  0  0  0  0
  187.6360  176.3380  143.4510 O   0  0  0  0  0  0  0  0  0  0  0  0
  185.5260  179.3240  145.9370 C   0  0  0  0  0  3  0  0  0  0  0  0
  187.4520  178.0590  145.1010 C   0  0  2  0  0  3  0  0  0  0  0  0
  184.7260  179.3930  144.8750 C   0  0  0  0  0  3  0  0  0  0  0  0
  183.5790  178.4830  143.0550 O   0  0  0  0  0  0  0  0  0  0  0  0
  185.5870  177.4120  143.4570 N   0  0  0  0  0  2  0  0  0  0  0  0
  184.6060  178.4120  143.7770 C   0  0  0  0  0  0  0  0  0  0  0  0
  189.9170  178.4820  143.6720 O   0  0  0  0  0  0  0  0  0  0  0  0
  190.8110  178.2550  142.5900 C   0  0  0  0  0  2  0  0  0  0  0  0
  190.0370  178.0940  141.2870 C   0  0  1  0  0  3  0  0  0  0  0  0
  190.0950  176.6640  140.7310 C   0  0  2  0  0  3  0  0  0  0  0  0
  190.5010  175.7960  141.7500 O   0  0  0  0  0  1  0  0  0  0  0  0
  191.0000  176.5020  139.5000 C   0  0  2  0  0  3  0  0  0  0  0  0
  192.2580  177.2030  139.7010 N   0  0  0  0  0  1  0  0  0  0  0  0
  190.3180  177.0530  138.2540 C   0  0  0  0  0  2  0  0  0  0  0  0
  189.3480  175.7540  137.4300 S   0  0  0  0  0  0  0  0  0  0  0  0
  190.7680  174.6270  137.3390 C   0  0  0  0  0  1  0  0  0  0  0  0
  188.6260  178.6890  141.3430 C   0  0  0  0  0  2  0  0  0  0  0  0
  188.0550  178.7570  140.0710 O   0  0  0  0  0  1  0  0  0  0  0  0
  1  3  1  0  0  0  0
  2  3  2  0  0  0  0
  3  8  1  0  0  0  0
  4  1  2  0  0  0  0
  4  6  1  0  0  0  0
  5  7  1  0  0  0  0
  6  5  1  0  0  0  0
  8  7  1  0  0  0  0
 10 13  1  0  0  0  0
 11 10  2  0  0  0  0
 12  9  1  0  0  0  0
 13  6  1  1  0  0  0
 13  9  1  0  0  0  0
 14 12  2  0  0  0  0
 15 17  2  0  0  0  0
 16 17  1  0  0  0  0
 16 10  1  0  0  0  0
 17 14  1  0  0  0  0
 18  4  1  0  0  0  0
 19 18  1  0  0  0  0
 20 28  1  1  0  0  0
 20 19  1  0  0  0  0
 21 20  1  0  0  0  0
 21 22  1  1  0  0  0
 23 24  1  1  0  0  0
 23 21  1  0  0  0  0
 25 23  1  0  0  0  0
 26 25  1  0  0  0  0
 27 26  1  0  0  0  0
 29 28  1  0  0  0  0
M  END
>  <MODEL>
4

>  <REMARK>
 VINA RESULT:      -7.0      1.569      2.177
  Name = 
  9 active torsions:
  status: ('A' for Active; 'I' for Inactive)
    1  A    between atoms: C_2  and  C_4
    2  A    between atoms: C_2  and  C_18
    3  A    between atoms: C_4  and  C_17
    4  A    between atoms: C_5  and  C_18
    5  A    between atoms: S_9  and  C_17
    6  A    between atoms: C_10  and  O_12
    7  A    between atoms: O_12  and  C_16
    8  A    between atoms: C_16  and  C_18
    9  A    between atoms: C_19  and  N_22
                            x       y       z     vdW  Elec       q    Type
                         _______ _______ _______ _____ _____    ______ ____

>  <TORSDO>
F 9

$$$$
=
 OpenBabel10222422113D

 29 30  0  0  1  0  0  0  0  0999 V2000
  185.9760  179.0560  140.3060 N   0  0  0  0  0  0  0  0  0  0  0  0
  184.2670  180.0370  139.0920 O   0  0  0  0  0  0  0  0  0  0  0  0
  184.5860  179.2000  139.9730 C   0  0  0  0  0  0  0  0  0  0  0  0
  186.5540  178.7880  141.4470 C   0  0  0  0  0  0  0  0  0  0  0  0
  184.3740  178.7120  142.7760 C   0  0  0  0  0  2  0  0  0  0  0  0
  185.8240  178.6490  142.6930 N   0  0  0  0  0  0  0  0  0  0  0  0
  183.7840  177.6740  141.8510 C   0  0  0  0  0  2  0  0  0  0  0  0
  183.5050  178.2940  140.4960 C   0  0  0  0  0  2  0  0  0  0  0  0
  186.9630  176.9760  144.0840 C   0  0  0  0  0  2  0  0  0  0  0  0
  185.6860  178.8240  145.1510 C   0  0  0  0  0  0  0  0  0  0  0  0
  184.6280  179.4840  144.9740 O   0  0  0  0  0  0  0  0  0  0  0  0
  188.2200  176.9100  144.8720 C   0  0  0  0  0  3  0  0  0  0  0  0
  186.5150  178.4190  143.9640 C   0  0  2  0  0  3  0  0  0  0  0  0
  188.3360  177.3110  146.1360 C   0  0  0  0  0  3  0  0  0  0  0  0
  187.4860  177.9150  148.2270 O   0  0  0  0  0  0  0  0  0  0  0  0
  186.0850  178.5260  146.4950 N   0  0  0  0  0  2  0  0  0  0  0  0
  187.2880  177.9140  146.9850 C   0  0  0  0  0  0  0  0  0  0  0  0
  187.9480  178.6540  141.4770 O   0  0  0  0  0  0  0  0  0  0  0  0
  188.6240  177.4950  141.0060 C   0  0  0  0  0  2  0  0  0  0  0  0
  189.6390  177.8740  139.9330 C   0  0  1  0  0  3  0  0  0  0  0  0
  190.8720  176.9590  139.9310 C   0  0  2  0  0  3  0  0  0  0  0  0
  191.9370  177.6280  140.5420 O   0  0  0  0  0  1  0  0  0  0  0  0
  191.2850  176.4590  138.5380 C   0  0  2  0  0  3  0  0  0  0  0  0
  190.8710  175.0770  138.3540 N   0  0  0  0  0  1  0  0  0  0  0  0
  192.7940  176.5530  138.3570 C   0  0  0  0  0  2  0  0  0  0  0  0
  193.3150  175.6570  136.8630 S   0  0  0  0  0  0  0  0  0  0  0  0
  194.5070  174.6400  137.7810 C   0  0  0  0  0  1  0  0  0  0  0  0
  189.0120  178.0860  138.5520 C   0  0  0  0  0  2  0  0  0  0  0  0
  188.9820  179.4400  138.2120 O   0  0  0  0  0  1  0  0  0  0  0  0
  1  4  2  0  0  0  0
  2  3  2  0  0  0  0
  3  1  1  0  0  0  0
  3  8  1  0  0  0  0
  4 18  1  0  0  0  0
  4  6  1  0  0  0  0
  6  5  1  0  0  0  0
  7  5  1  0  0  0  0
  8  7  1  0  0  0  0
  9 12  1  0  0  0  0
 10 16  1  0  0  0  0
 11 10  2  0  0  0  0
 12 14  2  0  0  0  0
 13  6  1  6  0  0  0
 13  9  1  0  0  0  0
 13 10  1  0  0  0  0
 14 17  1  0  0  0  0
 16 17  1  0  0  0  0
 17 15  2  0  0  0  0
 19 18  1  0  0  0  0
 20 28  1  6  0  0  0
 20 19  1  0  0  0  0
 21 20  1  0  0  0  0
 21 22  1  6  0  0  0
 23 24  1  1  0  0  0
 23 21  1  0  0  0  0
 25 23  1  0  0  0  0
 26 27  1  0  0  0  0
 26 25  1  0  0  0  0
 29 28  1  0  0  0  0
M  END
>  <MODEL>
5

>  <REMARK>
 VINA RESULT:      -6.9      2.790      5.696
  Name = 
  9 active torsions:
  status: ('A' for Active; 'I' for Inactive)
    1  A    between atoms: C_2  and  C_4
    2  A    between atoms: C_2  and  C_18
    3  A    between atoms: C_4  and  C_17
    4  A    between atoms: C_5  and  C_18
    5  A    between atoms: S_9  and  C_17
    6  A    between atoms: C_10  and  O_12
    7  A    between atoms: O_12  and  C_16
    8  A    between atoms: C_16  and  C_18
    9  A    between atoms: C_19  and  N_22
                            x       y       z     vdW  Elec       q    Type
                         _______ _______ _______ _____ _____    ______ ____

>  <TORSDO>
F 9

$$$$
=
 OpenBabel10222422113D

 29 30  0  0  1  0  0  0  0  0999 V2000
  187.7500  177.8910  139.3460 N   0  0  0  0  0  0  0  0  0  0  0  0
  187.5800  176.5520  137.4650 O   0  0  0  0  0  0  0  0  0  0  0  0
  188.3410  177.1470  138.2690 C   0  0  0  0  0  0  0  0  0  0  0  0
  188.1610  178.0870  140.5710 C   0  0  0  0  0  0  0  0  0  0  0  0
  190.2540  176.6430  140.3240 C   0  0  0  0  0  2  0  0  0  0  0  0
  189.3570  177.4700  141.1140 N   0  0  0  0  0  0  0  0  0  0  0  0
  190.7240  177.4350  139.1280 C   0  0  0  0  0  2  0  0  0  0  0  0
  189.8100  177.1700  137.9460 C   0  0  0  0  0  2  0  0  0  0  0  0
  191.2540  177.7430  142.6500 C   0  0  0  0  0  2  0  0  0  0  0  0
  189.1860  176.5930  143.4160 C   0  0  0  0  0  0  0  0  0  0  0  0
  188.3100  175.8030  142.9740 O   0  0  0  0  0  0  0  0  0  0  0  0
  191.6010  178.6430  143.7800 C   0  0  0  0  0  3  0  0  0  0  0  0
  189.7470  177.6570  142.5140 C   0  0  2  0  0  3  0  0  0  0  0  0
  191.2500  178.4270  145.0460 C   0  0  0  0  0  3  0  0  0  0  0  0
  190.5010  177.0950  146.8130 O   0  0  0  0  0  0  0  0  0  0  0  0
  189.5800  176.4730  144.7880 N   0  0  0  0  0  2  0  0  0  0  0  0
  190.4440  177.3080  145.5750 C   0  0  0  0  0  0  0  0  0  0  0  0
  187.4010  178.9100  141.4100 O   0  0  0  0  0  0  0  0  0  0  0  0
  186.3210  178.4250  142.1990 C   0  0  0  0  0  2  0  0  0  0  0  0
  185.0340  179.1610  141.8460 C   0  0  1  0  0  3  0  0  0  0  0  0
  184.5140  178.8140  140.4430 C   0  0  2  0  0  3  0  0  0  0  0  0
  184.7100  179.9120  139.6000 O   0  0  0  0  0  1  0  0  0  0  0  0
  183.0440  178.3690  140.4070 C   0  0  2  0  0  3  0  0  0  0  0  0
  182.9490  176.9690  140.0250 N   0  0  0  0  0  1  0  0  0  0  0  0
  182.2510  179.2080  139.4150 C   0  0  0  0  0  2  0  0  0  0  0  0
  180.4650  179.0120  139.6970 S   0  0  0  0  0  0  0  0  0  0  0  0
  180.6020  179.4680  141.4490 C   0  0  0  0  0  1  0  0  0  0  0  0
  183.9710  179.0860  142.9460 C   0  0  0  0  0  2  0  0  0  0  0  0
  184.3330  179.8580  144.0520 O   0  0  0  0  0  1  0  0  0  0  0  0
  1  4  2  0  0  0  0
  2  3  2  0  0  0  0
  3  1  1  0  0  0  0
  4  6  1  0  0  0  0
  4 18  1  0  0  0  0
  5  6  1  0  0  0  0
  7  5  1  0  0  0  0
  8  3  1  0  0  0  0
  8  7  1  0  0  0  0
  9 12  1  0  0  0  0
 10 16  1  0  0  0  0
 11 10  2  0  0  0  0
 12 14  2  0  0  0  0
 13  6  1  6  0  0  0
 13  9  1  0  0  0  0
 13 10  1  0  0  0  0
 14 17  1  0  0  0  0
 16 17  1  0  0  0  0
 17 15  2  0  0  0  0
 18 19  1  0  0  0  0
 20 19  1  1  0  0  0
 20 28  1  0  0  0  0
 21 22  1  6  0  0  0
 21 20  1  0  0  0  0
 23 24  1  6  0  0  0
 23 21  1  0  0  0  0
 25 26  1  0  0  0  0
 25 23  1  0  0  0  0
 26 27  1  0  0  0  0
 28 29  1  0  0  0  0
M  END
>  <MODEL>
6

>  <REMARK>
 VINA RESULT:      -6.8      2.666      6.345
  Name = 
  9 active torsions:
  status: ('A' for Active; 'I' for Inactive)
    1  A    between atoms: C_2  and  C_4
    2  A    between atoms: C_2  and  C_18
    3  A    between atoms: C_4  and  C_17
    4  A    between atoms: C_5  and  C_18
    5  A    between atoms: S_9  and  C_17
    6  A    between atoms: C_10  and  O_12
    7  A    between atoms: O_12  and  C_16
    8  A    between atoms: C_16  and  C_18
    9  A    between atoms: C_19  and  N_22
                            x       y       z     vdW  Elec       q    Type
                         _______ _______ _______ _____ _____    ______ ____

>  <TORSDO>
F 9

$$$$
=
 OpenBabel10222422113D

 29 30  0  0  1  0  0  0  0  0999 V2000
  191.6710  176.9200  140.0360 N   0  0  0  0  0  0  0  0  0  0  0  0
  193.8080  177.6350  139.5040 O   0  0  0  0  0  0  0  0  0  0  0  0
  192.8230  176.9250  139.1780 C   0  0  0  0  0  0  0  0  0  0  0  0
  190.3990  176.8220  139.7510 C   0  0  0  0  0  0  0  0  0  0  0  0
  190.7530  176.7380  137.2230 C   0  0  0  0  0  2  0  0  0  0  0  0
  189.8920  176.7700  138.3930 N   0  0  0  0  0  0  0  0  0  0  0  0
  191.6960  175.5640  137.3400 C   0  0  0  0  0  2  0  0  0  0  0  0
  192.9890  176.0070  137.9970 C   0  0  0  0  0  2  0  0  0  0  0  0
  188.1730  176.0030  136.8150 C   0  0  0  0  0  2  0  0  0  0  0  0
  187.8330  178.1010  138.1050 C   0  0  0  0  0  0  0  0  0  0  0  0
  188.4970  179.0880  138.5220 O   0  0  0  0  0  0  0  0  0  0  0  0
  186.8610  175.3110  136.9070 C   0  0  0  0  0  3  0  0  0  0  0  0
  188.4540  176.7320  138.1130 C   0  0  2  0  0  3  0  0  0  0  0  0
  185.6980  175.9300  137.1000 C   0  0  0  0  0  3  0  0  0  0  0  0
  184.3010  177.8030  137.1210 O   0  0  0  0  0  0  0  0  0  0  0  0
  186.4820  178.3220  137.6800 N   0  0  0  0  0  2  0  0  0  0  0  0
  185.4730  177.3780  137.2890 C   0  0  0  0  0  0  0  0  0  0  0  0
  189.4770  176.7930  140.8040 O   0  0  0  0  0  0  0  0  0  0  0  0
  189.5040  177.7180  141.8830 C   0  0  0  0  0  2  0  0  0  0  0  0
  189.4960  176.9790  143.2170 C   0  0  1  0  0  3  0  0  0  0  0  0
  188.0790  176.7490  143.7610 C   0  0  2  0  0  3  0  0  0  0  0  0
  187.1610  177.4000  142.9310 O   0  0  0  0  0  1  0  0  0  0  0  0
  187.8840  177.1900  145.2200 C   0  0  2  0  0  3  0  0  0  0  0  0
  186.7570  178.1020  145.3270 N   0  0  0  0  0  1  0  0  0  0  0  0
  189.1340  177.8820  145.7460 C   0  0  0  0  0  2  0  0  0  0  0  0
  189.4920  177.3500  147.4470 S   0  0  0  0  0  0  0  0  0  0  0  0
  191.1020  176.6510  146.9850 C   0  0  0  0  0  1  0  0  0  0  0  0
  190.3810  175.7290  143.2230 C   0  0  0  0  0  2  0  0  0  0  0  0
  191.7010  176.0460  143.5490 O   0  0  0  0  0  1  0  0  0  0  0  0
  3  2  2  0  0  0  0
  3  1  1  0  0  0  0
  4  1  2  0  0  0  0
  4 18  1  0  0  0  0
  5  7  1  0  0  0  0
  5  6  1  0  0  0  0
  6  4  1  0  0  0  0
  7  8  1  0  0  0  0
  8  3  1  0  0  0  0
  9 12  1  0  0  0  0
 10 13  1  0  0  0  0
 10 11  2  0  0  0  0
 12 14  2  0  0  0  0
 13  9  1  6  0  0  0
 13  6  1  0  0  0  0
 14 17  1  0  0  0  0
 15 17  2  0  0  0  0
 16 10  1  0  0  0  0
 17 16  1  0  0  0  0
 18 19  1  0  0  0  0
 20 19  1  6  0  0  0
 20 28  1  0  0  0  0
 20 21  1  0  0  0  0
 21 22  1  6  0  0  0
 21 23  1  0  0  0  0
 23 24  1  6  0  0  0
 23 25  1  0  0  0  0
 25 26  1  0  0  0  0
 27 26  1  0  0  0  0
 28 29  1  0  0  0  0
M  END
>  <MODEL>
7

>  <REMARK>
 VINA RESULT:      -6.7      3.073      7.061
  Name = 
  9 active torsions:
  status: ('A' for Active; 'I' for Inactive)
    1  A    between atoms: C_2  and  C_4
    2  A    between atoms: C_2  and  C_18
    3  A    between atoms: C_4  and  C_17
    4  A    between atoms: C_5  and  C_18
    5  A    between atoms: S_9  and  C_17
    6  A    between atoms: C_10  and  O_12
    7  A    between atoms: O_12  and  C_16
    8  A    between atoms: C_16  and  C_18
    9  A    between atoms: C_19  and  N_22
                            x       y       z     vdW  Elec       q    Type
                         _______ _______ _______ _____ _____    ______ ____

>  <TORSDO>
F 9

$$$$
=
 OpenBabel10222422113D

 29 30  0  0  1  0  0  0  0  0999 V2000
  191.1140  176.6230  144.4170 N   0  0  0  0  0  0  0  0  0  0  0  0
  192.3980  174.7270  144.7480 O   0  0  0  0  0  0  0  0  0  0  0  0
  191.8040  175.7010  145.2750 C   0  0  0  0  0  0  0  0  0  0  0  0
  190.0120  177.3000  144.6070 C   0  0  0  0  0  0  0  0  0  0  0  0
  189.5610  176.3250  146.9240 C   0  0  0  0  0  2  0  0  0  0  0  0
  189.1920  177.1640  145.7960 N   0  0  0  0  0  0  0  0  0  0  0  0
  190.9210  176.7480  147.4250 C   0  0  0  0  0  2  0  0  0  0  0  0
  191.9970  175.9190  146.7500 C   0  0  0  0  0  2  0  0  0  0  0  0
  187.5090  177.9630  147.3960 C   0  0  0  0  0  2  0  0  0  0  0  0
  186.8290  177.3030  145.0970 C   0  0  0  0  0  0  0  0  0  0  0  0
  187.1090  176.4350  144.2270 O   0  0  0  0  0  0  0  0  0  0  0  0
  186.7700  179.2290  147.6360 C   0  0  0  0  0  3  0  0  0  0  0  0
  187.9270  177.8880  145.9410 C   0  0  2  0  0  3  0  0  0  0  0  0
  185.6290  179.5590  147.0340 C   0  0  0  0  0  3  0  0  0  0  0  0
  183.6940  179.0870  145.8140 O   0  0  0  0  0  0  0  0  0  0  0  0
  185.4680  177.7340  145.2120 N   0  0  0  0  0  2  0  0  0  0  0  0
  184.8970  178.7820  146.0120 C   0  0  0  0  0  0  0  0  0  0  0  0
  189.5850  178.1810  143.6050 O   0  0  0  0  0  0  0  0  0  0  0  0
  190.1970  178.2510  142.3240 C   0  0  0  0  0  2  0  0  0  0  0  0
  189.1410  178.1710  141.2270 C   0  0  1  0  0  3  0  0  0  0  0  0
  189.3610  176.9870  140.2740 C   0  0  2  0  0  3  0  0  0  0  0  0
  190.5100  176.2940  140.6660 O   0  0  0  0  0  1  0  0  0  0  0  0
  189.4540  177.3790  138.7910 C   0  0  2  0  0  3  0  0  0  0  0  0
  189.1780  178.7970  138.6250 N   0  0  0  0  0  1  0  0  0  0  0  0
  188.4620  176.5790  137.9580 C   0  0  0  0  0  2  0  0  0  0  0  0
  187.1790  177.6700  137.2720 S   0  0  0  0  0  0  0  0  0  0  0  0
  187.2590  176.8840  135.6380 C   0  0  0  0  0  1  0  0  0  0  0  0
  187.7080  178.2950  141.7540 C   0  0  0  0  0  2  0  0  0  0  0  0
  186.8570  178.8280  140.7850 O   0  0  0  0  0  1  0  0  0  0  0  0
  1  4  2  0  0  0  0
  1  3  1  0  0  0  0
  2  3  2  0  0  0  0
  3  8  1  0  0  0  0
  4  6  1  0  0  0  0
  5  7  1  0  0  0  0
  6  5  1  0  0  0  0
  8  7  1  0  0  0  0
  9 12  1  0  0  0  0
 10 16  1  0  0  0  0
 10 13  1  0  0  0  0
 11 10  2  0  0  0  0
 13  6  1  1  0  0  0
 13  9  1  0  0  0  0
 14 12  2  0  0  0  0
 15 17  2  0  0  0  0
 16 17  1  0  0  0  0
 17 14  1  0  0  0  0
 18  4  1  0  0  0  0
 19 18  1  0  0  0  0
 20 28  1  1  0  0  0
 20 19  1  0  0  0  0
 21 22  1  1  0  0  0
 21 20  1  0  0  0  0
 23 24  1  1  0  0  0
 23 21  1  0  0  0  0
 25 23  1  0  0  0  0
 26 25  1  0  0  0  0
 27 26  1  0  0  0  0
 29 28  1  0  0  0  0
M  END
>  <MODEL>
8

>  <REMARK>
 VINA RESULT:      -6.7      1.408      2.048
  Name = 
  9 active torsions:
  status: ('A' for Active; 'I' for Inactive)
    1  A    between atoms: C_2  and  C_4
    2  A    between atoms: C_2  and  C_18
    3  A    between atoms: C_4  and  C_17
    4  A    between atoms: C_5  and  C_18
    5  A    between atoms: S_9  and  C_17
    6  A    between atoms: C_10  and  O_12
    7  A    between atoms: O_12  and  C_16
    8  A    between atoms: C_16  and  C_18
    9  A    between atoms: C_19  and  N_22
                            x       y       z     vdW  Elec       q    Type
                         _______ _______ _______ _____ _____    ______ ____

>  <TORSDO>
F 9

$$$$
=
 OpenBabel10222422113D

 29 30  0  0  1  0  0  0  0  0999 V2000
  188.5550  177.2880  146.4070 N   0  0  0  0  0  0  0  0  0  0  0  0
  189.3330  178.0430  148.4520 O   0  0  0  0  0  0  0  0  0  0  0  0
  189.6050  177.4620  147.3710 C   0  0  0  0  0  0  0  0  0  0  0  0
  188.5900  177.2990  145.1010 C   0  0  0  0  0  0  0  0  0  0  0  0
  191.0890  177.8100  144.9590 C   0  0  0  0  0  2  0  0  0  0  0  0
  189.7920  177.5880  144.3410 N   0  0  0  0  0  0  0  0  0  0  0  0
  191.4360  176.6140  145.8130 C   0  0  0  0  0  2  0  0  0  0  0  0
  190.9720  176.8480  147.2380 C   0  0  0  0  0  2  0  0  0  0  0  0
  188.4090  178.0840  142.3730 C   0  0  0  0  0  2  0  0  0  0  0  0
  190.2130  176.3780  142.2310 C   0  0  0  0  0  0  0  0  0  0  0  0
  190.7330  175.4730  142.9370 O   0  0  0  0  0  0  0  0  0  0  0  0
  188.5630  178.8700  141.1220 C   0  0  0  0  0  3  0  0  0  0  0  0
  189.7740  177.6620  142.8780 C   0  0  2  0  0  3  0  0  0  0  0  0
  189.1070  178.3990  140.0010 C   0  0  0  0  0  3  0  0  0  0  0  0
  189.8370  176.6900  138.5860 O   0  0  0  0  0  0  0  0  0  0  0  0
  190.1060  176.1610  140.8190 N   0  0  0  0  0  2  0  0  0  0  0  0
  189.6820  177.0570  139.7790 C   0  0  0  0  0  0  0  0  0  0  0  0
  187.4060  177.0470  144.3960 O   0  0  0  0  0  0  0  0  0  0  0  0
  186.1150  177.2840  144.9430 C   0  0  0  0  0  2  0  0  0  0  0  0
  185.8290  178.7810  144.9970 C   0  0  1  0  0  3  0  0  0  0  0  0
  184.6250  179.1890  144.1350 C   0  0  2  0  0  3  0  0  0  0  0  0
  183.4490  178.8040  144.7840 O   0  0  0  0  0  1  0  0  0  0  0  0
  184.6540  178.6280  142.7050 C   0  0  2  0  0  3  0  0  0  0  0  0
  185.3630  179.5370  141.8190 N   0  0  0  0  0  1  0  0  0  0  0  0
  183.2410  178.4220  142.1770 C   0  0  0  0  0  2  0  0  0  0  0  0
  183.2800  177.8420  140.4540 S   0  0  0  0  0  0  0  0  0  0  0  0
  181.4690  177.8350  140.3220 C   0  0  0  0  0  1  0  0  0  0  0  0
  185.7990  179.3420  146.4220 C   0  0  0  0  0  2  0  0  0  0  0  0
  185.2880  178.4060  147.3240 O   0  0  0  0  0  1  0  0  0  0  0  0
  1  3  1  0  0  0  0
  3  2  2  0  0  0  0
  4  1  2  0  0  0  0
  5  7  1  0  0  0  0
  6  5  1  0  0  0  0
  6  4  1  0  0  0  0
  7  8  1  0  0  0  0
  8  3  1  0  0  0  0
 10 13  1  0  0  0  0
 10 11  2  0  0  0  0
 12  9  1  0  0  0  0
 13  9  1  6  0  0  0
 13  6  1  0  0  0  0
 14 12  2  0  0  0  0
 15 17  2  0  0  0  0
 16 10  1  0  0  0  0
 17 14  1  0  0  0  0
 17 16  1  0  0  0  0
 18 19  1  0  0  0  0
 18  4  1  0  0  0  0
 20 19  1  1  0  0  0
 20 28  1  0  0  0  0
 21 22  1  1  0  0  0
 21 20  1  0  0  0  0
 23 24  1  6  0  0  0
 23 21  1  0  0  0  0
 25 23  1  0  0  0  0
 26 25  1  0  0  0  0
 27 26  1  0  0  0  0
 28 29  1  0  0  0  0
M  END
>  <MODEL>
9

>  <REMARK>
 VINA RESULT:      -6.7      2.359      5.170
  Name = 
  9 active torsions:
  status: ('A' for Active; 'I' for Inactive)
    1  A    between atoms: C_2  and  C_4
    2  A    between atoms: C_2  and  C_18
    3  A    between atoms: C_4  and  C_17
    4  A    between atoms: C_5  and  C_18
    5  A    between atoms: S_9  and  C_17
    6  A    between atoms: C_10  and  O_12
    7  A    between atoms: O_12  and  C_16
    8  A    between atoms: C_16  and  C_18
    9  A    between atoms: C_19  and  N_22
                            x       y       z     vdW  Elec       q    Type
                         _______ _______ _______ _____ _____    ______ ____

>  <TORSDO>
F 9

$$$$
