=
 OpenBabel10232408133D

 32 34  0  0  1  0  0  0  0  0999 V2000
  186.7640  177.4550  142.0940 O   0  0  0  0  0  0  0  0  0  0  0  0
  185.9510  178.2380  142.9410 C   0  0  2  0  0  0  0  0  0  0  0  0
  187.8090  178.2950  141.6810 C   0  0  2  0  0  3  0  0  0  0  0  0
  187.3090  179.7150  141.6080 C   0  0  0  0  0  2  0  0  0  0  0  0
  186.1160  179.7000  142.5140 C   0  0  0  0  0  2  0  0  0  0  0  0
  189.7130  176.4050  138.0080 N   0  0  0  0  0  0  0  0  0  0  0  0
  187.7570  177.7900  138.0400 C   0  0  0  0  0  0  0  0  0  0  0  0
  190.3880  176.5560  141.8930 S   0  0  0  0  0  1  0  0  0  0  0  0
  188.4380  177.8280  140.3960 C   0  0  0  0  0  0  0  0  0  0  0  0
  190.2830  176.6640  139.1440 C   0  0  0  0  0  3  0  0  0  0  0  0
  189.5650  177.0590  140.3760 C   0  0  0  0  0  0  0  0  0  0  0  0
  188.2750  176.4170  137.8100 C   0  0  0  0  0  2  0  0  0  0  0  0
  187.8300  178.3580  139.2050 N   0  0  0  0  0  0  0  0  0  0  0  0
  186.9770  178.6360  136.7200 Cl  0  0  0  0  0  0  0  0  0  0  0  0
  188.1300  177.6840  146.8860 C   0  0  0  0  0  0  0  0  0  0  0  0
  185.5060  178.5160  145.3940 C   0  0  0  0  0  3  0  0  0  0  0  0
  187.3830  177.0380  144.5620 C   0  0  0  0  0  3  0  0  0  0  0  0
  188.1370  176.8950  145.6480 C   0  0  0  0  0  3  0  0  0  0  0  0
  185.8300  178.6850  146.6720 C   0  0  0  0  0  3  0  0  0  0  0  0
  187.1150  178.4230  147.3250 C   0  0  0  0  0  3  0  0  0  0  0  0
  186.3600  178.0240  144.3460 N   0  0  0  0  0  0  0  0  0  0  0  0
  189.3120  177.5450  147.7860 C   0  0  0  0  0  2  0  0  0  0  0  0
  191.6230  176.5150  147.6290 C   0  0  0  0  0  0  0  0  0  0  0  0
  190.2430  176.5550  147.2600 N   0  0  0  0  0  2  0  0  0  0  0  0
  192.4400  175.5160  147.1190 O   0  0  0  0  0  0  0  0  0  0  0  0
  192.1070  177.3810  148.4050 O   0  0  0  0  0  1  0  0  0  0  0  0
  184.4930  177.8050  142.7210 C   0  0  0  0  0  2  0  0  0  0  0  0
  183.7410  178.6620  141.7110 C   0  0  0  0  0  2  0  0  0  0  0  0
  183.8810  177.8590  138.1480 O   0  0  0  0  0  0  0  0  0  0  0  0
  184.0130  178.5190  139.2100 C   0  0  0  0  0  0  0  0  0  0  0  0
  183.6150  177.9430  140.4530 N   0  0  0  0  0  2  0  0  0  0  0  0
  184.5550  179.8350  139.1600 N   0  0  0  0  0  1  0  0  0  0  0  0
  1  2  1  0  0  0  0
  2 27  1  6  0  0  0
  2 21  1  0  0  0  0
  3  9  1  6  0  0  0
  3  1  1  0  0  0  0
  4  3  1  0  0  0  0
  4  5  1  0  0  0  0
  5  2  1  0  0  0  0
  6 10  2  0  0  0  0
  7 13  2  0  0  0  0
 10 11  1  0  0  0  0
 11  9  2  0  0  0  0
 11  8  1  0  0  0  0
 12  6  1  0  0  0  0
 12  7  1  0  0  0  0
 13  9  1  0  0  0  0
 14  7  1  0  0  0  0
 15 20  2  0  0  0  0
 15 22  1  0  0  0  0
 16 19  2  0  0  0  0
 17 18  2  0  0  0  0
 18 15  1  0  0  0  0
 19 20  1  0  0  0  0
 21 17  1  0  0  0  0
 21 16  1  0  0  0  0
 23 26  1  0  0  0  0
 24 23  1  0  0  0  0
 24 22  1  0  0  0  0
 25 23  2  0  0  0  0
 28 27  1  0  0  0  0
 29 30  2  0  0  0  0
 30 31  1  0  0  0  0
 31 28  1  0  0  0  0
 32 30  1  0  0  0  0
M  END
>  <MODEL>
1

>  <REMARK>
 VINA RESULT:      -7.3      0.000      0.000
  Name = 
  7 active torsions:
  status: ('A' for Active; 'I' for Inactive)
    1  A    between atoms: C_2  and  C_13
    2  A    between atoms: C_2  and  N_32
    3  A    between atoms: C_6  and  C_17
    4  A    between atoms: C_7  and  C_12
    5  A    between atoms: C_11  and  C_13
    6  A    between atoms: C_11  and  N_26
    7  A    between atoms: C_17  and  N_18
                            x       y       z     vdW  Elec       q    Type
                         _______ _______ _______ _____ _____    ______ ____

>  <TORSDO>
F 7

$$$$
=
 OpenBabel10232408133D

 32 34  0  0  1  0  0  0  0  0999 V2000
  188.7160  178.2520  143.3840 O   0  0  0  0  0  0  0  0  0  0  0  0
  187.9930  177.6980  144.4620 C   0  0  2  0  0  0  0  0  0  0  0  0
  188.5690  177.3520  142.3180 C   0  0  2  0  0  3  0  0  0  0  0  0
  188.4370  175.9530  142.8620 C   0  0  0  0  0  2  0  0  0  0  0  0
  187.9730  176.1780  144.2690 C   0  0  0  0  0  2  0  0  0  0  0  0
  192.0680  177.2880  139.4130 N   0  0  0  0  0  0  0  0  0  0  0  0
  189.7750  177.7250  138.8660 C   0  0  0  0  0  0  0  0  0  0  0  0
  191.4800  176.7930  143.2840 S   0  0  0  0  0  1  0  0  0  0  0  0
  189.6730  177.4870  141.3050 C   0  0  0  0  0  0  0  0  0  0  0  0
  192.1120  177.4830  140.6950 C   0  0  0  0  0  3  0  0  0  0  0  0
  190.9810  177.2610  141.6210 C   0  0  0  0  0  0  0  0  0  0  0  0
  190.9030  176.7690  138.7210 C   0  0  0  0  0  2  0  0  0  0  0  0
  189.2520  177.9890  140.0240 N   0  0  0  0  0  0  0  0  0  0  0  0
  189.1010  178.4690  137.4320 Cl  0  0  0  0  0  0  0  0  0  0  0  0
  183.6540  178.8300  143.7510 C   0  0  0  0  0  0  0  0  0  0  0  0
  186.0620  178.6560  145.7440 C   0  0  0  0  0  3  0  0  0  0  0  0
  186.1190  178.7260  143.2170 C   0  0  0  0  0  3  0  0  0  0  0  0
  184.8480  178.9640  142.9080 C   0  0  0  0  0  3  0  0  0  0  0  0
  184.7810  178.9010  146.0010 C   0  0  0  0  0  3  0  0  0  0  0  0
  183.6430  178.8370  145.0810 C   0  0  0  0  0  3  0  0  0  0  0  0
  186.6290  178.2690  144.4800 N   0  0  0  0  0  0  0  0  0  0  0  0
  182.3330  178.8110  143.0570 C   0  0  0  0  0  2  0  0  0  0  0  0
  181.4680  178.2300  140.7460 C   0  0  0  0  0  0  0  0  0  0  0  0
  182.5110  178.6700  141.6180 N   0  0  0  0  0  2  0  0  0  0  0  0
  181.6990  178.1610  139.3790 O   0  0  0  0  0  0  0  0  0  0  0  0
  180.3430  177.8980  141.2050 O   0  0  0  0  0  1  0  0  0  0  0  0
  188.7480  178.0370  145.7560 C   0  0  0  0  0  2  0  0  0  0  0  0
  189.3390  176.8220  146.4610 C   0  0  0  0  0  2  0  0  0  0  0  0
  192.3710  177.0970  148.4820 O   0  0  0  0  0  0  0  0  0  0  0  0
  191.5910  176.6920  147.5830 C   0  0  0  0  0  0  0  0  0  0  0  0
  190.2840  177.2550  147.4780 N   0  0  0  0  0  2  0  0  0  0  0  0
  192.0190  175.6750  146.6830 N   0  0  0  0  0  1  0  0  0  0  0  0
  1  2  1  0  0  0  0
  2 21  1  0  0  0  0
  2 27  1  1  0  0  0
  3  9  1  6  0  0  0
  3  4  1  0  0  0  0
  3  1  1  0  0  0  0
  4  5  1  0  0  0  0
  5  2  1  0  0  0  0
  6 10  2  0  0  0  0
  7 13  2  0  0  0  0
  9 11  2  0  0  0  0
 10 11  1  0  0  0  0
 11  8  1  0  0  0  0
 12  7  1  0  0  0  0
 12  6  1  0  0  0  0
 13  9  1  0  0  0  0
 14  7  1  0  0  0  0
 15 20  2  0  0  0  0
 16 19  2  0  0  0  0
 17 21  1  0  0  0  0
 18 17  2  0  0  0  0
 18 15  1  0  0  0  0
 20 19  1  0  0  0  0
 21 16  1  0  0  0  0
 22 15  1  0  0  0  0
 23 26  1  0  0  0  0
 23 24  1  0  0  0  0
 24 22  1  0  0  0  0
 25 23  2  0  0  0  0
 27 28  1  0  0  0  0
 28 31  1  0  0  0  0
 30 29  2  0  0  0  0
 31 30  1  0  0  0  0
 32 30  1  0  0  0  0
M  END
>  <MODEL>
2

>  <REMARK>
 VINA RESULT:      -7.1      1.836      6.820
  Name = 
  7 active torsions:
  status: ('A' for Active; 'I' for Inactive)
    1  A    between atoms: C_2  and  C_13
    2  A    between atoms: C_2  and  N_32
    3  A    between atoms: C_6  and  C_17
    4  A    between atoms: C_7  and  C_12
    5  A    between atoms: C_11  and  C_13
    6  A    between atoms: C_11  and  N_26
    7  A    between atoms: C_17  and  N_18
                            x       y       z     vdW  Elec       q    Type
                         _______ _______ _______ _____ _____    ______ ____

>  <TORSDO>
F 7

$$$$
=
 OpenBabel10232408133D

 32 34  0  0  1  0  0  0  0  0999 V2000
  187.1010  178.6840  144.1930 O   0  0  0  0  0  0  0  0  0  0  0  0
  185.8630  178.4220  144.8180 C   0  0  2  0  0  0  0  0  0  0  0  0
  187.5310  177.4580  143.6640 C   0  0  2  0  0  3  0  0  0  0  0  0
  187.0330  176.3350  144.5360 C   0  0  0  0  0  2  0  0  0  0  0  0
  185.8670  176.9510  145.2480 C   0  0  0  0  0  2  0  0  0  0  0  0
  191.9830  177.8120  142.7970 N   0  0  0  0  0  0  0  0  0  0  0  0
  190.9820  177.3570  144.9280 C   0  0  0  0  0  0  0  0  0  0  0  0
  188.5930  178.0200  140.7870 S   0  0  0  0  0  1  0  0  0  0  0  0
  189.0220  177.4220  143.4550 C   0  0  0  0  0  0  0  0  0  0  0  0
  191.0370  177.5290  141.9550 C   0  0  0  0  0  3  0  0  0  0  0  0
  189.5910  177.6570  142.2380 C   0  0  0  0  0  0  0  0  0  0  0  0
  191.7410  178.3490  144.1240 C   0  0  0  0  0  2  0  0  0  0  0  0
  189.7760  177.0000  144.6050 N   0  0  0  0  0  0  0  0  0  0  0  0
  191.7130  176.6990  146.3760 Cl  0  0  0  0  0  0  0  0  0  0  0  0
  182.9590  178.6550  141.3350 C   0  0  0  0  0  0  0  0  0  0  0  0
  183.4680  179.0390  144.4010 C   0  0  0  0  0  3  0  0  0  0  0  0
  185.1590  179.0100  142.5210 C   0  0  0  0  0  3  0  0  0  0  0  0
  184.3850  178.9830  141.4400 C   0  0  0  0  0  3  0  0  0  0  0  0
  182.3150  179.0400  143.7390 C   0  0  0  0  0  3  0  0  0  0  0  0
  182.0780  178.7160  142.3300 C   0  0  0  0  0  3  0  0  0  0  0  0
  184.7660  178.7160  143.8710 N   0  0  0  0  0  0  0  0  0  0  0  0
  182.4300  178.3480  139.9740 C   0  0  0  0  0  2  0  0  0  0  0  0
  181.4840  180.4800  138.9800 C   0  0  0  0  0  0  0  0  0  0  0  0
  182.5320  179.5170  139.1100 N   0  0  0  0  0  2  0  0  0  0  0  0
  181.6700  181.5910  138.1700 O   0  0  0  0  0  0  0  0  0  0  0  0
  180.3910  180.3280  139.5890 O   0  0  0  0  0  1  0  0  0  0  0  0
  185.7690  179.3160  146.0630 C   0  0  0  0  0  2  0  0  0  0  0  0
  186.0440  178.5840  147.3700 C   0  0  0  0  0  2  0  0  0  0  0  0
  189.4790  178.4920  148.6170 O   0  0  0  0  0  0  0  0  0  0  0  0
  188.3880  178.0800  148.1460 C   0  0  0  0  0  0  0  0  0  0  0  0
  187.3270  179.0050  147.9100 N   0  0  0  0  0  2  0  0  0  0  0  0
  188.2220  176.6950  147.8570 N   0  0  0  0  0  1  0  0  0  0  0  0
  1  2  1  0  0  0  0
  2  5  1  0  0  0  0
  2 27  1  1  0  0  0
  3  9  1  1  0  0  0
  3  1  1  0  0  0  0
  3  4  1  0  0  0  0
  4  5  1  0  0  0  0
  6 12  1  0  0  0  0
  7 14  1  0  0  0  0
  8 11  1  0  0  0  0
  9 13  1  0  0  0  0
 10 11  1  0  0  0  0
 10  6  2  0  0  0  0
 11  9  2  0  0  0  0
 12  7  1  0  0  0  0
 13  7  2  0  0  0  0
 15 18  1  0  0  0  0
 15 20  2  0  0  0  0
 17 21  1  0  0  0  0
 18 17  2  0  0  0  0
 19 16  2  0  0  0  0
 20 19  1  0  0  0  0
 21 16  1  0  0  0  0
 21  2  1  0  0  0  0
 22 15  1  0  0  0  0
 23 24  1  0  0  0  0
 23 26  1  0  0  0  0
 24 22  1  0  0  0  0
 25 23  2  0  0  0  0
 27 28  1  0  0  0  0
 28 31  1  0  0  0  0
 30 29  2  0  0  0  0
 31 30  1  0  0  0  0
 32 30  1  0  0  0  0
M  END
>  <MODEL>
3

>  <REMARK>
 VINA RESULT:      -6.8      3.320      7.747
  Name = 
  7 active torsions:
  status: ('A' for Active; 'I' for Inactive)
    1  A    between atoms: C_2  and  C_13
    2  A    between atoms: C_2  and  N_32
    3  A    between atoms: C_6  and  C_17
    4  A    between atoms: C_7  and  C_12
    5  A    between atoms: C_11  and  C_13
    6  A    between atoms: C_11  and  N_26
    7  A    between atoms: C_17  and  N_18
                            x       y       z     vdW  Elec       q    Type
                         _______ _______ _______ _____ _____    ______ ____

>  <TORSDO>
F 7

$$$$
=
 OpenBabel10232408133D

 32 34  0  0  1  0  0  0  0  0999 V2000
  188.2100  176.5390  138.1850 O   0  0  0  0  0  0  0  0  0  0  0  0
  189.5320  176.9160  138.5020 C   0  0  2  0  0  0  0  0  0  0  0  0
  187.8150  177.3720  137.1280 C   0  0  2  0  0  3  0  0  0  0  0  0
  188.5040  178.7050  137.2580 C   0  0  0  0  0  2  0  0  0  0  0  0
  189.6980  178.3870  138.1070 C   0  0  0  0  0  2  0  0  0  0  0  0
  183.2810  177.2160  136.7950 N   0  0  0  0  0  0  0  0  0  0  0  0
  184.5430  178.3480  138.4900 C   0  0  0  0  0  0  0  0  0  0  0  0
  186.4020  175.8580  134.7970 S   0  0  0  0  0  1  0  0  0  0  0  0
  186.3180  177.4930  137.0290 C   0  0  0  0  0  0  0  0  0  0  0  0
  184.1470  177.0390  135.8450 C   0  0  0  0  0  3  0  0  0  0  0  0
  185.6010  176.8680  136.0510 C   0  0  0  0  0  0  0  0  0  0  0  0
  183.6260  177.2140  138.2050 C   0  0  0  0  0  2  0  0  0  0  0  0
  185.7290  178.4120  137.9670 N   0  0  0  0  0  0  0  0  0  0  0  0
  184.0290  179.5960  139.6040 Cl  0  0  0  0  0  0  0  0  0  0  0  0
  193.1150  174.6640  136.8560 C   0  0  0  0  0  0  0  0  0  0  0  0
  190.0230  174.7470  137.3400 C   0  0  0  0  0  3  0  0  0  0  0  0
  191.6490  176.6820  137.2440 C   0  0  0  0  0  3  0  0  0  0  0  0
  192.7740  176.0920  136.8530 C   0  0  0  0  0  3  0  0  0  0  0  0
  190.7800  173.7270  136.9490 C   0  0  0  0  0  3  0  0  0  0  0  0
  192.2410  173.6620  136.8650 C   0  0  0  0  0  3  0  0  0  0  0  0
  190.4770  176.0410  137.7740 N   0  0  0  0  0  0  0  0  0  0  0  0
  194.5580  174.3110  136.7100 C   0  0  0  0  0  2  0  0  0  0  0  0
  195.7400  174.2970  138.9540 C   0  0  0  0  0  0  0  0  0  0  0  0
  195.3510  174.9580  137.7470 N   0  0  0  0  0  2  0  0  0  0  0  0
  196.5320  174.9640  139.8760 O   0  0  0  0  0  1  0  0  0  0  0  0
  195.3630  173.1190  139.1910 O   0  0  0  0  0  0  0  0  0  0  0  0
  189.7090  176.7720  140.0210 C   0  0  0  0  0  2  0  0  0  0  0  0
  188.7590  177.6400  140.8370 C   0  0  0  0  0  2  0  0  0  0  0  0
  189.6220  177.5950  144.3880 O   0  0  0  0  0  0  0  0  0  0  0  0
  189.0680  177.2640  143.3090 C   0  0  0  0  0  0  0  0  0  0  0  0
  189.3730  177.9770  142.1110 N   0  0  0  0  0  2  0  0  0  0  0  0
  188.1390  176.1840  143.2950 N   0  0  0  0  0  1  0  0  0  0  0  0
  1  2  1  0  0  0  0
  2 27  1  1  0  0  0
  3  9  1  1  0  0  0
  3  4  1  0  0  0  0
  3  1  1  0  0  0  0
  4  5  1  0  0  0  0
  5  2  1  0  0  0  0
  6 12  1  0  0  0  0
  7 14  1  0  0  0  0
  8 11  1  0  0  0  0
  9 13  1  0  0  0  0
 10 11  1  0  0  0  0
 10  6  2  0  0  0  0
 11  9  2  0  0  0  0
 12  7  1  0  0  0  0
 13  7  2  0  0  0  0
 15 20  2  0  0  0  0
 16 21  1  0  0  0  0
 17 21  1  0  0  0  0
 18 15  1  0  0  0  0
 18 17  2  0  0  0  0
 19 16  2  0  0  0  0
 20 19  1  0  0  0  0
 21  2  1  0  0  0  0
 22 15  1  0  0  0  0
 22 24  1  0  0  0  0
 23 26  2  0  0  0  0
 23 25  1  0  0  0  0
 24 23  1  0  0  0  0
 27 28  1  0  0  0  0
 28 31  1  0  0  0  0
 30 29  2  0  0  0  0
 31 30  1  0  0  0  0
 32 30  1  0  0  0  0
M  END
>  <MODEL>
4

>  <REMARK>
 VINA RESULT:      -6.5      4.015      7.876
  Name = 
  7 active torsions:
  status: ('A' for Active; 'I' for Inactive)
    1  A    between atoms: C_2  and  C_13
    2  A    between atoms: C_2  and  N_32
    3  A    between atoms: C_6  and  C_17
    4  A    between atoms: C_7  and  C_12
    5  A    between atoms: C_11  and  C_13
    6  A    between atoms: C_11  and  N_26
    7  A    between atoms: C_17  and  N_18
                            x       y       z     vdW  Elec       q    Type
                         _______ _______ _______ _____ _____    ______ ____

>  <TORSDO>
F 7

$$$$
=
 OpenBabel10232408133D

 32 34  0  0  1  0  0  0  0  0999 V2000
  188.7700  176.5620  141.0300 O   0  0  0  0  0  0  0  0  0  0  0  0
  188.4880  177.4010  142.1290 C   0  0  2  0  0  0  0  0  0  0  0  0
  189.4700  177.3550  140.1090 C   0  0  2  0  0  3  0  0  0  0  0  0
  189.0030  178.7830  140.2230 C   0  0  0  0  0  2  0  0  0  0  0  0
  188.4210  178.8390  141.6030 C   0  0  0  0  0  2  0  0  0  0  0  0
  189.4880  175.3380  136.0320 N   0  0  0  0  0  0  0  0  0  0  0  0
  187.5510  176.0110  137.2760 C   0  0  0  0  0  0  0  0  0  0  0  0
  192.1340  176.6080  138.6710 S   0  0  0  0  0  1  0  0  0  0  0  0
  189.3740  176.8160  138.7070 C   0  0  0  0  0  0  0  0  0  0  0  0
  190.4460  176.0230  136.5760 C   0  0  0  0  0  3  0  0  0  0  0  0
  190.4770  176.4550  137.9900 C   0  0  0  0  0  0  0  0  0  0  0  0
  188.3320  174.8540  136.7650 C   0  0  0  0  0  2  0  0  0  0  0  0
  188.0470  176.8330  138.1500 N   0  0  0  0  0  0  0  0  0  0  0  0
  185.9050  176.2340  136.7260 Cl  0  0  0  0  0  0  0  0  0  0  0  0
  190.9680  176.9990  145.9110 C   0  0  0  0  0  0  0  0  0  0  0  0
  190.6640  176.3860  142.8560 C   0  0  0  0  0  3  0  0  0  0  0  0
  189.5550  178.2130  144.2080 C   0  0  0  0  0  3  0  0  0  0  0  0
  190.1640  178.1080  145.3850 C   0  0  0  0  0  3  0  0  0  0  0  0
  191.5370  175.8870  143.7250 C   0  0  0  0  0  3  0  0  0  0  0  0
  191.5770  176.0710  145.1780 C   0  0  0  0  0  3  0  0  0  0  0  0
  189.5440  177.2380  143.1520 N   0  0  0  0  0  0  0  0  0  0  0  0
  191.2260  176.9850  147.3810 C   0  0  0  0  0  2  0  0  0  0  0  0
  188.9000  177.4700  148.2670 C   0  0  0  0  0  0  0  0  0  0  0  0
  190.2690  177.8350  148.0770 N   0  0  0  0  0  2  0  0  0  0  0  0
  188.0580  178.3120  148.9790 O   0  0  0  0  0  1  0  0  0  0  0  0
  188.4500  176.3940  147.7900 O   0  0  0  0  0  0  0  0  0  0  0  0
  187.1150  176.9980  142.6870 C   0  0  0  0  0  2  0  0  0  0  0  0
  186.1970  178.1790  142.9780 C   0  0  0  0  0  2  0  0  0  0  0  0
  184.5040  178.9320  146.1280 O   0  0  0  0  0  0  0  0  0  0  0  0
  184.7460  178.9340  144.8940 C   0  0  0  0  0  0  0  0  0  0  0  0
  185.8680  178.2080  144.3940 N   0  0  0  0  0  2  0  0  0  0  0  0
  183.9000  179.6640  144.0100 N   0  0  0  0  0  1  0  0  0  0  0  0
  1  2  1  0  0  0  0
  2 27  1  1  0  0  0
  2 21  1  0  0  0  0
  3  9  1  6  0  0  0
  3  4  1  0  0  0  0
  3  1  1  0  0  0  0
  4  5  1  0  0  0  0
  5  2  1  0  0  0  0
  6 10  2  0  0  0  0
  6 12  1  0  0  0  0
  7 13  2  0  0  0  0
 10 11  1  0  0  0  0
 11  8  1  0  0  0  0
 11  9  2  0  0  0  0
 12  7  1  0  0  0  0
 13  9  1  0  0  0  0
 14  7  1  0  0  0  0
 15 22  1  0  0  0  0
 16 21  1  0  0  0  0
 16 19  2  0  0  0  0
 17 18  2  0  0  0  0
 18 15  1  0  0  0  0
 19 20  1  0  0  0  0
 20 15  2  0  0  0  0
 21 17  1  0  0  0  0
 22 24  1  0  0  0  0
 23 25  1  0  0  0  0
 24 23  1  0  0  0  0
 26 23  2  0  0  0  0
 27 28  1  0  0  0  0
 28 31  1  0  0  0  0
 30 29  2  0  0  0  0
 31 30  1  0  0  0  0
 32 30  1  0  0  0  0
M  END
>  <MODEL>
5

>  <REMARK>
 VINA RESULT:      -6.5      2.529      3.776
  Name = 
  7 active torsions:
  status: ('A' for Active; 'I' for Inactive)
    1  A    between atoms: C_2  and  C_13
    2  A    between atoms: C_2  and  N_32
    3  A    between atoms: C_6  and  C_17
    4  A    between atoms: C_7  and  C_12
    5  A    between atoms: C_11  and  C_13
    6  A    between atoms: C_11  and  N_26
    7  A    between atoms: C_17  and  N_18
                            x       y       z     vdW  Elec       q    Type
                         _______ _______ _______ _____ _____    ______ ____

>  <TORSDO>
F 7

$$$$
=
 OpenBabel10232408133D

 32 34  0  0  1  0  0  0  0  0999 V2000
  189.8680  176.8690  143.4080 O   0  0  0  0  0  0  0  0  0  0  0  0
  191.2320  176.9970  143.0720 C   0  0  2  0  0  0  0  0  0  0  0  0
  189.3910  178.1760  143.5850 C   0  0  2  0  0  3  0  0  0  0  0  0
  190.5050  179.0470  144.1060 C   0  0  0  0  0  2  0  0  0  0  0  0
  191.7390  178.3040  143.6920 C   0  0  0  0  0  2  0  0  0  0  0  0
  185.4870  177.9120  145.9040 N   0  0  0  0  0  0  0  0  0  0  0  0
  187.6970  177.8810  146.8340 C   0  0  0  0  0  0  0  0  0  0  0  0
  186.6280  178.2780  142.1440 S   0  0  0  0  0  1  0  0  0  0  0  0
  188.1600  178.2190  144.4490 C   0  0  0  0  0  0  0  0  0  0  0  0
  185.6680  178.4120  144.7200 C   0  0  0  0  0  3  0  0  0  0  0  0
  186.9020  178.2610  143.9210 C   0  0  0  0  0  0  0  0  0  0  0  0
  186.4680  177.0850  146.5840 C   0  0  0  0  0  2  0  0  0  0  0  0
  188.4220  178.3370  145.8590 N   0  0  0  0  0  0  0  0  0  0  0  0
  188.2070  178.1590  148.4850 Cl  0  0  0  0  0  0  0  0  0  0  0  0
  192.5420  176.5380  138.7480 C   0  0  0  0  0  0  0  0  0  0  0  0
  190.1930  176.8590  140.7930 C   0  0  0  0  0  3  0  0  0  0  0  0
  192.6250  177.4850  141.0870 C   0  0  0  0  0  3  0  0  0  0  0  0
  193.1210  177.2880  139.8690 C   0  0  0  0  0  3  0  0  0  0  0  0
  190.1400  176.5430  139.5030 C   0  0  0  0  0  3  0  0  0  0  0  0
  191.2520  176.2550  138.5930 C   0  0  0  0  0  3  0  0  0  0  0  0
  191.3760  176.9940  141.6000 N   0  0  0  0  0  0  0  0  0  0  0  0
  193.4600  176.1720  137.6300 C   0  0  0  0  0  2  0  0  0  0  0  0
  194.9450  174.2560  138.3750 C   0  0  0  0  0  0  0  0  0  0  0  0
  193.7960  174.7550  137.6850 N   0  0  0  0  0  2  0  0  0  0  0  0
  195.1770  172.8890  138.4200 O   0  0  0  0  0  0  0  0  0  0  0  0
  195.7520  175.0440  138.9350 O   0  0  0  0  0  1  0  0  0  0  0  0
  191.9820  175.8120  143.6980 C   0  0  0  0  0  2  0  0  0  0  0  0
  191.3470  175.2890  144.9810 C   0  0  0  0  0  2  0  0  0  0  0  0
  193.1480  175.7900  148.1210 O   0  0  0  0  0  0  0  0  0  0  0  0
  192.2480  175.9070  147.2510 C   0  0  0  0  0  0  0  0  0  0  0  0
  192.3550  175.1870  146.0240 N   0  0  0  0  0  2  0  0  0  0  0  0
  191.1350  176.7610  147.4980 N   0  0  0  0  0  1  0  0  0  0  0  0
  1  3  1  0  0  0  0
  2  1  1  0  0  0  0
  2  5  1  0  0  0  0
  2 27  1  1  0  0  0
  3  4  1  0  0  0  0
  3  9  1  1  0  0  0
  5  4  1  0  0  0  0
  6 12  1  0  0  0  0
  7 14  1  0  0  0  0
  8 11  1  0  0  0  0
  9 13  1  0  0  0  0
 10  6  2  0  0  0  0
 11  9  2  0  0  0  0
 11 10  1  0  0  0  0
 12  7  1  0  0  0  0
 13  7  2  0  0  0  0
 15 18  1  0  0  0  0
 16 21  1  0  0  0  0
 17 21  1  0  0  0  0
 18 17  2  0  0  0  0
 19 16  2  0  0  0  0
 20 15  2  0  0  0  0
 20 19  1  0  0  0  0
 21  2  1  0  0  0  0
 22 24  1  0  0  0  0
 22 15  1  0  0  0  0
 23 25  2  0  0  0  0
 23 26  1  0  0  0  0
 24 23  1  0  0  0  0
 27 28  1  0  0  0  0
 28 31  1  0  0  0  0
 30 32  1  0  0  0  0
 30 29  2  0  0  0  0
 31 30  1  0  0  0  0
M  END
>  <MODEL>
6

>  <REMARK>
 VINA RESULT:      -6.4      4.104      8.495
  Name = 
  7 active torsions:
  status: ('A' for Active; 'I' for Inactive)
    1  A    between atoms: C_2  and  C_13
    2  A    between atoms: C_2  and  N_32
    3  A    between atoms: C_6  and  C_17
    4  A    between atoms: C_7  and  C_12
    5  A    between atoms: C_11  and  C_13
    6  A    between atoms: C_11  and  N_26
    7  A    between atoms: C_17  and  N_18
                            x       y       z     vdW  Elec       q    Type
                         _______ _______ _______ _____ _____    ______ ____

>  <TORSDO>
F 7

$$$$
=
 OpenBabel10232408133D

 32 34  0  0  1  0  0  0  0  0999 V2000
  185.1850  178.0300  142.9540 O   0  0  0  0  0  0  0  0  0  0  0  0
  185.1040  178.5960  144.2430 C   0  0  2  0  0  0  0  0  0  0  0  0
  185.8960  178.9540  142.1720 C   0  0  2  0  0  3  0  0  0  0  0  0
  185.6190  180.3480  142.6710 C   0  0  0  0  0  2  0  0  0  0  0  0
  185.1680  180.1190  144.0820 C   0  0  0  0  0  2  0  0  0  0  0  0
  185.2680  177.9870  137.7720 N   0  0  0  0  0  0  0  0  0  0  0  0
  183.5920  178.7290  139.3170 C   0  0  0  0  0  0  0  0  0  0  0  0
  188.2550  178.0390  140.3510 S   0  0  0  0  0  1  0  0  0  0  0  0
  185.6140  178.7890  140.7030 C   0  0  0  0  0  0  0  0  0  0  0  0
  186.3800  178.3160  138.3550 C   0  0  0  0  0  3  0  0  0  0  0  0
  186.5740  178.3900  139.8190 C   0  0  0  0  0  0  0  0  0  0  0  0
  184.0720  177.5910  138.4920 C   0  0  0  0  0  2  0  0  0  0  0  0
  184.2980  179.2050  140.2960 N   0  0  0  0  0  0  0  0  0  0  0  0
  182.0100  179.4050  138.9930 Cl  0  0  0  0  0  0  0  0  0  0  0  0
  189.0830  177.3400  146.0340 C   0  0  0  0  0  0  0  0  0  0  0  0
  186.1000  178.1640  146.5050 C   0  0  0  0  0  3  0  0  0  0  0  0
  187.1550  177.2240  144.4080 C   0  0  0  0  0  3  0  0  0  0  0  0
  188.3790  176.9080  144.8200 C   0  0  0  0  0  3  0  0  0  0  0  0
  187.0820  178.0390  147.3920 C   0  0  0  0  0  3  0  0  0  0  0  0
  188.5040  177.7940  147.1420 C   0  0  0  0  0  3  0  0  0  0  0  0
  186.2150  178.0830  145.0730 N   0  0  0  0  0  0  0  0  0  0  0  0
  190.5600  177.1340  146.0710 C   0  0  0  0  0  2  0  0  0  0  0  0
  191.5740  177.7220  143.8220 C   0  0  0  0  0  0  0  0  0  0  0  0
  191.0600  176.7660  144.7530 N   0  0  0  0  0  2  0  0  0  0  0  0
  192.0720  177.2910  142.6010 O   0  0  0  0  0  0  0  0  0  0  0  0
  191.5720  178.9510  144.0960 O   0  0  0  0  0  1  0  0  0  0  0  0
  183.7450  178.2040  144.8420 C   0  0  0  0  0  2  0  0  0  0  0  0
  182.5890  179.0790  144.3720 C   0  0  0  0  0  2  0  0  0  0  0  0
  180.1990  178.4190  141.6870 O   0  0  0  0  0  0  0  0  0  0  0  0
  180.7870  179.0360  142.6120 C   0  0  0  0  0  0  0  0  0  0  0  0
  181.8760  178.4140  143.2930 N   0  0  0  0  0  2  0  0  0  0  0  0
  180.3570  180.3450  142.9710 N   0  0  0  0  0  1  0  0  0  0  0  0
  1  2  1  0  0  0  0
  2 27  1  1  0  0  0
  2 21  1  0  0  0  0
  3  9  1  6  0  0  0
  3  4  1  0  0  0  0
  3  1  1  0  0  0  0
  4  5  1  0  0  0  0
  5  2  1  0  0  0  0
  6 10  2  0  0  0  0
  6 12  1  0  0  0  0
  7 13  2  0  0  0  0
 10 11  1  0  0  0  0
 11  8  1  0  0  0  0
 11  9  2  0  0  0  0
 12  7  1  0  0  0  0
 13  9  1  0  0  0  0
 14  7  1  0  0  0  0
 15 22  1  0  0  0  0
 15 20  2  0  0  0  0
 16 19  2  0  0  0  0
 17 18  2  0  0  0  0
 17 21  1  0  0  0  0
 18 15  1  0  0  0  0
 20 19  1  0  0  0  0
 21 16  1  0  0  0  0
 23 26  1  0  0  0  0
 23 24  1  0  0  0  0
 24 22  1  0  0  0  0
 25 23  2  0  0  0  0
 28 27  1  0  0  0  0
 29 30  2  0  0  0  0
 30 32  1  0  0  0  0
 30 31  1  0  0  0  0
 31 28  1  0  0  0  0
M  END
>  <MODEL>
7

>  <REMARK>
 VINA RESULT:      -6.4      2.659      3.359
  Name = 
  7 active torsions:
  status: ('A' for Active; 'I' for Inactive)
    1  A    between atoms: C_2  and  C_13
    2  A    between atoms: C_2  and  N_32
    3  A    between atoms: C_6  and  C_17
    4  A    between atoms: C_7  and  C_12
    5  A    between atoms: C_11  and  C_13
    6  A    between atoms: C_11  and  N_26
    7  A    between atoms: C_17  and  N_18
                            x       y       z     vdW  Elec       q    Type
                         _______ _______ _______ _____ _____    ______ ____

>  <TORSDO>
F 7

$$$$
=
 OpenBabel10232408133D

 32 34  0  0  1  0  0  0  0  0999 V2000
  189.2410  176.7980  142.7560 O   0  0  0  0  0  0  0  0  0  0  0  0
  190.6150  177.0590  142.5740 C   0  0  2  0  0  0  0  0  0  0  0  0
  188.6090  178.0500  142.7660 C   0  0  2  0  0  3  0  0  0  0  0  0
  189.5480  179.0780  143.3410 C   0  0  0  0  0  2  0  0  0  0  0  0
  190.8960  178.4560  143.1390 C   0  0  0  0  0  2  0  0  0  0  0  0
  184.7950  178.2720  145.2350 N   0  0  0  0  0  0  0  0  0  0  0  0
  184.9690  178.5600  142.8610 C   0  0  0  0  0  0  0  0  0  0  0  0
  188.6340  177.6000  145.8510 S   0  0  0  0  0  1  0  0  0  0  0  0
  187.2800  178.0090  143.4720 C   0  0  0  0  0  0  0  0  0  0  0  0
  185.8990  177.6660  145.5450 C   0  0  0  0  0  3  0  0  0  0  0  0
  187.1790  177.8220  144.8190 C   0  0  0  0  0  0  0  0  0  0  0  0
  184.6840  179.2340  144.1530 C   0  0  0  0  0  2  0  0  0  0  0  0
  186.1370  178.0580  142.5990 N   0  0  0  0  0  0  0  0  0  0  0  0
  183.7140  178.4930  141.6420 Cl  0  0  0  0  0  0  0  0  0  0  0  0
  192.4230  176.2860  138.4810 C   0  0  0  0  0  0  0  0  0  0  0  0
  189.8660  176.8800  140.1860 C   0  0  0  0  0  3  0  0  0  0  0  0
  192.2830  177.3430  140.7690 C   0  0  0  0  0  3  0  0  0  0  0  0
  192.9120  177.0490  139.6350 C   0  0  0  0  0  3  0  0  0  0  0  0
  189.9520  176.5040  138.9150 C   0  0  0  0  0  3  0  0  0  0  0  0
  191.1440  176.0900  138.1710 C   0  0  0  0  0  3  0  0  0  0  0  0
  190.9440  176.9710  141.1350 N   0  0  0  0  0  0  0  0  0  0  0  0
  193.4440  175.7980  137.5080 C   0  0  0  0  0  2  0  0  0  0  0  0
  195.0490  174.1210  138.5280 C   0  0  0  0  0  0  0  0  0  0  0  0
  193.8440  174.4340  137.8260 N   0  0  0  0  0  2  0  0  0  0  0  0
  195.3420  172.8000  138.8330 O   0  0  0  0  0  0  0  0  0  0  0  0
  195.8500  175.0320  138.8670 O   0  0  0  0  0  1  0  0  0  0  0  0
  191.4020  176.0160  143.3810 C   0  0  0  0  0  2  0  0  0  0  0  0
  191.9630  176.5470  144.6950 C   0  0  0  0  0  2  0  0  0  0  0  0
  191.9950  174.8020  147.9050 O   0  0  0  0  0  0  0  0  0  0  0  0
  191.9690  175.7560  147.0860 C   0  0  0  0  0  0  0  0  0  0  0  0
  191.9870  175.4840  145.6860 N   0  0  0  0  0  2  0  0  0  0  0  0
  191.9260  177.0960  147.5660 N   0  0  0  0  0  1  0  0  0  0  0  0
  1  3  1  0  0  0  0
  2  1  1  0  0  0  0
  2  5  1  0  0  0  0
  2 27  1  1  0  0  0
  3  4  1  0  0  0  0
  3  9  1  1  0  0  0
  5  4  1  0  0  0  0
  6 10  2  0  0  0  0
  7 12  1  0  0  0  0
  9 11  2  0  0  0  0
 11 10  1  0  0  0  0
 11  8  1  0  0  0  0
 12  6  1  0  0  0  0
 13  7  2  0  0  0  0
 13  9  1  0  0  0  0
 14  7  1  0  0  0  0
 15 18  1  0  0  0  0
 16 21  1  0  0  0  0
 17 21  1  0  0  0  0
 18 17  2  0  0  0  0
 19 16  2  0  0  0  0
 20 15  2  0  0  0  0
 20 19  1  0  0  0  0
 21  2  1  0  0  0  0
 22 24  1  0  0  0  0
 22 15  1  0  0  0  0
 23 25  2  0  0  0  0
 23 26  1  0  0  0  0
 24 23  1  0  0  0  0
 27 28  1  0  0  0  0
 28 31  1  0  0  0  0
 30 32  1  0  0  0  0
 30 29  2  0  0  0  0
 31 30  1  0  0  0  0
M  END
>  <MODEL>
8

>  <REMARK>
 VINA RESULT:      -6.2      3.524      8.026
  Name = 
  7 active torsions:
  status: ('A' for Active; 'I' for Inactive)
    1  A    between atoms: C_2  and  C_13
    2  A    between atoms: C_2  and  N_32
    3  A    between atoms: C_6  and  C_17
    4  A    between atoms: C_7  and  C_12
    5  A    between atoms: C_11  and  C_13
    6  A    between atoms: C_11  and  N_26
    7  A    between atoms: C_17  and  N_18
                            x       y       z     vdW  Elec       q    Type
                         _______ _______ _______ _____ _____    ______ ____

>  <TORSDO>
F 7

$$$$
=
 OpenBabel10232408133D

 32 34  0  0  1  0  0  0  0  0999 V2000
  188.5640  176.2340  138.5370 O   0  0  0  0  0  0  0  0  0  0  0  0
  188.6260  177.5690  138.9860 C   0  0  2  0  0  0  0  0  0  0  0  0
  189.6350  176.0770  137.6440 C   0  0  2  0  0  3  0  0  0  0  0  0
  189.9010  177.3870  136.9500 C   0  0  0  0  0  2  0  0  0  0  0  0
  189.3010  178.3940  137.8850 C   0  0  0  0  0  2  0  0  0  0  0  0
  189.1920  172.3330  135.1000 N   0  0  0  0  0  0  0  0  0  0  0  0
  187.4450  173.8670  135.6870 C   0  0  0  0  0  0  0  0  0  0  0  0
  192.0770  174.2540  136.9860 S   0  0  0  0  0  1  0  0  0  0  0  0
  189.4120  174.9390  136.6850 C   0  0  0  0  0  0  0  0  0  0  0  0
  190.2740  173.0150  135.3150 C   0  0  0  0  0  3  0  0  0  0  0  0
  190.4110  174.0800  136.3320 C   0  0  0  0  0  0  0  0  0  0  0  0
  187.9750  172.4920  135.8770 C   0  0  0  0  0  2  0  0  0  0  0  0
  188.1050  174.9110  136.0830 N   0  0  0  0  0  0  0  0  0  0  0  0
  185.8650  174.0750  134.9630 Cl  0  0  0  0  0  0  0  0  0  0  0  0
  190.1530  177.2560  143.2510 C   0  0  0  0  0  0  0  0  0  0  0  0
  190.8180  177.5500  140.2060 C   0  0  0  0  0  3  0  0  0  0  0  0
  188.6590  178.1040  141.4010 C   0  0  0  0  0  3  0  0  0  0  0  0
  188.9910  177.9460  142.6790 C   0  0  0  0  0  3  0  0  0  0  0  0
  191.6390  177.2890  141.2190 C   0  0  0  0  0  3  0  0  0  0  0  0
  191.2950  177.0110  142.6160 C   0  0  0  0  0  3  0  0  0  0  0  0
  189.3830  177.6240  140.2560 N   0  0  0  0  0  0  0  0  0  0  0  0
  190.0920  176.9140  144.7020 C   0  0  0  0  0  2  0  0  0  0  0  0
  188.5650  177.2970  146.6900 C   0  0  0  0  0  0  0  0  0  0  0  0
  188.8580  177.4130  145.2950 N   0  0  0  0  0  2  0  0  0  0  0  0
  187.3870  177.8350  147.1900 O   0  0  0  0  0  0  0  0  0  0  0  0
  189.3600  176.7070  147.4680 O   0  0  0  0  0  1  0  0  0  0  0  0
  187.1860  178.0650  139.1830 C   0  0  0  0  0  2  0  0  0  0  0  0
  186.3700  178.1170  137.8970 C   0  0  0  0  0  2  0  0  0  0  0  0
  182.8990  178.2280  139.0340 O   0  0  0  0  0  0  0  0  0  0  0  0
  184.0770  178.6100  138.8160 C   0  0  0  0  0  0  0  0  0  0  0  0
  184.9960  177.7300  138.1700 N   0  0  0  0  0  2  0  0  0  0  0  0
  184.4820  179.9140  139.2200 N   0  0  0  0  0  1  0  0  0  0  0  0
  1  2  1  0  0  0  0
  2 27  1  1  0  0  0
  2 21  1  0  0  0  0
  3  9  1  6  0  0  0
  3  1  1  0  0  0  0
  4  3  1  0  0  0  0
  4  5  1  0  0  0  0
  5  2  1  0  0  0  0
  6 10  2  0  0  0  0
  6 12  1  0  0  0  0
  7 12  1  0  0  0  0
  7 13  2  0  0  0  0
 10 11  1  0  0  0  0
 11  9  2  0  0  0  0
 11  8  1  0  0  0  0
 13  9  1  0  0  0  0
 14  7  1  0  0  0  0
 15 22  1  0  0  0  0
 16 21  1  0  0  0  0
 16 19  2  0  0  0  0
 17 18  2  0  0  0  0
 18 15  1  0  0  0  0
 19 20  1  0  0  0  0
 20 15  2  0  0  0  0
 21 17  1  0  0  0  0
 22 24  1  0  0  0  0
 23 25  2  0  0  0  0
 23 26  1  0  0  0  0
 24 23  1  0  0  0  0
 28 31  1  0  0  0  0
 28 27  1  0  0  0  0
 30 29  2  0  0  0  0
 30 32  1  0  0  0  0
 31 30  1  0  0  0  0
M  END
>  <MODEL>
9

>  <REMARK>
 VINA RESULT:      -6.1      2.936      4.685
  Name = 
  7 active torsions:
  status: ('A' for Active; 'I' for Inactive)
    1  A    between atoms: C_2  and  C_13
    2  A    between atoms: C_2  and  N_32
    3  A    between atoms: C_6  and  C_17
    4  A    between atoms: C_7  and  C_12
    5  A    between atoms: C_11  and  C_13
    6  A    between atoms: C_11  and  N_26
    7  A    between atoms: C_17  and  N_18
                            x       y       z     vdW  Elec       q    Type
                         _______ _______ _______ _____ _____    ______ ____

>  <TORSDO>
F 7

$$$$
