=
 OpenBabel10232411223D

 37 41  0  0  1  0  0  0  0  0999 V2000
  186.6290  178.5230  147.6680 C   0  0  0  0  0  3  0  0  0  0  0  0
  184.6700  178.3000  143.4580 C   0  0  0  0  0  3  0  0  0  0  0  0
  185.5880  178.7260  139.6780 C   0  0  1  0  0  3  0  0  0  0  0  0
  189.4030  177.6050  141.6080 C   0  0  1  0  0  3  0  0  0  0  0  0
  186.8870  178.3970  146.3040 C   0  0  0  0  0  0  0  0  0  0  0  0
  186.8330  178.1010  139.5690 O   0  0  0  0  0  0  0  0  0  0  0  0
  187.3490  177.8160  148.5740 N   0  0  0  0  0  0  0  0  0  0  0  0
  188.6300  176.8300  146.8620 N   0  0  0  0  0  0  0  0  0  0  0  0
  187.9300  177.4960  145.9070 C   0  0  0  0  0  0  0  0  0  0  0  0
  184.8480  178.4570  138.5250 O   0  0  0  0  0  1  0  0  0  0  0  0
  190.1220  177.8230  142.9300 C   0  0  0  0  0  2  0  0  0  0  0  0
  187.7130  178.9700  140.2180 C   0  0  0  0  0  2  0  0  0  0  0  0
  184.8750  178.6370  144.7600 C   0  0  0  0  0  3  0  0  0  0  0  0
  185.6120  178.4950  142.2450 C   0  0  1  0  0  3  0  0  0  0  0  0
  188.2400  177.2370  144.4810 C   0  0  1  0  0  3  0  0  0  0  0  0
  188.3450  176.9810  148.1810 C   0  0  0  0  0  3  0  0  0  0  0  0
  187.2130  177.4190  143.6870 C   0  0  0  0  0  2  0  0  0  0  0  0
  186.9320  177.6410  142.2610 C   0  0  2  0  0  3  0  0  0  0  0  0
  189.6070  176.8660  143.9950 C   0  0  0  0  0  2  0  0  0  0  0  0
  184.8260  178.2490  140.9280 C   0  0  1  0  0  3  0  0  0  0  0  0
  188.0920  178.4230  141.5990 C   0  0  1  0  0  3  0  0  0  0  0  0
  186.1130  179.2950  145.3410 C   0  0  0  0  0  2  0  0  0  0  0  0
  190.3830  177.9500  140.4870 C   0  0  0  0  0  2  0  0  0  0  0  0
  191.2400  176.7490  140.0810 C   0  0  0  0  0  2  0  0  0  0  0  0
  191.2320  176.4530  138.5770 C   0  0  1  0  0  3  0  0  0  0  0  0
  193.5940  176.7130  138.8480 O   0  0  0  0  0  1  0  0  0  0  0  0
  192.6180  176.1330  138.0380 C   0  0  0  0  0  2  0  0  0  0  0  0
  190.3130  175.3700  138.2680 N   0  0  0  0  0  2  0  0  0  0  0  0
  189.7070  175.6760  136.9840 C   0  0  0  0  0  2  0  0  0  0  0  0
  189.0260  177.0260  137.0580 C   0  0  0  0  0  1  0  0  0  0  0  0
  183.4640  178.9450  140.9560 C   0  0  0  0  0  2  0  0  0  0  0  0
  180.1610  176.4800  139.8730 N   0  0  0  0  0  2  0  0  0  0  0  0
  182.6010  176.7200  139.9400 C   0  0  0  0  0  2  0  0  0  0  0  0
  182.3610  177.9520  140.7820 C   0  0  0  0  0  0  0  0  0  0  0  0
  179.9960  177.2780  141.0870 C   0  0  0  0  0  2  0  0  0  0  0  0
  181.4200  175.7470  139.9920 C   0  0  0  0  0  2  0  0  0  0  0  0
  181.1370  178.2440  141.2510 C   0  0  0  0  0  3  0  0  0  0  0  0
  1  7  1  0  0  0  0
  2 13  2  0  0  0  0
  3 10  1  6  0  0  0
  3 20  1  0  0  0  0
  4 23  1  6  0  0  0
  4 11  1  0  0  0  0
  5  1  2  0  0  0  0
  6  3  1  0  0  0  0
  6 12  1  0  0  0  0
  8 16  1  0  0  0  0
  9  5  1  0  0  0  0
  9  8  2  0  0  0  0
 11 19  1  0  0  0  0
 13 22  1  0  0  0  0
 14 18  1  0  0  0  0
 14  2  1  1  0  0  0
 15 17  1  6  0  0  0
 15  9  1  0  0  0  0
 16  7  2  0  0  0  0
 18 17  1  1  0  0  0
 19 15  1  0  0  0  0
 20 31  1  1  0  0  0
 20 14  1  0  0  0  0
 21 12  1  6  0  0  0
 21  4  1  0  0  0  0
 21 18  1  0  0  0  0
 22  5  1  0  0  0  0
 24 23  1  0  0  0  0
 25 27  1  1  0  0  0
 25 24  1  0  0  0  0
 27 26  1  0  0  0  0
 28 25  1  0  0  0  0
 29 30  1  0  0  0  0
 29 28  1  0  0  0  0
 32 36  1  0  0  0  0
 32 35  1  0  0  0  0
 33 36  1  0  0  0  0
 33 34  1  0  0  0  0
 34 31  1  0  0  0  0
 34 37  2  0  0  0  0
 35 37  1  0  0  0  0
M  END
>  <MODEL>
1

>  <REMARK>
 VINA RESULT:      -7.5      0.000      0.000
  Name = 
  8 active torsions:
  status: ('A' for Active; 'I' for Inactive)
    1  A    between atoms: N_3  and  C_9
    2  A    between atoms: N_3  and  CA_14
    3  A    between atoms: C_5  and  C_20
    4  A    between atoms: C_6  and  CA_14
    5  A    between atoms: C_6  and  C_20
    6  A    between atoms: CA_14  and  C_30
    7  A    between atoms: C_22  and  C_29
    8  A    between atoms: C_29  and  C_34
                            x       y       z     vdW  Elec       q    Type
                         _______ _______ _______ _____ _____    ______ ____

>  <TORSDO>
F 8

$$$$
=
 OpenBabel10232411223D

 37 41  0  0  1  0  0  0  0  0999 V2000
  183.7610  179.6510  143.0970 C   0  0  0  0  0  3  0  0  0  0  0  0
  186.9970  177.9390  140.2320 C   0  0  0  0  0  3  0  0  0  0  0  0
  190.8640  177.3700  140.0470 C   0  0  1  0  0  3  0  0  0  0  0  0
  189.9720  177.4050  144.3760 C   0  0  1  0  0  3  0  0  0  0  0  0
  185.0660  179.1710  143.0220 C   0  0  0  0  0  0  0  0  0  0  0  0
  191.1930  176.9200  141.3290 O   0  0  0  0  0  0  0  0  0  0  0  0
  182.9740  179.3470  144.1590 N   0  0  0  0  0  0  0  0  0  0  0  0
  184.7050  178.0940  145.1480 N   0  0  0  0  0  0  0  0  0  0  0  0
  185.5340  178.3480  144.1000 C   0  0  0  0  0  0  0  0  0  0  0  0
  191.6390  176.6750  139.1160 O   0  0  0  0  0  1  0  0  0  0  0  0
  189.0220  178.0970  145.3410 C   0  0  0  0  0  2  0  0  0  0  0  0
  191.0680  178.0550  142.1340 C   0  0  0  0  0  2  0  0  0  0  0  0
  185.9390  178.6660  140.6820 C   0  0  0  0  0  3  0  0  0  0  0  0
  188.4480  177.9020  140.7700 C   0  0  1  0  0  3  0  0  0  0  0  0
  186.8810  177.7310  144.0880 C   0  0  1  0  0  3  0  0  0  0  0  0
  183.4390  178.5820  145.1800 C   0  0  0  0  0  3  0  0  0  0  0  0
  187.3450  177.5280  142.8790 C   0  0  0  0  0  2  0  0  0  0  0  0
  188.6290  177.2830  142.2040 C   0  0  2  0  0  3  0  0  0  0  0  0
  187.6550  177.4290  145.3340 C   0  0  0  0  0  2  0  0  0  0  0  0
  189.3660  177.1750  139.7490 C   0  0  1  0  0  3  0  0  0  0  0  0
  189.7780  177.9930  142.9600 C   0  0  1  0  0  3  0  0  0  0  0  0
  185.9350  179.6320  141.8530 C   0  0  0  0  0  2  0  0  0  0  0  0
  191.3860  177.5420  144.9400 C   0  0  0  0  0  2  0  0  0  0  0  0
  191.8800  176.2410  145.5770 C   0  0  0  0  0  2  0  0  0  0  0  0
  191.5230  176.0960  147.0610 C   0  0  1  0  0  3  0  0  0  0  0  0
  193.2330  176.5250  148.6780 O   0  0  0  0  0  1  0  0  0  0  0  0
  192.6700  175.5270  147.8840 C   0  0  0  0  0  2  0  0  0  0  0  0
  191.0940  177.3690  147.6170 N   0  0  0  0  0  2  0  0  0  0  0  0
  189.7620  177.1700  148.1620 C   0  0  0  0  0  2  0  0  0  0  0  0
  189.2940  178.4470  148.8250 C   0  0  0  0  0  1  0  0  0  0  0  0
  189.0930  177.6520  138.3210 C   0  0  0  0  0  2  0  0  0  0  0  0
  187.7290  174.7790  135.4840 N   0  0  0  0  0  2  0  0  0  0  0  0
  189.1560  175.2160  137.4310 C   0  0  0  0  0  2  0  0  0  0  0  0
  188.4700  176.5610  137.5110 C   0  0  0  0  0  0  0  0  0  0  0  0
  186.7480  175.7740  135.9140 C   0  0  0  0  0  2  0  0  0  0  0  0
  188.3090  174.1810  136.6850 C   0  0  0  0  0  2  0  0  0  0  0  0
  187.3980  176.8390  136.7540 C   0  0  0  0  0  3  0  0  0  0  0  0
  1  7  1  0  0  0  0
  2 13  2  0  0  0  0
  3 10  1  6  0  0  0
  3  6  1  0  0  0  0
  4 23  1  1  0  0  0
  4 11  1  0  0  0  0
  5  1  2  0  0  0  0
  5  9  1  0  0  0  0
  6 12  1  0  0  0  0
  7 16  2  0  0  0  0
  8 16  1  0  0  0  0
  9  8  2  0  0  0  0
 13 22  1  0  0  0  0
 14  2  1  6  0  0  0
 14 18  1  0  0  0  0
 15 17  1  6  0  0  0
 15  9  1  0  0  0  0
 15 19  1  0  0  0  0
 18 17  1  1  0  0  0
 18 21  1  0  0  0  0
 19 11  1  0  0  0  0
 20 31  1  6  0  0  0
 20  3  1  0  0  0  0
 20 14  1  0  0  0  0
 21 12  1  6  0  0  0
 21  4  1  0  0  0  0
 22  5  1  0  0  0  0
 23 24  1  0  0  0  0
 25 24  1  6  0  0  0
 25 28  1  0  0  0  0
 25 27  1  0  0  0  0
 27 26  1  0  0  0  0
 28 29  1  0  0  0  0
 29 30  1  0  0  0  0
 32 35  1  0  0  0  0
 32 36  1  0  0  0  0
 33 34  1  0  0  0  0
 34 31  1  0  0  0  0
 35 37  1  0  0  0  0
 36 33  1  0  0  0  0
 37 34  2  0  0  0  0
M  END
>  <MODEL>
2

>  <REMARK>
 VINA RESULT:      -7.4      2.786      6.320
  Name = 
  8 active torsions:
  status: ('A' for Active; 'I' for Inactive)
    1  A    between atoms: N_3  and  C_9
    2  A    between atoms: N_3  and  CA_14
    3  A    between atoms: C_5  and  C_20
    4  A    between atoms: C_6  and  CA_14
    5  A    between atoms: C_6  and  C_20
    6  A    between atoms: CA_14  and  C_30
    7  A    between atoms: C_22  and  C_29
    8  A    between atoms: C_29  and  C_34
                            x       y       z     vdW  Elec       q    Type
                         _______ _______ _______ _____ _____    ______ ____

>  <TORSDO>
F 8

$$$$
=
 OpenBabel10232411223D

 37 41  0  0  1  0  0  0  0  0999 V2000
  187.9000  176.7120  136.5950 C   0  0  0  0  0  3  0  0  0  0  0  0
  183.8970  178.4890  138.1550 C   0  0  0  0  0  3  0  0  0  0  0  0
  181.8570  178.8720  141.4720 C   0  0  1  0  0  3  0  0  0  0  0  0
  186.0560  178.5200  142.8070 C   0  0  1  0  0  3  0  0  0  0  0  0
  187.2140  177.1290  137.7340 C   0  0  0  0  0  0  0  0  0  0  0  0
  182.8300  179.1950  142.4220 O   0  0  0  0  0  0  0  0  0  0  0  0
  189.2250  176.9660  136.4570 N   0  0  0  0  0  0  0  0  0  0  0  0
  189.2900  178.0410  138.5510 N   0  0  0  0  0  0  0  0  0  0  0  0
  187.9590  177.8330  138.7370 C   0  0  0  0  0  0  0  0  0  0  0  0
  180.6990  179.6010  141.7510 O   0  0  0  0  0  1  0  0  0  0  0  0
  187.3300  177.8000  142.3940 C   0  0  0  0  0  2  0  0  0  0  0  0
  183.5370  178.0040  142.6090 C   0  0  0  0  0  2  0  0  0  0  0  0
  184.7750  177.7820  137.3930 C   0  0  0  0  0  3  0  0  0  0  0  0
  183.6510  178.4060  139.6810 C   0  0  1  0  0  3  0  0  0  0  0  0
  187.3140  178.3790  139.9540 C   0  0  1  0  0  3  0  0  0  0  0  0
  189.9190  177.6180  137.4240 C   0  0  0  0  0  3  0  0  0  0  0  0
  186.0440  178.6590  139.7850 C   0  0  0  0  0  2  0  0  0  0  0  0
  184.8370  178.8920  140.5920 C   0  0  2  0  0  3  0  0  0  0  0  0
  188.0290  178.5350  141.2600 C   0  0  0  0  0  2  0  0  0  0  0  0
  182.3460  179.1680  140.0430 C   0  0  1  0  0  3  0  0  0  0  0  0
  184.8930  178.0640  141.8980 C   0  0  1  0  0  3  0  0  0  0  0  0
  185.7480  176.7230  137.8790 C   0  0  0  0  0  2  0  0  0  0  0  0
  185.8430  178.2640  144.2990 C   0  0  0  0  0  2  0  0  0  0  0  0
  186.8990  177.3200  144.8780 C   0  0  0  0  0  2  0  0  0  0  0  0
  187.7660  177.9480  145.9760 C   0  0  1  0  0  3  0  0  0  0  0  0
  187.9580  178.4140  148.3140 O   0  0  0  0  0  1  0  0  0  0  0  0
  187.0990  177.9000  147.3430 C   0  0  0  0  0  2  0  0  0  0  0  0
  189.0710  177.3100  146.0340 N   0  0  0  0  0  2  0  0  0  0  0  0
  189.9130  177.9690  145.0520 C   0  0  0  0  0  2  0  0  0  0  0  0
  191.0970  177.0830  144.7290 C   0  0  0  0  0  1  0  0  0  0  0  0
  181.2170  178.8270  139.0680 C   0  0  0  0  0  2  0  0  0  0  0  0
  180.9190  182.2960  136.6100 N   0  0  0  0  0  2  0  0  0  0  0  0
  180.7320  179.8530  136.7360 C   0  0  0  0  0  2  0  0  0  0  0  0
  180.8660  180.0160  138.2320 C   0  0  0  0  0  0  0  0  0  0  0  0
  180.4870  182.4530  137.9980 C   0  0  0  0  0  2  0  0  0  0  0  0
  180.2270  181.1310  136.0600 C   0  0  0  0  0  2  0  0  0  0  0  0
  180.8240  181.2290  138.8060 C   0  0  0  0  0  3  0  0  0  0  0  0
  1  5  1  0  0  0  0
  3 10  1  1  0  0  0
  3  6  1  0  0  0  0
  4 23  1  1  0  0  0
  5 22  1  0  0  0  0
  5  9  2  0  0  0  0
  6 12  1  0  0  0  0
  7  1  2  0  0  0  0
  7 16  1  0  0  0  0
  8  9  1  0  0  0  0
  9 15  1  0  0  0  0
 11  4  1  0  0  0  0
 13 22  1  0  0  0  0
 13  2  2  0  0  0  0
 14  2  1  6  0  0  0
 14 20  1  0  0  0  0
 14 18  1  0  0  0  0
 15 17  1  1  0  0  0
 15 19  1  0  0  0  0
 16  8  2  0  0  0  0
 18 17  1  6  0  0  0
 18 21  1  0  0  0  0
 19 11  1  0  0  0  0
 20 31  1  6  0  0  0
 20  3  1  0  0  0  0
 21 12  1  1  0  0  0
 21  4  1  0  0  0  0
 23 24  1  0  0  0  0
 25 24  1  6  0  0  0
 25 28  1  0  0  0  0
 25 27  1  0  0  0  0
 27 26  1  0  0  0  0
 29 28  1  0  0  0  0
 30 29  1  0  0  0  0
 32 35  1  0  0  0  0
 33 34  1  0  0  0  0
 34 37  2  0  0  0  0
 34 31  1  0  0  0  0
 35 37  1  0  0  0  0
 36 32  1  0  0  0  0
 36 33  1  0  0  0  0
M  END
>  <MODEL>
3

>  <REMARK>
 VINA RESULT:      -7.2      3.103      6.831
  Name = 
  8 active torsions:
  status: ('A' for Active; 'I' for Inactive)
    1  A    between atoms: N_3  and  C_9
    2  A    between atoms: N_3  and  CA_14
    3  A    between atoms: C_5  and  C_20
    4  A    between atoms: C_6  and  CA_14
    5  A    between atoms: C_6  and  C_20
    6  A    between atoms: CA_14  and  C_30
    7  A    between atoms: C_22  and  C_29
    8  A    between atoms: C_29  and  C_34
                            x       y       z     vdW  Elec       q    Type
                         _______ _______ _______ _____ _____    ______ ____

>  <TORSDO>
F 8

$$$$
=
 OpenBabel10232411223D

 37 41  0  0  1  0  0  0  0  0999 V2000
  190.7550  176.2140  136.9660 C   0  0  0  0  0  3  0  0  0  0  0  0
  187.1070  178.4950  138.7280 C   0  0  0  0  0  3  0  0  0  0  0  0
  184.9900  178.7220  142.0110 C   0  0  1  0  0  3  0  0  0  0  0  0
  188.9440  177.2760  143.3590 C   0  0  1  0  0  3  0  0  0  0  0  0
  190.1000  176.5640  138.1460 C   0  0  0  0  0  0  0  0  0  0  0  0
  185.9500  178.6660  143.0260 O   0  0  0  0  0  0  0  0  0  0  0  0
  192.1100  176.2060  136.9070 N   0  0  0  0  0  0  0  0  0  0  0  0
  192.2640  176.8680  139.1620 N   0  0  0  0  0  0  0  0  0  0  0  0
  190.9100  176.9140  139.2760 C   0  0  0  0  0  0  0  0  0  0  0  0
  183.9890  179.6180  142.3900 O   0  0  0  0  0  1  0  0  0  0  0  0
  190.0680  176.3860  142.8520 C   0  0  0  0  0  2  0  0  0  0  0  0
  186.3890  177.3400  143.0120 C   0  0  0  0  0  2  0  0  0  0  0  0
  187.8680  177.7620  137.8720 C   0  0  0  0  0  3  0  0  0  0  0  0
  186.7570  178.2060  140.2080 C   0  0  1  0  0  3  0  0  0  0  0  0
  190.3160  177.3660  140.5570 C   0  0  1  0  0  3  0  0  0  0  0  0
  192.8610  176.5220  137.9920 C   0  0  0  0  0  3  0  0  0  0  0  0
  189.1420  177.9300  140.4110 C   0  0  0  0  0  2  0  0  0  0  0  0
  187.9600  178.2690  141.2190 C   0  0  2  0  0  3  0  0  0  0  0  0
  190.9690  177.1420  141.8860 C   0  0  0  0  0  2  0  0  0  0  0  0
  185.6140  179.1490  140.6700 C   0  0  1  0  0  3  0  0  0  0  0  0
  187.7700  177.2350  142.3550 C   0  0  1  0  0  3  0  0  0  0  0  0
  188.5770  176.4560  138.1810 C   0  0  0  0  0  2  0  0  0  0  0  0
  188.5940  176.8170  144.7740 C   0  0  0  0  0  2  0  0  0  0  0  0
  188.4830  177.9920  145.7490 C   0  0  0  0  0  2  0  0  0  0  0  0
  189.0720  177.7130  147.1360 C   0  0  1  0  0  3  0  0  0  0  0  0
  186.8470  178.3170  147.7720 O   0  0  0  0  0  1  0  0  0  0  0  0
  188.0130  177.7030  148.2280 C   0  0  0  0  0  2  0  0  0  0  0  0
  189.8080  176.4590  147.1430 N   0  0  0  0  0  2  0  0  0  0  0  0
  191.2010  176.7820  147.3950 C   0  0  0  0  0  2  0  0  0  0  0  0
  192.0870  175.8320  146.6190 C   0  0  0  0  0  1  0  0  0  0  0  0
  184.5000  179.2250  139.6240 C   0  0  0  0  0  2  0  0  0  0  0  0
  182.4120  175.6890  138.4850 N   0  0  0  0  0  2  0  0  0  0  0  0
  184.2830  177.2030  138.0140 C   0  0  0  0  0  2  0  0  0  0  0  0
  183.9570  177.8630  139.3340 C   0  0  0  0  0  0  0  0  0  0  0  0
  182.4910  175.9550  139.9210 C   0  0  0  0  0  2  0  0  0  0  0  0
  183.7690  175.7630  137.9470 C   0  0  0  0  0  2  0  0  0  0  0  0
  183.0710  177.3180  140.1820 C   0  0  0  0  0  3  0  0  0  0  0  0
  1  5  1  0  0  0  0
  3 10  1  1  0  0  0
  3  6  1  0  0  0  0
  4 23  1  1  0  0  0
  5 22  1  0  0  0  0
  5  9  2  0  0  0  0
  7  1  2  0  0  0  0
  7 16  1  0  0  0  0
  8  9  1  0  0  0  0
  9 15  1  0  0  0  0
 11  4  1  0  0  0  0
 12  6  1  0  0  0  0
 13 22  1  0  0  0  0
 13  2  2  0  0  0  0
 14  2  1  6  0  0  0
 14 20  1  0  0  0  0
 14 18  1  0  0  0  0
 15 17  1  1  0  0  0
 15 19  1  0  0  0  0
 16  8  2  0  0  0  0
 18 17  1  6  0  0  0
 18 21  1  0  0  0  0
 19 11  1  0  0  0  0
 20 31  1  6  0  0  0
 20  3  1  0  0  0  0
 21 12  1  1  0  0  0
 21  4  1  0  0  0  0
 23 24  1  0  0  0  0
 25 24  1  6  0  0  0
 25 28  1  0  0  0  0
 25 27  1  0  0  0  0
 26 27  1  0  0  0  0
 28 29  1  0  0  0  0
 30 29  1  0  0  0  0
 32 35  1  0  0  0  0
 33 34  1  0  0  0  0
 34 31  1  0  0  0  0
 34 37  2  0  0  0  0
 35 37  1  0  0  0  0
 36 33  1  0  0  0  0
 36 32  1  0  0  0  0
M  END
>  <MODEL>
4

>  <REMARK>
 VINA RESULT:      -7.2      2.306      6.628
  Name = 
  8 active torsions:
  status: ('A' for Active; 'I' for Inactive)
    1  A    between atoms: N_3  and  C_9
    2  A    between atoms: N_3  and  CA_14
    3  A    between atoms: C_5  and  C_20
    4  A    between atoms: C_6  and  CA_14
    5  A    between atoms: C_6  and  C_20
    6  A    between atoms: CA_14  and  C_30
    7  A    between atoms: C_22  and  C_29
    8  A    between atoms: C_29  and  C_34
                            x       y       z     vdW  Elec       q    Type
                         _______ _______ _______ _____ _____    ______ ____

>  <TORSDO>
F 8

$$$$
=
 OpenBabel10232411223D

 37 41  0  0  1  0  0  0  0  0999 V2000
  191.6420  175.3660  136.7590 C   0  0  0  0  0  3  0  0  0  0  0  0
  187.8030  177.8380  137.6360 C   0  0  0  0  0  3  0  0  0  0  0  0
  185.3970  178.7250  140.5910 C   0  0  1  0  0  3  0  0  0  0  0  0
  189.2440  177.7920  142.5580 C   0  0  1  0  0  3  0  0  0  0  0  0
  190.8770  175.9500  137.7670 C   0  0  0  0  0  0  0  0  0  0  0  0
  186.2620  178.9430  141.6670 O   0  0  0  0  0  0  0  0  0  0  0  0
  192.9970  175.4000  136.8150 N   0  0  0  0  0  0  0  0  0  0  0  0
  192.9350  176.5690  138.8590 N   0  0  0  0  0  0  0  0  0  0  0  0
  191.5750  176.5840  138.8480 C   0  0  0  0  0  0  0  0  0  0  0  0
  184.3470  179.6420  140.6680 O   0  0  0  0  0  1  0  0  0  0  0  0
  190.4280  176.8570  142.3660 C   0  0  0  0  0  2  0  0  0  0  0  0
  186.7290  177.6690  141.9970 C   0  0  0  0  0  2  0  0  0  0  0  0
  188.6540  176.9590  137.0390 C   0  0  0  0  0  3  0  0  0  0  0  0
  187.3290  177.8810  139.1090 C   0  0  1  0  0  3  0  0  0  0  0  0
  190.8600  177.2930  139.9350 C   0  0  1  0  0  3  0  0  0  0  0  0
  193.6420  175.9890  137.8550 C   0  0  0  0  0  3  0  0  0  0  0  0
  189.6910  177.7590  139.5660 C   0  0  0  0  0  2  0  0  0  0  0  0
  188.4350  178.2250  140.1730 C   0  0  2  0  0  3  0  0  0  0  0  0
  191.3950  177.4080  141.3280 C   0  0  0  0  0  2  0  0  0  0  0  0
  186.1290  178.8580  139.2440 C   0  0  1  0  0  3  0  0  0  0  0  0
  188.1660  177.4730  141.4980 C   0  0  1  0  0  3  0  0  0  0  0  0
  189.3590  175.7900  137.7010 C   0  0  0  0  0  2  0  0  0  0  0  0
  188.7780  177.6570  144.0080 C   0  0  0  0  0  2  0  0  0  0  0  0
  189.9480  177.6930  144.9940 C   0  0  0  0  0  2  0  0  0  0  0  0
  189.6130  177.1390  146.3840 C   0  0  1  0  0  3  0  0  0  0  0  0
  191.9750  176.7660  146.3190 O   0  0  0  0  0  1  0  0  0  0  0  0
  190.8320  176.5700  147.0940 C   0  0  0  0  0  2  0  0  0  0  0  0
  188.9840  178.1570  147.2090 N   0  0  0  0  0  2  0  0  0  0  0  0
  187.7020  177.6280  147.6390 C   0  0  0  0  0  2  0  0  0  0  0  0
  186.5900  178.3230  146.8820 C   0  0  0  0  0  1  0  0  0  0  0  0
  185.1120  178.6450  138.1210 C   0  0  0  0  0  2  0  0  0  0  0  0
  182.7650  175.0900  138.0140 N   0  0  0  0  0  2  0  0  0  0  0  0
  184.8580  176.1810  137.3500 C   0  0  0  0  0  2  0  0  0  0  0  0
  184.4440  177.3150  138.2590 C   0  0  0  0  0  0  0  0  0  0  0  0
  182.6830  175.8770  139.2430 C   0  0  0  0  0  2  0  0  0  0  0  0
  184.1800  174.8620  137.7270 C   0  0  0  0  0  2  0  0  0  0  0  0
  183.3910  177.1950  139.0830 C   0  0  0  0  0  3  0  0  0  0  0  0
  1  7  2  0  0  0  0
  1  5  1  0  0  0  0
  3 10  1  6  0  0  0
  3  6  1  0  0  0  0
  4 23  1  1  0  0  0
  5  9  2  0  0  0  0
  6 12  1  0  0  0  0
  7 16  1  0  0  0  0
  9  8  1  0  0  0  0
  9 15  1  0  0  0  0
 11  4  1  0  0  0  0
 13  2  2  0  0  0  0
 13 22  1  0  0  0  0
 14  2  1  6  0  0  0
 14 20  1  0  0  0  0
 14 18  1  0  0  0  0
 15 17  1  1  0  0  0
 15 19  1  0  0  0  0
 16  8  2  0  0  0  0
 18 17  1  6  0  0  0
 18 21  1  0  0  0  0
 19 11  1  0  0  0  0
 20 31  1  6  0  0  0
 20  3  1  0  0  0  0
 21 12  1  1  0  0  0
 21  4  1  0  0  0  0
 22  5  1  0  0  0  0
 23 24  1  0  0  0  0
 25 24  1  6  0  0  0
 25 27  1  0  0  0  0
 25 28  1  0  0  0  0
 26 27  1  0  0  0  0
 28 29  1  0  0  0  0
 30 29  1  0  0  0  0
 31 34  1  0  0  0  0
 32 35  1  0  0  0  0
 33 36  1  0  0  0  0
 33 34  1  0  0  0  0
 34 37  2  0  0  0  0
 36 32  1  0  0  0  0
 37 35  1  0  0  0  0
M  END
>  <MODEL>
5

>  <REMARK>
 VINA RESULT:      -7.0      2.153      6.708
  Name = 
  8 active torsions:
  status: ('A' for Active; 'I' for Inactive)
    1  A    between atoms: N_3  and  C_9
    2  A    between atoms: N_3  and  CA_14
    3  A    between atoms: C_5  and  C_20
    4  A    between atoms: C_6  and  CA_14
    5  A    between atoms: C_6  and  C_20
    6  A    between atoms: CA_14  and  C_30
    7  A    between atoms: C_22  and  C_29
    8  A    between atoms: C_29  and  C_34
                            x       y       z     vdW  Elec       q    Type
                         _______ _______ _______ _____ _____    ______ ____

>  <TORSDO>
F 8

$$$$
=
 OpenBabel10232411223D

 37 41  0  0  1  0  0  0  0  0999 V2000
  192.6620  174.0810  136.4440 C   0  0  0  0  0  3  0  0  0  0  0  0
  188.7760  176.6330  136.4250 C   0  0  0  0  0  3  0  0  0  0  0  0
  186.2260  178.2630  138.9060 C   0  0  1  0  0  3  0  0  0  0  0  0
  189.9760  177.9760  141.2270 C   0  0  1  0  0  3  0  0  0  0  0  0
  191.8460  174.9080  137.2140 C   0  0  0  0  0  0  0  0  0  0  0  0
  187.0370  178.7850  139.9170 O   0  0  0  0  0  0  0  0  0  0  0  0
  194.0120  174.1520  136.5500 N   0  0  0  0  0  0  0  0  0  0  0  0
  193.8470  175.8400  138.1840 N   0  0  0  0  0  0  0  0  0  0  0  0
  192.4890  175.8280  138.1080 C   0  0  0  0  0  0  0  0  0  0  0  0
  185.1700  179.1470  138.6770 O   0  0  0  0  0  1  0  0  0  0  0  0
  191.1720  177.0450  141.3560 C   0  0  0  0  0  2  0  0  0  0  0  0
  187.4930  177.6600  140.6090 C   0  0  0  0  0  2  0  0  0  0  0  0
  189.6580  175.6380  136.1350 C   0  0  0  0  0  3  0  0  0  0  0  0
  188.2310  177.0750  137.8050 C   0  0  1  0  0  3  0  0  0  0  0  0
  191.7190  176.7980  138.9210 C   0  0  1  0  0  3  0  0  0  0  0  0
  194.6030  175.0160  137.4140 C   0  0  0  0  0  3  0  0  0  0  0  0
  190.5680  177.1240  138.3850 C   0  0  0  0  0  2  0  0  0  0  0  0
  189.2820  177.7180  138.7810 C   0  0  2  0  0  3  0  0  0  0  0  0
  192.1860  177.3030  140.2510 C   0  0  0  0  0  2  0  0  0  0  0  0
  187.0220  178.0300  137.6090 C   0  0  1  0  0  3  0  0  0  0  0  0
  188.9520  177.3580  140.2490 C   0  0  1  0  0  3  0  0  0  0  0  0
  190.3340  174.7100  137.1270 C   0  0  0  0  0  2  0  0  0  0  0  0
  189.4420  178.2400  142.6350 C   0  0  0  0  0  2  0  0  0  0  0  0
  190.5580  178.2490  143.6820 C   0  0  0  0  0  2  0  0  0  0  0  0
  190.3050  177.3180  144.8740 C   0  0  1  0  0  3  0  0  0  0  0  0
  191.8180  176.9500  146.6890 O   0  0  0  0  0  1  0  0  0  0  0  0
  191.5730  176.6290  145.3540 C   0  0  0  0  0  2  0  0  0  0  0  0
  189.6820  178.0400  145.9710 N   0  0  0  0  0  2  0  0  0  0  0  0
  188.4930  177.2980  146.3500 C   0  0  0  0  0  2  0  0  0  0  0  0
  187.2910  177.8720  145.6300 C   0  0  0  0  0  1  0  0  0  0  0  0
  186.0610  177.4970  136.5440 C   0  0  0  0  0  2  0  0  0  0  0  0
  183.7370  174.0070  137.3070 N   0  0  0  0  0  2  0  0  0  0  0  0
  185.9580  174.9180  136.8070 C   0  0  0  0  0  2  0  0  0  0  0  0
  185.3470  176.2810  137.0400 C   0  0  0  0  0  0  0  0  0  0  0  0
  183.3520  175.2090  138.0450 C   0  0  0  0  0  2  0  0  0  0  0  0
  185.1710  173.8060  137.5050 C   0  0  0  0  0  2  0  0  0  0  0  0
  184.1110  176.4090  137.5460 C   0  0  0  0  0  3  0  0  0  0  0  0
  1  7  2  0  0  0  0
  1  5  1  0  0  0  0
  3 10  1  6  0  0  0
  3  6  1  0  0  0  0
  4 11  1  0  0  0  0
  4 23  1  1  0  0  0
  5  9  2  0  0  0  0
  6 12  1  0  0  0  0
  7 16  1  0  0  0  0
  9  8  1  0  0  0  0
  9 15  1  0  0  0  0
 13  2  2  0  0  0  0
 13 22  1  0  0  0  0
 14  2  1  6  0  0  0
 14 18  1  0  0  0  0
 15 17  1  1  0  0  0
 15 19  1  0  0  0  0
 16  8  2  0  0  0  0
 18 17  1  6  0  0  0
 18 21  1  0  0  0  0
 19 11  1  0  0  0  0
 20 31  1  6  0  0  0
 20 14  1  0  0  0  0
 20  3  1  0  0  0  0
 21 12  1  1  0  0  0
 21  4  1  0  0  0  0
 22  5  1  0  0  0  0
 23 24  1  0  0  0  0
 25 24  1  6  0  0  0
 25 27  1  0  0  0  0
 25 28  1  0  0  0  0
 27 26  1  0  0  0  0
 28 29  1  0  0  0  0
 30 29  1  0  0  0  0
 31 34  1  0  0  0  0
 32 36  1  0  0  0  0
 32 35  1  0  0  0  0
 33 34  1  0  0  0  0
 33 36  1  0  0  0  0
 34 37  2  0  0  0  0
 37 35  1  0  0  0  0
M  END
>  <MODEL>
6

>  <REMARK>
 VINA RESULT:      -7.0      2.660      7.180
  Name = 
  8 active torsions:
  status: ('A' for Active; 'I' for Inactive)
    1  A    between atoms: N_3  and  C_9
    2  A    between atoms: N_3  and  CA_14
    3  A    between atoms: C_5  and  C_20
    4  A    between atoms: C_6  and  CA_14
    5  A    between atoms: C_6  and  C_20
    6  A    between atoms: CA_14  and  C_30
    7  A    between atoms: C_22  and  C_29
    8  A    between atoms: C_29  and  C_34
                            x       y       z     vdW  Elec       q    Type
                         _______ _______ _______ _____ _____    ______ ____

>  <TORSDO>
F 8

$$$$
=
 OpenBabel10232411223D

 37 41  0  0  1  0  0  0  0  0999 V2000
  194.2330  175.0070  137.7170 C   0  0  0  0  0  3  0  0  0  0  0  0
  190.5690  176.8850  139.8750 C   0  0  0  0  0  3  0  0  0  0  0  0
  187.0540  178.4100  139.0780 C   0  0  1  0  0  3  0  0  0  0  0  0
  187.8500  175.6770  135.6970 C   0  0  1  0  0  3  0  0  0  0  0  0
  192.8830  175.3280  137.5850 C   0  0  0  0  0  0  0  0  0  0  0  0
  186.5410  177.5600  138.0950 O   0  0  0  0  0  0  0  0  0  0  0  0
  194.7200  173.8510  137.2020 N   0  0  0  0  0  0  0  0  0  0  0  0
  192.5920  173.2590  136.3830 N   0  0  0  0  0  0  0  0  0  0  0  0
  192.0430  174.3930  136.8950 C   0  0  0  0  0  0  0  0  0  0  0  0
  186.0140  178.7940  139.9260 O   0  0  0  0  0  1  0  0  0  0  0  0
  189.0340  175.1910  134.8750 C   0  0  0  0  0  2  0  0  0  0  0  0
  187.2920  177.8580  136.9550 C   0  0  0  0  0  2  0  0  0  0  0  0
  191.8570  176.6500  139.5050 C   0  0  0  0  0  3  0  0  0  0  0  0
  189.3550  177.2530  138.9870 C   0  0  1  0  0  3  0  0  0  0  0  0
  190.5820  174.6040  136.7580 C   0  0  1  0  0  3  0  0  0  0  0  0
  193.9130  172.9850  136.5360 C   0  0  0  0  0  3  0  0  0  0  0  0
  190.0730  175.3340  137.7210 C   0  0  0  0  0  2  0  0  0  0  0  0
  188.8690  176.1330  137.9960 C   0  0  2  0  0  3  0  0  0  0  0  0
  189.7850  174.0850  135.6010 C   0  0  0  0  0  2  0  0  0  0  0  0
  188.1780  177.7300  139.8810 C   0  0  1  0  0  3  0  0  0  0  0  0
  188.3290  176.7610  136.6890 C   0  0  1  0  0  3  0  0  0  0  0  0
  192.4150  176.6900  138.0950 C   0  0  0  0  0  2  0  0  0  0  0  0
  186.7660  176.1350  134.7210 C   0  0  0  0  0  2  0  0  0  0  0  0
  185.5190  175.2500  134.7900 C   0  0  0  0  0  2  0  0  0  0  0  0
  185.0260  174.9730  136.2150 C   0  0  1  0  0  3  0  0  0  0  0  0
  182.6960  174.8390  136.7390 O   0  0  0  0  0  1  0  0  0  0  0  0
  183.7500  175.7320  136.5470 C   0  0  0  0  0  2  0  0  0  0  0  0
  184.8300  173.5490  136.4270 N   0  0  0  0  0  2  0  0  0  0  0  0
  185.6330  173.1730  137.5770 C   0  0  0  0  0  2  0  0  0  0  0  0
  186.8710  172.4380  137.1080 C   0  0  0  0  0  1  0  0  0  0  0  0
  188.6580  178.7040  140.9570 C   0  0  0  0  0  2  0  0  0  0  0  0
  188.2920  177.5820  145.0520 N   0  0  0  0  0  2  0  0  0  0  0  0
  187.2210  177.6600  142.8470 C   0  0  0  0  0  2  0  0  0  0  0  0
  188.5710  178.0790  142.3120 C   0  0  0  0  0  0  0  0  0  0  0  0
  189.6200  177.4270  144.4600 C   0  0  0  0  0  2  0  0  0  0  0  0
  187.3360  176.9080  144.1760 C   0  0  0  0  0  2  0  0  0  0  0  0
  189.6670  178.0370  143.0850 C   0  0  0  0  0  3  0  0  0  0  0  0
  3 20  1  0  0  0  0
  3 10  1  1  0  0  0
  4 23  1  6  0  0  0
  4 21  1  0  0  0  0
  5  1  1  0  0  0  0
  5 22  1  0  0  0  0
  6  3  1  0  0  0  0
  7  1  2  0  0  0  0
  8 16  2  0  0  0  0
  8  9  1  0  0  0  0
  9  5  2  0  0  0  0
 11 19  1  0  0  0  0
 11  4  1  0  0  0  0
 12  6  1  0  0  0  0
 13  2  2  0  0  0  0
 14  2  1  1  0  0  0
 14 20  1  0  0  0  0
 15 19  1  6  0  0  0
 15  9  1  0  0  0  0
 15 17  1  0  0  0  0
 16  7  1  0  0  0  0
 18 17  1  6  0  0  0
 18 14  1  0  0  0  0
 20 31  1  1  0  0  0
 21 12  1  1  0  0  0
 21 18  1  0  0  0  0
 22 13  1  0  0  0  0
 23 24  1  0  0  0  0
 25 24  1  6  0  0  0
 25 28  1  0  0  0  0
 25 27  1  0  0  0  0
 27 26  1  0  0  0  0
 28 29  1  0  0  0  0
 30 29  1  0  0  0  0
 31 34  1  0  0  0  0
 33 36  1  0  0  0  0
 34 33  1  0  0  0  0
 34 37  2  0  0  0  0
 35 32  1  0  0  0  0
 36 32  1  0  0  0  0
 37 35  1  0  0  0  0
M  END
>  <MODEL>
7

>  <REMARK>
 VINA RESULT:      -6.6      3.148      8.137
  Name = 
  8 active torsions:
  status: ('A' for Active; 'I' for Inactive)
    1  A    between atoms: N_3  and  C_9
    2  A    between atoms: N_3  and  CA_14
    3  A    between atoms: C_5  and  C_20
    4  A    between atoms: C_6  and  CA_14
    5  A    between atoms: C_6  and  C_20
    6  A    between atoms: CA_14  and  C_30
    7  A    between atoms: C_22  and  C_29
    8  A    between atoms: C_29  and  C_34
                            x       y       z     vdW  Elec       q    Type
                         _______ _______ _______ _____ _____    ______ ____

>  <TORSDO>
F 8

$$$$
=
 OpenBabel10232411223D

 37 41  0  0  1  0  0  0  0  0999 V2000
  190.7010  177.1200  147.4820 C   0  0  0  0  0  3  0  0  0  0  0  0
  186.9240  178.0230  144.9260 C   0  0  0  0  0  3  0  0  0  0  0  0
  185.9260  179.1370  141.3100 C   0  0  1  0  0  3  0  0  0  0  0  0
  189.8690  177.2050  140.8060 C   0  0  1  0  0  3  0  0  0  0  0  0
  190.2210  177.2590  146.1810 C   0  0  0  0  0  0  0  0  0  0  0  0
  186.7950  178.4120  140.4900 O   0  0  0  0  0  0  0  0  0  0  0  0
  191.6100  176.1590  147.7830 N   0  0  0  0  0  0  0  0  0  0  0  0
  191.6450  175.4210  145.5470 N   0  0  0  0  0  0  0  0  0  0  0  0
  190.7200  176.3510  145.1890 C   0  0  0  0  0  0  0  0  0  0  0  0
  184.6770  179.2060  140.6890 O   0  0  0  0  0  1  0  0  0  0  0  0
  191.1730  177.0530  141.5740 C   0  0  0  0  0  2  0  0  0  0  0  0
  188.0390  179.0180  140.6860 C   0  0  0  0  0  2  0  0  0  0  0  0
  187.8090  178.0490  145.9590 C   0  0  0  0  0  3  0  0  0  0  0  0
  187.1630  178.3630  143.4340 C   0  0  1  0  0  3  0  0  0  0  0  0
  190.2260  176.3680  143.7920 C   0  0  1  0  0  3  0  0  0  0  0  0
  192.0850  175.3200  146.8270 C   0  0  0  0  0  3  0  0  0  0  0  0
  189.0040  176.8300  143.6810 C   0  0  0  0  0  2  0  0  0  0  0  0
  188.1100  177.3810  142.6520 C   0  0  2  0  0  3  0  0  0  0  0  0
  191.0650  175.9560  142.6220 C   0  0  0  0  0  2  0  0  0  0  0  0
  185.7990  178.4940  142.7030 C   0  0  1  0  0  3  0  0  0  0  0  0
  188.9260  178.1490  141.5850 C   0  0  1  0  0  3  0  0  0  0  0  0
  189.2780  178.4240  145.8840 C   0  0  0  0  0  2  0  0  0  0  0  0
  190.2160  177.6670  139.3910 C   0  0  0  0  0  2  0  0  0  0  0  0
  189.7490  176.6690  138.3290 C   0  0  0  0  0  2  0  0  0  0  0  0
  188.6630  177.2140  137.3940 C   0  0  1  0  0  3  0  0  0  0  0  0
  187.9190  179.4610  137.0510 O   0  0  0  0  0  1  0  0  0  0  0  0
  188.9960  178.5970  136.8550 C   0  0  0  0  0  2  0  0  0  0  0  0
  188.4180  176.2950  136.2940 N   0  0  0  0  0  2  0  0  0  0  0  0
  188.0300  175.0230  136.8770 C   0  0  0  0  0  2  0  0  0  0  0  0
  186.5210  174.9540  136.9770 C   0  0  0  0  0  1  0  0  0  0  0  0
  184.8060  179.3180  143.5240 C   0  0  0  0  0  2  0  0  0  0  0  0
  180.6600  178.7040  142.7520 N   0  0  0  0  0  2  0  0  0  0  0  0
  182.9400  178.6500  141.8500 C   0  0  0  0  0  2  0  0  0  0  0  0
  183.4050  178.8600  143.2730 C   0  0  0  0  0  0  0  0  0  0  0  0
  181.1250  178.3440  144.0910 C   0  0  0  0  0  2  0  0  0  0  0  0
  181.5360  178.0430  141.7870 C   0  0  0  0  0  2  0  0  0  0  0  0
  182.5460  178.7890  144.3020 C   0  0  0  0  0  3  0  0  0  0  0  0
  1  7  1  0  0  0  0
  2 13  2  0  0  0  0
  3 10  1  6  0  0  0
  3 20  1  0  0  0  0
  4 23  1  6  0  0  0
  4 11  1  0  0  0  0
  4 21  1  0  0  0  0
  5  1  2  0  0  0  0
  6 12  1  0  0  0  0
  6  3  1  0  0  0  0
  8 16  1  0  0  0  0
  9  8  2  0  0  0  0
  9  5  1  0  0  0  0
 11 19  1  0  0  0  0
 14  2  1  1  0  0  0
 15 19  1  6  0  0  0
 15  9  1  0  0  0  0
 16  7  2  0  0  0  0
 17 15  1  0  0  0  0
 18 14  1  0  0  0  0
 18 17  1  1  0  0  0
 20 14  1  0  0  0  0
 20 31  1  1  0  0  0
 21 12  1  6  0  0  0
 21 18  1  0  0  0  0
 22 13  1  0  0  0  0
 22  5  1  0  0  0  0
 24 23  1  0  0  0  0
 25 27  1  6  0  0  0
 25 24  1  0  0  0  0
 27 26  1  0  0  0  0
 28 29  1  0  0  0  0
 28 25  1  0  0  0  0
 29 30  1  0  0  0  0
 32 35  1  0  0  0  0
 33 34  1  0  0  0  0
 34 31  1  0  0  0  0
 34 37  2  0  0  0  0
 35 37  1  0  0  0  0
 36 33  1  0  0  0  0
 36 32  1  0  0  0  0
M  END
>  <MODEL>
8

>  <REMARK>
 VINA RESULT:      -6.5      2.164      2.988
  Name = 
  8 active torsions:
  status: ('A' for Active; 'I' for Inactive)
    1  A    between atoms: N_3  and  C_9
    2  A    between atoms: N_3  and  CA_14
    3  A    between atoms: C_5  and  C_20
    4  A    between atoms: C_6  and  CA_14
    5  A    between atoms: C_6  and  C_20
    6  A    between atoms: CA_14  and  C_30
    7  A    between atoms: C_22  and  C_29
    8  A    between atoms: C_29  and  C_34
                            x       y       z     vdW  Elec       q    Type
                         _______ _______ _______ _____ _____    ______ ____

>  <TORSDO>
F 8

$$$$
=
 OpenBabel10232411223D

 37 41  0  0  1  0  0  0  0  0999 V2000
  190.6620  177.1420  147.5320 C   0  0  0  0  0  3  0  0  0  0  0  0
  186.9260  177.9960  144.9020 C   0  0  0  0  0  3  0  0  0  0  0  0
  185.9850  179.1320  141.2770 C   0  0  1  0  0  3  0  0  0  0  0  0
  189.9780  177.2880  140.8410 C   0  0  1  0  0  3  0  0  0  0  0  0
  190.2090  177.2860  146.2220 C   0  0  0  0  0  0  0  0  0  0  0  0
  186.8870  178.4360  140.4680 O   0  0  0  0  0  0  0  0  0  0  0  0
  191.5840  176.1960  147.8420 N   0  0  0  0  0  0  0  0  0  0  0  0
  191.6850  175.4860  145.5990 N   0  0  0  0  0  0  0  0  0  0  0  0
  190.7490  176.4000  145.2320 C   0  0  0  0  0  0  0  0  0  0  0  0
  184.7490  179.1820  140.6300 O   0  0  0  0  0  1  0  0  0  0  0  0
  191.2680  177.1540  141.6360 C   0  0  0  0  0  2  0  0  0  0  0  0
  188.1130  179.0640  140.7000 C   0  0  0  0  0  2  0  0  0  0  0  0
  187.7870  178.0290  145.9540 C   0  0  0  0  0  3  0  0  0  0  0  0
  187.1900  178.3590  143.4200 C   0  0  1  0  0  3  0  0  0  0  0  0
  190.2860  176.4230  143.8240 C   0  0  1  0  0  3  0  0  0  0  0  0
  192.0980  175.3780  146.8880 C   0  0  0  0  0  3  0  0  0  0  0  0
  189.0570  176.8610  143.6910 C   0  0  0  0  0  2  0  0  0  0  0  0
  188.1750  177.4070  142.6480 C   0  0  2  0  0  3  0  0  0  0  0  0
  191.1590  176.0430  142.6690 C   0  0  0  0  0  2  0  0  0  0  0  0
  185.8410  178.4700  142.6590 C   0  0  1  0  0  3  0  0  0  0  0  0
  188.9990  178.2040  141.6090 C   0  0  1  0  0  3  0  0  0  0  0  0
  189.2490  178.4340  145.9170 C   0  0  0  0  0  2  0  0  0  0  0  0
  190.3470  177.7750  139.4390 C   0  0  0  0  0  2  0  0  0  0  0  0
  190.0480  176.7230  138.3680 C   0  0  0  0  0  2  0  0  0  0  0  0
  191.2960  176.0480  137.7880 C   0  0  1  0  0  3  0  0  0  0  0  0
  193.5870  176.5440  137.3080 O   0  0  0  0  0  1  0  0  0  0  0  0
  192.5860  176.6970  138.2680 C   0  0  0  0  0  2  0  0  0  0  0  0
  191.3070  174.6280  138.0960 N   0  0  0  0  0  2  0  0  0  0  0  0
  191.1720  173.9160  136.8380 C   0  0  0  0  0  2  0  0  0  0  0  0
  189.7060  173.6890  136.5420 C   0  0  0  0  0  1  0  0  0  0  0  0
  184.8120  179.2640  143.4680 C   0  0  0  0  0  2  0  0  0  0  0  0
  180.7300  178.6040  142.4380 N   0  0  0  0  0  2  0  0  0  0  0  0
  183.0740  178.3960  141.7490 C   0  0  0  0  0  2  0  0  0  0  0  0
  183.4260  178.7940  143.1640 C   0  0  0  0  0  0  0  0  0  0  0  0
  181.0740  178.4260  143.8480 C   0  0  0  0  0  2  0  0  0  0  0  0
  181.6650  177.8050  141.6500 C   0  0  0  0  0  2  0  0  0  0  0  0
  182.4840  178.8770  144.1160 C   0  0  0  0  0  3  0  0  0  0  0  0
  1  7  1  0  0  0  0
  2 13  2  0  0  0  0
  3 10  1  6  0  0  0
  3 20  1  0  0  0  0
  4 23  1  6  0  0  0
  4 21  1  0  0  0  0
  4 11  1  0  0  0  0
  5  1  2  0  0  0  0
  6 12  1  0  0  0  0
  6  3  1  0  0  0  0
  8 16  1  0  0  0  0
  9  8  2  0  0  0  0
  9  5  1  0  0  0  0
 11 19  1  0  0  0  0
 14  2  1  1  0  0  0
 15 19  1  6  0  0  0
 15  9  1  0  0  0  0
 16  7  2  0  0  0  0
 17 15  1  0  0  0  0
 18 14  1  0  0  0  0
 18 17  1  1  0  0  0
 20 14  1  0  0  0  0
 20 31  1  1  0  0  0
 21 12  1  6  0  0  0
 21 18  1  0  0  0  0
 22 13  1  0  0  0  0
 22  5  1  0  0  0  0
 24 23  1  0  0  0  0
 25 28  1  0  0  0  0
 25 27  1  1  0  0  0
 25 24  1  0  0  0  0
 26 27  1  0  0  0  0
 29 28  1  0  0  0  0
 30 29  1  0  0  0  0
 32 35  1  0  0  0  0
 33 34  1  0  0  0  0
 34 31  1  0  0  0  0
 34 37  2  0  0  0  0
 35 37  1  0  0  0  0
 36 33  1  0  0  0  0
 36 32  1  0  0  0  0
M  END
>  <MODEL>
9

>  <REMARK>
 VINA RESULT:      -6.4      1.831      2.586
  Name = 
  8 active torsions:
  status: ('A' for Active; 'I' for Inactive)
    1  A    between atoms: N_3  and  C_9
    2  A    between atoms: N_3  and  CA_14
    3  A    between atoms: C_5  and  C_20
    4  A    between atoms: C_6  and  CA_14
    5  A    between atoms: C_6  and  C_20
    6  A    between atoms: CA_14  and  C_30
    7  A    between atoms: C_22  and  C_29
    8  A    between atoms: C_29  and  C_34
                            x       y       z     vdW  Elec       q    Type
                         _______ _______ _______ _____ _____    ______ ____

>  <TORSDO>
F 8

$$$$
