=
 OpenBabel10232412493D

 40 43  0  0  1  0  0  0  0  0999 V2000
  190.0570  177.1590  141.5320 N   0  0  0  0  0  0  0  0  0  0  0  0
  189.1820  177.7300  140.7530 C   0  0  0  0  0  0  0  0  0  0  0  0
  190.6420  176.0840  143.5770 C   0  0  0  0  0  2  0  0  0  0  0  0
  187.8000  177.9790  141.2170 C   0  0  0  0  0  0  0  0  0  0  0  0
  188.4140  177.1200  143.4780 C   0  0  1  0  0  3  0  0  0  0  0  0
  187.4390  177.6750  142.4700 C   0  0  0  0  0  3  0  0  0  0  0  0
  189.7500  176.7670  142.8730 C   0  0  0  0  0  0  0  0  0  0  0  0
  188.5130  177.9190  144.6430 O   0  0  0  0  0  0  0  0  0  0  0  0
  186.4010  178.3800  147.2640 C   0  0  1  0  0  3  0  0  0  0  0  0
  187.8240  178.6610  147.6850 C   0  0  0  0  0  2  0  0  0  0  0  0
  185.6860  179.5730  147.1820 O   0  0  0  0  0  1  0  0  0  0  0  0
  188.6510  177.5930  147.0090 C   0  0  0  0  0  2  0  0  0  0  0  0
  187.9180  177.2450  145.7260 C   0  0  1  0  0  3  0  0  0  0  0  0
  186.4880  177.7340  145.8960 C   0  0  0  0  0  2  0  0  0  0  0  0
  189.5340  178.1050  139.4510 O   0  0  0  0  0  0  0  0  0  0  0  0
  190.7900  177.7790  138.8630 C   0  0  0  0  0  2  0  0  0  0  0  0
  190.2340  175.4610  138.6090 O   0  0  0  0  0  1  0  0  0  0  0  0
  190.6460  176.6000  137.9110 C   0  0  2  0  0  3  0  0  0  0  0  0
  191.9770  174.9770  136.6690 N   0  0  0  0  0  1  0  0  0  0  0  0
  191.9500  176.3430  137.1600 C   0  0  2  0  0  3  0  0  0  0  0  0
  193.1720  176.5980  138.0280 C   0  0  0  0  0  1  0  0  0  0  0  0
  186.8490  178.5250  140.2950 N   0  0  0  0  0  2  0  0  0  0  0  0
  184.9350  178.5420  138.8250 C   0  0  0  0  0  0  0  0  0  0  0  0
  185.4600  178.3700  137.6440 N   0  0  0  0  0  0  0  0  0  0  0  0
  183.9430  180.7260  138.9040 N   0  0  0  0  0  1  0  0  0  0  0  0
  182.9750  178.8810  140.5860 S   0  0  0  0  0  0  0  0  0  0  0  0
  183.6700  179.3010  138.9640 C   0  0  2  0  0  3  0  0  0  0  0  0
  184.6130  178.4210  141.2320 C   0  0  0  0  0  2  0  0  0  0  0  0
  185.5110  177.9850  140.0850 C   0  0  2  0  0  3  0  0  0  0  0  0
  187.7530  178.1100  137.1950 O   0  0  0  0  0  0  0  0  0  0  0  0
  186.6160  177.5820  137.3190 C   0  0  0  0  0  0  0  0  0  0  0  0
  186.4830  176.1000  137.1570 C   0  0  2  0  0  3  0  0  0  0  0  0
  188.0130  174.3190  136.5080 N   0  0  0  0  0  1  0  0  0  0  0  0
  187.4500  175.5940  136.1000 C   0  0  0  0  0  2  0  0  0  0  0  0
  185.1210  175.7540  136.7740 N   0  0  0  0  0  2  0  0  0  0  0  0
  182.9690  175.3890  138.3310 S   0  0  0  0  0  0  0  0  0  0  0  0
  184.2850  174.8510  137.5110 C   0  0  0  0  0  0  0  0  0  0  0  0
  185.0240  172.8810  136.4220 O   0  0  0  0  0  0  0  0  0  0  0  0
  184.7140  173.4310  137.6810 C   0  0  2  0  0  3  0  0  0  0  0  0
  183.7850  172.5200  136.9750 C   0  0  0  0  0  2  0  0  0  0  0  0
  1  7  1  0  0  0  0
  2  4  1  0  0  0  0
  2  1  2  0  0  0  0
  4  6  2  0  0  0  0
  5  8  1  1  0  0  0
  6  5  1  0  0  0  0
  7  5  1  0  0  0  0
  7  3  2  0  0  0  0
  9 11  1  6  0  0  0
  9 10  1  0  0  0  0
 12 10  1  0  0  0  0
 13  8  1  6  0  0  0
 13 14  1  0  0  0  0
 13 12  1  0  0  0  0
 14  9  1  0  0  0  0
 15  2  1  0  0  0  0
 16 15  1  0  0  0  0
 18 17  1  1  0  0  0
 18 16  1  0  0  0  0
 19 20  1  0  0  0  0
 20 18  1  0  0  0  0
 20 21  1  1  0  0  0
 22  4  1  0  0  0  0
 23 27  1  0  0  0  0
 23 29  1  0  0  0  0
 24 23  2  0  0  0  0
 26 28  1  0  0  0  0
 27 25  1  1  0  0  0
 27 26  1  0  0  0  0
 29 22  1  1  0  0  0
 29 28  1  0  0  0  0
 30 31  2  0  0  0  0
 31 24  1  0  0  0  0
 32 34  1  6  0  0  0
 32 31  1  0  0  0  0
 34 33  1  0  0  0  0
 35 32  1  0  0  0  0
 35 37  1  0  0  0  0
 37 36  2  0  0  0  0
 38 40  1  0  0  0  0
 38 39  1  0  0  0  0
 39 37  1  6  0  0  0
 40 39  1  0  0  0  0
M  END
>  <MODEL>
1

>  <REMARK>
 VINA RESULT:      -6.5      0.000      0.000
  Name = 
  14 active torsions:
  status: ('A' for Active; 'I' for Inactive)
    1  A    between atoms: N_4  and  C_22
    2  A    between atoms: C_6  and  O_31
    3  A    between atoms: C_14  and  C_34
    4  A    between atoms: C_16  and  C_35
    5  A    between atoms: O_17  and  C_32
    6  A    between atoms: O_17  and  C_33
    7  A    between atoms: C_18  and  N_36
    8  A    between atoms: C_22  and  C_27
    9  A    between atoms: C_23  and  C_27
   10  A    between atoms: C_26  and  O_31
   11  A    between atoms: C_26  and  C_35
   12  A    between atoms: C_27  and  N_39
   13  A    between atoms: C_29  and  N_36
   14  A    between atoms: C_34  and  N_39
                            x       y       z     vdW  Elec       q    Type
                         _______ _______ _______ _____ _____    ______ ____

>  <TORSDO>
F 14

$$$$
=
 OpenBabel10232412493D

 40 43  0  0  1  0  0  0  0  0999 V2000
  188.8680  177.8420  141.2040 N   0  0  0  0  0  0  0  0  0  0  0  0
  187.8990  178.2950  140.4600 C   0  0  0  0  0  0  0  0  0  0  0  0
  189.6600  176.8260  143.2090 C   0  0  0  0  0  2  0  0  0  0  0  0
  186.5090  178.3350  140.9660 C   0  0  0  0  0  0  0  0  0  0  0  0
  187.3050  177.5330  143.1910 C   0  0  1  0  0  3  0  0  0  0  0  0
  186.2320  177.9600  142.2210 C   0  0  0  0  0  3  0  0  0  0  0  0
  188.6590  177.3860  142.5440 C   0  0  0  0  0  0  0  0  0  0  0  0
  187.3220  178.3180  144.3700 O   0  0  0  0  0  0  0  0  0  0  0  0
  185.9730  178.7720  147.4550 C   0  0  1  0  0  3  0  0  0  0  0  0
  187.4120  178.3300  147.5750 C   0  0  0  0  0  2  0  0  0  0  0  0
  185.8590  180.1160  147.8050 O   0  0  0  0  0  1  0  0  0  0  0  0
  187.5890  177.2760  146.5070 C   0  0  0  0  0  2  0  0  0  0  0  0
  186.6270  177.6440  145.3920 C   0  0  1  0  0  3  0  0  0  0  0  0
  185.5960  178.5830  145.9990 C   0  0  0  0  0  2  0  0  0  0  0  0
  188.1550  178.7390  139.1580 O   0  0  0  0  0  0  0  0  0  0  0  0
  189.3530  178.4260  138.4540 C   0  0  0  0  0  2  0  0  0  0  0  0
  189.8950  176.0970  138.6200 O   0  0  0  0  0  1  0  0  0  0  0  0
  189.2560  177.0460  137.8180 C   0  0  2  0  0  3  0  0  0  0  0  0
  188.9840  177.8300  135.5240 N   0  0  0  0  0  1  0  0  0  0  0  0
  189.8370  177.0550  136.4070 C   0  0  2  0  0  3  0  0  0  0  0  0
  190.0100  175.6510  135.8480 C   0  0  0  0  0  1  0  0  0  0  0  0
  185.4640  178.7560  140.0810 N   0  0  0  0  0  2  0  0  0  0  0  0
  183.4450  178.5510  138.7720 C   0  0  0  0  0  0  0  0  0  0  0  0
  183.8880  178.2840  137.5750 N   0  0  0  0  0  0  0  0  0  0  0  0
  182.3590  180.6900  138.7210 N   0  0  0  0  0  1  0  0  0  0  0  0
  181.6100  178.9830  140.6430 S   0  0  0  0  0  0  0  0  0  0  0  0
  182.1600  179.2680  138.9390 C   0  0  2  0  0  3  0  0  0  0  0  0
  183.3110  178.6550  141.1980 C   0  0  0  0  0  2  0  0  0  0  0  0
  184.1410  178.1440  140.0310 C   0  0  2  0  0  3  0  0  0  0  0  0
  186.1610  178.0710  137.0090 O   0  0  0  0  0  0  0  0  0  0  0  0
  185.0530  177.5150  137.2360 C   0  0  0  0  0  0  0  0  0  0  0  0
  184.9680  176.0220  137.1840 C   0  0  2  0  0  3  0  0  0  0  0  0
  186.7810  174.3950  137.1520 N   0  0  0  0  0  1  0  0  0  0  0  0
  186.1340  175.4520  136.3940 C   0  0  0  0  0  2  0  0  0  0  0  0
  183.7150  175.6090  136.5660 N   0  0  0  0  0  2  0  0  0  0  0  0
  181.5210  175.1100  138.0230 S   0  0  0  0  0  0  0  0  0  0  0  0
  182.8190  174.6440  137.1330 C   0  0  0  0  0  0  0  0  0  0  0  0
  183.7160  172.9030  135.8010 O   0  0  0  0  0  0  0  0  0  0  0  0
  183.1670  173.1930  137.0650 C   0  0  2  0  0  3  0  0  0  0  0  0
  182.3800  172.5200  136.0060 C   0  0  0  0  0  2  0  0  0  0  0  0
  1  7  1  0  0  0  0
  2  4  1  0  0  0  0
  2  1  2  0  0  0  0
  4  6  2  0  0  0  0
  5  8  1  1  0  0  0
  6  5  1  0  0  0  0
  7  5  1  0  0  0  0
  7  3  2  0  0  0  0
  9 10  1  0  0  0  0
  9 11  1  6  0  0  0
 12 10  1  0  0  0  0
 13  8  1  6  0  0  0
 13 14  1  0  0  0  0
 13 12  1  0  0  0  0
 14  9  1  0  0  0  0
 15  2  1  0  0  0  0
 16 15  1  0  0  0  0
 18 16  1  0  0  0  0
 18 17  1  1  0  0  0
 19 20  1  0  0  0  0
 20 21  1  6  0  0  0
 20 18  1  0  0  0  0
 22  4  1  0  0  0  0
 23 27  1  0  0  0  0
 23 29  1  0  0  0  0
 24 23  2  0  0  0  0
 26 28  1  0  0  0  0
 27 25  1  1  0  0  0
 27 26  1  0  0  0  0
 29 22  1  6  0  0  0
 29 28  1  0  0  0  0
 30 31  2  0  0  0  0
 31 24  1  0  0  0  0
 32 34  1  6  0  0  0
 32 31  1  0  0  0  0
 34 33  1  0  0  0  0
 35 37  1  0  0  0  0
 35 32  1  0  0  0  0
 37 36  2  0  0  0  0
 38 40  1  0  0  0  0
 38 39  1  0  0  0  0
 39 37  1  6  0  0  0
 40 39  1  0  0  0  0
M  END
>  <MODEL>
2

>  <REMARK>
 VINA RESULT:      -6.2      1.554      1.660
  Name = 
  14 active torsions:
  status: ('A' for Active; 'I' for Inactive)
    1  A    between atoms: N_4  and  C_22
    2  A    between atoms: C_6  and  O_31
    3  A    between atoms: C_14  and  C_34
    4  A    between atoms: C_16  and  C_35
    5  A    between atoms: O_17  and  C_32
    6  A    between atoms: O_17  and  C_33
    7  A    between atoms: C_18  and  N_36
    8  A    between atoms: C_22  and  C_27
    9  A    between atoms: C_23  and  C_27
   10  A    between atoms: C_26  and  O_31
   11  A    between atoms: C_26  and  C_35
   12  A    between atoms: C_27  and  N_39
   13  A    between atoms: C_29  and  N_36
   14  A    between atoms: C_34  and  N_39
                            x       y       z     vdW  Elec       q    Type
                         _______ _______ _______ _____ _____    ______ ____

>  <TORSDO>
F 14

$$$$
=
 OpenBabel10232412493D

 40 43  0  0  1  0  0  0  0  0999 V2000
  183.6160  178.8150  141.9200 N   0  0  0  0  0  0  0  0  0  0  0  0
  183.5370  178.5490  140.6470 C   0  0  0  0  0  0  0  0  0  0  0  0
  184.8860  179.3370  143.8680 C   0  0  0  0  0  2  0  0  0  0  0  0
  184.7590  178.3990  139.8260 C   0  0  0  0  0  0  0  0  0  0  0  0
  186.1580  178.6630  141.8750 C   0  0  1  0  0  3  0  0  0  0  0  0
  185.9700  178.4760  140.3900 C   0  0  0  0  0  3  0  0  0  0  0  0
  184.8670  178.9500  142.6000 C   0  0  0  0  0  0  0  0  0  0  0  0
  186.9220  177.6270  142.4660 O   0  0  0  0  0  0  0  0  0  0  0  0
  190.0810  176.5430  143.0890 C   0  0  1  0  0  3  0  0  0  0  0  0
  189.3330  176.7440  144.3860 C   0  0  0  0  0  2  0  0  0  0  0  0
  190.2470  175.1820  142.8430 O   0  0  0  0  0  1  0  0  0  0  0  0
  188.5380  178.0130  144.1870 C   0  0  0  0  0  2  0  0  0  0  0  0
  188.2320  178.0870  142.7030 C   0  0  1  0  0  3  0  0  0  0  0  0
  189.2200  177.1640  142.0080 C   0  0  0  0  0  2  0  0  0  0  0  0
  182.2890  178.4160  140.0280 O   0  0  0  0  0  0  0  0  0  0  0  0
  181.3040  179.4450  140.0420 C   0  0  0  0  0  2  0  0  0  0  0  0
  180.5750  178.0880  138.2050 O   0  0  0  0  0  1  0  0  0  0  0  0
  180.3800  179.3190  138.8390 C   0  0  2  0  0  3  0  0  0  0  0  0
  181.0760  179.9720  136.5950 N   0  0  0  0  0  1  0  0  0  0  0  0
  180.5900  180.4760  137.8660 C   0  0  2  0  0  3  0  0  0  0  0  0
  181.5590  181.5150  138.4090 C   0  0  0  0  0  1  0  0  0  0  0  0
  184.6220  178.1980  138.4140 N   0  0  0  0  0  2  0  0  0  0  0  0
  185.0460  177.1350  136.2880 C   0  0  0  0  0  0  0  0  0  0  0  0
  186.0410  177.8220  135.8000 N   0  0  0  0  0  0  0  0  0  0  0  0
  183.1300  177.4710  134.8820 N   0  0  0  0  0  1  0  0  0  0  0  0
  183.2050  175.2200  136.3300 S   0  0  0  0  0  0  0  0  0  0  0  0
  184.0790  176.4870  135.3710 C   0  0  2  0  0  3  0  0  0  0  0  0
  183.5550  176.0820  137.8940 C   0  0  0  0  0  2  0  0  0  0  0  0
  184.8180  176.9150  137.7480 C   0  0  2  0  0  3  0  0  0  0  0  0
  187.1610  179.6690  136.7300 O   0  0  0  0  0  0  0  0  0  0  0  0
  187.1170  178.4250  136.5360 C   0  0  0  0  0  0  0  0  0  0  0  0
  188.1940  177.5640  137.1170 C   0  0  2  0  0  3  0  0  0  0  0  0
  189.1100  178.9090  138.9300 N   0  0  0  0  0  1  0  0  0  0  0  0
  189.3600  178.4180  137.5860 C   0  0  0  0  0  2  0  0  0  0  0  0
  188.6630  176.6040  136.1260 N   0  0  0  0  0  2  0  0  0  0  0  0
  187.4960  174.2910  136.8150 S   0  0  0  0  0  0  0  0  0  0  0  0
  188.7900  175.1960  136.3690 C   0  0  0  0  0  0  0  0  0  0  0  0
  190.2550  173.7160  137.4980 O   0  0  0  0  0  0  0  0  0  0  0  0
  190.1490  174.5770  136.3890 C   0  0  2  0  0  3  0  0  0  0  0  0
  190.8790  174.9690  137.6160 C   0  0  0  0  0  2  0  0  0  0  0  0
  1  7  1  0  0  0  0
  2  1  2  0  0  0  0
  4  6  2  0  0  0  0
  4  2  1  0  0  0  0
  5  8  1  1  0  0  0
  5  7  1  0  0  0  0
  6  5  1  0  0  0  0
  7  3  2  0  0  0  0
  9 11  1  6  0  0  0
  9 10  1  0  0  0  0
 12 10  1  0  0  0  0
 13  8  1  1  0  0  0
 13 12  1  0  0  0  0
 14 13  1  0  0  0  0
 14  9  1  0  0  0  0
 15 16  1  0  0  0  0
 15  2  1  0  0  0  0
 18 17  1  6  0  0  0
 18 16  1  0  0  0  0
 19 20  1  0  0  0  0
 20 21  1  1  0  0  0
 20 18  1  0  0  0  0
 22  4  1  0  0  0  0
 23 29  1  0  0  0  0
 24 23  2  0  0  0  0
 24 31  1  0  0  0  0
 26 28  1  0  0  0  0
 27 25  1  1  0  0  0
 27 23  1  0  0  0  0
 27 26  1  0  0  0  0
 29 28  1  0  0  0  0
 29 22  1  1  0  0  0
 31 30  2  0  0  0  0
 31 32  1  0  0  0  0
 32 34  1  6  0  0  0
 34 33  1  0  0  0  0
 35 37  1  0  0  0  0
 35 32  1  0  0  0  0
 37 36  2  0  0  0  0
 38 40  1  0  0  0  0
 39 37  1  1  0  0  0
 39 38  1  0  0  0  0
 39 40  1  0  0  0  0
M  END
>  <MODEL>
3

>  <REMARK>
 VINA RESULT:      -6.1      2.727      6.129
  Name = 
  14 active torsions:
  status: ('A' for Active; 'I' for Inactive)
    1  A    between atoms: N_4  and  C_22
    2  A    between atoms: C_6  and  O_31
    3  A    between atoms: C_14  and  C_34
    4  A    between atoms: C_16  and  C_35
    5  A    between atoms: O_17  and  C_32
    6  A    between atoms: O_17  and  C_33
    7  A    between atoms: C_18  and  N_36
    8  A    between atoms: C_22  and  C_27
    9  A    between atoms: C_23  and  C_27
   10  A    between atoms: C_26  and  O_31
   11  A    between atoms: C_26  and  C_35
   12  A    between atoms: C_27  and  N_39
   13  A    between atoms: C_29  and  N_36
   14  A    between atoms: C_34  and  N_39
                            x       y       z     vdW  Elec       q    Type
                         _______ _______ _______ _____ _____    ______ ____

>  <TORSDO>
F 14

$$$$
=
 OpenBabel10232412493D

 40 43  0  0  1  0  0  0  0  0999 V2000
  190.3620  177.4050  141.2240 N   0  0  0  0  0  0  0  0  0  0  0  0
  189.3270  177.8420  141.8850 C   0  0  0  0  0  0  0  0  0  0  0  0
  191.4760  176.9230  139.1740 C   0  0  0  0  0  2  0  0  0  0  0  0
  188.0870  178.2370  141.1810 C   0  0  0  0  0  0  0  0  0  0  0  0
  189.0890  177.4920  139.0200 C   0  0  1  0  0  3  0  0  0  0  0  0
  187.9870  178.0970  139.8530 C   0  0  0  0  0  3  0  0  0  0  0  0
  190.3570  177.2580  139.8010 C   0  0  0  0  0  0  0  0  0  0  0  0
  188.6600  176.3610  138.2820 O   0  0  0  0  0  0  0  0  0  0  0  0
  188.0340  175.3910  135.0870 C   0  0  1  0  0  3  0  0  0  0  0  0
  189.3470  176.1330  135.1590 C   0  0  0  0  0  2  0  0  0  0  0  0
  188.2670  174.0340  134.8760 O   0  0  0  0  0  1  0  0  0  0  0  0
  189.1000  177.2760  136.1160 C   0  0  0  0  0  2  0  0  0  0  0  0
  188.0440  176.7850  137.0890 C   0  0  1  0  0  3  0  0  0  0  0  0
  187.3610  175.5980  136.4290 C   0  0  0  0  0  2  0  0  0  0  0  0
  189.3770  177.9590  143.2790 O   0  0  0  0  0  0  0  0  0  0  0  0
  189.6540  176.8600  144.1400 C   0  0  0  0  0  2  0  0  0  0  0  0
  191.8000  175.7920  144.1140 O   0  0  0  0  0  1  0  0  0  0  0  0
  191.1020  176.8970  144.6090 C   0  0  2  0  0  3  0  0  0  0  0  0
  192.0100  175.8760  146.6290 N   0  0  0  0  0  1  0  0  0  0  0  0
  191.1810  176.9590  146.1320 C   0  0  2  0  0  3  0  0  0  0  0  0
  189.8080  176.8920  146.7820 C   0  0  0  0  0  1  0  0  0  0  0  0
  187.0090  178.7970  141.9400 N   0  0  0  0  0  2  0  0  0  0  0  0
  184.7270  178.7670  142.7280 C   0  0  0  0  0  0  0  0  0  0  0  0
  184.0440  179.1590  141.6890 N   0  0  0  0  0  0  0  0  0  0  0  0
  184.5030  180.4200  144.4530 N   0  0  0  0  0  1  0  0  0  0  0  0
  185.0870  177.9220  145.2210 S   0  0  0  0  0  0  0  0  0  0  0  0
  184.2170  179.0430  144.0910 C   0  0  2  0  0  3  0  0  0  0  0  0
  186.4850  177.7540  144.0680 C   0  0  0  0  0  2  0  0  0  0  0  0
  186.0090  178.0030  142.6460 C   0  0  2  0  0  3  0  0  0  0  0  0
  185.1120  179.6310  139.6470 O   0  0  0  0  0  0  0  0  0  0  0  0
  184.3380  178.8880  140.3090 C   0  0  0  0  0  0  0  0  0  0  0  0
  183.7480  177.6840  139.6460 C   0  0  2  0  0  3  0  0  0  0  0  0
  184.0520  177.7730  137.2300 N   0  0  0  0  0  1  0  0  0  0  0  0
  184.6060  177.2530  138.4680 C   0  0  0  0  0  2  0  0  0  0  0  0
  182.3970  177.9740  139.1820 N   0  0  0  0  0  2  0  0  0  0  0  0
  180.4730  177.9840  141.0480 S   0  0  0  0  0  0  0  0  0  0  0  0
  181.2150  177.3680  139.7200 C   0  0  0  0  0  0  0  0  0  0  0  0
  181.3270  175.8490  137.9060 O   0  0  0  0  0  0  0  0  0  0  0  0
  180.7510  176.0580  139.1740 C   0  0  2  0  0  3  0  0  0  0  0  0
  179.9830  176.2590  137.9250 C   0  0  0  0  0  2  0  0  0  0  0  0
  1  2  2  0  0  0  0
  2 15  1  0  0  0  0
  3  7  2  0  0  0  0
  4  2  1  0  0  0  0
  4 22  1  0  0  0  0
  5  8  1  1  0  0  0
  5  7  1  0  0  0  0
  5  6  1  0  0  0  0
  6  4  2  0  0  0  0
  7  1  1  0  0  0  0
  9 11  1  1  0  0  0
  9 10  1  0  0  0  0
  9 14  1  0  0  0  0
 10 12  1  0  0  0  0
 12 13  1  0  0  0  0
 13  8  1  1  0  0  0
 14 13  1  0  0  0  0
 15 16  1  0  0  0  0
 16 18  1  0  0  0  0
 18 17  1  1  0  0  0
 18 20  1  0  0  0  0
 20 19  1  0  0  0  0
 20 21  1  1  0  0  0
 23 27  1  0  0  0  0
 24 23  2  0  0  0  0
 27 25  1  1  0  0  0
 27 26  1  0  0  0  0
 28 26  1  0  0  0  0
 29 22  1  6  0  0  0
 29 23  1  0  0  0  0
 29 28  1  0  0  0  0
 30 31  2  0  0  0  0
 31 24  1  0  0  0  0
 32 34  1  6  0  0  0
 32 31  1  0  0  0  0
 33 34  1  0  0  0  0
 35 32  1  0  0  0  0
 35 37  1  0  0  0  0
 37 36  2  0  0  0  0
 38 40  1  0  0  0  0
 38 39  1  0  0  0  0
 39 37  1  6  0  0  0
 40 39  1  0  0  0  0
M  END
>  <MODEL>
4

>  <REMARK>
 VINA RESULT:      -6.0      2.740      6.460
  Name = 
  14 active torsions:
  status: ('A' for Active; 'I' for Inactive)
    1  A    between atoms: N_4  and  C_22
    2  A    between atoms: C_6  and  O_31
    3  A    between atoms: C_14  and  C_34
    4  A    between atoms: C_16  and  C_35
    5  A    between atoms: O_17  and  C_32
    6  A    between atoms: O_17  and  C_33
    7  A    between atoms: C_18  and  N_36
    8  A    between atoms: C_22  and  C_27
    9  A    between atoms: C_23  and  C_27
   10  A    between atoms: C_26  and  O_31
   11  A    between atoms: C_26  and  C_35
   12  A    between atoms: C_27  and  N_39
   13  A    between atoms: C_29  and  N_36
   14  A    between atoms: C_34  and  N_39
                            x       y       z     vdW  Elec       q    Type
                         _______ _______ _______ _____ _____    ______ ____

>  <TORSDO>
F 14

$$$$
=
 OpenBabel10232412493D

 40 43  0  0  1  0  0  0  0  0999 V2000
  188.8040  177.8930  141.1820 N   0  0  0  0  0  0  0  0  0  0  0  0
  187.8270  178.3170  140.4310 C   0  0  0  0  0  0  0  0  0  0  0  0
  189.6100  176.9130  143.1990 C   0  0  0  0  0  2  0  0  0  0  0  0
  186.4350  178.3270  140.9290 C   0  0  0  0  0  0  0  0  0  0  0  0
  187.2390  177.5610  143.1650 C   0  0  1  0  0  3  0  0  0  0  0  0
  186.1610  177.9550  142.1860 C   0  0  0  0  0  3  0  0  0  0  0  0
  188.6000  177.4430  142.5250 C   0  0  0  0  0  0  0  0  0  0  0  0
  187.2310  178.3550  144.3370 O   0  0  0  0  0  0  0  0  0  0  0  0
  185.9410  178.7800  147.4510 C   0  0  1  0  0  3  0  0  0  0  0  0
  187.3720  178.3050  147.5400 C   0  0  0  0  0  2  0  0  0  0  0  0
  185.8600  180.1180  147.8280 O   0  0  0  0  0  1  0  0  0  0  0  0
  187.5100  177.2680  146.4500 C   0  0  0  0  0  2  0  0  0  0  0  0
  186.5380  177.6770  145.3580 C   0  0  1  0  0  3  0  0  0  0  0  0
  185.5370  178.6250  145.9990 C   0  0  0  0  0  2  0  0  0  0  0  0
  188.0790  178.7580  139.1260 O   0  0  0  0  0  0  0  0  0  0  0  0
  189.2570  178.4100  138.4050 C   0  0  0  0  0  2  0  0  0  0  0  0
  190.4650  176.3630  138.7210 O   0  0  0  0  0  1  0  0  0  0  0  0
  189.3090  176.9090  138.1560 C   0  0  2  0  0  3  0  0  0  0  0  0
  190.3910  175.8300  136.2540 N   0  0  0  0  0  1  0  0  0  0  0  0
  189.2300  176.6010  136.6630 C   0  0  2  0  0  3  0  0  0  0  0  0
  189.1330  177.8630  135.8200 C   0  0  0  0  0  1  0  0  0  0  0  0
  185.3840  178.7150  140.0370 N   0  0  0  0  0  2  0  0  0  0  0  0
  183.3120  178.5030  138.8160 C   0  0  0  0  0  0  0  0  0  0  0  0
  183.6970  178.1100  137.6340 N   0  0  0  0  0  0  0  0  0  0  0  0
  182.3340  180.6850  138.6070 N   0  0  0  0  0  1  0  0  0  0  0  0
  181.5690  179.1970  140.6970 S   0  0  0  0  0  0  0  0  0  0  0  0
  182.0710  179.3010  138.9580 C   0  0  2  0  0  3  0  0  0  0  0  0
  183.2710  178.8280  141.2250 C   0  0  0  0  0  2  0  0  0  0  0  0
  184.0300  178.1720  140.0830 C   0  0  2  0  0  3  0  0  0  0  0  0
  185.9900  177.6890  137.3260 O   0  0  0  0  0  0  0  0  0  0  0  0
  184.8080  177.2520  137.3290 C   0  0  0  0  0  0  0  0  0  0  0  0
  184.5710  175.8030  137.0420 C   0  0  2  0  0  3  0  0  0  0  0  0
  182.4490  174.6610  137.4000 N   0  0  0  0  0  1  0  0  0  0  0  0
  183.6190  175.2080  138.0660 C   0  0  0  0  0  2  0  0  0  0  0  0
  185.8310  175.0700  137.0680 N   0  0  0  0  0  2  0  0  0  0  0  0
  186.4170  175.1200  134.4520 S   0  0  0  0  0  0  0  0  0  0  0  0
  186.3980  174.4070  135.9300 C   0  0  0  0  0  0  0  0  0  0  0  0
  186.8660  172.6190  137.4120 O   0  0  0  0  0  0  0  0  0  0  0  0
  186.8180  172.9790  136.0510 C   0  0  2  0  0  3  0  0  0  0  0  0
  188.0980  172.8750  136.7880 C   0  0  0  0  0  2  0  0  0  0  0  0
  1  7  1  0  0  0  0
  2  4  1  0  0  0  0
  2  1  2  0  0  0  0
  4  6  2  0  0  0  0
  5  8  1  1  0  0  0
  6  5  1  0  0  0  0
  7  5  1  0  0  0  0
  7  3  2  0  0  0  0
  9 10  1  0  0  0  0
  9 11  1  6  0  0  0
 12 10  1  0  0  0  0
 13  8  1  6  0  0  0
 13 14  1  0  0  0  0
 13 12  1  0  0  0  0
 14  9  1  0  0  0  0
 15  2  1  0  0  0  0
 16 15  1  0  0  0  0
 18 16  1  0  0  0  0
 18 17  1  6  0  0  0
 19 20  1  0  0  0  0
 20 21  1  6  0  0  0
 20 18  1  0  0  0  0
 22  4  1  0  0  0  0
 23 27  1  0  0  0  0
 23 29  1  0  0  0  0
 24 23  2  0  0  0  0
 26 28  1  0  0  0  0
 27 25  1  1  0  0  0
 27 26  1  0  0  0  0
 29 22  1  6  0  0  0
 29 28  1  0  0  0  0
 30 31  2  0  0  0  0
 31 24  1  0  0  0  0
 32 35  1  0  0  0  0
 32 31  1  0  0  0  0
 32 34  1  1  0  0  0
 33 34  1  0  0  0  0
 36 37  2  0  0  0  0
 37 35  1  0  0  0  0
 39 37  1  1  0  0  0
 39 40  1  0  0  0  0
 39 38  1  0  0  0  0
 40 38  1  0  0  0  0
M  END
>  <MODEL>
5

>  <REMARK>
 VINA RESULT:      -6.0      1.779      2.300
  Name = 
  14 active torsions:
  status: ('A' for Active; 'I' for Inactive)
    1  A    between atoms: N_4  and  C_22
    2  A    between atoms: C_6  and  O_31
    3  A    between atoms: C_14  and  C_34
    4  A    between atoms: C_16  and  C_35
    5  A    between atoms: O_17  and  C_32
    6  A    between atoms: O_17  and  C_33
    7  A    between atoms: C_18  and  N_36
    8  A    between atoms: C_22  and  C_27
    9  A    between atoms: C_23  and  C_27
   10  A    between atoms: C_26  and  O_31
   11  A    between atoms: C_26  and  C_35
   12  A    between atoms: C_27  and  N_39
   13  A    between atoms: C_29  and  N_36
   14  A    between atoms: C_34  and  N_39
                            x       y       z     vdW  Elec       q    Type
                         _______ _______ _______ _____ _____    ______ ____

>  <TORSDO>
F 14

$$$$
=
 OpenBabel10232412493D

 40 43  0  0  1  0  0  0  0  0999 V2000
  182.8490  177.9850  139.9250 N   0  0  0  0  0  0  0  0  0  0  0  0
  183.8850  177.9130  139.1380 C   0  0  0  0  0  0  0  0  0  0  0  0
  181.8130  178.6930  141.9510 C   0  0  0  0  0  2  0  0  0  0  0  0
  185.2020  178.4330  139.5670 C   0  0  0  0  0  0  0  0  0  0  0  0
  184.2540  178.9510  141.8170 C   0  0  1  0  0  3  0  0  0  0  0  0
  185.3660  178.9350  140.7970 C   0  0  0  0  0  3  0  0  0  0  0  0
  182.9220  178.5380  141.2430 C   0  0  0  0  0  0  0  0  0  0  0  0
  184.5940  178.2670  143.0100 O   0  0  0  0  0  0  0  0  0  0  0  0
  185.8680  178.5660  146.1450 C   0  0  1  0  0  3  0  0  0  0  0  0
  184.4030  178.2080  146.2090 C   0  0  0  0  0  2  0  0  0  0  0  0
  186.6420  177.4710  146.5230 O   0  0  0  0  0  1  0  0  0  0  0  0
  183.7510  179.0230  145.1170 C   0  0  0  0  0  2  0  0  0  0  0  0
  184.8070  179.2010  144.0420 C   0  0  1  0  0  3  0  0  0  0  0  0
  186.1500  178.9230  144.6990 C   0  0  0  0  0  2  0  0  0  0  0  0
  183.7650  177.3540  137.8600 O   0  0  0  0  0  0  0  0  0  0  0  0
  182.5450  176.8130  137.3630 C   0  0  0  0  0  2  0  0  0  0  0  0
  183.7190  174.7590  137.7530 O   0  0  0  0  0  1  0  0  0  0  0  0
  182.4450  175.3290  137.6900 C   0  0  2  0  0  3  0  0  0  0  0  0
  180.2110  175.1140  136.7330 N   0  0  0  0  0  1  0  0  0  0  0  0
  181.5700  174.6050  136.6710 C   0  0  2  0  0  3  0  0  0  0  0  0
  181.5620  173.0990  136.8860 C   0  0  0  0  0  1  0  0  0  0  0  0
  186.2890  178.4160  138.6340 N   0  0  0  0  0  2  0  0  0  0  0  0
  188.4330  177.4850  138.0310 C   0  0  0  0  0  0  0  0  0  0  0  0
  189.2180  177.8860  138.9910 N   0  0  0  0  0  0  0  0  0  0  0  0
  189.1520  178.5140  135.9850 N   0  0  0  0  0  1  0  0  0  0  0  0
  187.7940  176.2150  135.7870 S   0  0  0  0  0  0  0  0  0  0  0  0
  188.9890  177.2480  136.6780 C   0  0  2  0  0  3  0  0  0  0  0  0
  186.4290  176.7770  136.8500 C   0  0  0  0  0  2  0  0  0  0  0  0
  186.9760  177.2040  138.2030 C   0  0  2  0  0  3  0  0  0  0  0  0
  188.4440  179.1710  140.8030 O   0  0  0  0  0  0  0  0  0  0  0  0
  188.8690  178.0650  140.3730 C   0  0  0  0  0  0  0  0  0  0  0  0
  188.9760  176.9130  141.3220 C   0  0  2  0  0  3  0  0  0  0  0  0
  187.8290  176.0170  143.2760 N   0  0  0  0  0  1  0  0  0  0  0  0
  188.2790  177.2390  142.6330 C   0  0  0  0  0  2  0  0  0  0  0  0
  190.3750  176.5990  141.5810 N   0  0  0  0  0  2  0  0  0  0  0  0
  191.4580  175.9430  143.9440 S   0  0  0  0  0  0  0  0  0  0  0  0
  191.0870  177.0120  142.7550 C   0  0  0  0  0  0  0  0  0  0  0  0
  191.9920  178.6400  144.2190 O   0  0  0  0  0  0  0  0  0  0  0  0
  191.3390  178.4660  142.9830 C   0  0  2  0  0  3  0  0  0  0  0  0
  190.6190  178.9350  144.1890 C   0  0  0  0  0  2  0  0  0  0  0  0
  1  7  1  0  0  0  0
  2  4  1  0  0  0  0
  2  1  2  0  0  0  0
  4  6  2  0  0  0  0
  5  8  1  1  0  0  0
  6  5  1  0  0  0  0
  7  5  1  0  0  0  0
  7  3  2  0  0  0  0
  9 10  1  0  0  0  0
  9 11  1  6  0  0  0
 12 10  1  0  0  0  0
 13  8  1  6  0  0  0
 13 14  1  0  0  0  0
 13 12  1  0  0  0  0
 14  9  1  0  0  0  0
 15  2  1  0  0  0  0
 16 18  1  0  0  0  0
 16 15  1  0  0  0  0
 18 17  1  6  0  0  0
 20 19  1  0  0  0  0
 20 21  1  1  0  0  0
 20 18  1  0  0  0  0
 22  4  1  0  0  0  0
 23 29  1  0  0  0  0
 23 24  2  0  0  0  0
 24 31  1  0  0  0  0
 26 27  1  0  0  0  0
 26 28  1  0  0  0  0
 27 25  1  6  0  0  0
 27 23  1  0  0  0  0
 28 29  1  0  0  0  0
 29 22  1  6  0  0  0
 31 30  2  0  0  0  0
 31 32  1  0  0  0  0
 32 35  1  0  0  0  0
 32 34  1  1  0  0  0
 34 33  1  0  0  0  0
 35 37  1  0  0  0  0
 37 36  2  0  0  0  0
 39 37  1  1  0  0  0
 39 40  1  0  0  0  0
 39 38  1  0  0  0  0
 40 38  1  0  0  0  0
M  END
>  <MODEL>
6

>  <REMARK>
 VINA RESULT:      -5.8      2.956      6.950
  Name = 
  14 active torsions:
  status: ('A' for Active; 'I' for Inactive)
    1  A    between atoms: N_4  and  C_22
    2  A    between atoms: C_6  and  O_31
    3  A    between atoms: C_14  and  C_34
    4  A    between atoms: C_16  and  C_35
    5  A    between atoms: O_17  and  C_32
    6  A    between atoms: O_17  and  C_33
    7  A    between atoms: C_18  and  N_36
    8  A    between atoms: C_22  and  C_27
    9  A    between atoms: C_23  and  C_27
   10  A    between atoms: C_26  and  O_31
   11  A    between atoms: C_26  and  C_35
   12  A    between atoms: C_27  and  N_39
   13  A    between atoms: C_29  and  N_36
   14  A    between atoms: C_34  and  N_39
                            x       y       z     vdW  Elec       q    Type
                         _______ _______ _______ _____ _____    ______ ____

>  <TORSDO>
F 14

$$$$
=
 OpenBabel10232412493D

 40 43  0  0  1  0  0  0  0  0999 V2000
  191.7060  177.0190  140.3000 N   0  0  0  0  0  0  0  0  0  0  0  0
  190.5920  176.5900  139.7770 C   0  0  0  0  0  0  0  0  0  0  0  0
  193.9960  177.6480  140.1040 C   0  0  0  0  0  2  0  0  0  0  0  0
  190.5290  176.1790  138.3570 C   0  0  0  0  0  0  0  0  0  0  0  0
  192.9870  176.5520  138.1480 C   0  0  1  0  0  3  0  0  0  0  0  0
  191.6320  176.1840  137.5990 C   0  0  0  0  0  3  0  0  0  0  0  0
  192.9250  177.0930  139.5550 C   0  0  0  0  0  0  0  0  0  0  0  0
  193.9460  175.5230  137.9790 O   0  0  0  0  0  0  0  0  0  0  0  0
  195.0610  172.9510  136.0600 C   0  0  1  0  0  3  0  0  0  0  0  0
  195.7840  174.2250  135.6960 C   0  0  0  0  0  2  0  0  0  0  0  0
  195.9210  172.0950  136.7450 O   0  0  0  0  0  1  0  0  0  0  0  0
  194.7240  175.3010  135.7280 C   0  0  0  0  0  2  0  0  0  0  0  0
  193.7070  174.8550  136.7630 C   0  0  1  0  0  3  0  0  0  0  0  0
  193.9140  173.3620  136.9620 C   0  0  0  0  0  2  0  0  0  0  0  0
  189.4270  176.5270  140.5500 O   0  0  0  0  0  0  0  0  0  0  0  0
  189.1910  177.3780  141.6680 C   0  0  0  0  0  2  0  0  0  0  0  0
  187.9740  176.1440  143.3230 O   0  0  0  0  0  1  0  0  0  0  0  0
  189.2510  176.5850  142.9660 C   0  0  2  0  0  3  0  0  0  0  0  0
  191.0720  176.7560  144.5790 N   0  0  0  0  0  1  0  0  0  0  0  0
  189.8770  177.4150  144.0830 C   0  0  2  0  0  3  0  0  0  0  0  0
  188.9110  177.6540  145.2330 C   0  0  0  0  0  1  0  0  0  0  0  0
  189.2630  175.8020  137.8030 N   0  0  0  0  0  2  0  0  0  0  0  0
  187.6870  174.9940  136.1620 C   0  0  0  0  0  0  0  0  0  0  0  0
  187.0830  176.0780  135.7640 N   0  0  0  0  0  0  0  0  0  0  0  0
  186.0850  173.5990  137.2770 N   0  0  0  0  0  1  0  0  0  0  0  0
  188.2260  172.3930  136.2140 S   0  0  0  0  0  0  0  0  0  0  0  0
  186.9700  173.6980  136.1300 C   0  0  2  0  0  3  0  0  0  0  0  0
  189.4170  173.5120  137.0130 C   0  0  0  0  0  2  0  0  0  0  0  0
  189.1060  174.9500  136.6290 C   0  0  2  0  0  3  0  0  0  0  0  0
  188.4750  177.6560  134.7120 O   0  0  0  0  0  0  0  0  0  0  0  0
  187.6570  177.3890  135.6330 C   0  0  0  0  0  0  0  0  0  0  0  0
  187.2570  178.4730  136.5830 C   0  0  2  0  0  3  0  0  0  0  0  0
  188.6240  179.1610  138.4790 N   0  0  0  0  0  1  0  0  0  0  0  0
  188.4770  179.2580  137.0370 C   0  0  0  0  0  2  0  0  0  0  0  0
  186.5860  177.9050  137.7450 N   0  0  0  0  0  2  0  0  0  0  0  0
  184.0700  177.2080  137.1360 S   0  0  0  0  0  0  0  0  0  0  0  0
  185.1830  178.0410  138.0090 C   0  0  0  0  0  0  0  0  0  0  0  0
  185.6170  179.1620  140.0500 O   0  0  0  0  0  0  0  0  0  0  0  0
  184.7170  179.0860  138.9690 C   0  0  2  0  0  3  0  0  0  0  0  0
  184.4100  178.4810  140.2850 C   0  0  0  0  0  2  0  0  0  0  0  0
  2  1  2  0  0  0  0
  2 15  1  0  0  0  0
  4  2  1  0  0  0  0
  5  8  1  1  0  0  0
  5  7  1  0  0  0  0
  6  5  1  0  0  0  0
  6  4  2  0  0  0  0
  7  3  2  0  0  0  0
  7  1  1  0  0  0  0
  9 11  1  1  0  0  0
  9 14  1  0  0  0  0
 10 12  1  0  0  0  0
 10  9  1  0  0  0  0
 12 13  1  0  0  0  0
 13 14  1  0  0  0  0
 13  8  1  1  0  0  0
 15 16  1  0  0  0  0
 16 18  1  0  0  0  0
 18 17  1  1  0  0  0
 18 20  1  0  0  0  0
 20 19  1  0  0  0  0
 20 21  1  1  0  0  0
 22  4  1  0  0  0  0
 23 29  1  0  0  0  0
 24 23  2  0  0  0  0
 26 28  1  0  0  0  0
 27 23  1  0  0  0  0
 27 26  1  0  0  0  0
 27 25  1  1  0  0  0
 29 28  1  0  0  0  0
 29 22  1  1  0  0  0
 30 31  2  0  0  0  0
 31 24  1  0  0  0  0
 31 32  1  0  0  0  0
 32 34  1  1  0  0  0
 32 35  1  0  0  0  0
 34 33  1  0  0  0  0
 35 37  1  0  0  0  0
 36 37  2  0  0  0  0
 38 40  1  0  0  0  0
 39 37  1  6  0  0  0
 39 38  1  0  0  0  0
 39 40  1  0  0  0  0
M  END
>  <MODEL>
7

>  <REMARK>
 VINA RESULT:      -5.8      2.683      7.501
  Name = 
  14 active torsions:
  status: ('A' for Active; 'I' for Inactive)
    1  A    between atoms: N_4  and  C_22
    2  A    between atoms: C_6  and  O_31
    3  A    between atoms: C_14  and  C_34
    4  A    between atoms: C_16  and  C_35
    5  A    between atoms: O_17  and  C_32
    6  A    between atoms: O_17  and  C_33
    7  A    between atoms: C_18  and  N_36
    8  A    between atoms: C_22  and  C_27
    9  A    between atoms: C_23  and  C_27
   10  A    between atoms: C_26  and  O_31
   11  A    between atoms: C_26  and  C_35
   12  A    between atoms: C_27  and  N_39
   13  A    between atoms: C_29  and  N_36
   14  A    between atoms: C_34  and  N_39
                            x       y       z     vdW  Elec       q    Type
                         _______ _______ _______ _____ _____    ______ ____

>  <TORSDO>
F 14

$$$$
=
 OpenBabel10232412493D

 40 43  0  0  1  0  0  0  0  0999 V2000
  190.0190  177.4940  141.9150 N   0  0  0  0  0  0  0  0  0  0  0  0
  188.8340  177.7900  141.4590 C   0  0  0  0  0  0  0  0  0  0  0  0
  192.3460  177.1090  141.5790 C   0  0  0  0  0  2  0  0  0  0  0  0
  188.5980  177.9590  140.0090 C   0  0  0  0  0  0  0  0  0  0  0  0
  190.9600  177.2930  139.5560 C   0  0  1  0  0  3  0  0  0  0  0  0
  189.5880  177.7520  139.1310 C   0  0  0  0  0  3  0  0  0  0  0  0
  191.1430  177.2900  141.0540 C   0  0  0  0  0  0  0  0  0  0  0  0
  191.3490  176.0800  138.9360 O   0  0  0  0  0  0  0  0  0  0  0  0
  192.2310  174.8230  135.9060 C   0  0  1  0  0  3  0  0  0  0  0  0
  193.2090  174.3700  136.9620 C   0  0  0  0  0  2  0  0  0  0  0  0
  191.4320  173.7530  135.5080 O   0  0  0  0  0  1  0  0  0  0  0  0
  193.4190  175.5780  137.8460 C   0  0  0  0  0  2  0  0  0  0  0  0
  192.1220  176.3640  137.7940 C   0  0  1  0  0  3  0  0  0  0  0  0
  191.3760  175.8930  136.5550 C   0  0  0  0  0  2  0  0  0  0  0  0
  187.7620  177.9700  142.3420 O   0  0  0  0  0  0  0  0  0  0  0  0
  187.5990  177.2010  143.5290 C   0  0  0  0  0  2  0  0  0  0  0  0
  189.3030  178.2740  144.8300 O   0  0  0  0  0  1  0  0  0  0  0  0
  187.9270  178.0370  144.7580 C   0  0  2  0  0  3  0  0  0  0  0  0
  186.2730  178.0820  146.5510 N   0  0  0  0  0  1  0  0  0  0  0  0
  187.4200  177.3600  146.0290 C   0  0  2  0  0  3  0  0  0  0  0  0
  188.4950  177.2670  147.1000 C   0  0  0  0  0  1  0  0  0  0  0  0
  187.3020  178.3740  139.5630 N   0  0  0  0  0  2  0  0  0  0  0  0
  185.8630  177.8530  137.6960 C   0  0  0  0  0  0  0  0  0  0  0  0
  184.6730  177.8350  138.2280 N   0  0  0  0  0  0  0  0  0  0  0  0
  186.3880  175.6380  136.9350 N   0  0  0  0  0  1  0  0  0  0  0  0
  187.6530  177.6730  135.7410 S   0  0  0  0  0  0  0  0  0  0  0  0
  186.1540  177.0080  136.5140 C   0  0  2  0  0  3  0  0  0  0  0  0
  188.1930  178.4280  137.3060 C   0  0  0  0  0  2  0  0  0  0  0  0
  186.9830  178.7140  138.1810 C   0  0  2  0  0  3  0  0  0  0  0  0
  184.2250  179.9160  139.2270 O   0  0  0  0  0  0  0  0  0  0  0  0
  184.1950  178.6590  139.3030 C   0  0  0  0  0  0  0  0  0  0  0  0
  183.6150  178.0210  140.5260 C   0  0  2  0  0  3  0  0  0  0  0  0
  181.3950  177.8450  139.5390 N   0  0  0  0  0  1  0  0  0  0  0  0
  182.4740  177.0900  140.1500 C   0  0  0  0  0  2  0  0  0  0  0  0
  183.1240  179.0420  141.4430 N   0  0  0  0  0  2  0  0  0  0  0  0
  181.2030  178.8910  143.3070 S   0  0  0  0  0  0  0  0  0  0  0  0
  182.7630  178.7900  142.8080 C   0  0  0  0  0  0  0  0  0  0  0  0
  183.5390  179.3770  144.9680 O   0  0  0  0  0  0  0  0  0  0  0  0
  183.8400  178.6080  143.8270 C   0  0  2  0  0  3  0  0  0  0  0  0
  184.5160  179.8960  144.1020 C   0  0  0  0  0  2  0  0  0  0  0  0
  2  1  2  0  0  0  0
  2 15  1  0  0  0  0
  4  2  1  0  0  0  0
  5  8  1  1  0  0  0
  5  7  1  0  0  0  0
  6  5  1  0  0  0  0
  6  4  2  0  0  0  0
  7  3  2  0  0  0  0
  7  1  1  0  0  0  0
  9 11  1  1  0  0  0
  9 14  1  0  0  0  0
  9 10  1  0  0  0  0
 10 12  1  0  0  0  0
 13 12  1  0  0  0  0
 13  8  1  1  0  0  0
 14 13  1  0  0  0  0
 15 16  1  0  0  0  0
 16 18  1  0  0  0  0
 18 17  1  1  0  0  0
 18 20  1  0  0  0  0
 20 19  1  0  0  0  0
 20 21  1  1  0  0  0
 22  4  1  0  0  0  0
 23 29  1  0  0  0  0
 23 24  2  0  0  0  0
 24 31  1  0  0  0  0
 26 27  1  0  0  0  0
 26 28  1  0  0  0  0
 27 25  1  1  0  0  0
 27 23  1  0  0  0  0
 28 29  1  0  0  0  0
 29 22  1  1  0  0  0
 30 31  2  0  0  0  0
 31 32  1  0  0  0  0
 32 34  1  6  0  0  0
 32 35  1  0  0  0  0
 33 34  1  0  0  0  0
 35 37  1  0  0  0  0
 37 36  2  0  0  0  0
 39 37  1  6  0  0  0
 39 40  1  0  0  0  0
 39 38  1  0  0  0  0
 40 38  1  0  0  0  0
M  END
>  <MODEL>
8

>  <REMARK>
 VINA RESULT:      -5.8      2.587      7.334
  Name = 
  14 active torsions:
  status: ('A' for Active; 'I' for Inactive)
    1  A    between atoms: N_4  and  C_22
    2  A    between atoms: C_6  and  O_31
    3  A    between atoms: C_14  and  C_34
    4  A    between atoms: C_16  and  C_35
    5  A    between atoms: O_17  and  C_32
    6  A    between atoms: O_17  and  C_33
    7  A    between atoms: C_18  and  N_36
    8  A    between atoms: C_22  and  C_27
    9  A    between atoms: C_23  and  C_27
   10  A    between atoms: C_26  and  O_31
   11  A    between atoms: C_26  and  C_35
   12  A    between atoms: C_27  and  N_39
   13  A    between atoms: C_29  and  N_36
   14  A    between atoms: C_34  and  N_39
                            x       y       z     vdW  Elec       q    Type
                         _______ _______ _______ _____ _____    ______ ____

>  <TORSDO>
F 14

$$$$
=
 OpenBabel10232412493D

 40 43  0  0  1  0  0  0  0  0999 V2000
  185.2380  178.6970  141.7330 N   0  0  0  0  0  0  0  0  0  0  0  0
  185.2670  178.6390  140.4320 C   0  0  0  0  0  0  0  0  0  0  0  0
  186.3400  178.7150  143.8460 C   0  0  0  0  0  2  0  0  0  0  0  0
  186.5400  178.4180  139.7100 C   0  0  0  0  0  0  0  0  0  0  0  0
  187.7200  178.1480  141.8920 C   0  0  1  0  0  3  0  0  0  0  0  0
  187.6770  178.2150  140.3860 C   0  0  0  0  0  3  0  0  0  0  0  0
  186.4100  178.5280  142.5360 C   0  0  0  0  0  0  0  0  0  0  0  0
  188.2550  176.9270  142.3720 O   0  0  0  0  0  0  0  0  0  0  0  0
  190.7070  176.9720  144.7220 C   0  0  1  0  0  3  0  0  0  0  0  0
  190.1900  178.3700  144.4810 C   0  0  0  0  0  2  0  0  0  0  0  0
  190.2760  176.5150  145.9660 O   0  0  0  0  0  1  0  0  0  0  0  0
  189.9850  178.4600  142.9870 C   0  0  0  0  0  2  0  0  0  0  0  0
  189.6480  177.0540  142.5260 C   0  0  1  0  0  3  0  0  0  0  0  0
  190.1190  176.1120  143.6230 C   0  0  0  0  0  2  0  0  0  0  0  0
  184.0910  178.8010  139.6900 O   0  0  0  0  0  0  0  0  0  0  0  0
  182.9720  177.9290  139.8120 C   0  0  0  0  0  2  0  0  0  0  0  0
  181.9250  180.0010  139.2110 O   0  0  0  0  0  1  0  0  0  0  0  0
  181.6700  178.7060  139.6730 C   0  0  2  0  0  3  0  0  0  0  0  0
  181.8440  178.7950  142.1040 N   0  0  0  0  0  1  0  0  0  0  0  0
  180.9080  178.7350  140.9950 C   0  0  2  0  0  3  0  0  0  0  0  0
  179.9960  177.5300  141.1600 C   0  0  0  0  0  1  0  0  0  0  0  0
  186.5370  178.4530  138.2780 N   0  0  0  0  0  2  0  0  0  0  0  0
  187.3540  177.4690  136.2300 C   0  0  0  0  0  0  0  0  0  0  0  0
  188.6390  177.6870  136.2830 N   0  0  0  0  0  0  0  0  0  0  0  0
  186.4500  178.7100  134.3850 N   0  0  0  0  0  1  0  0  0  0  0  0
  185.0860  176.5530  135.1950 S   0  0  0  0  0  0  0  0  0  0  0  0
  186.6770  177.3770  134.9160 C   0  0  2  0  0  3  0  0  0  0  0  0
  185.0660  177.0590  136.9430 C   0  0  0  0  0  2  0  0  0  0  0  0
  186.4910  177.2650  137.4320 C   0  0  2  0  0  3  0  0  0  0  0  0
  189.7310  178.7810  138.0550 O   0  0  0  0  0  0  0  0  0  0  0  0
  189.4640  177.7040  137.4580 C   0  0  0  0  0  0  0  0  0  0  0  0
  189.9940  176.4190  138.0130 C   0  0  2  0  0  3  0  0  0  0  0  0
  192.3570  176.5470  138.5910 N   0  0  0  0  0  1  0  0  0  0  0  0
  191.0090  176.6940  139.1110 C   0  0  0  0  0  2  0  0  0  0  0  0
  190.6210  175.6330  136.9580 N   0  0  0  0  0  2  0  0  0  0  0  0
  191.4860  173.2700  136.0340 S   0  0  0  0  0  0  0  0  0  0  0  0
  190.3610  174.2420  136.7310 C   0  0  0  0  0  0  0  0  0  0  0  0
  188.7000  172.7170  136.0060 O   0  0  0  0  0  0  0  0  0  0  0  0
  188.9870  173.7060  136.9660 C   0  0  2  0  0  3  0  0  0  0  0  0
  188.1180  173.9790  135.7990 C   0  0  0  0  0  2  0  0  0  0  0  0
  1  7  1  0  0  0  0
  2  1  2  0  0  0  0
  4  6  2  0  0  0  0
  4  2  1  0  0  0  0
  5  8  1  6  0  0  0
  5  7  1  0  0  0  0
  6  5  1  0  0  0  0
  7  3  2  0  0  0  0
  9 11  1  1  0  0  0
 10  9  1  0  0  0  0
 12 10  1  0  0  0  0
 13  8  1  1  0  0  0
 13 12  1  0  0  0  0
 13 14  1  0  0  0  0
 14  9  1  0  0  0  0
 15 16  1  0  0  0  0
 15  2  1  0  0  0  0
 18 17  1  1  0  0  0
 18 16  1  0  0  0  0
 18 20  1  0  0  0  0
 20 21  1  1  0  0  0
 20 19  1  0  0  0  0
 22  4  1  0  0  0  0
 23 24  2  0  0  0  0
 23 29  1  0  0  0  0
 24 31  1  0  0  0  0
 26 28  1  0  0  0  0
 27 25  1  1  0  0  0
 27 26  1  0  0  0  0
 27 23  1  0  0  0  0
 28 29  1  0  0  0  0
 29 22  1  1  0  0  0
 31 32  1  0  0  0  0
 31 30  2  0  0  0  0
 32 34  1  1  0  0  0
 33 34  1  0  0  0  0
 35 32  1  0  0  0  0
 36 37  2  0  0  0  0
 37 35  1  0  0  0  0
 38 39  1  0  0  0  0
 39 37  1  6  0  0  0
 40 38  1  0  0  0  0
 40 39  1  0  0  0  0
M  END
>  <MODEL>
9

>  <REMARK>
 VINA RESULT:      -5.7      2.909      5.944
  Name = 
  14 active torsions:
  status: ('A' for Active; 'I' for Inactive)
    1  A    between atoms: N_4  and  C_22
    2  A    between atoms: C_6  and  O_31
    3  A    between atoms: C_14  and  C_34
    4  A    between atoms: C_16  and  C_35
    5  A    between atoms: O_17  and  C_32
    6  A    between atoms: O_17  and  C_33
    7  A    between atoms: C_18  and  N_36
    8  A    between atoms: C_22  and  C_27
    9  A    between atoms: C_23  and  C_27
   10  A    between atoms: C_26  and  O_31
   11  A    between atoms: C_26  and  C_35
   12  A    between atoms: C_27  and  N_39
   13  A    between atoms: C_29  and  N_36
   14  A    between atoms: C_34  and  N_39
                            x       y       z     vdW  Elec       q    Type
                         _______ _______ _______ _____ _____    ______ ____

>  <TORSDO>
F 14

$$$$
