=
 OpenBabel10232411313D

 59 64  0  0  1  0  0  0  0  0999 V2000
  187.2870  177.8400  144.9710 C   0  0  0  0  0  0  0  0  0  0  0  0
  187.4740  177.0990  143.8080 C   0  0  0  0  0  0  0  0  0  0  0  0
  185.6690  178.4110  143.1630 C   0  0  0  0  0  0  0  0  0  0  0  0
  185.9820  178.8760  144.7520 S   0  0  0  0  0  0  0  0  0  0  0  0
  186.5630  177.4080  142.7840 C   0  0  0  0  0  3  0  0  0  0  0  0
  190.3210  178.2520  145.5440 C   0  0  0  0  0  1  0  0  0  0  0  0
  189.5100  177.6030  147.8140 N   0  0  0  0  0  0  0  0  0  0  0  0
  189.2620  177.8400  146.5160 C   0  0  0  0  0  0  0  0  0  0  0  0
  187.9670  177.6230  146.2200 N   0  0  0  0  0  0  0  0  0  0  0  0
  188.2990  177.2440  148.3020 C   0  0  0  0  0  3  0  0  0  0  0  0
  187.3620  177.2540  147.3380 N   0  0  0  0  0  0  0  0  0  0  0  0
  188.5200  176.1420  143.6380 N   0  0  0  0  0  2  0  0  0  0  0  0
  190.4480  175.4050  142.5910 O   0  0  0  0  0  0  0  0  0  0  0  0
  189.6280  176.3460  142.7610 C   0  0  0  0  0  0  0  0  0  0  0  0
  189.7860  177.6420  142.0120 C   0  0  0  0  0  2  0  0  0  0  0  0
  190.2940  176.7990  139.6840 N   0  0  0  0  0  2  0  0  0  0  0  0
  188.3960  178.0900  140.1300 O   0  0  0  0  0  0  0  0  0  0  0  0
  189.4340  177.5210  140.5660 C   0  0  0  0  0  0  0  0  0  0  0  0
  190.0410  176.7540  138.2530 C   0  0  0  0  0  2  0  0  0  0  0  0
  190.7980  175.3600  136.4910 O   0  0  0  0  0  0  0  0  0  0  0  0
  192.4440  175.9680  138.0490 N   0  0  0  0  0  2  0  0  0  0  0  0
  191.0980  175.9670  137.5520 C   0  0  0  0  0  0  0  0  0  0  0  0
  193.6330  175.4580  137.3610 C   0  0  2  0  0  3  0  0  0  0  0  0
  193.9520  176.1350  136.0220 C   0  0  0  0  0  2  0  0  0  0  0  0
  194.8070  177.2290  136.1880 O   0  0  0  0  0  1  0  0  0  0  0  0
  193.8010  174.0520  137.4440 O   0  0  0  0  0  0  0  0  0  0  0  0
  197.0520  174.2570  137.9360 C   0  0  2  0  0  3  0  0  0  0  0  0
  195.7910  174.7690  138.3250 O   0  0  0  0  0  0  0  0  0  0  0  0
  197.0280  173.8440  136.4720 C   0  0  0  0  0  2  0  0  0  0  0  0
  194.8400  173.7260  138.3360 C   0  0  2  0  0  3  0  0  0  0  0  0
  195.5350  172.4250  137.9460 C   0  0  2  0  0  3  0  0  0  0  0  0
  196.9490  172.7960  137.5790 C   0  0  2  0  0  3  0  0  0  0  0  0
  194.9110  171.7600  136.8760 O   0  0  0  0  0  0  0  0  0  0  0  0
  194.9770  170.1030  137.2580 P   0  0  0  0  0  0  0  0  0  0  0  0
  195.1180  169.9290  138.9380 O   0  0  0  0  0  1  0  0  0  0  0  0
  193.5460  169.3520  136.7530 O   0  0  0  0  0  1  0  0  0  0  0  0
  196.1640  169.4490  136.5860 O   0  0  0  0  0  0  0  0  0  0  0  0
  184.4670  178.8540  142.3960 C   0  0  0  0  0  2  0  0  0  0  0  0
  184.8060  179.2880  140.9830 C   0  0  0  0  0  2  0  0  0  0  0  0
  183.8170  178.8510  140.0970 O   0  0  0  0  0  0  0  0  0  0  0  0
  182.9650  178.0690  140.8820 C   0  0  0  0  0  2  0  0  0  0  0  0
  181.2660  176.8350  139.7050 O   0  0  0  0  0  0  0  0  0  0  0  0
  181.5370  176.9830  138.3300 C   0  0  1  0  0  3  0  0  0  0  0  0
  181.5320  178.0730  140.3270 C   0  0  2  0  0  0  0  0  0  0  0  0
  181.8320  178.4310  138.0260 C   0  0  2  0  0  3  0  0  0  0  0  0
  181.4100  179.1480  139.2720 C   0  0  0  0  0  2  0  0  0  0  0  0
  180.3450  179.6710  141.6890 O   0  0  0  0  0  1  0  0  0  0  0  0
  180.5030  178.3090  141.4330 C   0  0  0  0  0  2  0  0  0  0  0  0
  181.1110  180.2910  136.7110 O   0  0  0  0  0  1  0  0  0  0  0  0
  181.0370  178.9020  136.8130 C   0  0  0  0  0  2  0  0  0  0  0  0
  182.7330  176.1270  137.9410 C   0  0  0  0  0  2  0  0  0  0  0  0
  183.7890  176.9800  137.2550 C   0  0  0  0  0  2  0  0  0  0  0  0
  187.4570  174.6300  135.6850 C   0  0  0  0  0  1  0  0  0  0  0  0
  185.1380  172.8880  137.8000 C   0  0  0  0  0  1  0  0  0  0  0  0
  184.6090  176.1320  136.4070 N   0  0  0  0  0  0  0  0  0  0  0  0
  185.9600  176.1350  136.9610 C   0  0  0  0  0  2  0  0  0  0  0  0
  184.1170  174.7660  136.5560 C   0  0  0  0  0  2  0  0  0  0  0  0
  185.3140  173.8420  136.6350 C   0  0  1  0  0  3  0  0  0  0  0  0
  186.5170  174.7310  136.8720 C   0  0  1  0  0  3  0  0  0  0  0  0
  1  9  1  0  0  0  0
  2  1  2  0  0  0  0
  3  4  1  0  0  0  0
  4  1  1  0  0  0  0
  5  3  2  0  0  0  0
  5  2  1  0  0  0  0
  6  8  1  0  0  0  0
  7 10  1  0  0  0  0
  8  7  2  0  0  0  0
  9  8  1  0  0  0  0
  9 11  1  0  0  0  0
 11 10  2  0  0  0  0
 12  2  1  0  0  0  0
 13 14  2  0  0  0  0
 14 12  1  0  0  0  0
 15 14  1  0  0  0  0
 16 18  1  0  0  0  0
 17 18  2  0  0  0  0
 18 15  1  0  0  0  0
 19 16  1  0  0  0  0
 20 22  2  0  0  0  0
 22 21  1  0  0  0  0
 22 19  1  0  0  0  0
 23 24  1  6  0  0  0
 23 26  1  0  0  0  0
 23 21  1  0  0  0  0
 24 25  1  0  0  0  0
 27 29  1  6  0  0  0
 27 28  1  0  0  0  0
 28 30  1  0  0  0  0
 30 26  1  6  0  0  0
 31 33  1  6  0  0  0
 31 30  1  0  0  0  0
 32 29  1  6  0  0  0
 32 27  1  0  0  0  0
 32 31  1  0  0  0  0
 33 34  1  0  0  0  0
 34 35  1  0  0  0  0
 36 34  1  0  0  0  0
 37 34  2  0  0  0  0
 38  3  1  0  0  0  0
 39 38  1  0  0  0  0
 40 41  1  0  0  0  0
 40 39  1  0  0  0  0
 42 44  1  0  0  0  0
 43 51  1  1  0  0  0
 43 42  1  0  0  0  0
 44 41  1  1  0  0  0
 44 48  1  0  0  0  0
 45 50  1  6  0  0  0
 45 43  1  0  0  0  0
 45 46  1  0  0  0  0
 46 44  1  0  0  0  0
 48 47  1  0  0  0  0
 49 50  1  0  0  0  0
 52 51  1  0  0  0  0
 55 57  1  0  0  0  0
 55 56  1  0  0  0  0
 55 52  1  0  0  0  0
 57 58  1  0  0  0  0
 58 59  1  0  0  0  0
 58 54  1  1  0  0  0
 59 53  1  6  0  0  0
 59 56  1  0  0  0  0
M  END
>  <MODEL>
1

>  <REMARK>
 VINA RESULT:      -6.9      0.000      0.000
  Name = 
  22 active torsions:
  status: ('A' for Active; 'I' for Inactive)
    1  A    between atoms: C_2  and  C_25
    2  A    between atoms: C_3  and  N_33
    3  A    between atoms: P_6  and  O_19
    4  A    between atoms: N_7  and  C_47
    5  A    between atoms: C_8  and  N_17
    6  A    between atoms: C_15  and  O_34
    7  A    between atoms: C_15  and  C_49
    8  A    between atoms: N_18  and  C_41
    9  A    between atoms: O_19  and  C_48
   10  A    between atoms: C_20  and  C_23
   11  A    between atoms: C_21  and  O_51
   12  A    between atoms: C_22  and  C_23
   13  A    between atoms: C_22  and  O_34
   14  A    between atoms: C_25  and  N_39
   15  A    between atoms: C_25  and  O_51
   16  A    between atoms: C_28  and  C_50
   17  A    between atoms: C_28  and  C_56
   18  A    between atoms: C_29  and  C_55
   19  A    between atoms: C_31  and  C_49
   20  A    between atoms: C_40  and  C_46
   21  A    between atoms: C_41  and  C_46
   22  A    between atoms: C_43  and  C_47
                            x       y       z     vdW  Elec       q    Type
                         _______ _______ _______ _____ _____    ______ ____

>  <TORSDO>
F 22

$$$$
=
 OpenBabel10232411313D

 59 64  0  0  1  0  0  0  0  0999 V2000
  187.2050  174.3480  135.3920 C   0  0  0  0  0  0  0  0  0  0  0  0
  188.1200  175.3970  135.4360 C   0  0  0  0  0  0  0  0  0  0  0  0
  189.5810  173.5920  135.3770 C   0  0  0  0  0  0  0  0  0  0  0  0
  188.0470  172.8940  135.3670 S   0  0  0  0  0  0  0  0  0  0  0  0
  189.4620  174.9820  135.4340 C   0  0  0  0  0  3  0  0  0  0  0  0
  185.4520  173.1460  137.6680 C   0  0  0  0  0  1  0  0  0  0  0  0
  183.7250  174.4030  136.3750 N   0  0  0  0  0  0  0  0  0  0  0  0
  185.0000  174.0140  136.5370 C   0  0  0  0  0  0  0  0  0  0  0  0
  185.7800  174.4740  135.5410 N   0  0  0  0  0  0  0  0  0  0  0  0
  183.7660  175.1370  135.2380 C   0  0  0  0  0  3  0  0  0  0  0  0
  185.0110  175.1810  134.7300 N   0  0  0  0  0  0  0  0  0  0  0  0
  187.7450  176.7750  135.4350 N   0  0  0  0  0  2  0  0  0  0  0  0
  187.1790  178.7270  136.5430 O   0  0  0  0  0  0  0  0  0  0  0  0
  187.6180  177.5490  136.6280 C   0  0  0  0  0  0  0  0  0  0  0  0
  187.9540  176.9530  137.9690 C   0  0  0  0  0  2  0  0  0  0  0  0
  186.6420  177.9650  139.8780 N   0  0  0  0  0  2  0  0  0  0  0  0
  188.7630  178.7590  139.2950 O   0  0  0  0  0  0  0  0  0  0  0  0
  187.8300  177.9360  139.0860 C   0  0  0  0  0  0  0  0  0  0  0  0
  186.4410  178.9800  140.9000 C   0  0  0  0  0  2  0  0  0  0  0  0
  187.7000  177.8230  142.5420 O   0  0  0  0  0  0  0  0  0  0  0  0
  185.5910  178.5650  143.2530 N   0  0  0  0  0  2  0  0  0  0  0  0
  186.6160  178.4000  142.2630 C   0  0  0  0  0  0  0  0  0  0  0  0
  185.7000  178.2770  144.6870 C   0  0  2  0  0  3  0  0  0  0  0  0
  184.5070  178.7300  145.5360 C   0  0  0  0  0  2  0  0  0  0  0  0
  184.9150  179.2210  146.7810 O   0  0  0  0  0  1  0  0  0  0  0  0
  186.9990  178.4620  145.2240 O   0  0  0  0  0  0  0  0  0  0  0  0
  187.9900  177.0030  148.0060 C   0  0  2  0  0  3  0  0  0  0  0  0
  186.9450  177.0860  147.0560 O   0  0  0  0  0  0  0  0  0  0  0  0
  188.6900  178.3470  148.1450 C   0  0  0  0  0  2  0  0  0  0  0  0
  187.4920  177.2610  145.7660 C   0  0  2  0  0  3  0  0  0  0  0  0
  189.0130  177.2680  145.8760 C   0  0  2  0  0  3  0  0  0  0  0  0
  189.3300  177.2120  147.3480 C   0  0  2  0  0  3  0  0  0  0  0  0
  189.6070  178.4010  145.2910 O   0  0  0  0  0  0  0  0  0  0  0  0
  190.9740  177.8280  144.4540 P   0  0  0  0  0  0  0  0  0  0  0  0
  192.1380  177.3230  145.5780 O   0  0  0  0  0  1  0  0  0  0  0  0
  190.5330  176.5020  143.4980 O   0  0  0  0  0  0  0  0  0  0  0  0
  191.5600  178.9160  143.5830 O   0  0  0  0  0  1  0  0  0  0  0  0
  190.8420  172.8080  135.5400 C   0  0  0  0  0  2  0  0  0  0  0  0
  192.0480  173.6940  135.7840 C   0  0  0  0  0  2  0  0  0  0  0  0
  192.2590  173.8480  137.1570 O   0  0  0  0  0  0  0  0  0  0  0  0
  193.6330  173.6550  137.3250 C   0  0  0  0  0  2  0  0  0  0  0  0
  195.1420  175.4310  136.7260 O   0  0  0  0  0  0  0  0  0  0  0  0
  196.4470  174.9440  136.9400 C   0  0  1  0  0  3  0  0  0  0  0  0
  194.3310  174.9480  137.7730 C   0  0  2  0  0  0  0  0  0  0  0  0
  196.5150  174.2510  138.2790 C   0  0  2  0  0  3  0  0  0  0  0  0
  195.2330  174.6450  138.9470 C   0  0  0  0  0  2  0  0  0  0  0  0
  193.8170  176.8440  139.1740 O   0  0  0  0  0  1  0  0  0  0  0  0
  193.3170  176.0260  138.1610 C   0  0  0  0  0  2  0  0  0  0  0  0
  197.3240  175.6160  140.0650 O   0  0  0  0  0  1  0  0  0  0  0  0
  197.7280  174.7240  139.0720 C   0  0  0  0  0  2  0  0  0  0  0  0
  196.8230  173.9630  135.8400 C   0  0  0  0  0  2  0  0  0  0  0  0
  198.3050  173.6330  135.9130 C   0  0  0  0  0  2  0  0  0  0  0  0
  198.8880  169.2150  137.1730 C   0  0  0  0  0  1  0  0  0  0  0  0
  195.5290  170.3860  136.6970 C   0  0  0  0  0  1  0  0  0  0  0  0
  198.4780  172.1930  135.8140 N   0  0  0  0  0  0  0  0  0  0  0  0
  198.6940  171.6850  137.1650 C   0  0  0  0  0  2  0  0  0  0  0  0
  197.2040  171.6350  135.3720 C   0  0  0  0  0  2  0  0  0  0  0  0
  196.9480  170.3680  136.1630 C   0  0  1  0  0  3  0  0  0  0  0  0
  197.9320  170.3850  137.3140 C   0  0  1  0  0  3  0  0  0  0  0  0
  1  2  2  0  0  0  0
  1  9  1  0  0  0  0
  3  5  2  0  0  0  0
  3 38  1  0  0  0  0
  4  3  1  0  0  0  0
  4  1  1  0  0  0  0
  5  2  1  0  0  0  0
  7  8  2  0  0  0  0
  8  6  1  0  0  0  0
  9  8  1  0  0  0  0
 10  7  1  0  0  0  0
 11 10  2  0  0  0  0
 11  9  1  0  0  0  0
 12  2  1  0  0  0  0
 12 14  1  0  0  0  0
 13 14  2  0  0  0  0
 14 15  1  0  0  0  0
 15 18  1  0  0  0  0
 16 19  1  0  0  0  0
 18 17  2  0  0  0  0
 18 16  1  0  0  0  0
 19 22  1  0  0  0  0
 21 23  1  0  0  0  0
 22 20  2  0  0  0  0
 22 21  1  0  0  0  0
 23 26  1  0  0  0  0
 23 24  1  1  0  0  0
 24 25  1  0  0  0  0
 27 29  1  1  0  0  0
 28 27  1  0  0  0  0
 30 26  1  1  0  0  0
 30 31  1  0  0  0  0
 30 28  1  0  0  0  0
 31 33  1  1  0  0  0
 31 32  1  0  0  0  0
 32 27  1  0  0  0  0
 32 29  1  1  0  0  0
 34 33  1  0  0  0  0
 34 35  1  0  0  0  0
 36 34  2  0  0  0  0
 37 34  1  0  0  0  0
 38 39  1  0  0  0  0
 39 40  1  0  0  0  0
 40 41  1  0  0  0  0
 42 43  1  0  0  0  0
 42 44  1  0  0  0  0
 43 51  1  6  0  0  0
 43 45  1  0  0  0  0
 44 41  1  6  0  0  0
 44 48  1  0  0  0  0
 44 46  1  0  0  0  0
 45 46  1  0  0  0  0
 45 50  1  1  0  0  0
 48 47  1  0  0  0  0
 50 49  1  0  0  0  0
 51 52  1  0  0  0  0
 55 52  1  0  0  0  0
 55 56  1  0  0  0  0
 56 59  1  0  0  0  0
 57 55  1  0  0  0  0
 57 58  1  0  0  0  0
 58 54  1  1  0  0  0
 58 59  1  0  0  0  0
 59 53  1  6  0  0  0
M  END
>  <MODEL>
2

>  <REMARK>
 VINA RESULT:      -6.6      3.954     11.783
  Name = 
  22 active torsions:
  status: ('A' for Active; 'I' for Inactive)
    1  A    between atoms: C_2  and  C_25
    2  A    between atoms: C_3  and  N_33
    3  A    between atoms: P_6  and  O_19
    4  A    between atoms: N_7  and  C_47
    5  A    between atoms: C_8  and  N_17
    6  A    between atoms: C_15  and  O_34
    7  A    between atoms: C_15  and  C_49
    8  A    between atoms: N_18  and  C_41
    9  A    between atoms: O_19  and  C_48
   10  A    between atoms: C_20  and  C_23
   11  A    between atoms: C_21  and  O_51
   12  A    between atoms: C_22  and  C_23
   13  A    between atoms: C_22  and  O_34
   14  A    between atoms: C_25  and  N_39
   15  A    between atoms: C_25  and  O_51
   16  A    between atoms: C_28  and  C_50
   17  A    between atoms: C_28  and  C_56
   18  A    between atoms: C_29  and  C_55
   19  A    between atoms: C_31  and  C_49
   20  A    between atoms: C_40  and  C_46
   21  A    between atoms: C_41  and  C_46
   22  A    between atoms: C_43  and  C_47
                            x       y       z     vdW  Elec       q    Type
                         _______ _______ _______ _____ _____    ______ ____

>  <TORSDO>
F 22

$$$$
=
 OpenBabel10232411313D

 59 64  0  0  1  0  0  0  0  0999 V2000
  188.5960  177.3470  144.7590 C   0  0  0  0  0  0  0  0  0  0  0  0
  188.4430  176.9060  143.4470 C   0  0  0  0  0  0  0  0  0  0  0  0
  186.3480  177.8450  143.8010 C   0  0  0  0  0  0  0  0  0  0  0  0
  187.1610  178.0620  145.2620 S   0  0  0  0  0  0  0  0  0  0  0  0
  187.1780  177.1760  142.8990 C   0  0  0  0  0  3  0  0  0  0  0  0
  188.5650  177.0640  147.8610 C   0  0  0  0  0  1  0  0  0  0  0  0
  190.9610  176.5540  147.3770 N   0  0  0  0  0  0  0  0  0  0  0  0
  189.7340  176.8860  146.9440 C   0  0  0  0  0  0  0  0  0  0  0  0
  189.7200  177.0670  145.6100 N   0  0  0  0  0  0  0  0  0  0  0  0
  191.6950  176.5250  146.2400 C   0  0  0  0  0  3  0  0  0  0  0  0
  190.9450  176.8360  145.1670 N   0  0  0  0  0  0  0  0  0  0  0  0
  189.4830  176.2780  142.6970 N   0  0  0  0  0  2  0  0  0  0  0  0
  190.8050  176.1080  140.8050 O   0  0  0  0  0  0  0  0  0  0  0  0
  189.9600  176.7840  141.4500 C   0  0  0  0  0  0  0  0  0  0  0  0
  189.4260  178.0750  140.8910 C   0  0  0  0  0  2  0  0  0  0  0  0
  188.7610  176.7730  138.8290 N   0  0  0  0  0  2  0  0  0  0  0  0
  187.5960  178.6890  139.4950 O   0  0  0  0  0  0  0  0  0  0  0  0
  188.5300  177.8690  139.7150 C   0  0  0  0  0  0  0  0  0  0  0  0
  187.9780  176.6060  137.6150 C   0  0  0  0  0  2  0  0  0  0  0  0
  189.5150  176.4040  135.8220 O   0  0  0  0  0  0  0  0  0  0  0  0
  188.6100  174.3770  136.5820 N   0  0  0  0  0  2  0  0  0  0  0  0
  188.7310  175.8070  136.6050 C   0  0  0  0  0  0  0  0  0  0  0  0
  189.4480  173.4380  135.8310 C   0  0  2  0  0  3  0  0  0  0  0  0
  188.7220  172.1960  135.3010 C   0  0  0  0  0  2  0  0  0  0  0  0
  187.7010  171.7860  136.1660 O   0  0  0  0  0  1  0  0  0  0  0  0
  190.7510  173.2620  136.3620 O   0  0  0  0  0  0  0  0  0  0  0  0
  193.3060  171.8460  134.8390 C   0  0  2  0  0  3  0  0  0  0  0  0
  191.9460  172.2140  134.7100 O   0  0  0  0  0  0  0  0  0  0  0  0
  193.6270  171.4930  136.2840 C   0  0  0  0  0  2  0  0  0  0  0  0
  191.7260  173.4470  135.3640 C   0  0  2  0  0  3  0  0  0  0  0  0
  193.0490  173.9350  135.9440 C   0  0  2  0  0  3  0  0  0  0  0  0
  194.0510  172.8370  135.6970 C   0  0  2  0  0  3  0  0  0  0  0  0
  192.9780  174.2310  137.3180 O   0  0  0  0  0  0  0  0  0  0  0  0
  194.0540  175.5250  137.5700 P   0  0  0  0  0  0  0  0  0  0  0  0
  193.3610  176.6120  138.6710 O   0  0  0  0  0  1  0  0  0  0  0  0
  195.4990  174.9350  138.2270 O   0  0  0  0  0  1  0  0  0  0  0  0
  194.3370  176.2440  136.2700 O   0  0  0  0  0  0  0  0  0  0  0  0
  184.8930  178.1240  143.6180 C   0  0  0  0  0  2  0  0  0  0  0  0
  184.6380  179.4490  142.9240 C   0  0  0  0  0  2  0  0  0  0  0  0
  184.4020  179.2390  141.5630 O   0  0  0  0  0  0  0  0  0  0  0  0
  183.6570  178.0560  141.5140 C   0  0  0  0  0  2  0  0  0  0  0  0
  181.7870  177.1860  140.2760 O   0  0  0  0  0  0  0  0  0  0  0  0
  182.0580  177.4210  138.9140 C   0  0  1  0  0  3  0  0  0  0  0  0
  182.2330  178.3110  140.9990 C   0  0  2  0  0  0  0  0  0  0  0  0
  182.5510  178.8350  138.7320 C   0  0  2  0  0  3  0  0  0  0  0  0
  182.2510  179.4860  140.0490 C   0  0  0  0  0  2  0  0  0  0  0  0
  180.1310  179.2680  141.6970 O   0  0  0  0  0  1  0  0  0  0  0  0
  181.2610  178.5870  142.1480 C   0  0  0  0  0  2  0  0  0  0  0  0
  181.7650  180.8970  137.8170 O   0  0  0  0  0  1  0  0  0  0  0  0
  181.8160  179.5220  137.5870 C   0  0  0  0  0  2  0  0  0  0  0  0
  183.1160  176.4460  138.4190 C   0  0  0  0  0  2  0  0  0  0  0  0
  182.5160  175.0580  138.2530 C   0  0  0  0  0  2  0  0  0  0  0  0
  184.4090  172.4300  134.9430 C   0  0  0  0  0  1  0  0  0  0  0  0
  185.2190  175.9270  134.9660 C   0  0  0  0  0  1  0  0  0  0  0  0
  183.4680  174.2080  137.5590 N   0  0  0  0  0  0  0  0  0  0  0  0
  182.8510  173.7970  136.3010 C   0  0  0  0  0  2  0  0  0  0  0  0
  184.6080  175.0420  137.1940 C   0  0  0  0  0  2  0  0  0  0  0  0
  185.0340  174.6670  135.7900 C   0  0  1  0  0  3  0  0  0  0  0  0
  183.9060  173.8350  135.2160 C   0  0  1  0  0  3  0  0  0  0  0  0
  1  4  1  0  0  0  0
  1  9  1  0  0  0  0
  2  1  2  0  0  0  0
  3  4  1  0  0  0  0
  5  2  1  0  0  0  0
  5  3  2  0  0  0  0
  8  7  2  0  0  0  0
  8  6  1  0  0  0  0
  9  8  1  0  0  0  0
 10  7  1  0  0  0  0
 11  9  1  0  0  0  0
 11 10  2  0  0  0  0
 12  2  1  0  0  0  0
 13 14  2  0  0  0  0
 14 12  1  0  0  0  0
 15 14  1  0  0  0  0
 16 18  1  0  0  0  0
 17 18  2  0  0  0  0
 18 15  1  0  0  0  0
 19 16  1  0  0  0  0
 20 22  2  0  0  0  0
 21 22  1  0  0  0  0
 22 19  1  0  0  0  0
 23 24  1  1  0  0  0
 23 26  1  0  0  0  0
 23 21  1  0  0  0  0
 24 25  1  0  0  0  0
 27 32  1  0  0  0  0
 27 29  1  1  0  0  0
 28 27  1  0  0  0  0
 28 30  1  0  0  0  0
 30 31  1  0  0  0  0
 30 26  1  1  0  0  0
 31 33  1  1  0  0  0
 32 31  1  0  0  0  0
 32 29  1  1  0  0  0
 33 34  1  0  0  0  0
 34 36  1  0  0  0  0
 34 35  1  0  0  0  0
 37 34  2  0  0  0  0
 38  3  1  0  0  0  0
 39 38  1  0  0  0  0
 40 39  1  0  0  0  0
 41 40  1  0  0  0  0
 42 44  1  0  0  0  0
 43 51  1  1  0  0  0
 43 42  1  0  0  0  0
 44 41  1  1  0  0  0
 44 48  1  0  0  0  0
 45 50  1  6  0  0  0
 45 43  1  0  0  0  0
 45 46  1  0  0  0  0
 46 44  1  0  0  0  0
 47 48  1  0  0  0  0
 50 49  1  0  0  0  0
 52 51  1  0  0  0  0
 55 52  1  0  0  0  0
 56 55  1  0  0  0  0
 57 55  1  0  0  0  0
 58 54  1  6  0  0  0
 58 57  1  0  0  0  0
 59 53  1  1  0  0  0
 59 58  1  0  0  0  0
 59 56  1  0  0  0  0
M  END
>  <MODEL>
3

>  <REMARK>
 VINA RESULT:      -6.6      2.222      3.342
  Name = 
  22 active torsions:
  status: ('A' for Active; 'I' for Inactive)
    1  A    between atoms: C_2  and  C_25
    2  A    between atoms: C_3  and  N_33
    3  A    between atoms: P_6  and  O_19
    4  A    between atoms: N_7  and  C_47
    5  A    between atoms: C_8  and  N_17
    6  A    between atoms: C_15  and  O_34
    7  A    between atoms: C_15  and  C_49
    8  A    between atoms: N_18  and  C_41
    9  A    between atoms: O_19  and  C_48
   10  A    between atoms: C_20  and  C_23
   11  A    between atoms: C_21  and  O_51
   12  A    between atoms: C_22  and  C_23
   13  A    between atoms: C_22  and  O_34
   14  A    between atoms: C_25  and  N_39
   15  A    between atoms: C_25  and  O_51
   16  A    between atoms: C_28  and  C_50
   17  A    between atoms: C_28  and  C_56
   18  A    between atoms: C_29  and  C_55
   19  A    between atoms: C_31  and  C_49
   20  A    between atoms: C_40  and  C_46
   21  A    between atoms: C_41  and  C_46
   22  A    between atoms: C_43  and  C_47
                            x       y       z     vdW  Elec       q    Type
                         _______ _______ _______ _____ _____    ______ ____

>  <TORSDO>
F 22

$$$$
=
 OpenBabel10232411313D

 59 64  0  0  1  0  0  0  0  0999 V2000
  188.4660  176.6230  137.1020 C   0  0  0  0  0  0  0  0  0  0  0  0
  189.3840  175.5900  136.9330 C   0  0  0  0  0  0  0  0  0  0  0  0
  190.1530  176.4870  138.9330 C   0  0  0  0  0  0  0  0  0  0  0  0
  188.8400  177.4580  138.5110 S   0  0  0  0  0  0  0  0  0  0  0  0
  190.3430  175.5080  137.9570 C   0  0  0  0  0  3  0  0  0  0  0  0
  185.3950  176.1180  137.2340 C   0  0  0  0  0  1  0  0  0  0  0  0
  185.5480  177.4720  135.1420 N   0  0  0  0  0  0  0  0  0  0  0  0
  186.1460  176.8790  136.1880 C   0  0  0  0  0  0  0  0  0  0  0  0
  187.4820  177.0330  136.1370 N   0  0  0  0  0  0  0  0  0  0  0  0
  186.5830  178.0110  134.4550 C   0  0  0  0  0  3  0  0  0  0  0  0
  187.7570  177.7450  135.0560 N   0  0  0  0  0  0  0  0  0  0  0  0
  189.3400  174.6600  135.8500 N   0  0  0  0  0  2  0  0  0  0  0  0
  188.5750  172.7000  134.8860 O   0  0  0  0  0  0  0  0  0  0  0  0
  188.4720  173.5260  135.8310 C   0  0  0  0  0  0  0  0  0  0  0  0
  187.4880  173.2940  136.9460 C   0  0  0  0  0  2  0  0  0  0  0  0
  185.0700  172.5980  137.1880 N   0  0  0  0  0  2  0  0  0  0  0  0
  186.4790  171.5980  135.6120 O   0  0  0  0  0  0  0  0  0  0  0  0
  186.3270  172.4540  136.5260 C   0  0  0  0  0  0  0  0  0  0  0  0
  183.9510  171.7210  136.8810 C   0  0  0  0  0  2  0  0  0  0  0  0
  181.6310  171.9620  137.3020 O   0  0  0  0  0  0  0  0  0  0  0  0
  182.6590  173.8340  136.3320 N   0  0  0  0  0  2  0  0  0  0  0  0
  182.6730  172.4910  136.8360 C   0  0  0  0  0  0  0  0  0  0  0  0
  181.5610  174.8000  136.4390 C   0  0  2  0  0  3  0  0  0  0  0  0
  180.6230  174.8560  135.2270 C   0  0  0  0  0  2  0  0  0  0  0  0
  180.8510  173.7920  134.3470 O   0  0  0  0  0  1  0  0  0  0  0  0
  181.9170  176.0270  137.0530 O   0  0  0  0  0  0  0  0  0  0  0  0
  180.0870  176.7820  139.6850 C   0  0  2  0  0  3  0  0  0  0  0  0
  180.4920  175.7350  138.8240 O   0  0  0  0  0  0  0  0  0  0  0  0
  180.0200  178.0990  138.9260 C   0  0  0  0  0  2  0  0  0  0  0  0
  181.8420  175.9230  138.4540 C   0  0  2  0  0  3  0  0  0  0  0  0
  182.3690  177.1770  139.1460 C   0  0  2  0  0  3  0  0  0  0  0  0
  181.1920  177.7930  139.8560 C   0  0  2  0  0  3  0  0  0  0  0  0
  182.9420  178.1030  138.2560 O   0  0  0  0  0  0  0  0  0  0  0  0
  183.7440  179.2460  139.2300 P   0  0  0  0  0  0  0  0  0  0  0  0
  183.2150  180.7990  138.8070 O   0  0  0  0  0  0  0  0  0  0  0  0
  183.3630  178.9660  140.8560 O   0  0  0  0  0  1  0  0  0  0  0  0
  185.2410  179.1570  139.0310 O   0  0  0  0  0  1  0  0  0  0  0  0
  191.0840  176.8040  140.0560 C   0  0  0  0  0  2  0  0  0  0  0  0
  190.4170  177.6090  141.1550 C   0  0  0  0  0  2  0  0  0  0  0  0
  191.3630  177.9930  142.1090 O   0  0  0  0  0  0  0  0  0  0  0  0
  190.6320  178.1300  143.2920 C   0  0  0  0  0  2  0  0  0  0  0  0
  189.4730  176.4710  144.5960 O   0  0  0  0  0  0  0  0  0  0  0  0
  189.2390  177.0430  145.8620 C   0  0  1  0  0  3  0  0  0  0  0  0
  190.7560  176.8800  144.1760 C   0  0  2  0  0  0  0  0  0  0  0  0
  190.4960  177.7160  146.3550 C   0  0  2  0  0  3  0  0  0  0  0  0
  191.5530  177.2230  145.4130 C   0  0  0  0  0  2  0  0  0  0  0  0
  192.1080  174.8850  144.3080 O   0  0  0  0  0  1  0  0  0  0  0  0
  191.4290  175.7280  143.4280 C   0  0  0  0  0  2  0  0  0  0  0  0
  189.9010  177.9440  148.6570 O   0  0  0  0  0  1  0  0  0  0  0  0
  190.7970  177.3130  147.7940 C   0  0  0  0  0  2  0  0  0  0  0  0
  188.1170  178.0670  145.7700 C   0  0  0  0  0  2  0  0  0  0  0  0
  186.9390  177.6350  146.6310 C   0  0  0  0  0  2  0  0  0  0  0  0
  183.4030  179.4950  144.2900 C   0  0  0  0  0  1  0  0  0  0  0  0
  186.3270  178.5560  142.4310 C   0  0  0  0  0  1  0  0  0  0  0  0
  185.7170  177.7360  145.8510 N   0  0  0  0  0  0  0  0  0  0  0  0
  185.4080  179.1560  145.7050 C   0  0  0  0  0  2  0  0  0  0  0  0
  186.0190  177.2500  144.5090 C   0  0  0  0  0  2  0  0  0  0  0  0
  185.3390  178.1670  143.5140 C   0  0  1  0  0  3  0  0  0  0  0  0
  184.9180  179.3950  144.2930 C   0  0  1  0  0  3  0  0  0  0  0  0
  1  4  1  0  0  0  0
  2  1  2  0  0  0  0
  2  5  1  0  0  0  0
  3 38  1  0  0  0  0
  4  3  1  0  0  0  0
  5  3  2  0  0  0  0
  7  8  2  0  0  0  0
  8  6  1  0  0  0  0
  9  8  1  0  0  0  0
  9  1  1  0  0  0  0
 10 11  2  0  0  0  0
 10  7  1  0  0  0  0
 11  9  1  0  0  0  0
 12  2  1  0  0  0  0
 13 14  2  0  0  0  0
 14 12  1  0  0  0  0
 14 15  1  0  0  0  0
 17 18  2  0  0  0  0
 18 15  1  0  0  0  0
 18 16  1  0  0  0  0
 19 16  1  0  0  0  0
 21 23  1  0  0  0  0
 21 22  1  0  0  0  0
 22 19  1  0  0  0  0
 22 20  2  0  0  0  0
 23 24  1  6  0  0  0
 23 26  1  0  0  0  0
 25 24  1  0  0  0  0
 27 29  1  6  0  0  0
 27 32  1  0  0  0  0
 28 27  1  0  0  0  0
 30 26  1  6  0  0  0
 30 28  1  0  0  0  0
 30 31  1  0  0  0  0
 31 33  1  6  0  0  0
 31 32  1  0  0  0  0
 32 29  1  6  0  0  0
 33 34  1  0  0  0  0
 34 36  1  0  0  0  0
 35 34  2  0  0  0  0
 37 34  1  0  0  0  0
 38 39  1  0  0  0  0
 39 40  1  0  0  0  0
 40 41  1  0  0  0  0
 42 43  1  0  0  0  0
 43 51  1  6  0  0  0
 43 45  1  0  0  0  0
 44 41  1  6  0  0  0
 44 42  1  0  0  0  0
 44 46  1  0  0  0  0
 45 50  1  1  0  0  0
 46 45  1  0  0  0  0
 48 44  1  0  0  0  0
 48 47  1  0  0  0  0
 50 49  1  0  0  0  0
 51 52  1  0  0  0  0
 55 52  1  0  0  0  0
 56 55  1  0  0  0  0
 57 55  1  0  0  0  0
 58 54  1  6  0  0  0
 58 59  1  0  0  0  0
 58 57  1  0  0  0  0
 59 53  1  1  0  0  0
 59 56  1  0  0  0  0
M  END
>  <MODEL>
4

>  <REMARK>
 VINA RESULT:      -6.6      4.223     11.222
  Name = 
  22 active torsions:
  status: ('A' for Active; 'I' for Inactive)
    1  A    between atoms: C_2  and  C_25
    2  A    between atoms: C_3  and  N_33
    3  A    between atoms: P_6  and  O_19
    4  A    between atoms: N_7  and  C_47
    5  A    between atoms: C_8  and  N_17
    6  A    between atoms: C_15  and  O_34
    7  A    between atoms: C_15  and  C_49
    8  A    between atoms: N_18  and  C_41
    9  A    between atoms: O_19  and  C_48
   10  A    between atoms: C_20  and  C_23
   11  A    between atoms: C_21  and  O_51
   12  A    between atoms: C_22  and  C_23
   13  A    between atoms: C_22  and  O_34
   14  A    between atoms: C_25  and  N_39
   15  A    between atoms: C_25  and  O_51
   16  A    between atoms: C_28  and  C_50
   17  A    between atoms: C_28  and  C_56
   18  A    between atoms: C_29  and  C_55
   19  A    between atoms: C_31  and  C_49
   20  A    between atoms: C_40  and  C_46
   21  A    between atoms: C_41  and  C_46
   22  A    between atoms: C_43  and  C_47
                            x       y       z     vdW  Elec       q    Type
                         _______ _______ _______ _____ _____    ______ ____

>  <TORSDO>
F 22

$$$$
=
 OpenBabel10232411313D

 59 64  0  0  1  0  0  0  0  0999 V2000
  190.8570  173.6150  135.8590 C   0  0  0  0  0  0  0  0  0  0  0  0
  190.4640  174.3460  136.9770 C   0  0  0  0  0  0  0  0  0  0  0  0
  188.3860  173.6720  136.1870 C   0  0  0  0  0  0  0  0  0  0  0  0
  189.4860  173.0280  135.0840 S   0  0  0  0  0  0  0  0  0  0  0  0
  189.0730  174.3900  137.1680 C   0  0  0  0  0  3  0  0  0  0  0  0
  192.4110  175.8560  134.3540 C   0  0  0  0  0  1  0  0  0  0  0  0
  194.1610  174.0780  134.4630 N   0  0  0  0  0  0  0  0  0  0  0  0
  192.9140  174.4990  134.7320 C   0  0  0  0  0  0  0  0  0  0  0  0
  192.1950  173.5360  135.3390 N   0  0  0  0  0  0  0  0  0  0  0  0
  194.1740  172.8140  134.9490 C   0  0  0  0  0  3  0  0  0  0  0  0
  192.9830  172.4830  135.4800 N   0  0  0  0  0  0  0  0  0  0  0  0
  191.3800  174.9600  137.8830 N   0  0  0  0  0  2  0  0  0  0  0  0
  192.2470  176.8270  138.9430 O   0  0  0  0  0  0  0  0  0  0  0  0
  191.3340  176.3470  138.2180 C   0  0  0  0  0  0  0  0  0  0  0  0
  190.2450  177.2320  137.6750 C   0  0  0  0  0  2  0  0  0  0  0  0
  189.0750  177.2000  139.9150 N   0  0  0  0  0  2  0  0  0  0  0  0
  189.1450  179.1320  138.5990 O   0  0  0  0  0  0  0  0  0  0  0  0
  189.4720  177.9230  138.7490 C   0  0  0  0  0  0  0  0  0  0  0  0
  188.2280  177.8090  140.9280 C   0  0  0  0  0  2  0  0  0  0  0  0
  187.9520  176.2940  142.7310 O   0  0  0  0  0  0  0  0  0  0  0  0
  189.6430  177.8930  143.0320 N   0  0  0  0  0  2  0  0  0  0  0  0
  188.5730  177.2950  142.2860 C   0  0  0  0  0  0  0  0  0  0  0  0
  190.2620  177.3680  144.2520 C   0  0  2  0  0  3  0  0  0  0  0  0
  191.4400  176.4120  144.0260 C   0  0  0  0  0  2  0  0  0  0  0  0
  191.0190  175.1910  143.4880 O   0  0  0  0  0  1  0  0  0  0  0  0
  189.3440  177.0490  145.2850 O   0  0  0  0  0  0  0  0  0  0  0  0
  188.7820  177.9890  148.3910 C   0  0  2  0  0  3  0  0  0  0  0  0
  189.7470  177.9410  147.3570 O   0  0  0  0  0  0  0  0  0  0  0  0
  187.8440  176.7940  148.2990 C   0  0  0  0  0  2  0  0  0  0  0  0
  189.1170  178.1640  146.1130 C   0  0  2  0  0  3  0  0  0  0  0  0
  187.6290  178.4000  146.3530 C   0  0  2  0  0  3  0  0  0  0  0  0
  187.3970  178.1750  147.8240 C   0  0  2  0  0  3  0  0  0  0  0  0
  186.8020  177.5530  145.5930 O   0  0  0  0  0  0  0  0  0  0  0  0
  185.3760  178.4360  145.3020 P   0  0  0  0  0  0  0  0  0  0  0  0
  184.3040  178.1910  146.5920 O   0  0  0  0  0  1  0  0  0  0  0  0
  185.7450  180.0860  145.2090 O   0  0  0  0  0  1  0  0  0  0  0  0
  184.7220  177.9820  144.0160 O   0  0  0  0  0  0  0  0  0  0  0  0
  186.9070  173.6570  135.9810 C   0  0  0  0  0  2  0  0  0  0  0  0
  186.1990  172.7000  136.9200 C   0  0  0  0  0  2  0  0  0  0  0  0
  185.0770  173.3180  137.4780 O   0  0  0  0  0  0  0  0  0  0  0  0
  184.7040  174.2830  136.5390 C   0  0  0  0  0  2  0  0  0  0  0  0
  182.7160  175.1430  135.4910 O   0  0  0  0  0  0  0  0  0  0  0  0
  181.8540  175.5480  136.5300 C   0  0  1  0  0  3  0  0  0  0  0  0
  183.3460  173.9510  135.9030 C   0  0  2  0  0  0  0  0  0  0  0  0
  181.8020  174.4760  137.5910 C   0  0  2  0  0  3  0  0  0  0  0  0
  182.4590  173.2990  136.9370 C   0  0  0  0  0  2  0  0  0  0  0  0
  183.3340  171.6900  135.0600 O   0  0  0  0  0  1  0  0  0  0  0  0
  183.5040  173.0250  134.6950 C   0  0  0  0  0  2  0  0  0  0  0  0
  180.2560  172.8410  138.3950 O   0  0  0  0  0  1  0  0  0  0  0  0
  180.3600  174.1690  137.9790 C   0  0  0  0  0  2  0  0  0  0  0  0
  182.3530  176.8480  137.1430 C   0  0  0  0  0  2  0  0  0  0  0  0
  181.1920  177.8040  137.3660 C   0  0  0  0  0  2  0  0  0  0  0  0
  182.0800  178.6550  141.8310 C   0  0  0  0  0  1  0  0  0  0  0  0
  184.8500  178.6600  139.5470 C   0  0  0  0  0  1  0  0  0  0  0  0
  181.4090  178.5370  138.6020 N   0  0  0  0  0  0  0  0  0  0  0  0
  181.5800  177.5540  139.6690 C   0  0  0  0  0  2  0  0  0  0  0  0
  182.6900  179.2240  138.4780 C   0  0  0  0  0  2  0  0  0  0  0  0
  183.4200  179.0980  139.8000 C   0  0  1  0  0  3  0  0  0  0  0  0
  182.6850  178.0320  140.5860 C   0  0  1  0  0  3  0  0  0  0  0  0
  1  2  2  0  0  0  0
  2  5  1  0  0  0  0
  2 12  1  0  0  0  0
  3  5  2  0  0  0  0
  4  1  1  0  0  0  0
  4  3  1  0  0  0  0
  6  8  1  0  0  0  0
  7  8  2  0  0  0  0
  7 10  1  0  0  0  0
  8  9  1  0  0  0  0
  9 11  1  0  0  0  0
  9  1  1  0  0  0  0
 10 11  2  0  0  0  0
 12 14  1  0  0  0  0
 14 13  2  0  0  0  0
 15 14  1  0  0  0  0
 15 18  1  0  0  0  0
 16 19  1  0  0  0  0
 17 18  2  0  0  0  0
 18 16  1  0  0  0  0
 19 22  1  0  0  0  0
 21 23  1  0  0  0  0
 22 20  2  0  0  0  0
 22 21  1  0  0  0  0
 23 24  1  6  0  0  0
 23 26  1  0  0  0  0
 25 24  1  0  0  0  0
 27 29  1  6  0  0  0
 28 27  1  0  0  0  0
 30 26  1  6  0  0  0
 30 31  1  0  0  0  0
 30 28  1  0  0  0  0
 31 33  1  6  0  0  0
 31 32  1  0  0  0  0
 32 29  1  6  0  0  0
 32 27  1  0  0  0  0
 34 33  1  0  0  0  0
 34 35  1  0  0  0  0
 36 34  1  0  0  0  0
 37 34  2  0  0  0  0
 38  3  1  0  0  0  0
 38 39  1  0  0  0  0
 39 40  1  0  0  0  0
 41 40  1  0  0  0  0
 42 44  1  0  0  0  0
 42 43  1  0  0  0  0
 43 51  1  1  0  0  0
 43 45  1  0  0  0  0
 44 48  1  6  0  0  0
 44 41  1  0  0  0  0
 44 46  1  0  0  0  0
 45 50  1  6  0  0  0
 46 45  1  0  0  0  0
 48 47  1  0  0  0  0
 50 49  1  0  0  0  0
 51 52  1  0  0  0  0
 52 55  1  0  0  0  0
 55 56  1  0  0  0  0
 56 59  1  0  0  0  0
 57 55  1  0  0  0  0
 57 58  1  0  0  0  0
 58 54  1  6  0  0  0
 58 59  1  0  0  0  0
 59 53  1  1  0  0  0
M  END
>  <MODEL>
5

>  <REMARK>
 VINA RESULT:      -6.5      4.085      9.371
  Name = 
  22 active torsions:
  status: ('A' for Active; 'I' for Inactive)
    1  A    between atoms: C_2  and  C_25
    2  A    between atoms: C_3  and  N_33
    3  A    between atoms: P_6  and  O_19
    4  A    between atoms: N_7  and  C_47
    5  A    between atoms: C_8  and  N_17
    6  A    between atoms: C_15  and  O_34
    7  A    between atoms: C_15  and  C_49
    8  A    between atoms: N_18  and  C_41
    9  A    between atoms: O_19  and  C_48
   10  A    between atoms: C_20  and  C_23
   11  A    between atoms: C_21  and  O_51
   12  A    between atoms: C_22  and  C_23
   13  A    between atoms: C_22  and  O_34
   14  A    between atoms: C_25  and  N_39
   15  A    between atoms: C_25  and  O_51
   16  A    between atoms: C_28  and  C_50
   17  A    between atoms: C_28  and  C_56
   18  A    between atoms: C_29  and  C_55
   19  A    between atoms: C_31  and  C_49
   20  A    between atoms: C_40  and  C_46
   21  A    between atoms: C_41  and  C_46
   22  A    between atoms: C_43  and  C_47
                            x       y       z     vdW  Elec       q    Type
                         _______ _______ _______ _____ _____    ______ ____

>  <TORSDO>
F 22

$$$$
=
 OpenBabel10232411313D

 59 64  0  0  1  0  0  0  0  0999 V2000
  189.5680  177.2330  143.6830 C   0  0  0  0  0  0  0  0  0  0  0  0
  188.3250  177.3420  143.0640 C   0  0  0  0  0  0  0  0  0  0  0  0
  189.7090  177.4090  141.1990 C   0  0  0  0  0  0  0  0  0  0  0  0
  190.7670  177.2830  142.5060 S   0  0  0  0  0  0  0  0  0  0  0  0
  188.3930  177.4480  141.6650 C   0  0  0  0  0  3  0  0  0  0  0  0
  191.9020  175.8630  145.2250 C   0  0  0  0  0  1  0  0  0  0  0  0
  190.7510  177.0520  147.0950 N   0  0  0  0  0  0  0  0  0  0  0  0
  190.8260  176.7350  145.7930 C   0  0  0  0  0  0  0  0  0  0  0  0
  189.8030  177.2690  145.1010 N   0  0  0  0  0  0  0  0  0  0  0  0
  189.6380  177.8190  147.1650 C   0  0  0  0  0  3  0  0  0  0  0  0
  189.0600  177.9520  145.9570 N   0  0  0  0  0  0  0  0  0  0  0  0
  187.0840  177.3020  143.7690 N   0  0  0  0  0  2  0  0  0  0  0  0
  184.9480  178.1000  144.1680 O   0  0  0  0  0  0  0  0  0  0  0  0
  185.9670  178.1220  143.4260 C   0  0  0  0  0  0  0  0  0  0  0  0
  186.0220  179.0340  142.2300 C   0  0  0  0  0  2  0  0  0  0  0  0
  184.9410  179.3700  139.9700 N   0  0  0  0  0  2  0  0  0  0  0  0
  183.8670  178.1830  141.6750 O   0  0  0  0  0  0  0  0  0  0  0  0
  184.8850  178.8200  141.2860 C   0  0  0  0  0  0  0  0  0  0  0  0
  183.8080  179.2750  139.0630 C   0  0  0  0  0  2  0  0  0  0  0  0
  183.0630  177.8260  137.3420 O   0  0  0  0  0  0  0  0  0  0  0  0
  185.3580  177.7030  137.8140 N   0  0  0  0  0  2  0  0  0  0  0  0
  184.0360  178.2140  138.0400 C   0  0  0  0  0  0  0  0  0  0  0  0
  185.7910  176.8520  136.7020 C   0  0  2  0  0  3  0  0  0  0  0  0
  186.2730  177.6040  135.4550 C   0  0  0  0  0  2  0  0  0  0  0  0
  187.1250  176.8160  134.6740 O   0  0  0  0  0  1  0  0  0  0  0  0
  184.9970  175.6940  136.5060 O   0  0  0  0  0  0  0  0  0  0  0  0
  187.4260  173.4900  136.8120 C   0  0  2  0  0  3  0  0  0  0  0  0
  186.8820  174.6870  137.3340 O   0  0  0  0  0  0  0  0  0  0  0  0
  187.1670  173.3970  135.3160 C   0  0  0  0  0  2  0  0  0  0  0  0
  185.4720  174.6250  137.2890 C   0  0  2  0  0  3  0  0  0  0  0  0
  185.0600  173.2730  136.7160 C   0  0  2  0  0  3  0  0  0  0  0  0
  186.3340  172.5830  136.3040 C   0  0  2  0  0  3  0  0  0  0  0  0
  184.1850  173.3780  135.6200 O   0  0  0  0  0  0  0  0  0  0  0  0
  182.8000  172.4840  136.0450 P   0  0  0  0  0  0  0  0  0  0  0  0
  181.5020  173.5500  136.2680 O   0  0  0  0  0  1  0  0  0  0  0  0
  182.4140  171.4150  134.7890 O   0  0  0  0  0  0  0  0  0  0  0  0
  183.0370  171.7110  137.3230 O   0  0  0  0  0  1  0  0  0  0  0  0
  190.1560  177.6750  139.8000 C   0  0  0  0  0  2  0  0  0  0  0  0
  191.1260  176.6270  139.2910 C   0  0  0  0  0  2  0  0  0  0  0  0
  190.6940  176.1330  138.0570 O   0  0  0  0  0  0  0  0  0  0  0  0
  191.4110  174.9450  137.8840 C   0  0  0  0  0  2  0  0  0  0  0  0
  193.0690  173.9620  136.4440 O   0  0  0  0  0  0  0  0  0  0  0  0
  194.2220  174.7660  136.5450 C   0  0  1  0  0  3  0  0  0  0  0  0
  191.9500  174.8200  136.4510 C   0  0  2  0  0  0  0  0  0  0  0  0
  193.8340  176.2210  136.4450 C   0  0  2  0  0  3  0  0  0  0  0  0
  192.4130  176.1770  135.9740 C   0  0  0  0  0  2  0  0  0  0  0  0
  190.9710  172.8780  135.4060 O   0  0  0  0  0  1  0  0  0  0  0  0
  190.8880  174.2680  135.4980 C   0  0  0  0  0  2  0  0  0  0  0  0
  196.0660  176.6320  135.6990 O   0  0  0  0  0  1  0  0  0  0  0  0
  194.7310  176.9530  135.4540 C   0  0  0  0  0  2  0  0  0  0  0  0
  194.9160  174.5140  137.8750 C   0  0  0  0  0  2  0  0  0  0  0  0
  195.0080  173.0210  138.1460 C   0  0  0  0  0  2  0  0  0  0  0  0
  199.0940  170.9870  137.3610 C   0  0  0  0  0  1  0  0  0  0  0  0
  198.5260  174.2140  135.8950 C   0  0  0  0  0  1  0  0  0  0  0  0
  196.4050  172.6510  138.3030 N   0  0  0  0  0  0  0  0  0  0  0  0
  196.7040  171.6360  137.2960 C   0  0  0  0  0  2  0  0  0  0  0  0
  197.2040  173.8190  137.9480 C   0  0  0  0  0  2  0  0  0  0  0  0
  198.3880  173.3460  137.1300 C   0  0  1  0  0  3  0  0  0  0  0  0
  198.0780  171.9190  136.7270 C   0  0  1  0  0  3  0  0  0  0  0  0
  1  9  1  0  0  0  0
  2  1  2  0  0  0  0
  2 12  1  0  0  0  0
  3  5  2  0  0  0  0
  3  4  1  0  0  0  0
  4  1  1  0  0  0  0
  5  2  1  0  0  0  0
  6  8  1  0  0  0  0
  7 10  1  0  0  0  0
  8  7  2  0  0  0  0
  9  8  1  0  0  0  0
  9 11  1  0  0  0  0
 11 10  2  0  0  0  0
 14 12  1  0  0  0  0
 14 13  2  0  0  0  0
 15 14  1  0  0  0  0
 16 18  1  0  0  0  0
 18 17  2  0  0  0  0
 18 15  1  0  0  0  0
 19 16  1  0  0  0  0
 20 22  2  0  0  0  0
 21 22  1  0  0  0  0
 22 19  1  0  0  0  0
 23 24  1  6  0  0  0
 23 21  1  0  0  0  0
 25 24  1  0  0  0  0
 26 23  1  0  0  0  0
 27 29  1  6  0  0  0
 27 28  1  0  0  0  0
 30 26  1  6  0  0  0
 30 28  1  0  0  0  0
 31 33  1  6  0  0  0
 31 30  1  0  0  0  0
 32 29  1  6  0  0  0
 32 31  1  0  0  0  0
 32 27  1  0  0  0  0
 33 34  1  0  0  0  0
 34 35  1  0  0  0  0
 34 37  1  0  0  0  0
 36 34  2  0  0  0  0
 38  3  1  0  0  0  0
 39 38  1  0  0  0  0
 40 39  1  0  0  0  0
 41 40  1  0  0  0  0
 42 44  1  0  0  0  0
 42 43  1  0  0  0  0
 43 51  1  1  0  0  0
 44 48  1  6  0  0  0
 44 41  1  0  0  0  0
 45 50  1  6  0  0  0
 45 43  1  0  0  0  0
 46 45  1  0  0  0  0
 46 44  1  0  0  0  0
 47 48  1  0  0  0  0
 50 49  1  0  0  0  0
 51 52  1  0  0  0  0
 52 55  1  0  0  0  0
 56 55  1  0  0  0  0
 57 55  1  0  0  0  0
 58 54  1  6  0  0  0
 58 57  1  0  0  0  0
 59 58  1  0  0  0  0
 59 56  1  0  0  0  0
 59 53  1  1  0  0  0
M  END
>  <MODEL>
6

>  <REMARK>
 VINA RESULT:      -6.2      3.152      9.486
  Name = 
  22 active torsions:
  status: ('A' for Active; 'I' for Inactive)
    1  A    between atoms: C_2  and  C_25
    2  A    between atoms: C_3  and  N_33
    3  A    between atoms: P_6  and  O_19
    4  A    between atoms: N_7  and  C_47
    5  A    between atoms: C_8  and  N_17
    6  A    between atoms: C_15  and  O_34
    7  A    between atoms: C_15  and  C_49
    8  A    between atoms: N_18  and  C_41
    9  A    between atoms: O_19  and  C_48
   10  A    between atoms: C_20  and  C_23
   11  A    between atoms: C_21  and  O_51
   12  A    between atoms: C_22  and  C_23
   13  A    between atoms: C_22  and  O_34
   14  A    between atoms: C_25  and  N_39
   15  A    between atoms: C_25  and  O_51
   16  A    between atoms: C_28  and  C_50
   17  A    between atoms: C_28  and  C_56
   18  A    between atoms: C_29  and  C_55
   19  A    between atoms: C_31  and  C_49
   20  A    between atoms: C_40  and  C_46
   21  A    between atoms: C_41  and  C_46
   22  A    between atoms: C_43  and  C_47
                            x       y       z     vdW  Elec       q    Type
                         _______ _______ _______ _____ _____    ______ ____

>  <TORSDO>
F 22

$$$$
=
 OpenBabel10232411313D

 59 64  0  0  1  0  0  0  0  0999 V2000
  186.9950  178.0740  144.6420 C   0  0  0  0  0  0  0  0  0  0  0  0
  187.1400  177.1810  143.5840 C   0  0  0  0  0  0  0  0  0  0  0  0
  185.3920  178.4810  142.7760 C   0  0  0  0  0  0  0  0  0  0  0  0
  185.7370  179.1320  144.2920 S   0  0  0  0  0  0  0  0  0  0  0  0
  186.2370  177.3970  142.5300 C   0  0  0  0  0  3  0  0  0  0  0  0
  185.7210  178.3860  147.4680 C   0  0  0  0  0  1  0  0  0  0  0  0
  188.0810  177.8530  148.0850 N   0  0  0  0  0  0  0  0  0  0  0  0
  187.1460  178.0660  147.1450 C   0  0  0  0  0  0  0  0  0  0  0  0
  187.6720  177.9890  145.9080 N   0  0  0  0  0  0  0  0  0  0  0  0
  189.2040  177.6270  147.3620 C   0  0  0  0  0  3  0  0  0  0  0  0
  188.9590  177.7100  146.0420 N   0  0  0  0  0  0  0  0  0  0  0  0
  188.1400  176.1630  143.5390 N   0  0  0  0  0  2  0  0  0  0  0  0
  190.2120  175.3800  142.8680 O   0  0  0  0  0  0  0  0  0  0  0  0
  189.4310  176.3640  142.9620 C   0  0  0  0  0  0  0  0  0  0  0  0
  189.8320  177.7130  142.4280 C   0  0  0  0  0  2  0  0  0  0  0  0
  190.5950  177.1690  140.0810 N   0  0  0  0  0  2  0  0  0  0  0  0
  188.7270  178.5200  140.4780 O   0  0  0  0  0  0  0  0  0  0  0  0
  189.6660  177.8210  140.9480 C   0  0  0  0  0  0  0  0  0  0  0  0
  190.5300  177.3440  138.6380 C   0  0  0  0  0  2  0  0  0  0  0  0
  189.0530  175.4920  138.5490 O   0  0  0  0  0  0  0  0  0  0  0  0
  188.5630  177.2210  137.0410 N   0  0  0  0  0  2  0  0  0  0  0  0
  189.3590  176.6140  138.0690 C   0  0  0  0  0  0  0  0  0  0  0  0
  187.2620  176.7580  136.5510 C   0  0  2  0  0  3  0  0  0  0  0  0
  186.0540  177.5630  137.0450 C   0  0  0  0  0  2  0  0  0  0  0  0
  184.8460  176.9750  136.6560 O   0  0  0  0  0  1  0  0  0  0  0  0
  187.1290  175.3480  136.4830 O   0  0  0  0  0  0  0  0  0  0  0  0
  185.9640  173.1120  134.3640 C   0  0  2  0  0  3  0  0  0  0  0  0
  185.9050  174.4700  134.7560 O   0  0  0  0  0  0  0  0  0  0  0  0
  186.2380  172.2220  135.5670 C   0  0  0  0  0  2  0  0  0  0  0  0
  187.1900  174.9040  135.1490 C   0  0  2  0  0  3  0  0  0  0  0  0
  188.1710  173.7480  134.9780 C   0  0  2  0  0  3  0  0  0  0  0  0
  187.3480  172.5530  134.5730 C   0  0  2  0  0  3  0  0  0  0  0  0
  188.9040  173.4650  136.1440 O   0  0  0  0  0  0  0  0  0  0  0  0
  190.5370  173.7170  135.7380 P   0  0  0  0  0  0  0  0  0  0  0  0
  190.6880  175.2190  134.9660 O   0  0  0  0  0  1  0  0  0  0  0  0
  191.4710  173.7380  137.1510 O   0  0  0  0  0  1  0  0  0  0  0  0
  191.0310  172.6280  134.8120 O   0  0  0  0  0  0  0  0  0  0  0  0
  184.2060  178.8760  141.9600 C   0  0  0  0  0  2  0  0  0  0  0  0
  182.9040  178.7500  142.7280 C   0  0  0  0  0  2  0  0  0  0  0  0
  181.8790  178.3450  141.8700 O   0  0  0  0  0  0  0  0  0  0  0  0
  182.2730  178.8050  140.6100 C   0  0  0  0  0  2  0  0  0  0  0  0
  180.3640  177.8830  139.4710 O   0  0  0  0  0  0  0  0  0  0  0  0
  180.8350  177.3570  138.2520 C   0  0  1  0  0  3  0  0  0  0  0  0
  181.0590  179.0870  139.7120 C   0  0  2  0  0  0  0  0  0  0  0  0
  181.7580  178.3530  137.5930 C   0  0  2  0  0  3  0  0  0  0  0  0
  181.5390  179.6100  138.3780 C   0  0  0  0  0  2  0  0  0  0  0  0
  180.2580  181.3610  139.7880 O   0  0  0  0  0  1  0  0  0  0  0  0
  180.1070  180.0960  140.3550 C   0  0  0  0  0  2  0  0  0  0  0  0
  181.0710  179.8730  135.8840 O   0  0  0  0  0  1  0  0  0  0  0  0
  181.3950  178.5380  136.1250 C   0  0  0  0  0  2  0  0  0  0  0  0
  181.5840  176.0570  138.5030 C   0  0  0  0  0  2  0  0  0  0  0  0
  180.6200  174.8810  138.4790 C   0  0  0  0  0  2  0  0  0  0  0  0
  182.2580  173.5240  134.3650 C   0  0  0  0  0  1  0  0  0  0  0  0
  182.7880  171.3510  137.1730 C   0  0  0  0  0  1  0  0  0  0  0  0
  180.6870  174.2370  137.1770 N   0  0  0  0  0  0  0  0  0  0  0  0
  181.9430  174.6420  136.5530 C   0  0  0  0  0  2  0  0  0  0  0  0
  180.7980  172.8010  137.4110 C   0  0  0  0  0  2  0  0  0  0  0  0
  181.8110  172.2430  136.4330 C   0  0  1  0  0  3  0  0  0  0  0  0
  182.5390  173.4380  135.8540 C   0  0  1  0  0  3  0  0  0  0  0  0
  1  9  1  0  0  0  0
  2  1  2  0  0  0  0
  3  4  1  0  0  0  0
  4  1  1  0  0  0  0
  5  3  2  0  0  0  0
  5  2  1  0  0  0  0
  8  6  1  0  0  0  0
  8  7  2  0  0  0  0
  9 11  1  0  0  0  0
  9  8  1  0  0  0  0
 10  7  1  0  0  0  0
 11 10  2  0  0  0  0
 12  2  1  0  0  0  0
 13 14  2  0  0  0  0
 14 12  1  0  0  0  0
 15 14  1  0  0  0  0
 16 18  1  0  0  0  0
 17 18  2  0  0  0  0
 18 15  1  0  0  0  0
 19 16  1  0  0  0  0
 21 22  1  0  0  0  0
 22 20  2  0  0  0  0
 22 19  1  0  0  0  0
 23 21  1  0  0  0  0
 23 24  1  1  0  0  0
 25 24  1  0  0  0  0
 26 23  1  0  0  0  0
 27 32  1  0  0  0  0
 27 28  1  0  0  0  0
 27 29  1  1  0  0  0
 28 30  1  0  0  0  0
 30 26  1  1  0  0  0
 31 30  1  0  0  0  0
 31 33  1  1  0  0  0
 32 31  1  0  0  0  0
 32 29  1  1  0  0  0
 34 33  1  0  0  0  0
 34 36  1  0  0  0  0
 35 34  1  0  0  0  0
 37 34  2  0  0  0  0
 38 39  1  0  0  0  0
 38  3  1  0  0  0  0
 40 39  1  0  0  0  0
 41 40  1  0  0  0  0
 42 44  1  0  0  0  0
 43 51  1  1  0  0  0
 43 42  1  0  0  0  0
 44 48  1  1  0  0  0
 44 41  1  0  0  0  0
 45 50  1  6  0  0  0
 45 43  1  0  0  0  0
 45 46  1  0  0  0  0
 46 44  1  0  0  0  0
 47 48  1  0  0  0  0
 49 50  1  0  0  0  0
 52 51  1  0  0  0  0
 55 57  1  0  0  0  0
 55 52  1  0  0  0  0
 56 55  1  0  0  0  0
 58 54  1  1  0  0  0
 58 57  1  0  0  0  0
 59 53  1  6  0  0  0
 59 58  1  0  0  0  0
 59 56  1  0  0  0  0
M  END
>  <MODEL>
7

>  <REMARK>
 VINA RESULT:      -6.0      3.142      4.707
  Name = 
  22 active torsions:
  status: ('A' for Active; 'I' for Inactive)
    1  A    between atoms: C_2  and  C_25
    2  A    between atoms: C_3  and  N_33
    3  A    between atoms: P_6  and  O_19
    4  A    between atoms: N_7  and  C_47
    5  A    between atoms: C_8  and  N_17
    6  A    between atoms: C_15  and  O_34
    7  A    between atoms: C_15  and  C_49
    8  A    between atoms: N_18  and  C_41
    9  A    between atoms: O_19  and  C_48
   10  A    between atoms: C_20  and  C_23
   11  A    between atoms: C_21  and  O_51
   12  A    between atoms: C_22  and  C_23
   13  A    between atoms: C_22  and  O_34
   14  A    between atoms: C_25  and  N_39
   15  A    between atoms: C_25  and  O_51
   16  A    between atoms: C_28  and  C_50
   17  A    between atoms: C_28  and  C_56
   18  A    between atoms: C_29  and  C_55
   19  A    between atoms: C_31  and  C_49
   20  A    between atoms: C_40  and  C_46
   21  A    between atoms: C_41  and  C_46
   22  A    between atoms: C_43  and  C_47
                            x       y       z     vdW  Elec       q    Type
                         _______ _______ _______ _____ _____    ______ ____

>  <TORSDO>
F 22

$$$$
=
 OpenBabel10232411313D

 59 64  0  0  1  0  0  0  0  0999 V2000
  189.7660  176.9170  144.6710 C   0  0  0  0  0  0  0  0  0  0  0  0
  188.4210  176.9740  144.3140 C   0  0  0  0  0  0  0  0  0  0  0  0
  189.3980  177.0230  142.2070 C   0  0  0  0  0  0  0  0  0  0  0  0
  190.7000  176.9640  143.2750 S   0  0  0  0  0  0  0  0  0  0  0  0
  188.2020  177.0410  142.9280 C   0  0  0  0  0  3  0  0  0  0  0  0
  192.2390  175.4120  145.8200 C   0  0  0  0  0  1  0  0  0  0  0  0
  191.5850  176.7950  147.7930 N   0  0  0  0  0  0  0  0  0  0  0  0
  191.3740  176.4080  146.5250 C   0  0  0  0  0  0  0  0  0  0  0  0
  190.2800  177.0010  146.0110 N   0  0  0  0  0  0  0  0  0  0  0  0
  190.5760  177.6670  148.0260 C   0  0  0  0  0  3  0  0  0  0  0  0
  189.7820  177.7930  146.9470 N   0  0  0  0  0  0  0  0  0  0  0  0
  187.3490  176.9240  145.2560 N   0  0  0  0  0  2  0  0  0  0  0  0
  185.3050  177.6640  146.0490 O   0  0  0  0  0  0  0  0  0  0  0  0
  186.1520  177.6890  145.1170 C   0  0  0  0  0  0  0  0  0  0  0  0
  185.9280  178.5490  143.9030 C   0  0  0  0  0  2  0  0  0  0  0  0
  183.6760  178.3530  142.7710 N   0  0  0  0  0  2  0  0  0  0  0  0
  184.0590  179.9130  144.4710 O   0  0  0  0  0  0  0  0  0  0  0  0
  184.5050  178.9770  143.7520 C   0  0  0  0  0  0  0  0  0  0  0  0
  182.3210  178.8180  142.5220 C   0  0  0  0  0  2  0  0  0  0  0  0
  180.8110  178.9540  140.6990 O   0  0  0  0  0  0  0  0  0  0  0  0
  182.7250  177.6540  140.3050 N   0  0  0  0  0  2  0  0  0  0  0  0
  181.8880  178.4700  141.1370 C   0  0  0  0  0  0  0  0  0  0  0  0
  182.5700  177.4220  138.8650 C   0  0  2  0  0  3  0  0  0  0  0  0
  181.4190  178.1870  138.2020 C   0  0  0  0  0  2  0  0  0  0  0  0
  181.8600  179.3770  137.6150 O   0  0  0  0  0  1  0  0  0  0  0  0
  182.7880  176.0800  138.4620 O   0  0  0  0  0  0  0  0  0  0  0  0
  184.4550  176.9760  135.7650 C   0  0  2  0  0  3  0  0  0  0  0  0
  184.3180  177.1820  137.1590 O   0  0  0  0  0  0  0  0  0  0  0  0
  183.1100  176.6270  135.1450 C   0  0  0  0  0  2  0  0  0  0  0  0
  184.0190  175.9550  137.7910 C   0  0  2  0  0  3  0  0  0  0  0  0
  183.9810  174.8570  136.7330 C   0  0  2  0  0  3  0  0  0  0  0  0
  184.1540  175.5440  135.4030 C   0  0  2  0  0  3  0  0  0  0  0  0
  182.7860  174.1140  136.7460 O   0  0  0  0  0  0  0  0  0  0  0  0
  183.2480  172.4890  136.5350 P   0  0  0  0  0  0  0  0  0  0  0  0
  181.9790  171.4850  137.0380 O   0  0  0  0  0  1  0  0  0  0  0  0
  183.5500  172.2000  134.8940 O   0  0  0  0  0  0  0  0  0  0  0  0
  184.4850  172.1770  137.3470 O   0  0  0  0  0  1  0  0  0  0  0  0
  189.5450  177.2590  140.7400 C   0  0  0  0  0  2  0  0  0  0  0  0
  188.4830  178.1940  140.1930 C   0  0  0  0  0  2  0  0  0  0  0  0
  188.1350  177.8160  138.8930 O   0  0  0  0  0  0  0  0  0  0  0  0
  189.3480  177.4610  138.2950 C   0  0  0  0  0  2  0  0  0  0  0  0
  189.9450  175.1870  137.7810 O   0  0  0  0  0  0  0  0  0  0  0  0
  191.1820  175.2360  137.1070 C   0  0  1  0  0  3  0  0  0  0  0  0
  189.1730  176.2780  137.3310 C   0  0  2  0  0  0  0  0  0  0  0  0
  191.1410  176.3130  136.0510 C   0  0  2  0  0  3  0  0  0  0  0  0
  189.6880  176.6690  135.9660 C   0  0  0  0  0  2  0  0  0  0  0  0
  187.6030  174.4760  137.0030 O   0  0  0  0  0  1  0  0  0  0  0  0
  187.7080  175.8480  137.2310 C   0  0  0  0  0  2  0  0  0  0  0  0
  191.5660  174.3950  134.6900 O   0  0  0  0  0  1  0  0  0  0  0  0
  191.6670  175.7860  134.7210 C   0  0  0  0  0  2  0  0  0  0  0  0
  192.3000  175.5340  138.0940 C   0  0  0  0  0  2  0  0  0  0  0  0
  193.6520  175.2470  137.4590 C   0  0  0  0  0  2  0  0  0  0  0  0
  195.3580  170.9510  137.7380 C   0  0  0  0  0  1  0  0  0  0  0  0
  197.6940  173.6570  137.4220 C   0  0  0  0  0  1  0  0  0  0  0  0
  194.1960  174.0250  138.0280 N   0  0  0  0  0  0  0  0  0  0  0  0
  194.3270  173.0580  136.9420 C   0  0  0  0  0  2  0  0  0  0  0  0
  195.5540  174.3210  138.4710 C   0  0  0  0  0  2  0  0  0  0  0  0
  196.4360  173.1470  138.0960 C   0  0  1  0  0  3  0  0  0  0  0  0
  195.6310  172.3110  137.1230 C   0  0  1  0  0  3  0  0  0  0  0  0
  1  9  1  0  0  0  0
  2  1  2  0  0  0  0
  2 12  1  0  0  0  0
  3  5  2  0  0  0  0
  3  4  1  0  0  0  0
  4  1  1  0  0  0  0
  5  2  1  0  0  0  0
  6  8  1  0  0  0  0
  7 10  1  0  0  0  0
  8  7  2  0  0  0  0
  9  8  1  0  0  0  0
  9 11  1  0  0  0  0
 11 10  2  0  0  0  0
 14 12  1  0  0  0  0
 14 13  2  0  0  0  0
 15 14  1  0  0  0  0
 16 18  1  0  0  0  0
 18 15  1  0  0  0  0
 18 17  2  0  0  0  0
 19 16  1  0  0  0  0
 20 22  2  0  0  0  0
 21 22  1  0  0  0  0
 22 19  1  0  0  0  0
 23 24  1  1  0  0  0
 23 21  1  0  0  0  0
 25 24  1  0  0  0  0
 26 23  1  0  0  0  0
 27 29  1  6  0  0  0
 27 28  1  0  0  0  0
 28 30  1  0  0  0  0
 30 26  1  6  0  0  0
 31 33  1  6  0  0  0
 31 30  1  0  0  0  0
 32 29  1  6  0  0  0
 32 27  1  0  0  0  0
 32 31  1  0  0  0  0
 34 33  1  0  0  0  0
 34 35  1  0  0  0  0
 34 37  1  0  0  0  0
 36 34  2  0  0  0  0
 38  3  1  0  0  0  0
 39 38  1  0  0  0  0
 40 39  1  0  0  0  0
 41 40  1  0  0  0  0
 43 42  1  0  0  0  0
 43 51  1  1  0  0  0
 44 48  1  6  0  0  0
 44 42  1  0  0  0  0
 44 41  1  0  0  0  0
 45 50  1  6  0  0  0
 45 43  1  0  0  0  0
 46 45  1  0  0  0  0
 46 44  1  0  0  0  0
 47 48  1  0  0  0  0
 49 50  1  0  0  0  0
 52 55  1  0  0  0  0
 52 51  1  0  0  0  0
 55 57  1  0  0  0  0
 56 59  1  0  0  0  0
 56 55  1  0  0  0  0
 58 54  1  6  0  0  0
 58 57  1  0  0  0  0
 59 53  1  1  0  0  0
 59 58  1  0  0  0  0
M  END
>  <MODEL>
8

>  <REMARK>
 VINA RESULT:      -5.9      3.123      9.180
  Name = 
  22 active torsions:
  status: ('A' for Active; 'I' for Inactive)
    1  A    between atoms: C_2  and  C_25
    2  A    between atoms: C_3  and  N_33
    3  A    between atoms: P_6  and  O_19
    4  A    between atoms: N_7  and  C_47
    5  A    between atoms: C_8  and  N_17
    6  A    between atoms: C_15  and  O_34
    7  A    between atoms: C_15  and  C_49
    8  A    between atoms: N_18  and  C_41
    9  A    between atoms: O_19  and  C_48
   10  A    between atoms: C_20  and  C_23
   11  A    between atoms: C_21  and  O_51
   12  A    between atoms: C_22  and  C_23
   13  A    between atoms: C_22  and  O_34
   14  A    between atoms: C_25  and  N_39
   15  A    between atoms: C_25  and  O_51
   16  A    between atoms: C_28  and  C_50
   17  A    between atoms: C_28  and  C_56
   18  A    between atoms: C_29  and  C_55
   19  A    between atoms: C_31  and  C_49
   20  A    between atoms: C_40  and  C_46
   21  A    between atoms: C_41  and  C_46
   22  A    between atoms: C_43  and  C_47
                            x       y       z     vdW  Elec       q    Type
                         _______ _______ _______ _____ _____    ______ ____

>  <TORSDO>
F 22

$$$$
=
 OpenBabel10232411313D

 59 64  0  0  1  0  0  0  0  0999 V2000
  188.7720  177.5240  144.8330 C   0  0  0  0  0  0  0  0  0  0  0  0
  187.7420  177.5820  143.8990 C   0  0  0  0  0  0  0  0  0  0  0  0
  189.5740  177.5380  142.4720 C   0  0  0  0  0  0  0  0  0  0  0  0
  190.2430  177.5070  144.0190 S   0  0  0  0  0  0  0  0  0  0  0  0
  188.1820  177.5970  142.5660 C   0  0  0  0  0  3  0  0  0  0  0  0
  190.7850  176.5940  147.0210 C   0  0  0  0  0  1  0  0  0  0  0  0
  189.0320  177.6690  148.4380 N   0  0  0  0  0  0  0  0  0  0  0  0
  189.4900  177.3130  147.2260 C   0  0  0  0  0  0  0  0  0  0  0  0
  188.6200  177.6550  146.2570 N   0  0  0  0  0  0  0  0  0  0  0  0
  187.8460  178.2590  148.1610 C   0  0  0  0  0  3  0  0  0  0  0  0
  187.5920  178.2510  146.8400 N   0  0  0  0  0  0  0  0  0  0  0  0
  186.3570  177.5780  144.2480 N   0  0  0  0  0  2  0  0  0  0  0  0
  184.1830  178.3120  143.9410 O   0  0  0  0  0  0  0  0  0  0  0  0
  185.3630  178.2810  143.5010 C   0  0  0  0  0  0  0  0  0  0  0  0
  185.7280  179.0150  142.2380 C   0  0  0  0  0  2  0  0  0  0  0  0
  184.8630  179.5480  139.9240 N   0  0  0  0  0  2  0  0  0  0  0  0
  183.7260  178.0820  141.3480 O   0  0  0  0  0  0  0  0  0  0  0  0
  184.7190  178.8350  141.1530 C   0  0  0  0  0  0  0  0  0  0  0  0
  183.8430  179.4830  138.8900 C   0  0  0  0  0  2  0  0  0  0  0  0
  182.9060  177.6720  137.6810 O   0  0  0  0  0  0  0  0  0  0  0  0
  185.2490  177.6690  137.8090 N   0  0  0  0  0  2  0  0  0  0  0  0
  183.9560  178.2140  138.1130 C   0  0  0  0  0  0  0  0  0  0  0  0
  185.5440  176.5850  136.8670 C   0  0  2  0  0  3  0  0  0  0  0  0
  185.5410  176.9880  135.3880 C   0  0  0  0  0  2  0  0  0  0  0  0
  186.7980  177.4390  134.9720 O   0  0  0  0  0  1  0  0  0  0  0  0
  184.9670  175.3370  137.2110 O   0  0  0  0  0  0  0  0  0  0  0  0
  182.9840  172.9850  136.0330 C   0  0  2  0  0  3  0  0  0  0  0  0
  183.2320  174.3780  136.0600 O   0  0  0  0  0  0  0  0  0  0  0  0
  183.4100  172.3430  137.3460 C   0  0  0  0  0  2  0  0  0  0  0  0
  184.6260  174.6090  136.0560 C   0  0  2  0  0  3  0  0  0  0  0  0
  185.3450  173.2650  135.9970 C   0  0  2  0  0  3  0  0  0  0  0  0
  184.2750  172.2090  136.0950 C   0  0  2  0  0  3  0  0  0  0  0  0
  186.2930  173.0970  137.0220 O   0  0  0  0  0  0  0  0  0  0  0  0
  187.7930  172.9110  136.2410 P   0  0  0  0  0  0  0  0  0  0  0  0
  187.7400  171.5230  135.2700 O   0  0  0  0  0  1  0  0  0  0  0  0
  188.0830  174.2540  135.2520 O   0  0  0  0  0  0  0  0  0  0  0  0
  188.9070  172.7700  137.2540 O   0  0  0  0  0  1  0  0  0  0  0  0
  190.3810  177.7160  141.2290 C   0  0  0  0  0  2  0  0  0  0  0  0
  190.5590  176.4200  140.4620 C   0  0  0  0  0  2  0  0  0  0  0  0
  189.9620  176.5240  139.2020 O   0  0  0  0  0  0  0  0  0  0  0  0
  190.5720  175.5230  138.4410 C   0  0  0  0  0  2  0  0  0  0  0  0
  191.0270  174.9720  136.1430 O   0  0  0  0  0  0  0  0  0  0  0  0
  192.3560  174.5050  136.0940 C   0  0  1  0  0  3  0  0  0  0  0  0
  190.9870  176.0450  137.0580 C   0  0  2  0  0  0  0  0  0  0  0  0
  193.2460  175.4290  136.8890 C   0  0  2  0  0  3  0  0  0  0  0  0
  192.3800  176.6250  137.1420 C   0  0  0  0  0  2  0  0  0  0  0  0
  190.1410  177.2790  135.1650 O   0  0  0  0  0  1  0  0  0  0  0  0
  190.0120  177.1060  136.5430 C   0  0  0  0  0  2  0  0  0  0  0  0
  194.3730  177.1010  135.6080 O   0  0  0  0  0  1  0  0  0  0  0  0
  194.4920  175.7980  136.0910 C   0  0  0  0  0  2  0  0  0  0  0  0
  192.4350  173.1000  136.6720 C   0  0  0  0  0  2  0  0  0  0  0  0
  193.5390  172.3110  135.9850 C   0  0  0  0  0  2  0  0  0  0  0  0
  196.0200  169.0180  138.0930 C   0  0  0  0  0  1  0  0  0  0  0  0
  197.7900  171.4270  136.1060 C   0  0  0  0  0  1  0  0  0  0  0  0
  194.3380  171.6340  136.9930 N   0  0  0  0  0  0  0  0  0  0  0  0
  194.5640  170.2690  136.5280 C   0  0  0  0  0  2  0  0  0  0  0  0
  195.6480  172.2760  137.0080 C   0  0  0  0  0  2  0  0  0  0  0  0
  196.7000  171.1930  137.1340 C   0  0  1  0  0  3  0  0  0  0  0  0
  195.9920  169.8850  136.8480 C   0  0  1  0  0  3  0  0  0  0  0  0
  1  9  1  0  0  0  0
  2 12  1  0  0  0  0
  2  1  2  0  0  0  0
  3  5  2  0  0  0  0
  3  4  1  0  0  0  0
  4  1  1  0  0  0  0
  5  2  1  0  0  0  0
  6  8  1  0  0  0  0
  8  7  2  0  0  0  0
  9 11  1  0  0  0  0
  9  8  1  0  0  0  0
 10  7  1  0  0  0  0
 11 10  2  0  0  0  0
 14 13  2  0  0  0  0
 14 12  1  0  0  0  0
 15 14  1  0  0  0  0
 16 18  1  0  0  0  0
 18 17  2  0  0  0  0
 18 15  1  0  0  0  0
 19 16  1  0  0  0  0
 20 22  2  0  0  0  0
 21 22  1  0  0  0  0
 22 19  1  0  0  0  0
 23 24  1  6  0  0  0
 23 26  1  0  0  0  0
 23 21  1  0  0  0  0
 25 24  1  0  0  0  0
 27 28  1  0  0  0  0
 27 32  1  0  0  0  0
 27 29  1  1  0  0  0
 30 28  1  0  0  0  0
 30 26  1  1  0  0  0
 31 30  1  0  0  0  0
 31 32  1  0  0  0  0
 31 33  1  1  0  0  0
 32 29  1  1  0  0  0
 34 33  1  0  0  0  0
 34 37  1  0  0  0  0
 35 34  1  0  0  0  0
 36 34  2  0  0  0  0
 38  3  1  0  0  0  0
 39 38  1  0  0  0  0
 40 39  1  0  0  0  0
 41 40  1  0  0  0  0
 42 44  1  0  0  0  0
 43 42  1  0  0  0  0
 43 51  1  1  0  0  0
 43 45  1  0  0  0  0
 44 48  1  6  0  0  0
 44 46  1  0  0  0  0
 44 41  1  0  0  0  0
 45 50  1  6  0  0  0
 45 46  1  0  0  0  0
 47 48  1  0  0  0  0
 49 50  1  0  0  0  0
 52 51  1  0  0  0  0
 52 55  1  0  0  0  0
 55 57  1  0  0  0  0
 56 59  1  0  0  0  0
 56 55  1  0  0  0  0
 57 58  1  0  0  0  0
 58 54  1  6  0  0  0
 59 58  1  0  0  0  0
 59 53  1  1  0  0  0
M  END
>  <MODEL>
9

>  <REMARK>
 VINA RESULT:      -5.9      2.955      8.800
  Name = 
  22 active torsions:
  status: ('A' for Active; 'I' for Inactive)
    1  A    between atoms: C_2  and  C_25
    2  A    between atoms: C_3  and  N_33
    3  A    between atoms: P_6  and  O_19
    4  A    between atoms: N_7  and  C_47
    5  A    between atoms: C_8  and  N_17
    6  A    between atoms: C_15  and  O_34
    7  A    between atoms: C_15  and  C_49
    8  A    between atoms: N_18  and  C_41
    9  A    between atoms: O_19  and  C_48
   10  A    between atoms: C_20  and  C_23
   11  A    between atoms: C_21  and  O_51
   12  A    between atoms: C_22  and  C_23
   13  A    between atoms: C_22  and  O_34
   14  A    between atoms: C_25  and  N_39
   15  A    between atoms: C_25  and  O_51
   16  A    between atoms: C_28  and  C_50
   17  A    between atoms: C_28  and  C_56
   18  A    between atoms: C_29  and  C_55
   19  A    between atoms: C_31  and  C_49
   20  A    between atoms: C_40  and  C_46
   21  A    between atoms: C_41  and  C_46
   22  A    between atoms: C_43  and  C_47
                            x       y       z     vdW  Elec       q    Type
                         _______ _______ _______ _____ _____    ______ ____

>  <TORSDO>
F 22

$$$$
