=
 OpenBabel10232409443D

 25 28  0  0  1  0  0  0  0  0999 V2000
  186.2490  178.6330  141.0580 C   0  0  0  0  0  0  0  0  0  0  0  0
  187.6900  177.9350  142.8890 C   0  0  0  0  0  0  0  0  0  0  0  0
  187.2820  178.4710  140.1890 N   0  0  0  0  0  0  0  0  0  0  0  0
  190.0110  177.3710  142.3480 O   0  0  0  0  0  0  0  0  0  0  0  0
  189.5750  177.8390  139.5550 C   0  0  2  0  0  3  0  0  0  0  0  0
  188.7450  177.7980  141.9570 C   0  0  0  0  0  0  0  0  0  0  0  0
  188.5120  178.0650  140.5980 C   0  0  0  0  0  0  0  0  0  0  0  0
  186.4400  178.3600  142.4140 C   0  0  0  0  0  3  0  0  0  0  0  0
  190.1030  176.4090  139.6560 C   0  0  2  0  0  3  0  0  0  0  0  0
  191.1770  177.6820  141.5910 C   0  0  0  0  0  2  0  0  0  0  0  0
  190.9910  177.5720  140.0680 C   0  0  2  0  0  3  0  0  0  0  0  0
  186.8720  177.3930  146.5180 N   0  0  0  0  0  0  0  0  0  0  0  0
  187.8460  177.6600  144.3480 C   0  0  0  0  0  0  0  0  0  0  0  0
  189.1980  177.1840  146.2960 C   0  0  0  0  0  0  0  0  0  0  0  0
  188.0720  177.1680  147.0550 N   0  0  0  0  0  0  0  0  0  0  0  0
  189.0980  177.4260  144.9270 C   0  0  0  0  0  3  0  0  0  0  0  0
  186.7250  177.6400  145.1890 C   0  0  0  0  0  3  0  0  0  0  0  0
  191.5540  176.6380  145.8390 C   0  0  0  0  0  1  0  0  0  0  0  0
  190.5230  176.9120  146.9160 C   0  0  0  0  0  2  0  0  0  0  0  0
  190.9600  174.7510  138.1660 O   0  0  0  0  0  0  0  0  0  0  0  0
  190.3030  176.7350  137.1560 N   0  0  0  0  0  1  0  0  0  0  0  0
  190.4980  175.9140  138.3030 C   0  0  0  0  0  0  0  0  0  0  0  0
  184.8640  179.8120  139.5420 O   0  0  0  0  0  0  0  0  0  0  0  0
  183.7410  178.6900  141.2300 N   0  0  0  0  0  1  0  0  0  0  0  0
  184.9370  179.0790  140.5630 C   0  0  0  0  0  0  0  0  0  0  0  0
  1  8  1  0  0  0  0
  2 13  1  0  0  0  0
  3  7  1  0  0  0  0
  3  1  2  0  0  0  0
  5  9  1  0  0  0  0
  5 11  1  0  0  0  0
  5  7  1  1  0  0  0
  6  4  1  0  0  0  0
  6  2  1  0  0  0  0
  7  6  2  0  0  0  0
  8  2  2  0  0  0  0
  9 22  1  6  0  0  0
  9 11  1  0  0  0  0
 10  4  1  0  0  0  0
 11 10  1  1  0  0  0
 12 15  1  0  0  0  0
 13 16  2  0  0  0  0
 13 17  1  0  0  0  0
 14 19  1  0  0  0  0
 14 15  2  0  0  0  0
 16 14  1  0  0  0  0
 17 12  2  0  0  0  0
 18 19  1  0  0  0  0
 20 22  2  0  0  0  0
 21 22  1  0  0  0  0
 23 25  2  0  0  0  0
 25  1  1  0  0  0  0
 25 24  1  0  0  0  0
M  END
>  <MODEL>
1

>  <REMARK>
 VINA RESULT:      -8.7      0.000      0.000
  Name = 
  4 active torsions:
  status: ('A' for Active; 'I' for Inactive)
    1  A    between atoms: C_2  and  C_6
    2  A    between atoms: C_3  and  C_11
    3  A    between atoms: C_4  and  C_20
    4  A    between atoms: C_18  and  C_23
                            x       y       z     vdW  Elec       q    Type
                         _______ _______ _______ _____ _____    ______ ____

>  <TORSDO>
F 4

$$$$
=
 OpenBabel10232409443D

 25 28  0  0  1  0  0  0  0  0999 V2000
  187.1350  178.3400  141.7870 C   0  0  0  0  0  0  0  0  0  0  0  0
  189.0490  177.6620  143.1260 C   0  0  0  0  0  0  0  0  0  0  0  0
  187.8830  178.2090  140.6600 N   0  0  0  0  0  0  0  0  0  0  0  0
  191.1330  177.1550  141.9420 O   0  0  0  0  0  0  0  0  0  0  0  0
  189.9150  177.6350  139.3940 C   0  0  2  0  0  3  0  0  0  0  0  0
  189.8000  177.5560  141.9310 C   0  0  0  0  0  0  0  0  0  0  0  0
  189.1870  177.8290  140.6980 C   0  0  0  0  0  0  0  0  0  0  0  0
  187.7080  178.0620  143.0300 C   0  0  0  0  0  3  0  0  0  0  0  0
  190.4780  176.2170  139.3220 C   0  0  2  0  0  3  0  0  0  0  0  0
  192.0310  177.4990  140.8900 C   0  0  0  0  0  2  0  0  0  0  0  0
  191.4230  177.3970  139.4810 C   0  0  2  0  0  3  0  0  0  0  0  0
  191.4360  176.6260  145.8390 N   0  0  0  0  0  0  0  0  0  0  0  0
  189.6180  177.3790  144.4770 C   0  0  0  0  0  0  0  0  0  0  0  0
  189.4460  177.2900  146.8870 C   0  0  0  0  0  0  0  0  0  0  0  0
  190.7200  176.8250  146.9470 N   0  0  0  0  0  0  0  0  0  0  0  0
  188.8780  177.5780  145.6480 C   0  0  0  0  0  3  0  0  0  0  0  0
  190.9230  176.8860  144.6070 C   0  0  0  0  0  3  0  0  0  0  0  0
  187.3560  178.1990  147.8190 C   0  0  0  0  0  1  0  0  0  0  0  0
  188.6740  177.5220  148.1390 C   0  0  0  0  0  2  0  0  0  0  0  0
  190.4760  176.5730  136.9600 O   0  0  0  0  0  0  0  0  0  0  0  0
  190.5510  174.3480  137.6180 N   0  0  0  0  0  1  0  0  0  0  0  0
  190.4830  175.7420  137.9050 C   0  0  0  0  0  0  0  0  0  0  0  0
  185.3570  179.5080  140.7480 O   0  0  0  0  0  0  0  0  0  0  0  0
  184.7750  178.3290  142.6570 N   0  0  0  0  0  1  0  0  0  0  0  0
  185.7290  178.7600  141.6910 C   0  0  0  0  0  0  0  0  0  0  0  0
  1  8  1  0  0  0  0
  2 13  1  0  0  0  0
  3  7  1  0  0  0  0
  3  1  2  0  0  0  0
  5 11  1  0  0  0  0
  5  7  1  1  0  0  0
  6  4  1  0  0  0  0
  6  2  1  0  0  0  0
  7  6  2  0  0  0  0
  8  2  2  0  0  0  0
  9 22  1  6  0  0  0
  9  5  1  0  0  0  0
  9 11  1  0  0  0  0
 10  4  1  0  0  0  0
 11 10  1  1  0  0  0
 12 15  1  0  0  0  0
 13 17  1  0  0  0  0
 13 16  2  0  0  0  0
 14 15  2  0  0  0  0
 14 19  1  0  0  0  0
 16 14  1  0  0  0  0
 17 12  2  0  0  0  0
 18 19  1  0  0  0  0
 20 22  2  0  0  0  0
 21 22  1  0  0  0  0
 23 25  2  0  0  0  0
 25  1  1  0  0  0  0
 25 24  1  0  0  0  0
M  END
>  <MODEL>
2

>  <REMARK>
 VINA RESULT:      -8.6      1.544      2.105
  Name = 
  4 active torsions:
  status: ('A' for Active; 'I' for Inactive)
    1  A    between atoms: C_2  and  C_6
    2  A    between atoms: C_3  and  C_11
    3  A    between atoms: C_4  and  C_20
    4  A    between atoms: C_18  and  C_23
                            x       y       z     vdW  Elec       q    Type
                         _______ _______ _______ _____ _____    ______ ____

>  <TORSDO>
F 4

$$$$
=
 OpenBabel10232409443D

 25 28  0  0  1  0  0  0  0  0999 V2000
  186.7750  178.5670  141.2010 C   0  0  0  0  0  0  0  0  0  0  0  0
  188.5150  177.8320  142.7340 C   0  0  0  0  0  0  0  0  0  0  0  0
  187.6210  178.3730  140.1550 N   0  0  0  0  0  0  0  0  0  0  0  0
  190.6760  177.1990  141.7700 O   0  0  0  0  0  0  0  0  0  0  0  0
  189.7350  177.6730  139.1060 C   0  0  2  0  0  3  0  0  0  0  0  0
  189.3710  177.6620  141.6210 C   0  0  0  0  0  0  0  0  0  0  0  0
  188.8950  177.9330  140.3290 C   0  0  0  0  0  0  0  0  0  0  0  0
  187.2100  178.2930  142.4990 C   0  0  0  0  0  3  0  0  0  0  0  0
  190.2330  176.2290  139.1170 C   0  0  2  0  0  3  0  0  0  0  0  0
  191.6870  177.4740  140.8050 C   0  0  0  0  0  2  0  0  0  0  0  0
  191.2150  177.3660  139.3450 C   0  0  2  0  0  3  0  0  0  0  0  0
  190.6130  176.8580  145.6970 N   0  0  0  0  0  0  0  0  0  0  0  0
  188.9350  177.5550  144.1390 C   0  0  0  0  0  0  0  0  0  0  0  0
  188.4900  177.4320  146.5130 C   0  0  0  0  0  0  0  0  0  0  0  0
  189.7670  177.0160  146.7160 N   0  0  0  0  0  0  0  0  0  0  0  0
  188.0580  177.7120  145.2190 C   0  0  0  0  0  3  0  0  0  0  0  0
  190.2350  177.1130  144.4160 C   0  0  0  0  0  3  0  0  0  0  0  0
  188.3370  178.1620  148.8600 C   0  0  0  0  0  1  0  0  0  0  0  0
  187.5710  177.6190  147.6690 C   0  0  0  0  0  2  0  0  0  0  0  0
  190.3540  174.4800  137.4950 O   0  0  0  0  0  0  0  0  0  0  0  0
  190.4080  176.6320  136.6260 N   0  0  0  0  0  1  0  0  0  0  0  0
  190.3510  175.7190  137.7180 C   0  0  0  0  0  0  0  0  0  0  0  0
  184.5640  179.0520  141.8950 O   0  0  0  0  0  0  0  0  0  0  0  0
  185.0220  179.5200  139.6710 N   0  0  0  0  0  1  0  0  0  0  0  0
  185.4070  179.0500  140.9590 C   0  0  0  0  0  0  0  0  0  0  0  0
  1  8  1  0  0  0  0
  2 13  1  0  0  0  0
  3  7  1  0  0  0  0
  3  1  2  0  0  0  0
  5  9  1  0  0  0  0
  5 11  1  0  0  0  0
  5  7  1  1  0  0  0
  6  4  1  0  0  0  0
  6  2  1  0  0  0  0
  7  6  2  0  0  0  0
  8  2  2  0  0  0  0
  9 22  1  6  0  0  0
  9 11  1  0  0  0  0
 10  4  1  0  0  0  0
 11 10  1  1  0  0  0
 12 15  1  0  0  0  0
 13 17  1  0  0  0  0
 13 16  2  0  0  0  0
 14 15  2  0  0  0  0
 14 19  1  0  0  0  0
 16 14  1  0  0  0  0
 17 12  2  0  0  0  0
 19 18  1  0  0  0  0
 20 22  2  0  0  0  0
 21 22  1  0  0  0  0
 24 25  1  0  0  0  0
 25  1  1  0  0  0  0
 25 23  2  0  0  0  0
M  END
>  <MODEL>
3

>  <REMARK>
 VINA RESULT:      -8.4      1.362      1.835
  Name = 
  4 active torsions:
  status: ('A' for Active; 'I' for Inactive)
    1  A    between atoms: C_2  and  C_6
    2  A    between atoms: C_3  and  C_11
    3  A    between atoms: C_4  and  C_20
    4  A    between atoms: C_18  and  C_23
                            x       y       z     vdW  Elec       q    Type
                         _______ _______ _______ _____ _____    ______ ____

>  <TORSDO>
F 4

$$$$
=
 OpenBabel10232409443D

 25 28  0  0  1  0  0  0  0  0999 V2000
  189.1440  177.4570  142.6970 C   0  0  0  0  0  0  0  0  0  0  0  0
  187.6530  177.9200  144.5620 C   0  0  0  0  0  0  0  0  0  0  0  0
  190.1830  177.3350  143.5650 N   0  0  0  0  0  0  0  0  0  0  0  0
  188.6280  177.9540  146.8080 O   0  0  0  0  0  0  0  0  0  0  0  0
  191.2190  177.2680  145.7970 C   0  0  2  0  0  3  0  0  0  0  0  0
  188.7630  177.8040  145.4300 C   0  0  0  0  0  0  0  0  0  0  0  0
  190.0280  177.4990  144.9050 C   0  0  0  0  0  0  0  0  0  0  0  0
  187.8680  177.7440  143.1860 C   0  0  0  0  0  3  0  0  0  0  0  0
  190.8870  176.2010  146.8380 C   0  0  2  0  0  3  0  0  0  0  0  0
  189.7260  178.3300  147.6350 C   0  0  0  0  0  2  0  0  0  0  0  0
  191.0560  177.6480  147.2700 C   0  0  2  0  0  3  0  0  0  0  0  0
  184.7150  178.5020  146.8340 N   0  0  0  0  0  0  0  0  0  0  0  0
  186.2710  178.2280  145.0360 C   0  0  0  0  0  0  0  0  0  0  0  0
  183.9530  178.7890  144.6340 C   0  0  0  0  0  0  0  0  0  0  0  0
  183.7340  178.7790  145.9740 N   0  0  0  0  0  0  0  0  0  0  0  0
  185.2300  178.5170  144.1470 C   0  0  0  0  0  3  0  0  0  0  0  0
  185.9750  178.2240  146.4060 C   0  0  0  0  0  3  0  0  0  0  0  0
  183.2510  178.7850  142.2750 C   0  0  0  0  0  1  0  0  0  0  0  0
  182.8460  179.1200  143.6970 C   0  0  0  0  0  2  0  0  0  0  0  0
  192.6350  174.6590  146.3160 O   0  0  0  0  0  0  0  0  0  0  0  0
  192.7290  175.5650  148.4510 N   0  0  0  0  0  1  0  0  0  0  0  0
  192.1140  175.4170  147.1750 C   0  0  0  0  0  0  0  0  0  0  0  0
  188.5650  177.7770  140.4240 O   0  0  0  0  0  0  0  0  0  0  0  0
  190.4870  176.5320  140.7830 N   0  0  0  0  0  1  0  0  0  0  0  0
  189.3670  177.2740  141.2550 C   0  0  0  0  0  0  0  0  0  0  0  0
  1  8  2  0  0  0  0
  1  3  1  0  0  0  0
  2 13  1  0  0  0  0
  2  6  2  0  0  0  0
  3  7  2  0  0  0  0
  4 10  1  0  0  0  0
  5  7  1  6  0  0  0
  5  9  1  0  0  0  0
  5 11  1  0  0  0  0
  6  4  1  0  0  0  0
  7  6  1  0  0  0  0
  8  2  1  0  0  0  0
  9 22  1  1  0  0  0
  9 11  1  0  0  0  0
 11 10  1  6  0  0  0
 13 17  2  0  0  0  0
 14 15  1  0  0  0  0
 15 12  2  0  0  0  0
 16 14  2  0  0  0  0
 16 13  1  0  0  0  0
 17 12  1  0  0  0  0
 18 19  1  0  0  0  0
 19 14  1  0  0  0  0
 20 22  2  0  0  0  0
 22 21  1  0  0  0  0
 23 25  2  0  0  0  0
 24 25  1  0  0  0  0
 25  1  1  0  0  0  0
M  END
>  <MODEL>
4

>  <REMARK>
 VINA RESULT:      -8.2      2.692      6.007
  Name = 
  4 active torsions:
  status: ('A' for Active; 'I' for Inactive)
    1  A    between atoms: C_2  and  C_6
    2  A    between atoms: C_3  and  C_11
    3  A    between atoms: C_4  and  C_20
    4  A    between atoms: C_18  and  C_23
                            x       y       z     vdW  Elec       q    Type
                         _______ _______ _______ _____ _____    ______ ____

>  <TORSDO>
F 4

$$$$
=
 OpenBabel10232409443D

 25 28  0  0  1  0  0  0  0  0999 V2000
  185.6810  178.4810  144.6520 C   0  0  0  0  0  0  0  0  0  0  0  0
  186.1690  178.4000  142.2710 C   0  0  0  0  0  0  0  0  0  0  0  0
  186.9100  177.9640  144.9170 N   0  0  0  0  0  0  0  0  0  0  0  0
  188.3530  177.5210  141.5950 O   0  0  0  0  0  0  0  0  0  0  0  0
  189.1540  177.1490  144.3200 C   0  0  2  0  0  3  0  0  0  0  0  0
  187.4320  177.8460  142.5870 C   0  0  0  0  0  0  0  0  0  0  0  0
  187.7860  177.6440  143.9300 C   0  0  0  0  0  0  0  0  0  0  0  0
  185.3000  178.7100  143.3290 C   0  0  0  0  0  3  0  0  0  0  0  0
  190.2250  178.0400  143.6930 C   0  0  2  0  0  3  0  0  0  0  0  0
  189.3740  176.5490  141.8050 C   0  0  0  0  0  2  0  0  0  0  0  0
  190.0380  176.6180  143.1900 C   0  0  2  0  0  3  0  0  0  0  0  0
  186.1610  178.6560  138.5200 N   0  0  0  0  0  0  0  0  0  0  0  0
  185.7170  178.6600  140.8720 C   0  0  0  0  0  0  0  0  0  0  0  0
  184.0660  179.4020  139.2680 C   0  0  0  0  0  0  0  0  0  0  0  0
  184.9410  179.1330  138.2650 N   0  0  0  0  0  0  0  0  0  0  0  0
  184.4420  179.1640  140.5880 C   0  0  0  0  0  3  0  0  0  0  0  0
  186.5750  178.4140  139.7930 C   0  0  0  0  0  3  0  0  0  0  0  0
  181.6690  179.1760  139.7780 C   0  0  0  0  0  1  0  0  0  0  0  0
  182.7050  179.9160  138.9550 C   0  0  0  0  0  2  0  0  0  0  0  0
  192.2430  179.0570  144.4670 O   0  0  0  0  0  0  0  0  0  0  0  0
  191.5920  177.1550  145.6290 N   0  0  0  0  0  1  0  0  0  0  0  0
  191.4160  178.1160  144.5920 C   0  0  0  0  0  0  0  0  0  0  0  0
  183.5690  179.1140  145.5180 O   0  0  0  0  0  0  0  0  0  0  0  0
  185.2230  178.7790  147.1070 N   0  0  0  0  0  1  0  0  0  0  0  0
  184.7670  178.8070  145.7580 C   0  0  0  0  0  0  0  0  0  0  0  0
  1  3  1  0  0  0  0
  1 25  1  0  0  0  0
  2  6  2  0  0  0  0
  2  8  1  0  0  0  0
  4 10  1  0  0  0  0
  4  6  1  0  0  0  0
  5  7  1  6  0  0  0
  6  7  1  0  0  0  0
  7  3  2  0  0  0  0
  8  1  2  0  0  0  0
  9  5  1  0  0  0  0
  9 22  1  1  0  0  0
 11 10  1  6  0  0  0
 11  9  1  0  0  0  0
 11  5  1  0  0  0  0
 12 17  1  0  0  0  0
 13  2  1  0  0  0  0
 14 16  2  0  0  0  0
 15 12  2  0  0  0  0
 15 14  1  0  0  0  0
 16 13  1  0  0  0  0
 17 13  2  0  0  0  0
 19 14  1  0  0  0  0
 19 18  1  0  0  0  0
 20 22  2  0  0  0  0
 22 21  1  0  0  0  0
 23 25  2  0  0  0  0
 25 24  1  0  0  0  0
M  END
>  <MODEL>
5

>  <REMARK>
 VINA RESULT:      -7.9      2.532      6.326
  Name = 
  4 active torsions:
  status: ('A' for Active; 'I' for Inactive)
    1  A    between atoms: C_2  and  C_6
    2  A    between atoms: C_3  and  C_11
    3  A    between atoms: C_4  and  C_20
    4  A    between atoms: C_18  and  C_23
                            x       y       z     vdW  Elec       q    Type
                         _______ _______ _______ _____ _____    ______ ____

>  <TORSDO>
F 4

$$$$
=
 OpenBabel10232409443D

 25 28  0  0  1  0  0  0  0  0999 V2000
  185.7610  178.4060  144.7170 C   0  0  0  0  0  0  0  0  0  0  0  0
  186.3010  178.3540  142.3460 C   0  0  0  0  0  0  0  0  0  0  0  0
  186.9810  177.8800  145.0020 N   0  0  0  0  0  0  0  0  0  0  0  0
  188.4950  177.4710  141.7070 O   0  0  0  0  0  0  0  0  0  0  0  0
  189.2340  177.0610  144.4440 C   0  0  2  0  0  3  0  0  0  0  0  0
  187.5530  177.7880  142.6820 C   0  0  0  0  0  0  0  0  0  0  0  0
  187.8770  177.5670  144.0300 C   0  0  0  0  0  0  0  0  0  0  0  0
  185.4110  178.6550  143.3880 C   0  0  0  0  0  3  0  0  0  0  0  0
  190.3230  177.9540  143.8530 C   0  0  2  0  0  3  0  0  0  0  0  0
  189.5060  176.4920  141.9270 C   0  0  0  0  0  2  0  0  0  0  0  0
  190.1400  176.5400  143.3270 C   0  0  2  0  0  3  0  0  0  0  0  0
  184.3110  179.5790  139.4020 N   0  0  0  0  0  0  0  0  0  0  0  0
  185.8810  178.6340  140.9410 C   0  0  0  0  0  0  0  0  0  0  0  0
  186.2010  178.4840  138.5490 C   0  0  0  0  0  0  0  0  0  0  0  0
  185.0450  179.1710  138.3650 N   0  0  0  0  0  0  0  0  0  0  0  0
  186.6380  178.2090  139.8430 C   0  0  0  0  0  3  0  0  0  0  0  0
  184.6920  179.3300  140.6830 C   0  0  0  0  0  3  0  0  0  0  0  0
  188.4900  178.1780  137.6940 C   0  0  0  0  0  1  0  0  0  0  0  0
  187.0120  178.0560  137.3760 C   0  0  0  0  0  2  0  0  0  0  0  0
  192.3700  178.9040  144.6340 O   0  0  0  0  0  0  0  0  0  0  0  0
  191.5970  177.0910  145.8600 N   0  0  0  0  0  1  0  0  0  0  0  0
  191.4940  178.0120  144.7780 C   0  0  0  0  0  0  0  0  0  0  0  0
  183.6430  179.0700  145.5420 O   0  0  0  0  0  0  0  0  0  0  0  0
  185.2400  178.6410  147.1660 N   0  0  0  0  0  1  0  0  0  0  0  0
  184.8240  178.7230  145.8060 C   0  0  0  0  0  0  0  0  0  0  0  0
  1  3  1  0  0  0  0
  1 25  1  0  0  0  0
  2  6  2  0  0  0  0
  2  8  1  0  0  0  0
  4 10  1  0  0  0  0
  4  6  1  0  0  0  0
  5  7  1  6  0  0  0
  6  7  1  0  0  0  0
  7  3  2  0  0  0  0
  8  1  2  0  0  0  0
  9  5  1  0  0  0  0
  9 22  1  1  0  0  0
 11 10  1  6  0  0  0
 11  9  1  0  0  0  0
 11  5  1  0  0  0  0
 12 17  1  0  0  0  0
 13  2  1  0  0  0  0
 14 16  2  0  0  0  0
 15 14  1  0  0  0  0
 15 12  2  0  0  0  0
 16 13  1  0  0  0  0
 17 13  2  0  0  0  0
 19 18  1  0  0  0  0
 19 14  1  0  0  0  0
 20 22  2  0  0  0  0
 22 21  1  0  0  0  0
 23 25  2  0  0  0  0
 25 24  1  0  0  0  0
M  END
>  <MODEL>
6

>  <REMARK>
 VINA RESULT:      -7.9      2.543      5.966
  Name = 
  4 active torsions:
  status: ('A' for Active; 'I' for Inactive)
    1  A    between atoms: C_2  and  C_6
    2  A    between atoms: C_3  and  C_11
    3  A    between atoms: C_4  and  C_20
    4  A    between atoms: C_18  and  C_23
                            x       y       z     vdW  Elec       q    Type
                         _______ _______ _______ _____ _____    ______ ____

>  <TORSDO>
F 4

$$$$
=
 OpenBabel10232409443D

 25 28  0  0  1  0  0  0  0  0999 V2000
  190.0520  177.1870  140.3330 C   0  0  0  0  0  0  0  0  0  0  0  0
  188.2870  177.8900  141.8510 C   0  0  0  0  0  0  0  0  0  0  0  0
  190.9010  177.0600  141.3870 N   0  0  0  0  0  0  0  0  0  0  0  0
  188.8340  178.0290  144.2340 O   0  0  0  0  0  0  0  0  0  0  0  0
  191.5020  177.0930  143.7740 C   0  0  2  0  0  3  0  0  0  0  0  0
  189.2060  177.7660  142.9190 C   0  0  0  0  0  0  0  0  0  0  0  0
  190.5170  177.3360  142.6610 C   0  0  0  0  0  0  0  0  0  0  0  0
  188.7360  177.5960  140.5540 C   0  0  0  0  0  3  0  0  0  0  0  0
  190.8990  176.1330  144.7980 C   0  0  2  0  0  3  0  0  0  0  0  0
  189.7890  178.3910  145.2280 C   0  0  0  0  0  2  0  0  0  0  0  0
  191.1030  177.5950  145.1630 C   0  0  2  0  0  3  0  0  0  0  0  0
  184.8710  179.2940  141.1450 N   0  0  0  0  0  0  0  0  0  0  0  0
  186.8710  178.3280  142.0370 C   0  0  0  0  0  0  0  0  0  0  0  0
  184.8950  178.6370  143.3960 C   0  0  0  0  0  0  0  0  0  0  0  0
  184.2570  179.1670  142.3220 N   0  0  0  0  0  0  0  0  0  0  0  0
  186.2140  178.2050  143.2660 C   0  0  0  0  0  3  0  0  0  0  0  0
  186.1590  178.8930  140.9710 C   0  0  0  0  0  3  0  0  0  0  0  0
  185.1440  178.7060  145.8450 C   0  0  0  0  0  1  0  0  0  0  0  0
  184.1810  178.4880  144.6940 C   0  0  0  0  0  2  0  0  0  0  0  0
  192.5370  174.3960  144.7300 O   0  0  0  0  0  0  0  0  0  0  0  0
  192.4090  175.5480  146.7410 N   0  0  0  0  0  1  0  0  0  0  0  0
  191.9760  175.2960  145.4080 C   0  0  0  0  0  0  0  0  0  0  0  0
  191.4290  176.0270  138.7960 O   0  0  0  0  0  0  0  0  0  0  0  0
  189.9520  177.5390  137.8450 N   0  0  0  0  0  1  0  0  0  0  0  0
  190.5200  176.8800  138.9720 C   0  0  0  0  0  0  0  0  0  0  0  0
  1  8  2  0  0  0  0
  1  3  1  0  0  0  0
  2 13  1  0  0  0  0
  2  6  2  0  0  0  0
  3  7  2  0  0  0  0
  4 10  1  0  0  0  0
  5  7  1  6  0  0  0
  5  9  1  0  0  0  0
  5 11  1  0  0  0  0
  6  4  1  0  0  0  0
  7  6  1  0  0  0  0
  8  2  1  0  0  0  0
  9 11  1  0  0  0  0
  9 22  1  1  0  0  0
 11 10  1  6  0  0  0
 12 15  1  0  0  0  0
 13 16  2  0  0  0  0
 14 19  1  0  0  0  0
 15 14  2  0  0  0  0
 16 14  1  0  0  0  0
 17 12  2  0  0  0  0
 17 13  1  0  0  0  0
 19 18  1  0  0  0  0
 20 22  2  0  0  0  0
 22 21  1  0  0  0  0
 23 25  2  0  0  0  0
 24 25  1  0  0  0  0
 25  1  1  0  0  0  0
M  END
>  <MODEL>
7

>  <REMARK>
 VINA RESULT:      -7.7      2.334      5.413
  Name = 
  4 active torsions:
  status: ('A' for Active; 'I' for Inactive)
    1  A    between atoms: C_2  and  C_6
    2  A    between atoms: C_3  and  C_11
    3  A    between atoms: C_4  and  C_20
    4  A    between atoms: C_18  and  C_23
                            x       y       z     vdW  Elec       q    Type
                         _______ _______ _______ _____ _____    ______ ____

>  <TORSDO>
F 4

$$$$
=
 OpenBabel10232409443D

 25 28  0  0  1  0  0  0  0  0999 V2000
  188.2770  178.1510  141.3540 C   0  0  0  0  0  0  0  0  0  0  0  0
  186.9610  178.2910  143.3940 C   0  0  0  0  0  0  0  0  0  0  0  0
  189.3930  177.9190  142.0950 N   0  0  0  0  0  0  0  0  0  0  0  0
  188.1400  178.0000  145.5220 O   0  0  0  0  0  0  0  0  0  0  0  0
  190.6310  177.5310  144.1870 C   0  0  2  0  0  3  0  0  0  0  0  0
  188.1470  178.0660  144.1310 C   0  0  0  0  0  0  0  0  0  0  0  0
  189.3610  177.8720  143.4520 C   0  0  0  0  0  0  0  0  0  0  0  0
  187.0500  178.3330  141.9940 C   0  0  0  0  0  3  0  0  0  0  0  0
  190.4040  176.3110  145.0760 C   0  0  2  0  0  3  0  0  0  0  0  0
  189.3070  178.2670  146.2940 C   0  0  0  0  0  2  0  0  0  0  0  0
  190.6020  177.6780  145.7090 C   0  0  2  0  0  3  0  0  0  0  0  0
  184.2950  178.7310  146.0080 N   0  0  0  0  0  0  0  0  0  0  0  0
  185.6270  178.4940  144.0340 C   0  0  0  0  0  0  0  0  0  0  0  0
  183.2310  178.8000  143.9190 C   0  0  0  0  0  0  0  0  0  0  0  0
  183.1880  178.8550  145.2750 N   0  0  0  0  0  0  0  0  0  0  0  0
  184.4560  178.6220  143.2790 C   0  0  0  0  0  3  0  0  0  0  0  0
  185.5120  178.5500  145.4290 C   0  0  0  0  0  3  0  0  0  0  0  0
  180.7790  178.5910  143.9640 C   0  0  0  0  0  1  0  0  0  0  0  0
  181.9840  178.9610  143.1230 C   0  0  0  0  0  2  0  0  0  0  0  0
  192.2700  175.4230  146.2740 O   0  0  0  0  0  0  0  0  0  0  0  0
  192.1490  174.7990  144.0420 N   0  0  0  0  0  1  0  0  0  0  0  0
  191.6620  175.5100  145.1750 C   0  0  0  0  0  0  0  0  0  0  0  0
  189.4870  178.0960  139.3190 O   0  0  0  0  0  0  0  0  0  0  0  0
  187.1950  178.3550  139.0930 N   0  0  0  0  0  1  0  0  0  0  0  0
  188.3670  178.1970  139.8860 C   0  0  0  0  0  0  0  0  0  0  0  0
  1  8  2  0  0  0  0
  1  3  1  0  0  0  0
  2 13  1  0  0  0  0
  2  6  2  0  0  0  0
  3  7  2  0  0  0  0
  4 10  1  0  0  0  0
  5  7  1  6  0  0  0
  5  9  1  0  0  0  0
  5 11  1  0  0  0  0
  6  4  1  0  0  0  0
  7  6  1  0  0  0  0
  8  2  1  0  0  0  0
  9 22  1  1  0  0  0
  9 11  1  0  0  0  0
 11 10  1  6  0  0  0
 13 17  2  0  0  0  0
 14 15  1  0  0  0  0
 15 12  2  0  0  0  0
 16 14  2  0  0  0  0
 16 13  1  0  0  0  0
 17 12  1  0  0  0  0
 19 14  1  0  0  0  0
 19 18  1  0  0  0  0
 21 22  1  0  0  0  0
 22 20  2  0  0  0  0
 23 25  2  0  0  0  0
 24 25  1  0  0  0  0
 25  1  1  0  0  0  0
M  END
>  <MODEL>
8

>  <REMARK>
 VINA RESULT:      -7.6      2.809      5.324
  Name = 
  4 active torsions:
  status: ('A' for Active; 'I' for Inactive)
    1  A    between atoms: C_2  and  C_6
    2  A    between atoms: C_3  and  C_11
    3  A    between atoms: C_4  and  C_20
    4  A    between atoms: C_18  and  C_23
                            x       y       z     vdW  Elec       q    Type
                         _______ _______ _______ _____ _____    ______ ____

>  <TORSDO>
F 4

$$$$
=
 OpenBabel10232409443D

 25 28  0  0  1  0  0  0  0  0999 V2000
  186.4070  178.3190  142.4580 C   0  0  0  0  0  0  0  0  0  0  0  0
  188.6520  177.5810  143.0330 C   0  0  0  0  0  0  0  0  0  0  0  0
  186.7610  178.3590  141.1460 N   0  0  0  0  0  0  0  0  0  0  0  0
  190.2590  177.3200  141.2030 O   0  0  0  0  0  0  0  0  0  0  0  0
  188.2940  178.0380  139.2470 C   0  0  2  0  0  3  0  0  0  0  0  0
  188.9870  177.6540  141.6610 C   0  0  0  0  0  0  0  0  0  0  0  0
  188.0130  178.0410  140.7270 C   0  0  0  0  0  0  0  0  0  0  0  0
  187.3450  177.9240  143.4130 C   0  0  0  0  0  3  0  0  0  0  0  0
  188.8180  176.6680  138.8210 C   0  0  2  0  0  3  0  0  0  0  0  0
  190.7750  177.8290  139.9770 C   0  0  0  0  0  2  0  0  0  0  0  0
  189.7550  177.8650  138.8270 C   0  0  2  0  0  3  0  0  0  0  0  0
  191.6780  176.1150  144.7140 N   0  0  0  0  0  0  0  0  0  0  0  0
  189.6200  177.1670  144.0910 C   0  0  0  0  0  0  0  0  0  0  0  0
  190.3150  177.0060  146.4020 C   0  0  0  0  0  0  0  0  0  0  0  0
  191.4440  176.3660  146.0030 N   0  0  0  0  0  0  0  0  0  0  0  0
  189.3880  177.4200  145.4480 C   0  0  0  0  0  3  0  0  0  0  0  0
  190.8000  176.4930  143.7470 C   0  0  0  0  0  3  0  0  0  0  0  0
  188.7720  178.0250  148.0280 C   0  0  0  0  0  1  0  0  0  0  0  0
  190.0860  177.2920  147.8450 C   0  0  0  0  0  2  0  0  0  0  0  0
  187.2420  175.8670  137.2150 O   0  0  0  0  0  0  0  0  0  0  0  0
  189.2230  176.6880  136.3240 N   0  0  0  0  0  1  0  0  0  0  0  0
  188.3790  176.3650  137.4250 C   0  0  0  0  0  0  0  0  0  0  0  0
  184.7440  178.7720  144.0810 O   0  0  0  0  0  0  0  0  0  0  0  0
  184.0360  178.9250  141.8790 N   0  0  0  0  0  1  0  0  0  0  0  0
  185.0380  178.6790  142.8600 C   0  0  0  0  0  0  0  0  0  0  0  0
  1 25  1  0  0  0  0
  1  8  1  0  0  0  0
  2  8  2  0  0  0  0
  2 13  1  0  0  0  0
  3  1  2  0  0  0  0
  4  6  1  0  0  0  0
  5  7  1  1  0  0  0
  6  2  1  0  0  0  0
  7  3  1  0  0  0  0
  7  6  2  0  0  0  0
  9 22  1  6  0  0  0
  9 11  1  0  0  0  0
  9  5  1  0  0  0  0
 10  4  1  0  0  0  0
 11  5  1  0  0  0  0
 11 10  1  1  0  0  0
 12 15  1  0  0  0  0
 13 16  2  0  0  0  0
 14 19  1  0  0  0  0
 15 14  2  0  0  0  0
 16 14  1  0  0  0  0
 17 13  1  0  0  0  0
 17 12  2  0  0  0  0
 19 18  1  0  0  0  0
 20 22  2  0  0  0  0
 21 22  1  0  0  0  0
 24 25  1  0  0  0  0
 25 23  2  0  0  0  0
M  END
>  <MODEL>
9

>  <REMARK>
 VINA RESULT:      -7.4      2.042      2.459
  Name = 
  4 active torsions:
  status: ('A' for Active; 'I' for Inactive)
    1  A    between atoms: C_2  and  C_6
    2  A    between atoms: C_3  and  C_11
    3  A    between atoms: C_4  and  C_20
    4  A    between atoms: C_18  and  C_23
                            x       y       z     vdW  Elec       q    Type
                         _______ _______ _______ _____ _____    ______ ____

>  <TORSDO>
F 4

$$$$
