=
 OpenBabel10232410003D

 26 28  0  0  1  0  0  0  0  0999 V2000
  187.6210  177.2650  145.2840 C   0  0  0  0  0  0  0  0  0  0  0  0
  185.6900  180.2270  142.9810 C   0  0  0  0  0  3  0  0  0  0  0  0
  185.5910  178.2540  146.1720 C   0  0  0  0  0  0  0  0  0  0  0  0
  189.6650  177.4510  146.7160 C   0  0  0  0  0  2  0  0  0  0  0  0
  186.8450  177.9390  146.3520 C   0  0  0  0  0  0  0  0  0  0  0  0
  189.6640  176.3740  144.4780 O   0  0  0  0  0  1  0  0  0  0  0  0
  186.9600  177.5600  142.9720 C   0  0  0  0  0  0  0  0  0  0  0  0
  183.7760  178.0320  141.7240 C   0  0  0  0  0  2  0  0  0  0  0  0
  184.6920  178.9960  140.9610 C   0  0  0  0  0  2  0  0  0  0  0  0
  187.5070  178.3150  147.6030 C   0  0  0  0  0  3  0  0  0  0  0  0
  184.8630  179.7480  143.8630 C   0  0  0  0  0  0  0  0  0  0  0  0
  184.3470  178.5500  145.8990 C   0  0  0  0  0  3  0  0  0  0  0  0
  182.7090  178.6310  143.9560 C   0  0  0  0  0  2  0  0  0  0  0  0
  186.9490  176.8170  144.0470 C   0  0  0  0  0  3  0  0  0  0  0  0
  183.9700  179.1430  144.6050 C   0  0  0  0  0  0  0  0  0  0  0  0
  188.8070  178.0840  147.7820 C   0  0  0  0  0  0  0  0  0  0  0  0
  186.9770  178.3180  141.8980 C   0  0  0  0  0  0  0  0  0  0  0  0
  189.3950  178.4500  148.9850 O   0  0  0  0  0  1  0  0  0  0  0  0
  188.9320  177.0270  145.4640 C   0  0  0  0  0  0  0  0  0  0  0  0
  185.9560  179.4250  141.7350 C   0  0  2  0  0  3  0  0  0  0  0  0
  182.6530  178.7990  142.4270 C   0  0  2  0  0  3  0  0  0  0  0  0
  181.3140  178.3110  141.9160 C   0  0  0  0  0  1  0  0  0  0  0  0
  187.6800  178.2400  139.4700 C   0  0  0  0  0  1  0  0  0  0  0  0
  187.9880  178.1150  140.8880 N   0  0  0  0  0  0  0  0  0  0  0  0
  189.3240  177.6480  141.2360 C   0  0  0  0  0  2  0  0  0  0  0  0
  190.0310  177.1150  140.0050 C   0  0  0  0  0  1  0  0  0  0  0  0
  1 19  2  0  0  0  0
  1  5  1  0  0  0  0
  2 11  2  0  0  0  0
  3  5  2  0  0  0  0
  4 16  1  0  0  0  0
  5 10  1  0  0  0  0
  6 19  1  0  0  0  0
  7 14  2  0  0  0  0
  8 21  1  0  0  0  0
  9  8  1  0  0  0  0
 10 16  2  0  0  0  0
 11 15  2  0  0  0  0
 12  3  2  0  0  0  0
 13 15  1  0  0  0  0
 14  1  1  0  0  0  0
 15 12  1  0  0  0  0
 16 18  1  0  0  0  0
 17  7  2  0  0  0  0
 19  4  1  0  0  0  0
 20  9  1  1  0  0  0
 20 17  1  0  0  0  0
 20  2  1  0  0  0  0
 21 22  1  6  0  0  0
 21 13  1  0  0  0  0
 23 24  1  0  0  0  0
 24 25  1  0  0  0  0
 24 17  1  0  0  0  0
 26 25  1  0  0  0  0
M  END
>  <MODEL>
1

>  <REMARK>
 VINA RESULT:      -9.6      0.000      0.000
  Name = 
  2 active torsions:
  status: ('A' for Active; 'I' for Inactive)
    1  A    between atoms: C_18  and  N_22
    2  A    between atoms: C_19  and  N_22
                            x       y       z     vdW  Elec       q    Type
                         _______ _______ _______ _____ _____    ______ ____

>  <TORSDO>
F 2

$$$$
=
 OpenBabel10232410003D

 26 28  0  0  1  0  0  0  0  0999 V2000
  185.1160  179.0430  141.8830 C   0  0  0  0  0  0  0  0  0  0  0  0
  187.3340  175.9640  143.7300 C   0  0  0  0  0  3  0  0  0  0  0  0
  184.6750  178.5660  144.2210 C   0  0  0  0  0  0  0  0  0  0  0  0
  183.1610  178.8760  140.3290 C   0  0  0  0  0  2  0  0  0  0  0  0
  184.2080  178.7300  143.0130 C   0  0  0  0  0  0  0  0  0  0  0  0
  185.4590  179.4390  139.5720 O   0  0  0  0  0  1  0  0  0  0  0  0
  187.4360  178.3580  142.0020 C   0  0  0  0  0  0  0  0  0  0  0  0
  189.4240  178.0910  144.8120 C   0  0  0  0  0  2  0  0  0  0  0  0
  189.7290  176.8650  143.9430 C   0  0  0  0  0  2  0  0  0  0  0  0
  182.7780  178.5390  142.7640 C   0  0  0  0  0  3  0  0  0  0  0  0
  186.8110  176.7340  144.6380 C   0  0  0  0  0  0  0  0  0  0  0  0
  185.2300  178.4000  145.3930 C   0  0  0  0  0  3  0  0  0  0  0  0
  187.5100  178.1410  146.4890 C   0  0  0  0  0  2  0  0  0  0  0  0
  186.5480  179.3070  142.1310 C   0  0  0  0  0  3  0  0  0  0  0  0
  186.4590  177.6040  145.5500 C   0  0  0  0  0  0  0  0  0  0  0  0
  182.2850  178.6140  141.5280 C   0  0  0  0  0  0  0  0  0  0  0  0
  188.3200  177.3940  141.8700 C   0  0  0  0  0  0  0  0  0  0  0  0
  180.9230  178.4330  141.3350 O   0  0  0  0  0  1  0  0  0  0  0  0
  184.6200  179.1230  140.6360 C   0  0  0  0  0  0  0  0  0  0  0  0
  188.5730  176.4350  143.0150 C   0  0  2  0  0  3  0  0  0  0  0  0
  188.9430  177.6600  146.2010 C   0  0  2  0  0  3  0  0  0  0  0  0
  189.8810  178.2140  147.2520 C   0  0  0  0  0  1  0  0  0  0  0  0
  190.4380  176.8650  140.5930 C   0  0  0  0  0  1  0  0  0  0  0  0
  189.0290  177.2290  140.6220 N   0  0  0  0  0  0  0  0  0  0  0  0
  188.4000  177.5480  139.3480 C   0  0  0  0  0  2  0  0  0  0  0  0
  189.1310  178.6940  138.6750 C   0  0  0  0  0  1  0  0  0  0  0  0
  1 14  1  0  0  0  0
  1  5  1  0  0  0  0
  2 11  2  0  0  0  0
  3 12  2  0  0  0  0
  4 19  1  0  0  0  0
  4 16  1  0  0  0  0
  5  3  2  0  0  0  0
  6 19  1  0  0  0  0
  7 14  2  0  0  0  0
  8 21  1  0  0  0  0
  9  8  1  0  0  0  0
 10  5  1  0  0  0  0
 11 15  2  0  0  0  0
 12 15  1  0  0  0  0
 15 13  1  0  0  0  0
 16 10  2  0  0  0  0
 17  7  2  0  0  0  0
 17 20  1  0  0  0  0
 18 16  1  0  0  0  0
 19  1  2  0  0  0  0
 20  2  1  1  0  0  0
 20  9  1  0  0  0  0
 21 13  1  0  0  0  0
 21 22  1  1  0  0  0
 23 24  1  0  0  0  0
 24 17  1  0  0  0  0
 25 24  1  0  0  0  0
 26 25  1  0  0  0  0
M  END
>  <MODEL>
2

>  <REMARK>
 VINA RESULT:      -9.1      2.649      5.723
  Name = 
  2 active torsions:
  status: ('A' for Active; 'I' for Inactive)
    1  A    between atoms: C_18  and  N_22
    2  A    between atoms: C_19  and  N_22
                            x       y       z     vdW  Elec       q    Type
                         _______ _______ _______ _____ _____    ______ ____

>  <TORSDO>
F 2

$$$$
=
 OpenBabel10232410003D

 26 28  0  0  1  0  0  0  0  0999 V2000
  190.5310  177.5530  146.2820 C   0  0  0  0  0  0  0  0  0  0  0  0
  188.0660  175.7880  143.3460 C   0  0  0  0  0  3  0  0  0  0  0  0
  191.6010  176.5430  144.3530 C   0  0  0  0  0  0  0  0  0  0  0  0
  191.2130  176.6660  148.5210 C   0  0  0  0  0  2  0  0  0  0  0  0
  191.5140  176.6400  145.6520 C   0  0  0  0  0  0  0  0  0  0  0  0
  189.5000  178.4410  148.2230 O   0  0  0  0  0  1  0  0  0  0  0  0
  188.5170  178.1430  145.0730 C   0  0  0  0  0  0  0  0  0  0  0  0
  188.1170  178.4740  141.6590 C   0  0  0  0  0  2  0  0  0  0  0  0
  186.8740  177.7380  142.1760 C   0  0  0  0  0  2  0  0  0  0  0  0
  192.3570  175.7880  146.4930 C   0  0  0  0  0  3  0  0  0  0  0  0
  189.2440  176.0220  142.8480 C   0  0  0  0  0  0  0  0  0  0  0  0
  191.6070  176.4950  143.0460 C   0  0  0  0  0  3  0  0  0  0  0  0
  190.2650  177.2640  141.0280 C   0  0  0  0  0  2  0  0  0  0  0  0
  189.7250  178.4680  145.4490 C   0  0  0  0  0  3  0  0  0  0  0  0
  190.3520  176.4270  142.2790 C   0  0  0  0  0  0  0  0  0  0  0  0
  192.2310  175.8020  147.8200 C   0  0  0  0  0  0  0  0  0  0  0  0
  187.3020  177.8030  144.7000 C   0  0  0  0  0  0  0  0  0  0  0  0
  193.0530  174.9840  148.5820 O   0  0  0  0  0  1  0  0  0  0  0  0
  190.4040  177.5710  147.6210 C   0  0  0  0  0  0  0  0  0  0  0  0
  187.1000  176.9360  143.4740 C   0  0  2  0  0  3  0  0  0  0  0  0
  188.8360  177.6380  140.5970 C   0  0  2  0  0  3  0  0  0  0  0  0
  188.8890  178.4130  139.2980 C   0  0  0  0  0  1  0  0  0  0  0  0
  186.2530  178.4130  146.9190 C   0  0  0  0  0  1  0  0  0  0  0  0
  186.1630  178.2300  145.4770 N   0  0  0  0  0  0  0  0  0  0  0  0
  184.8440  178.3690  144.8740 C   0  0  0  0  0  2  0  0  0  0  0  0
  184.6960  179.7420  144.2450 C   0  0  0  0  0  1  0  0  0  0  0  0
  1 19  2  0  0  0  0
  2 20  1  0  0  0  0
  3  5  2  0  0  0  0
  5  1  1  0  0  0  0
  5 10  1  0  0  0  0
  7 14  2  0  0  0  0
  8  9  1  0  0  0  0
 10 16  2  0  0  0  0
 11  2  2  0  0  0  0
 12  3  2  0  0  0  0
 13 15  1  0  0  0  0
 14  1  1  0  0  0  0
 15 11  2  0  0  0  0
 15 12  1  0  0  0  0
 16  4  1  0  0  0  0
 16 18  1  0  0  0  0
 17  7  2  0  0  0  0
 17 24  1  0  0  0  0
 19  6  1  0  0  0  0
 19  4  1  0  0  0  0
 20  9  1  6  0  0  0
 20 17  1  0  0  0  0
 21 22  1  6  0  0  0
 21 13  1  0  0  0  0
 21  8  1  0  0  0  0
 24 23  1  0  0  0  0
 25 24  1  0  0  0  0
 26 25  1  0  0  0  0
M  END
>  <MODEL>
3

>  <REMARK>
 VINA RESULT:      -7.8      2.217      5.436
  Name = 
  2 active torsions:
  status: ('A' for Active; 'I' for Inactive)
    1  A    between atoms: C_18  and  N_22
    2  A    between atoms: C_19  and  N_22
                            x       y       z     vdW  Elec       q    Type
                         _______ _______ _______ _____ _____    ______ ____

>  <TORSDO>
F 2

$$$$
=
 OpenBabel10232410003D

 26 28  0  0  1  0  0  0  0  0999 V2000
  190.2590  178.2800  142.4880 C   0  0  0  0  0  0  0  0  0  0  0  0
  186.8260  176.3490  144.0000 C   0  0  0  0  0  3  0  0  0  0  0  0
  188.2540  178.2870  141.1220 C   0  0  0  0  0  0  0  0  0  0  0  0
  192.3080  177.2880  141.4470 C   0  0  0  0  0  2  0  0  0  0  0  0
  189.5330  178.0420  141.2180 C   0  0  0  0  0  0  0  0  0  0  0  0
  192.2540  178.1810  143.7650 O   0  0  0  0  0  1  0  0  0  0  0  0
  189.0420  178.2130  144.5810 C   0  0  0  0  0  0  0  0  0  0  0  0
  185.7550  179.1050  145.1490 C   0  0  0  0  0  2  0  0  0  0  0  0
  186.0020  177.8140  145.9400 C   0  0  0  0  0  2  0  0  0  0  0  0
  190.2410  177.4640  140.0740 C   0  0  0  0  0  3  0  0  0  0  0  0
  186.4860  177.1670  143.0480 C   0  0  0  0  0  0  0  0  0  0  0  0
  186.9720  178.5430  141.1210 C   0  0  0  0  0  3  0  0  0  0  0  0
  185.0600  179.1010  142.7010 C   0  0  0  0  0  2  0  0  0  0  0  0
  189.5760  178.9270  143.6260 C   0  0  0  0  0  3  0  0  0  0  0  0
  186.1080  178.1220  142.2370 C   0  0  0  0  0  0  0  0  0  0  0  0
  191.5250  177.1220  140.1690 C   0  0  0  0  0  0  0  0  0  0  0  0
  188.5090  177.4830  145.5350 C   0  0  0  0  0  0  0  0  0  0  0  0
  192.1610  176.5840  139.0590 O   0  0  0  0  0  1  0  0  0  0  0  0
  191.5570  177.9410  142.5850 C   0  0  0  0  0  0  0  0  0  0  0  0
  187.1150  176.9140  145.3660 C   0  0  2  0  0  3  0  0  0  0  0  0
  184.6030  178.9180  144.1590 C   0  0  2  0  0  3  0  0  0  0  0  0
  183.5060  179.9130  144.4710 C   0  0  0  0  0  1  0  0  0  0  0  0
  190.6900  176.9110  146.6810 C   0  0  0  0  0  1  0  0  0  0  0  0
  189.2630  177.1970  146.7330 N   0  0  0  0  0  0  0  0  0  0  0  0
  188.6060  177.0520  148.0250 C   0  0  0  0  0  2  0  0  0  0  0  0
  188.3760  178.4130  148.6520 C   0  0  0  0  0  1  0  0  0  0  0  0
  1 19  2  0  0  0  0
  1 14  1  0  0  0  0
  3  5  2  0  0  0  0
  4 19  1  0  0  0  0
  5  1  1  0  0  0  0
  7 17  2  0  0  0  0
  8  9  1  0  0  0  0
 10 16  2  0  0  0  0
 10  5  1  0  0  0  0
 11  2  2  0  0  0  0
 12  3  2  0  0  0  0
 12 15  1  0  0  0  0
 13 21  1  0  0  0  0
 14  7  2  0  0  0  0
 15 13  1  0  0  0  0
 15 11  2  0  0  0  0
 16  4  1  0  0  0  0
 17 24  1  0  0  0  0
 18 16  1  0  0  0  0
 19  6  1  0  0  0  0
 20  2  1  6  0  0  0
 20 17  1  0  0  0  0
 20  9  1  0  0  0  0
 21 22  1  1  0  0  0
 21  8  1  0  0  0  0
 23 24  1  0  0  0  0
 24 25  1  0  0  0  0
 25 26  1  0  0  0  0
M  END
>  <MODEL>
4

>  <REMARK>
 VINA RESULT:      -7.8      2.244      5.570
  Name = 
  2 active torsions:
  status: ('A' for Active; 'I' for Inactive)
    1  A    between atoms: C_18  and  N_22
    2  A    between atoms: C_19  and  N_22
                            x       y       z     vdW  Elec       q    Type
                         _______ _______ _______ _____ _____    ______ ____

>  <TORSDO>
F 2

$$$$
=
 OpenBabel10232410003D

 26 28  0  0  1  0  0  0  0  0999 V2000
  188.0170  177.2890  142.3570 C   0  0  0  0  0  0  0  0  0  0  0  0
  190.1160  178.9060  145.6420 C   0  0  0  0  0  3  0  0  0  0  0  0
  190.4250  176.9980  142.4250 C   0  0  0  0  0  0  0  0  0  0  0  0
  187.0960  178.4470  140.3390 C   0  0  0  0  0  2  0  0  0  0  0  0
  189.3710  177.3860  141.7600 C   0  0  0  0  0  0  0  0  0  0  0  0
  185.6810  177.6670  142.2250 O   0  0  0  0  0  1  0  0  0  0  0  0
  187.7790  177.3250  144.7680 C   0  0  0  0  0  0  0  0  0  0  0  0
  189.9830  176.1090  147.1310 C   0  0  0  0  0  2  0  0  0  0  0  0
  189.4740  177.4550  147.6600 C   0  0  0  0  0  2  0  0  0  0  0  0
  189.5380  177.9810  140.4330 C   0  0  0  0  0  3  0  0  0  0  0  0
  190.8500  178.0100  145.0500 C   0  0  0  0  0  0  0  0  0  0  0  0
  191.4260  176.6040  143.1690 C   0  0  0  0  0  3  0  0  0  0  0  0
  191.9730  175.9180  145.5550 C   0  0  0  0  0  2  0  0  0  0  0  0
  187.8260  176.6280  143.6640 C   0  0  0  0  0  3  0  0  0  0  0  0
  191.5160  176.9820  144.5900 C   0  0  0  0  0  0  0  0  0  0  0  0
  188.4910  178.4650  139.7660 C   0  0  0  0  0  0  0  0  0  0  0  0
  187.7360  178.0380  145.8710 C   0  0  0  0  0  0  0  0  0  0  0  0
  188.6910  179.0150  138.5080 O   0  0  0  0  0  1  0  0  0  0  0  0
  186.9580  177.7730  141.6840 C   0  0  0  0  0  0  0  0  0  0  0  0
  189.0200  178.4430  146.5640 C   0  0  2  0  0  3  0  0  0  0  0  0
  191.5090  176.1210  147.0090 C   0  0  2  0  0  3  0  0  0  0  0  0
  192.0920  175.0280  147.8800 C   0  0  0  0  0  1  0  0  0  0  0  0
  186.3780  179.2370  147.6370 C   0  0  0  0  0  1  0  0  0  0  0  0
  186.4630  178.4620  146.4070 N   0  0  0  0  0  0  0  0  0  0  0  0
  185.2080  178.0220  145.8130 C   0  0  0  0  0  2  0  0  0  0  0  0
  184.5190  179.1830  145.1210 C   0  0  0  0  0  1  0  0  0  0  0  0
  1 14  1  0  0  0  0
  3 12  2  0  0  0  0
  4 19  1  0  0  0  0
  5  1  1  0  0  0  0
  5  3  2  0  0  0  0
  7 17  2  0  0  0  0
  8  9  1  0  0  0  0
 10  5  1  0  0  0  0
 11  2  2  0  0  0  0
 12 15  1  0  0  0  0
 13 21  1  0  0  0  0
 14  7  2  0  0  0  0
 15 11  2  0  0  0  0
 15 13  1  0  0  0  0
 16  4  1  0  0  0  0
 16 10  2  0  0  0  0
 17 24  1  0  0  0  0
 17 20  1  0  0  0  0
 18 16  1  0  0  0  0
 19  6  1  0  0  0  0
 19  1  2  0  0  0  0
 20  2  1  6  0  0  0
 20  9  1  0  0  0  0
 21  8  1  0  0  0  0
 21 22  1  1  0  0  0
 24 23  1  0  0  0  0
 25 24  1  0  0  0  0
 26 25  1  0  0  0  0
M  END
>  <MODEL>
5

>  <REMARK>
 VINA RESULT:      -7.7      2.749      7.206
  Name = 
  2 active torsions:
  status: ('A' for Active; 'I' for Inactive)
    1  A    between atoms: C_18  and  N_22
    2  A    between atoms: C_19  and  N_22
                            x       y       z     vdW  Elec       q    Type
                         _______ _______ _______ _____ _____    ______ ____

>  <TORSDO>
F 2

$$$$
=
 OpenBabel10232410003D

 26 28  0  0  1  0  0  0  0  0999 V2000
  186.3620  177.6050  144.1230 C   0  0  0  0  0  0  0  0  0  0  0  0
  190.0440  179.2140  142.8330 C   0  0  0  0  0  3  0  0  0  0  0  0
  186.5130  178.4160  141.8420 C   0  0  0  0  0  0  0  0  0  0  0  0
  184.5920  178.6430  145.5560 C   0  0  0  0  0  2  0  0  0  0  0  0
  185.8850  178.4280  142.9860 C   0  0  0  0  0  0  0  0  0  0  0  0
  186.1720  176.9130  146.3830 O   0  0  0  0  0  1  0  0  0  0  0  0
  188.7020  176.9920  144.2440 C   0  0  0  0  0  0  0  0  0  0  0  0
  190.8740  176.4010  141.6260 C   0  0  0  0  0  2  0  0  0  0  0  0
  191.6520  177.2200  142.6630 C   0  0  0  0  0  2  0  0  0  0  0  0
  184.7330  179.3130  143.1640 C   0  0  0  0  0  3  0  0  0  0  0  0
  189.3170  178.8990  141.8020 C   0  0  0  0  0  0  0  0  0  0  0  0
  187.2140  178.3590  140.7390 C   0  0  0  0  0  3  0  0  0  0  0  0
  189.4210  177.4790  139.8360 C   0  0  0  0  0  2  0  0  0  0  0  0
  187.4780  176.6550  143.9380 C   0  0  0  0  0  3  0  0  0  0  0  0
  188.6850  178.4100  140.7650 C   0  0  0  0  0  0  0  0  0  0  0  0
  184.1250  179.4120  144.3450 C   0  0  0  0  0  0  0  0  0  0  0  0
  189.9300  177.3440  144.5550 C   0  0  0  0  0  0  0  0  0  0  0  0
  183.0320  180.2580  144.4710 O   0  0  0  0  0  1  0  0  0  0  0  0
  185.7470  177.6980  145.3150 C   0  0  0  0  0  0  0  0  0  0  0  0
  190.7730  178.1160  143.5610 C   0  0  2  0  0  3  0  0  0  0  0  0
  190.8520  177.1230  140.2760 C   0  0  2  0  0  3  0  0  0  0  0  0
  191.4970  176.2440  139.2250 C   0  0  0  0  0  1  0  0  0  0  0  0
  189.7130  177.2890  147.0740 C   0  0  0  0  0  1  0  0  0  0  0  0
  190.4660  177.0210  145.8570 N   0  0  0  0  0  0  0  0  0  0  0  0
  191.8310  176.5380  146.0150 C   0  0  0  0  0  2  0  0  0  0  0  0
  191.9780  175.8020  147.3330 C   0  0  0  0  0  1  0  0  0  0  0  0
  1 19  2  0  0  0  0
  2 20  1  0  0  0  0
  3  5  2  0  0  0  0
  5 10  1  0  0  0  0
  5  1  1  0  0  0  0
  7 17  2  0  0  0  0
  8  9  1  0  0  0  0
 10 16  2  0  0  0  0
 11  2  2  0  0  0  0
 12 15  1  0  0  0  0
 12  3  2  0  0  0  0
 13 21  1  0  0  0  0
 13 15  1  0  0  0  0
 14  1  1  0  0  0  0
 14  7  2  0  0  0  0
 15 11  2  0  0  0  0
 16 18  1  0  0  0  0
 16  4  1  0  0  0  0
 17 24  1  0  0  0  0
 19  4  1  0  0  0  0
 19  6  1  0  0  0  0
 20  9  1  6  0  0  0
 20 17  1  0  0  0  0
 21 22  1  6  0  0  0
 21  8  1  0  0  0  0
 24 25  1  0  0  0  0
 24 23  1  0  0  0  0
 25 26  1  0  0  0  0
M  END
>  <MODEL>
6

>  <REMARK>
 VINA RESULT:      -7.6      2.518      5.985
  Name = 
  2 active torsions:
  status: ('A' for Active; 'I' for Inactive)
    1  A    between atoms: C_18  and  N_22
    2  A    between atoms: C_19  and  N_22
                            x       y       z     vdW  Elec       q    Type
                         _______ _______ _______ _____ _____    ______ ____

>  <TORSDO>
F 2

$$$$
=
 OpenBabel10232410003D

 26 28  0  0  1  0  0  0  0  0999 V2000
  186.4320  177.6190  143.2400 C   0  0  0  0  0  0  0  0  0  0  0  0
  190.1700  178.7230  144.8580 C   0  0  0  0  0  3  0  0  0  0  0  0
  188.4030  177.3270  141.8550 C   0  0  0  0  0  0  0  0  0  0  0  0
  184.6200  179.0680  142.3010 C   0  0  0  0  0  2  0  0  0  0  0  0
  187.1970  177.8090  141.9840 C   0  0  0  0  0  0  0  0  0  0  0  0
  184.4890  178.0050  144.5430 O   0  0  0  0  0  1  0  0  0  0  0  0
  187.6300  177.2850  145.3190 C   0  0  0  0  0  0  0  0  0  0  0  0
  190.6780  175.7300  145.7800 C   0  0  0  0  0  2  0  0  0  0  0  0
  190.6850  176.9790  146.6700 C   0  0  0  0  0  2  0  0  0  0  0  0
  186.6190  178.6000  140.8960 C   0  0  0  0  0  3  0  0  0  0  0  0
  190.3480  177.9300  143.8420 C   0  0  0  0  0  0  0  0  0  0  0  0
  189.6110  176.8280  141.8200 C   0  0  0  0  0  3  0  0  0  0  0  0
  191.3710  175.7880  143.3310 C   0  0  0  0  0  2  0  0  0  0  0  0
  186.9720  176.7650  144.3170 C   0  0  0  0  0  3  0  0  0  0  0  0
  190.5350  176.9860  142.9560 C   0  0  0  0  0  0  0  0  0  0  0  0
  185.4260  179.1770  141.0310 C   0  0  0  0  0  0  0  0  0  0  0  0
  188.2920  177.8220  146.3200 C   0  0  0  0  0  0  0  0  0  0  0  0
  184.9110  179.9130  139.9730 O   0  0  0  0  0  1  0  0  0  0  0  0
  185.2250  178.1960  143.3770 C   0  0  0  0  0  0  0  0  0  0  0  0
  189.7700  178.1200  146.1790 C   0  0  2  0  0  3  0  0  0  0  0  0
  191.8490  175.7660  144.7940 C   0  0  2  0  0  3  0  0  0  0  0  0
  192.7300  174.5550  145.0170 C   0  0  0  0  0  1  0  0  0  0  0  0
  188.2600  178.0430  148.8390 C   0  0  0  0  0  1  0  0  0  0  0  0
  187.6030  178.1560  147.5440 N   0  0  0  0  0  0  0  0  0  0  0  0
  186.1850  178.4920  147.5480 C   0  0  0  0  0  2  0  0  0  0  0  0
  185.9820  179.9130  147.0610 C   0  0  0  0  0  1  0  0  0  0  0  0
  1 19  2  0  0  0  0
  1 14  1  0  0  0  0
  3  5  2  0  0  0  0
  4 19  1  0  0  0  0
  5  1  1  0  0  0  0
  7 17  2  0  0  0  0
  8  9  1  0  0  0  0
 10 16  2  0  0  0  0
 10  5  1  0  0  0  0
 11  2  2  0  0  0  0
 12  3  2  0  0  0  0
 12 15  1  0  0  0  0
 13 21  1  0  0  0  0
 14  7  2  0  0  0  0
 15 13  1  0  0  0  0
 15 11  2  0  0  0  0
 16  4  1  0  0  0  0
 17 24  1  0  0  0  0
 18 16  1  0  0  0  0
 19  6  1  0  0  0  0
 20  2  1  6  0  0  0
 20 17  1  0  0  0  0
 20  9  1  0  0  0  0
 21 22  1  6  0  0  0
 21  8  1  0  0  0  0
 24 25  1  0  0  0  0
 24 23  1  0  0  0  0
 26 25  1  0  0  0  0
M  END
>  <MODEL>
7

>  <REMARK>
 VINA RESULT:      -7.3      2.860      7.106
  Name = 
  2 active torsions:
  status: ('A' for Active; 'I' for Inactive)
    1  A    between atoms: C_18  and  N_22
    2  A    between atoms: C_19  and  N_22
                            x       y       z     vdW  Elec       q    Type
                         _______ _______ _______ _____ _____    ______ ____

>  <TORSDO>
F 2

$$$$
=
 OpenBabel10232410003D

 26 28  0  0  1  0  0  0  0  0999 V2000
  187.6960  178.6150  140.3620 C   0  0  0  0  0  0  0  0  0  0  0  0
  187.2610  176.0970  143.7210 C   0  0  0  0  0  3  0  0  0  0  0  0
  185.5690  178.6300  141.5300 C   0  0  0  0  0  0  0  0  0  0  0  0
  187.6220  178.0380  137.9280 C   0  0  0  0  0  2  0  0  0  0  0  0
  186.2170  178.5120  140.4030 C   0  0  0  0  0  0  0  0  0  0  0  0
  189.7310  178.5230  139.1490 O   0  0  0  0  0  1  0  0  0  0  0  0
  188.9770  178.0690  142.3450 C   0  0  0  0  0  0  0  0  0  0  0  0
  188.0530  178.4910  145.6450 C   0  0  0  0  0  2  0  0  0  0  0  0
  188.7380  177.1220  145.5540 C   0  0  0  0  0  2  0  0  0  0  0  0
  185.4770  178.2130  139.1760 C   0  0  0  0  0  3  0  0  0  0  0  0
  186.3450  177.0200  143.7430 C   0  0  0  0  0  0  0  0  0  0  0  0
  185.0030  178.7410  142.7030 C   0  0  0  0  0  3  0  0  0  0  0  0
  185.5720  178.8180  145.1790 C   0  0  0  0  0  2  0  0  0  0  0  0
  188.4490  178.9860  141.5770 C   0  0  0  0  0  3  0  0  0  0  0  0
  185.5490  178.0490  143.8820 C   0  0  0  0  0  0  0  0  0  0  0  0
  186.1180  178.0020  138.0270 C   0  0  0  0  0  0  0  0  0  0  0  0
  189.5010  177.1370  143.1090 C   0  0  0  0  0  0  0  0  0  0  0  0
  185.3790  177.7270  136.8850 O   0  0  0  0  0  1  0  0  0  0  0  0
  188.3450  178.4070  139.2030 C   0  0  0  0  0  0  0  0  0  0  0  0
  188.6550  176.4560  144.1640 C   0  0  2  0  0  3  0  0  0  0  0  0
  186.6310  178.3470  146.1920 C   0  0  2  0  0  3  0  0  0  0  0  0
  186.4990  179.1510  147.4680 C   0  0  0  0  0  1  0  0  0  0  0  0
  191.6850  177.2890  141.8420 C   0  0  0  0  0  1  0  0  0  0  0  0
  190.8770  176.7400  142.9220 N   0  0  0  0  0  0  0  0  0  0  0  0
  191.4740  175.6790  143.7220 C   0  0  0  0  0  2  0  0  0  0  0  0
  191.9780  176.2350  145.0400 C   0  0  0  0  0  1  0  0  0  0  0  0
  1  5  1  0  0  0  0
  1 14  1  0  0  0  0
  2 11  2  0  0  0  0
  3 12  2  0  0  0  0
  4 16  1  0  0  0  0
  4 19  1  0  0  0  0
  5  3  2  0  0  0  0
  6 19  1  0  0  0  0
  7 17  2  0  0  0  0
  8 21  1  0  0  0  0
  9  8  1  0  0  0  0
 10  5  1  0  0  0  0
 11 15  2  0  0  0  0
 12 15  1  0  0  0  0
 13 21  1  0  0  0  0
 14  7  2  0  0  0  0
 15 13  1  0  0  0  0
 16 10  2  0  0  0  0
 17 20  1  0  0  0  0
 18 16  1  0  0  0  0
 19  1  2  0  0  0  0
 20  2  1  6  0  0  0
 20  9  1  0  0  0  0
 21 22  1  1  0  0  0
 23 24  1  0  0  0  0
 24 17  1  0  0  0  0
 24 25  1  0  0  0  0
 25 26  1  0  0  0  0
M  END
>  <MODEL>
8

>  <REMARK>
 VINA RESULT:      -7.3      2.839      5.978
  Name = 
  2 active torsions:
  status: ('A' for Active; 'I' for Inactive)
    1  A    between atoms: C_18  and  N_22
    2  A    between atoms: C_19  and  N_22
                            x       y       z     vdW  Elec       q    Type
                         _______ _______ _______ _____ _____    ______ ____

>  <TORSDO>
F 2

$$$$
=
 OpenBabel10232410003D

 26 28  0  0  1  0  0  0  0  0999 V2000
  189.6740  178.0490  140.9680 C   0  0  0  0  0  0  0  0  0  0  0  0
  187.5180  176.0010  143.9620 C   0  0  0  0  0  3  0  0  0  0  0  0
  187.2640  178.3180  141.0210 C   0  0  0  0  0  0  0  0  0  0  0  0
  190.6470  177.1730  138.8340 C   0  0  0  0  0  2  0  0  0  0  0  0
  188.3340  178.0270  140.3340 C   0  0  0  0  0  0  0  0  0  0  0  0
  192.0160  177.7020  140.8380 O   0  0  0  0  0  1  0  0  0  0  0  0
  189.8620  177.6950  143.3570 C   0  0  0  0  0  0  0  0  0  0  0  0
  187.5990  178.5760  145.8120 C   0  0  0  0  0  2  0  0  0  0  0  0
  188.1070  177.1740  146.1680 C   0  0  0  0  0  2  0  0  0  0  0  0
  188.2000  177.6120  138.9360 C   0  0  0  0  0  3  0  0  0  0  0  0
  186.7900  176.9640  143.4780 C   0  0  0  0  0  0  0  0  0  0  0  0
  186.2450  178.6050  141.7890 C   0  0  0  0  0  3  0  0  0  0  0  0
  185.6420  178.9650  144.2320 C   0  0  0  0  0  2  0  0  0  0  0  0
  189.8330  178.5320  142.3540 C   0  0  0  0  0  3  0  0  0  0  0  0
  186.1270  178.0410  143.1440 C   0  0  0  0  0  0  0  0  0  0  0  0
  189.2640  177.2260  138.2340 C   0  0  0  0  0  0  0  0  0  0  0  0
  189.8870  176.8410  144.3560 C   0  0  0  0  0  0  0  0  0  0  0  0
  189.0950  176.8460  136.9100 O   0  0  0  0  0  1  0  0  0  0  0  0
  190.7510  177.6630  140.2600 C   0  0  0  0  0  0  0  0  0  0  0  0
  188.5910  176.3420  144.9610 C   0  0  2  0  0  3  0  0  0  0  0  0
  186.0760  178.5740  145.6550 C   0  0  2  0  0  3  0  0  0  0  0  0
  185.4670  179.5390  146.6510 C   0  0  0  0  0  1  0  0  0  0  0  0
  191.9590  175.4140  144.0960 C   0  0  0  0  0  1  0  0  0  0  0  0
  191.1510  176.3550  144.8590 N   0  0  0  0  0  0  0  0  0  0  0  0
  191.6070  176.6820  146.2030 C   0  0  0  0  0  2  0  0  0  0  0  0
  192.3040  175.4870  146.8260 C   0  0  0  0  0  1  0  0  0  0  0  0
  1 14  1  0  0  0  0
  3 12  2  0  0  0  0
  4 19  1  0  0  0  0
  5  1  1  0  0  0  0
  5  3  2  0  0  0  0
  7 17  2  0  0  0  0
  8  9  1  0  0  0  0
 10  5  1  0  0  0  0
 11  2  2  0  0  0  0
 12 15  1  0  0  0  0
 13 21  1  0  0  0  0
 14  7  2  0  0  0  0
 15 11  2  0  0  0  0
 15 13  1  0  0  0  0
 16  4  1  0  0  0  0
 16 10  2  0  0  0  0
 17 24  1  0  0  0  0
 17 20  1  0  0  0  0
 18 16  1  0  0  0  0
 19  6  1  0  0  0  0
 19  1  2  0  0  0  0
 20  2  1  6  0  0  0
 20  9  1  0  0  0  0
 21  8  1  0  0  0  0
 21 22  1  1  0  0  0
 23 24  1  0  0  0  0
 24 25  1  0  0  0  0
 25 26  1  0  0  0  0
M  END
>  <MODEL>
9

>  <REMARK>
 VINA RESULT:      -6.8      2.821      6.072
  Name = 
  2 active torsions:
  status: ('A' for Active; 'I' for Inactive)
    1  A    between atoms: C_18  and  N_22
    2  A    between atoms: C_19  and  N_22
                            x       y       z     vdW  Elec       q    Type
                         _______ _______ _______ _____ _____    ______ ____

>  <TORSDO>
F 2

$$$$
