=
 OpenBabel10232410423D

 64 71  0  0  1  0  0  0  0  0999 V2000
  188.4540  178.1680  140.5330 C   0  0  0  0  0  3  0  0  0  0  0  0
  189.3760  177.2190  140.4950 C   0  0  0  0  0  0  0  0  0  0  0  0
  187.7610  178.4540  139.2510 C   0  0  1  0  0  3  0  0  0  0  0  0
  189.6040  176.5810  139.1690 C   0  0  1  0  0  3  0  0  0  0  0  0
  188.2870  177.1730  138.0590 S   0  0  0  0  0  0  0  0  0  0  0  0
  189.6970  175.8790  142.6630 C   0  0  0  0  0  0  0  0  0  0  0  0
  191.7490  176.5940  143.4300 C   0  0  2  0  0  3  0  0  0  0  0  0
  191.3650  177.2610  142.1420 C   0  0  0  0  0  0  0  0  0  0  0  0
  188.6090  175.2420  142.6340 O   0  0  0  0  0  0  0  0  0  0  0  0
  192.0900  178.0880  141.5210 O   0  0  0  0  0  0  0  0  0  0  0  0
  190.6240  175.7570  143.6890 O   0  0  0  0  0  0  0  0  0  0  0  0
  190.0990  176.8090  141.6690 N   0  0  0  0  0  0  0  0  0  0  0  0
  191.9040  177.6150  144.5470 C   0  0  0  0  0  2  0  0  0  0  0  0
  191.2950  177.0820  145.8340 C   0  0  1  0  0  3  0  0  0  0  0  0
  189.8790  176.8050  145.6410 N   0  0  0  0  0  2  0  0  0  0  0  0
  189.1800  178.4070  147.1890 O   0  0  0  0  0  0  0  0  0  0  0  0
  188.8650  177.4990  146.3710 C   0  0  0  0  0  0  0  0  0  0  0  0
  185.3670  179.0540  143.9970 O   0  0  0  0  0  1  0  0  0  0  0  0
  185.4620  178.3700  146.2530 C   0  0  0  0  0  0  0  0  0  0  0  0
  185.5080  177.9450  144.8380 C   0  0  2  0  0  3  0  0  0  0  0  0
  187.4240  177.1320  146.1650 C   0  0  2  0  0  3  0  0  0  0  0  0
  184.5230  179.0450  146.7480 O   0  0  0  0  0  0  0  0  0  0  0  0
  187.7570  178.0890  143.9360 O   0  0  0  0  0  1  0  0  0  0  0  0
  186.9010  177.3000  144.7150 C   0  0  2  0  0  3  0  0  0  0  0  0
  186.5640  177.9310  147.0190 N   0  0  0  0  0  2  0  0  0  0  0  0
  192.0270  175.8320  146.3410 C   0  0  0  0  0  2  0  0  0  0  0  0
  192.0080  177.1590  148.3330 O   0  0  0  0  0  1  0  0  0  0  0  0
  192.4370  175.9420  147.8070 C   0  0  0  0  0  2  0  0  0  0  0  0
  190.9680  177.0000  138.6360 C   0  0  0  0  0  2  0  0  0  0  0  0
  191.7170  175.8390  138.0750 C   0  0  0  0  0  0  0  0  0  0  0  0
  193.1070  175.7570  138.1940 C   0  0  0  0  0  3  0  0  0  0  0  0
  193.0580  173.6550  137.0210 C   0  0  0  0  0  3  0  0  0  0  0  0
  191.7060  173.7570  136.9090 N   0  0  0  0  0  0  0  0  0  0  0  0
  193.7990  174.6570  137.6680 C   0  0  0  0  0  0  0  0  0  0  0  0
  191.0280  174.8190  137.4200 C   0  0  0  0  0  3  0  0  0  0  0  0
  198.9370  172.9790  135.5860 O   0  0  0  0  0  1  0  0  0  0  0  0
  196.0820  174.4500  136.6420 C   0  0  0  0  0  3  0  0  0  0  0  0
  199.3830  174.1810  137.5770 C   0  0  0  0  0  2  0  0  0  0  0  0
  197.4380  174.3360  136.8700 C   0  0  0  0  0  0  0  0  0  0  0  0
  195.8670  174.5280  139.1170 C   0  0  0  0  0  3  0  0  0  0  0  0
  197.2650  174.4130  139.3240 C   0  0  0  0  0  3  0  0  0  0  0  0
  199.1560  175.2840  135.4920 O   0  0  0  0  0  1  0  0  0  0  0  0
  198.0130  174.3160  138.1670 C   0  0  0  0  0  0  0  0  0  0  0  0
  195.2710  174.5430  137.8090 C   0  0  0  0  0  0  0  0  0  0  0  0
  198.7830  174.1880  136.2650 C   0  0  0  0  0  0  0  0  0  0  0  0
  186.2530  178.3830  139.4720 C   0  0  0  0  0  2  0  0  0  0  0  0
  185.5060  178.1770  138.1620 C   0  0  0  0  0  2  0  0  0  0  0  0
  183.3420  177.2730  137.4220 C   0  0  0  0  0  3  0  0  0  0  0  0
  184.3100  177.2980  138.3400 C   0  0  0  0  0  3  0  0  0  0  0  0
  182.1160  176.4440  137.6220 C   0  0  0  0  0  2  0  0  0  0  0  0
  182.3640  174.9900  137.2570 C   0  0  0  0  0  2  0  0  0  0  0  0
  182.4730  174.8480  135.7450 C   0  0  0  0  0  2  0  0  0  0  0  0
  183.5790  173.8670  135.3330 C   0  0  1  0  0  3  0  0  0  0  0  0
  187.2880  173.8040  136.1930 C   0  0  0  0  0  2  0  0  0  0  0  0
  186.6530  173.0720  137.3620 C   0  0  0  0  0  2  0  0  0  0  0  0
  186.1620  174.2290  135.2670 C   0  0  2  0  0  3  0  0  0  0  0  0
  185.2180  173.5520  137.4300 C   0  0  0  0  0  2  0  0  0  0  0  0
  185.5140  175.3680  135.8050 O   0  0  0  0  0  0  0  0  0  0  0  0
  184.9200  174.1200  136.0580 C   0  0  2  0  0  0  0  0  0  0  0  0
  184.1200  171.4180  134.8650 C   0  0  0  0  0  1  0  0  0  0  0  0
  183.1090  172.4030  135.4450 C   0  0  2  0  0  3  0  0  0  0  0  0
  181.8650  172.2240  134.8300 O   0  0  0  0  0  0  0  0  0  0  0  0
  181.0880  171.5670  135.7900 C   0  0  0  0  0  2  0  0  0  0  0  0
  179.9960  172.3650  136.1290 O   0  0  0  0  0  1  0  0  0  0  0  0
  2  1  2  0  0  0  0
  2 12  1  0  0  0  0
  3 46  1  1  0  0  0
  3  1  1  0  0  0  0
  4 29  1  6  0  0  0
  4  2  1  0  0  0  0
  5  4  1  0  0  0  0
  5  3  1  0  0  0  0
  6 11  1  0  0  0  0
  7 11  1  0  0  0  0
  7 13  1  1  0  0  0
  8  7  1  0  0  0  0
  9  6  2  0  0  0  0
 10  8  2  0  0  0  0
 12  8  1  0  0  0  0
 12  6  1  0  0  0  0
 14 13  1  6  0  0  0
 14 26  1  0  0  0  0
 15 14  1  0  0  0  0
 15 17  1  0  0  0  0
 17 16  2  0  0  0  0
 19 22  2  0  0  0  0
 19 25  1  0  0  0  0
 20 18  1  6  0  0  0
 20 19  1  0  0  0  0
 21 17  1  6  0  0  0
 21 25  1  0  0  0  0
 24 23  1  6  0  0  0
 24 20  1  0  0  0  0
 24 21  1  0  0  0  0
 26 28  1  0  0  0  0
 28 27  1  0  0  0  0
 30 31  1  0  0  0  0
 30 29  1  0  0  0  0
 32 34  1  0  0  0  0
 33 32  2  0  0  0  0
 33 35  1  0  0  0  0
 34 44  1  0  0  0  0
 34 31  2  0  0  0  0
 35 30  2  0  0  0  0
 36 45  1  0  0  0  0
 37 39  2  0  0  0  0
 37 44  1  0  0  0  0
 38 43  1  0  0  0  0
 39 43  1  0  0  0  0
 40 41  1  0  0  0  0
 42 45  1  0  0  0  0
 43 41  2  0  0  0  0
 44 40  2  0  0  0  0
 45 39  1  0  0  0  0
 45 38  1  0  0  0  0
 47 49  1  0  0  0  0
 47 46  1  0  0  0  0
 48 50  1  0  0  0  0
 48 49  2  0  0  0  0
 51 50  1  0  0  0  0
 52 51  1  0  0  0  0
 53 61  1  0  0  0  0
 53 52  1  1  0  0  0
 54 55  1  0  0  0  0
 55 57  1  0  0  0  0
 56 58  1  0  0  0  0
 56 59  1  0  0  0  0
 56 54  1  1  0  0  0
 58 59  1  0  0  0  0
 59 53  1  6  0  0  0
 59 57  1  0  0  0  0
 61 60  1  6  0  0  0
 62 61  1  0  0  0  0
 62 63  1  0  0  0  0
 63 64  1  0  0  0  0
M  END
>  <MODEL>
1

>  <REMARK>
 VINA RESULT:      -7.2      0.000      0.000
  Name = 
  21 active torsions:
  status: ('A' for Active; 'I' for Inactive)
    1  A    between atoms: C_1  and  O_17
    2  A    between atoms: C_7  and  C_15
    3  A    between atoms: C_7  and  C_39
    4  A    between atoms: C_9  and  C_12
    5  A    between atoms: C_9  and  C_28
    6  A    between atoms: O_17  and  C_29
    7  A    between atoms: C_19  and  N_61
    8  A    between atoms: C_25  and  C_44
    9  A    between atoms: N_27  and  C_28
   10  A    between atoms: C_28  and  C_54
   11  A    between atoms: C_29  and  C_63
   12  A    between atoms: C_31  and  C_48
   13  A    between atoms: C_32  and  C_62
   14  A    between atoms: C_35  and  C_48
   15  A    between atoms: C_35  and  C_60
   16  A    between atoms: C_40  and  C_52
   17  A    between atoms: C_41  and  C_56
   18  A    between atoms: C_44  and  C_52
   19  A    between atoms: C_53  and  C_63
   20  A    between atoms: C_54  and  C_57
   21  A    between atoms: C_60  and  C_63
                            x       y       z     vdW  Elec       q    Type
                         _______ _______ _______ _____ _____    ______ ____

>  <TORSDO>
F 21

$$$$
=
 OpenBabel10232410423D

 64 71  0  0  1  0  0  0  0  0999 V2000
  188.1690  176.8140  138.8950 C   0  0  0  0  0  3  0  0  0  0  0  0
  188.9610  176.5730  137.8610 C   0  0  0  0  0  0  0  0  0  0  0  0
  188.8380  177.2990  140.1290 C   0  0  1  0  0  3  0  0  0  0  0  0
  190.4150  176.8040  138.0840 C   0  0  1  0  0  3  0  0  0  0  0  0
  190.5830  177.6300  139.6990 S   0  0  0  0  0  0  0  0  0  0  0  0
  188.2740  176.9040  135.4090 C   0  0  0  0  0  0  0  0  0  0  0  0
  187.4810  174.8290  134.7960 C   0  0  2  0  0  3  0  0  0  0  0  0
  187.9510  174.8540  136.2200 C   0  0  0  0  0  0  0  0  0  0  0  0
  188.5840  178.1210  135.3060 O   0  0  0  0  0  0  0  0  0  0  0  0
  187.9540  173.8530  136.9900 O   0  0  0  0  0  0  0  0  0  0  0  0
  187.7050  176.1730  134.3750 O   0  0  0  0  0  0  0  0  0  0  0  0
  188.4470  176.1380  136.5910 N   0  0  0  0  0  0  0  0  0  0  0  0
  185.9980  174.5010  134.7160 C   0  0  0  0  0  2  0  0  0  0  0  0
  185.6140  173.5310  135.8220 C   0  0  1  0  0  3  0  0  0  0  0  0
  184.5810  174.1140  136.6650 N   0  0  0  0  0  2  0  0  0  0  0  0
  183.2210  174.7280  134.8690 O   0  0  0  0  0  0  0  0  0  0  0  0
  183.4070  174.7180  136.1170 C   0  0  0  0  0  0  0  0  0  0  0  0
  182.7300  178.7520  138.0030 O   0  0  0  0  0  1  0  0  0  0  0  0
  182.6240  176.6060  138.9770 C   0  0  0  0  0  0  0  0  0  0  0  0
  181.9930  177.5640  138.0460 C   0  0  2  0  0  3  0  0  0  0  0  0
  182.4020  175.3480  137.0380 C   0  0  2  0  0  3  0  0  0  0  0  0
  182.8930  176.8720  140.1770 O   0  0  0  0  0  0  0  0  0  0  0  0
  182.9420  177.4010  135.8180 O   0  0  0  0  0  1  0  0  0  0  0  0
  182.0270  176.8140  136.7010 C   0  0  2  0  0  3  0  0  0  0  0  0
  182.8860  175.3410  138.4070 N   0  0  0  0  0  2  0  0  0  0  0  0
  185.1560  172.1770  135.2630 C   0  0  0  0  0  2  0  0  0  0  0  0
  183.2280  170.8110  135.6490 O   0  0  0  0  0  1  0  0  0  0  0  0
  184.3450  171.3650  136.2710 C   0  0  0  0  0  2  0  0  0  0  0  0
  191.1410  175.4640  138.1010 C   0  0  0  0  0  2  0  0  0  0  0  0
  192.2280  175.4180  137.0810 C   0  0  0  0  0  0  0  0  0  0  0  0
  193.4390  174.7780  137.3530 C   0  0  0  0  0  3  0  0  0  0  0  0
  194.2100  175.3530  135.1460 C   0  0  0  0  0  3  0  0  0  0  0  0
  193.0260  175.9770  134.9030 N   0  0  0  0  0  0  0  0  0  0  0  0
  194.4520  174.7350  136.3840 C   0  0  0  0  0  0  0  0  0  0  0  0
  192.0400  176.0200  135.8370 C   0  0  0  0  0  3  0  0  0  0  0  0
  200.0540  173.8820  135.1880 O   0  0  0  0  0  1  0  0  0  0  0  0
  196.9600  174.6700  136.3010 C   0  0  0  0  0  3  0  0  0  0  0  0
  199.5770  172.5880  137.1150 C   0  0  0  0  0  2  0  0  0  0  0  0
  198.1010  173.9430  136.5730 C   0  0  0  0  0  0  0  0  0  0  0  0
  195.7280  172.7330  137.2520 C   0  0  0  0  0  3  0  0  0  0  0  0
  196.9160  172.0080  137.5250 C   0  0  0  0  0  3  0  0  0  0  0  0
  200.1970  174.8700  137.2800 O   0  0  0  0  0  1  0  0  0  0  0  0
  198.0820  172.6530  137.1640 C   0  0  0  0  0  0  0  0  0  0  0  0
  195.7330  174.0370  136.6480 C   0  0  0  0  0  0  0  0  0  0  0  0
  199.5800  173.8950  136.5010 C   0  0  0  0  0  0  0  0  0  0  0  0
  188.1560  178.5820  140.5960 C   0  0  0  0  0  2  0  0  0  0  0  0
  186.6470  178.5090  140.4150 C   0  0  0  0  0  2  0  0  0  0  0  0
  185.1370  178.3010  142.3440 C   0  0  0  0  0  3  0  0  0  0  0  0
  185.9210  179.0750  141.5930 C   0  0  0  0  0  3  0  0  0  0  0  0
  184.3600  178.8720  143.4850 C   0  0  0  0  0  2  0  0  0  0  0  0
  185.2090  178.9640  144.7420 C   0  0  0  0  0  2  0  0  0  0  0  0
  186.0860  177.7250  144.8640 C   0  0  0  0  0  2  0  0  0  0  0  0
  187.5550  178.0800  145.1350 C   0  0  1  0  0  3  0  0  0  0  0  0
  188.8930  178.1800  148.6990 C   0  0  0  0  0  2  0  0  0  0  0  0
  189.9880  177.4480  147.9420 C   0  0  0  0  0  2  0  0  0  0  0  0
  187.7940  178.4960  147.7000 C   0  0  2  0  0  3  0  0  0  0  0  0
  189.3240  176.8430  146.7230 C   0  0  0  0  0  2  0  0  0  0  0  0
  187.0310  177.3270  147.4540 O   0  0  0  0  0  0  0  0  0  0  0  0
  188.0440  177.6310  146.5300 C   0  0  2  0  0  0  0  0  0  0  0  0
  188.0880  176.2140  143.4800 C   0  0  0  0  0  1  0  0  0  0  0  0
  188.4740  177.5970  143.9960 C   0  0  2  0  0  3  0  0  0  0  0  0
  189.8150  177.5980  144.3950 O   0  0  0  0  0  0  0  0  0  0  0  0
  190.4050  178.6230  143.6460 C   0  0  0  0  0  2  0  0  0  0  0  0
  191.6860  178.2350  143.2570 O   0  0  0  0  0  1  0  0  0  0  0  0
  1  3  1  0  0  0  0
  2  4  1  0  0  0  0
  2  1  2  0  0  0  0
  3 46  1  6  0  0  0
  4 29  1  1  0  0  0
  4  5  1  0  0  0  0
  5  3  1  0  0  0  0
  6 12  1  0  0  0  0
  7 13  1  1  0  0  0
  7  8  1  0  0  0  0
  8 12  1  0  0  0  0
  8 10  2  0  0  0  0
  9  6  2  0  0  0  0
 11  7  1  0  0  0  0
 11  6  1  0  0  0  0
 12  2  1  0  0  0  0
 14 13  1  6  0  0  0
 14 15  1  0  0  0  0
 16 17  2  0  0  0  0
 17 15  1  0  0  0  0
 19 22  2  0  0  0  0
 20 18  1  6  0  0  0
 20 19  1  0  0  0  0
 21 17  1  6  0  0  0
 21 25  1  0  0  0  0
 24 23  1  6  0  0  0
 24 21  1  0  0  0  0
 24 20  1  0  0  0  0
 25 19  1  0  0  0  0
 26 14  1  0  0  0  0
 26 28  1  0  0  0  0
 27 28  1  0  0  0  0
 30 31  1  0  0  0  0
 30 29  1  0  0  0  0
 32 34  1  0  0  0  0
 33 32  2  0  0  0  0
 33 35  1  0  0  0  0
 34 44  1  0  0  0  0
 34 31  2  0  0  0  0
 35 30  2  0  0  0  0
 36 45  1  0  0  0  0
 37 39  2  0  0  0  0
 37 44  1  0  0  0  0
 38 43  1  0  0  0  0
 39 43  1  0  0  0  0
 40 41  1  0  0  0  0
 43 41  2  0  0  0  0
 44 40  2  0  0  0  0
 45 39  1  0  0  0  0
 45 38  1  0  0  0  0
 45 42  1  0  0  0  0
 47 46  1  0  0  0  0
 47 49  1  0  0  0  0
 48 50  1  0  0  0  0
 49 48  2  0  0  0  0
 50 51  1  0  0  0  0
 51 52  1  0  0  0  0
 53 52  1  6  0  0  0
 55 54  1  0  0  0  0
 56 54  1  1  0  0  0
 57 55  1  0  0  0  0
 58 56  1  0  0  0  0
 59 53  1  6  0  0  0
 59 57  1  0  0  0  0
 59 58  1  0  0  0  0
 59 56  1  0  0  0  0
 61 60  1  1  0  0  0
 61 62  1  0  0  0  0
 61 53  1  0  0  0  0
 63 62  1  0  0  0  0
 64 63  1  0  0  0  0
M  END
>  <MODEL>
2

>  <REMARK>
 VINA RESULT:      -7.2      2.658      8.577
  Name = 
  21 active torsions:
  status: ('A' for Active; 'I' for Inactive)
    1  A    between atoms: C_1  and  O_17
    2  A    between atoms: C_7  and  C_15
    3  A    between atoms: C_7  and  C_39
    4  A    between atoms: C_9  and  C_12
    5  A    between atoms: C_9  and  C_28
    6  A    between atoms: O_17  and  C_29
    7  A    between atoms: C_19  and  N_61
    8  A    between atoms: C_25  and  C_44
    9  A    between atoms: N_27  and  C_28
   10  A    between atoms: C_28  and  C_54
   11  A    between atoms: C_29  and  C_63
   12  A    between atoms: C_31  and  C_48
   13  A    between atoms: C_32  and  C_62
   14  A    between atoms: C_35  and  C_48
   15  A    between atoms: C_35  and  C_60
   16  A    between atoms: C_40  and  C_52
   17  A    between atoms: C_41  and  C_56
   18  A    between atoms: C_44  and  C_52
   19  A    between atoms: C_53  and  C_63
   20  A    between atoms: C_54  and  C_57
   21  A    between atoms: C_60  and  C_63
                            x       y       z     vdW  Elec       q    Type
                         _______ _______ _______ _____ _____    ______ ____

>  <TORSDO>
F 21

$$$$
=
 OpenBabel10232410423D

 64 71  0  0  1  0  0  0  0  0999 V2000
  188.4930  176.4820  138.6170 C   0  0  0  0  0  3  0  0  0  0  0  0
  189.1230  176.0450  137.5380 C   0  0  0  0  0  0  0  0  0  0  0  0
  189.3470  177.0980  139.6650 C   0  0  1  0  0  3  0  0  0  0  0  0
  190.6010  176.2170  137.5290 C   0  0  1  0  0  3  0  0  0  0  0  0
  191.0270  177.2560  138.9640 S   0  0  0  0  0  0  0  0  0  0  0  0
  188.0820  176.0720  135.1900 C   0  0  0  0  0  0  0  0  0  0  0  0
  187.1790  173.9610  134.9860 C   0  0  2  0  0  3  0  0  0  0  0  0
  187.8570  174.1590  136.3100 C   0  0  0  0  0  0  0  0  0  0  0  0
  188.3890  177.2540  134.8780 O   0  0  0  0  0  0  0  0  0  0  0  0
  187.9610  173.2690  137.2000 O   0  0  0  0  0  0  0  0  0  0  0  0
  187.3560  175.2300  134.3590 O   0  0  0  0  0  0  0  0  0  0  0  0
  188.4190  175.4640  136.4270 N   0  0  0  0  0  0  0  0  0  0  0  0
  185.6960  173.6750  135.1700 C   0  0  0  0  0  2  0  0  0  0  0  0
  185.4100  173.2860  136.6110 C   0  0  1  0  0  3  0  0  0  0  0  0
  184.4700  174.2220  137.2070 N   0  0  0  0  0  2  0  0  0  0  0  0
  183.6040  174.9240  135.1550 O   0  0  0  0  0  0  0  0  0  0  0  0
  183.5990  175.0300  136.4130 C   0  0  0  0  0  0  0  0  0  0  0  0
  184.0220  178.8040  138.8350 O   0  0  0  0  0  1  0  0  0  0  0  0
  182.6580  176.9190  139.2240 C   0  0  0  0  0  0  0  0  0  0  0  0
  182.8980  178.1070  138.3780 C   0  0  2  0  0  3  0  0  0  0  0  0
  182.6870  176.0140  137.0850 C   0  0  2  0  0  3  0  0  0  0  0  0
  182.5330  176.9670  140.4750 O   0  0  0  0  0  0  0  0  0  0  0  0
  184.4620  177.6240  136.5850 O   0  0  0  0  0  1  0  0  0  0  0  0
  183.1240  177.4980  136.9820 C   0  0  2  0  0  3  0  0  0  0  0  0
  182.5580  175.7110  138.4990 N   0  0  0  0  0  2  0  0  0  0  0  0
  184.8870  171.8470  136.7230 C   0  0  0  0  0  2  0  0  0  0  0  0
  182.5390  171.5060  137.0370 O   0  0  0  0  0  1  0  0  0  0  0  0
  183.5230  171.6610  136.0630 C   0  0  0  0  0  2  0  0  0  0  0  0
  191.2670  174.8520  137.6530 C   0  0  0  0  0  2  0  0  0  0  0  0
  192.6980  174.8990  137.2320 C   0  0  0  0  0  0  0  0  0  0  0  0
  193.5300  173.7890  137.3950 C   0  0  0  0  0  3  0  0  0  0  0  0
  195.3440  175.0400  136.4260 C   0  0  0  0  0  3  0  0  0  0  0  0
  194.5190  176.1120  136.2820 N   0  0  0  0  0  0  0  0  0  0  0  0
  194.8710  173.8440  136.9900 C   0  0  0  0  0  0  0  0  0  0  0  0
  193.2170  176.0640  136.6700 C   0  0  0  0  0  3  0  0  0  0  0  0
  199.6500  170.9380  135.4850 O   0  0  0  0  0  1  0  0  0  0  0  0
  197.1390  172.7840  136.7960 C   0  0  0  0  0  3  0  0  0  0  0  0
  198.6890  169.7520  137.2970 C   0  0  0  0  0  2  0  0  0  0  0  0
  197.8870  171.6350  136.9500 C   0  0  0  0  0  0  0  0  0  0  0  0
  195.2280  171.4190  137.6090 C   0  0  0  0  0  3  0  0  0  0  0  0
  196.0200  170.2530  137.7610 C   0  0  0  0  0  3  0  0  0  0  0  0
  200.1790  171.5610  137.6540 O   0  0  0  0  0  1  0  0  0  0  0  0
  197.3480  170.4080  137.4150 C   0  0  0  0  0  0  0  0  0  0  0  0
  195.7610  172.6660  137.1330 C   0  0  0  0  0  0  0  0  0  0  0  0
  199.2210  171.0030  136.8110 C   0  0  0  0  0  0  0  0  0  0  0  0
  188.7900  178.4740  140.0170 C   0  0  0  0  0  2  0  0  0  0  0  0
  187.2730  178.4500  140.1310 C   0  0  0  0  0  2  0  0  0  0  0  0
  185.5330  178.4430  141.8680 C   0  0  0  0  0  3  0  0  0  0  0  0
  186.8230  178.5700  141.5510 C   0  0  0  0  0  3  0  0  0  0  0  0
  185.0680  178.6230  143.2770 C   0  0  0  0  0  2  0  0  0  0  0  0
  186.2090  178.4450  144.2640 C   0  0  0  0  0  2  0  0  0  0  0  0
  186.8270  177.0630  144.0940 C   0  0  0  0  0  2  0  0  0  0  0  0
  188.1550  176.9260  144.8520 C   0  0  1  0  0  3  0  0  0  0  0  0
  191.7550  177.0840  143.6210 C   0  0  0  0  0  2  0  0  0  0  0  0
  191.3950  178.5470  143.8170 C   0  0  0  0  0  2  0  0  0  0  0  0
  190.5240  176.2700  143.9770 C   0  0  2  0  0  3  0  0  0  0  0  0
  189.8870  178.6260  143.7140 C   0  0  0  0  0  2  0  0  0  0  0  0
  189.5960  176.3260  142.9070 O   0  0  0  0  0  0  0  0  0  0  0  0
  189.3920  177.2180  143.9730 C   0  0  2  0  0  0  0  0  0  0  0  0
  189.4060  177.5190  146.9940 C   0  0  0  0  0  1  0  0  0  0  0  0
  188.1480  177.7410  146.1600 C   0  0  2  0  0  3  0  0  0  0  0  0
  187.0130  177.4560  146.9260 O   0  0  0  0  0  0  0  0  0  0  0  0
  186.5130  178.7090  147.2970 C   0  0  0  0  0  2  0  0  0  0  0  0
  185.1190  178.6780  147.2710 O   0  0  0  0  0  1  0  0  0  0  0  0
  1  3  1  0  0  0  0
  2  1  2  0  0  0  0
  3 46  1  6  0  0  0
  4  2  1  0  0  0  0
  4 29  1  1  0  0  0
  4  5  1  0  0  0  0
  5  3  1  0  0  0  0
  6 12  1  0  0  0  0
  7 13  1  1  0  0  0
  7  8  1  0  0  0  0
  8 12  1  0  0  0  0
  8 10  2  0  0  0  0
  9  6  2  0  0  0  0
 11  7  1  0  0  0  0
 11  6  1  0  0  0  0
 12  2  1  0  0  0  0
 14 13  1  6  0  0  0
 14 26  1  0  0  0  0
 14 15  1  0  0  0  0
 16 17  2  0  0  0  0
 17 15  1  0  0  0  0
 19 22  2  0  0  0  0
 20 18  1  1  0  0  0
 20 19  1  0  0  0  0
 21 17  1  1  0  0  0
 21 25  1  0  0  0  0
 24 23  1  1  0  0  0
 24 21  1  0  0  0  0
 24 20  1  0  0  0  0
 25 19  1  0  0  0  0
 28 26  1  0  0  0  0
 28 27  1  0  0  0  0
 30 31  1  0  0  0  0
 30 29  1  0  0  0  0
 32 34  1  0  0  0  0
 33 32  2  0  0  0  0
 33 35  1  0  0  0  0
 34 44  1  0  0  0  0
 34 31  2  0  0  0  0
 35 30  2  0  0  0  0
 36 45  1  0  0  0  0
 37 39  2  0  0  0  0
 37 44  1  0  0  0  0
 38 43  1  0  0  0  0
 39 43  1  0  0  0  0
 40 41  1  0  0  0  0
 43 41  2  0  0  0  0
 44 40  2  0  0  0  0
 45 39  1  0  0  0  0
 45 38  1  0  0  0  0
 45 42  1  0  0  0  0
 46 47  1  0  0  0  0
 47 49  1  0  0  0  0
 48 50  1  0  0  0  0
 49 48  2  0  0  0  0
 50 51  1  0  0  0  0
 52 51  1  0  0  0  0
 53 52  1  6  0  0  0
 53 61  1  0  0  0  0
 54 55  1  0  0  0  0
 56 54  1  6  0  0  0
 57 55  1  0  0  0  0
 57 59  1  0  0  0  0
 58 59  1  0  0  0  0
 58 56  1  0  0  0  0
 59 56  1  0  0  0  0
 59 53  1  1  0  0  0
 61 62  1  0  0  0  0
 61 60  1  1  0  0  0
 62 63  1  0  0  0  0
 64 63  1  0  0  0  0
M  END
>  <MODEL>
3

>  <REMARK>
 VINA RESULT:      -6.6      2.684      8.329
  Name = 
  21 active torsions:
  status: ('A' for Active; 'I' for Inactive)
    1  A    between atoms: C_1  and  O_17
    2  A    between atoms: C_7  and  C_15
    3  A    between atoms: C_7  and  C_39
    4  A    between atoms: C_9  and  C_12
    5  A    between atoms: C_9  and  C_28
    6  A    between atoms: O_17  and  C_29
    7  A    between atoms: C_19  and  N_61
    8  A    between atoms: C_25  and  C_44
    9  A    between atoms: N_27  and  C_28
   10  A    between atoms: C_28  and  C_54
   11  A    between atoms: C_29  and  C_63
   12  A    between atoms: C_31  and  C_48
   13  A    between atoms: C_32  and  C_62
   14  A    between atoms: C_35  and  C_48
   15  A    between atoms: C_35  and  C_60
   16  A    between atoms: C_40  and  C_52
   17  A    between atoms: C_41  and  C_56
   18  A    between atoms: C_44  and  C_52
   19  A    between atoms: C_53  and  C_63
   20  A    between atoms: C_54  and  C_57
   21  A    between atoms: C_60  and  C_63
                            x       y       z     vdW  Elec       q    Type
                         _______ _______ _______ _____ _____    ______ ____

>  <TORSDO>
F 21

$$$$
=
 OpenBabel10232410423D

 64 71  0  0  1  0  0  0  0  0999 V2000
  187.2990  177.3440  139.1480 C   0  0  0  0  0  3  0  0  0  0  0  0
  187.9590  177.0740  138.0320 C   0  0  0  0  0  0  0  0  0  0  0  0
  188.1270  177.7520  140.3110 C   0  0  1  0  0  3  0  0  0  0  0  0
  189.4410  177.2010  138.1010 C   0  0  1  0  0  3  0  0  0  0  0  0
  189.8360  177.9740  139.7030 S   0  0  0  0  0  0  0  0  0  0  0  0
  187.2000  177.4410  135.6060 C   0  0  0  0  0  0  0  0  0  0  0  0
  185.9520  175.5580  135.1490 C   0  0  2  0  0  3  0  0  0  0  0  0
  186.5080  175.5430  136.5430 C   0  0  0  0  0  0  0  0  0  0  0  0
  187.7510  178.5600  135.4200 O   0  0  0  0  0  0  0  0  0  0  0  0
  186.3500  174.5970  137.3640 O   0  0  0  0  0  0  0  0  0  0  0  0
  186.4260  176.8060  134.6450 O   0  0  0  0  0  0  0  0  0  0  0  0
  187.2850  176.7060  136.8160 N   0  0  0  0  0  0  0  0  0  0  0  0
  184.4310  175.5500  135.1680 C   0  0  0  0  0  2  0  0  0  0  0  0
  183.9230  174.4650  136.1040 C   0  0  1  0  0  3  0  0  0  0  0  0
  183.1930  175.0610  137.2130 N   0  0  0  0  0  2  0  0  0  0  0  0
  181.6840  176.1920  135.8360 O   0  0  0  0  0  0  0  0  0  0  0  0
  182.0830  175.9370  137.0060 C   0  0  0  0  0  0  0  0  0  0  0  0
  182.1150  179.9150  139.1180 O   0  0  0  0  0  1  0  0  0  0  0  0
  182.2090  177.7380  140.0210 C   0  0  0  0  0  0  0  0  0  0  0  0
  181.3760  178.7470  139.3340 C   0  0  2  0  0  3  0  0  0  0  0  0
  181.4030  176.5600  138.1900 C   0  0  2  0  0  3  0  0  0  0  0  0
  182.8140  177.9530  141.1030 O   0  0  0  0  0  0  0  0  0  0  0  0
  181.6520  178.6410  136.9250 O   0  0  0  0  0  1  0  0  0  0  0  0
  181.0020  178.0470  138.0140 C   0  0  2  0  0  3  0  0  0  0  0  0
  182.2520  176.4890  139.3650 N   0  0  0  0  0  2  0  0  0  0  0  0
  183.0510  173.4380  135.3700 C   0  0  0  0  0  2  0  0  0  0  0  0
  184.6280  171.8650  134.4920 O   0  0  0  0  0  1  0  0  0  0  0  0
  183.6190  172.0230  135.4410 C   0  0  0  0  0  2  0  0  0  0  0  0
  190.0690  175.8160  138.0180 C   0  0  0  0  0  2  0  0  0  0  0  0
  190.8260  175.6330  136.7460 C   0  0  0  0  0  0  0  0  0  0  0  0
  192.2230  175.6710  136.7310 C   0  0  0  0  0  3  0  0  0  0  0  0
  192.1830  175.2810  134.3560 C   0  0  0  0  0  3  0  0  0  0  0  0
  190.8240  175.2540  134.3900 N   0  0  0  0  0  0  0  0  0  0  0  0
  192.9240  175.4920  135.5300 C   0  0  0  0  0  0  0  0  0  0  0  0
  190.1380  175.4240  135.5520 C   0  0  0  0  0  3  0  0  0  0  0  0
  198.0090  175.1910  138.2860 O   0  0  0  0  0  1  0  0  0  0  0  0
  195.1320  174.8560  136.5420 C   0  0  0  0  0  3  0  0  0  0  0  0
  198.5050  175.2300  135.9700 C   0  0  0  0  0  2  0  0  0  0  0  0
  196.5060  174.9270  136.4400 C   0  0  0  0  0  0  0  0  0  0  0  0
  195.0980  176.1650  134.4300 C   0  0  0  0  0  3  0  0  0  0  0  0
  196.5120  176.2210  134.3460 C   0  0  0  0  0  3  0  0  0  0  0  0
  198.0340  173.2000  137.0990 O   0  0  0  0  0  1  0  0  0  0  0  0
  197.1770  175.5890  135.3780 C   0  0  0  0  0  0  0  0  0  0  0  0
  194.4060  175.5040  135.5020 C   0  0  0  0  0  0  0  0  0  0  0  0
  197.8100  174.5730  137.0500 C   0  0  0  0  0  0  0  0  0  0  0  0
  187.5900  179.0660  140.8700 C   0  0  0  0  0  2  0  0  0  0  0  0
  186.3180  178.8510  141.6780 C   0  0  0  0  0  2  0  0  0  0  0  0
  185.7620  178.5990  144.0590 C   0  0  0  0  0  3  0  0  0  0  0  0
  186.6160  178.3680  143.0600 C   0  0  0  0  0  3  0  0  0  0  0  0
  186.0820  178.1740  145.4560 C   0  0  0  0  0  2  0  0  0  0  0  0
  186.9750  176.9440  145.4700 C   0  0  0  0  0  2  0  0  0  0  0  0
  187.9080  176.9980  146.6720 C   0  0  0  0  0  2  0  0  0  0  0  0
  189.3510  176.6270  146.3020 C   0  0  1  0  0  3  0  0  0  0  0  0
  191.4260  177.3240  143.1870 C   0  0  0  0  0  2  0  0  0  0  0  0
  191.2640  178.7020  143.8060 C   0  0  0  0  0  2  0  0  0  0  0  0
  190.6760  176.3450  144.0720 C   0  0  2  0  0  3  0  0  0  0  0  0
  190.0130  178.6360  144.6570 C   0  0  0  0  0  2  0  0  0  0  0  0
  189.2860  176.4470  143.8160 O   0  0  0  0  0  0  0  0  0  0  0  0
  189.7820  177.1620  144.9190 C   0  0  2  0  0  0  0  0  0  0  0  0
  189.9600  178.3100  148.1200 C   0  0  0  0  0  1  0  0  0  0  0  0
  190.3390  177.0070  147.4230 C   0  0  2  0  0  3  0  0  0  0  0  0
  191.6470  177.0910  146.9350 O   0  0  0  0  0  0  0  0  0  0  0  0
  192.1770  175.8090  147.1230 C   0  0  0  0  0  2  0  0  0  0  0  0
  192.7870  175.7380  148.3750 O   0  0  0  0  0  1  0  0  0  0  0  0
  1  3  1  0  0  0  0
  2  4  1  0  0  0  0
  2  1  2  0  0  0  0
  3 46  1  6  0  0  0
  4 29  1  1  0  0  0
  4  5  1  0  0  0  0
  5  3  1  0  0  0  0
  6 12  1  0  0  0  0
  7 13  1  1  0  0  0
  7  8  1  0  0  0  0
  8 12  1  0  0  0  0
  8 10  2  0  0  0  0
  9  6  2  0  0  0  0
 11  7  1  0  0  0  0
 11  6  1  0  0  0  0
 12  2  1  0  0  0  0
 14 13  1  6  0  0  0
 14 15  1  0  0  0  0
 16 17  2  0  0  0  0
 17 15  1  0  0  0  0
 19 22  2  0  0  0  0
 20 18  1  6  0  0  0
 20 19  1  0  0  0  0
 21 17  1  6  0  0  0
 21 25  1  0  0  0  0
 24 23  1  6  0  0  0
 24 21  1  0  0  0  0
 24 20  1  0  0  0  0
 25 19  1  0  0  0  0
 26 28  1  0  0  0  0
 26 14  1  0  0  0  0
 27 28  1  0  0  0  0
 30 29  1  0  0  0  0
 31 30  1  0  0  0  0
 32 33  2  0  0  0  0
 32 34  1  0  0  0  0
 33 35  1  0  0  0  0
 34 31  2  0  0  0  0
 35 30  2  0  0  0  0
 38 45  1  0  0  0  0
 39 37  1  0  0  0  0
 39 45  1  0  0  0  0
 40 44  1  0  0  0  0
 41 40  2  0  0  0  0
 41 43  1  0  0  0  0
 43 38  1  0  0  0  0
 43 39  2  0  0  0  0
 44 34  1  0  0  0  0
 44 37  2  0  0  0  0
 45 42  1  0  0  0  0
 45 36  1  0  0  0  0
 46 47  1  0  0  0  0
 47 49  1  0  0  0  0
 48 50  1  0  0  0  0
 49 48  2  0  0  0  0
 50 51  1  0  0  0  0
 51 52  1  0  0  0  0
 53 52  1  1  0  0  0
 53 61  1  0  0  0  0
 54 55  1  0  0  0  0
 55 57  1  0  0  0  0
 56 54  1  6  0  0  0
 56 59  1  0  0  0  0
 57 59  1  0  0  0  0
 58 56  1  0  0  0  0
 58 59  1  0  0  0  0
 59 53  1  1  0  0  0
 61 60  1  6  0  0  0
 62 63  1  0  0  0  0
 62 61  1  0  0  0  0
 63 64  1  0  0  0  0
M  END
>  <MODEL>
4

>  <REMARK>
 VINA RESULT:      -6.5      2.696      8.942
  Name = 
  21 active torsions:
  status: ('A' for Active; 'I' for Inactive)
    1  A    between atoms: C_1  and  O_17
    2  A    between atoms: C_7  and  C_15
    3  A    between atoms: C_7  and  C_39
    4  A    between atoms: C_9  and  C_12
    5  A    between atoms: C_9  and  C_28
    6  A    between atoms: O_17  and  C_29
    7  A    between atoms: C_19  and  N_61
    8  A    between atoms: C_25  and  C_44
    9  A    between atoms: N_27  and  C_28
   10  A    between atoms: C_28  and  C_54
   11  A    between atoms: C_29  and  C_63
   12  A    between atoms: C_31  and  C_48
   13  A    between atoms: C_32  and  C_62
   14  A    between atoms: C_35  and  C_48
   15  A    between atoms: C_35  and  C_60
   16  A    between atoms: C_40  and  C_52
   17  A    between atoms: C_41  and  C_56
   18  A    between atoms: C_44  and  C_52
   19  A    between atoms: C_53  and  C_63
   20  A    between atoms: C_54  and  C_57
   21  A    between atoms: C_60  and  C_63
                            x       y       z     vdW  Elec       q    Type
                         _______ _______ _______ _____ _____    ______ ____

>  <TORSDO>
F 21

$$$$
=
 OpenBabel10232410423D

 64 71  0  0  1  0  0  0  0  0999 V2000
  190.8490  175.2610  138.1580 C   0  0  0  0  0  3  0  0  0  0  0  0
  190.6810  176.5140  138.5500 C   0  0  0  0  0  0  0  0  0  0  0  0
  190.4170  174.9490  136.7710 C   0  0  1  0  0  3  0  0  0  0  0  0
  190.0680  177.4340  137.5540 C   0  0  1  0  0  3  0  0  0  0  0  0
  189.9960  176.5370  135.9710 S   0  0  0  0  0  0  0  0  0  0  0  0
  192.3980  177.3070  140.2880 C   0  0  0  0  0  0  0  0  0  0  0  0
  191.1280  177.6110  142.1880 C   0  0  2  0  0  3  0  0  0  0  0  0
  190.3010  177.1460  141.0250 C   0  0  0  0  0  0  0  0  0  0  0  0
  193.4190  177.2760  139.5500 O   0  0  0  0  0  0  0  0  0  0  0  0
  189.0510  176.9760  141.0600 O   0  0  0  0  0  0  0  0  0  0  0  0
  192.4390  177.6620  141.6300 O   0  0  0  0  0  0  0  0  0  0  0  0
  191.0910  176.9670  139.8520 N   0  0  0  0  0  0  0  0  0  0  0  0
  191.0870  176.6020  143.3250 C   0  0  0  0  0  2  0  0  0  0  0  0
  191.1670  177.3160  144.6650 C   0  0  1  0  0  3  0  0  0  0  0  0
  189.9960  178.1570  144.8560 N   0  0  0  0  0  2  0  0  0  0  0  0
  188.4830  176.4840  144.2510 O   0  0  0  0  0  0  0  0  0  0  0  0
  188.6710  177.6790  144.6120 C   0  0  0  0  0  0  0  0  0  0  0  0
  184.6920  177.6490  146.7230 O   0  0  0  0  0  1  0  0  0  0  0  0
  185.2170  178.3220  144.5240 C   0  0  0  0  0  0  0  0  0  0  0  0
  185.3410  178.6290  145.9640 C   0  0  2  0  0  3  0  0  0  0  0  0
  187.5060  178.6110  144.7790 C   0  0  2  0  0  3  0  0  0  0  0  0
  184.1170  178.1270  143.9440 O   0  0  0  0  0  0  0  0  0  0  0  0
  187.2560  177.5120  146.9520 O   0  0  0  0  0  1  0  0  0  0  0  0
  186.8640  178.6200  146.1900 C   0  0  2  0  0  3  0  0  0  0  0  0
  186.4500  178.2860  143.8380 N   0  0  0  0  0  2  0  0  0  0  0  0
  191.3230  176.3300  145.8310 C   0  0  0  0  0  2  0  0  0  0  0  0
  192.0490  176.7310  148.0760 O   0  0  0  0  0  1  0  0  0  0  0  0
  191.0040  176.9610  147.1840 C   0  0  0  0  0  2  0  0  0  0  0  0
  188.6620  177.8060  138.0120 C   0  0  0  0  0  2  0  0  0  0  0  0
  187.6330  177.3850  137.0170 C   0  0  0  0  0  0  0  0  0  0  0  0
  186.8450  176.2530  137.2370 C   0  0  0  0  0  3  0  0  0  0  0  0
  185.7310  176.6540  135.1400 C   0  0  0  0  0  3  0  0  0  0  0  0
  186.5140  177.7490  134.9420 N   0  0  0  0  0  0  0  0  0  0  0  0
  185.8760  175.8710  136.2970 C   0  0  0  0  0  0  0  0  0  0  0  0
  187.4520  178.1260  135.8500 C   0  0  0  0  0  3  0  0  0  0  0  0
  180.7970  173.5780  137.8740 O   0  0  0  0  0  1  0  0  0  0  0  0
  183.5990  174.8250  136.4510 C   0  0  0  0  0  3  0  0  0  0  0  0
  182.1290  171.7800  137.0960 C   0  0  0  0  0  2  0  0  0  0  0  0
  182.8770  173.6740  136.6900 C   0  0  0  0  0  0  0  0  0  0  0  0
  185.6100  173.4130  136.8240 C   0  0  0  0  0  3  0  0  0  0  0  0
  184.8450  172.2440  137.0630 C   0  0  0  0  0  3  0  0  0  0  0  0
  180.8190  173.0820  135.6100 O   0  0  0  0  0  1  0  0  0  0  0  0
  183.4780  172.4230  136.9880 C   0  0  0  0  0  0  0  0  0  0  0  0
  185.0140  174.6870  136.5280 C   0  0  0  0  0  0  0  0  0  0  0  0
  181.5320  173.0620  136.8060 C   0  0  0  0  0  0  0  0  0  0  0  0
  191.5670  174.2730  136.0300 C   0  0  0  0  0  2  0  0  0  0  0  0
  191.0560  173.2870  134.9890 C   0  0  0  0  0  2  0  0  0  0  0  0
  192.8840  171.8540  135.7950 C   0  0  0  0  0  3  0  0  0  0  0  0
  191.9430  172.0900  134.8780 C   0  0  0  0  0  3  0  0  0  0  0  0
  193.8150  170.6930  135.6580 C   0  0  0  0  0  2  0  0  0  0  0  0
  194.8140  170.9140  134.5350 C   0  0  0  0  0  2  0  0  0  0  0  0
  195.5970  172.1970  134.7860 C   0  0  0  0  0  2  0  0  0  0  0  0
  196.3880  172.1440  136.1010 C   0  0  1  0  0  3  0  0  0  0  0  0
  199.9580  171.0300  136.8170 C   0  0  0  0  0  2  0  0  0  0  0  0
  200.1080  171.8810  135.5680 C   0  0  0  0  0  2  0  0  0  0  0  0
  198.4800  171.0060  137.1660 C   0  0  2  0  0  3  0  0  0  0  0  0
  198.7580  171.8650  134.8830 C   0  0  0  0  0  2  0  0  0  0  0  0
  197.8070  170.1040  136.3050 O   0  0  0  0  0  0  0  0  0  0  0  0
  197.7670  171.4640  135.9560 C   0  0  2  0  0  0  0  0  0  0  0  0
  195.4360  174.5070  136.2200 C   0  0  0  0  0  1  0  0  0  0  0  0
  196.4730  173.5310  136.7670 C   0  0  2  0  0  3  0  0  0  0  0  0
  197.7550  174.0760  136.6350 O   0  0  0  0  0  0  0  0  0  0  0  0
  198.0360  174.6250  137.8920 C   0  0  0  0  0  2  0  0  0  0  0  0
  199.4150  174.7730  138.0350 O   0  0  0  0  0  1  0  0  0  0  0  0
  1  2  2  0  0  0  0
  2 12  1  0  0  0  0
  3 46  1  6  0  0  0
  3  1  1  0  0  0  0
  4 29  1  1  0  0  0
  4  2  1  0  0  0  0
  5  3  1  0  0  0  0
  5  4  1  0  0  0  0
  6 11  1  0  0  0  0
  7 13  1  1  0  0  0
  8 10  2  0  0  0  0
  8  7  1  0  0  0  0
  9  6  2  0  0  0  0
 11  7  1  0  0  0  0
 12  6  1  0  0  0  0
 12  8  1  0  0  0  0
 14 13  1  6  0  0  0
 14 15  1  0  0  0  0
 14 26  1  0  0  0  0
 16 17  2  0  0  0  0
 17 15  1  0  0  0  0
 19 20  1  0  0  0  0
 20 24  1  0  0  0  0
 20 18  1  1  0  0  0
 21 17  1  1  0  0  0
 21 24  1  0  0  0  0
 22 19  2  0  0  0  0
 24 23  1  1  0  0  0
 25 19  1  0  0  0  0
 25 21  1  0  0  0  0
 26 28  1  0  0  0  0
 28 27  1  0  0  0  0
 30 31  1  0  0  0  0
 30 29  1  0  0  0  0
 32 34  1  0  0  0  0
 33 32  2  0  0  0  0
 33 35  1  0  0  0  0
 34 44  1  0  0  0  0
 34 31  2  0  0  0  0
 35 30  2  0  0  0  0
 37 44  2  0  0  0  0
 37 39  1  0  0  0  0
 39 45  1  0  0  0  0
 39 43  2  0  0  0  0
 40 41  2  0  0  0  0
 42 45  1  0  0  0  0
 43 41  1  0  0  0  0
 43 38  1  0  0  0  0
 44 40  1  0  0  0  0
 45 38  1  0  0  0  0
 45 36  1  0  0  0  0
 47 46  1  0  0  0  0
 49 47  1  0  0  0  0
 49 48  2  0  0  0  0
 50 48  1  0  0  0  0
 51 52  1  0  0  0  0
 51 50  1  0  0  0  0
 53 52  1  6  0  0  0
 53 61  1  0  0  0  0
 55 54  1  0  0  0  0
 56 54  1  6  0  0  0
 57 55  1  0  0  0  0
 57 59  1  0  0  0  0
 58 56  1  0  0  0  0
 59 53  1  1  0  0  0
 59 58  1  0  0  0  0
 59 56  1  0  0  0  0
 61 60  1  6  0  0  0
 62 61  1  0  0  0  0
 62 63  1  0  0  0  0
 63 64  1  0  0  0  0
M  END
>  <MODEL>
5

>  <REMARK>
 VINA RESULT:      -6.4      2.195      9.777
  Name = 
  21 active torsions:
  status: ('A' for Active; 'I' for Inactive)
    1  A    between atoms: C_1  and  O_17
    2  A    between atoms: C_7  and  C_15
    3  A    between atoms: C_7  and  C_39
    4  A    between atoms: C_9  and  C_12
    5  A    between atoms: C_9  and  C_28
    6  A    between atoms: O_17  and  C_29
    7  A    between atoms: C_19  and  N_61
    8  A    between atoms: C_25  and  C_44
    9  A    between atoms: N_27  and  C_28
   10  A    between atoms: C_28  and  C_54
   11  A    between atoms: C_29  and  C_63
   12  A    between atoms: C_31  and  C_48
   13  A    between atoms: C_32  and  C_62
   14  A    between atoms: C_35  and  C_48
   15  A    between atoms: C_35  and  C_60
   16  A    between atoms: C_40  and  C_52
   17  A    between atoms: C_41  and  C_56
   18  A    between atoms: C_44  and  C_52
   19  A    between atoms: C_53  and  C_63
   20  A    between atoms: C_54  and  C_57
   21  A    between atoms: C_60  and  C_63
                            x       y       z     vdW  Elec       q    Type
                         _______ _______ _______ _____ _____    ______ ____

>  <TORSDO>
F 21

$$$$
=
 OpenBabel10232410423D

 64 71  0  0  1  0  0  0  0  0999 V2000
  183.0650  179.2920  141.7560 C   0  0  0  0  0  3  0  0  0  0  0  0
  182.6410  178.7940  140.6040 C   0  0  0  0  0  0  0  0  0  0  0  0
  182.0230  179.5220  142.7890 C   0  0  1  0  0  3  0  0  0  0  0  0
  181.1760  178.5500  140.4980 C   0  0  1  0  0  3  0  0  0  0  0  0
  180.4730  178.7860  142.1610 S   0  0  0  0  0  0  0  0  0  0  0  0
  184.3140  179.3810  138.7470 C   0  0  0  0  0  0  0  0  0  0  0  0
  184.8290  177.3300  137.8290 C   0  0  2  0  0  3  0  0  0  0  0  0
  183.8510  177.2120  138.9610 C   0  0  0  0  0  0  0  0  0  0  0  0
  184.3280  180.6300  138.9140 O   0  0  0  0  0  0  0  0  0  0  0  0
  183.3890  176.1200  139.3950 O   0  0  0  0  0  0  0  0  0  0  0  0
  185.0450  178.7380  137.7560 O   0  0  0  0  0  0  0  0  0  0  0  0
  183.5430  178.4830  139.5290 N   0  0  0  0  0  0  0  0  0  0  0  0
  184.2200  176.8310  136.5280 C   0  0  0  0  0  2  0  0  0  0  0  0
  185.3170  176.4260  135.5560 C   0  0  1  0  0  3  0  0  0  0  0  0
  186.6240  176.6950  136.1340 N   0  0  0  0  0  2  0  0  0  0  0  0
  186.9290  178.6830  134.9480 O   0  0  0  0  0  0  0  0  0  0  0  0
  187.3920  177.8450  135.7690 C   0  0  0  0  0  0  0  0  0  0  0  0
  190.0050  175.7730  138.7980 O   0  0  0  0  0  1  0  0  0  0  0  0
  189.5250  178.0700  138.5530 C   0  0  0  0  0  0  0  0  0  0  0  0
  190.2190  176.8940  137.9880 C   0  0  2  0  0  3  0  0  0  0  0  0
  188.7570  178.0400  136.3620 C   0  0  2  0  0  3  0  0  0  0  0  0
  189.6890  178.4760  139.7330 O   0  0  0  0  0  0  0  0  0  0  0  0
  188.7520  175.5990  136.5510 O   0  0  0  0  0  1  0  0  0  0  0  0
  189.5650  176.7390  136.6020 C   0  0  2  0  0  3  0  0  0  0  0  0
  188.6670  178.7220  137.6410 N   0  0  0  0  0  2  0  0  0  0  0  0
  185.2000  174.9520  135.1420 C   0  0  0  0  0  2  0  0  0  0  0  0
  184.9500  172.7090  135.9390 O   0  0  0  0  0  1  0  0  0  0  0  0
  184.7870  174.0450  136.2990 C   0  0  0  0  0  2  0  0  0  0  0  0
  180.5690  179.5510  139.5230 C   0  0  0  0  0  2  0  0  0  0  0  0
  180.6990  179.0900  138.1110 C   0  0  0  0  0  0  0  0  0  0  0  0
  180.6330  177.7310  137.7920 C   0  0  0  0  0  3  0  0  0  0  0  0
  180.9400  178.2880  135.4700 C   0  0  0  0  0  3  0  0  0  0  0  0
  181.0090  179.6050  135.8020 N   0  0  0  0  0  0  0  0  0  0  0  0
  180.7510  177.3100  136.4600 C   0  0  0  0  0  0  0  0  0  0  0  0
  180.8920  180.0210  137.0910 C   0  0  0  0  0  3  0  0  0  0  0  0
  182.2230  171.7860  137.3910 O   0  0  0  0  0  1  0  0  0  0  0  0
  180.9050  174.8860  137.0960 C   0  0  0  0  0  3  0  0  0  0  0  0
  180.5700  171.7610  135.6940 C   0  0  0  0  0  2  0  0  0  0  0  0
  180.8050  173.5770  136.6700 C   0  0  0  0  0  0  0  0  0  0  0  0
  180.3140  175.4910  134.7590 C   0  0  0  0  0  3  0  0  0  0  0  0
  180.2150  174.1380  134.3480 C   0  0  0  0  0  3  0  0  0  0  0  0
  179.9840  171.7520  137.9910 O   0  0  0  0  0  1  0  0  0  0  0  0
  180.4730  173.2130  135.3400 C   0  0  0  0  0  0  0  0  0  0  0  0
  180.6560  175.8740  136.1020 C   0  0  0  0  0  0  0  0  0  0  0  0
  180.9210  172.1470  137.0400 C   0  0  0  0  0  0  0  0  0  0  0  0
  182.4460  178.8390  144.0860 C   0  0  0  0  0  2  0  0  0  0  0  0
  183.8910  178.3650  144.0220 C   0  0  0  0  0  2  0  0  0  0  0  0
  185.1070  177.7650  146.0720 C   0  0  0  0  0  3  0  0  0  0  0  0
  184.6450  178.7190  145.2630 C   0  0  0  0  0  3  0  0  0  0  0  0
  185.8070  178.1120  147.3460 C   0  0  0  0  0  2  0  0  0  0  0  0
  187.1960  178.6690  147.0800 C   0  0  0  0  0  2  0  0  0  0  0  0
  188.0650  177.6000  146.4300 C   0  0  0  0  0  2  0  0  0  0  0  0
  188.5490  178.0180  145.0350 C   0  0  1  0  0  3  0  0  0  0  0  0
  192.2760  177.9740  144.2560 C   0  0  0  0  0  2  0  0  0  0  0  0
  191.6530  177.4290  142.9820 C   0  0  0  0  0  2  0  0  0  0  0  0
  191.1410  178.2470  145.2260 C   0  0  2  0  0  3  0  0  0  0  0  0
  190.3100  176.8560  143.3820 C   0  0  0  0  0  2  0  0  0  0  0  0
  190.7060  177.0270  145.7990 O   0  0  0  0  0  0  0  0  0  0  0  0
  189.9710  177.5130  144.7050 C   0  0  2  0  0  0  0  0  0  0  0  0
  187.6840  176.2250  143.4390 C   0  0  0  0  0  1  0  0  0  0  0  0
  187.5200  177.6540  143.9460 C   0  0  2  0  0  3  0  0  0  0  0  0
  187.5830  178.5490  142.8730 O   0  0  0  0  0  0  0  0  0  0  0  0
  186.5200  178.1790  142.0410 C   0  0  0  0  0  2  0  0  0  0  0  0
  186.9020  178.3220  140.7080 O   0  0  0  0  0  1  0  0  0  0  0  0
  1  3  1  0  0  0  0
  2  1  2  0  0  0  0
  3 46  1  1  0  0  0
  4 29  1  6  0  0  0
  4  2  1  0  0  0  0
  4  5  1  0  0  0  0
  5  3  1  0  0  0  0
  6  9  2  0  0  0  0
  6 12  1  0  0  0  0
  7 13  1  6  0  0  0
  7  8  1  0  0  0  0
  8 10  2  0  0  0  0
  8 12  1  0  0  0  0
 11  7  1  0  0  0  0
 11  6  1  0  0  0  0
 12  2  1  0  0  0  0
 14 26  1  1  0  0  0
 14 15  1  0  0  0  0
 14 13  1  0  0  0  0
 16 17  2  0  0  0  0
 17 15  1  0  0  0  0
 19 22  2  0  0  0  0
 20 19  1  0  0  0  0
 20 18  1  1  0  0  0
 21 17  1  1  0  0  0
 21 24  1  0  0  0  0
 21 25  1  0  0  0  0
 24 23  1  1  0  0  0
 24 20  1  0  0  0  0
 25 19  1  0  0  0  0
 26 28  1  0  0  0  0
 27 28  1  0  0  0  0
 30 29  1  0  0  0  0
 31 30  1  0  0  0  0
 32 33  2  0  0  0  0
 32 34  1  0  0  0  0
 33 35  1  0  0  0  0
 34 31  2  0  0  0  0
 35 30  2  0  0  0  0
 38 45  1  0  0  0  0
 39 45  1  0  0  0  0
 39 37  1  0  0  0  0
 40 44  1  0  0  0  0
 41 40  2  0  0  0  0
 41 43  1  0  0  0  0
 43 38  1  0  0  0  0
 43 39  2  0  0  0  0
 44 34  1  0  0  0  0
 44 37  2  0  0  0  0
 45 36  1  0  0  0  0
 45 42  1  0  0  0  0
 47 46  1  0  0  0  0
 47 49  1  0  0  0  0
 48 50  1  0  0  0  0
 49 48  2  0  0  0  0
 51 50  1  0  0  0  0
 52 51  1  0  0  0  0
 53 52  1  1  0  0  0
 55 57  1  0  0  0  0
 55 54  1  0  0  0  0
 56 54  1  6  0  0  0
 56 58  1  0  0  0  0
 57 59  1  0  0  0  0
 59 53  1  1  0  0  0
 59 56  1  0  0  0  0
 59 58  1  0  0  0  0
 61 60  1  6  0  0  0
 61 53  1  0  0  0  0
 62 61  1  0  0  0  0
 63 62  1  0  0  0  0
 64 63  1  0  0  0  0
M  END
>  <MODEL>
6

>  <REMARK>
 VINA RESULT:      -6.3      4.296     11.565
  Name = 
  21 active torsions:
  status: ('A' for Active; 'I' for Inactive)
    1  A    between atoms: C_1  and  O_17
    2  A    between atoms: C_7  and  C_15
    3  A    between atoms: C_7  and  C_39
    4  A    between atoms: C_9  and  C_12
    5  A    between atoms: C_9  and  C_28
    6  A    between atoms: O_17  and  C_29
    7  A    between atoms: C_19  and  N_61
    8  A    between atoms: C_25  and  C_44
    9  A    between atoms: N_27  and  C_28
   10  A    between atoms: C_28  and  C_54
   11  A    between atoms: C_29  and  C_63
   12  A    between atoms: C_31  and  C_48
   13  A    between atoms: C_32  and  C_62
   14  A    between atoms: C_35  and  C_48
   15  A    between atoms: C_35  and  C_60
   16  A    between atoms: C_40  and  C_52
   17  A    between atoms: C_41  and  C_56
   18  A    between atoms: C_44  and  C_52
   19  A    between atoms: C_53  and  C_63
   20  A    between atoms: C_54  and  C_57
   21  A    between atoms: C_60  and  C_63
                            x       y       z     vdW  Elec       q    Type
                         _______ _______ _______ _____ _____    ______ ____

>  <TORSDO>
F 21

$$$$
=
 OpenBabel10232410423D

 64 71  0  0  1  0  0  0  0  0999 V2000
  183.5640  179.3480  141.9890 C   0  0  0  0  0  3  0  0  0  0  0  0
  183.0900  178.8680  140.8490 C   0  0  0  0  0  0  0  0  0  0  0  0
  182.6090  179.3920  143.1250 C   0  0  1  0  0  3  0  0  0  0  0  0
  181.6610  178.4530  140.8600 C   0  0  1  0  0  3  0  0  0  0  0  0
  181.1000  178.5080  142.5920 S   0  0  0  0  0  0  0  0  0  0  0  0
  184.4060  179.7550  138.8300 C   0  0  0  0  0  0  0  0  0  0  0  0
  185.2050  177.8370  137.8330 C   0  0  2  0  0  3  0  0  0  0  0  0
  184.3980  177.5390  139.0630 C   0  0  0  0  0  0  0  0  0  0  0  0
  184.1950  180.9840  139.0130 O   0  0  0  0  0  0  0  0  0  0  0  0
  184.2060  176.3820  139.5280 O   0  0  0  0  0  0  0  0  0  0  0  0
  185.1340  179.2590  137.7570 O   0  0  0  0  0  0  0  0  0  0  0  0
  183.9130  178.7300  139.6780 N   0  0  0  0  0  0  0  0  0  0  0  0
  184.5660  177.2190  136.5990 C   0  0  0  0  0  2  0  0  0  0  0  0
  185.6270  176.9210  135.5510 C   0  0  1  0  0  3  0  0  0  0  0  0
  186.9350  176.8130  136.1780 N   0  0  0  0  0  2  0  0  0  0  0  0
  187.7790  178.7280  135.1440 O   0  0  0  0  0  0  0  0  0  0  0  0
  187.9820  177.7500  135.9150 C   0  0  0  0  0  0  0  0  0  0  0  0
  191.2370  174.6370  135.8720 O   0  0  0  0  0  1  0  0  0  0  0  0
  190.2730  175.7720  137.7010 C   0  0  0  0  0  0  0  0  0  0  0  0
  191.1390  175.8790  136.5090 C   0  0  2  0  0  3  0  0  0  0  0  0
  189.3260  177.5540  136.5530 C   0  0  2  0  0  3  0  0  0  0  0  0
  190.4580  174.9380  138.6250 O   0  0  0  0  0  0  0  0  0  0  0  0
  189.8440  176.3210  134.5030 O   0  0  0  0  0  1  0  0  0  0  0  0
  190.4050  176.9170  135.6400 C   0  0  2  0  0  3  0  0  0  0  0  0
  189.2170  176.7090  137.7290 N   0  0  0  0  0  2  0  0  0  0  0  0
  185.3020  175.6520  134.7510 C   0  0  0  0  0  2  0  0  0  0  0  0
  184.8100  174.0620  136.4720 O   0  0  0  0  0  1  0  0  0  0  0  0
  184.2410  174.7850  135.4250 C   0  0  0  0  0  2  0  0  0  0  0  0
  180.8480  179.4260  140.0140 C   0  0  0  0  0  2  0  0  0  0  0  0
  180.8590  179.0400  138.5730 C   0  0  0  0  0  0  0  0  0  0  0  0
  180.8360  177.6970  138.1900 C   0  0  0  0  0  3  0  0  0  0  0  0
  180.8730  178.3800  135.8820 C   0  0  0  0  0  3  0  0  0  0  0  0
  180.9020  179.6820  136.2760 N   0  0  0  0  0  0  0  0  0  0  0  0
  180.8400  177.3470  136.8320 C   0  0  0  0  0  0  0  0  0  0  0  0
  180.8950  180.0280  137.5900 C   0  0  0  0  0  3  0  0  0  0  0  0
  182.6970  171.8830  137.3270 O   0  0  0  0  0  1  0  0  0  0  0  0
  181.1890  174.9090  137.3230 C   0  0  0  0  0  3  0  0  0  0  0  0
  180.8900  171.8390  135.7960 C   0  0  0  0  0  2  0  0  0  0  0  0
  181.1200  173.6180  136.8400 C   0  0  0  0  0  0  0  0  0  0  0  0
  180.3400  175.5870  135.0880 C   0  0  0  0  0  3  0  0  0  0  0  0
  180.2740  174.2510  134.6170 C   0  0  0  0  0  3  0  0  0  0  0  0
  180.5330  171.6860  138.1350 O   0  0  0  0  0  1  0  0  0  0  0  0
  180.6790  173.2980  135.5300 C   0  0  0  0  0  0  0  0  0  0  0  0
  180.7900  175.9260  136.4100 C   0  0  0  0  0  0  0  0  0  0  0  0
  181.3500  172.1810  137.1210 C   0  0  0  0  0  0  0  0  0  0  0  0
  183.2330  178.6930  144.3290 C   0  0  0  0  0  2  0  0  0  0  0  0
  184.5460  178.0160  143.9630 C   0  0  0  0  0  2  0  0  0  0  0  0
  185.9850  177.3260  145.8340 C   0  0  0  0  0  3  0  0  0  0  0  0
  185.6080  178.2800  144.9810 C   0  0  0  0  0  3  0  0  0  0  0  0
  187.0010  177.6020  146.8930 C   0  0  0  0  0  2  0  0  0  0  0  0
  188.1340  178.4650  146.3630 C   0  0  0  0  0  2  0  0  0  0  0  0
  189.4600  177.9880  146.9410 C   0  0  0  0  0  2  0  0  0  0  0  0
  190.1210  176.9160  146.0630 C   0  0  1  0  0  3  0  0  0  0  0  0
  189.7490  176.4360  142.3040 C   0  0  0  0  0  2  0  0  0  0  0  0
  191.1580  176.9890  142.4420 C   0  0  0  0  0  2  0  0  0  0  0  0
  189.1600  176.3640  143.7010 C   0  0  2  0  0  3  0  0  0  0  0  0
  191.1850  177.7510  143.7500 C   0  0  0  0  0  2  0  0  0  0  0  0
  188.7580  177.6590  144.1110 O   0  0  0  0  0  0  0  0  0  0  0  0
  190.0160  177.2150  144.5510 C   0  0  2  0  0  0  0  0  0  0  0  0
  191.9240  175.1450  146.4120 C   0  0  0  0  0  1  0  0  0  0  0  0
  191.5660  176.6250  146.5150 C   0  0  2  0  0  3  0  0  0  0  0  0
  191.7880  177.0780  147.8190 O   0  0  0  0  0  0  0  0  0  0  0  0
  192.6410  176.1230  148.3840 C   0  0  0  0  0  2  0  0  0  0  0  0
  193.3560  176.7020  149.4320 O   0  0  0  0  0  1  0  0  0  0  0  0
  1  3  1  0  0  0  0
  2  4  1  0  0  0  0
  2  1  2  0  0  0  0
  3 46  1  1  0  0  0
  4 29  1  6  0  0  0
  4  5  1  0  0  0  0
  5  3  1  0  0  0  0
  6  9  2  0  0  0  0
  6 12  1  0  0  0  0
  7 13  1  6  0  0  0
  7  8  1  0  0  0  0
  8 10  2  0  0  0  0
  8 12  1  0  0  0  0
 11  7  1  0  0  0  0
 11  6  1  0  0  0  0
 12  2  1  0  0  0  0
 14 26  1  1  0  0  0
 14 15  1  0  0  0  0
 14 13  1  0  0  0  0
 16 17  2  0  0  0  0
 17 15  1  0  0  0  0
 19 25  1  0  0  0  0
 19 22  2  0  0  0  0
 20 18  1  6  0  0  0
 20 19  1  0  0  0  0
 21 17  1  6  0  0  0
 21 25  1  0  0  0  0
 24 23  1  6  0  0  0
 24 20  1  0  0  0  0
 24 21  1  0  0  0  0
 26 28  1  0  0  0  0
 28 27  1  0  0  0  0
 30 29  1  0  0  0  0
 31 30  1  0  0  0  0
 32 33  2  0  0  0  0
 32 34  1  0  0  0  0
 33 35  1  0  0  0  0
 34 31  2  0  0  0  0
 35 30  2  0  0  0  0
 38 45  1  0  0  0  0
 39 45  1  0  0  0  0
 39 37  1  0  0  0  0
 40 44  1  0  0  0  0
 41 40  2  0  0  0  0
 41 43  1  0  0  0  0
 43 38  1  0  0  0  0
 43 39  2  0  0  0  0
 44 34  1  0  0  0  0
 44 37  2  0  0  0  0
 45 36  1  0  0  0  0
 45 42  1  0  0  0  0
 47 46  1  0  0  0  0
 47 49  1  0  0  0  0
 48 50  1  0  0  0  0
 49 48  2  0  0  0  0
 51 50  1  0  0  0  0
 51 52  1  0  0  0  0
 53 61  1  0  0  0  0
 53 52  1  1  0  0  0
 54 55  1  0  0  0  0
 55 57  1  0  0  0  0
 56 54  1  6  0  0  0
 56 58  1  0  0  0  0
 56 59  1  0  0  0  0
 57 59  1  0  0  0  0
 58 59  1  0  0  0  0
 59 53  1  1  0  0  0
 61 60  1  1  0  0  0
 61 62  1  0  0  0  0
 62 63  1  0  0  0  0
 63 64  1  0  0  0  0
M  END
>  <MODEL>
7

>  <REMARK>
 VINA RESULT:      -6.0      3.834     12.060
  Name = 
  21 active torsions:
  status: ('A' for Active; 'I' for Inactive)
    1  A    between atoms: C_1  and  O_17
    2  A    between atoms: C_7  and  C_15
    3  A    between atoms: C_7  and  C_39
    4  A    between atoms: C_9  and  C_12
    5  A    between atoms: C_9  and  C_28
    6  A    between atoms: O_17  and  C_29
    7  A    between atoms: C_19  and  N_61
    8  A    between atoms: C_25  and  C_44
    9  A    between atoms: N_27  and  C_28
   10  A    between atoms: C_28  and  C_54
   11  A    between atoms: C_29  and  C_63
   12  A    between atoms: C_31  and  C_48
   13  A    between atoms: C_32  and  C_62
   14  A    between atoms: C_35  and  C_48
   15  A    between atoms: C_35  and  C_60
   16  A    between atoms: C_40  and  C_52
   17  A    between atoms: C_41  and  C_56
   18  A    between atoms: C_44  and  C_52
   19  A    between atoms: C_53  and  C_63
   20  A    between atoms: C_54  and  C_57
   21  A    between atoms: C_60  and  C_63
                            x       y       z     vdW  Elec       q    Type
                         _______ _______ _______ _____ _____    ______ ____

>  <TORSDO>
F 21

$$$$
=
 OpenBabel10232410423D

 64 71  0  0  1  0  0  0  0  0999 V2000
  184.9230  179.5410  142.6920 C   0  0  0  0  0  3  0  0  0  0  0  0
  184.8040  178.8450  141.5710 C   0  0  0  0  0  0  0  0  0  0  0  0
  183.7200  179.5830  143.5620 C   0  0  1  0  0  3  0  0  0  0  0  0
  183.4770  178.2160  141.3300 C   0  0  1  0  0  3  0  0  0  0  0  0
  182.5070  178.4110  142.8600 S   0  0  0  0  0  0  0  0  0  0  0  0
  185.9930  179.1460  139.3150 C   0  0  0  0  0  0  0  0  0  0  0  0
  187.9930  178.0430  139.6180 C   0  0  2  0  0  3  0  0  0  0  0  0
  187.1310  177.9940  140.8450 C   0  0  0  0  0  0  0  0  0  0  0  0
  185.0920  179.8100  138.7320 O   0  0  0  0  0  0  0  0  0  0  0  0
  187.4680  177.4510  141.9330 O   0  0  0  0  0  0  0  0  0  0  0  0
  187.1800  178.7720  138.7000 O   0  0  0  0  0  0  0  0  0  0  0  0
  185.8990  178.6850  140.6530 N   0  0  0  0  0  0  0  0  0  0  0  0
  188.2550  176.6440  139.0800 C   0  0  0  0  0  2  0  0  0  0  0  0
  189.7290  176.2960  139.2180 C   0  0  1  0  0  3  0  0  0  0  0  0
  190.2440  175.7850  137.9570 N   0  0  0  0  0  2  0  0  0  0  0  0
  189.5610  177.6470  136.7260 O   0  0  0  0  0  0  0  0  0  0  0  0
  190.1100  176.5110  136.7330 C   0  0  0  0  0  0  0  0  0  0  0  0
  190.9360  172.3830  135.1320 O   0  0  0  0  0  1  0  0  0  0  0  0
  192.2630  174.3300  135.0130 C   0  0  0  0  0  0  0  0  0  0  0  0
  191.0360  173.6500  134.5480 C   0  0  2  0  0  3  0  0  0  0  0  0
  190.6170  175.9070  135.4560 C   0  0  2  0  0  3  0  0  0  0  0  0
  193.4140  173.8310  134.9210 O   0  0  0  0  0  0  0  0  0  0  0  0
  189.1800  174.0220  136.0670 O   0  0  0  0  0  1  0  0  0  0  0  0
  189.9160  174.5950  135.0220 C   0  0  2  0  0  3  0  0  0  0  0  0
  192.0360  175.6130  135.5560 N   0  0  0  0  0  2  0  0  0  0  0  0
  190.5590  177.4950  139.6970 C   0  0  0  0  0  2  0  0  0  0  0  0
  192.7590  178.0610  140.4530 O   0  0  0  0  0  1  0  0  0  0  0  0
  192.0610  177.2740  139.5390 C   0  0  0  0  0  2  0  0  0  0  0  0
  182.7840  178.9280  140.1750 C   0  0  0  0  0  2  0  0  0  0  0  0
  182.0500  177.9680  139.3010 C   0  0  0  0  0  0  0  0  0  0  0  0
  182.7370  177.0020  138.5620 C   0  0  0  0  0  3  0  0  0  0  0  0
  180.6360  176.2040  137.7000 C   0  0  0  0  0  3  0  0  0  0  0  0
  179.9860  177.1560  138.4220 N   0  0  0  0  0  0  0  0  0  0  0  0
  182.0350  176.1010  137.7480 C   0  0  0  0  0  0  0  0  0  0  0  0
  180.6600  178.0300  139.2150 C   0  0  0  0  0  3  0  0  0  0  0  0
  183.4480  170.5440  136.9270 O   0  0  0  0  0  1  0  0  0  0  0  0
  182.2710  173.7120  137.0100 C   0  0  0  0  0  3  0  0  0  0  0  0
  184.3180  171.7360  135.0730 C   0  0  0  0  0  2  0  0  0  0  0  0
  183.0020  172.8050  136.2720 C   0  0  0  0  0  0  0  0  0  0  0  0
  183.9100  175.3980  136.2050 C   0  0  0  0  0  3  0  0  0  0  0  0
  184.6430  174.4460  135.4510 C   0  0  0  0  0  3  0  0  0  0  0  0
  182.0900  170.9290  135.0880 O   0  0  0  0  0  1  0  0  0  0  0  0
  184.1520  173.1570  135.5180 C   0  0  0  0  0  0  0  0  0  0  0  0
  182.7480  175.0540  136.9770 C   0  0  0  0  0  0  0  0  0  0  0  0
  183.1560  171.3900  135.8560 C   0  0  0  0  0  0  0  0  0  0  0  0
  184.1100  179.1580  144.9740 C   0  0  0  0  0  2  0  0  0  0  0  0
  185.2960  178.2040  144.9620 C   0  0  0  0  0  2  0  0  0  0  0  0
  186.5290  177.8780  147.0640 C   0  0  0  0  0  3  0  0  0  0  0  0
  186.3360  178.6010  145.9590 C   0  0  0  0  0  3  0  0  0  0  0  0
  187.5240  178.3030  148.0950 C   0  0  0  0  0  2  0  0  0  0  0  0
  188.9470  178.1860  147.5740 C   0  0  0  0  0  2  0  0  0  0  0  0
  189.4770  176.7810  147.8330 C   0  0  0  0  0  2  0  0  0  0  0  0
  190.4770  176.3330  146.7580 C   0  0  1  0  0  3  0  0  0  0  0  0
  190.9850  177.4600  143.1560 C   0  0  0  0  0  2  0  0  0  0  0  0
  191.5630  178.6110  143.9610 C   0  0  0  0  0  2  0  0  0  0  0  0
  190.4650  176.4370  144.1510 C   0  0  2  0  0  3  0  0  0  0  0  0
  190.8940  178.5540  145.3180 C   0  0  0  0  0  2  0  0  0  0  0  0
  189.2230  176.8760  144.6720 O   0  0  0  0  0  0  0  0  0  0  0  0
  190.3650  177.1400  145.4460 C   0  0  2  0  0  0  0  0  0  0  0  0
  192.2810  174.9160  147.8730 C   0  0  0  0  0  1  0  0  0  0  0  0
  191.9160  176.2850  147.3080 C   0  0  2  0  0  3  0  0  0  0  0  0
  192.1180  177.2700  148.2800 O   0  0  0  0  0  0  0  0  0  0  0  0
  193.3100  176.9000  148.9150 C   0  0  0  0  0  2  0  0  0  0  0  0
  193.5180  177.7180  150.0250 O   0  0  0  0  0  1  0  0  0  0  0  0
  1  3  1  0  0  0  0
  2  1  2  0  0  0  0
  3 46  1  1  0  0  0
  4 29  1  6  0  0  0
  4  2  1  0  0  0  0
  4  5  1  0  0  0  0
  5  3  1  0  0  0  0
  6 12  1  0  0  0  0
  7 13  1  6  0  0  0
  7  8  1  0  0  0  0
  8 10  2  0  0  0  0
  9  6  2  0  0  0  0
 11  6  1  0  0  0  0
 11  7  1  0  0  0  0
 12  8  1  0  0  0  0
 12  2  1  0  0  0  0
 14 13  1  6  0  0  0
 14 26  1  0  0  0  0
 15 14  1  0  0  0  0
 16 17  2  0  0  0  0
 17 15  1  0  0  0  0
 19 25  1  0  0  0  0
 20 19  1  0  0  0  0
 20 24  1  0  0  0  0
 20 18  1  1  0  0  0
 21 25  1  0  0  0  0
 21 17  1  1  0  0  0
 22 19  2  0  0  0  0
 24 21  1  0  0  0  0
 24 23  1  1  0  0  0
 28 26  1  0  0  0  0
 28 27  1  0  0  0  0
 30 29  1  0  0  0  0
 31 30  2  0  0  0  0
 32 34  2  0  0  0  0
 32 33  1  0  0  0  0
 33 35  2  0  0  0  0
 34 31  1  0  0  0  0
 35 30  1  0  0  0  0
 38 43  1  0  0  0  0
 38 45  1  0  0  0  0
 39 37  2  0  0  0  0
 40 44  2  0  0  0  0
 41 43  2  0  0  0  0
 41 40  1  0  0  0  0
 42 45  1  0  0  0  0
 43 39  1  0  0  0  0
 44 37  1  0  0  0  0
 44 34  1  0  0  0  0
 45 39  1  0  0  0  0
 45 36  1  0  0  0  0
 47 46  1  0  0  0  0
 47 49  1  0  0  0  0
 48 50  1  0  0  0  0
 49 48  2  0  0  0  0
 51 52  1  0  0  0  0
 51 50  1  0  0  0  0
 53 61  1  0  0  0  0
 53 52  1  1  0  0  0
 54 55  1  0  0  0  0
 55 57  1  0  0  0  0
 56 54  1  6  0  0  0
 56 58  1  0  0  0  0
 56 59  1  0  0  0  0
 57 59  1  0  0  0  0
 58 59  1  0  0  0  0
 59 53  1  1  0  0  0
 61 60  1  1  0  0  0
 61 62  1  0  0  0  0
 62 63  1  0  0  0  0
 63 64  1  0  0  0  0
M  END
>  <MODEL>
8

>  <REMARK>
 VINA RESULT:      -5.9      3.267     11.365
  Name = 
  21 active torsions:
  status: ('A' for Active; 'I' for Inactive)
    1  A    between atoms: C_1  and  O_17
    2  A    between atoms: C_7  and  C_15
    3  A    between atoms: C_7  and  C_39
    4  A    between atoms: C_9  and  C_12
    5  A    between atoms: C_9  and  C_28
    6  A    between atoms: O_17  and  C_29
    7  A    between atoms: C_19  and  N_61
    8  A    between atoms: C_25  and  C_44
    9  A    between atoms: N_27  and  C_28
   10  A    between atoms: C_28  and  C_54
   11  A    between atoms: C_29  and  C_63
   12  A    between atoms: C_31  and  C_48
   13  A    between atoms: C_32  and  C_62
   14  A    between atoms: C_35  and  C_48
   15  A    between atoms: C_35  and  C_60
   16  A    between atoms: C_40  and  C_52
   17  A    between atoms: C_41  and  C_56
   18  A    between atoms: C_44  and  C_52
   19  A    between atoms: C_53  and  C_63
   20  A    between atoms: C_54  and  C_57
   21  A    between atoms: C_60  and  C_63
                            x       y       z     vdW  Elec       q    Type
                         _______ _______ _______ _____ _____    ______ ____

>  <TORSDO>
F 21

$$$$
=
 OpenBabel10232410423D

 64 71  0  0  1  0  0  0  0  0999 V2000
  191.4270  176.1850  138.3880 C   0  0  0  0  0  3  0  0  0  0  0  0
  190.1980  176.6740  138.3480 C   0  0  0  0  0  0  0  0  0  0  0  0
  191.9710  175.6840  137.1000 C   0  0  1  0  0  3  0  0  0  0  0  0
  189.5230  176.6400  137.0210 C   0  0  1  0  0  3  0  0  0  0  0  0
  190.7800  176.1520  135.7960 S   0  0  0  0  0  0  0  0  0  0  0  0
  189.6170  176.7630  140.8480 C   0  0  0  0  0  0  0  0  0  0  0  0
  188.2140  178.5850  141.0030 C   0  0  2  0  0  3  0  0  0  0  0  0
  188.6860  178.3540  139.5970 C   0  0  0  0  0  0  0  0  0  0  0  0
  190.2870  175.7600  141.2160 O   0  0  0  0  0  0  0  0  0  0  0  0
  188.3890  179.0890  138.6140 O   0  0  0  0  0  0  0  0  0  0  0  0
  188.8380  177.5180  141.7140 O   0  0  0  0  0  0  0  0  0  0  0  0
  189.5590  177.2310  139.5100 N   0  0  0  0  0  0  0  0  0  0  0  0
  186.7010  178.4570  141.0980 C   0  0  0  0  0  2  0  0  0  0  0  0
  186.2830  178.2270  142.5420 C   0  0  1  0  0  3  0  0  0  0  0  0
  187.3890  178.5260  143.4380 N   0  0  0  0  0  2  0  0  0  0  0  0
  187.0680  176.6180  144.7470 O   0  0  0  0  0  0  0  0  0  0  0  0
  187.7200  177.6800  144.5420 C   0  0  0  0  0  0  0  0  0  0  0  0
  191.9530  176.3590  145.3330 O   0  0  0  0  0  1  0  0  0  0  0  0
  190.2210  176.8340  146.8620 C   0  0  0  0  0  0  0  0  0  0  0  0
  191.1760  177.3870  145.8790 C   0  0  2  0  0  3  0  0  0  0  0  0
  188.8400  178.0690  145.4620 C   0  0  2  0  0  3  0  0  0  0  0  0
  190.5610  176.1200  147.8400 O   0  0  0  0  0  0  0  0  0  0  0  0
  190.2760  177.3190  143.6260 O   0  0  0  0  0  1  0  0  0  0  0  0
  190.2550  178.0360  144.8290 C   0  0  2  0  0  3  0  0  0  0  0  0
  188.8780  177.1980  146.6220 N   0  0  0  0  0  2  0  0  0  0  0  0
  185.0430  179.0510  142.9170 C   0  0  0  0  0  2  0  0  0  0  0  0
  183.5600  178.8720  144.7870 O   0  0  0  0  0  1  0  0  0  0  0  0
  184.8660  179.1960  144.4270 C   0  0  0  0  0  2  0  0  0  0  0  0
  188.3970  175.6130  137.0550 C   0  0  0  0  0  2  0  0  0  0  0  0
  187.1090  176.1980  136.5840 C   0  0  0  0  0  0  0  0  0  0  0  0
  185.9840  176.2170  137.4120 C   0  0  0  0  0  3  0  0  0  0  0  0
  184.7430  177.3050  135.6600 C   0  0  0  0  0  3  0  0  0  0  0  0
  185.8470  177.2710  134.8670 N   0  0  0  0  0  0  0  0  0  0  0  0
  184.7800  176.7750  136.9600 C   0  0  0  0  0  0  0  0  0  0  0  0
  187.0180  176.7340  135.3000 C   0  0  0  0  0  3  0  0  0  0  0  0
  182.0670  178.8090  141.6560 O   0  0  0  0  0  1  0  0  0  0  0  0
  183.3540  177.9760  138.6430 C   0  0  0  0  0  3  0  0  0  0  0  0
  180.4730  177.5200  140.4690 C   0  0  0  0  0  2  0  0  0  0  0  0
  182.2250  177.9300  139.4330 C   0  0  0  0  0  0  0  0  0  0  0  0
  182.6700  175.7170  137.8660 C   0  0  0  0  0  3  0  0  0  0  0  0
  181.5130  175.6960  138.6850 C   0  0  0  0  0  3  0  0  0  0  0  0
  180.8320  179.8080  139.9670 O   0  0  0  0  0  1  0  0  0  0  0  0
  181.3330  176.8260  139.4570 C   0  0  0  0  0  0  0  0  0  0  0  0
  183.5850  176.8250  137.8370 C   0  0  0  0  0  0  0  0  0  0  0  0
  181.3970  178.6280  140.4450 C   0  0  0  0  0  0  0  0  0  0  0  0
  193.3240  176.3400  136.8410 C   0  0  0  0  0  2  0  0  0  0  0  0
  194.2950  175.3730  136.1780 C   0  0  0  0  0  2  0  0  0  0  0  0
  193.8960  173.2350  135.0320 C   0  0  0  0  0  3  0  0  0  0  0  0
  193.7440  173.9850  136.1250 C   0  0  0  0  0  3  0  0  0  0  0  0
  193.2950  171.8700  134.9480 C   0  0  0  0  0  2  0  0  0  0  0  0
  194.3460  170.7890  135.1410 C   0  0  0  0  0  2  0  0  0  0  0  0
  194.7720  170.7380  136.6020 C   0  0  0  0  0  2  0  0  0  0  0  0
  196.0780  169.9550  136.7970 C   0  0  1  0  0  3  0  0  0  0  0  0
  198.3370  172.8100  135.6820 C   0  0  0  0  0  2  0  0  0  0  0  0
  198.6790  171.7000  134.7030 C   0  0  0  0  0  2  0  0  0  0  0  0
  197.2960  172.2570  136.6390 C   0  0  2  0  0  3  0  0  0  0  0  0
  198.3180  170.4030  135.3950 C   0  0  0  0  0  2  0  0  0  0  0  0
  197.9300  171.4230  137.5940 O   0  0  0  0  0  0  0  0  0  0  0  0
  197.3410  170.7890  136.4880 C   0  0  2  0  0  0  0  0  0  0  0  0
  197.1980  168.1910  138.2600 C   0  0  0  0  0  1  0  0  0  0  0  0
  196.1340  169.2810  138.1830 C   0  0  2  0  0  3  0  0  0  0  0  0
  194.8880  168.7540  138.5380 O   0  0  0  0  0  0  0  0  0  0  0  0
  195.1460  167.9640  139.6640 C   0  0  0  0  0  2  0  0  0  0  0  0
  194.7320  168.6390  140.8100 O   0  0  0  0  0  1  0  0  0  0  0  0
  2  1  2  0  0  0  0
  2 12  1  0  0  0  0
  3 46  1  6  0  0  0
  3  1  1  0  0  0  0
  4 29  1  1  0  0  0
  4  2  1  0  0  0  0
  5  4  1  0  0  0  0
  5  3  1  0  0  0  0
  6  9  2  0  0  0  0
  6 11  1  0  0  0  0
  7 13  1  6  0  0  0
  7 11  1  0  0  0  0
  8  7  1  0  0  0  0
 10  8  2  0  0  0  0
 12  8  1  0  0  0  0
 12  6  1  0  0  0  0
 14 13  1  6  0  0  0
 14 26  1  0  0  0  0
 14 15  1  0  0  0  0
 15 17  1  0  0  0  0
 17 16  2  0  0  0  0
 19 22  2  0  0  0  0
 20 18  1  6  0  0  0
 20 19  1  0  0  0  0
 21 17  1  6  0  0  0
 21 25  1  0  0  0  0
 24 23  1  6  0  0  0
 24 21  1  0  0  0  0
 24 20  1  0  0  0  0
 25 19  1  0  0  0  0
 26 28  1  0  0  0  0
 28 27  1  0  0  0  0
 30 29  1  0  0  0  0
 30 31  1  0  0  0  0
 32 34  1  0  0  0  0
 33 35  1  0  0  0  0
 33 32  2  0  0  0  0
 34 31  2  0  0  0  0
 34 44  1  0  0  0  0
 35 30  2  0  0  0  0
 37 39  1  0  0  0  0
 39 43  2  0  0  0  0
 39 45  1  0  0  0  0
 40 41  2  0  0  0  0
 41 43  1  0  0  0  0
 42 45  1  0  0  0  0
 43 38  1  0  0  0  0
 44 40  1  0  0  0  0
 44 37  2  0  0  0  0
 45 38  1  0  0  0  0
 45 36  1  0  0  0  0
 47 46  1  0  0  0  0
 48 49  2  0  0  0  0
 49 47  1  0  0  0  0
 50 48  1  0  0  0  0
 50 51  1  0  0  0  0
 51 52  1  0  0  0  0
 53 52  1  1  0  0  0
 53 61  1  0  0  0  0
 55 57  1  0  0  0  0
 55 54  1  0  0  0  0
 56 54  1  6  0  0  0
 56 58  1  0  0  0  0
 57 59  1  0  0  0  0
 59 56  1  0  0  0  0
 59 53  1  1  0  0  0
 59 58  1  0  0  0  0
 61 60  1  6  0  0  0
 61 62  1  0  0  0  0
 62 63  1  0  0  0  0
 63 64  1  0  0  0  0
M  END
>  <MODEL>
9

>  <REMARK>
 VINA RESULT:      -5.8      3.123     10.297
  Name = 
  21 active torsions:
  status: ('A' for Active; 'I' for Inactive)
    1  A    between atoms: C_1  and  O_17
    2  A    between atoms: C_7  and  C_15
    3  A    between atoms: C_7  and  C_39
    4  A    between atoms: C_9  and  C_12
    5  A    between atoms: C_9  and  C_28
    6  A    between atoms: O_17  and  C_29
    7  A    between atoms: C_19  and  N_61
    8  A    between atoms: C_25  and  C_44
    9  A    between atoms: N_27  and  C_28
   10  A    between atoms: C_28  and  C_54
   11  A    between atoms: C_29  and  C_63
   12  A    between atoms: C_31  and  C_48
   13  A    between atoms: C_32  and  C_62
   14  A    between atoms: C_35  and  C_48
   15  A    between atoms: C_35  and  C_60
   16  A    between atoms: C_40  and  C_52
   17  A    between atoms: C_41  and  C_56
   18  A    between atoms: C_44  and  C_52
   19  A    between atoms: C_53  and  C_63
   20  A    between atoms: C_54  and  C_57
   21  A    between atoms: C_60  and  C_63
                            x       y       z     vdW  Elec       q    Type
                         _______ _______ _______ _____ _____    ______ ____

>  <TORSDO>
F 21

$$$$
