=
 OpenBabel10232410133D

 66 70  0  0  1  0  0  0  0  0999 V2000
  190.1130  173.0930  135.1420 C   0  0  0  0  0  2  0  0  0  0  0  0
  190.1110  174.5740  134.8440 C   0  0  2  0  0  3  0  0  0  0  0  0
  191.2920  174.1980  136.9440 C   0  0  2  0  0  3  0  0  0  0  0  0
  191.2260  172.9010  136.1430 C   0  0  0  0  0  2  0  0  0  0  0  0
  190.5190  175.2380  136.1400 C   0  0  0  0  0  2  0  0  0  0  0  0
  192.9900  175.9830  137.5040 C   0  0  0  0  0  0  0  0  0  0  0  0
  192.6690  174.6440  137.0840 N   0  0  0  0  0  2  0  0  0  0  0  0
  194.1570  176.5140  137.2170 N   0  0  0  0  0  0  0  0  0  0  0  0
  195.2260  175.8650  136.5050 C   0  0  0  0  0  0  0  0  0  0  0  0
  195.9140  176.4880  135.6440 O   0  0  0  0  0  0  0  0  0  0  0  0
  195.5990  174.4650  136.8650 C   0  0  0  0  0  2  0  0  0  0  0  0
  197.0980  174.2320  136.7030 C   0  0  0  0  0  2  0  0  0  0  0  0
  197.5100  173.0950  137.4630 O   0  0  0  0  0  0  0  0  0  0  0  0
  197.5100  171.7980  136.9320 C   0  0  0  0  0  0  0  0  0  0  0  0
  198.0920  171.5480  135.8450 O   0  0  0  0  0  0  0  0  0  0  0  0
  196.8150  170.7900  137.5840 O   0  0  0  0  0  1  0  0  0  0  0  0
  191.7350  176.6660  139.4260 C   0  0  0  0  0  3  0  0  0  0  0  0
  191.9840  176.7580  138.1620 N   0  0  0  0  0  0  0  0  0  0  0  0
  190.6830  177.5500  140.0150 C   0  0  0  0  0  2  0  0  0  0  0  0
  190.3820  177.2210  141.4400 C   0  0  0  0  0  0  0  0  0  0  0  0
  191.1220  177.7910  142.5510 C   0  0  0  0  0  3  0  0  0  0  0  0
  189.2910  176.6400  141.8190 N   0  0  0  0  0  0  0  0  0  0  0  0
  190.4160  177.4970  143.6340 C   0  0  0  0  0  0  0  0  0  0  0  0
  189.2190  176.6720  143.2780 C   0  0  1  0  0  3  0  0  0  0  0  0
  184.9320  178.3490  143.9910 C   0  0  0  0  0  2  0  0  0  0  0  0
  185.8500  178.4550  142.7960 C   0  0  0  0  0  2  0  0  0  0  0  0
  186.6200  177.8830  145.7550 C   0  0  0  0  0  0  0  0  0  0  0  0
  186.4210  177.4000  146.9030 O   0  0  0  0  0  0  0  0  0  0  0  0
  185.6440  178.8820  145.2060 C   0  0  0  0  0  2  0  0  0  0  0  0
  187.7850  177.4680  145.0340 N   0  0  0  0  0  0  0  0  0  0  0  0
  187.9450  177.3150  143.7470 C   0  0  0  0  0  0  0  0  0  0  0  0
  186.8490  177.4030  142.8190 N   0  0  0  0  0  2  0  0  0  0  0  0
  190.8180  177.8820  145.0260 C   0  0  0  0  0  2  0  0  0  0  0  0
  191.8510  177.0580  145.4550 O   0  0  0  0  0  0  0  0  0  0  0  0
  191.4040  176.4300  146.9680 P   0  0  0  0  0  0  0  0  0  0  0  0
  191.9420  175.0310  147.1970 O   0  0  0  0  0  1  0  0  0  0  0  0
  189.7170  176.4170  147.1060 O   0  0  0  0  0  0  0  0  0  0  0  0
  192.0380  177.4320  148.1830 O   0  0  0  0  0  1  0  0  0  0  0  0
  188.8220  175.0100  134.4150 O   0  0  0  0  0  0  0  0  0  0  0  0
  188.6700  177.3190  134.4320 O   0  0  0  0  0  0  0  0  0  0  0  0
  188.2680  176.2010  134.8790 C   0  0  0  0  0  0  0  0  0  0  0  0
  186.8190  174.7970  136.6580 S   0  0  0  0  0  0  0  0  0  0  0  0
  187.1320  176.1630  135.8280 C   0  0  1  0  0  3  0  0  0  0  0  0
  187.4280  177.6080  138.1730 O   0  0  0  0  0  1  0  0  0  0  0  0
  184.3180  177.1890  138.0570 C   0  0  0  0  0  2  0  0  0  0  0  0
  186.5020  178.2320  137.3200 C   0  0  1  0  0  3  0  0  0  0  0  0
  184.2330  176.5510  136.6600 C   0  0  0  0  0  2  0  0  0  0  0  0
  186.2980  177.4160  136.0080 C   0  0  2  0  0  3  0  0  0  0  0  0
  184.9290  177.2680  135.6650 O   0  0  0  0  0  0  0  0  0  0  0  0
  185.3520  178.9310  139.3380 O   0  0  0  0  0  1  0  0  0  0  0  0
  185.1600  178.4590  138.0380 C   0  0  2  0  0  3  0  0  0  0  0  0
  186.5480  173.5640  135.3770 C   0  0  0  0  0  2  0  0  0  0  0  0
  186.1340  172.2600  136.0400 C   0  0  0  0  0  2  0  0  0  0  0  0
  184.8770  171.6610  135.4260 C   0  0  0  0  0  2  0  0  0  0  0  0
  183.8420  171.1730  136.4500 C   0  0  2  0  0  3  0  0  0  0  0  0
  182.8240  170.2550  135.8040 C   0  0  0  0  0  2  0  0  0  0  0  0
  183.3600  168.8380  135.7540 C   0  0  0  0  0  1  0  0  0  0  0  0
  183.1190  172.3640  137.0740 C   0  0  0  0  0  2  0  0  0  0  0  0
  181.6500  172.4460  136.6810 C   0  0  0  0  0  2  0  0  0  0  0  0
  181.1950  173.8570  136.8130 C   0  0  0  0  0  0  0  0  0  0  0  0
  180.9830  174.6800  135.7780 N   0  0  0  0  0  0  0  0  0  0  0  0
  181.0130  174.5230  138.0050 C   0  0  0  0  0  3  0  0  0  0  0  0
  180.6680  175.8440  136.3700 C   0  0  0  0  0  0  0  0  0  0  0  0
  180.6940  175.7940  137.7080 N   0  0  0  0  0  2  0  0  0  0  0  0
  180.4710  177.1030  135.6060 C   0  0  0  0  0  2  0  0  0  0  0  0
  180.3530  178.2890  136.5430 C   0  0  0  0  0  1  0  0  0  0  0  0
  1  4  1  0  0  0  0
  2 39  1  1  0  0  0
  2  1  1  0  0  0  0
  2  5  1  0  0  0  0
  3  7  1  6  0  0  0
  4  3  1  0  0  0  0
  5  3  1  0  0  0  0
  6 18  1  0  0  0  0
  7  6  1  0  0  0  0
  8  6  2  0  0  0  0
  9 11  1  0  0  0  0
  9  8  1  0  0  0  0
 10  9  2  0  0  0  0
 12 11  1  0  0  0  0
 12 13  1  0  0  0  0
 14 13  1  0  0  0  0
 14 16  1  0  0  0  0
 15 14  2  0  0  0  0
 17 19  1  0  0  0  0
 18 17  2  0  0  0  0
 19 20  1  0  0  0  0
 20 22  2  0  0  0  0
 20 21  1  0  0  0  0
 21 23  2  0  0  0  0
 22 24  1  0  0  0  0
 23 33  1  0  0  0  0
 24 23  1  0  0  0  0
 24 31  1  6  0  0  0
 25 29  1  0  0  0  0
 26 32  1  0  0  0  0
 26 25  1  0  0  0  0
 27 28  2  0  0  0  0
 29 27  1  0  0  0  0
 30 27  1  0  0  0  0
 31 30  2  0  0  0  0
 32 31  1  0  0  0  0
 33 34  1  0  0  0  0
 34 35  1  0  0  0  0
 35 37  2  0  0  0  0
 35 36  1  0  0  0  0
 35 38  1  0  0  0  0
 39 41  1  0  0  0  0
 40 41  2  0  0  0  0
 43 41  1  1  0  0  0
 43 42  1  0  0  0  0
 46 51  1  0  0  0  0
 46 44  1  1  0  0  0
 47 45  1  0  0  0  0
 48 43  1  1  0  0  0
 48 46  1  0  0  0  0
 49 48  1  0  0  0  0
 49 47  1  0  0  0  0
 51 45  1  0  0  0  0
 51 50  1  1  0  0  0
 52 53  1  0  0  0  0
 52 42  1  0  0  0  0
 54 53  1  0  0  0  0
 55 54  1  6  0  0  0
 55 58  1  0  0  0  0
 56 55  1  0  0  0  0
 57 56  1  0  0  0  0
 59 60  1  0  0  0  0
 59 58  1  0  0  0  0
 60 62  2  0  0  0  0
 61 63  2  0  0  0  0
 61 60  1  0  0  0  0
 63 64  1  0  0  0  0
 64 62  1  0  0  0  0
 65 63  1  0  0  0  0
 65 66  1  0  0  0  0
M  END
>  <MODEL>
1

>  <REMARK>
 VINA RESULT:      -6.5      0.000      0.000
  Name = 
  26 active torsions:
  status: ('A' for Active; 'I' for Inactive)
    1  A    between atoms: C_2  and  O_50
    2  A    between atoms: C_3  and  O_65
    3  A    between atoms: C_4  and  C_36
    4  A    between atoms: C_4  and  C_48
    5  A    between atoms: C_5  and  C_7
    6  A    between atoms: C_5  and  C_21
    7  A    between atoms: P_10  and  O_55
    8  A    between atoms: C_11  and  N_44
    9  A    between atoms: C_12  and  C_54
   10  A    between atoms: C_18  and  C_53
   11  A    between atoms: C_21  and  C_53
   12  A    between atoms: C_28  and  C_49
   13  A    between atoms: C_30  and  C_47
   14  A    between atoms: C_30  and  O_55
   15  A    between atoms: C_31  and  C_60
   16  A    between atoms: C_32  and  N_43
   17  A    between atoms: C_33  and  C_54
   18  A    between atoms: C_36  and  C_53
   19  A    between atoms: C_37  and  C_42
   20  A    between atoms: C_37  and  O_50
   21  A    between atoms: S_38  and  C_48
   22  A    between atoms: C_40  and  C_57
   23  A    between atoms: C_40  and  C_59
   24  A    between atoms: C_42  and  C_45
   25  A    between atoms: C_57  and  O_65
   26  A    between atoms: N_58  and  C_59
                            x       y       z     vdW  Elec       q    Type
                         _______ _______ _______ _____ _____    ______ ____

>  <TORSDO>
F 26

$$$$
=
 OpenBabel10232410133D

 66 70  0  0  1  0  0  0  0  0999 V2000
  188.4950  177.9490  136.8460 C   0  0  0  0  0  2  0  0  0  0  0  0
  188.2230  177.1990  138.1290 C   0  0  2  0  0  3  0  0  0  0  0  0
  188.9110  175.6030  136.4200 C   0  0  2  0  0  3  0  0  0  0  0  0
  189.3440  177.0120  136.0230 C   0  0  0  0  0  2  0  0  0  0  0  0
  188.1380  175.7440  137.7260 C   0  0  0  0  0  2  0  0  0  0  0  0
  191.1530  175.1780  137.5020 C   0  0  0  0  0  0  0  0  0  0  0  0
  190.0710  174.7570  136.6520 N   0  0  0  0  0  2  0  0  0  0  0  0
  192.3510  174.6520  137.3720 N   0  0  0  0  0  0  0  0  0  0  0  0
  192.7240  173.6260  136.4360 C   0  0  0  0  0  0  0  0  0  0  0  0
  191.8510  172.9060  135.8690 O   0  0  0  0  0  0  0  0  0  0  0  0
  194.1580  173.4790  136.0460 C   0  0  0  0  0  2  0  0  0  0  0  0
  194.8140  172.3130  136.7780 C   0  0  0  0  0  2  0  0  0  0  0  0
  195.0600  172.6570  138.1420 O   0  0  0  0  0  0  0  0  0  0  0  0
  195.9900  173.6380  138.5120 C   0  0  0  0  0  0  0  0  0  0  0  0
  197.2190  173.4720  138.3020 O   0  0  0  0  0  0  0  0  0  0  0  0
  195.5570  174.7820  139.1660 O   0  0  0  0  0  1  0  0  0  0  0  0
  191.7590  176.5510  139.3680 C   0  0  0  0  0  3  0  0  0  0  0  0
  190.9260  176.2420  138.4310 N   0  0  0  0  0  0  0  0  0  0  0  0
  191.4350  177.7050  140.2620 C   0  0  0  0  0  2  0  0  0  0  0  0
  191.0360  177.2770  141.6360 C   0  0  0  0  0  0  0  0  0  0  0  0
  191.6880  177.7750  142.8330 C   0  0  0  0  0  3  0  0  0  0  0  0
  189.9260  176.6660  141.8950 N   0  0  0  0  0  0  0  0  0  0  0  0
  190.9090  177.4040  143.8400 C   0  0  0  0  0  0  0  0  0  0  0  0
  189.7490  176.5980  143.3440 C   0  0  1  0  0  3  0  0  0  0  0  0
  185.3850  178.1300  143.8890 C   0  0  0  0  0  2  0  0  0  0  0  0
  186.3410  178.2590  142.7260 C   0  0  0  0  0  2  0  0  0  0  0  0
  187.0220  177.7350  145.7150 C   0  0  0  0  0  0  0  0  0  0  0  0
  186.7990  177.2530  146.8600 O   0  0  0  0  0  0  0  0  0  0  0  0
  186.0330  178.6960  145.1240 C   0  0  0  0  0  2  0  0  0  0  0  0
  188.2260  177.3560  145.0400 N   0  0  0  0  0  0  0  0  0  0  0  0
  188.4380  177.1990  143.7610 C   0  0  0  0  0  0  0  0  0  0  0  0
  187.3740  177.2420  142.7930 N   0  0  0  0  0  2  0  0  0  0  0  0
  191.2050  177.6950  145.2800 C   0  0  0  0  0  2  0  0  0  0  0  0
  192.0390  176.7090  145.7910 O   0  0  0  0  0  0  0  0  0  0  0  0
  191.4920  176.3410  147.3560 P   0  0  0  0  0  0  0  0  0  0  0  0
  191.3420  174.8490  147.5820 O   0  0  0  0  0  0  0  0  0  0  0  0
  190.0100  177.1080  147.6380 O   0  0  0  0  0  1  0  0  0  0  0  0
  192.6230  176.9220  148.4800 O   0  0  0  0  0  1  0  0  0  0  0  0
  187.0120  177.6460  138.7380 O   0  0  0  0  0  0  0  0  0  0  0  0
  186.3810  179.2540  137.1990 O   0  0  0  0  0  0  0  0  0  0  0  0
  186.0470  178.3380  138.0110 C   0  0  0  0  0  0  0  0  0  0  0  0
  184.1710  176.4460  137.6340 S   0  0  0  0  0  0  0  0  0  0  0  0
  184.6240  177.9380  138.1090 C   0  0  1  0  0  3  0  0  0  0  0  0
  183.7320  177.5830  140.7070 O   0  0  0  0  0  1  0  0  0  0  0  0
  181.0320  177.8290  139.1220 C   0  0  0  0  0  2  0  0  0  0  0  0
  183.1620  178.7360  140.1410 C   0  0  1  0  0  3  0  0  0  0  0  0
  181.6160  178.1990  137.7480 C   0  0  0  0  0  2  0  0  0  0  0  0
  183.6280  178.9350  138.6670 C   0  0  2  0  0  3  0  0  0  0  0  0
  182.5550  179.2500  137.7940 O   0  0  0  0  0  0  0  0  0  0  0  0
  181.2030  178.2340  141.4780 O   0  0  0  0  0  1  0  0  0  0  0  0
  181.6270  178.6910  140.2280 C   0  0  2  0  0  3  0  0  0  0  0  0
  184.6810  176.3660  135.9110 C   0  0  0  0  0  2  0  0  0  0  0  0
  183.4360  176.2840  135.0420 C   0  0  0  0  0  2  0  0  0  0  0  0
  182.3520  175.4040  135.6490 C   0  0  0  0  0  2  0  0  0  0  0  0
  182.1640  174.0530  134.9450 C   0  0  2  0  0  3  0  0  0  0  0  0
  181.0310  173.2640  135.5690 C   0  0  0  0  0  2  0  0  0  0  0  0
  180.9780  173.5220  137.0620 C   0  0  0  0  0  1  0  0  0  0  0  0
  183.4500  173.2350  135.0260 C   0  0  0  0  0  2  0  0  0  0  0  0
  183.8850  172.9440  136.4560 C   0  0  0  0  0  2  0  0  0  0  0  0
  185.3600  172.7420  136.4790 C   0  0  0  0  0  0  0  0  0  0  0  0
  186.1020  172.4880  135.3940 N   0  0  0  0  0  0  0  0  0  0  0  0
  186.1370  172.7070  137.6160 C   0  0  0  0  0  3  0  0  0  0  0  0
  187.3340  172.3050  135.9000 C   0  0  0  0  0  0  0  0  0  0  0  0
  187.3910  172.4090  137.2340 N   0  0  0  0  0  2  0  0  0  0  0  0
  188.4830  171.8670  135.0670 C   0  0  0  0  0  2  0  0  0  0  0  0
  188.1640  170.5710  134.3470 C   0  0  0  0  0  1  0  0  0  0  0  0
  1  2  1  0  0  0  0
  2 39  1  6  0  0  0
  3  7  1  1  0  0  0
  3  5  1  0  0  0  0
  4  3  1  0  0  0  0
  4  1  1  0  0  0  0
  5  2  1  0  0  0  0
  6 18  1  0  0  0  0
  7  6  1  0  0  0  0
  8  6  2  0  0  0  0
  9  8  1  0  0  0  0
 10  9  2  0  0  0  0
 11  9  1  0  0  0  0
 11 12  1  0  0  0  0
 12 13  1  0  0  0  0
 13 14  1  0  0  0  0
 14 16  1  0  0  0  0
 15 14  2  0  0  0  0
 17 19  1  0  0  0  0
 18 17  2  0  0  0  0
 19 20  1  0  0  0  0
 20 22  2  0  0  0  0
 20 21  1  0  0  0  0
 21 23  2  0  0  0  0
 22 24  1  0  0  0  0
 23 33  1  0  0  0  0
 24 31  1  6  0  0  0
 24 23  1  0  0  0  0
 25 29  1  0  0  0  0
 26 32  1  0  0  0  0
 26 25  1  0  0  0  0
 27 28  2  0  0  0  0
 29 27  1  0  0  0  0
 30 27  1  0  0  0  0
 31 30  2  0  0  0  0
 32 31  1  0  0  0  0
 33 34  1  0  0  0  0
 34 35  1  0  0  0  0
 35 36  2  0  0  0  0
 35 37  1  0  0  0  0
 35 38  1  0  0  0  0
 40 41  2  0  0  0  0
 41 43  1  0  0  0  0
 41 39  1  0  0  0  0
 43 42  1  1  0  0  0
 45 51  1  0  0  0  0
 46 51  1  0  0  0  0
 46 44  1  6  0  0  0
 47 49  1  0  0  0  0
 47 45  1  0  0  0  0
 48 43  1  6  0  0  0
 48 46  1  0  0  0  0
 49 48  1  0  0  0  0
 51 50  1  1  0  0  0
 52 42  1  0  0  0  0
 53 54  1  0  0  0  0
 53 52  1  0  0  0  0
 55 58  1  1  0  0  0
 55 56  1  0  0  0  0
 55 54  1  0  0  0  0
 56 57  1  0  0  0  0
 58 59  1  0  0  0  0
 59 60  1  0  0  0  0
 60 62  2  0  0  0  0
 61 63  2  0  0  0  0
 61 60  1  0  0  0  0
 63 64  1  0  0  0  0
 64 62  1  0  0  0  0
 65 63  1  0  0  0  0
 66 65  1  0  0  0  0
M  END
>  <MODEL>
2

>  <REMARK>
 VINA RESULT:      -6.0      2.105      3.829
  Name = 
  26 active torsions:
  status: ('A' for Active; 'I' for Inactive)
    1  A    between atoms: C_2  and  O_50
    2  A    between atoms: C_3  and  O_65
    3  A    between atoms: C_4  and  C_36
    4  A    between atoms: C_4  and  C_48
    5  A    between atoms: C_5  and  C_7
    6  A    between atoms: C_5  and  C_21
    7  A    between atoms: P_10  and  O_55
    8  A    between atoms: C_11  and  N_44
    9  A    between atoms: C_12  and  C_54
   10  A    between atoms: C_18  and  C_53
   11  A    between atoms: C_21  and  C_53
   12  A    between atoms: C_28  and  C_49
   13  A    between atoms: C_30  and  C_47
   14  A    between atoms: C_30  and  O_55
   15  A    between atoms: C_31  and  C_60
   16  A    between atoms: C_32  and  N_43
   17  A    between atoms: C_33  and  C_54
   18  A    between atoms: C_36  and  C_53
   19  A    between atoms: C_37  and  C_42
   20  A    between atoms: C_37  and  O_50
   21  A    between atoms: S_38  and  C_48
   22  A    between atoms: C_40  and  C_57
   23  A    between atoms: C_40  and  C_59
   24  A    between atoms: C_42  and  C_45
   25  A    between atoms: C_57  and  O_65
   26  A    between atoms: N_58  and  C_59
                            x       y       z     vdW  Elec       q    Type
                         _______ _______ _______ _____ _____    ______ ____

>  <TORSDO>
F 26

$$$$
=
 OpenBabel10232410133D

 66 70  0  0  1  0  0  0  0  0999 V2000
  188.5650  177.2360  138.2860 C   0  0  0  0  0  2  0  0  0  0  0  0
  187.2030  176.9390  137.7030 C   0  0  2  0  0  3  0  0  0  0  0  0
  188.9050  175.9820  136.2440 C   0  0  2  0  0  3  0  0  0  0  0  0
  189.4920  176.2430  137.6290 C   0  0  0  0  0  2  0  0  0  0  0  0
  187.4700  176.4930  136.2830 C   0  0  0  0  0  2  0  0  0  0  0  0
  190.0710  173.8580  135.5310 C   0  0  0  0  0  0  0  0  0  0  0  0
  188.8870  174.5570  135.9570 N   0  0  0  0  0  2  0  0  0  0  0  0
  189.9800  172.7270  134.8670 N   0  0  0  0  0  0  0  0  0  0  0  0
  188.7590  172.0540  134.5130 C   0  0  0  0  0  0  0  0  0  0  0  0
  188.7240  170.7990  134.3540 O   0  0  0  0  0  0  0  0  0  0  0  0
  187.4890  172.8360  134.4360 C   0  0  0  0  0  2  0  0  0  0  0  0
  186.2760  171.9470  134.6880 C   0  0  0  0  0  2  0  0  0  0  0  0
  185.2870  172.6560  135.4380 O   0  0  0  0  0  0  0  0  0  0  0  0
  185.2710  172.6620  136.8400 C   0  0  0  0  0  0  0  0  0  0  0  0
  186.3100  172.9340  137.4940 O   0  0  0  0  0  0  0  0  0  0  0  0
  184.1110  172.3100  137.5140 O   0  0  0  0  0  1  0  0  0  0  0  0
  192.0450  175.0200  134.8330 C   0  0  0  0  0  3  0  0  0  0  0  0
  191.3480  174.4600  135.7640 N   0  0  0  0  0  0  0  0  0  0  0  0
  193.3520  175.6480  135.1970 C   0  0  0  0  0  2  0  0  0  0  0  0
  194.0630  174.9140  136.2860 C   0  0  0  0  0  0  0  0  0  0  0  0
  193.9420  173.4800  136.4750 C   0  0  0  0  0  3  0  0  0  0  0  0
  195.0420  175.4210  136.9620 N   0  0  0  0  0  0  0  0  0  0  0  0
  194.9010  173.1540  137.3310 C   0  0  0  0  0  0  0  0  0  0  0  0
  195.6470  174.3720  137.7800 C   0  0  1  0  0  3  0  0  0  0  0  0
  199.9940  174.1950  136.1160 C   0  0  0  0  0  2  0  0  0  0  0  0
  198.7210  173.5390  135.6320 C   0  0  0  0  0  2  0  0  0  0  0  0
  199.3620  174.6010  138.4840 C   0  0  0  0  0  0  0  0  0  0  0  0
  199.9060  175.3940  139.3010 O   0  0  0  0  0  0  0  0  0  0  0  0
  200.2310  173.8090  137.5510 C   0  0  0  0  0  2  0  0  0  0  0  0
  197.9360  174.4780  138.5000 N   0  0  0  0  0  0  0  0  0  0  0  0
  197.1190  174.2500  137.5080 C   0  0  0  0  0  0  0  0  0  0  0  0
  197.5560  174.2410  136.1370 N   0  0  0  0  0  2  0  0  0  0  0  0
  195.1420  171.7610  137.8280 C   0  0  0  0  0  2  0  0  0  0  0  0
  194.7820  170.8480  136.8450 O   0  0  0  0  0  0  0  0  0  0  0  0
  196.2130  170.2720  136.1370 P   0  0  0  0  0  0  0  0  0  0  0  0
  197.4260  170.4870  137.0210 O   0  0  0  0  0  1  0  0  0  0  0  0
  196.4590  171.0320  134.6440 O   0  0  0  0  0  0  0  0  0  0  0  0
  196.0570  168.6020  135.8720 O   0  0  0  0  0  1  0  0  0  0  0  0
  186.3650  178.0940  137.7410 O   0  0  0  0  0  0  0  0  0  0  0  0
  186.1580  179.1510  139.7890 O   0  0  0  0  0  0  0  0  0  0  0  0
  185.6420  178.4270  138.8840 C   0  0  0  0  0  0  0  0  0  0  0  0
  183.3440  178.5090  140.2830 S   0  0  0  0  0  0  0  0  0  0  0  0
  184.2230  178.0170  139.0020 C   0  0  1  0  0  3  0  0  0  0  0  0
  182.0510  179.0060  137.5960 O   0  0  0  0  0  1  0  0  0  0  0  0
  181.0040  176.1910  138.5120 C   0  0  0  0  0  2  0  0  0  0  0  0
  182.4240  177.7430  137.1070 C   0  0  1  0  0  3  0  0  0  0  0  0
  182.3120  175.6540  139.1150 C   0  0  0  0  0  2  0  0  0  0  0  0
  183.6260  177.1550  137.9080 C   0  0  2  0  0  3  0  0  0  0  0  0
  183.4300  175.7970  138.2660 O   0  0  0  0  0  0  0  0  0  0  0  0
  180.0660  177.3930  136.6610 O   0  0  0  0  0  1  0  0  0  0  0  0
  181.2300  176.7730  137.1220 C   0  0  2  0  0  3  0  0  0  0  0  0
  184.2520  177.8770  141.7010 C   0  0  0  0  0  2  0  0  0  0  0  0
  184.4690  179.0170  142.6830 C   0  0  0  0  0  2  0  0  0  0  0  0
  184.4120  178.5620  144.1350 C   0  0  0  0  0  2  0  0  0  0  0  0
  185.7030  177.9080  144.6460 C   0  0  2  0  0  3  0  0  0  0  0  0
  186.1450  178.5220  145.9590 C   0  0  0  0  0  2  0  0  0  0  0  0
  186.6150  177.4370  146.9080 C   0  0  0  0  0  1  0  0  0  0  0  0
  186.8180  178.0700  143.6150 C   0  0  0  0  0  2  0  0  0  0  0  0
  188.2100  178.0500  144.2320 C   0  0  0  0  0  2  0  0  0  0  0  0
  189.1660  177.4830  143.2410 C   0  0  0  0  0  0  0  0  0  0  0  0
  189.8350  178.2110  142.3390 N   0  0  0  0  0  0  0  0  0  0  0  0
  189.4240  176.1410  143.0680 C   0  0  0  0  0  3  0  0  0  0  0  0
  190.5000  177.2850  141.6270 C   0  0  0  0  0  0  0  0  0  0  0  0
  190.2630  176.0270  142.0240 N   0  0  0  0  0  2  0  0  0  0  0  0
  191.2900  177.6210  140.4150 C   0  0  0  0  0  2  0  0  0  0  0  0
  192.6720  177.0010  140.4840 C   0  0  0  0  0  1  0  0  0  0  0  0
  2 39  1  6  0  0  0
  2  1  1  0  0  0  0
  3  7  1  1  0  0  0
  3  5  1  0  0  0  0
  3  4  1  0  0  0  0
  4  1  1  0  0  0  0
  5  2  1  0  0  0  0
  6 18  1  0  0  0  0
  6  7  1  0  0  0  0
  8  6  2  0  0  0  0
  9  8  1  0  0  0  0
 10  9  2  0  0  0  0
 11  9  1  0  0  0  0
 11 12  1  0  0  0  0
 12 13  1  0  0  0  0
 13 14  1  0  0  0  0
 14 15  2  0  0  0  0
 14 16  1  0  0  0  0
 17 19  1  0  0  0  0
 17 18  2  0  0  0  0
 19 20  1  0  0  0  0
 20 21  1  0  0  0  0
 20 22  2  0  0  0  0
 21 23  2  0  0  0  0
 22 24  1  0  0  0  0
 23 24  1  0  0  0  0
 23 33  1  0  0  0  0
 24 31  1  6  0  0  0
 25 29  1  0  0  0  0
 26 25  1  0  0  0  0
 26 32  1  0  0  0  0
 27 30  1  0  0  0  0
 27 28  2  0  0  0  0
 29 27  1  0  0  0  0
 31 30  2  0  0  0  0
 32 31  1  0  0  0  0
 34 33  1  0  0  0  0
 35 34  1  0  0  0  0
 35 36  1  0  0  0  0
 37 35  2  0  0  0  0
 38 35  1  0  0  0  0
 39 41  1  0  0  0  0
 41 40  2  0  0  0  0
 42 52  1  0  0  0  0
 43 41  1  6  0  0  0
 43 42  1  0  0  0  0
 45 47  1  0  0  0  0
 46 51  1  0  0  0  0
 46 44  1  1  0  0  0
 46 48  1  0  0  0  0
 48 49  1  0  0  0  0
 48 43  1  1  0  0  0
 49 47  1  0  0  0  0
 51 50  1  1  0  0  0
 51 45  1  0  0  0  0
 52 53  1  0  0  0  0
 53 54  1  0  0  0  0
 54 55  1  0  0  0  0
 55 58  1  6  0  0  0
 55 56  1  0  0  0  0
 56 57  1  0  0  0  0
 58 59  1  0  0  0  0
 60 59  1  0  0  0  0
 61 60  1  0  0  0  0
 62 60  2  0  0  0  0
 63 64  1  0  0  0  0
 63 61  2  0  0  0  0
 64 62  1  0  0  0  0
 65 66  1  0  0  0  0
 65 63  1  0  0  0  0
M  END
>  <MODEL>
3

>  <REMARK>
 VINA RESULT:      -5.7      3.930      9.942
  Name = 
  26 active torsions:
  status: ('A' for Active; 'I' for Inactive)
    1  A    between atoms: C_2  and  O_50
    2  A    between atoms: C_3  and  O_65
    3  A    between atoms: C_4  and  C_36
    4  A    between atoms: C_4  and  C_48
    5  A    between atoms: C_5  and  C_7
    6  A    between atoms: C_5  and  C_21
    7  A    between atoms: P_10  and  O_55
    8  A    between atoms: C_11  and  N_44
    9  A    between atoms: C_12  and  C_54
   10  A    between atoms: C_18  and  C_53
   11  A    between atoms: C_21  and  C_53
   12  A    between atoms: C_28  and  C_49
   13  A    between atoms: C_30  and  C_47
   14  A    between atoms: C_30  and  O_55
   15  A    between atoms: C_31  and  C_60
   16  A    between atoms: C_32  and  N_43
   17  A    between atoms: C_33  and  C_54
   18  A    between atoms: C_36  and  C_53
   19  A    between atoms: C_37  and  C_42
   20  A    between atoms: C_37  and  O_50
   21  A    between atoms: S_38  and  C_48
   22  A    between atoms: C_40  and  C_57
   23  A    between atoms: C_40  and  C_59
   24  A    between atoms: C_42  and  C_45
   25  A    between atoms: C_57  and  O_65
   26  A    between atoms: N_58  and  C_59
                            x       y       z     vdW  Elec       q    Type
                         _______ _______ _______ _____ _____    ______ ____

>  <TORSDO>
F 26

$$$$
=
 OpenBabel10232410133D

 66 70  0  0  1  0  0  0  0  0999 V2000
  189.1690  176.9710  138.7870 C   0  0  0  0  0  2  0  0  0  0  0  0
  187.7490  176.7960  138.3040 C   0  0  2  0  0  3  0  0  0  0  0  0
  189.2510  175.6660  136.7500 C   0  0  2  0  0  3  0  0  0  0  0  0
  189.9530  175.8880  138.0870 C   0  0  0  0  0  2  0  0  0  0  0  0
  187.8750  176.3100  136.8770 C   0  0  0  0  0  2  0  0  0  0  0  0
  190.0430  173.4990  135.7240 C   0  0  0  0  0  0  0  0  0  0  0  0
  189.0810  174.2450  136.4910 N   0  0  0  0  0  2  0  0  0  0  0  0
  189.7010  172.3790  135.1270 N   0  0  0  0  0  0  0  0  0  0  0  0
  188.4010  171.7630  135.1720 C   0  0  0  0  0  0  0  0  0  0  0  0
  188.1560  170.8050  135.9620 O   0  0  0  0  0  0  0  0  0  0  0  0
  187.2930  172.3330  134.3490 C   0  0  0  0  0  2  0  0  0  0  0  0
  185.9460  172.1680  135.0440 C   0  0  0  0  0  2  0  0  0  0  0  0
  185.9180  172.9190  136.2590 O   0  0  0  0  0  0  0  0  0  0  0  0
  185.0090  172.6440  137.2900 C   0  0  0  0  0  0  0  0  0  0  0  0
  185.1260  173.1960  138.4140 O   0  0  0  0  0  1  0  0  0  0  0  0
  184.0020  171.7120  137.0860 O   0  0  0  0  0  0  0  0  0  0  0  0
  191.5890  175.1150  134.8690 C   0  0  0  0  0  3  0  0  0  0  0  0
  191.3540  174.0420  135.5470 N   0  0  0  0  0  0  0  0  0  0  0  0
  192.9960  175.6110  134.7770 C   0  0  0  0  0  2  0  0  0  0  0  0
  193.8820  175.0340  135.8320 C   0  0  0  0  0  0  0  0  0  0  0  0
  193.8400  173.6340  136.2140 C   0  0  0  0  0  3  0  0  0  0  0  0
  194.9300  175.6390  136.2880 N   0  0  0  0  0  0  0  0  0  0  0  0
  194.9230  173.4360  136.9530 C   0  0  0  0  0  0  0  0  0  0  0  0
  195.6830  174.7130  137.1310 C   0  0  1  0  0  3  0  0  0  0  0  0
  199.9360  175.0590  135.2630 C   0  0  0  0  0  2  0  0  0  0  0  0
  198.5660  175.1550  134.6320 C   0  0  0  0  0  2  0  0  0  0  0  0
  199.3480  173.7690  137.3040 C   0  0  0  0  0  0  0  0  0  0  0  0
  200.0250  173.6500  138.3620 O   0  0  0  0  0  0  0  0  0  0  0  0
  200.0550  173.7410  135.9800 C   0  0  0  0  0  2  0  0  0  0  0  0
  197.9280  173.9050  137.4160 N   0  0  0  0  0  0  0  0  0  0  0  0
  197.1040  174.5820  136.6630 C   0  0  0  0  0  0  0  0  0  0  0  0
  197.5600  175.4720  135.6280 N   0  0  0  0  0  2  0  0  0  0  0  0
  195.2820  172.1220  137.5780 C   0  0  0  0  0  2  0  0  0  0  0  0
  194.3460  171.1630  137.2110 O   0  0  0  0  0  0  0  0  0  0  0  0
  195.1600  169.6770  137.0960 P   0  0  0  0  0  0  0  0  0  0  0  0
  195.6480  169.3900  135.6900 O   0  0  0  0  0  0  0  0  0  0  0  0
  194.1400  168.4260  137.6070 O   0  0  0  0  0  1  0  0  0  0  0  0
  196.5160  169.7180  138.1160 O   0  0  0  0  0  1  0  0  0  0  0  0
  187.0260  178.0240  138.3770 O   0  0  0  0  0  0  0  0  0  0  0  0
  187.1800  178.8810  140.5210 O   0  0  0  0  0  0  0  0  0  0  0  0
  186.4530  178.4570  139.5710 C   0  0  0  0  0  0  0  0  0  0  0  0
  184.3110  179.0880  141.0730 S   0  0  0  0  0  0  0  0  0  0  0  0
  184.9780  178.5200  139.6990 C   0  0  1  0  0  3  0  0  0  0  0  0
  182.9410  180.1830  138.8300 O   0  0  0  0  0  1  0  0  0  0  0  0
  181.4280  177.4620  139.2390 C   0  0  0  0  0  2  0  0  0  0  0  0
  183.0100  179.0270  138.0350 C   0  0  1  0  0  3  0  0  0  0  0  0
  182.6480  176.5740  139.5390 C   0  0  0  0  0  2  0  0  0  0  0  0
  184.1310  178.0630  138.5290 C   0  0  2  0  0  3  0  0  0  0  0  0
  183.6960  176.7150  138.6070 O   0  0  0  0  0  0  0  0  0  0  0  0
  180.6010  179.2150  137.8290 O   0  0  0  0  0  1  0  0  0  0  0  0
  181.6500  178.3080  137.9910 C   0  0  2  0  0  3  0  0  0  0  0  0
  184.9610  178.0020  142.3510 C   0  0  0  0  0  2  0  0  0  0  0  0
  185.4360  178.8560  143.5150 C   0  0  0  0  0  2  0  0  0  0  0  0
  185.2920  178.1530  144.8580 C   0  0  0  0  0  2  0  0  0  0  0  0
  186.5720  177.4670  145.3550 C   0  0  2  0  0  3  0  0  0  0  0  0
  186.9320  177.9260  146.7530 C   0  0  0  0  0  2  0  0  0  0  0  0
  185.7770  178.6980  147.3600 C   0  0  0  0  0  1  0  0  0  0  0  0
  187.7320  177.7730  144.4110 C   0  0  0  0  0  2  0  0  0  0  0  0
  188.8720  178.5230  145.0880 C   0  0  0  0  0  2  0  0  0  0  0  0
  190.0220  177.5930  145.2640 C   0  0  0  0  0  0  0  0  0  0  0  0
  190.1490  176.7380  146.2860 N   0  0  0  0  0  0  0  0  0  0  0  0
  191.1350  177.5490  144.4530 C   0  0  0  0  0  3  0  0  0  0  0  0
  191.3530  176.1790  146.0710 C   0  0  0  0  0  0  0  0  0  0  0  0
  191.9840  176.6550  144.9890 N   0  0  0  0  0  2  0  0  0  0  0  0
  191.9850  175.2450  147.0370 C   0  0  0  0  0  2  0  0  0  0  0  0
  192.6820  176.0070  148.1470 C   0  0  0  0  0  1  0  0  0  0  0  0
  2 39  1  6  0  0  0
  2  1  1  0  0  0  0
  3  7  1  1  0  0  0
  3  5  1  0  0  0  0
  3  4  1  0  0  0  0
  4  1  1  0  0  0  0
  5  2  1  0  0  0  0
  6  7  1  0  0  0  0
  8  9  1  0  0  0  0
  8  6  2  0  0  0  0
  9 10  2  0  0  0  0
 11 12  1  0  0  0  0
 11  9  1  0  0  0  0
 12 13  1  0  0  0  0
 13 14  1  0  0  0  0
 14 15  1  0  0  0  0
 16 14  2  0  0  0  0
 17 18  2  0  0  0  0
 18  6  1  0  0  0  0
 19 17  1  0  0  0  0
 19 20  1  0  0  0  0
 20 21  1  0  0  0  0
 20 22  2  0  0  0  0
 21 23  2  0  0  0  0
 22 24  1  0  0  0  0
 23 24  1  0  0  0  0
 23 33  1  0  0  0  0
 24 31  1  6  0  0  0
 25 29  1  0  0  0  0
 26 25  1  0  0  0  0
 26 32  1  0  0  0  0
 27 30  1  0  0  0  0
 27 28  2  0  0  0  0
 29 27  1  0  0  0  0
 31 30  2  0  0  0  0
 32 31  1  0  0  0  0
 34 33  1  0  0  0  0
 35 34  1  0  0  0  0
 35 37  1  0  0  0  0
 35 38  1  0  0  0  0
 36 35  2  0  0  0  0
 39 41  1  0  0  0  0
 41 40  2  0  0  0  0
 42 52  1  0  0  0  0
 43 41  1  6  0  0  0
 43 42  1  0  0  0  0
 45 47  1  0  0  0  0
 46 48  1  0  0  0  0
 46 44  1  1  0  0  0
 48 49  1  0  0  0  0
 48 43  1  1  0  0  0
 49 47  1  0  0  0  0
 51 50  1  1  0  0  0
 51 46  1  0  0  0  0
 51 45  1  0  0  0  0
 52 53  1  0  0  0  0
 53 54  1  0  0  0  0
 54 55  1  0  0  0  0
 55 58  1  6  0  0  0
 55 56  1  0  0  0  0
 56 57  1  0  0  0  0
 58 59  1  0  0  0  0
 59 60  1  0  0  0  0
 60 61  1  0  0  0  0
 62 64  1  0  0  0  0
 62 60  2  0  0  0  0
 63 61  2  0  0  0  0
 63 65  1  0  0  0  0
 64 63  1  0  0  0  0
 65 66  1  0  0  0  0
M  END
>  <MODEL>
4

>  <REMARK>
 VINA RESULT:      -5.6      3.908     10.473
  Name = 
  26 active torsions:
  status: ('A' for Active; 'I' for Inactive)
    1  A    between atoms: C_2  and  O_50
    2  A    between atoms: C_3  and  O_65
    3  A    between atoms: C_4  and  C_36
    4  A    between atoms: C_4  and  C_48
    5  A    between atoms: C_5  and  C_7
    6  A    between atoms: C_5  and  C_21
    7  A    between atoms: P_10  and  O_55
    8  A    between atoms: C_11  and  N_44
    9  A    between atoms: C_12  and  C_54
   10  A    between atoms: C_18  and  C_53
   11  A    between atoms: C_21  and  C_53
   12  A    between atoms: C_28  and  C_49
   13  A    between atoms: C_30  and  C_47
   14  A    between atoms: C_30  and  O_55
   15  A    between atoms: C_31  and  C_60
   16  A    between atoms: C_32  and  N_43
   17  A    between atoms: C_33  and  C_54
   18  A    between atoms: C_36  and  C_53
   19  A    between atoms: C_37  and  C_42
   20  A    between atoms: C_37  and  O_50
   21  A    between atoms: S_38  and  C_48
   22  A    between atoms: C_40  and  C_57
   23  A    between atoms: C_40  and  C_59
   24  A    between atoms: C_42  and  C_45
   25  A    between atoms: C_57  and  O_65
   26  A    between atoms: N_58  and  C_59
                            x       y       z     vdW  Elec       q    Type
                         _______ _______ _______ _____ _____    ______ ____

>  <TORSDO>
F 26

$$$$
=
 OpenBabel10232410133D

 66 70  0  0  1  0  0  0  0  0999 V2000
  187.0240  179.1070  140.7910 C   0  0  0  0  0  2  0  0  0  0  0  0
  185.9820  178.5150  139.8710 C   0  0  2  0  0  3  0  0  0  0  0  0
  185.2100  178.2960  142.1730 C   0  0  2  0  0  3  0  0  0  0  0  0
  186.2950  179.3660  142.0860 C   0  0  0  0  0  2  0  0  0  0  0  0
  185.0700  177.7130  140.7720 C   0  0  0  0  0  2  0  0  0  0  0  0
  183.3400  178.6040  143.8420 C   0  0  0  0  0  0  0  0  0  0  0  0
  183.9400  178.8850  142.5650 N   0  0  0  0  0  2  0  0  0  0  0  0
  182.0480  178.7570  144.0240 N   0  0  0  0  0  0  0  0  0  0  0  0
  181.1070  179.2240  143.0400 C   0  0  0  0  0  0  0  0  0  0  0  0
  181.0450  180.4470  142.7210 O   0  0  0  0  0  0  0  0  0  0  0  0
  180.2640  178.2330  142.3070 C   0  0  0  0  0  2  0  0  0  0  0  0
  180.0030  178.6830  140.8740 C   0  0  0  0  0  2  0  0  0  0  0  0
  181.2360  178.9330  140.1970 O   0  0  0  0  0  0  0  0  0  0  0  0
  181.3610  179.9110  139.2020 C   0  0  0  0  0  0  0  0  0  0  0  0
  180.5170  180.8390  139.1020 O   0  0  0  0  0  1  0  0  0  0  0  0
  182.3950  179.8250  138.2810 O   0  0  0  0  0  0  0  0  0  0  0  0
  184.0810  178.4540  146.1150 C   0  0  0  0  0  3  0  0  0  0  0  0
  184.1590  178.0680  144.8860 N   0  0  0  0  0  0  0  0  0  0  0  0
  184.9630  177.8000  147.1290 C   0  0  0  0  0  2  0  0  0  0  0  0
  186.4040  178.1550  146.9560 C   0  0  0  0  0  0  0  0  0  0  0  0
  187.4570  177.5880  147.7780 C   0  0  0  0  0  3  0  0  0  0  0  0
  186.8650  178.7620  145.9110 N   0  0  0  0  0  0  0  0  0  0  0  0
  188.5910  177.9100  147.1710 C   0  0  0  0  0  0  0  0  0  0  0  0
  188.3250  178.7520  145.9630 C   0  0  1  0  0  3  0  0  0  0  0  0
  190.8990  177.1550  142.4240 C   0  0  0  0  0  2  0  0  0  0  0  0
  190.8180  178.5280  143.0490 C   0  0  0  0  0  2  0  0  0  0  0  0
  188.6900  176.2610  143.1310 C   0  0  0  0  0  0  0  0  0  0  0  0
  188.3220  175.0550  143.1640 O   0  0  0  0  0  0  0  0  0  0  0  0
  189.5230  176.7370  141.9770 C   0  0  0  0  0  2  0  0  0  0  0  0
  188.2760  177.1290  144.1920 N   0  0  0  0  0  0  0  0  0  0  0  0
  188.9100  178.1400  144.7220 C   0  0  0  0  0  0  0  0  0  0  0  0
  190.2750  178.4520  144.3920 N   0  0  0  0  0  2  0  0  0  0  0  0
  189.9500  177.5370  147.6830 C   0  0  0  0  0  2  0  0  0  0  0  0
  190.1990  176.1990  147.4060 O   0  0  0  0  0  0  0  0  0  0  0  0
  191.8090  176.0800  146.8800 P   0  0  0  0  0  0  0  0  0  0  0  0
  192.2560  177.3000  146.0990 O   0  0  0  0  0  1  0  0  0  0  0  0
  191.9970  174.6960  145.9230 O   0  0  0  0  0  0  0  0  0  0  0  0
  192.8180  175.9380  148.2380 O   0  0  0  0  0  1  0  0  0  0  0  0
  186.5850  177.6950  138.8710 O   0  0  0  0  0  0  0  0  0  0  0  0
  187.1730  179.0900  137.1210 O   0  0  0  0  0  0  0  0  0  0  0  0
  186.5600  178.0550  137.5260 C   0  0  0  0  0  0  0  0  0  0  0  0
  186.7220  175.9310  135.8820 S   0  0  0  0  0  0  0  0  0  0  0  0
  185.8950  177.1710  136.5400 C   0  0  1  0  0  3  0  0  0  0  0  0
  183.9210  175.9260  138.0320 O   0  0  0  0  0  1  0  0  0  0  0  0
  183.0870  175.1780  135.0980 C   0  0  0  0  0  2  0  0  0  0  0  0
  183.3520  176.7600  137.0540 C   0  0  1  0  0  3  0  0  0  0  0  0
  184.1130  176.0450  134.3490 C   0  0  0  0  0  2  0  0  0  0  0  0
  184.4480  177.4450  136.1830 C   0  0  2  0  0  3  0  0  0  0  0  0
  184.1600  177.3820  134.7960 O   0  0  0  0  0  0  0  0  0  0  0  0
  181.5550  175.1350  136.9410 O   0  0  0  0  0  1  0  0  0  0  0  0
  182.3620  175.9770  136.1730 C   0  0  2  0  0  3  0  0  0  0  0  0
  188.1350  176.7200  135.0970 C   0  0  0  0  0  2  0  0  0  0  0  0
  189.3860  175.9310  135.4490 C   0  0  0  0  0  2  0  0  0  0  0  0
  189.2070  175.0660  136.6890 C   0  0  0  0  0  2  0  0  0  0  0  0
  190.2720  175.2840  137.7730 C   0  0  2  0  0  3  0  0  0  0  0  0
  189.8110  176.3040  138.7950 C   0  0  0  0  0  2  0  0  0  0  0  0
  190.2480  177.6940  138.3750 C   0  0  0  0  0  1  0  0  0  0  0  0
  191.5760  175.7610  137.1400 C   0  0  0  0  0  2  0  0  0  0  0  0
  192.5830  174.6400  136.9250 C   0  0  0  0  0  2  0  0  0  0  0  0
  193.5870  175.0800  135.9180 C   0  0  0  0  0  0  0  0  0  0  0  0
  194.8250  174.5800  135.8200 N   0  0  0  0  0  0  0  0  0  0  0  0
  193.4070  176.1080  135.0180 C   0  0  0  0  0  3  0  0  0  0  0  0
  195.3800  175.3200  134.8450 C   0  0  0  0  0  0  0  0  0  0  0  0
  194.5650  176.2620  134.3510 N   0  0  0  0  0  2  0  0  0  0  0  0
  196.8130  175.2060  134.4710 C   0  0  0  0  0  2  0  0  0  0  0  0
  197.7040  175.4480  135.6750 C   0  0  0  0  0  1  0  0  0  0  0  0
  1  4  1  0  0  0  0
  2 39  1  6  0  0  0
  2  5  1  0  0  0  0
  2  1  1  0  0  0  0
  3  7  1  6  0  0  0
  4  3  1  0  0  0  0
  5  3  1  0  0  0  0
  6  8  2  0  0  0  0
  6 18  1  0  0  0  0
  7  6  1  0  0  0  0
  9  8  1  0  0  0  0
 10  9  2  0  0  0  0
 11  9  1  0  0  0  0
 12 11  1  0  0  0  0
 13 12  1  0  0  0  0
 14 13  1  0  0  0  0
 15 14  1  0  0  0  0
 16 14  2  0  0  0  0
 17 19  1  0  0  0  0
 18 17  2  0  0  0  0
 20 19  1  0  0  0  0
 20 21  1  0  0  0  0
 22 24  1  0  0  0  0
 22 20  2  0  0  0  0
 23 33  1  0  0  0  0
 23 21  2  0  0  0  0
 24 31  1  6  0  0  0
 24 23  1  0  0  0  0
 25 26  1  0  0  0  0
 26 32  1  0  0  0  0
 27 28  2  0  0  0  0
 27 30  1  0  0  0  0
 29 25  1  0  0  0  0
 29 27  1  0  0  0  0
 30 31  2  0  0  0  0
 32 31  1  0  0  0  0
 34 33  1  0  0  0  0
 35 34  1  0  0  0  0
 35 38  1  0  0  0  0
 36 35  1  0  0  0  0
 37 35  2  0  0  0  0
 40 41  2  0  0  0  0
 41 39  1  0  0  0  0
 43 42  1  1  0  0  0
 43 41  1  0  0  0  0
 45 51  1  0  0  0  0
 46 44  1  1  0  0  0
 47 49  1  0  0  0  0
 47 45  1  0  0  0  0
 48 43  1  6  0  0  0
 48 46  1  0  0  0  0
 49 48  1  0  0  0  0
 51 50  1  1  0  0  0
 51 46  1  0  0  0  0
 52 53  1  0  0  0  0
 52 42  1  0  0  0  0
 53 54  1  0  0  0  0
 55 54  1  6  0  0  0
 55 56  1  0  0  0  0
 57 56  1  0  0  0  0
 58 55  1  0  0  0  0
 59 58  1  0  0  0  0
 60 59  1  0  0  0  0
 61 60  1  0  0  0  0
 62 60  2  0  0  0  0
 63 61  2  0  0  0  0
 64 63  1  0  0  0  0
 64 62  1  0  0  0  0
 65 63  1  0  0  0  0
 65 66  1  0  0  0  0
M  END
>  <MODEL>
5

>  <REMARK>
 VINA RESULT:      -5.6      3.770      9.688
  Name = 
  26 active torsions:
  status: ('A' for Active; 'I' for Inactive)
    1  A    between atoms: C_2  and  O_50
    2  A    between atoms: C_3  and  O_65
    3  A    between atoms: C_4  and  C_36
    4  A    between atoms: C_4  and  C_48
    5  A    between atoms: C_5  and  C_7
    6  A    between atoms: C_5  and  C_21
    7  A    between atoms: P_10  and  O_55
    8  A    between atoms: C_11  and  N_44
    9  A    between atoms: C_12  and  C_54
   10  A    between atoms: C_18  and  C_53
   11  A    between atoms: C_21  and  C_53
   12  A    between atoms: C_28  and  C_49
   13  A    between atoms: C_30  and  C_47
   14  A    between atoms: C_30  and  O_55
   15  A    between atoms: C_31  and  C_60
   16  A    between atoms: C_32  and  N_43
   17  A    between atoms: C_33  and  C_54
   18  A    between atoms: C_36  and  C_53
   19  A    between atoms: C_37  and  C_42
   20  A    between atoms: C_37  and  O_50
   21  A    between atoms: S_38  and  C_48
   22  A    between atoms: C_40  and  C_57
   23  A    between atoms: C_40  and  C_59
   24  A    between atoms: C_42  and  C_45
   25  A    between atoms: C_57  and  O_65
   26  A    between atoms: N_58  and  C_59
                            x       y       z     vdW  Elec       q    Type
                         _______ _______ _______ _____ _____    ______ ____

>  <TORSDO>
F 26

$$$$
=
 OpenBabel10232410133D

 66 70  0  0  1  0  0  0  0  0999 V2000
  186.4460  178.2450  139.0140 C   0  0  0  0  0  2  0  0  0  0  0  0
  187.1980  177.0920  138.3940 C   0  0  2  0  0  3  0  0  0  0  0  0
  188.7970  178.5700  139.4890 C   0  0  2  0  0  3  0  0  0  0  0  0
  187.3950  178.8200  140.0370 C   0  0  0  0  0  2  0  0  0  0  0  0
  188.6490  177.5190  138.3960 C   0  0  0  0  0  2  0  0  0  0  0  0
  190.4500  176.8540  140.3270 C   0  0  0  0  0  0  0  0  0  0  0  0
  189.6670  178.0440  140.5290 N   0  0  0  0  0  2  0  0  0  0  0  0
  190.8710  176.1460  141.3510 N   0  0  0  0  0  0  0  0  0  0  0  0
  190.6450  176.4540  142.7380 C   0  0  0  0  0  0  0  0  0  0  0  0
  191.5090  177.0780  143.4210 O   0  0  0  0  0  0  0  0  0  0  0  0
  189.3250  176.1260  143.3550 C   0  0  0  0  0  2  0  0  0  0  0  0
  189.1550  176.8190  144.7020 C   0  0  0  0  0  2  0  0  0  0  0  0
  187.7910  176.7600  145.1230 O   0  0  0  0  0  0  0  0  0  0  0  0
  187.1360  177.8580  145.6960 C   0  0  0  0  0  0  0  0  0  0  0  0
  187.3530  178.1870  146.8910 O   0  0  0  0  0  1  0  0  0  0  0  0
  186.1940  178.5580  144.9550 O   0  0  0  0  0  0  0  0  0  0  0  0
  191.7880  176.6240  138.3540 C   0  0  0  0  0  3  0  0  0  0  0  0
  190.6860  176.4030  138.9900 N   0  0  0  0  0  0  0  0  0  0  0  0
  191.9390  176.0770  136.9710 C   0  0  0  0  0  2  0  0  0  0  0  0
  192.6550  174.7670  136.9430 C   0  0  0  0  0  0  0  0  0  0  0  0
  192.5110  173.8160  135.8570 C   0  0  0  0  0  3  0  0  0  0  0  0
  193.6560  174.4880  137.7140 N   0  0  0  0  0  0  0  0  0  0  0  0
  193.4790  172.9270  136.0330 C   0  0  0  0  0  0  0  0  0  0  0  0
  194.2560  173.2300  137.2760 C   0  0  1  0  0  3  0  0  0  0  0  0
  198.6870  174.5470  136.7040 C   0  0  0  0  0  2  0  0  0  0  0  0
  197.3950  175.2150  136.2940 C   0  0  0  0  0  2  0  0  0  0  0  0
  197.8840  172.2040  136.9020 C   0  0  0  0  0  0  0  0  0  0  0  0
  198.4410  171.2470  137.5070 O   0  0  0  0  0  0  0  0  0  0  0  0
  198.7320  173.1610  136.1170 C   0  0  0  0  0  2  0  0  0  0  0  0
  196.4590  172.3190  136.9760 N   0  0  0  0  0  0  0  0  0  0  0  0
  195.7200  173.3960  136.9860 C   0  0  0  0  0  0  0  0  0  0  0  0
  196.2840  174.7160  137.0840 N   0  0  0  0  0  2  0  0  0  0  0  0
  193.7020  171.7430  135.1420 C   0  0  0  0  0  2  0  0  0  0  0  0
  192.9810  170.6570  135.6240 O   0  0  0  0  0  0  0  0  0  0  0  0
  194.0940  169.4240  135.9750 P   0  0  0  0  0  0  0  0  0  0  0  0
  195.3970  169.5840  135.2170 O   0  0  0  0  0  0  0  0  0  0  0  0
  193.4110  167.9170  135.6140 O   0  0  0  0  0  1  0  0  0  0  0  0
  194.4530  169.4690  137.6340 O   0  0  0  0  0  1  0  0  0  0  0  0
  186.7320  176.8260  137.0710 O   0  0  0  0  0  0  0  0  0  0  0  0
  185.9310  174.7160  137.5810 O   0  0  0  0  0  0  0  0  0  0  0  0
  186.2830  175.5600  136.7020 C   0  0  0  0  0  0  0  0  0  0  0  0
  184.8490  175.8220  134.4400 S   0  0  0  0  0  0  0  0  0  0  0  0
  186.1200  175.2270  135.2670 C   0  0  1  0  0  3  0  0  0  0  0  0
  185.6660  172.4960  135.1890 O   0  0  0  0  0  1  0  0  0  0  0  0
  188.5450  172.6400  136.4340 C   0  0  0  0  0  2  0  0  0  0  0  0
  186.8730  172.8160  134.5440 C   0  0  1  0  0  3  0  0  0  0  0  0
  188.7810  174.1510  136.2720 C   0  0  0  0  0  2  0  0  0  0  0  0
  187.1610  174.3470  134.6060 C   0  0  2  0  0  3  0  0  0  0  0  0
  188.5000  174.6340  134.9770 O   0  0  0  0  0  0  0  0  0  0  0  0
  187.6890  170.6800  135.3520 O   0  0  0  0  0  1  0  0  0  0  0  0
  188.0430  172.0140  135.1390 C   0  0  2  0  0  3  0  0  0  0  0  0
  183.4200  175.2120  135.3450 C   0  0  0  0  0  2  0  0  0  0  0  0
  182.4190  174.6520  134.3470 C   0  0  0  0  0  2  0  0  0  0  0  0
  181.4420  173.6710  134.9800 C   0  0  0  0  0  2  0  0  0  0  0  0
  181.8610  173.1650  136.3670 C   0  0  2  0  0  3  0  0  0  0  0  0
  181.9370  171.6520  136.3970 C   0  0  0  0  0  2  0  0  0  0  0  0
  183.1770  171.2080  137.1480 C   0  0  0  0  0  1  0  0  0  0  0  0
  180.8640  173.6390  137.4230 C   0  0  0  0  0  2  0  0  0  0  0  0
  180.0420  174.8380  136.9740 C   0  0  0  0  0  2  0  0  0  0  0  0
  180.5100  176.0450  137.7100 C   0  0  0  0  0  0  0  0  0  0  0  0
  180.8500  176.0530  139.0050 N   0  0  0  0  0  0  0  0  0  0  0  0
  180.5750  177.3170  137.1840 C   0  0  0  0  0  3  0  0  0  0  0  0
  181.1230  177.3470  139.2430 C   0  0  0  0  0  0  0  0  0  0  0  0
  180.9510  178.1410  138.1780 N   0  0  0  0  0  2  0  0  0  0  0  0
  181.4270  177.8630  140.6030 C   0  0  0  0  0  2  0  0  0  0  0  0
  180.6050  179.1000  140.9060 C   0  0  0  0  0  1  0  0  0  0  0  0
  1  4  1  0  0  0  0
  2 39  1  6  0  0  0
  2  5  1  0  0  0  0
  2  1  1  0  0  0  0
  3  4  1  0  0  0  0
  3  7  1  1  0  0  0
  5  3  1  0  0  0  0
  6  7  1  0  0  0  0
  6  8  2  0  0  0  0
  8  9  1  0  0  0  0
  9 11  1  0  0  0  0
  9 10  2  0  0  0  0
 11 12  1  0  0  0  0
 12 13  1  0  0  0  0
 13 14  1  0  0  0  0
 14 15  1  0  0  0  0
 16 14  2  0  0  0  0
 17 18  2  0  0  0  0
 18  6  1  0  0  0  0
 19 17  1  0  0  0  0
 20 19  1  0  0  0  0
 20 22  2  0  0  0  0
 21 23  2  0  0  0  0
 21 20  1  0  0  0  0
 23 24  1  0  0  0  0
 24 31  1  6  0  0  0
 24 22  1  0  0  0  0
 26 25  1  0  0  0  0
 26 32  1  0  0  0  0
 27 30  1  0  0  0  0
 27 28  2  0  0  0  0
 29 25  1  0  0  0  0
 29 27  1  0  0  0  0
 30 31  2  0  0  0  0
 31 32  1  0  0  0  0
 33 34  1  0  0  0  0
 33 23  1  0  0  0  0
 34 35  1  0  0  0  0
 35 38  1  0  0  0  0
 36 35  2  0  0  0  0
 37 35  1  0  0  0  0
 41 39  1  0  0  0  0
 41 40  2  0  0  0  0
 42 52  1  0  0  0  0
 43 42  1  6  0  0  0
 43 41  1  0  0  0  0
 46 48  1  0  0  0  0
 46 51  1  0  0  0  0
 46 44  1  1  0  0  0
 47 45  1  0  0  0  0
 48 49  1  0  0  0  0
 48 43  1  1  0  0  0
 49 47  1  0  0  0  0
 51 50  1  1  0  0  0
 51 45  1  0  0  0  0
 53 54  1  0  0  0  0
 53 52  1  0  0  0  0
 55 54  1  6  0  0  0
 55 56  1  0  0  0  0
 55 58  1  0  0  0  0
 56 57  1  0  0  0  0
 59 58  1  0  0  0  0
 59 60  1  0  0  0  0
 60 61  1  0  0  0  0
 61 63  2  0  0  0  0
 62 60  2  0  0  0  0
 62 64  1  0  0  0  0
 63 65  1  0  0  0  0
 64 63  1  0  0  0  0
 65 66  1  0  0  0  0
M  END
>  <MODEL>
6

>  <REMARK>
 VINA RESULT:      -4.9      2.790      8.782
  Name = 
  26 active torsions:
  status: ('A' for Active; 'I' for Inactive)
    1  A    between atoms: C_2  and  O_50
    2  A    between atoms: C_3  and  O_65
    3  A    between atoms: C_4  and  C_36
    4  A    between atoms: C_4  and  C_48
    5  A    between atoms: C_5  and  C_7
    6  A    between atoms: C_5  and  C_21
    7  A    between atoms: P_10  and  O_55
    8  A    between atoms: C_11  and  N_44
    9  A    between atoms: C_12  and  C_54
   10  A    between atoms: C_18  and  C_53
   11  A    between atoms: C_21  and  C_53
   12  A    between atoms: C_28  and  C_49
   13  A    between atoms: C_30  and  C_47
   14  A    between atoms: C_30  and  O_55
   15  A    between atoms: C_31  and  C_60
   16  A    between atoms: C_32  and  N_43
   17  A    between atoms: C_33  and  C_54
   18  A    between atoms: C_36  and  C_53
   19  A    between atoms: C_37  and  C_42
   20  A    between atoms: C_37  and  O_50
   21  A    between atoms: S_38  and  C_48
   22  A    between atoms: C_40  and  C_57
   23  A    between atoms: C_40  and  C_59
   24  A    between atoms: C_42  and  C_45
   25  A    between atoms: C_57  and  O_65
   26  A    between atoms: N_58  and  C_59
                            x       y       z     vdW  Elec       q    Type
                         _______ _______ _______ _____ _____    ______ ____

>  <TORSDO>
F 26

$$$$
=
 OpenBabel10232410133D

 66 70  0  0  1  0  0  0  0  0999 V2000
  192.4710  176.8600  141.2100 C   0  0  0  0  0  2  0  0  0  0  0  0
  191.0760  176.4750  140.7800 C   0  0  2  0  0  3  0  0  0  0  0  0
  192.2540  177.4160  138.8640 C   0  0  2  0  0  3  0  0  0  0  0  0
  193.2560  176.9700  139.9260 C   0  0  0  0  0  2  0  0  0  0  0  0
  190.8690  177.1610  139.4480 C   0  0  0  0  0  2  0  0  0  0  0  0
  191.2660  176.0880  136.9560 C   0  0  0  0  0  0  0  0  0  0  0  0
  192.4050  176.6250  137.6540 N   0  0  0  0  0  2  0  0  0  0  0  0
  191.3950  175.0500  136.1610 N   0  0  0  0  0  0  0  0  0  0  0  0
  192.6230  174.3580  135.8710 C   0  0  0  0  0  0  0  0  0  0  0  0
  193.1910  174.4730  134.7460 O   0  0  0  0  0  0  0  0  0  0  0  0
  193.2930  173.5740  136.9520 C   0  0  0  0  0  2  0  0  0  0  0  0
  194.3690  172.6550  136.3820 C   0  0  0  0  0  2  0  0  0  0  0  0
  195.5160  172.6460  137.2330 O   0  0  0  0  0  0  0  0  0  0  0  0
  196.1220  173.8250  137.6880 C   0  0  0  0  0  0  0  0  0  0  0  0
  196.0040  174.8990  137.0430 O   0  0  0  0  0  0  0  0  0  0  0  0
  196.9070  173.7960  138.8310 O   0  0  0  0  0  1  0  0  0  0  0  0
  189.0540  176.7410  136.3130 C   0  0  0  0  0  3  0  0  0  0  0  0
  189.9750  176.6470  137.2130 N   0  0  0  0  0  0  0  0  0  0  0  0
  187.7280  177.3120  136.7020 C   0  0  0  0  0  2  0  0  0  0  0  0
  186.5790  176.5130  136.1800 C   0  0  0  0  0  0  0  0  0  0  0  0
  186.3360  175.1380  136.5750 C   0  0  0  0  0  3  0  0  0  0  0  0
  185.5670  177.0390  135.5720 N   0  0  0  0  0  0  0  0  0  0  0  0
  185.1130  174.8580  136.1450 C   0  0  0  0  0  0  0  0  0  0  0  0
  184.5340  176.0200  135.3990 C   0  0  1  0  0  3  0  0  0  0  0  0
  180.8410  177.1600  137.9980 C   0  0  0  0  0  2  0  0  0  0  0  0
  181.6570  175.8900  137.9420 C   0  0  0  0  0  2  0  0  0  0  0  0
  181.3780  178.0840  135.7550 C   0  0  0  0  0  0  0  0  0  0  0  0
  181.2300  179.2710  135.3550 O   0  0  0  0  0  0  0  0  0  0  0  0
  180.3170  177.4700  136.6220 C   0  0  0  0  0  2  0  0  0  0  0  0
  182.5470  177.3670  135.3430 N   0  0  0  0  0  0  0  0  0  0  0  0
  183.2270  176.4620  135.9920 C   0  0  0  0  0  0  0  0  0  0  0  0
  182.9670  176.1440  137.3710 N   0  0  0  0  0  2  0  0  0  0  0  0
  184.4470  173.5270  136.3230 C   0  0  0  0  0  2  0  0  0  0  0  0
  184.2430  172.9400  135.0800 O   0  0  0  0  0  0  0  0  0  0  0  0
  183.4940  171.4400  135.3430 P   0  0  0  0  0  0  0  0  0  0  0  0
  184.2040  170.3030  134.6350 O   0  0  0  0  0  0  0  0  0  0  0  0
  181.8820  171.5070  134.8290 O   0  0  0  0  0  1  0  0  0  0  0  0
  183.5150  171.1040  137.0080 O   0  0  0  0  0  1  0  0  0  0  0  0
  190.1070  176.8940  141.7410 O   0  0  0  0  0  0  0  0  0  0  0  0
  191.4450  178.4430  142.8200 O   0  0  0  0  0  0  0  0  0  0  0  0
  190.4740  177.6280  142.8660 C   0  0  0  0  0  0  0  0  0  0  0  0
  188.1220  177.0090  144.0190 S   0  0  0  0  0  0  0  0  0  0  0  0
  189.6620  177.5330  144.1020 C   0  0  1  0  0  3  0  0  0  0  0  0
  191.6060  175.8590  145.1480 O   0  0  0  0  0  1  0  0  0  0  0  0
  189.6360  176.1610  147.5740 C   0  0  0  0  0  2  0  0  0  0  0  0
  191.4180  176.9780  145.9760 C   0  0  1  0  0  3  0  0  0  0  0  0
  188.7070  177.2290  146.9730 C   0  0  0  0  0  2  0  0  0  0  0  0
  190.3040  177.9160  145.4200 C   0  0  2  0  0  3  0  0  0  0  0  0
  189.3920  178.3330  146.4230 O   0  0  0  0  0  0  0  0  0  0  0  0
  191.9250  175.4960  147.8280 O   0  0  0  0  0  1  0  0  0  0  0  0
  191.1010  176.5470  147.4190 C   0  0  2  0  0  3  0  0  0  0  0  0
  187.3320  178.1670  142.8910 C   0  0  0  0  0  2  0  0  0  0  0  0
  187.4310  177.6110  141.4800 C   0  0  0  0  0  2  0  0  0  0  0  0
  186.7360  178.4910  140.4500 C   0  0  0  0  0  2  0  0  0  0  0  0
  185.2430  178.1890  140.2620 C   0  0  2  0  0  3  0  0  0  0  0  0
  184.8480  178.2730  138.8020 C   0  0  0  0  0  2  0  0  0  0  0  0
  184.1490  179.5900  138.5270 C   0  0  0  0  0  1  0  0  0  0  0  0
  184.4010  179.1760  141.0670 C   0  0  0  0  0  2  0  0  0  0  0  0
  183.0730  178.5930  141.5290 C   0  0  0  0  0  2  0  0  0  0  0  0
  182.9640  178.7560  143.0050 C   0  0  0  0  0  0  0  0  0  0  0  0
  184.0090  178.7670  143.8410 N   0  0  0  0  0  0  0  0  0  0  0  0
  181.7810  178.8320  143.7080 C   0  0  0  0  0  3  0  0  0  0  0  0
  183.4330  178.8560  145.0530 C   0  0  0  0  0  0  0  0  0  0  0  0
  182.0940  178.8780  145.0140 N   0  0  0  0  0  2  0  0  0  0  0  0
  184.2100  178.7710  146.3160 C   0  0  0  0  0  2  0  0  0  0  0  0
  185.7000  178.8280  146.0360 C   0  0  0  0  0  1  0  0  0  0  0  0
  2  1  1  0  0  0  0
  2 39  1  1  0  0  0
  3  7  1  6  0  0  0
  3  5  1  0  0  0  0
  3  4  1  0  0  0  0
  4  1  1  0  0  0  0
  5  2  1  0  0  0  0
  6 18  1  0  0  0  0
  6  7  1  0  0  0  0
  8  6  2  0  0  0  0
  9  8  1  0  0  0  0
  9 11  1  0  0  0  0
 10  9  2  0  0  0  0
 12 11  1  0  0  0  0
 12 13  1  0  0  0  0
 13 14  1  0  0  0  0
 14 16  1  0  0  0  0
 15 14  2  0  0  0  0
 17 19  1  0  0  0  0
 17 18  2  0  0  0  0
 20 21  1  0  0  0  0
 20 19  1  0  0  0  0
 22 20  2  0  0  0  0
 23 33  1  0  0  0  0
 23 21  2  0  0  0  0
 24 22  1  0  0  0  0
 24 31  1  1  0  0  0
 24 23  1  0  0  0  0
 26 25  1  0  0  0  0
 27 29  1  0  0  0  0
 28 27  2  0  0  0  0
 29 25  1  0  0  0  0
 30 27  1  0  0  0  0
 30 31  2  0  0  0  0
 31 32  1  0  0  0  0
 32 26  1  0  0  0  0
 34 35  1  0  0  0  0
 34 33  1  0  0  0  0
 35 38  1  0  0  0  0
 36 35  2  0  0  0  0
 37 35  1  0  0  0  0
 39 41  1  0  0  0  0
 40 41  2  0  0  0  0
 42 43  1  0  0  0  0
 43 41  1  1  0  0  0
 46 44  1  6  0  0  0
 46 51  1  0  0  0  0
 47 45  1  0  0  0  0
 48 43  1  6  0  0  0
 48 46  1  0  0  0  0
 48 49  1  0  0  0  0
 49 47  1  0  0  0  0
 51 45  1  0  0  0  0
 51 50  1  6  0  0  0
 52 42  1  0  0  0  0
 53 52  1  0  0  0  0
 54 53  1  0  0  0  0
 55 56  1  6  0  0  0
 55 54  1  0  0  0  0
 55 58  1  0  0  0  0
 57 56  1  0  0  0  0
 58 59  1  0  0  0  0
 59 60  1  0  0  0  0
 60 62  2  0  0  0  0
 60 61  1  0  0  0  0
 61 63  2  0  0  0  0
 62 64  1  0  0  0  0
 63 65  1  0  0  0  0
 64 63  1  0  0  0  0
 66 65  1  0  0  0  0
M  END
>  <MODEL>
7

>  <REMARK>
 VINA RESULT:      -4.3      3.340      8.807
  Name = 
  26 active torsions:
  status: ('A' for Active; 'I' for Inactive)
    1  A    between atoms: C_2  and  O_50
    2  A    between atoms: C_3  and  O_65
    3  A    between atoms: C_4  and  C_36
    4  A    between atoms: C_4  and  C_48
    5  A    between atoms: C_5  and  C_7
    6  A    between atoms: C_5  and  C_21
    7  A    between atoms: P_10  and  O_55
    8  A    between atoms: C_11  and  N_44
    9  A    between atoms: C_12  and  C_54
   10  A    between atoms: C_18  and  C_53
   11  A    between atoms: C_21  and  C_53
   12  A    between atoms: C_28  and  C_49
   13  A    between atoms: C_30  and  C_47
   14  A    between atoms: C_30  and  O_55
   15  A    between atoms: C_31  and  C_60
   16  A    between atoms: C_32  and  N_43
   17  A    between atoms: C_33  and  C_54
   18  A    between atoms: C_36  and  C_53
   19  A    between atoms: C_37  and  C_42
   20  A    between atoms: C_37  and  O_50
   21  A    between atoms: S_38  and  C_48
   22  A    between atoms: C_40  and  C_57
   23  A    between atoms: C_40  and  C_59
   24  A    between atoms: C_42  and  C_45
   25  A    between atoms: C_57  and  O_65
   26  A    between atoms: N_58  and  C_59
                            x       y       z     vdW  Elec       q    Type
                         _______ _______ _______ _____ _____    ______ ____

>  <TORSDO>
F 26

$$$$
=
 OpenBabel10232410133D

 66 70  0  0  1  0  0  0  0  0999 V2000
  188.4580  177.0500  136.0680 C   0  0  0  0  0  2  0  0  0  0  0  0
  188.4410  176.4580  137.4570 C   0  0  2  0  0  3  0  0  0  0  0  0
  189.3190  174.7940  135.9070 C   0  0  2  0  0  3  0  0  0  0  0  0
  189.4210  176.1870  135.2910 C   0  0  0  0  0  2  0  0  0  0  0  0
  188.6300  174.9710  137.2540 C   0  0  0  0  0  2  0  0  0  0  0  0
  191.6090  174.8900  136.9680 C   0  0  0  0  0  0  0  0  0  0  0  0
  190.6430  174.2340  136.1270 N   0  0  0  0  0  2  0  0  0  0  0  0
  192.8930  174.6500  136.8270 N   0  0  0  0  0  0  0  0  0  0  0  0
  193.4810  173.7330  135.8870 C   0  0  0  0  0  0  0  0  0  0  0  0
  193.9170  174.1310  134.7670 O   0  0  0  0  0  0  0  0  0  0  0  0
  193.6760  172.3060  136.2820 C   0  0  0  0  0  2  0  0  0  0  0  0
  195.0730  172.0750  136.8500 C   0  0  0  0  0  2  0  0  0  0  0  0
  195.0160  171.1820  137.9630 O   0  0  0  0  0  0  0  0  0  0  0  0
  195.0180  169.7890  137.8070 C   0  0  0  0  0  0  0  0  0  0  0  0
  196.0940  169.1380  137.8490 O   0  0  0  0  0  1  0  0  0  0  0  0
  193.8270  169.1260  137.5500 O   0  0  0  0  0  0  0  0  0  0  0  0
  191.9490  176.5290  138.6810 C   0  0  0  0  0  3  0  0  0  0  0  0
  191.1550  175.8770  137.8990 N   0  0  0  0  0  0  0  0  0  0  0  0
  191.3680  177.5630  139.5910 C   0  0  0  0  0  2  0  0  0  0  0  0
  190.9600  177.0040  140.9140 C   0  0  0  0  0  0  0  0  0  0  0  0
  191.6550  177.3200  142.1490 C   0  0  0  0  0  3  0  0  0  0  0  0
  189.8180  176.4340  141.1220 N   0  0  0  0  0  0  0  0  0  0  0  0
  190.8660  176.8820  143.1210 C   0  0  0  0  0  0  0  0  0  0  0  0
  189.6540  176.2090  142.5570 C   0  0  1  0  0  3  0  0  0  0  0  0
  186.1850  178.2980  144.8590 C   0  0  0  0  0  2  0  0  0  0  0  0
  187.0950  177.1600  145.2590 C   0  0  0  0  0  2  0  0  0  0  0  0
  186.3910  178.1270  142.3880 C   0  0  0  0  0  0  0  0  0  0  0  0
  186.0990  179.0030  141.5280 O   0  0  0  0  0  0  0  0  0  0  0  0
  185.4880  177.9410  143.5730 C   0  0  0  0  0  2  0  0  0  0  0  0
  187.5640  177.3340  142.1810 N   0  0  0  0  0  0  0  0  0  0  0  0
  188.3870  176.8360  143.0640 C   0  0  0  0  0  0  0  0  0  0  0  0
  188.3080  177.1650  144.4630 N   0  0  0  0  0  2  0  0  0  0  0  0
  191.1960  176.9870  144.5790 C   0  0  0  0  0  2  0  0  0  0  0  0
  191.5380  175.7320  145.0690 O   0  0  0  0  0  0  0  0  0  0  0  0
  191.8280  175.8980  146.7330 P   0  0  0  0  0  0  0  0  0  0  0  0
  193.2830  175.6720  147.0950 O   0  0  0  0  0  0  0  0  0  0  0  0
  190.8560  174.8120  147.5940 O   0  0  0  0  0  1  0  0  0  0  0  0
  191.4190  177.4780  147.2030 O   0  0  0  0  0  1  0  0  0  0  0  0
  187.2110  176.7440  138.1220 O   0  0  0  0  0  0  0  0  0  0  0  0
  186.5770  178.6270  136.9360 O   0  0  0  0  0  0  0  0  0  0  0  0
  186.2450  177.5620  137.5400 C   0  0  0  0  0  0  0  0  0  0  0  0
  184.4360  175.6270  137.0650 S   0  0  0  0  0  0  0  0  0  0  0  0
  184.8260  177.1370  137.5370 C   0  0  1  0  0  3  0  0  0  0  0  0
  183.5650  176.6840  139.9620 O   0  0  0  0  0  1  0  0  0  0  0  0
  181.1250  177.0530  138.0200 C   0  0  0  0  0  2  0  0  0  0  0  0
  183.0980  177.8720  139.3750 C   0  0  1  0  0  3  0  0  0  0  0  0
  181.9050  177.4720  136.7630 C   0  0  0  0  0  2  0  0  0  0  0  0
  183.7730  178.1270  137.9930 C   0  0  2  0  0  3  0  0  0  0  0  0
  182.8410  178.5010  136.9920 O   0  0  0  0  0  0  0  0  0  0  0  0
  180.9600  177.3500  140.3930 O   0  0  0  0  0  1  0  0  0  0  0  0
  181.5660  177.8530  139.2400 C   0  0  2  0  0  3  0  0  0  0  0  0
  185.0800  175.5180  135.3890 C   0  0  0  0  0  2  0  0  0  0  0  0
  183.9330  175.7380  134.4160 C   0  0  0  0  0  2  0  0  0  0  0  0
  182.7230  174.8680  134.7250 C   0  0  0  0  0  2  0  0  0  0  0  0
  182.9330  173.3710  134.4560 C   0  0  2  0  0  3  0  0  0  0  0  0
  182.1380  172.5240  135.4290 C   0  0  0  0  0  2  0  0  0  0  0  0
  180.9220  171.9400  134.7370 C   0  0  0  0  0  1  0  0  0  0  0  0
  184.4130  173.0190  134.5770 C   0  0  0  0  0  2  0  0  0  0  0  0
  184.6970  171.9880  135.6620 C   0  0  0  0  0  2  0  0  0  0  0  0
  185.9290  171.2350  135.3000 C   0  0  0  0  0  0  0  0  0  0  0  0
  186.1220  169.9360  135.5610 N   0  0  0  0  0  0  0  0  0  0  0  0
  187.0560  171.7870  134.7290 C   0  0  0  0  0  3  0  0  0  0  0  0
  187.3780  169.7200  135.1340 C   0  0  0  0  0  0  0  0  0  0  0  0
  187.9790  170.8130  134.6450 N   0  0  0  0  0  2  0  0  0  0  0  0
  188.0810  168.4280  135.3400 C   0  0  0  0  0  2  0  0  0  0  0  0
  189.4740  168.4710  134.7400 C   0  0  0  0  0  1  0  0  0  0  0  0
  1  2  1  0  0  0  0
  2 39  1  6  0  0  0
  3  7  1  1  0  0  0
  3  5  1  0  0  0  0
  4  3  1  0  0  0  0
  4  1  1  0  0  0  0
  5  2  1  0  0  0  0
  6 18  1  0  0  0  0
  7  6  1  0  0  0  0
  8  6  2  0  0  0  0
  9 11  1  0  0  0  0
  9  8  1  0  0  0  0
 10  9  2  0  0  0  0
 11 12  1  0  0  0  0
 12 13  1  0  0  0  0
 14 15  1  0  0  0  0
 14 13  1  0  0  0  0
 16 14  2  0  0  0  0
 17 19  1  0  0  0  0
 18 17  2  0  0  0  0
 19 20  1  0  0  0  0
 20 22  2  0  0  0  0
 20 21  1  0  0  0  0
 21 23  2  0  0  0  0
 22 24  1  0  0  0  0
 23 33  1  0  0  0  0
 24 31  1  1  0  0  0
 24 23  1  0  0  0  0
 25 26  1  0  0  0  0
 27 29  1  0  0  0  0
 28 27  2  0  0  0  0
 29 25  1  0  0  0  0
 30 27  1  0  0  0  0
 30 31  2  0  0  0  0
 31 32  1  0  0  0  0
 32 26  1  0  0  0  0
 33 34  1  0  0  0  0
 34 35  1  0  0  0  0
 35 36  2  0  0  0  0
 35 38  1  0  0  0  0
 35 37  1  0  0  0  0
 40 41  2  0  0  0  0
 41 39  1  0  0  0  0
 43 42  1  1  0  0  0
 43 41  1  0  0  0  0
 45 51  1  0  0  0  0
 46 44  1  6  0  0  0
 47 49  1  0  0  0  0
 47 45  1  0  0  0  0
 48 43  1  6  0  0  0
 48 46  1  0  0  0  0
 49 48  1  0  0  0  0
 51 46  1  0  0  0  0
 51 50  1  1  0  0  0
 52 42  1  0  0  0  0
 53 54  1  0  0  0  0
 53 52  1  0  0  0  0
 55 58  1  1  0  0  0
 55 54  1  0  0  0  0
 55 56  1  0  0  0  0
 57 56  1  0  0  0  0
 58 59  1  0  0  0  0
 60 61  1  0  0  0  0
 60 59  1  0  0  0  0
 62 60  2  0  0  0  0
 63 65  1  0  0  0  0
 63 61  2  0  0  0  0
 64 62  1  0  0  0  0
 64 63  1  0  0  0  0
 66 65  1  0  0  0  0
M  END
>  <MODEL>
8

>  <REMARK>
 VINA RESULT:      -4.2      2.357      4.131
  Name = 
  26 active torsions:
  status: ('A' for Active; 'I' for Inactive)
    1  A    between atoms: C_2  and  O_50
    2  A    between atoms: C_3  and  O_65
    3  A    between atoms: C_4  and  C_36
    4  A    between atoms: C_4  and  C_48
    5  A    between atoms: C_5  and  C_7
    6  A    between atoms: C_5  and  C_21
    7  A    between atoms: P_10  and  O_55
    8  A    between atoms: C_11  and  N_44
    9  A    between atoms: C_12  and  C_54
   10  A    between atoms: C_18  and  C_53
   11  A    between atoms: C_21  and  C_53
   12  A    between atoms: C_28  and  C_49
   13  A    between atoms: C_30  and  C_47
   14  A    between atoms: C_30  and  O_55
   15  A    between atoms: C_31  and  C_60
   16  A    between atoms: C_32  and  N_43
   17  A    between atoms: C_33  and  C_54
   18  A    between atoms: C_36  and  C_53
   19  A    between atoms: C_37  and  C_42
   20  A    between atoms: C_37  and  O_50
   21  A    between atoms: S_38  and  C_48
   22  A    between atoms: C_40  and  C_57
   23  A    between atoms: C_40  and  C_59
   24  A    between atoms: C_42  and  C_45
   25  A    between atoms: C_57  and  O_65
   26  A    between atoms: N_58  and  C_59
                            x       y       z     vdW  Elec       q    Type
                         _______ _______ _______ _____ _____    ______ ____

>  <TORSDO>
F 26

$$$$
=
 OpenBabel10232410133D

 66 70  0  0  1  0  0  0  0  0999 V2000
  188.1870  178.5860  141.5520 C   0  0  0  0  0  2  0  0  0  0  0  0
  189.2540  177.7490  142.2170 C   0  0  2  0  0  3  0  0  0  0  0  0
  188.9210  176.9330  139.9440 C   0  0  2  0  0  3  0  0  0  0  0  0
  188.3770  178.3530  140.0740 C   0  0  0  0  0  2  0  0  0  0  0  0
  189.4120  176.5340  141.3300 C   0  0  0  0  0  2  0  0  0  0  0  0
  189.8470  176.8200  137.5970 C   0  0  0  0  0  0  0  0  0  0  0  0
  190.0430  176.8970  139.0210 N   0  0  0  0  0  2  0  0  0  0  0  0
  190.7940  176.3560  136.8140 N   0  0  0  0  0  0  0  0  0  0  0  0
  192.0940  175.9070  137.2370 C   0  0  0  0  0  0  0  0  0  0  0  0
  192.9920  176.7300  137.5820 O   0  0  0  0  0  0  0  0  0  0  0  0
  192.3540  174.4430  137.3740 C   0  0  0  0  0  2  0  0  0  0  0  0
  192.8350  173.8410  136.0580 C   0  0  0  0  0  2  0  0  0  0  0  0
  193.7290  172.7550  136.3040 O   0  0  0  0  0  0  0  0  0  0  0  0
  193.4360  171.4400  135.9160 C   0  0  0  0  0  0  0  0  0  0  0  0
  192.3120  171.1460  135.4360 O   0  0  0  0  0  0  0  0  0  0  0  0
  194.3790  170.4410  136.1130 O   0  0  0  0  0  1  0  0  0  0  0  0
  188.4190  178.0310  136.1040 C   0  0  0  0  0  3  0  0  0  0  0  0
  188.5700  177.1740  137.0570 N   0  0  0  0  0  0  0  0  0  0  0  0
  187.0400  178.2990  135.5940 C   0  0  0  0  0  2  0  0  0  0  0  0
  186.4000  177.0900  134.9950 C   0  0  0  0  0  0  0  0  0  0  0  0
  187.0670  175.8040  134.9190 C   0  0  0  0  0  3  0  0  0  0  0  0
  185.1320  177.0040  134.7550 N   0  0  0  0  0  0  0  0  0  0  0  0
  186.1220  174.9330  134.5940 C   0  0  0  0  0  0  0  0  0  0  0  0
  184.8120  175.6260  134.3860 C   0  0  1  0  0  3  0  0  0  0  0  0
  181.6930  174.5300  137.6680 C   0  0  0  0  0  2  0  0  0  0  0  0
  183.1750  174.8140  137.7650 C   0  0  0  0  0  2  0  0  0  0  0  0
  181.5620  173.8920  135.2700 C   0  0  0  0  0  0  0  0  0  0  0  0
  180.5340  173.8460  134.5410 O   0  0  0  0  0  0  0  0  0  0  0  0
  181.4700  173.4090  136.6890 C   0  0  0  0  0  2  0  0  0  0  0  0
  182.7790  174.3850  134.7010 N   0  0  0  0  0  0  0  0  0  0  0  0
  183.7400  175.0600  135.2730 C   0  0  0  0  0  0  0  0  0  0  0  0
  183.6310  175.5700  136.6140 N   0  0  0  0  0  2  0  0  0  0  0  0
  186.3660  173.4680  134.3910 C   0  0  0  0  0  2  0  0  0  0  0  0
  187.5980  173.1240  134.9340 O   0  0  0  0  0  0  0  0  0  0  0  0
  187.5820  171.4480  135.2080 P   0  0  0  0  0  0  0  0  0  0  0  0
  186.3120  170.7900  134.7060 O   0  0  0  0  0  1  0  0  0  0  0  0
  187.7640  171.1380  136.8620 O   0  0  0  0  0  1  0  0  0  0  0  0
  188.8890  170.7480  134.3810 O   0  0  0  0  0  0  0  0  0  0  0  0
  188.8710  177.3850  143.5420 O   0  0  0  0  0  0  0  0  0  0  0  0
  190.0100  179.1450  144.5230 O   0  0  0  0  0  0  0  0  0  0  0  0
  189.3890  178.0470  144.6540 C   0  0  0  0  0  0  0  0  0  0  0  0
  187.6210  177.0430  146.4170 S   0  0  0  0  0  0  0  0  0  0  0  0
  189.1260  177.5170  146.0130 C   0  0  1  0  0  3  0  0  0  0  0  0
  191.5240  176.4740  145.0980 O   0  0  0  0  0  1  0  0  0  0  0  0
  190.9930  174.7350  147.6580 C   0  0  0  0  0  2  0  0  0  0  0  0
  191.6330  176.8600  146.4450 C   0  0  1  0  0  3  0  0  0  0  0  0
  189.7640  175.4910  148.1880 C   0  0  0  0  0  2  0  0  0  0  0  0
  190.2830  177.4210  146.9870 C   0  0  2  0  0  3  0  0  0  0  0  0
  189.9430  176.8890  148.2570 O   0  0  0  0  0  0  0  0  0  0  0  0
  193.1700  175.0010  146.6900 O   0  0  0  0  0  1  0  0  0  0  0  0
  192.1280  175.6910  147.3140 C   0  0  2  0  0  3  0  0  0  0  0  0
  186.6200  178.5150  146.1630 C   0  0  0  0  0  2  0  0  0  0  0  0
  185.6050  178.2260  145.0690 C   0  0  0  0  0  2  0  0  0  0  0  0
  184.1710  178.4730  145.5160 C   0  0  0  0  0  2  0  0  0  0  0  0
  183.2750  179.1150  144.4480 C   0  0  2  0  0  3  0  0  0  0  0  0
  181.9360  178.4110  144.3610 C   0  0  0  0  0  2  0  0  0  0  0  0
  180.8110  179.4270  144.3820 C   0  0  0  0  0  1  0  0  0  0  0  0
  183.9600  179.0590  143.0840 C   0  0  0  0  0  2  0  0  0  0  0  0
  183.5060  177.8810  142.2340 C   0  0  0  0  0  2  0  0  0  0  0  0
  182.8350  178.4010  141.0110 C   0  0  0  0  0  0  0  0  0  0  0  0
  183.4230  179.1980  140.1100 N   0  0  0  0  0  0  0  0  0  0  0  0
  181.5100  178.2030  140.6900 C   0  0  0  0  0  3  0  0  0  0  0  0
  182.4310  179.4680  139.2440 C   0  0  0  0  0  0  0  0  0  0  0  0
  181.2610  178.9040  139.5690 N   0  0  0  0  0  2  0  0  0  0  0  0
  182.5860  180.4350  138.1270 C   0  0  0  0  0  2  0  0  0  0  0  0
  181.2620  180.6610  137.4230 C   0  0  0  0  0  1  0  0  0  0  0  0
  1  2  1  0  0  0  0
  2 39  1  1  0  0  0
  3  7  1  6  0  0  0
  3  4  1  0  0  0  0
  3  5  1  0  0  0  0
  4  1  1  0  0  0  0
  5  2  1  0  0  0  0
  6  7  1  0  0  0  0
  8  9  1  0  0  0  0
  8  6  2  0  0  0  0
  9 11  1  0  0  0  0
  9 10  2  0  0  0  0
 12 13  1  0  0  0  0
 12 11  1  0  0  0  0
 14 16  1  0  0  0  0
 14 13  1  0  0  0  0
 15 14  2  0  0  0  0
 17 18  2  0  0  0  0
 18  6  1  0  0  0  0
 19 17  1  0  0  0  0
 20 19  1  0  0  0  0
 21 20  1  0  0  0  0
 22 20  2  0  0  0  0
 23 21  2  0  0  0  0
 24 23  1  0  0  0  0
 24 22  1  0  0  0  0
 24 31  1  1  0  0  0
 25 26  1  0  0  0  0
 27 29  1  0  0  0  0
 28 27  2  0  0  0  0
 29 25  1  0  0  0  0
 30 27  1  0  0  0  0
 30 31  2  0  0  0  0
 31 32  1  0  0  0  0
 32 26  1  0  0  0  0
 33 23  1  0  0  0  0
 33 34  1  0  0  0  0
 34 35  1  0  0  0  0
 35 37  1  0  0  0  0
 36 35  1  0  0  0  0
 38 35  2  0  0  0  0
 39 41  1  0  0  0  0
 40 41  2  0  0  0  0
 43 41  1  6  0  0  0
 43 42  1  0  0  0  0
 45 47  1  0  0  0  0
 46 44  1  6  0  0  0
 46 48  1  0  0  0  0
 46 51  1  0  0  0  0
 47 49  1  0  0  0  0
 48 43  1  6  0  0  0
 48 49  1  0  0  0  0
 51 50  1  6  0  0  0
 51 45  1  0  0  0  0
 52 42  1  0  0  0  0
 53 54  1  0  0  0  0
 53 52  1  0  0  0  0
 55 58  1  6  0  0  0
 55 54  1  0  0  0  0
 56 57  1  0  0  0  0
 56 55  1  0  0  0  0
 59 58  1  0  0  0  0
 60 59  1  0  0  0  0
 61 60  1  0  0  0  0
 62 60  2  0  0  0  0
 63 64  1  0  0  0  0
 63 61  2  0  0  0  0
 64 62  1  0  0  0  0
 65 63  1  0  0  0  0
 66 65  1  0  0  0  0
M  END
>  <MODEL>
9

>  <REMARK>
 VINA RESULT:      -4.2      3.493      9.207
  Name = 
  26 active torsions:
  status: ('A' for Active; 'I' for Inactive)
    1  A    between atoms: C_2  and  O_50
    2  A    between atoms: C_3  and  O_65
    3  A    between atoms: C_4  and  C_36
    4  A    between atoms: C_4  and  C_48
    5  A    between atoms: C_5  and  C_7
    6  A    between atoms: C_5  and  C_21
    7  A    between atoms: P_10  and  O_55
    8  A    between atoms: C_11  and  N_44
    9  A    between atoms: C_12  and  C_54
   10  A    between atoms: C_18  and  C_53
   11  A    between atoms: C_21  and  C_53
   12  A    between atoms: C_28  and  C_49
   13  A    between atoms: C_30  and  C_47
   14  A    between atoms: C_30  and  O_55
   15  A    between atoms: C_31  and  C_60
   16  A    between atoms: C_32  and  N_43
   17  A    between atoms: C_33  and  C_54
   18  A    between atoms: C_36  and  C_53
   19  A    between atoms: C_37  and  C_42
   20  A    between atoms: C_37  and  O_50
   21  A    between atoms: S_38  and  C_48
   22  A    between atoms: C_40  and  C_57
   23  A    between atoms: C_40  and  C_59
   24  A    between atoms: C_42  and  C_45
   25  A    between atoms: C_57  and  O_65
   26  A    between atoms: N_58  and  C_59
                            x       y       z     vdW  Elec       q    Type
                         _______ _______ _______ _____ _____    ______ ____

>  <TORSDO>
F 26

$$$$
