=
 OpenBabel10232408403D

 28 31  0  0  1  0  0  0  0  0999 V2000
  189.3540  176.8370  145.0010 N   0  0  0  0  0  0  0  0  0  0  0  0
  186.1670  178.4760  145.9430 C   0  0  0  0  0  3  0  0  0  0  0  0
  190.5970  176.5690  145.7020 C   0  0  0  0  0  3  0  0  0  0  0  0
  189.0870  176.5470  143.6770 C   0  0  0  0  0  0  0  0  0  0  0  0
  183.5870  178.5530  142.6720 C   0  0  0  0  0  3  0  0  0  0  0  0
  188.9850  177.6900  147.1860 C   0  0  0  0  0  3  0  0  0  0  0  0
  186.9220  177.5380  143.9590 C   0  0  0  0  0  0  0  0  0  0  0  0
  183.9360  179.1350  145.0230 C   0  0  0  0  0  3  0  0  0  0  0  0
  187.2360  177.8330  145.3330 C   0  0  1  0  0  3  0  0  0  0  0  0
  187.8320  176.8980  143.1270 C   0  0  0  0  0  3  0  0  0  0  0  0
  188.4770  177.4610  145.8190 C   0  0  0  0  0  0  0  0  0  0  0  0
  185.2060  178.5690  144.9350 C   0  0  0  0  0  0  0  0  0  0  0  0
  190.3920  177.0920  147.1290 C   0  0  0  0  0  3  0  0  0  0  0  0
  183.1230  179.1230  143.8760 C   0  0  0  0  0  3  0  0  0  0  0  0
  184.8700  177.9860  142.5970 C   0  0  0  0  0  3  0  0  0  0  0  0
  185.6540  178.0100  143.7470 C   0  0  0  0  0  0  0  0  0  0  0  0
  190.4190  176.2770  141.5120 N   0  0  0  0  0  2  0  0  0  0  0  0
  190.0750  175.8330  142.8300 C   0  0  0  0  0  0  0  0  0  0  0  0
  190.6280  174.7920  143.2730 O   0  0  0  0  0  0  0  0  0  0  0  0
  190.0260  177.5590  140.9500 C   0  0  0  0  0  2  0  0  0  0  0  0
  190.0760  177.4760  139.1370 S   0  0  0  0  0  0  0  0  0  0  0  0
  188.7110  178.6590  138.9500 C   0  0  0  0  0  2  0  0  0  0  0  0
  187.4310  178.0620  139.5070 C   0  0  0  0  0  2  0  0  0  0  0  0
  186.5640  178.0890  137.2380 C   0  0  0  0  0  2  0  0  0  0  0  0
  186.3140  178.2350  138.5330 C   0  0  0  0  0  0  0  0  0  0  0  0
  184.9700  178.6250  138.9930 C   0  0  0  0  0  0  0  0  0  0  0  0
  184.0400  177.7750  139.0270 O   0  0  0  0  0  0  0  0  0  0  0  0
  184.7140  179.9320  139.3920 O   0  0  0  0  0  1  0  0  0  0  0  0
  1  3  1  0  0  0  0
  1 11  1  0  0  0  0
  3 13  2  0  0  0  0
  4  1  1  0  0  0  0
  5 14  1  0  0  0  0
  7  9  1  0  0  0  0
  9 11  1  0  0  0  0
  9  2  1  6  0  0  0
 10  4  2  0  0  0  0
 10  7  1  0  0  0  0
 11  6  2  0  0  0  0
 12  8  1  0  0  0  0
 12  2  2  0  0  0  0
 13  6  1  0  0  0  0
 14  8  2  0  0  0  0
 15  5  2  0  0  0  0
 15 16  1  0  0  0  0
 16  7  2  0  0  0  0
 16 12  1  0  0  0  0
 17 18  1  0  0  0  0
 18 19  2  0  0  0  0
 18  4  1  0  0  0  0
 20 17  1  0  0  0  0
 21 20  1  0  0  0  0
 22 21  1  0  0  0  0
 22 23  1  0  0  0  0
 24 25  2  0  0  0  0
 25 26  1  0  0  0  0
 25 23  1  0  0  0  0
 26 27  2  0  0  0  0
 26 28  1  0  0  0  0
M  END
>  <MODEL>
1

>  <REMARK>
 VINA RESULT:      -9.3      0.000      0.000
  Name = 
  7 active torsions:
  status: ('A' for Active; 'I' for Inactive)
    1  A    between atoms: C_4  and  C_18
    2  A    between atoms: C_4  and  S_25
    3  A    between atoms: C_5  and  C_23
    4  A    between atoms: C_12  and  C_27
    5  A    between atoms: N_17  and  C_26
    6  A    between atoms: C_18  and  C_27
    7  A    between atoms: S_25  and  C_26
                            x       y       z     vdW  Elec       q    Type
                         _______ _______ _______ _____ _____    ______ ____

>  <TORSDO>
F 7

$$$$
=
 OpenBabel10232408403D

 28 31  0  0  1  0  0  0  0  0999 V2000
  189.2510  176.9500  144.9470 N   0  0  0  0  0  0  0  0  0  0  0  0
  186.0190  178.4450  145.9710 C   0  0  0  0  0  3  0  0  0  0  0  0
  190.5020  176.6820  145.6340 C   0  0  0  0  0  3  0  0  0  0  0  0
  188.9920  176.7230  143.6090 C   0  0  0  0  0  0  0  0  0  0  0  0
  183.4350  178.6190  142.7070 C   0  0  0  0  0  3  0  0  0  0  0  0
  188.8590  177.6770  147.1740 C   0  0  0  0  0  3  0  0  0  0  0  0
  186.7990  177.6360  143.9410 C   0  0  0  0  0  0  0  0  0  0  0  0
  183.7690  179.0870  145.0860 C   0  0  0  0  0  3  0  0  0  0  0  0
  187.1060  177.8670  145.3300 C   0  0  1  0  0  3  0  0  0  0  0  0
  187.7270  177.0660  143.0780 C   0  0  0  0  0  3  0  0  0  0  0  0
  188.3570  177.5050  145.7970 C   0  0  0  0  0  0  0  0  0  0  0  0
  185.0550  178.5630  144.9690 C   0  0  0  0  0  0  0  0  0  0  0  0
  190.2830  177.1240  147.0870 C   0  0  0  0  0  3  0  0  0  0  0  0
  182.9560  179.1120  143.9390 C   0  0  0  0  0  3  0  0  0  0  0  0
  184.7340  178.0940  142.6030 C   0  0  0  0  0  3  0  0  0  0  0  0
  185.5180  178.0800  143.7540 C   0  0  0  0  0  0  0  0  0  0  0  0
  190.4090  176.6640  141.4830 N   0  0  0  0  0  2  0  0  0  0  0  0
  190.0000  176.0840  142.7280 C   0  0  0  0  0  0  0  0  0  0  0  0
  190.5100  174.9860  143.0710 O   0  0  0  0  0  0  0  0  0  0  0  0
  190.0670  178.0110  141.0560 C   0  0  0  0  0  2  0  0  0  0  0  0
  189.0980  177.9410  139.5210 S   0  0  0  0  0  0  0  0  0  0  0  0
  189.8810  176.3920  138.9870 C   0  0  0  0  0  2  0  0  0  0  0  0
  190.6210  176.6130  137.6790 C   0  0  0  0  0  2  0  0  0  0  0  0
  191.9320  174.5760  137.4820 C   0  0  0  0  0  2  0  0  0  0  0  0
  191.9250  175.8860  137.6940 C   0  0  0  0  0  0  0  0  0  0  0  0
  193.1770  176.5980  138.0010 C   0  0  0  0  0  0  0  0  0  0  0  0
  194.0160  176.8280  137.0890 O   0  0  0  0  0  0  0  0  0  0  0  0
  193.4470  177.0210  139.2980 O   0  0  0  0  0  1  0  0  0  0  0  0
  1  3  1  0  0  0  0
  1 11  1  0  0  0  0
  3 13  2  0  0  0  0
  4  1  1  0  0  0  0
  5 14  1  0  0  0  0
  7  9  1  0  0  0  0
  9 11  1  0  0  0  0
  9  2  1  6  0  0  0
 10  4  2  0  0  0  0
 10  7  1  0  0  0  0
 11  6  2  0  0  0  0
 12  8  1  0  0  0  0
 12  2  2  0  0  0  0
 13  6  1  0  0  0  0
 14  8  2  0  0  0  0
 15  5  2  0  0  0  0
 15 16  1  0  0  0  0
 16  7  2  0  0  0  0
 16 12  1  0  0  0  0
 17 18  1  0  0  0  0
 18 19  2  0  0  0  0
 18  4  1  0  0  0  0
 20 17  1  0  0  0  0
 21 20  1  0  0  0  0
 22 21  1  0  0  0  0
 23 25  1  0  0  0  0
 23 22  1  0  0  0  0
 24 25  2  0  0  0  0
 25 26  1  0  0  0  0
 26 28  1  0  0  0  0
 27 26  2  0  0  0  0
M  END
>  <MODEL>
2

>  <REMARK>
 VINA RESULT:      -9.1      2.687      3.609
  Name = 
  7 active torsions:
  status: ('A' for Active; 'I' for Inactive)
    1  A    between atoms: C_4  and  C_18
    2  A    between atoms: C_4  and  S_25
    3  A    between atoms: C_5  and  C_23
    4  A    between atoms: C_12  and  C_27
    5  A    between atoms: N_17  and  C_26
    6  A    between atoms: C_18  and  C_27
    7  A    between atoms: S_25  and  C_26
                            x       y       z     vdW  Elec       q    Type
                         _______ _______ _______ _____ _____    ______ ____

>  <TORSDO>
F 7

$$$$
=
 OpenBabel10232408403D

 28 31  0  0  1  0  0  0  0  0999 V2000
  189.2040  176.9610  144.8710 N   0  0  0  0  0  0  0  0  0  0  0  0
  185.9990  178.4470  145.9900 C   0  0  0  0  0  3  0  0  0  0  0  0
  190.4720  176.6870  145.5240 C   0  0  0  0  0  3  0  0  0  0  0  0
  188.9110  176.7450  143.5390 C   0  0  0  0  0  0  0  0  0  0  0  0
  183.3330  178.6480  142.7950 C   0  0  0  0  0  3  0  0  0  0  0  0
  188.8700  177.6690  147.1140 C   0  0  0  0  0  3  0  0  0  0  0  0
  186.7280  177.6540  143.9340 C   0  0  0  0  0  0  0  0  0  0  0  0
  183.7280  179.0960  145.1680 C   0  0  0  0  0  3  0  0  0  0  0  0
  187.0700  177.8740  145.3160 C   0  0  1  0  0  3  0  0  0  0  0  0
  187.6330  177.0920  143.0430 C   0  0  0  0  0  3  0  0  0  0  0  0
  188.3330  177.5080  145.7480 C   0  0  0  0  0  0  0  0  0  0  0  0
  185.0110  178.5730  145.0140 C   0  0  0  0  0  0  0  0  0  0  0  0
  190.2910  177.1170  146.9860 C   0  0  0  0  0  3  0  0  0  0  0  0
  182.8860  179.1300  144.0420 C   0  0  0  0  0  3  0  0  0  0  0  0
  184.6290  178.1240  142.6530 C   0  0  0  0  0  3  0  0  0  0  0  0
  185.4430  178.1000  143.7830 C   0  0  0  0  0  0  0  0  0  0  0  0
  190.1940  176.6450  141.3300 N   0  0  0  0  0  2  0  0  0  0  0  0
  189.8960  176.1130  142.6270 C   0  0  0  0  0  0  0  0  0  0  0  0
  190.4880  175.0630  142.9910 O   0  0  0  0  0  0  0  0  0  0  0  0
  189.7510  177.9480  140.8580 C   0  0  0  0  0  2  0  0  0  0  0  0
  188.4610  177.7370  139.5970 S   0  0  0  0  0  0  0  0  0  0  0  0
  189.4790  178.4900  138.2950 C   0  0  0  0  0  2  0  0  0  0  0  0
  189.5970  177.5390  137.1180 C   0  0  0  0  0  2  0  0  0  0  0  0
  191.6980  176.5620  137.8490 C   0  0  0  0  0  2  0  0  0  0  0  0
  190.4370  176.3620  137.4860 C   0  0  0  0  0  0  0  0  0  0  0  0
  189.8990  174.9950  137.3890 C   0  0  0  0  0  0  0  0  0  0  0  0
  190.6350  174.0030  137.6390 O   0  0  0  0  0  1  0  0  0  0  0  0
  188.5750  174.7840  137.0180 O   0  0  0  0  0  0  0  0  0  0  0  0
  1  3  1  0  0  0  0
  1 11  1  0  0  0  0
  3 13  2  0  0  0  0
  4  1  1  0  0  0  0
  5 14  1  0  0  0  0
  7  9  1  0  0  0  0
  9 11  1  0  0  0  0
  9  2  1  6  0  0  0
 10  4  2  0  0  0  0
 10  7  1  0  0  0  0
 11  6  2  0  0  0  0
 12  8  1  0  0  0  0
 12  2  2  0  0  0  0
 13  6  1  0  0  0  0
 14  8  2  0  0  0  0
 15  5  2  0  0  0  0
 15 16  1  0  0  0  0
 16  7  2  0  0  0  0
 16 12  1  0  0  0  0
 17 18  1  0  0  0  0
 18 19  2  0  0  0  0
 18  4  1  0  0  0  0
 20 17  1  0  0  0  0
 21 20  1  0  0  0  0
 22 21  1  0  0  0  0
 23 25  1  0  0  0  0
 23 22  1  0  0  0  0
 25 24  2  0  0  0  0
 26 25  1  0  0  0  0
 26 27  1  0  0  0  0
 28 26  2  0  0  0  0
M  END
>  <MODEL>
3

>  <REMARK>
 VINA RESULT:      -8.9      2.117      2.763
  Name = 
  7 active torsions:
  status: ('A' for Active; 'I' for Inactive)
    1  A    between atoms: C_4  and  C_18
    2  A    between atoms: C_4  and  S_25
    3  A    between atoms: C_5  and  C_23
    4  A    between atoms: C_12  and  C_27
    5  A    between atoms: N_17  and  C_26
    6  A    between atoms: C_18  and  C_27
    7  A    between atoms: S_25  and  C_26
                            x       y       z     vdW  Elec       q    Type
                         _______ _______ _______ _____ _____    ______ ____

>  <TORSDO>
F 7

$$$$
=
 OpenBabel10232408403D

 28 31  0  0  1  0  0  0  0  0999 V2000
  186.1970  178.4470  139.9110 N   0  0  0  0  0  0  0  0  0  0  0  0
  183.8680  178.6250  142.7880 C   0  0  0  0  0  3  0  0  0  0  0  0
  186.0210  178.4300  138.4700 C   0  0  0  0  0  3  0  0  0  0  0  0
  187.3970  178.3410  140.5870 C   0  0  0  0  0  0  0  0  0  0  0  0
  186.0040  178.4420  146.3600 C   0  0  0  0  0  3  0  0  0  0  0  0
  183.8470  178.6190  139.6090 C   0  0  0  0  0  3  0  0  0  0  0  0
  186.1770  178.4420  142.6480 C   0  0  0  0  0  0  0  0  0  0  0  0
  183.8110  178.6200  145.2880 C   0  0  0  0  0  3  0  0  0  0  0  0
  184.9420  178.5430  141.9120 C   0  0  0  0  0  0  0  0  0  0  0  0
  187.4020  178.3450  142.0000 C   0  0  0  0  0  3  0  0  0  0  0  0
  184.9980  178.5420  140.5290 C   0  0  0  0  0  0  0  0  0  0  0  0
  184.4540  178.5740  144.0530 C   0  0  1  0  0  3  0  0  0  0  0  0
  184.5110  178.5570  138.2320 C   0  0  0  0  0  3  0  0  0  0  0  0
  184.6010  178.5530  146.4500 C   0  0  0  0  0  3  0  0  0  0  0  0
  186.6390  178.3960  145.1080 C   0  0  0  0  0  3  0  0  0  0  0  0
  185.8340  178.4650  143.9730 C   0  0  0  0  0  0  0  0  0  0  0  0
  189.8140  177.5410  140.3590 N   0  0  0  0  0  2  0  0  0  0  0  0
  188.6870  178.2700  139.8570 C   0  0  0  0  0  0  0  0  0  0  0  0
  188.8100  178.8790  138.7620 O   0  0  0  0  0  0  0  0  0  0  0  0
  189.7620  176.6310  141.4920 C   0  0  0  0  0  2  0  0  0  0  0  0
  191.0420  177.0800  142.6990 S   0  0  0  0  0  0  0  0  0  0  0  0
  189.9710  176.7020  144.1170 C   0  0  0  0  0  2  0  0  0  0  0  0
  190.2370  177.6870  145.2410 C   0  0  0  0  0  2  0  0  0  0  0  0
  189.2070  176.8350  147.2700 C   0  0  0  0  0  2  0  0  0  0  0  0
  190.3130  176.9710  146.5480 C   0  0  0  0  0  0  0  0  0  0  0  0
  191.6020  176.4780  147.0610 C   0  0  0  0  0  0  0  0  0  0  0  0
  192.1270  177.0100  148.0750 O   0  0  0  0  0  1  0  0  0  0  0  0
  192.2540  175.4230  146.4300 O   0  0  0  0  0  0  0  0  0  0  0  0
  1 11  1  0  0  0  0
  1  4  1  0  0  0  0
  3  1  1  0  0  0  0
  4 10  2  0  0  0  0
  5 14  1  0  0  0  0
  6 11  2  0  0  0  0
  7 16  2  0  0  0  0
  8 14  2  0  0  0  0
  9  7  1  0  0  0  0
  9  2  2  0  0  0  0
 10  7  1  0  0  0  0
 11  9  1  0  0  0  0
 12  2  1  6  0  0  0
 12  8  1  0  0  0  0
 13  3  2  0  0  0  0
 13  6  1  0  0  0  0
 15  5  2  0  0  0  0
 16 12  1  0  0  0  0
 16 15  1  0  0  0  0
 17 20  1  0  0  0  0
 18 17  1  0  0  0  0
 18  4  1  0  0  0  0
 19 18  2  0  0  0  0
 20 21  1  0  0  0  0
 21 22  1  0  0  0  0
 22 23  1  0  0  0  0
 23 25  1  0  0  0  0
 25 26  1  0  0  0  0
 25 24  2  0  0  0  0
 26 27  1  0  0  0  0
 28 26  2  0  0  0  0
M  END
>  <MODEL>
4

>  <REMARK>
 VINA RESULT:      -8.7      2.149      6.491
  Name = 
  7 active torsions:
  status: ('A' for Active; 'I' for Inactive)
    1  A    between atoms: C_4  and  C_18
    2  A    between atoms: C_4  and  S_25
    3  A    between atoms: C_5  and  C_23
    4  A    between atoms: C_12  and  C_27
    5  A    between atoms: N_17  and  C_26
    6  A    between atoms: C_18  and  C_27
    7  A    between atoms: S_25  and  C_26
                            x       y       z     vdW  Elec       q    Type
                         _______ _______ _______ _____ _____    ______ ____

>  <TORSDO>
F 7

$$$$
=
 OpenBabel10232408403D

 28 31  0  0  0  0  0  0  0  0999 V2000
  184.0420  178.6570  142.7320 N   0  0  0  0  0  0  0  0  0  0  0  0
  184.8940  178.5000  146.3350 C   0  0  0  0  0  3  0  0  0  0  0  0
  182.8090  178.8610  141.9940 C   0  0  0  0  0  3  0  0  0  0  0  0
  185.2860  178.4040  142.1850 C   0  0  0  0  0  0  0  0  0  0  0  0
  188.9560  177.7030  146.8030 C   0  0  0  0  0  3  0  0  0  0  0  0
  182.4000  178.9670  144.4190 C   0  0  0  0  0  3  0  0  0  0  0  0
  186.1650  178.2470  144.4100 C   0  0  0  0  0  0  0  0  0  0  0  0
  186.8090  178.1270  147.8990 C   0  0  0  0  0  3  0  0  0  0  0  0
  184.8540  178.5050  144.9470 C   0  0  0  0  0  0  0  0  0  0  0  0
  186.3920  178.1970  143.0410 C   0  0  0  0  0  3  0  0  0  0  0  0
  183.8080  178.7070  144.0620 C   0  0  0  0  0  0  0  0  0  0  0  0
  186.2300  178.2390  146.6360 C   0  0  0  0  0  0  0  0  0  0  0  0
  181.7210  179.0830  143.0530 C   0  0  0  0  0  3  0  0  0  0  0  0
  188.1880  177.8560  147.9760 C   0  0  0  0  0  3  0  0  0  0  0  0
  188.3590  177.8180  145.5360 C   0  0  0  0  0  2  0  0  0  0  0  0
  186.9940  178.0870  145.4880 C   0  0  0  0  0  0  0  0  0  0  0  0
  186.7780  178.6000  140.1190 N   0  0  0  0  0  2  0  0  0  0  0  0
  185.4920  178.3890  140.7160 C   0  0  0  0  0  0  0  0  0  0  0  0
  184.5060  178.1970  139.9570 O   0  0  0  0  0  0  0  0  0  0  0  0
  188.0290  178.6290  140.8590 C   0  0  0  0  0  2  0  0  0  0  0  0
  189.2700  177.6150  140.0040 S   0  0  0  0  0  0  0  0  0  0  0  0
  189.8730  176.8790  141.5510 C   0  0  0  0  0  2  0  0  0  0  0  0
  191.2450  177.4380  141.8870 C   0  0  0  0  0  2  0  0  0  0  0  0
  191.2540  178.9050  143.8240 C   0  0  0  0  0  2  0  0  0  0  0  0
  191.3630  177.6680  143.3570 C   0  0  0  0  0  0  0  0  0  0  0  0
  191.6590  176.5510  144.2700 C   0  0  0  0  0  0  0  0  0  0  0  0
  191.6790  175.3670  143.8380 O   0  0  0  0  0  0  0  0  0  0  0  0
  191.9160  176.7890  145.6160 O   0  0  0  0  0  1  0  0  0  0  0  0
  1 11  1  0  0  0  0
  2 12  1  0  0  0  0
  3  1  1  0  0  0  0
  3 13  2  0  0  0  0
  4  1  1  0  0  0  0
  4 10  2  0  0  0  0
  5 14  2  0  0  0  0
  7  9  1  0  0  0  0
  7 16  2  0  0  0  0
  8 14  1  0  0  0  0
  9  2  2  0  0  0  0
 10  7  1  0  0  0  0
 11  6  2  0  0  0  0
 11  9  1  0  0  0  0
 12  8  2  0  0  0  0
 13  6  1  0  0  0  0
 15  5  1  0  0  0  0
 16 15  1  0  0  0  0
 16 12  1  0  0  0  0
 17 18  1  0  0  0  0
 17 20  1  0  0  0  0
 18  4  1  0  0  0  0
 19 18  2  0  0  0  0
 21 20  1  0  0  0  0
 21 22  1  0  0  0  0
 22 23  1  0  0  0  0
 23 25  1  0  0  0  0
 25 24  2  0  0  0  0
 25 26  1  0  0  0  0
 26 28  1  0  0  0  0
 27 26  2  0  0  0  0
M  END
>  <MODEL>
5

>  <REMARK>
 VINA RESULT:      -8.5      2.036      5.956
  Name = 
  7 active torsions:
  status: ('A' for Active; 'I' for Inactive)
    1  A    between atoms: C_4  and  C_18
    2  A    between atoms: C_4  and  S_25
    3  A    between atoms: C_5  and  C_23
    4  A    between atoms: C_12  and  C_27
    5  A    between atoms: N_17  and  C_26
    6  A    between atoms: C_18  and  C_27
    7  A    between atoms: S_25  and  C_26
                            x       y       z     vdW  Elec       q    Type
                         _______ _______ _______ _____ _____    ______ ____

>  <TORSDO>
F 7

$$$$
=
 OpenBabel10232408403D

 28 31  0  0  0  0  0  0  0  0999 V2000
  183.5470  178.7920  142.2420 N   0  0  0  0  0  0  0  0  0  0  0  0
  185.6310  178.0480  145.2140 C   0  0  0  0  0  3  0  0  0  0  0  0
  182.1360  179.0660  142.0420 C   0  0  0  0  0  3  0  0  0  0  0  0
  184.5060  178.6940  141.2520 C   0  0  0  0  0  0  0  0  0  0  0  0
  189.5730  177.3650  144.0530 C   0  0  0  0  0  3  0  0  0  0  0  0
  182.6260  178.7290  144.4300 C   0  0  0  0  0  3  0  0  0  0  0  0
  186.1220  178.1920  142.9510 C   0  0  0  0  0  0  0  0  0  0  0  0
  187.9720  177.4940  145.8990 C   0  0  0  0  0  3  0  0  0  0  0  0
  185.0960  178.2930  143.9570 C   0  0  0  0  0  0  0  0  0  0  0  0
  185.8420  178.3920  141.6050 C   0  0  0  0  0  3  0  0  0  0  0  0
  183.8080  178.5990  143.5540 C   0  0  0  0  0  0  0  0  0  0  0  0
  186.9810  177.7990  144.9680 C   0  0  0  0  0  0  0  0  0  0  0  0
  181.5050  179.0500  143.4400 C   0  0  0  0  0  3  0  0  0  0  0  0
  189.2800  177.2770  145.4290 C   0  0  0  0  0  3  0  0  0  0  0  0
  188.5650  177.6720  143.1240 C   0  0  0  0  0  2  0  0  0  0  0  0
  187.2780  177.8840  143.6150 C   0  0  0  0  0  0  0  0  0  0  0  0
  183.6010  177.9380  138.9850 N   0  0  0  0  0  2  0  0  0  0  0  0
  184.1720  178.9450  139.8280 C   0  0  0  0  0  0  0  0  0  0  0  0
  184.4050  180.0780  139.3310 O   0  0  0  0  0  0  0  0  0  0  0  0
  183.0900  176.6630  139.4620 C   0  0  0  0  0  2  0  0  0  0  0  0
  183.1990  175.4240  138.1380 S   0  0  0  0  0  0  0  0  0  0  0  0
  184.1770  176.5170  137.0670 C   0  0  0  0  0  2  0  0  0  0  0  0
  185.5900  175.9770  136.9330 C   0  0  0  0  0  2  0  0  0  0  0  0
  186.6490  177.7140  135.6050 C   0  0  0  0  0  2  0  0  0  0  0  0
  186.5600  177.1010  136.7780 C   0  0  0  0  0  0  0  0  0  0  0  0
  187.4490  177.4830  137.8880 C   0  0  0  0  0  0  0  0  0  0  0  0
  187.3440  178.6190  138.4230 O   0  0  0  0  0  1  0  0  0  0  0  0
  188.4140  176.5960  138.3540 O   0  0  0  0  0  0  0  0  0  0  0  0
  1 11  1  0  0  0  0
  3  1  1  0  0  0  0
  3 13  2  0  0  0  0
  4 10  2  0  0  0  0
  4  1  1  0  0  0  0
  5 14  2  0  0  0  0
  7 16  2  0  0  0  0
  7  9  1  0  0  0  0
  9  2  2  0  0  0  0
 10  7  1  0  0  0  0
 11  9  1  0  0  0  0
 11  6  2  0  0  0  0
 12  2  1  0  0  0  0
 12  8  2  0  0  0  0
 13  6  1  0  0  0  0
 14  8  1  0  0  0  0
 15 16  1  0  0  0  0
 15  5  1  0  0  0  0
 16 12  1  0  0  0  0
 17 20  1  0  0  0  0
 17 18  1  0  0  0  0
 18  4  1  0  0  0  0
 19 18  2  0  0  0  0
 21 20  1  0  0  0  0
 22 21  1  0  0  0  0
 23 22  1  0  0  0  0
 24 25  2  0  0  0  0
 25 23  1  0  0  0  0
 25 26  1  0  0  0  0
 26 28  2  0  0  0  0
 26 27  1  0  0  0  0
M  END
>  <MODEL>
6

>  <REMARK>
 VINA RESULT:      -8.3      2.881      5.590
  Name = 
  7 active torsions:
  status: ('A' for Active; 'I' for Inactive)
    1  A    between atoms: C_4  and  C_18
    2  A    between atoms: C_4  and  S_25
    3  A    between atoms: C_5  and  C_23
    4  A    between atoms: C_12  and  C_27
    5  A    between atoms: N_17  and  C_26
    6  A    between atoms: C_18  and  C_27
    7  A    between atoms: S_25  and  C_26
                            x       y       z     vdW  Elec       q    Type
                         _______ _______ _______ _____ _____    ______ ____

>  <TORSDO>
F 7

$$$$
=
 OpenBabel10232408403D

 28 31  0  0  0  0  0  0  0  0999 V2000
  185.5680  178.6060  143.2740 N   0  0  0  0  0  0  0  0  0  0  0  0
  187.1520  177.6410  146.4820 C   0  0  0  0  0  3  0  0  0  0  0  0
  184.2190  178.9770  142.8850 C   0  0  0  0  0  3  0  0  0  0  0  0
  186.6520  178.4740  142.4280 C   0  0  0  0  0  0  0  0  0  0  0  0
  191.1710  176.7350  145.8680 C   0  0  0  0  0  3  0  0  0  0  0  0
  184.3380  178.5400  145.3050 C   0  0  0  0  0  3  0  0  0  0  0  0
  187.9720  177.8180  144.3190 C   0  0  0  0  0  0  0  0  0  0  0  0
  189.3310  176.9150  147.4710 C   0  0  0  0  0  3  0  0  0  0  0  0
  186.8200  177.9570  145.1710 C   0  0  0  0  0  0  0  0  0  0  0  0
  187.9010  178.0750  142.9550 C   0  0  0  0  0  3  0  0  0  0  0  0
  185.6240  178.3580  144.6020 C   0  0  0  0  0  0  0  0  0  0  0  0
  188.5050  177.3110  146.4200 C   0  0  0  0  0  0  0  0  0  0  0  0
  183.3930  178.9630  144.1780 C   0  0  0  0  0  3  0  0  0  0  0  0
  190.6780  176.6260  147.1840 C   0  0  0  0  0  3  0  0  0  0  0  0
  190.3280  177.1340  144.8180 C   0  0  0  0  0  2  0  0  0  0  0  0
  189.0000  177.4150  145.1280 C   0  0  0  0  0  0  0  0  0  0  0  0
  187.5490  178.4080  140.0350 N   0  0  0  0  0  2  0  0  0  0  0  0
  186.5420  178.7880  140.9810 C   0  0  0  0  0  0  0  0  0  0  0  0
  185.5380  179.4210  140.5630 O   0  0  0  0  0  0  0  0  0  0  0  0
  188.6510  177.5060  140.3280 C   0  0  0  0  0  2  0  0  0  0  0  0
  189.9300  177.6640  139.0490 S   0  0  0  0  0  0  0  0  0  0  0  0
  188.8610  178.6580  137.9690 C   0  0  0  0  0  2  0  0  0  0  0  0
  188.9190  178.1200  136.5500 C   0  0  0  0  0  2  0  0  0  0  0  0
  187.1010  178.0390  134.9400 C   0  0  0  0  0  2  0  0  0  0  0  0
  187.5680  177.6520  136.1200 C   0  0  0  0  0  0  0  0  0  0  0  0
  186.7390  176.8280  137.0160 C   0  0  0  0  0  0  0  0  0  0  0  0
  187.1190  175.6730  137.3470 O   0  0  0  0  0  0  0  0  0  0  0  0
  185.5310  177.3140  137.5030 O   0  0  0  0  0  1  0  0  0  0  0  0
  1 11  1  0  0  0  0
  3  1  1  0  0  0  0
  3 13  2  0  0  0  0
  4 10  2  0  0  0  0
  4  1  1  0  0  0  0
  5 14  2  0  0  0  0
  7 16  2  0  0  0  0
  7  9  1  0  0  0  0
  9  2  2  0  0  0  0
 10  7  1  0  0  0  0
 11  9  1  0  0  0  0
 11  6  2  0  0  0  0
 12  2  1  0  0  0  0
 12  8  2  0  0  0  0
 13  6  1  0  0  0  0
 14  8  1  0  0  0  0
 15 16  1  0  0  0  0
 15  5  1  0  0  0  0
 16 12  1  0  0  0  0
 17 20  1  0  0  0  0
 17 18  1  0  0  0  0
 18  4  1  0  0  0  0
 19 18  2  0  0  0  0
 21 20  1  0  0  0  0
 22 21  1  0  0  0  0
 23 22  1  0  0  0  0
 24 25  2  0  0  0  0
 25 23  1  0  0  0  0
 25 26  1  0  0  0  0
 26 27  2  0  0  0  0
 26 28  1  0  0  0  0
M  END
>  <MODEL>
7

>  <REMARK>
 VINA RESULT:      -8.2      2.137      4.619
  Name = 
  7 active torsions:
  status: ('A' for Active; 'I' for Inactive)
    1  A    between atoms: C_4  and  C_18
    2  A    between atoms: C_4  and  S_25
    3  A    between atoms: C_5  and  C_23
    4  A    between atoms: C_12  and  C_27
    5  A    between atoms: N_17  and  C_26
    6  A    between atoms: C_18  and  C_27
    7  A    between atoms: S_25  and  C_26
                            x       y       z     vdW  Elec       q    Type
                         _______ _______ _______ _____ _____    ______ ____

>  <TORSDO>
F 7

$$$$
=
 OpenBabel10232408403D

 28 31  0  0  0  0  0  0  0  0999 V2000
  185.3610  178.5110  143.8450 N   0  0  0  0  0  0  0  0  0  0  0  0
  187.6370  177.5840  146.6180 C   0  0  0  0  0  3  0  0  0  0  0  0
  183.9510  178.8480  143.7670 C   0  0  0  0  0  3  0  0  0  0  0  0
  186.2340  178.4070  142.7790 C   0  0  0  0  0  0  0  0  0  0  0  0
  191.4430  176.7800  145.1250 C   0  0  0  0  0  3  0  0  0  0  0  0
  184.6130  178.4120  146.0970 C   0  0  0  0  0  3  0  0  0  0  0  0
  187.9550  177.7830  144.3280 C   0  0  0  0  0  0  0  0  0  0  0  0
  189.9990  176.9130  147.0960 C   0  0  0  0  0  3  0  0  0  0  0  0
  187.0160  177.8930  145.4150 C   0  0  0  0  0  0  0  0  0  0  0  0
  187.5780  178.0390  143.0150 C   0  0  0  0  0  3  0  0  0  0  0  0
  185.7150  178.2640  145.1260 C   0  0  0  0  0  0  0  0  0  0  0  0
  188.9520  177.2880  146.2570 C   0  0  0  0  0  0  0  0  0  0  0  0
  183.4320  178.8120  145.2100 C   0  0  0  0  0  3  0  0  0  0  0  0
  191.2550  176.6580  146.5180 C   0  0  0  0  0  3  0  0  0  0  0  0
  190.3790  177.1590  144.2900 C   0  0  0  0  0  2  0  0  0  0  0  0
  189.1450  177.4060  144.8880 C   0  0  0  0  0  0  0  0  0  0  0  0
  186.7200  178.7890  140.2990 N   0  0  0  0  0  2  0  0  0  0  0  0
  185.7990  178.7190  141.3950 C   0  0  0  0  0  0  0  0  0  0  0  0
  184.5820  178.9440  141.1680 O   0  0  0  0  0  0  0  0  0  0  0  0
  188.1070  178.3560  140.3650 C   0  0  0  0  0  2  0  0  0  0  0  0
  188.7050  177.9560  138.6970 S   0  0  0  0  0  0  0  0  0  0  0  0
  190.3950  177.6330  139.2780 C   0  0  0  0  0  2  0  0  0  0  0  0
  190.8100  176.2230  138.8970 C   0  0  0  0  0  2  0  0  0  0  0  0
  191.2920  175.9650  136.5300 C   0  0  0  0  0  2  0  0  0  0  0  0
  191.7520  176.2570  137.7400 C   0  0  0  0  0  0  0  0  0  0  0  0
  193.1810  176.5470  137.9450 C   0  0  0  0  0  0  0  0  0  0  0  0
  193.9770  176.5370  136.9670 O   0  0  0  0  0  0  0  0  0  0  0  0
  193.6670  176.8320  139.2160 O   0  0  0  0  0  1  0  0  0  0  0  0
  1 11  1  0  0  0  0
  3  1  1  0  0  0  0
  3 13  2  0  0  0  0
  4 10  2  0  0  0  0
  4  1  1  0  0  0  0
  5 14  2  0  0  0  0
  7 16  2  0  0  0  0
  7  9  1  0  0  0  0
  9  2  2  0  0  0  0
 10  7  1  0  0  0  0
 11  9  1  0  0  0  0
 11  6  2  0  0  0  0
 12  2  1  0  0  0  0
 12  8  2  0  0  0  0
 13  6  1  0  0  0  0
 14  8  1  0  0  0  0
 15 16  1  0  0  0  0
 15  5  1  0  0  0  0
 16 12  1  0  0  0  0
 17 20  1  0  0  0  0
 17 18  1  0  0  0  0
 18  4  1  0  0  0  0
 19 18  2  0  0  0  0
 21 22  1  0  0  0  0
 21 20  1  0  0  0  0
 23 22  1  0  0  0  0
 24 25  2  0  0  0  0
 25 26  1  0  0  0  0
 25 23  1  0  0  0  0
 26 28  1  0  0  0  0
 27 26  2  0  0  0  0
M  END
>  <MODEL>
8

>  <REMARK>
 VINA RESULT:      -8.2      2.775      5.672
  Name = 
  7 active torsions:
  status: ('A' for Active; 'I' for Inactive)
    1  A    between atoms: C_4  and  C_18
    2  A    between atoms: C_4  and  S_25
    3  A    between atoms: C_5  and  C_23
    4  A    between atoms: C_12  and  C_27
    5  A    between atoms: N_17  and  C_26
    6  A    between atoms: C_18  and  C_27
    7  A    between atoms: S_25  and  C_26
                            x       y       z     vdW  Elec       q    Type
                         _______ _______ _______ _____ _____    ______ ____

>  <TORSDO>
F 7

$$$$
=
 OpenBabel10232408403D

 28 31  0  0  1  0  0  0  0  0999 V2000
  188.8750  177.3470  140.9890 N   0  0  0  0  0  0  0  0  0  0  0  0
  185.5720  178.9650  141.4440 C   0  0  0  0  0  3  0  0  0  0  0  0
  189.7500  177.1410  139.8490 C   0  0  0  0  0  3  0  0  0  0  0  0
  189.0920  176.8900  142.2750 C   0  0  0  0  0  0  0  0  0  0  0  0
  184.3370  178.5870  145.4050 C   0  0  0  0  0  3  0  0  0  0  0  0
  187.7370  178.3930  139.1860 C   0  0  0  0  0  3  0  0  0  0  0  0
  186.9860  177.8460  142.9060 C   0  0  0  0  0  0  0  0  0  0  0  0
  183.8230  179.4360  143.1680 C   0  0  0  0  0  3  0  0  0  0  0  0
  186.7870  178.3000  141.5530 C   0  0  0  0  0  0  0  0  0  0  0  0
  188.1280  177.1470  143.2760 C   0  0  0  0  0  3  0  0  0  0  0  0
  187.7670  178.0260  140.6160 C   0  0  0  0  0  0  0  0  0  0  0  0
  185.0380  178.9130  142.7310 C   0  0  1  0  0  3  0  0  0  0  0  0
  189.0550  177.8200  138.6620 C   0  0  0  0  0  3  0  0  0  0  0  0
  183.4750  179.2680  144.5210 C   0  0  0  0  0  3  0  0  0  0  0  0
  185.5600  178.0640  144.9510 C   0  0  0  0  0  3  0  0  0  0  0  0
  185.8800  178.2440  143.6080 C   0  0  0  0  0  0  0  0  0  0  0  0
  191.6130  176.8310  142.6940 N   0  0  0  0  0  2  0  0  0  0  0  0
  190.3410  176.1750  142.6370 C   0  0  0  0  0  0  0  0  0  0  0  0
  190.2930  174.9430  142.8940 O   0  0  0  0  0  0  0  0  0  0  0  0
  191.7950  178.2730  142.6270 C   0  0  0  0  0  2  0  0  0  0  0  0
  191.3540  179.0220  144.2220 S   0  0  0  0  0  0  0  0  0  0  0  0
  191.4300  177.4320  145.0960 C   0  0  0  0  0  2  0  0  0  0  0  0
  190.1230  177.1830  145.8280 C   0  0  0  0  0  2  0  0  0  0  0  0
  189.4680  177.6110  148.1280 C   0  0  0  0  0  2  0  0  0  0  0  0
  190.3630  177.0900  147.2980 C   0  0  0  0  0  0  0  0  0  0  0  0
  191.6010  176.4870  147.8200 C   0  0  0  0  0  0  0  0  0  0  0  0
  192.3890  177.1700  148.5280 O   0  0  0  0  0  1  0  0  0  0  0  0
  191.9140  175.1630  147.5360 O   0  0  0  0  0  0  0  0  0  0  0  0
  1  4  1  0  0  0  0
  2  9  2  0  0  0  0
  3  1  1  0  0  0  0
  4 18  1  0  0  0  0
  4 10  2  0  0  0  0
  6 11  2  0  0  0  0
  7 10  1  0  0  0  0
  7 16  2  0  0  0  0
  8 14  2  0  0  0  0
  9  7  1  0  0  0  0
 11  1  1  0  0  0  0
 11  9  1  0  0  0  0
 12  2  1  6  0  0  0
 12  8  1  0  0  0  0
 12 16  1  0  0  0  0
 13  6  1  0  0  0  0
 13  3  2  0  0  0  0
 14  5  1  0  0  0  0
 15  5  2  0  0  0  0
 16 15  1  0  0  0  0
 18 17  1  0  0  0  0
 18 19  2  0  0  0  0
 20 17  1  0  0  0  0
 20 21  1  0  0  0  0
 21 22  1  0  0  0  0
 22 23  1  0  0  0  0
 23 25  1  0  0  0  0
 25 26  1  0  0  0  0
 25 24  2  0  0  0  0
 26 27  1  0  0  0  0
 28 26  2  0  0  0  0
M  END
>  <MODEL>
9

>  <REMARK>
 VINA RESULT:      -8.2      2.716      6.171
  Name = 
  7 active torsions:
  status: ('A' for Active; 'I' for Inactive)
    1  A    between atoms: C_4  and  C_18
    2  A    between atoms: C_4  and  S_25
    3  A    between atoms: C_5  and  C_23
    4  A    between atoms: C_12  and  C_27
    5  A    between atoms: N_17  and  C_26
    6  A    between atoms: C_18  and  C_27
    7  A    between atoms: S_25  and  C_26
                            x       y       z     vdW  Elec       q    Type
                         _______ _______ _______ _____ _____    ______ ____

>  <TORSDO>
F 7

$$$$
