=
 OpenBabel10232412243D

 38 40  0  0  1  0  0  0  0  0999 V2000
  185.9840  178.0440  145.4160 C   0  0  0  0  0  0  0  0  0  0  0  0
  185.0310  178.0600  146.2890 N   0  0  0  0  0  2  0  0  0  0  0  0
  189.1680  177.6220  141.9080 C   0  0  1  0  0  3  0  0  0  0  0  0
  187.8220  176.6540  143.6990 O   0  0  0  0  0  0  0  0  0  0  0  0
  187.3650  177.7310  145.8320 C   0  0  0  0  0  0  0  0  0  0  0  0
  186.1390  178.8380  140.2380 C   0  0  0  0  0  2  0  0  0  0  0  0
  184.7810  177.9830  143.3080 N   0  0  0  0  0  0  0  0  0  0  0  0
  189.1340  177.9120  147.4740 C   0  0  0  0  0  0  0  0  0  0  0  0
  188.2750  177.1260  144.9420 C   0  0  0  0  0  0  0  0  0  0  0  0
  190.0070  177.3650  146.5830 N   0  0  0  0  0  0  0  0  0  0  0  0
  184.5080  178.2770  142.0720 C   0  0  0  0  0  0  0  0  0  0  0  0
  188.1610  178.5400  141.5160 O   0  0  0  0  0  0  0  0  0  0  0  0
  182.8970  177.8190  140.1350 C   0  0  0  0  0  0  0  0  0  0  0  0
  187.8030  178.1090  147.1080 C   0  0  0  0  0  3  0  0  0  0  0  0
  185.2610  179.3760  141.3650 C   0  0  0  0  0  2  0  0  0  0  0  0
  189.6970  175.4870  142.9480 O   0  0  0  0  0  1  0  0  0  0  0  0
  183.5060  177.5060  141.3950 N   0  0  0  0  0  2  0  0  0  0  0  0
  187.2010  177.8700  140.7380 C   0  0  0  0  0  2  0  0  0  0  0  0
  189.5710  178.3060  148.7740 N   0  0  0  0  0  2  0  0  0  0  0  0
  183.0870  178.9380  139.5860 O   0  0  0  0  0  0  0  0  0  0  0  0
  185.7680  178.7080  144.0960 C   0  0  0  0  0  2  0  0  0  0  0  0
  189.6090  176.9720  145.3450 C   0  0  0  0  0  3  0  0  0  0  0  0
  190.9460  178.1340  149.2130 C   0  0  0  0  0  1  0  0  0  0  0  0
  188.6510  176.3370  142.5800 C   0  0  2  0  0  3  0  0  0  0  0  0
  180.7020  176.7960  139.6440 C   0  0  0  0  0  3  0  0  0  0  0  0
  182.4930  175.8290  138.6110 N   0  0  0  0  0  0  0  0  0  0  0  0
  181.4590  175.1550  138.2390 C   0  0  0  0  0  0  0  0  0  0  0  0
  182.0170  176.8410  139.4840 C   0  0  2  0  0  3  0  0  0  0  0  0
  180.1840  175.6640  138.8190 C   0  0  0  0  0  3  0  0  0  0  0  0
  182.9890  173.6220  137.0560 C   0  0  0  0  0  1  0  0  0  0  0  0
  181.5400  174.0110  137.2880 C   0  0  0  0  0  2  0  0  0  0  0  0
  190.2620  177.4210  140.8490 C   0  0  0  0  0  2  0  0  0  0  0  0
  189.8750  177.2440  138.4680 N   0  0  0  0  0  0  0  0  0  0  0  0
  189.9190  177.9980  139.5150 C   0  0  0  0  0  3  0  0  0  0  0  0
  189.5580  177.7930  137.2220 N   0  0  0  0  0  2  0  0  0  0  0  0
  188.9720  179.1200  137.1310 C   0  0  0  0  0  2  0  0  0  0  0  0
  187.3380  178.0430  135.8500 C   0  0  0  0  0  1  0  0  0  0  0  0
  187.5400  179.0170  136.9090 N   0  0  0  0  0  2  0  0  0  0  0  0
  1  5  1  0  0  0  0
  1  2  2  0  0  0  0
  3 32  1  6  0  0  0
  3 24  1  0  0  0  0
  4  9  1  0  0  0  0
  5 14  2  0  0  0  0
  6 18  1  0  0  0  0
  6 15  1  0  0  0  0
  7 21  1  0  0  0  0
  8 19  1  0  0  0  0
  9 22  2  0  0  0  0
  9  5  1  0  0  0  0
 10  8  2  0  0  0  0
 11  7  2  0  0  0  0
 12  3  1  0  0  0  0
 13 17  1  0  0  0  0
 14  8  1  0  0  0  0
 15 11  1  0  0  0  0
 17 11  1  0  0  0  0
 18 12  1  0  0  0  0
 19 23  1  0  0  0  0
 20 13  2  0  0  0  0
 21  1  1  0  0  0  0
 22 10  1  0  0  0  0
 24 16  1  1  0  0  0
 24  4  1  0  0  0  0
 26 28  1  0  0  0  0
 27 26  2  0  0  0  0
 27 29  1  0  0  0  0
 28 25  1  0  0  0  0
 28 13  1  1  0  0  0
 29 25  2  0  0  0  0
 30 31  1  0  0  0  0
 31 27  1  0  0  0  0
 33 34  2  0  0  0  0
 34 32  1  0  0  0  0
 35 33  1  0  0  0  0
 36 35  1  0  0  0  0
 37 38  1  0  0  0  0
 38 36  1  0  0  0  0
M  END
>  <MODEL>
1

>  <REMARK>
 VINA RESULT:      -7.1      0.000      0.000
  Name = 
  7 active torsions:
  status: ('A' for Active; 'I' for Inactive)
    1  A    between atoms: C_5  and  C_10
    2  A    between atoms: C_6  and  C_19
    3  A    between atoms: C_10  and  C_32
    4  A    between atoms: N_12  and  N_14
    5  A    between atoms: N_12  and  C_31
    6  A    between atoms: C_13  and  C_24
    7  A    between atoms: C_31  and  N_37
                            x       y       z     vdW  Elec       q    Type
                         _______ _______ _______ _____ _____    ______ ____

>  <TORSDO>
F 7

$$$$
=
 OpenBabel10232412243D

 38 40  0  0  1  0  0  0  0  0999 V2000
  193.0860  176.2420  138.6120 C   0  0  0  0  0  0  0  0  0  0  0  0
  193.9930  176.5950  139.4640 N   0  0  0  0  0  2  0  0  0  0  0  0
  189.4240  174.8270  135.9280 C   0  0  1  0  0  3  0  0  0  0  0  0
  191.1200  174.3920  137.6280 O   0  0  0  0  0  0  0  0  0  0  0  0
  193.3980  175.2450  137.5700 C   0  0  0  0  0  0  0  0  0  0  0  0
  188.0630  177.5760  137.9360 C   0  0  0  0  0  2  0  0  0  0  0  0
  191.0420  177.0650  139.6300 N   0  0  0  0  0  0  0  0  0  0  0  0
  194.9740  174.3160  135.9850 C   0  0  0  0  0  0  0  0  0  0  0  0
  192.3970  174.4070  137.0410 C   0  0  0  0  0  0  0  0  0  0  0  0
  193.9810  173.5460  135.4610 N   0  0  0  0  0  0  0  0  0  0  0  0
  189.8700  177.6250  139.6900 C   0  0  0  0  0  0  0  0  0  0  0  0
  189.2040  176.1610  136.3520 O   0  0  0  0  0  0  0  0  0  0  0  0
  187.9570  178.2790  141.2610 C   0  0  0  0  0  0  0  0  0  0  0  0
  194.6940  175.1820  137.0420 C   0  0  0  0  0  3  0  0  0  0  0  0
  189.2890  178.3080  138.4770 C   0  0  0  0  0  2  0  0  0  0  0  0
  190.1400  172.5810  136.5310 O   0  0  0  0  0  1  0  0  0  0  0  0
  189.1360  177.5370  140.9190 N   0  0  0  0  0  2  0  0  0  0  0  0
  188.3820  176.1560  137.4930 C   0  0  0  0  0  2  0  0  0  0  0  0
  196.2960  174.2630  135.4520 N   0  0  0  0  0  2  0  0  0  0  0  0
  187.5600  179.2300  140.5360 O   0  0  0  0  0  0  0  0  0  0  0  0
  191.8800  177.1040  138.4400 C   0  0  0  0  0  2  0  0  0  0  0  0
  192.7180  173.5720  135.9610 C   0  0  0  0  0  3  0  0  0  0  0  0
  196.6500  173.3890  134.3460 C   0  0  0  0  0  1  0  0  0  0  0  0
  189.9350  173.8730  137.0230 C   0  0  2  0  0  3  0  0  0  0  0  0
  187.5770  177.0120  143.3480 C   0  0  0  0  0  3  0  0  0  0  0  0
  186.0210  178.6110  142.8690 N   0  0  0  0  0  0  0  0  0  0  0  0
  185.6440  178.0650  143.9750 C   0  0  0  0  0  0  0  0  0  0  0  0
  187.2160  177.9500  142.4850 C   0  0  0  0  0  0  0  0  0  0  0  0
  186.5650  176.9920  144.4460 C   0  0  0  0  0  2  0  0  0  0  0  0
  184.7710  178.7430  146.1810 C   0  0  0  0  0  1  0  0  0  0  0  0
  184.4310  178.5050  144.7210 C   0  0  0  0  0  2  0  0  0  0  0  0
  188.3030  174.2710  135.0370 C   0  0  0  0  0  2  0  0  0  0  0  0
  186.7580  172.7130  136.0560 N   0  0  0  0  0  0  0  0  0  0  0  0
  187.0530  173.9410  135.7840 C   0  0  0  0  0  3  0  0  0  0  0  0
  185.5840  172.4110  136.7510 N   0  0  0  0  0  2  0  0  0  0  0  0
  185.0430  173.3480  137.7210 C   0  0  0  0  0  2  0  0  0  0  0  0
  183.1080  172.6070  136.6350 C   0  0  0  0  0  1  0  0  0  0  0  0
  183.6940  173.7330  137.3410 N   0  0  0  0  0  2  0  0  0  0  0  0
  1  2  2  0  0  0  0
  3 32  1  1  0  0  0
  3 12  1  0  0  0  0
  3 24  1  0  0  0  0
  5  1  1  0  0  0  0
  6 15  1  0  0  0  0
  7 11  2  0  0  0  0
  8 14  1  0  0  0  0
  9  5  1  0  0  0  0
  9  4  1  0  0  0  0
 10 22  1  0  0  0  0
 10  8  2  0  0  0  0
 11 17  1  0  0  0  0
 12 18  1  0  0  0  0
 13 28  1  0  0  0  0
 14  5  2  0  0  0  0
 15 11  1  0  0  0  0
 17 13  1  0  0  0  0
 18  6  1  0  0  0  0
 19  8  1  0  0  0  0
 20 13  2  0  0  0  0
 21  1  1  0  0  0  0
 21  7  1  0  0  0  0
 22  9  2  0  0  0  0
 23 19  1  0  0  0  0
 24 16  1  6  0  0  0
 24  4  1  0  0  0  0
 25 29  1  0  0  0  0
 26 27  2  0  0  0  0
 27 29  1  0  0  0  0
 27 31  1  0  0  0  0
 28 26  1  0  0  0  0
 28 25  2  0  0  0  0
 31 30  1  0  0  0  0
 32 34  1  0  0  0  0
 33 35  1  0  0  0  0
 34 33  2  0  0  0  0
 35 36  1  0  0  0  0
 37 38  1  0  0  0  0
 38 36  1  0  0  0  0
M  END
>  <MODEL>
2

>  <REMARK>
 VINA RESULT:      -6.9      4.308      8.622
  Name = 
  7 active torsions:
  status: ('A' for Active; 'I' for Inactive)
    1  A    between atoms: C_5  and  C_10
    2  A    between atoms: C_6  and  C_19
    3  A    between atoms: C_10  and  C_32
    4  A    between atoms: N_12  and  N_14
    5  A    between atoms: N_12  and  C_31
    6  A    between atoms: C_13  and  C_24
    7  A    between atoms: C_31  and  N_37
                            x       y       z     vdW  Elec       q    Type
                         _______ _______ _______ _____ _____    ______ ____

>  <TORSDO>
F 7

$$$$
=
 OpenBabel10232412243D

 38 40  0  0  1  0  0  0  0  0999 V2000
  186.1550  178.0450  145.5380 C   0  0  0  0  0  0  0  0  0  0  0  0
  185.2110  178.0250  146.4210 N   0  0  0  0  0  2  0  0  0  0  0  0
  189.3030  177.7640  141.9840 C   0  0  1  0  0  3  0  0  0  0  0  0
  187.9820  176.7260  143.7550 O   0  0  0  0  0  0  0  0  0  0  0  0
  187.5420  177.7270  145.9280 C   0  0  0  0  0  0  0  0  0  0  0  0
  186.2490  179.0160  140.3880 C   0  0  0  0  0  2  0  0  0  0  0  0
  184.9300  178.0470  143.4420 N   0  0  0  0  0  0  0  0  0  0  0  0
  189.3270  177.8630  147.5560 C   0  0  0  0  0  0  0  0  0  0  0  0
  188.4460  177.1590  145.0090 C   0  0  0  0  0  0  0  0  0  0  0  0
  190.1940  177.3520  146.6390 N   0  0  0  0  0  0  0  0  0  0  0  0
  184.6410  178.3820  142.2190 C   0  0  0  0  0  0  0  0  0  0  0  0
  188.2870  178.6870  141.6350 O   0  0  0  0  0  0  0  0  0  0  0  0
  183.0120  177.9800  140.2850 C   0  0  0  0  0  0  0  0  0  0  0  0
  187.9910  178.0640  147.2120 C   0  0  0  0  0  3  0  0  0  0  0  0
  185.3800  179.5090  141.5420 C   0  0  0  0  0  2  0  0  0  0  0  0
  189.8570  175.5980  142.9450 O   0  0  0  0  0  1  0  0  0  0  0  0
  183.6370  177.6280  141.5270 N   0  0  0  0  0  2  0  0  0  0  0  0
  187.3220  178.0380  140.8440 C   0  0  0  0  0  2  0  0  0  0  0  0
  189.7760  178.2150  148.8650 N   0  0  0  0  0  2  0  0  0  0  0  0
  183.1900  179.1180  139.7730 O   0  0  0  0  0  0  0  0  0  0  0  0
  185.9200  178.7520  144.2440 C   0  0  0  0  0  2  0  0  0  0  0  0
  189.7850  177.0000  145.3920 C   0  0  0  0  0  3  0  0  0  0  0  0
  191.1560  178.0380  149.2840 C   0  0  0  0  0  1  0  0  0  0  0  0
  188.8020  176.4530  142.6170 C   0  0  2  0  0  3  0  0  0  0  0  0
  180.8120  177.0020  139.7310 C   0  0  0  0  0  3  0  0  0  0  0  0
  182.6120  175.9950  138.7540 N   0  0  0  0  0  0  0  0  0  0  0  0
  181.5750  175.3410  138.3530 C   0  0  0  0  0  0  0  0  0  0  0  0
  182.1320  177.0190  139.6110 C   0  0  2  0  0  3  0  0  0  0  0  0
  180.2950  175.8790  138.8940 C   0  0  0  0  0  3  0  0  0  0  0  0
  183.0860  174.0200  136.9180 C   0  0  0  0  0  1  0  0  0  0  0  0
  181.6600  174.1940  137.4060 C   0  0  0  0  0  2  0  0  0  0  0  0
  190.3870  177.6050  140.9080 C   0  0  0  0  0  2  0  0  0  0  0  0
  190.8570  175.9960  139.1640 N   0  0  0  0  0  0  0  0  0  0  0  0
  189.9810  176.7230  139.7730 C   0  0  0  0  0  3  0  0  0  0  0  0
  190.4690  175.1760  138.0990 N   0  0  0  0  0  2  0  0  0  0  0  0
  189.3150  175.5230  137.2880 C   0  0  0  0  0  2  0  0  0  0  0  0
  188.9550  177.5300  136.1410 C   0  0  0  0  0  1  0  0  0  0  0  0
  189.7340  176.3040  136.1360 N   0  0  0  0  0  2  0  0  0  0  0  0
  1  5  1  0  0  0  0
  1  2  2  0  0  0  0
  3 32  1  6  0  0  0
  3 24  1  0  0  0  0
  4  9  1  0  0  0  0
  5 14  2  0  0  0  0
  6 18  1  0  0  0  0
  6 15  1  0  0  0  0
  7 21  1  0  0  0  0
  8 19  1  0  0  0  0
  9 22  2  0  0  0  0
  9  5  1  0  0  0  0
 10  8  2  0  0  0  0
 11  7  2  0  0  0  0
 12  3  1  0  0  0  0
 13 17  1  0  0  0  0
 14  8  1  0  0  0  0
 15 11  1  0  0  0  0
 17 11  1  0  0  0  0
 18 12  1  0  0  0  0
 19 23  1  0  0  0  0
 20 13  2  0  0  0  0
 21  1  1  0  0  0  0
 22 10  1  0  0  0  0
 24 16  1  1  0  0  0
 24  4  1  0  0  0  0
 26 28  1  0  0  0  0
 27 26  2  0  0  0  0
 27 29  1  0  0  0  0
 28 25  1  0  0  0  0
 28 13  1  1  0  0  0
 29 25  2  0  0  0  0
 30 31  1  0  0  0  0
 31 27  1  0  0  0  0
 33 34  2  0  0  0  0
 34 32  1  0  0  0  0
 35 33  1  0  0  0  0
 36 35  1  0  0  0  0
 38 37  1  0  0  0  0
 38 36  1  0  0  0  0
M  END
>  <MODEL>
3

>  <REMARK>
 VINA RESULT:      -6.8      0.876      1.073
  Name = 
  7 active torsions:
  status: ('A' for Active; 'I' for Inactive)
    1  A    between atoms: C_5  and  C_10
    2  A    between atoms: C_6  and  C_19
    3  A    between atoms: C_10  and  C_32
    4  A    between atoms: N_12  and  N_14
    5  A    between atoms: N_12  and  C_31
    6  A    between atoms: C_13  and  C_24
    7  A    between atoms: C_31  and  N_37
                            x       y       z     vdW  Elec       q    Type
                         _______ _______ _______ _____ _____    ______ ____

>  <TORSDO>
F 7

$$$$
=
 OpenBabel10232412243D

 38 40  0  0  1  0  0  0  0  0999 V2000
  190.8570  177.0910  139.0190 C   0  0  0  0  0  0  0  0  0  0  0  0
  191.4900  177.6710  139.9850 N   0  0  0  0  0  2  0  0  0  0  0  0
  188.1020  174.8900  135.8280 C   0  0  1  0  0  3  0  0  0  0  0  0
  189.3120  174.9190  137.9470 O   0  0  0  0  0  0  0  0  0  0  0  0
  191.4800  175.9650  138.2960 C   0  0  0  0  0  0  0  0  0  0  0  0
  186.1280  177.7970  136.8730 C   0  0  0  0  0  2  0  0  0  0  0  0
  188.5790  177.8750  139.3200 N   0  0  0  0  0  0  0  0  0  0  0  0
  193.4600  174.9360  137.3600 C   0  0  0  0  0  0  0  0  0  0  0  0
  190.6950  174.9560  137.7040 C   0  0  0  0  0  0  0  0  0  0  0  0
  192.6790  173.9940  136.7620 N   0  0  0  0  0  0  0  0  0  0  0  0
  187.4070  178.3200  138.9780 C   0  0  0  0  0  0  0  0  0  0  0  0
  187.7130  176.2490  135.9210 O   0  0  0  0  0  0  0  0  0  0  0  0
  185.1190  179.0460  139.8700 C   0  0  0  0  0  0  0  0  0  0  0  0
  192.8710  175.9390  138.1300 C   0  0  0  0  0  3  0  0  0  0  0  0
  187.1310  178.7260  137.5520 C   0  0  0  0  0  2  0  0  0  0  0  0
  188.7440  172.8600  137.0070 O   0  0  0  0  0  1  0  0  0  0  0  0
  186.3810  178.3740  139.9790 N   0  0  0  0  0  2  0  0  0  0  0  0
  186.6220  176.3600  136.8010 C   0  0  0  0  0  2  0  0  0  0  0  0
  194.8770  174.9200  137.1930 N   0  0  0  0  0  2  0  0  0  0  0  0
  184.8790  179.8160  138.9010 O   0  0  0  0  0  0  0  0  0  0  0  0
  189.6970  177.7910  138.3910 C   0  0  0  0  0  2  0  0  0  0  0  0
  191.3300  173.9840  136.9180 C   0  0  0  0  0  3  0  0  0  0  0  0
  195.5520  173.9080  136.3970 C   0  0  0  0  0  1  0  0  0  0  0  0
  188.3540  174.1910  137.1770 C   0  0  2  0  0  3  0  0  0  0  0  0
  182.8320  178.5600  140.6700 C   0  0  0  0  0  3  0  0  0  0  0  0
  184.3730  178.9950  142.2960 N   0  0  0  0  0  0  0  0  0  0  0  0
  183.2590  178.7780  142.9080 C   0  0  0  0  0  0  0  0  0  0  0  0
  184.1000  178.8620  140.9100 C   0  0  0  0  0  0  0  0  0  0  0  0
  182.1320  178.4640  141.9850 C   0  0  0  0  0  2  0  0  0  0  0  0
  184.5110  178.8160  145.0340 C   0  0  0  0  0  1  0  0  0  0  0  0
  183.1360  178.7990  144.3930 C   0  0  0  0  0  2  0  0  0  0  0  0
  187.2830  174.0840  134.8090 C   0  0  0  0  0  2  0  0  0  0  0  0
  184.8760  173.9990  135.0450 N   0  0  0  0  0  0  0  0  0  0  0  0
  186.0250  173.5080  135.3730 C   0  0  0  0  0  3  0  0  0  0  0  0
  183.7040  173.4580  135.5810 N   0  0  0  0  0  2  0  0  0  0  0  0
  182.9070  174.2220  136.5250 C   0  0  0  0  0  2  0  0  0  0  0  0
  183.0540  175.5720  138.4300 C   0  0  0  0  0  1  0  0  0  0  0  0
  183.6600  174.4410  137.7480 N   0  0  0  0  0  2  0  0  0  0  0  0
  1  2  2  0  0  0  0
  3 32  1  1  0  0  0
  3 12  1  0  0  0  0
  3 24  1  0  0  0  0
  5  1  1  0  0  0  0
  6 15  1  0  0  0  0
  8 14  1  0  0  0  0
  9  4  1  0  0  0  0
  9  5  1  0  0  0  0
 10 22  1  0  0  0  0
 10  8  2  0  0  0  0
 11  7  2  0  0  0  0
 11 17  1  0  0  0  0
 12 18  1  0  0  0  0
 13 17  1  0  0  0  0
 13 28  1  0  0  0  0
 14  5  2  0  0  0  0
 15 11  1  0  0  0  0
 18  6  1  0  0  0  0
 19  8  1  0  0  0  0
 20 13  2  0  0  0  0
 21  1  1  0  0  0  0
 21  7  1  0  0  0  0
 22  9  2  0  0  0  0
 23 19  1  0  0  0  0
 24 16  1  6  0  0  0
 24  4  1  0  0  0  0
 25 28  2  0  0  0  0
 25 29  1  0  0  0  0
 26 27  2  0  0  0  0
 27 31  1  0  0  0  0
 28 26  1  0  0  0  0
 29 27  1  0  0  0  0
 31 30  1  0  0  0  0
 32 34  1  0  0  0  0
 33 34  2  0  0  0  0
 33 35  1  0  0  0  0
 35 36  1  0  0  0  0
 36 38  1  0  0  0  0
 38 37  1  0  0  0  0
M  END
>  <MODEL>
4

>  <REMARK>
 VINA RESULT:      -6.8      3.584      7.406
  Name = 
  7 active torsions:
  status: ('A' for Active; 'I' for Inactive)
    1  A    between atoms: C_5  and  C_10
    2  A    between atoms: C_6  and  C_19
    3  A    between atoms: C_10  and  C_32
    4  A    between atoms: N_12  and  N_14
    5  A    between atoms: N_12  and  C_31
    6  A    between atoms: C_13  and  C_24
    7  A    between atoms: C_31  and  N_37
                            x       y       z     vdW  Elec       q    Type
                         _______ _______ _______ _____ _____    ______ ____

>  <TORSDO>
F 7

$$$$
=
 OpenBabel10232412243D

 38 40  0  0  1  0  0  0  0  0999 V2000
  190.1450  177.1950  140.6960 C   0  0  0  0  0  0  0  0  0  0  0  0
  190.9280  177.3010  141.7200 N   0  0  0  0  0  2  0  0  0  0  0  0
  187.6960  177.0150  136.6230 C   0  0  1  0  0  3  0  0  0  0  0  0
  188.9120  178.2650  138.3320 O   0  0  0  0  0  0  0  0  0  0  0  0
  188.8060  177.8160  140.7200 C   0  0  0  0  0  0  0  0  0  0  0  0
  190.6460  174.9290  135.9970 C   0  0  0  0  0  2  0  0  0  0  0  0
  191.6500  176.4510  138.9430 N   0  0  0  0  0  0  0  0  0  0  0  0
  186.8030  178.3920  141.9490 C   0  0  0  0  0  0  0  0  0  0  0  0
  188.1860  178.2550  139.5340 C   0  0  0  0  0  0  0  0  0  0  0  0
  186.2070  178.7710  140.7860 N   0  0  0  0  0  0  0  0  0  0  0  0
  192.0490  175.7660  137.9130 C   0  0  0  0  0  0  0  0  0  0  0  0
  188.5490  175.8860  136.7050 O   0  0  0  0  0  0  0  0  0  0  0  0
  194.0010  175.3860  136.3000 C   0  0  0  0  0  0  0  0  0  0  0  0
  188.1090  177.9030  141.9320 C   0  0  0  0  0  3  0  0  0  0  0  0
  191.2120  174.6290  137.3830 C   0  0  0  0  0  2  0  0  0  0  0  0
  187.4470  179.4160  136.9280 O   0  0  0  0  0  1  0  0  0  0  0  0
  193.2780  176.1460  137.2780 N   0  0  0  0  0  2  0  0  0  0  0  0
  189.7330  176.1460  135.9930 C   0  0  0  0  0  2  0  0  0  0  0  0
  186.0990  178.4720  143.1880 N   0  0  0  0  0  2  0  0  0  0  0  0
  193.6810  174.1960  136.0400 O   0  0  0  0  0  0  0  0  0  0  0  0
  190.4290  176.1450  139.6740 C   0  0  0  0  0  2  0  0  0  0  0  0
  186.8630  178.7150  139.5970 C   0  0  0  0  0  3  0  0  0  0  0  0
  184.7340  178.9650  143.2730 C   0  0  0  0  0  1  0  0  0  0  0  0
  188.3470  178.3520  137.0220 C   0  0  2  0  0  3  0  0  0  0  0  0
  195.1590  177.2130  135.1040 C   0  0  0  0  0  3  0  0  0  0  0  0
  196.3770  175.3060  135.4080 N   0  0  0  0  0  0  0  0  0  0  0  0
  197.1430  176.1210  134.7660 C   0  0  0  0  0  0  0  0  0  0  0  0
  195.1490  175.9870  135.6090 C   0  0  2  0  0  3  0  0  0  0  0  0
  196.5020  177.4380  134.4900 C   0  0  0  0  0  3  0  0  0  0  0  0
  199.0800  174.6820  135.2820 C   0  0  0  0  0  1  0  0  0  0  0  0
  198.5430  175.7840  134.3860 C   0  0  0  0  0  2  0  0  0  0  0  0
  186.8430  177.0500  135.3470 C   0  0  0  0  0  2  0  0  0  0  0  0
  184.9410  176.6430  136.7850 N   0  0  0  0  0  0  0  0  0  0  0  0
  185.3760  176.9270  135.6030 C   0  0  0  0  0  3  0  0  0  0  0  0
  183.5670  176.5250  137.0160 N   0  0  0  0  0  2  0  0  0  0  0  0
  183.0730  176.1410  138.3270 C   0  0  0  0  0  2  0  0  0  0  0  0
  182.0530  177.6720  139.7720 C   0  0  0  0  0  1  0  0  0  0  0  0
  183.3390  177.1990  139.2880 N   0  0  0  0  0  2  0  0  0  0  0  0
  1  5  1  0  0  0  0
  1  2  2  0  0  0  0
  3 32  1  6  0  0  0
  3 12  1  0  0  0  0
  3 24  1  0  0  0  0
  4  9  1  0  0  0  0
  5 14  2  0  0  0  0
  6 15  1  0  0  0  0
  7 21  1  0  0  0  0
  8 19  1  0  0  0  0
  9 22  2  0  0  0  0
  9  5  1  0  0  0  0
 10  8  2  0  0  0  0
 11  7  2  0  0  0  0
 13 17  1  0  0  0  0
 14  8  1  0  0  0  0
 15 11  1  0  0  0  0
 17 11  1  0  0  0  0
 18  6  1  0  0  0  0
 18 12  1  0  0  0  0
 19 23  1  0  0  0  0
 20 13  2  0  0  0  0
 21  1  1  0  0  0  0
 22 10  1  0  0  0  0
 24 16  1  1  0  0  0
 24  4  1  0  0  0  0
 25 28  1  0  0  0  0
 26 28  1  0  0  0  0
 27 26  2  0  0  0  0
 28 13  1  6  0  0  0
 29 27  1  0  0  0  0
 29 25  2  0  0  0  0
 31 27  1  0  0  0  0
 31 30  1  0  0  0  0
 32 34  1  0  0  0  0
 33 35  1  0  0  0  0
 34 33  2  0  0  0  0
 35 36  1  0  0  0  0
 36 38  1  0  0  0  0
 38 37  1  0  0  0  0
M  END
>  <MODEL>
5

>  <REMARK>
 VINA RESULT:      -6.7      4.639      9.415
  Name = 
  7 active torsions:
  status: ('A' for Active; 'I' for Inactive)
    1  A    between atoms: C_5  and  C_10
    2  A    between atoms: C_6  and  C_19
    3  A    between atoms: C_10  and  C_32
    4  A    between atoms: N_12  and  N_14
    5  A    between atoms: N_12  and  C_31
    6  A    between atoms: C_13  and  C_24
    7  A    between atoms: C_31  and  N_37
                            x       y       z     vdW  Elec       q    Type
                         _______ _______ _______ _____ _____    ______ ____

>  <TORSDO>
F 7

$$$$
=
 OpenBabel10232412243D

 38 40  0  0  1  0  0  0  0  0999 V2000
  184.3840  174.5100  136.0780 C   0  0  0  0  0  0  0  0  0  0  0  0
  183.3620  173.8800  135.5990 N   0  0  0  0  0  2  0  0  0  0  0  0
  187.9080  177.3000  137.6320 C   0  0  1  0  0  3  0  0  0  0  0  0
  186.5570  176.3730  135.8230 O   0  0  0  0  0  0  0  0  0  0  0  0
  185.7510  174.0790  135.7250 C   0  0  0  0  0  0  0  0  0  0  0  0
  184.9040  178.6680  139.2260 C   0  0  0  0  0  2  0  0  0  0  0  0
  183.4050  176.5680  136.9130 N   0  0  0  0  0  0  0  0  0  0  0  0
  187.3130  172.2900  135.2620 C   0  0  0  0  0  0  0  0  0  0  0  0
  186.8180  174.9990  135.6910 C   0  0  0  0  0  0  0  0  0  0  0  0
  188.3360  173.1890  135.2760 N   0  0  0  0  0  0  0  0  0  0  0  0
  183.2080  177.5600  137.7310 C   0  0  0  0  0  0  0  0  0  0  0  0
  186.8200  177.3770  138.5350 O   0  0  0  0  0  0  0  0  0  0  0  0
  181.8690  179.7110  138.1030 C   0  0  0  0  0  0  0  0  0  0  0  0
  186.0070  172.7220  135.4940 C   0  0  0  0  0  3  0  0  0  0  0  0
  183.8550  177.5660  139.0930 C   0  0  0  0  0  2  0  0  0  0  0  0
  188.6450  177.2810  135.3120 O   0  0  0  0  0  1  0  0  0  0  0  0
  182.3970  178.6560  137.2860 N   0  0  0  0  0  2  0  0  0  0  0  0
  186.0440  178.5100  138.2320 C   0  0  0  0  0  2  0  0  0  0  0  0
  187.5650  170.9040  135.0330 N   0  0  0  0  0  2  0  0  0  0  0  0
  181.9440  179.6530  139.3590 O   0  0  0  0  0  0  0  0  0  0  0  0
  184.1970  175.3980  137.2630 C   0  0  0  0  0  2  0  0  0  0  0  0
  188.1170  174.5150  135.4810 C   0  0  0  0  0  3  0  0  0  0  0  0
  188.9030  170.3900  134.7930 C   0  0  0  0  0  1  0  0  0  0  0  0
  187.5240  177.3740  136.1430 C   0  0  2  0  0  3  0  0  0  0  0  0
  180.4710  180.7890  136.3740 C   0  0  0  0  0  3  0  0  0  0  0  0
  181.2900  182.1800  137.9880 N   0  0  0  0  0  0  0  0  0  0  0  0
  180.6050  182.9250  137.1880 C   0  0  0  0  0  0  0  0  0  0  0  0
  181.2060  180.8600  137.4750 C   0  0  2  0  0  3  0  0  0  0  0  0
  179.9820  182.1660  136.0670 C   0  0  0  0  0  3  0  0  0  0  0  0
  180.9010  185.1580  136.1830 C   0  0  0  0  0  1  0  0  0  0  0  0
  180.4260  184.3880  137.4020 C   0  0  0  0  0  2  0  0  0  0  0  0
  189.1140  178.1550  138.0470 C   0  0  0  0  0  2  0  0  0  0  0  0
  190.0530  176.7500  139.7780 N   0  0  0  0  0  0  0  0  0  0  0  0
  189.5750  177.9020  139.4450 C   0  0  0  0  0  3  0  0  0  0  0  0
  190.4780  176.5200  141.0900 N   0  0  0  0  0  2  0  0  0  0  0  0
  191.2640  177.5180  141.7940 C   0  0  0  0  0  2  0  0  0  0  0  0
  191.5190  178.6040  143.8510 C   0  0  0  0  0  1  0  0  0  0  0  0
  190.5460  177.9760  142.9720 N   0  0  0  0  0  2  0  0  0  0  0  0
  1 21  1  0  0  0  0
  2  1  2  0  0  0  0
  3 32  1  1  0  0  0
  3 12  1  0  0  0  0
  4 24  1  0  0  0  0
  5  1  1  0  0  0  0
  7 21  1  0  0  0  0
  7 11  2  0  0  0  0
  8 10  2  0  0  0  0
  8 14  1  0  0  0  0
  9  5  1  0  0  0  0
  9  4  1  0  0  0  0
 10 22  1  0  0  0  0
 11 15  1  0  0  0  0
 13 20  2  0  0  0  0
 14  5  2  0  0  0  0
 15  6  1  0  0  0  0
 17 11  1  0  0  0  0
 17 13  1  0  0  0  0
 18 12  1  0  0  0  0
 18  6  1  0  0  0  0
 19  8  1  0  0  0  0
 22  9  2  0  0  0  0
 23 19  1  0  0  0  0
 24 16  1  6  0  0  0
 24  3  1  0  0  0  0
 25 28  1  0  0  0  0
 27 31  1  0  0  0  0
 27 26  2  0  0  0  0
 28 26  1  0  0  0  0
 28 13  1  6  0  0  0
 29 25  2  0  0  0  0
 29 27  1  0  0  0  0
 30 31  1  0  0  0  0
 32 34  1  0  0  0  0
 33 35  1  0  0  0  0
 34 33  2  0  0  0  0
 35 36  1  0  0  0  0
 36 38  1  0  0  0  0
 38 37  1  0  0  0  0
M  END
>  <MODEL>
6

>  <REMARK>
 VINA RESULT:      -6.2      4.243      8.251
  Name = 
  7 active torsions:
  status: ('A' for Active; 'I' for Inactive)
    1  A    between atoms: C_5  and  C_10
    2  A    between atoms: C_6  and  C_19
    3  A    between atoms: C_10  and  C_32
    4  A    between atoms: N_12  and  N_14
    5  A    between atoms: N_12  and  C_31
    6  A    between atoms: C_13  and  C_24
    7  A    between atoms: C_31  and  N_37
                            x       y       z     vdW  Elec       q    Type
                         _______ _______ _______ _____ _____    ______ ____

>  <TORSDO>
F 7

$$$$
=
 OpenBabel10232412243D

 38 40  0  0  1  0  0  0  0  0999 V2000
  186.0250  172.4590  136.0970 C   0  0  0  0  0  0  0  0  0  0  0  0
  186.7700  171.4080  135.9890 N   0  0  0  0  0  2  0  0  0  0  0  0
  183.5980  176.4600  136.9470 C   0  0  1  0  0  3  0  0  0  0  0  0
  184.3900  174.2550  137.6320 O   0  0  0  0  0  0  0  0  0  0  0  0
  184.5570  172.3210  136.1660 C   0  0  0  0  0  0  0  0  0  0  0  0
  187.0520  177.5860  136.4510 C   0  0  0  0  0  2  0  0  0  0  0  0
  187.6100  174.1790  136.7460 N   0  0  0  0  0  0  0  0  0  0  0  0
  182.5380  171.1990  135.4450 C   0  0  0  0  0  0  0  0  0  0  0  0
  183.7680  173.2640  136.8530 C   0  0  0  0  0  0  0  0  0  0  0  0
  181.7930  172.1450  136.0810 N   0  0  0  0  0  0  0  0  0  0  0  0
  188.1710  175.3510  136.7610 C   0  0  0  0  0  0  0  0  0  0  0  0
  184.7900  176.7760  136.2480 O   0  0  0  0  0  0  0  0  0  0  0  0
  190.0570  176.7390  137.7990 C   0  0  0  0  0  0  0  0  0  0  0  0
  183.9300  171.2780  135.4730 C   0  0  0  0  0  3  0  0  0  0  0  0
  187.7520  176.4100  135.7720 C   0  0  0  0  0  2  0  0  0  0  0  0
  182.5530  175.1810  138.7340 O   0  0  0  0  0  1  0  0  0  0  0  0
  189.1630  175.6180  137.7620 N   0  0  0  0  0  2  0  0  0  0  0  0
  185.7780  177.1680  137.1690 C   0  0  0  0  0  2  0  0  0  0  0  0
  181.9080  170.1340  134.7320 N   0  0  0  0  0  2  0  0  0  0  0  0
  190.1530  177.5200  136.8140 O   0  0  0  0  0  0  0  0  0  0  0  0
  186.6030  173.7940  135.7660 C   0  0  0  0  0  2  0  0  0  0  0  0
  182.3720  173.1590  136.7750 C   0  0  0  0  0  3  0  0  0  0  0  0
  180.4630  170.0010  134.6580 C   0  0  0  0  0  1  0  0  0  0  0  0
  183.7680  175.4530  138.0990 C   0  0  2  0  0  3  0  0  0  0  0  0
  192.2160  177.0550  138.9580 C   0  0  0  0  0  3  0  0  0  0  0  0
  190.3640  177.1190  140.2900 N   0  0  0  0  0  0  0  0  0  0  0  0
  191.3740  177.2920  141.0730 C   0  0  0  0  0  0  0  0  0  0  0  0
  190.8940  176.9690  138.9820 C   0  0  0  0  0  0  0  0  0  0  0  0
  192.6810  177.2890  140.3570 C   0  0  0  0  0  2  0  0  0  0  0  0
  191.1050  176.1900  143.2630 C   0  0  0  0  0  1  0  0  0  0  0  0
  191.2310  177.5170  142.5390 C   0  0  0  0  0  2  0  0  0  0  0  0
  182.7260  177.6840  137.2610 C   0  0  0  0  0  2  0  0  0  0  0  0
  183.9220  179.0810  138.8330 N   0  0  0  0  0  0  0  0  0  0  0  0
  182.9560  178.2500  138.6250 C   0  0  0  0  0  3  0  0  0  0  0  0
  184.1340  179.6020  140.1130 N   0  0  0  0  0  2  0  0  0  0  0  0
  185.0560  178.9500  141.0280 C   0  0  0  0  0  2  0  0  0  0  0  0
  187.3110  178.4860  141.4440 C   0  0  0  0  0  1  0  0  0  0  0  0
  186.3540  178.7880  140.3930 N   0  0  0  0  0  2  0  0  0  0  0  0
  1  5  1  0  0  0  0
  2  1  2  0  0  0  0
  3 32  1  1  0  0  0
  3 24  1  0  0  0  0
  4 24  1  0  0  0  0
  5  9  1  0  0  0  0
  6 18  1  0  0  0  0
  7 11  2  0  0  0  0
  8 14  1  0  0  0  0
  8 10  2  0  0  0  0
  9  4  1  0  0  0  0
 10 22  1  0  0  0  0
 11 17  1  0  0  0  0
 12  3  1  0  0  0  0
 12 18  1  0  0  0  0
 13 28  1  0  0  0  0
 14  5  2  0  0  0  0
 15  6  1  0  0  0  0
 15 11  1  0  0  0  0
 17 13  1  0  0  0  0
 19  8  1  0  0  0  0
 20 13  2  0  0  0  0
 21  1  1  0  0  0  0
 21  7  1  0  0  0  0
 22  9  2  0  0  0  0
 23 19  1  0  0  0  0
 24 16  1  6  0  0  0
 25 28  2  0  0  0  0
 25 29  1  0  0  0  0
 26 27  2  0  0  0  0
 27 31  1  0  0  0  0
 28 26  1  0  0  0  0
 29 27  1  0  0  0  0
 31 30  1  0  0  0  0
 32 34  1  0  0  0  0
 33 35  1  0  0  0  0
 34 33  2  0  0  0  0
 35 36  1  0  0  0  0
 38 36  1  0  0  0  0
 38 37  1  0  0  0  0
M  END
>  <MODEL>
7

>  <REMARK>
 VINA RESULT:      -6.1      3.847      9.975
  Name = 
  7 active torsions:
  status: ('A' for Active; 'I' for Inactive)
    1  A    between atoms: C_5  and  C_10
    2  A    between atoms: C_6  and  C_19
    3  A    between atoms: C_10  and  C_32
    4  A    between atoms: N_12  and  N_14
    5  A    between atoms: N_12  and  C_31
    6  A    between atoms: C_13  and  C_24
    7  A    between atoms: C_31  and  N_37
                            x       y       z     vdW  Elec       q    Type
                         _______ _______ _______ _____ _____    ______ ____

>  <TORSDO>
F 7

$$$$
=
 OpenBabel10232412243D

 38 40  0  0  1  0  0  0  0  0999 V2000
  187.8120  178.0250  139.7830 C   0  0  0  0  0  0  0  0  0  0  0  0
  187.0660  178.1540  138.7350 N   0  0  0  0  0  2  0  0  0  0  0  0
  190.7520  177.0770  143.3990 C   0  0  1  0  0  3  0  0  0  0  0  0
  188.8720  176.4800  141.9610 O   0  0  0  0  0  0  0  0  0  0  0  0
  187.2070  178.0470  141.1290 C   0  0  0  0  0  0  0  0  0  0  0  0
  192.9570  177.3130  140.4790 C   0  0  0  0  0  2  0  0  0  0  0  0
  189.8960  177.1890  138.8610 N   0  0  0  0  0  0  0  0  0  0  0  0
  185.5540  178.9430  142.6520 C   0  0  0  0  0  0  0  0  0  0  0  0
  187.7950  177.3490  142.2020 C   0  0  0  0  0  0  0  0  0  0  0  0
  186.1620  178.2950  143.6830 N   0  0  0  0  0  0  0  0  0  0  0  0
  191.1820  177.0740  138.7090 C   0  0  0  0  0  0  0  0  0  0  0  0
  191.4840  177.6880  142.3510 O   0  0  0  0  0  0  0  0  0  0  0  0
  193.0190  175.8530  137.4090 C   0  0  0  0  0  0  0  0  0  0  0  0
  186.0720  178.8340  141.3620 C   0  0  0  0  0  3  0  0  0  0  0  0
  192.1210  178.0200  139.4150 C   0  0  0  0  0  2  0  0  0  0  0  0
  189.0780  175.4290  144.0340 O   0  0  0  0  0  1  0  0  0  0  0  0
  191.6770  176.0060  137.8910 N   0  0  0  0  0  2  0  0  0  0  0  0
  192.1020  176.6930  141.5740 C   0  0  0  0  0  2  0  0  0  0  0  0
  184.4000  179.7520  142.8790 N   0  0  0  0  0  2  0  0  0  0  0  0
  193.8610  176.7830  137.5380 O   0  0  0  0  0  0  0  0  0  0  0  0
  189.2830  178.2440  139.6560 C   0  0  0  0  0  2  0  0  0  0  0  0
  187.2550  177.5110  143.4860 C   0  0  0  0  0  3  0  0  0  0  0  0
  183.8160  179.9130  144.2010 C   0  0  0  0  0  1  0  0  0  0  0  0
  189.7700  175.9780  142.9510 C   0  0  2  0  0  3  0  0  0  0  0  0
  193.0990  174.3100  135.4810 C   0  0  0  0  0  3  0  0  0  0  0  0
  194.1880  173.6000  137.3560 N   0  0  0  0  0  0  0  0  0  0  0  0
  194.3370  172.6650  136.4810 C   0  0  0  0  0  0  0  0  0  0  0  0
  193.4170  174.6140  136.7310 C   0  0  2  0  0  3  0  0  0  0  0  0
  193.6880  172.9730  135.1750 C   0  0  0  0  0  3  0  0  0  0  0  0
  196.2570  171.7200  137.7090 C   0  0  0  0  0  1  0  0  0  0  0  0
  195.1200  171.4260  136.7480 C   0  0  0  0  0  2  0  0  0  0  0  0
  191.6060  176.7390  144.6300 C   0  0  0  0  0  2  0  0  0  0  0  0
  190.3570  176.9110  146.6950 N   0  0  0  0  0  0  0  0  0  0  0  0
  191.1830  177.4600  145.8680 C   0  0  0  0  0  3  0  0  0  0  0  0
  189.9630  177.5950  147.8490 N   0  0  0  0  0  2  0  0  0  0  0  0
  188.5560  177.7040  148.1930 C   0  0  0  0  0  2  0  0  0  0  0  0
  186.5540  178.4120  147.2090 C   0  0  0  0  0  1  0  0  0  0  0  0
  187.7410  177.6030  146.9930 N   0  0  0  0  0  2  0  0  0  0  0  0
  1  5  1  0  0  0  0
  2  1  2  0  0  0  0
  3 32  1  1  0  0  0
  4  9  1  0  0  0  0
  4 24  1  0  0  0  0
  5 14  2  0  0  0  0
  5  9  1  0  0  0  0
  6 18  1  0  0  0  0
  7 21  1  0  0  0  0
  8 19  1  0  0  0  0
  8 10  2  0  0  0  0
  9 22  2  0  0  0  0
 11  7  2  0  0  0  0
 11 15  1  0  0  0  0
 12  3  1  0  0  0  0
 13 20  2  0  0  0  0
 13 17  1  0  0  0  0
 14  8  1  0  0  0  0
 15  6  1  0  0  0  0
 17 11  1  0  0  0  0
 18 12  1  0  0  0  0
 19 23  1  0  0  0  0
 21  1  1  0  0  0  0
 22 10  1  0  0  0  0
 24  3  1  0  0  0  0
 24 16  1  1  0  0  0
 25 28  1  0  0  0  0
 27 31  1  0  0  0  0
 27 26  2  0  0  0  0
 28 26  1  0  0  0  0
 28 13  1  1  0  0  0
 29 25  2  0  0  0  0
 29 27  1  0  0  0  0
 31 30  1  0  0  0  0
 32 34  1  0  0  0  0
 33 35  1  0  0  0  0
 34 33  2  0  0  0  0
 35 36  1  0  0  0  0
 38 37  1  0  0  0  0
 38 36  1  0  0  0  0
M  END
>  <MODEL>
8

>  <REMARK>
 VINA RESULT:      -5.8      3.729      8.576
  Name = 
  7 active torsions:
  status: ('A' for Active; 'I' for Inactive)
    1  A    between atoms: C_5  and  C_10
    2  A    between atoms: C_6  and  C_19
    3  A    between atoms: C_10  and  C_32
    4  A    between atoms: N_12  and  N_14
    5  A    between atoms: N_12  and  C_31
    6  A    between atoms: C_13  and  C_24
    7  A    between atoms: C_31  and  N_37
                            x       y       z     vdW  Elec       q    Type
                         _______ _______ _______ _____ _____    ______ ____

>  <TORSDO>
F 7

$$$$
=
 OpenBabel10232412243D

 38 40  0  0  1  0  0  0  0  0999 V2000
  185.9190  175.8080  136.5350 C   0  0  0  0  0  0  0  0  0  0  0  0
  185.3510  175.3150  135.4830 N   0  0  0  0  0  2  0  0  0  0  0  0
  187.7710  178.1160  140.2580 C   0  0  1  0  0  3  0  0  0  0  0  0
  187.5090  177.8070  137.8510 O   0  0  0  0  0  0  0  0  0  0  0  0
  187.3730  175.6500  136.7330 C   0  0  0  0  0  0  0  0  0  0  0  0
  184.1510  178.5540  140.6330 C   0  0  0  0  0  2  0  0  0  0  0  0
  184.2350  177.3310  137.3930 N   0  0  0  0  0  0  0  0  0  0  0  0
  189.3640  174.2890  136.5320 C   0  0  0  0  0  0  0  0  0  0  0  0
  188.1170  176.6020  137.4580 C   0  0  0  0  0  0  0  0  0  0  0  0
  190.0540  175.2010  137.2700 N   0  0  0  0  0  0  0  0  0  0  0  0
  183.5010  177.9350  138.2800 C   0  0  0  0  0  0  0  0  0  0  0  0
  186.4280  177.7670  140.5460 O   0  0  0  0  0  0  0  0  0  0  0  0
  181.6600  179.6830  138.6130 C   0  0  0  0  0  0  0  0  0  0  0  0
  188.0120  174.4970  136.2590 C   0  0  0  0  0  3  0  0  0  0  0  0
  183.5330  177.4950  139.7230 C   0  0  0  0  0  2  0  0  0  0  0  0
  189.3510  179.0070  138.6350 O   0  0  0  0  0  1  0  0  0  0  0  0
  182.7010  179.0470  137.8580 N   0  0  0  0  0  2  0  0  0  0  0  0
  185.5940  178.8650  140.2680 C   0  0  0  0  0  2  0  0  0  0  0  0
  190.0040  173.1080  136.0490 N   0  0  0  0  0  2  0  0  0  0  0  0
  181.2410  179.1760  139.6870 O   0  0  0  0  0  0  0  0  0  0  0  0
  185.0730  176.1820  137.7060 C   0  0  0  0  0  2  0  0  0  0  0  0
  189.4670  176.3370  137.7300 C   0  0  0  0  0  3  0  0  0  0  0  0
  191.4070  172.8290  136.3060 C   0  0  0  0  0  1  0  0  0  0  0  0
  188.0050  178.6980  138.8520 C   0  0  2  0  0  3  0  0  0  0  0  0
  180.4710  181.8310  138.8900 C   0  0  0  0  0  3  0  0  0  0  0  0
  181.0190  181.2780  136.7440 N   0  0  0  0  0  0  0  0  0  0  0  0
  180.4070  182.4100  136.6760 C   0  0  0  0  0  0  0  0  0  0  0  0
  181.0510  180.9230  138.1180 C   0  0  2  0  0  3  0  0  0  0  0  0
  179.9820  182.9310  138.0060 C   0  0  0  0  0  3  0  0  0  0  0  0
  180.8050  184.5230  135.4650 C   0  0  0  0  0  1  0  0  0  0  0  0
  180.1920  183.1370  135.3930 C   0  0  0  0  0  2  0  0  0  0  0  0
  188.4750  178.8560  141.4050 C   0  0  0  0  0  2  0  0  0  0  0  0
  188.1190  177.4170  143.3170 N   0  0  0  0  0  0  0  0  0  0  0  0
  188.9560  177.9540  142.4940 C   0  0  0  0  0  3  0  0  0  0  0  0
  188.5780  176.5780  144.3360 N   0  0  0  0  0  2  0  0  0  0  0  0
  189.1440  177.1390  145.5510 C   0  0  0  0  0  2  0  0  0  0  0  0
  187.9320  177.5180  147.5160 C   0  0  0  0  0  1  0  0  0  0  0  0
  188.1840  178.0310  146.1800 N   0  0  0  0  0  2  0  0  0  0  0  0
  1  5  1  0  0  0  0
  1 21  1  0  0  0  0
  2  1  2  0  0  0  0
  3 12  1  0  0  0  0
  3 32  1  1  0  0  0
  4 24  1  0  0  0  0
  5  9  1  0  0  0  0
  7 21  1  0  0  0  0
  7 11  2  0  0  0  0
  8 10  2  0  0  0  0
  9 22  2  0  0  0  0
  9  4  1  0  0  0  0
 10 22  1  0  0  0  0
 11 15  1  0  0  0  0
 13 20  2  0  0  0  0
 14  8  1  0  0  0  0
 14  5  2  0  0  0  0
 15  6  1  0  0  0  0
 17 11  1  0  0  0  0
 17 13  1  0  0  0  0
 18 12  1  0  0  0  0
 18  6  1  0  0  0  0
 19 23  1  0  0  0  0
 19  8  1  0  0  0  0
 24 16  1  6  0  0  0
 24  3  1  0  0  0  0
 26 28  1  0  0  0  0
 27 26  2  0  0  0  0
 27 29  1  0  0  0  0
 28 13  1  6  0  0  0
 28 25  1  0  0  0  0
 29 25  2  0  0  0  0
 31 30  1  0  0  0  0
 31 27  1  0  0  0  0
 32 34  1  0  0  0  0
 33 35  1  0  0  0  0
 34 33  2  0  0  0  0
 35 36  1  0  0  0  0
 36 38  1  0  0  0  0
 38 37  1  0  0  0  0
M  END
>  <MODEL>
9

>  <REMARK>
 VINA RESULT:      -5.8      3.749      7.587
  Name = 
  7 active torsions:
  status: ('A' for Active; 'I' for Inactive)
    1  A    between atoms: C_5  and  C_10
    2  A    between atoms: C_6  and  C_19
    3  A    between atoms: C_10  and  C_32
    4  A    between atoms: N_12  and  N_14
    5  A    between atoms: N_12  and  C_31
    6  A    between atoms: C_13  and  C_24
    7  A    between atoms: C_31  and  N_37
                            x       y       z     vdW  Elec       q    Type
                         _______ _______ _______ _____ _____    ______ ____

>  <TORSDO>
F 7

$$$$
