=
 OpenBabel10222422083D

 47 51  0  0  1  0  0  0  0  0999 V2000
  189.8610  176.5890  138.7670 C   0  0  2  0  0  3  0  0  0  0  0  0
  192.2990  176.6350  138.2180 C   0  0  0  0  0  3  0  0  0  0  0  0
  191.8540  175.4630  135.7170 C   0  0  0  0  0  3  0  0  0  0  0  0
  190.9960  176.3070  137.8270 C   0  0  0  0  0  0  0  0  0  0  0  0
  190.7770  175.7180  136.5710 C   0  0  0  0  0  3  0  0  0  0  0  0
  194.2220  175.5430  135.2650 O   0  0  0  0  0  1  0  0  0  0  0  0
  193.3750  176.3800  137.3630 C   0  0  0  0  0  3  0  0  0  0  0  0
  193.1530  175.7940  136.1130 C   0  0  0  0  0  0  0  0  0  0  0  0
  188.5490  178.5130  137.7360 C   0  0  0  0  0  2  0  0  0  0  0  0
  188.6860  177.1810  138.0550 C   0  0  0  0  0  0  0  0  0  0  0  0
  187.3750  178.6600  137.0940 N   0  0  0  0  0  0  0  0  0  0  0  0
  186.8470  177.4210  137.0550 C   0  0  0  0  0  0  0  0  0  0  0  0
  187.6210  176.4790  137.6270 N   0  0  0  0  0  0  0  0  0  0  0  0
  185.5520  177.1110  136.3830 C   0  0  0  0  0  2  0  0  0  0  0  0
  183.9770  175.5320  137.6000 C   0  0  0  0  0  0  0  0  0  0  0  0
  184.0140  177.8740  138.1920 C   0  0  0  0  0  3  0  0  0  0  0  0
  183.0250  175.3250  138.5530 N   0  0  0  0  0  0  0  0  0  0  0  0
  182.5500  176.3380  139.3260 C   0  0  0  0  0  0  0  0  0  0  0  0
  183.0390  177.6340  139.1590 C   0  0  0  0  0  3  0  0  0  0  0  0
  184.4900  176.8280  137.3980 C   0  0  0  0  0  0  0  0  0  0  0  0
  181.6060  176.0870  140.2630 F   0  0  0  0  0  0  0  0  0  0  0  0
  184.4620  174.3760  136.7840 C   0  0  0  0  0  3  0  0  0  0  0  0
  185.6270  173.8510  137.3460 O   0  0  0  0  0  1  0  0  0  0  0  0
  183.4820  173.3840  136.7250 O   0  0  0  0  0  1  0  0  0  0  0  0
  190.2850  177.4660  139.9370 C   0  0  0  0  0  2  0  0  0  0  0  0
  190.5230  176.6440  141.1110 N   0  0  0  0  0  2  0  0  0  0  0  0
  189.1550  176.1330  143.0420 C   0  0  0  0  0  2  0  0  0  0  0  0
  189.7630  177.2350  142.1970 C   0  0  1  0  0  3  0  0  0  0  0  0
  190.4030  176.8480  143.5140 C   0  0  1  0  0  3  0  0  0  0  0  0
  190.0290  177.8740  144.5650 C   0  0  0  0  0  2  0  0  0  0  0  0
  190.5150  177.4200  145.9400 C   0  0  2  0  0  3  0  0  0  0  0  0
  191.6260  176.5470  145.8790 O   0  0  0  0  0  0  0  0  0  0  0  0
  191.8130  175.9480  147.1360 C   0  0  0  0  0  1  0  0  0  0  0  0
  189.3630  176.8860  146.8020 C   0  0  0  0  0  2  0  0  0  0  0  0
  188.1390  177.8040  146.8280 C   0  0  2  0  0  3  0  0  0  0  0  0
  189.0420  178.3870  148.9790 F   0  0  0  0  0  0  0  0  0  0  0  0
  187.8920  178.4090  148.2100 C   0  0  0  0  0  2  0  0  0  0  0  0
  186.8940  177.1340  146.2490 C   0  0  0  0  0  2  0  0  0  0  0  0
  186.5160  177.7310  144.9020 C   0  0  0  0  0  2  0  0  0  0  0  0
  184.1760  178.5300  144.9250 C   0  0  1  0  0  3  0  0  0  0  0  0
  185.6200  178.9530  145.0890 C   0  0  2  0  0  3  0  0  0  0  0  0
  183.3700  179.3290  145.7330 O   0  0  0  0  0  1  0  0  0  0  0  0
  184.8200  179.3910  143.8510 C   0  0  1  0  0  3  0  0  0  0  0  0
  185.0810  178.5980  142.5960 C   0  0  0  0  0  0  0  0  0  0  0  0
  184.3440  177.6720  142.2880 O   0  0  0  0  0  0  0  0  0  0  0  0
  185.7380  179.5950  140.5540 O   0  0  0  0  0  1  0  0  0  0  0  0
  186.2200  178.9670  141.7020 C   0  0  0  0  0  2  0  0  0  0  0  0
  1 25  1  1  0  0  0
  3  8  2  0  0  0  0
  3  5  1  0  0  0  0
  4  2  1  0  0  0  0
  4  1  1  0  0  0  0
  5  4  2  0  0  0  0
  6  8  1  0  0  0  0
  7  2  2  0  0  0  0
  8  7  1  0  0  0  0
  9 10  1  0  0  0  0
 10  1  1  0  0  0  0
 11  9  1  0  0  0  0
 12 11  2  0  0  0  0
 12 13  1  0  0  0  0
 13 10  2  0  0  0  0
 14 12  1  0  0  0  0
 14 20  1  0  0  0  0
 15 17  1  0  0  0  0
 16 19  2  0  0  0  0
 17 18  2  0  0  0  0
 18 21  1  0  0  0  0
 19 18  1  0  0  0  0
 20 15  2  0  0  0  0
 20 16  1  0  0  0  0
 22 23  1  0  0  0  0
 22 15  1  0  0  0  0
 24 22  1  0  0  0  0
 25 26  1  0  0  0  0
 27 29  1  0  0  0  0
 28 26  1  6  0  0  0
 28 27  1  0  0  0  0
 28 29  1  0  0  0  0
 29 30  1  1  0  0  0
 31 30  1  6  0  0  0
 31 34  1  0  0  0  0
 32 31  1  0  0  0  0
 32 33  1  0  0  0  0
 34 35  1  0  0  0  0
 35 38  1  1  0  0  0
 35 37  1  0  0  0  0
 37 36  1  0  0  0  0
 39 38  1  0  0  0  0
 40 41  1  0  0  0  0
 40 42  1  1  0  0  0
 41 39  1  6  0  0  0
 43 44  1  6  0  0  0
 43 40  1  0  0  0  0
 43 41  1  0  0  0  0
 45 44  2  0  0  0  0
 46 47  1  0  0  0  0
 47 44  1  0  0  0  0
M  END
>  <MODEL>
1

>  <REMARK>
 VINA RESULT:      -8.0      0.000      0.000
  Name = 
  19 active torsions:
  status: ('A' for Active; 'I' for Inactive)
    1  A    between atoms: C_2  and  C_40
    2  A    between atoms: C_2  and  C_47
    3  A    between atoms: C_7  and  CA_12
    4  A    between atoms: O_9  and  C_26
    5  A    between atoms: C_10  and  C_26
    6  A    between atoms: C_10  and  C_41
    7  A    between atoms: C_11  and  C_24
    8  A    between atoms: C_14  and  C_41
    9  A    between atoms: C_15  and  C_45
   10  A    between atoms: C_16  and  C_45
   11  A    between atoms: N_20  and  C_33
   12  A    between atoms: N_20  and  C_44
   13  A    between atoms: C_22  and  C_26
   14  A    between atoms: C_22  and  C_38
   15  A    between atoms: C_24  and  C_35
   16  A    between atoms: C_30  and  C_36
   17  A    between atoms: C_35  and  C_41
   18  A    between atoms: C_36  and  C_37
   19  A    between atoms: C_44  and  C_45
                            x       y       z     vdW  Elec       q    Type
                         _______ _______ _______ _____ _____    ______ ____

>  <TORSDO>
F 19

$$$$
=
 OpenBabel10222422083D

 47 51  0  0  1  0  0  0  0  0999 V2000
  190.6070  177.2270  138.5560 C   0  0  2  0  0  3  0  0  0  0  0  0
  188.3410  176.3320  137.9910 C   0  0  0  0  0  3  0  0  0  0  0  0
  187.5450  178.7800  136.8970 C   0  0  0  0  0  3  0  0  0  0  0  0
  189.2350  177.4100  137.9760 C   0  0  0  0  0  0  0  0  0  0  0  0
  188.8300  178.6370  137.4260 C   0  0  0  0  0  3  0  0  0  0  0  0
  185.3820  177.8400  136.3860 O   0  0  0  0  0  1  0  0  0  0  0  0
  187.0560  176.4760  137.4600 C   0  0  0  0  0  3  0  0  0  0  0  0
  186.6580  177.6990  136.9130 C   0  0  0  0  0  0  0  0  0  0  0  0
  191.1900  176.1620  136.3180 C   0  0  0  0  0  2  0  0  0  0  0  0
  191.5410  176.5880  137.5790 C   0  0  0  0  0  0  0  0  0  0  0  0
  192.2940  175.6540  135.7380 N   0  0  0  0  0  0  0  0  0  0  0  0
  193.2620  175.7850  136.6660 C   0  0  0  0  0  0  0  0  0  0  0  0
  192.8470  176.3590  137.8110 N   0  0  0  0  0  0  0  0  0  0  0  0
  194.6780  175.3860  136.4240 C   0  0  0  0  0  2  0  0  0  0  0  0
  195.7390  173.7150  138.0160 C   0  0  0  0  0  0  0  0  0  0  0  0
  194.2870  172.9290  136.2520 C   0  0  0  0  0  3  0  0  0  0  0  0
  195.9080  172.4260  138.4260 N   0  0  0  0  0  0  0  0  0  0  0  0
  195.3030  171.3860  137.7930 C   0  0  0  0  0  0  0  0  0  0  0  0
  194.4790  171.6210  136.6920 C   0  0  0  0  0  3  0  0  0  0  0  0
  194.9190  173.9900  136.9050 C   0  0  0  0  0  0  0  0  0  0  0  0
  195.4970  170.1210  138.2350 F   0  0  0  0  0  0  0  0  0  0  0  0
  196.4290  174.8170  138.7570 C   0  0  0  0  0  3  0  0  0  0  0  0
  195.6410  175.2370  139.8280 O   0  0  0  0  0  1  0  0  0  0  0  0
  197.6670  174.3770  139.2290 O   0  0  0  0  0  1  0  0  0  0  0  0
  190.5790  176.4530  139.8670 C   0  0  0  0  0  2  0  0  0  0  0  0
  190.1310  177.3190  140.9440 N   0  0  0  0  0  2  0  0  0  0  0  0
  191.2610  178.4610  142.7540 C   0  0  0  0  0  2  0  0  0  0  0  0
  191.0620  177.1390  142.0430 C   0  0  1  0  0  3  0  0  0  0  0  0
  190.3430  177.4140  143.3470 C   0  0  1  0  0  3  0  0  0  0  0  0
  191.0630  176.6900  144.4690 C   0  0  0  0  0  2  0  0  0  0  0  0
  190.6200  177.2450  145.8210 C   0  0  2  0  0  3  0  0  0  0  0  0
  191.6170  177.1460  146.8190 O   0  0  0  0  0  0  0  0  0  0  0  0
  191.9290  175.7920  147.0290 C   0  0  0  0  0  1  0  0  0  0  0  0
  189.2620  176.6730  146.2520 C   0  0  0  0  0  2  0  0  0  0  0  0
  188.2680  177.7370  146.7220 C   0  0  2  0  0  3  0  0  0  0  0  0
  189.3620  178.8680  148.5400 F   0  0  0  0  0  0  0  0  0  0  0  0
  188.3450  177.9840  148.2280 C   0  0  0  0  0  2  0  0  0  0  0  0
  186.8440  177.4580  146.2440 C   0  0  0  0  0  2  0  0  0  0  0  0
  186.5760  178.0970  144.8900 C   0  0  0  0  0  2  0  0  0  0  0  0
  184.1550  178.5840  144.7700 C   0  0  1  0  0  3  0  0  0  0  0  0
  185.5190  179.1920  145.0140 C   0  0  2  0  0  3  0  0  0  0  0  0
  183.2050  179.2720  145.5230 O   0  0  0  0  0  1  0  0  0  0  0  0
  184.7430  179.5210  143.7280 C   0  0  1  0  0  3  0  0  0  0  0  0
  185.1780  178.7670  142.4970 C   0  0  0  0  0  0  0  0  0  0  0  0
  184.5640  177.7740  142.1330 O   0  0  0  0  0  0  0  0  0  0  0  0
  186.5890  178.3780  140.6390 O   0  0  0  0  0  1  0  0  0  0  0  0
  186.3400  179.2550  141.6930 C   0  0  0  0  0  2  0  0  0  0  0  0
  1 25  1  1  0  0  0
  3  8  2  0  0  0  0
  3  5  1  0  0  0  0
  4  2  1  0  0  0  0
  4  1  1  0  0  0  0
  5  4  2  0  0  0  0
  6  8  1  0  0  0  0
  7  2  2  0  0  0  0
  8  7  1  0  0  0  0
  9 10  1  0  0  0  0
 10 13  2  0  0  0  0
 10  1  1  0  0  0  0
 11  9  1  0  0  0  0
 11 12  2  0  0  0  0
 12 13  1  0  0  0  0
 14 12  1  0  0  0  0
 14 20  1  0  0  0  0
 15 17  1  0  0  0  0
 15 22  1  0  0  0  0
 16 19  2  0  0  0  0
 16 20  1  0  0  0  0
 18 21  1  0  0  0  0
 18 17  2  0  0  0  0
 19 18  1  0  0  0  0
 20 15  2  0  0  0  0
 22 24  1  0  0  0  0
 22 23  1  0  0  0  0
 25 26  1  0  0  0  0
 27 29  1  0  0  0  0
 28 26  1  6  0  0  0
 28 27  1  0  0  0  0
 28 29  1  0  0  0  0
 29 30  1  1  0  0  0
 31 30  1  6  0  0  0
 31 34  1  0  0  0  0
 31 32  1  0  0  0  0
 32 33  1  0  0  0  0
 34 35  1  0  0  0  0
 35 38  1  1  0  0  0
 35 37  1  0  0  0  0
 37 36  1  0  0  0  0
 39 38  1  0  0  0  0
 40 41  1  0  0  0  0
 40 42  1  1  0  0  0
 41 39  1  6  0  0  0
 43 44  1  6  0  0  0
 43 40  1  0  0  0  0
 43 41  1  0  0  0  0
 45 44  2  0  0  0  0
 46 47  1  0  0  0  0
 47 44  1  0  0  0  0
M  END
>  <MODEL>
2

>  <REMARK>
 VINA RESULT:      -7.2      3.276      6.685
  Name = 
  19 active torsions:
  status: ('A' for Active; 'I' for Inactive)
    1  A    between atoms: C_2  and  C_40
    2  A    between atoms: C_2  and  C_47
    3  A    between atoms: C_7  and  CA_12
    4  A    between atoms: O_9  and  C_26
    5  A    between atoms: C_10  and  C_26
    6  A    between atoms: C_10  and  C_41
    7  A    between atoms: C_11  and  C_24
    8  A    between atoms: C_14  and  C_41
    9  A    between atoms: C_15  and  C_45
   10  A    between atoms: C_16  and  C_45
   11  A    between atoms: N_20  and  C_33
   12  A    between atoms: N_20  and  C_44
   13  A    between atoms: C_22  and  C_26
   14  A    between atoms: C_22  and  C_38
   15  A    between atoms: C_24  and  C_35
   16  A    between atoms: C_30  and  C_36
   17  A    between atoms: C_35  and  C_41
   18  A    between atoms: C_36  and  C_37
   19  A    between atoms: C_44  and  C_45
                            x       y       z     vdW  Elec       q    Type
                         _______ _______ _______ _____ _____    ______ ____

>  <TORSDO>
F 19

$$$$
=
 OpenBabel10222422083D

 47 51  0  0  1  0  0  0  0  0999 V2000
  187.0560  177.2060  143.4320 C   0  0  2  0  0  3  0  0  0  0  0  0
  188.5930  177.3570  145.3990 C   0  0  0  0  0  3  0  0  0  0  0  0
  186.5090  178.1600  147.0830 C   0  0  0  0  0  3  0  0  0  0  0  0
  187.2980  177.4920  144.8860 C   0  0  0  0  0  0  0  0  0  0  0  0
  186.2550  177.8960  145.7350 C   0  0  0  0  0  3  0  0  0  0  0  0
  188.0570  178.2820  148.9300 O   0  0  0  0  0  1  0  0  0  0  0  0
  188.8460  177.6210  146.7480 C   0  0  0  0  0  3  0  0  0  0  0  0
  187.8040  178.0220  147.5900 C   0  0  0  0  0  0  0  0  0  0  0  0
  189.1530  175.8630  142.8980 C   0  0  0  0  0  2  0  0  0  0  0  0
  188.3340  176.9510  142.6980 C   0  0  0  0  0  0  0  0  0  0  0  0
  190.1940  175.9760  142.0510 N   0  0  0  0  0  0  0  0  0  0  0  0
  189.9700  177.1240  141.3810 C   0  0  0  0  0  0  0  0  0  0  0  0
  188.8350  177.7530  141.7410 N   0  0  0  0  0  0  0  0  0  0  0  0
  190.8660  177.6180  140.2960 C   0  0  0  0  0  2  0  0  0  0  0  0
  189.6120  177.5070  138.0890 C   0  0  0  0  0  0  0  0  0  0  0  0
  191.1780  175.7590  138.6650 C   0  0  0  0  0  3  0  0  0  0  0  0
  189.3620  176.8700  136.9110 N   0  0  0  0  0  0  0  0  0  0  0  0
  189.9780  175.7040  136.5800 C   0  0  0  0  0  0  0  0  0  0  0  0
  190.9000  175.1270  137.4530 C   0  0  0  0  0  3  0  0  0  0  0  0
  190.5330  176.9520  138.9990 C   0  0  0  0  0  0  0  0  0  0  0  0
  189.7010  175.1050  135.3970 F   0  0  0  0  0  0  0  0  0  0  0  0
  188.9050  178.7890  138.3950 C   0  0  0  0  0  3  0  0  0  0  0  0
  189.0230  179.6680  137.3180 O   0  0  0  0  0  1  0  0  0  0  0  0
  187.5560  178.5430  138.6550 O   0  0  0  0  0  1  0  0  0  0  0  0
  186.2520  178.3070  142.7550 C   0  0  0  0  0  2  0  0  0  0  0  0
  184.9320  177.8100  142.4030 N   0  0  0  0  0  2  0  0  0  0  0  0
  184.3810  178.3190  140.1020 C   0  0  0  0  0  2  0  0  0  0  0  0
  184.3270  178.8040  141.5360 C   0  0  1  0  0  3  0  0  0  0  0  0
  183.0940  178.2090  140.8900 C   0  0  1  0  0  3  0  0  0  0  0  0
  182.1580  179.3320  140.4850 C   0  0  0  0  0  2  0  0  0  0  0  0
  181.5890  179.0650  139.0940 C   0  0  2  0  0  3  0  0  0  0  0  0
  180.8560  180.1560  138.5720 O   0  0  0  0  0  0  0  0  0  0  0  0
  181.7120  181.2610  138.4260 C   0  0  0  0  0  1  0  0  0  0  0  0
  180.8290  177.7330  139.0360 C   0  0  0  0  0  2  0  0  0  0  0  0
  181.3460  176.7770  137.9590 C   0  0  2  0  0  3  0  0  0  0  0  0
  181.6910  175.4110  139.9080 F   0  0  0  0  0  0  0  0  0  0  0  0
  181.9390  175.4970  138.5500 C   0  0  0  0  0  2  0  0  0  0  0  0
  182.2930  177.4620  136.9750 C   0  0  0  0  0  2  0  0  0  0  0  0
  183.3400  176.4940  136.4440 C   0  0  0  0  0  2  0  0  0  0  0  0
  185.6050  176.8460  135.5170 C   0  0  1  0  0  3  0  0  0  0  0  0
  184.7460  177.0040  136.7530 C   0  0  2  0  0  3  0  0  0  0  0  0
  186.5590  177.8610  135.4900 O   0  0  0  0  0  1  0  0  0  0  0  0
  185.8630  175.9480  136.7140 C   0  0  1  0  0  3  0  0  0  0  0  0
  185.4100  174.5350  136.4470 C   0  0  0  0  0  0  0  0  0  0  0  0
  185.3210  174.1230  135.2990 O   0  0  0  0  0  0  0  0  0  0  0  0
  184.6850  172.3800  137.1030 O   0  0  0  0  0  1  0  0  0  0  0  0
  185.1070  173.6180  137.5880 C   0  0  0  0  0  2  0  0  0  0  0  0
  1 25  1  6  0  0  0
  1  4  1  0  0  0  0
  2  7  1  0  0  0  0
  3  8  1  0  0  0  0
  4  2  2  0  0  0  0
  4  5  1  0  0  0  0
  5  3  2  0  0  0  0
  7  8  2  0  0  0  0
  8  6  1  0  0  0  0
 10  9  1  0  0  0  0
 10  1  1  0  0  0  0
 11  9  1  0  0  0  0
 12 13  1  0  0  0  0
 12 11  2  0  0  0  0
 13 10  2  0  0  0  0
 14 12  1  0  0  0  0
 15 22  1  0  0  0  0
 15 20  1  0  0  0  0
 16 20  2  0  0  0  0
 17 15  2  0  0  0  0
 18 17  1  0  0  0  0
 18 19  2  0  0  0  0
 19 16  1  0  0  0  0
 20 14  1  0  0  0  0
 21 18  1  0  0  0  0
 22 24  1  0  0  0  0
 23 22  1  0  0  0  0
 26 25  1  0  0  0  0
 27 29  1  0  0  0  0
 27 28  1  0  0  0  0
 28 26  1  1  0  0  0
 29 30  1  6  0  0  0
 29 28  1  0  0  0  0
 31 34  1  1  0  0  0
 31 30  1  0  0  0  0
 32 31  1  0  0  0  0
 33 32  1  0  0  0  0
 35 38  1  1  0  0  0
 35 37  1  0  0  0  0
 35 34  1  0  0  0  0
 37 36  1  0  0  0  0
 39 38  1  0  0  0  0
 40 42  1  1  0  0  0
 40 43  1  0  0  0  0
 40 41  1  0  0  0  0
 41 39  1  6  0  0  0
 43 44  1  6  0  0  0
 43 41  1  0  0  0  0
 44 47  1  0  0  0  0
 45 44  2  0  0  0  0
 46 47  1  0  0  0  0
M  END
>  <MODEL>
3

>  <REMARK>
 VINA RESULT:      -7.1      2.951      8.948
  Name = 
  19 active torsions:
  status: ('A' for Active; 'I' for Inactive)
    1  A    between atoms: C_2  and  C_40
    2  A    between atoms: C_2  and  C_47
    3  A    between atoms: C_7  and  CA_12
    4  A    between atoms: O_9  and  C_26
    5  A    between atoms: C_10  and  C_26
    6  A    between atoms: C_10  and  C_41
    7  A    between atoms: C_11  and  C_24
    8  A    between atoms: C_14  and  C_41
    9  A    between atoms: C_15  and  C_45
   10  A    between atoms: C_16  and  C_45
   11  A    between atoms: N_20  and  C_33
   12  A    between atoms: N_20  and  C_44
   13  A    between atoms: C_22  and  C_26
   14  A    between atoms: C_22  and  C_38
   15  A    between atoms: C_24  and  C_35
   16  A    between atoms: C_30  and  C_36
   17  A    between atoms: C_35  and  C_41
   18  A    between atoms: C_36  and  C_37
   19  A    between atoms: C_44  and  C_45
                            x       y       z     vdW  Elec       q    Type
                         _______ _______ _______ _____ _____    ______ ____

>  <TORSDO>
F 19

$$$$
=
 OpenBabel10222422083D

 47 51  0  0  1  0  0  0  0  0999 V2000
  183.5820  176.0800  137.3970 C   0  0  2  0  0  3  0  0  0  0  0  0
  184.5850  173.8000  137.6190 C   0  0  0  0  0  3  0  0  0  0  0  0
  182.3520  172.6010  136.4360 C   0  0  0  0  0  3  0  0  0  0  0  0
  183.5120  174.5940  137.1980 C   0  0  0  0  0  0  0  0  0  0  0  0
  182.3920  173.9870  136.6050 C   0  0  0  0  0  3  0  0  0  0  0  0
  183.3890  170.4370  136.6880 O   0  0  0  0  0  1  0  0  0  0  0  0
  184.5430  172.4140  137.4490 C   0  0  0  0  0  3  0  0  0  0  0  0
  183.4280  171.8140  136.8580 C   0  0  0  0  0  0  0  0  0  0  0  0
  185.2970  176.5680  135.5780 C   0  0  0  0  0  2  0  0  0  0  0  0
  184.8670  176.6470  136.8830 C   0  0  0  0  0  0  0  0  0  0  0  0
  186.4840  177.1990  135.5010 N   0  0  0  0  0  0  0  0  0  0  0  0
  186.7280  177.6280  136.7550 C   0  0  0  0  0  0  0  0  0  0  0  0
  185.7580  177.3180  137.6360 N   0  0  0  0  0  0  0  0  0  0  0  0
  187.9320  178.4280  137.1180 C   0  0  0  0  0  2  0  0  0  0  0  0
  189.4270  176.6740  138.1880 C   0  0  0  0  0  0  0  0  0  0  0  0
  188.4950  178.4410  139.5480 C   0  0  0  0  0  3  0  0  0  0  0  0
  190.0520  176.1780  139.2920 N   0  0  0  0  0  0  0  0  0  0  0  0
  189.9270  176.7650  140.5130 C   0  0  0  0  0  0  0  0  0  0  0  0
  189.1450  177.9100  140.6610 C   0  0  0  0  0  3  0  0  0  0  0  0
  188.6240  177.8250  138.3000 C   0  0  0  0  0  0  0  0  0  0  0  0
  190.5680  176.2400  141.5840 F   0  0  0  0  0  0  0  0  0  0  0  0
  189.6060  175.9850  136.8720 C   0  0  0  0  0  3  0  0  0  0  0  0
  190.5510  176.6650  136.1030 O   0  0  0  0  0  1  0  0  0  0  0  0
  190.0240  174.6680  137.0720 O   0  0  0  0  0  1  0  0  0  0  0  0
  183.3550  176.4780  138.8490 C   0  0  0  0  0  2  0  0  0  0  0  0
  182.4020  177.5720  138.9190 N   0  0  0  0  0  2  0  0  0  0  0  0
  182.1990  178.8270  140.9780 C   0  0  0  0  0  2  0  0  0  0  0  0
  183.0170  178.6130  139.7210 C   0  0  1  0  0  3  0  0  0  0  0  0
  183.4750  178.0160  141.0350 C   0  0  1  0  0  3  0  0  0  0  0  0
  184.5910  178.8720  141.6040 C   0  0  0  0  0  2  0  0  0  0  0  0
  184.6560  178.7100  143.1200 C   0  0  2  0  0  3  0  0  0  0  0  0
  183.8410  179.6320  143.8170 O   0  0  0  0  0  0  0  0  0  0  0  0
  183.0990  178.9470  144.7930 C   0  0  0  0  0  1  0  0  0  0  0  0
  186.1050  178.6690  143.6250 C   0  0  0  0  0  2  0  0  0  0  0  0
  186.4880  177.3430  144.2860 C   0  0  2  0  0  3  0  0  0  0  0  0
  185.8880  178.4170  146.3520 F   0  0  0  0  0  0  0  0  0  0  0  0
  186.7460  177.4910  145.7860 C   0  0  0  0  0  2  0  0  0  0  0  0
  187.6330  176.6380  143.5600 C   0  0  0  0  0  2  0  0  0  0  0  0
  188.8790  176.5610  144.4300 C   0  0  0  0  0  2  0  0  0  0  0  0
  191.0550  177.7350  144.4770 C   0  0  1  0  0  3  0  0  0  0  0  0
  189.5550  177.9270  144.5220 C   0  0  2  0  0  3  0  0  0  0  0  0
  191.6400  178.8410  143.8640 O   0  0  0  0  0  1  0  0  0  0  0  0
  190.4050  178.1690  145.7800 C   0  0  1  0  0  3  0  0  0  0  0  0
  190.4020  177.0500  146.7900 C   0  0  0  0  0  0  0  0  0  0  0  0
  189.4200  176.8590  147.4940 O   0  0  0  0  0  0  0  0  0  0  0  0
  192.4210  176.5840  147.9320 O   0  0  0  0  0  1  0  0  0  0  0  0
  191.5840  176.1440  146.9070 C   0  0  0  0  0  2  0  0  0  0  0  0
  1 25  1  1  0  0  0
  3  5  2  0  0  0  0
  3  8  1  0  0  0  0
  4  1  1  0  0  0  0
  4  2  2  0  0  0  0
  5  4  1  0  0  0  0
  6  8  1  0  0  0  0
  7  2  1  0  0  0  0
  8  7  2  0  0  0  0
  9 10  1  0  0  0  0
 10  1  1  0  0  0  0
 10 13  2  0  0  0  0
 11  9  1  0  0  0  0
 11 12  2  0  0  0  0
 12 14  1  0  0  0  0
 12 13  1  0  0  0  0
 14 20  1  0  0  0  0
 15 20  2  0  0  0  0
 15 17  1  0  0  0  0
 16 19  2  0  0  0  0
 17 18  2  0  0  0  0
 18 19  1  0  0  0  0
 18 21  1  0  0  0  0
 20 16  1  0  0  0  0
 22 24  1  0  0  0  0
 22 15  1  0  0  0  0
 23 22  1  0  0  0  0
 25 26  1  0  0  0  0
 27 29  1  0  0  0  0
 28 26  1  6  0  0  0
 28 27  1  0  0  0  0
 28 29  1  0  0  0  0
 29 30  1  1  0  0  0
 31 30  1  6  0  0  0
 31 34  1  0  0  0  0
 31 32  1  0  0  0  0
 32 33  1  0  0  0  0
 34 35  1  0  0  0  0
 35 38  1  6  0  0  0
 35 37  1  0  0  0  0
 37 36  1  0  0  0  0
 38 39  1  0  0  0  0
 40 42  1  6  0  0  0
 40 41  1  0  0  0  0
 40 43  1  0  0  0  0
 41 39  1  1  0  0  0
 41 43  1  0  0  0  0
 43 44  1  1  0  0  0
 44 47  1  0  0  0  0
 44 45  2  0  0  0  0
 47 46  1  0  0  0  0
M  END
>  <MODEL>
4

>  <REMARK>
 VINA RESULT:      -7.1      2.324      6.860
  Name = 
  19 active torsions:
  status: ('A' for Active; 'I' for Inactive)
    1  A    between atoms: C_2  and  C_40
    2  A    between atoms: C_2  and  C_47
    3  A    between atoms: C_7  and  CA_12
    4  A    between atoms: O_9  and  C_26
    5  A    between atoms: C_10  and  C_26
    6  A    between atoms: C_10  and  C_41
    7  A    between atoms: C_11  and  C_24
    8  A    between atoms: C_14  and  C_41
    9  A    between atoms: C_15  and  C_45
   10  A    between atoms: C_16  and  C_45
   11  A    between atoms: N_20  and  C_33
   12  A    between atoms: N_20  and  C_44
   13  A    between atoms: C_22  and  C_26
   14  A    between atoms: C_22  and  C_38
   15  A    between atoms: C_24  and  C_35
   16  A    between atoms: C_30  and  C_36
   17  A    between atoms: C_35  and  C_41
   18  A    between atoms: C_36  and  C_37
   19  A    between atoms: C_44  and  C_45
                            x       y       z     vdW  Elec       q    Type
                         _______ _______ _______ _____ _____    ______ ____

>  <TORSDO>
F 19

$$$$
=
 OpenBabel10222422083D

 47 51  0  0  1  0  0  0  0  0999 V2000
  188.7760  176.6390  137.8520 C   0  0  2  0  0  3  0  0  0  0  0  0
  191.2710  176.6460  138.0270 C   0  0  0  0  0  3  0  0  0  0  0  0
  191.4280  173.9730  137.2160 C   0  0  0  0  0  3  0  0  0  0  0  0
  190.0990  175.9410  137.7260 C   0  0  0  0  0  0  0  0  0  0  0  0
  190.1830  174.5990  137.3210 C   0  0  0  0  0  3  0  0  0  0  0  0
  193.8310  174.0630  137.4110 O   0  0  0  0  0  1  0  0  0  0  0  0
  192.5150  176.0190  137.9210 C   0  0  0  0  0  3  0  0  0  0  0  0
  192.5950  174.6840  137.5160 C   0  0  0  0  0  0  0  0  0  0  0  0
  187.9650  176.9170  135.4540 C   0  0  0  0  0  2  0  0  0  0  0  0
  187.8770  176.3320  136.6970 C   0  0  0  0  0  0  0  0  0  0  0  0
  187.0010  176.3810  134.6820 N   0  0  0  0  0  0  0  0  0  0  0  0
  186.3660  175.5040  135.4840 C   0  0  0  0  0  0  0  0  0  0  0  0
  186.8750  175.4350  136.7290 N   0  0  0  0  0  0  0  0  0  0  0  0
  185.2430  174.6420  135.0150 C   0  0  0  0  0  2  0  0  0  0  0  0
  183.4840  174.0130  136.7380 C   0  0  0  0  0  0  0  0  0  0  0  0
  183.3520  176.1510  135.6200 C   0  0  0  0  0  3  0  0  0  0  0  0
  182.3620  174.3320  137.4410 N   0  0  0  0  0  0  0  0  0  0  0  0
  181.7180  175.5170  137.2680 C   0  0  0  0  0  0  0  0  0  0  0  0
  182.2040  176.4500  136.3530 C   0  0  0  0  0  3  0  0  0  0  0  0
  184.0010  174.9270  135.8000 C   0  0  0  0  0  0  0  0  0  0  0  0
  180.6060  175.7940  137.9900 F   0  0  0  0  0  0  0  0  0  0  0  0
  184.1500  172.6950  136.9760 C   0  0  0  0  0  3  0  0  0  0  0  0
  185.0360  172.7950  138.0480 O   0  0  0  0  0  1  0  0  0  0  0  0
  183.1920  171.7160  137.2480 O   0  0  0  0  0  1  0  0  0  0  0  0
  188.9330  178.1430  138.0340 C   0  0  0  0  0  2  0  0  0  0  0  0
  188.2960  178.5600  139.2710 N   0  0  0  0  0  2  0  0  0  0  0  0
  188.6520  178.7530  141.6570 C   0  0  0  0  0  2  0  0  0  0  0  0
  189.2350  178.2790  140.3410 C   0  0  1  0  0  3  0  0  0  0  0  0
  188.6100  177.2840  141.2960 C   0  0  1  0  0  3  0  0  0  0  0  0
  189.7130  176.5510  142.0360 C   0  0  0  0  0  2  0  0  0  0  0  0
  189.9850  177.2280  143.3770 C   0  0  2  0  0  3  0  0  0  0  0  0
  191.3620  177.3290  143.6830 O   0  0  0  0  0  0  0  0  0  0  0  0
  191.7580  176.1940  144.4110 C   0  0  0  0  0  1  0  0  0  0  0  0
  189.1500  176.6090  144.5060 C   0  0  0  0  0  2  0  0  0  0  0  0
  188.4790  177.6430  145.4130 C   0  0  2  0  0  3  0  0  0  0  0  0
  188.2450  178.1020  147.7620 F   0  0  0  0  0  0  0  0  0  0  0  0
  189.1530  177.7450  146.7810 C   0  0  0  0  0  2  0  0  0  0  0  0
  186.9690  177.4380  145.5160 C   0  0  0  0  0  2  0  0  0  0  0  0
  186.2470  177.9970  144.2990 C   0  0  0  0  0  2  0  0  0  0  0  0
  183.8680  178.6380  144.5100 C   0  0  1  0  0  3  0  0  0  0  0  0
  185.2900  179.1140  144.7090 C   0  0  2  0  0  3  0  0  0  0  0  0
  183.0460  179.2410  145.4590 O   0  0  0  0  0  1  0  0  0  0  0  0
  184.4270  179.7030  143.5820 C   0  0  1  0  0  3  0  0  0  0  0  0
  184.6910  179.1470  142.2050 C   0  0  0  0  0  0  0  0  0  0  0  0
  185.6370  179.5560  141.5470 O   0  0  0  0  0  0  0  0  0  0  0  0
  182.5270  178.5460  141.4600 O   0  0  0  0  0  1  0  0  0  0  0  0
  183.8200  178.0630  141.6570 C   0  0  0  0  0  2  0  0  0  0  0  0
  1 25  1  6  0  0  0
  3  5  2  0  0  0  0
  3  8  1  0  0  0  0
  4  1  1  0  0  0  0
  4  2  2  0  0  0  0
  5  4  1  0  0  0  0
  6  8  1  0  0  0  0
  7  2  1  0  0  0  0
  8  7  2  0  0  0  0
  9 10  1  0  0  0  0
 10 13  2  0  0  0  0
 10  1  1  0  0  0  0
 11  9  1  0  0  0  0
 11 12  2  0  0  0  0
 12 13  1  0  0  0  0
 14 12  1  0  0  0  0
 14 20  1  0  0  0  0
 15 22  1  0  0  0  0
 15 17  1  0  0  0  0
 16 20  1  0  0  0  0
 16 19  2  0  0  0  0
 18 17  2  0  0  0  0
 18 21  1  0  0  0  0
 19 18  1  0  0  0  0
 20 15  2  0  0  0  0
 22 24  1  0  0  0  0
 22 23  1  0  0  0  0
 25 26  1  0  0  0  0
 28 26  1  6  0  0  0
 28 29  1  0  0  0  0
 28 27  1  0  0  0  0
 29 27  1  0  0  0  0
 29 30  1  1  0  0  0
 31 30  1  6  0  0  0
 31 32  1  0  0  0  0
 31 34  1  0  0  0  0
 32 33  1  0  0  0  0
 35 34  1  1  0  0  0
 35 38  1  0  0  0  0
 35 37  1  0  0  0  0
 37 36  1  0  0  0  0
 39 38  1  0  0  0  0
 40 41  1  0  0  0  0
 40 42  1  1  0  0  0
 41 39  1  6  0  0  0
 43 44  1  6  0  0  0
 43 40  1  0  0  0  0
 43 41  1  0  0  0  0
 45 44  2  0  0  0  0
 46 47  1  0  0  0  0
 47 44  1  0  0  0  0
M  END
>  <MODEL>
5

>  <REMARK>
 VINA RESULT:      -7.0      1.682      2.181
  Name = 
  19 active torsions:
  status: ('A' for Active; 'I' for Inactive)
    1  A    between atoms: C_2  and  C_40
    2  A    between atoms: C_2  and  C_47
    3  A    between atoms: C_7  and  CA_12
    4  A    between atoms: O_9  and  C_26
    5  A    between atoms: C_10  and  C_26
    6  A    between atoms: C_10  and  C_41
    7  A    between atoms: C_11  and  C_24
    8  A    between atoms: C_14  and  C_41
    9  A    between atoms: C_15  and  C_45
   10  A    between atoms: C_16  and  C_45
   11  A    between atoms: N_20  and  C_33
   12  A    between atoms: N_20  and  C_44
   13  A    between atoms: C_22  and  C_26
   14  A    between atoms: C_22  and  C_38
   15  A    between atoms: C_24  and  C_35
   16  A    between atoms: C_30  and  C_36
   17  A    between atoms: C_35  and  C_41
   18  A    between atoms: C_36  and  C_37
   19  A    between atoms: C_44  and  C_45
                            x       y       z     vdW  Elec       q    Type
                         _______ _______ _______ _____ _____    ______ ____

>  <TORSDO>
F 19

$$$$
=
 OpenBabel10222422083D

 47 51  0  0  1  0  0  0  0  0999 V2000
  190.5750  177.2360  138.8540 C   0  0  2  0  0  3  0  0  0  0  0  0
  190.1540  175.1100  137.6060 C   0  0  0  0  0  3  0  0  0  0  0  0
  192.8750  174.7980  137.0350 C   0  0  0  0  0  3  0  0  0  0  0  0
  191.0740  176.0600  138.0650 C   0  0  0  0  0  0  0  0  0  0  0  0
  192.4380  175.9000  137.7750 C   0  0  0  0  0  3  0  0  0  0  0  0
  192.3840  172.7560  135.8470 O   0  0  0  0  0  1  0  0  0  0  0  0
  190.5920  174.0080  136.8660 C   0  0  0  0  0  3  0  0  0  0  0  0
  191.9510  173.8520  136.5810 C   0  0  0  0  0  0  0  0  0  0  0  0
  191.7140  177.7540  141.0720 C   0  0  0  0  0  2  0  0  0  0  0  0
  190.7990  177.0520  140.3220 C   0  0  0  0  0  0  0  0  0  0  0  0
  191.6160  177.3220  142.3440 N   0  0  0  0  0  0  0  0  0  0  0  0
  190.6560  176.3770  142.3130 C   0  0  0  0  0  0  0  0  0  0  0  0
  190.1210  176.1820  141.0930 N   0  0  0  0  0  0  0  0  0  0  0  0
  190.1860  175.6580  143.5320 C   0  0  0  0  0  2  0  0  0  0  0  0
  189.4640  177.0750  145.5120 C   0  0  0  0  0  0  0  0  0  0  0  0
  187.9230  176.6910  143.6920 C   0  0  0  0  0  3  0  0  0  0  0  0
  188.5160  177.8330  146.1310 N   0  0  0  0  0  0  0  0  0  0  0  0
  187.2890  178.0380  145.5820 C   0  0  0  0  0  0  0  0  0  0  0  0
  186.9710  177.4700  144.3490 C   0  0  0  0  0  3  0  0  0  0  0  0
  189.1770  176.4800  144.2690 C   0  0  0  0  0  0  0  0  0  0  0  0
  186.3770  178.8000  146.2310 F   0  0  0  0  0  0  0  0  0  0  0  0
  190.7970  176.8900  146.1660 C   0  0  0  0  0  3  0  0  0  0  0  0
  191.7170  177.7960  145.6370 O   0  0  0  0  0  1  0  0  0  0  0  0
  190.6870  177.0830  147.5440 O   0  0  0  0  0  1  0  0  0  0  0  0
  189.1130  177.5470  138.5630 C   0  0  0  0  0  2  0  0  0  0  0  0
  189.0190  178.5100  137.4790 N   0  0  0  0  0  2  0  0  0  0  0  0
  187.6300  178.0070  135.5620 C   0  0  0  0  0  2  0  0  0  0  0  0
  187.6490  178.4730  137.0040 C   0  0  1  0  0  3  0  0  0  0  0  0
  187.2800  177.0410  136.6740 C   0  0  1  0  0  3  0  0  0  0  0  0
  185.7730  176.8880  136.7530 C   0  0  0  0  0  2  0  0  0  0  0  0
  185.3890  175.4130  136.6650 C   0  0  2  0  0  3  0  0  0  0  0  0
  186.2830  174.6490  135.8790 O   0  0  0  0  0  0  0  0  0  0  0  0
  185.6330  173.4840  135.4400 C   0  0  0  0  0  1  0  0  0  0  0  0
  183.9180  175.2320  136.2700 C   0  0  0  0  0  2  0  0  0  0  0  0
  182.9940  174.9480  137.4570 C   0  0  2  0  0  3  0  0  0  0  0  0
  182.3990  172.6220  137.3410 F   0  0  0  0  0  0  0  0  0  0  0  0
  181.9260  173.9040  137.1290 C   0  0  0  0  0  2  0  0  0  0  0  0
  182.4030  176.2240  138.0550 C   0  0  0  0  0  2  0  0  0  0  0  0
  183.2900  176.7840  139.1570 C   0  0  0  0  0  2  0  0  0  0  0  0
  182.0010  178.8310  139.6680 C   0  0  1  0  0  3  0  0  0  0  0  0
  182.4470  177.4930  140.2150 C   0  0  2  0  0  3  0  0  0  0  0  0
  180.7600  179.1570  140.2100 O   0  0  0  0  0  1  0  0  0  0  0  0
  183.0390  178.7960  140.7770 C   0  0  1  0  0  3  0  0  0  0  0  0
  184.4070  179.1630  140.2610 C   0  0  0  0  0  0  0  0  0  0  0  0
  184.5300  179.6960  139.1670 O   0  0  0  0  0  0  0  0  0  0  0  0
  185.5380  179.6590  142.2790 O   0  0  0  0  0  1  0  0  0  0  0  0
  185.6160  178.9130  141.1030 C   0  0  0  0  0  2  0  0  0  0  0  0
  1 25  1  1  0  0  0
  1 10  1  0  0  0  0
  2  4  1  0  0  0  0
  3  5  1  0  0  0  0
  4  1  1  0  0  0  0
  5  4  2  0  0  0  0
  6  8  1  0  0  0  0
  7  2  2  0  0  0  0
  8  7  1  0  0  0  0
  8  3  2  0  0  0  0
  9 11  1  0  0  0  0
 10  9  1  0  0  0  0
 10 13  2  0  0  0  0
 12 11  2  0  0  0  0
 12 14  1  0  0  0  0
 13 12  1  0  0  0  0
 14 20  1  0  0  0  0
 15 17  1  0  0  0  0
 15 22  1  0  0  0  0
 16 20  1  0  0  0  0
 16 19  2  0  0  0  0
 18 17  2  0  0  0  0
 18 21  1  0  0  0  0
 19 18  1  0  0  0  0
 20 15  2  0  0  0  0
 22 24  1  0  0  0  0
 23 22  1  0  0  0  0
 26 25  1  0  0  0  0
 27 29  1  0  0  0  0
 27 28  1  0  0  0  0
 28 26  1  1  0  0  0
 29 30  1  6  0  0  0
 29 28  1  0  0  0  0
 31 34  1  6  0  0  0
 31 30  1  0  0  0  0
 32 31  1  0  0  0  0
 33 32  1  0  0  0  0
 35 34  1  6  0  0  0
 35 38  1  0  0  0  0
 37 36  1  0  0  0  0
 37 35  1  0  0  0  0
 38 39  1  0  0  0  0
 40 42  1  1  0  0  0
 40 41  1  0  0  0  0
 40 43  1  0  0  0  0
 41 39  1  6  0  0  0
 41 43  1  0  0  0  0
 43 44  1  6  0  0  0
 44 47  1  0  0  0  0
 45 44  2  0  0  0  0
 47 46  1  0  0  0  0
M  END
>  <MODEL>
6

>  <REMARK>
 VINA RESULT:      -6.8      2.136      7.709
  Name = 
  19 active torsions:
  status: ('A' for Active; 'I' for Inactive)
    1  A    between atoms: C_2  and  C_40
    2  A    between atoms: C_2  and  C_47
    3  A    between atoms: C_7  and  CA_12
    4  A    between atoms: O_9  and  C_26
    5  A    between atoms: C_10  and  C_26
    6  A    between atoms: C_10  and  C_41
    7  A    between atoms: C_11  and  C_24
    8  A    between atoms: C_14  and  C_41
    9  A    between atoms: C_15  and  C_45
   10  A    between atoms: C_16  and  C_45
   11  A    between atoms: N_20  and  C_33
   12  A    between atoms: N_20  and  C_44
   13  A    between atoms: C_22  and  C_26
   14  A    between atoms: C_22  and  C_38
   15  A    between atoms: C_24  and  C_35
   16  A    between atoms: C_30  and  C_36
   17  A    between atoms: C_35  and  C_41
   18  A    between atoms: C_36  and  C_37
   19  A    between atoms: C_44  and  C_45
                            x       y       z     vdW  Elec       q    Type
                         _______ _______ _______ _____ _____    ______ ____

>  <TORSDO>
F 19

$$$$
=
 OpenBabel10222422083D

 47 51  0  0  1  0  0  0  0  0999 V2000
  187.3250  177.2740  143.6300 C   0  0  2  0  0  3  0  0  0  0  0  0
  186.5770  177.8590  145.9430 C   0  0  0  0  0  3  0  0  0  0  0  0
  189.1510  177.4830  146.9710 C   0  0  0  0  0  3  0  0  0  0  0  0
  187.6170  177.4790  145.0880 C   0  0  0  0  0  0  0  0  0  0  0  0
  188.9080  177.2900  145.6080 C   0  0  0  0  0  3  0  0  0  0  0  0
  188.3490  178.0590  149.1720 O   0  0  0  0  0  1  0  0  0  0  0  0
  186.8210  178.0530  147.3060 C   0  0  0  0  0  3  0  0  0  0  0  0
  188.1080  177.8650  147.8190 C   0  0  0  0  0  0  0  0  0  0  0  0
  189.2930  175.8020  142.9610 C   0  0  0  0  0  2  0  0  0  0  0  0
  188.5660  176.9660  142.8540 C   0  0  0  0  0  0  0  0  0  0  0  0
  190.3270  175.8870  142.1040 N   0  0  0  0  0  0  0  0  0  0  0  0
  190.1920  177.0940  141.5200 C   0  0  0  0  0  0  0  0  0  0  0  0
  189.1190  177.7890  141.9450 N   0  0  0  0  0  0  0  0  0  0  0  0
  191.1100  177.5870  140.4530 C   0  0  0  0  0  2  0  0  0  0  0  0
  189.8970  177.5380  138.2210 C   0  0  0  0  0  0  0  0  0  0  0  0
  191.3970  175.7360  138.8070 C   0  0  0  0  0  3  0  0  0  0  0  0
  189.6500  176.9210  137.0320 N   0  0  0  0  0  0  0  0  0  0  0  0
  190.2370  175.7400  136.6990 C   0  0  0  0  0  0  0  0  0  0  0  0
  191.1240  175.1260  137.5840 C   0  0  0  0  0  3  0  0  0  0  0  0
  190.7830  176.9450  139.1420 C   0  0  0  0  0  0  0  0  0  0  0  0
  189.9650  175.1630  135.5050 F   0  0  0  0  0  0  0  0  0  0  0  0
  189.2240  178.8380  138.5270 C   0  0  0  0  0  3  0  0  0  0  0  0
  188.9810  179.5390  137.3460 O   0  0  0  0  0  1  0  0  0  0  0  0
  188.0180  178.6090  139.1930 O   0  0  0  0  0  1  0  0  0  0  0  0
  186.5830  178.4560  143.0200 C   0  0  0  0  0  2  0  0  0  0  0  0
  185.8620  178.0280  141.8340 N   0  0  0  0  0  2  0  0  0  0  0  0
  184.3050  178.9930  140.2510 C   0  0  0  0  0  2  0  0  0  0  0  0
  184.7070  178.8980  141.7090 C   0  0  1  0  0  3  0  0  0  0  0  0
  183.5360  178.0890  141.1910 C   0  0  1  0  0  3  0  0  0  0  0  0
  182.2450  178.7710  141.6010 C   0  0  0  0  0  2  0  0  0  0  0  0
  181.3230  178.9230  140.3930 C   0  0  2  0  0  3  0  0  0  0  0  0
  180.2560  179.8250  140.6130 O   0  0  0  0  0  0  0  0  0  0  0  0
  180.4160  180.9420  139.7770 C   0  0  0  0  0  1  0  0  0  0  0  0
  180.8720  177.5610  139.8480 C   0  0  0  0  0  2  0  0  0  0  0  0
  181.4430  177.2320  138.4670 C   0  0  2  0  0  3  0  0  0  0  0  0
  181.1120  177.4590  136.0960 F   0  0  0  0  0  0  0  0  0  0  0  0
  180.5670  177.7610  137.3320 C   0  0  0  0  0  2  0  0  0  0  0  0
  181.7750  175.7480  138.3100 C   0  0  0  0  0  2  0  0  0  0  0  0
  183.2670  175.5300  138.1050 C   0  0  0  0  0  2  0  0  0  0  0  0
  184.6630  173.5590  137.5800 C   0  0  1  0  0  3  0  0  0  0  0  0
  183.5110  174.4120  137.0950 C   0  0  2  0  0  3  0  0  0  0  0  0
  184.4700  172.2450  137.1570 O   0  0  0  0  0  1  0  0  0  0  0  0
  184.8650  174.4510  136.3680 C   0  0  1  0  0  3  0  0  0  0  0  0
  185.7430  175.6320  136.6960 C   0  0  0  0  0  0  0  0  0  0  0  0
  186.7210  175.4910  137.4160 O   0  0  0  0  0  0  0  0  0  0  0  0
  185.0640  176.8340  134.7750 O   0  0  0  0  0  1  0  0  0  0  0  0
  185.4430  176.9730  136.1090 C   0  0  0  0  0  2  0  0  0  0  0  0
  1 25  1  6  0  0  0
  1  4  1  0  0  0  0
  2  7  1  0  0  0  0
  3  8  1  0  0  0  0
  4  5  1  0  0  0  0
  4  2  2  0  0  0  0
  5  3  2  0  0  0  0
  7  8  2  0  0  0  0
  8  6  1  0  0  0  0
 10  9  1  0  0  0  0
 10  1  1  0  0  0  0
 11  9  1  0  0  0  0
 12 13  1  0  0  0  0
 12 11  2  0  0  0  0
 13 10  2  0  0  0  0
 14 12  1  0  0  0  0
 15 22  1  0  0  0  0
 15 20  1  0  0  0  0
 16 20  2  0  0  0  0
 17 15  2  0  0  0  0
 18 17  1  0  0  0  0
 18 19  2  0  0  0  0
 19 16  1  0  0  0  0
 20 14  1  0  0  0  0
 21 18  1  0  0  0  0
 22 24  1  0  0  0  0
 23 22  1  0  0  0  0
 26 25  1  0  0  0  0
 27 29  1  0  0  0  0
 27 28  1  0  0  0  0
 28 26  1  6  0  0  0
 29 30  1  1  0  0  0
 29 28  1  0  0  0  0
 31 34  1  1  0  0  0
 31 32  1  0  0  0  0
 31 30  1  0  0  0  0
 33 32  1  0  0  0  0
 35 37  1  6  0  0  0
 35 34  1  0  0  0  0
 36 37  1  0  0  0  0
 38 35  1  0  0  0  0
 39 38  1  0  0  0  0
 40 42  1  6  0  0  0
 41 40  1  0  0  0  0
 41 39  1  1  0  0  0
 43 44  1  1  0  0  0
 43 41  1  0  0  0  0
 43 40  1  0  0  0  0
 44 45  2  0  0  0  0
 46 47  1  0  0  0  0
 47 44  1  0  0  0  0
M  END
>  <MODEL>
7

>  <REMARK>
 VINA RESULT:      -6.8      3.202      8.973
  Name = 
  19 active torsions:
  status: ('A' for Active; 'I' for Inactive)
    1  A    between atoms: C_2  and  C_40
    2  A    between atoms: C_2  and  C_47
    3  A    between atoms: C_7  and  CA_12
    4  A    between atoms: O_9  and  C_26
    5  A    between atoms: C_10  and  C_26
    6  A    between atoms: C_10  and  C_41
    7  A    between atoms: C_11  and  C_24
    8  A    between atoms: C_14  and  C_41
    9  A    between atoms: C_15  and  C_45
   10  A    between atoms: C_16  and  C_45
   11  A    between atoms: N_20  and  C_33
   12  A    between atoms: N_20  and  C_44
   13  A    between atoms: C_22  and  C_26
   14  A    between atoms: C_22  and  C_38
   15  A    between atoms: C_24  and  C_35
   16  A    between atoms: C_30  and  C_36
   17  A    between atoms: C_35  and  C_41
   18  A    between atoms: C_36  and  C_37
   19  A    between atoms: C_44  and  C_45
                            x       y       z     vdW  Elec       q    Type
                         _______ _______ _______ _____ _____    ______ ____

>  <TORSDO>
F 19

$$$$
=
 OpenBabel10222422083D

 47 51  0  0  1  0  0  0  0  0999 V2000
  189.4180  178.0360  138.6270 C   0  0  2  0  0  3  0  0  0  0  0  0
  187.3420  178.2010  137.2430 C   0  0  0  0  0  3  0  0  0  0  0  0
  187.1890  175.4200  136.9750 C   0  0  0  0  0  3  0  0  0  0  0  0
  188.3100  177.3910  137.8480 C   0  0  0  0  0  0  0  0  0  0  0  0
  188.2300  175.9950  137.7090 C   0  0  0  0  0  3  0  0  0  0  0  0
  185.1900  175.6660  135.6470 O   0  0  0  0  0  1  0  0  0  0  0  0
  186.3010  177.6250  136.5100 C   0  0  0  0  0  3  0  0  0  0  0  0
  186.2250  176.2360  136.3750 C   0  0  0  0  0  0  0  0  0  0  0  0
  191.7870  177.4460  139.3520 C   0  0  0  0  0  2  0  0  0  0  0  0
  190.6800  177.2350  138.5620 C   0  0  0  0  0  0  0  0  0  0  0  0
  192.7100  176.5260  139.0130 N   0  0  0  0  0  0  0  0  0  0  0  0
  192.1330  175.8040  138.0340 C   0  0  0  0  0  0  0  0  0  0  0  0
  190.8820  176.1990  137.7280 N   0  0  0  0  0  0  0  0  0  0  0  0
  192.7960  174.6330  137.3910 C   0  0  0  0  0  2  0  0  0  0  0  0
  195.3350  174.6690  137.4430 C   0  0  0  0  0  0  0  0  0  0  0  0
  194.1610  175.7490  135.6280 C   0  0  0  0  0  3  0  0  0  0  0  0
  196.5170  175.0370  136.8730 N   0  0  0  0  0  0  0  0  0  0  0  0
  196.5660  175.7450  135.7130 C   0  0  0  0  0  0  0  0  0  0  0  0
  195.3850  176.1130  135.0680 C   0  0  0  0  0  3  0  0  0  0  0  0
  194.1230  175.0280  136.8240 C   0  0  0  0  0  0  0  0  0  0  0  0
  197.7620  176.0880  135.1800 F   0  0  0  0  0  0  0  0  0  0  0  0
  195.3480  173.8870  138.7180 C   0  0  0  0  0  3  0  0  0  0  0  0
  195.7830  172.5840  138.4740 O   0  0  0  0  0  1  0  0  0  0  0  0
  196.1910  174.4980  139.6470 O   0  0  0  0  0  1  0  0  0  0  0  0
  189.0230  178.3110  140.0720 C   0  0  0  0  0  2  0  0  0  0  0  0
  188.9460  177.0610  140.8090 N   0  0  0  0  0  2  0  0  0  0  0  0
  188.8740  176.2660  143.0940 C   0  0  0  0  0  2  0  0  0  0  0  0
  188.5040  177.3930  142.1510 C   0  0  1  0  0  3  0  0  0  0  0  0
  189.7160  177.5230  143.0500 C   0  0  1  0  0  3  0  0  0  0  0  0
  189.3620  178.4080  144.2300 C   0  0  0  0  0  2  0  0  0  0  0  0
  190.0930  177.9300  145.4830 C   0  0  2  0  0  3  0  0  0  0  0  0
  191.2570  177.1780  145.1980 O   0  0  0  0  0  0  0  0  0  0  0  0
  191.5900  176.4000  146.3190 C   0  0  0  0  0  1  0  0  0  0  0  0
  189.1410  177.2380  146.4670 C   0  0  0  0  0  2  0  0  0  0  0  0
  187.8250  177.9890  146.6810 C   0  0  2  0  0  3  0  0  0  0  0  0
  188.6220  178.4330  148.9050 F   0  0  0  0  0  0  0  0  0  0  0  0
  187.4870  178.1650  148.1610 C   0  0  0  0  0  2  0  0  0  0  0  0
  186.6710  177.3840  145.8830 C   0  0  0  0  0  2  0  0  0  0  0  0
  185.7760  178.4640  145.2930 C   0  0  0  0  0  2  0  0  0  0  0  0
  185.1670  179.5210  143.1430 C   0  0  1  0  0  3  0  0  0  0  0  0
  185.5420  178.2130  143.8050 C   0  0  2  0  0  3  0  0  0  0  0  0
  185.6270  179.5160  141.8270 O   0  0  0  0  0  1  0  0  0  0  0  0
  184.1070  178.4440  143.3060 C   0  0  1  0  0  3  0  0  0  0  0  0
  183.1040  178.8190  144.3670 C   0  0  0  0  0  0  0  0  0  0  0  0
  183.4820  179.1680  145.4760 O   0  0  0  0  0  0  0  0  0  0  0  0
  181.3600  179.7390  143.0590 O   0  0  0  0  0  1  0  0  0  0  0  0
  181.6420  178.8030  144.0540 C   0  0  0  0  0  2  0  0  0  0  0  0
  1 25  1  1  0  0  0
  2  4  1  0  0  0  0
  3  5  1  0  0  0  0
  4  1  1  0  0  0  0
  5  4  2  0  0  0  0
  6  8  1  0  0  0  0
  7  2  2  0  0  0  0
  8  7  1  0  0  0  0
  8  3  2  0  0  0  0
 10  1  1  0  0  0  0
 10  9  1  0  0  0  0
 11  9  1  0  0  0  0
 12 11  2  0  0  0  0
 13 12  1  0  0  0  0
 13 10  2  0  0  0  0
 14 12  1  0  0  0  0
 15 22  1  0  0  0  0
 16 20  1  0  0  0  0
 17 15  1  0  0  0  0
 18 17  2  0  0  0  0
 19 16  2  0  0  0  0
 19 18  1  0  0  0  0
 20 14  1  0  0  0  0
 20 15  2  0  0  0  0
 21 18  1  0  0  0  0
 22 24  1  0  0  0  0
 23 22  1  0  0  0  0
 25 26  1  0  0  0  0
 28 26  1  6  0  0  0
 28 29  1  0  0  0  0
 28 27  1  0  0  0  0
 29 27  1  0  0  0  0
 29 30  1  1  0  0  0
 31 30  1  6  0  0  0
 31 34  1  0  0  0  0
 32 31  1  0  0  0  0
 32 33  1  0  0  0  0
 34 35  1  0  0  0  0
 35 38  1  6  0  0  0
 35 37  1  0  0  0  0
 37 36  1  0  0  0  0
 39 38  1  0  0  0  0
 40 42  1  6  0  0  0
 40 43  1  0  0  0  0
 40 41  1  0  0  0  0
 41 39  1  1  0  0  0
 43 41  1  0  0  0  0
 43 44  1  1  0  0  0
 44 45  2  0  0  0  0
 46 47  1  0  0  0  0
 47 44  1  0  0  0  0
M  END
>  <MODEL>
8

>  <REMARK>
 VINA RESULT:      -6.7      3.249      6.712
  Name = 
  19 active torsions:
  status: ('A' for Active; 'I' for Inactive)
    1  A    between atoms: C_2  and  C_40
    2  A    between atoms: C_2  and  C_47
    3  A    between atoms: C_7  and  CA_12
    4  A    between atoms: O_9  and  C_26
    5  A    between atoms: C_10  and  C_26
    6  A    between atoms: C_10  and  C_41
    7  A    between atoms: C_11  and  C_24
    8  A    between atoms: C_14  and  C_41
    9  A    between atoms: C_15  and  C_45
   10  A    between atoms: C_16  and  C_45
   11  A    between atoms: N_20  and  C_33
   12  A    between atoms: N_20  and  C_44
   13  A    between atoms: C_22  and  C_26
   14  A    between atoms: C_22  and  C_38
   15  A    between atoms: C_24  and  C_35
   16  A    between atoms: C_30  and  C_36
   17  A    between atoms: C_35  and  C_41
   18  A    between atoms: C_36  and  C_37
   19  A    between atoms: C_44  and  C_45
                            x       y       z     vdW  Elec       q    Type
                         _______ _______ _______ _____ _____    ______ ____

>  <TORSDO>
F 19

$$$$
=
 OpenBabel10222422083D

 47 51  0  0  1  0  0  0  0  0999 V2000
  191.0900  176.2540  136.7770 C   0  0  2  0  0  3  0  0  0  0  0  0
  190.5170  174.3740  135.2320 C   0  0  0  0  0  3  0  0  0  0  0  0
  188.1650  173.8110  136.6390 C   0  0  0  0  0  3  0  0  0  0  0  0
  190.1770  175.1420  136.3510 C   0  0  0  0  0  0  0  0  0  0  0  0
  188.9960  174.8550  137.0550 C   0  0  0  0  0  3  0  0  0  0  0  0
  187.6850  172.0130  135.1030 O   0  0  0  0  0  1  0  0  0  0  0  0
  189.6850  173.3300  134.8150 C   0  0  0  0  0  3  0  0  0  0  0  0
  188.5100  173.0490  135.5180 C   0  0  0  0  0  0  0  0  0  0  0  0
  193.6300  176.4170  136.6850 C   0  0  0  0  0  3  0  0  0  0  0  0
  192.4760  175.7600  137.0460 C   0  0  0  0  0  0  0  0  0  0  0  0
  194.6710  175.6730  137.1030 N   0  0  0  0  0  0  0  0  0  0  0  0
  194.1110  174.5980  137.6920 C   0  0  0  0  0  0  0  0  0  0  0  0
  192.7640  174.6110  137.6860 N   0  0  0  0  0  2  0  0  0  0  0  0
  194.9110  173.5220  138.3450 C   0  0  0  0  0  2  0  0  0  0  0  0
  197.3770  173.8170  137.8130 C   0  0  0  0  0  0  0  0  0  0  0  0
  196.4790  174.7260  139.8630 C   0  0  0  0  0  3  0  0  0  0  0  0
  198.6020  174.3070  138.1530 N   0  0  0  0  0  0  0  0  0  0  0  0
  198.8060  174.9930  139.3100 C   0  0  0  0  0  0  0  0  0  0  0  0
  197.7440  175.2160  140.1870 C   0  0  0  0  0  3  0  0  0  0  0  0
  196.2830  174.0170  138.6760 C   0  0  0  0  0  0  0  0  0  0  0  0
  200.0390  175.4650  139.6070 F   0  0  0  0  0  0  0  0  0  0  0  0
  197.2160  173.0740  136.5240 C   0  0  0  0  0  3  0  0  0  0  0  0
  197.2610  173.9650  135.4520 O   0  0  0  0  0  1  0  0  0  0  0  0
  198.2290  172.1240  136.3880 O   0  0  0  0  0  1  0  0  0  0  0  0
  190.5460  177.0190  137.9760 C   0  0  0  0  0  2  0  0  0  0  0  0
  189.6760  178.0920  137.5240 N   0  0  0  0  0  2  0  0  0  0  0  0
  187.6050  178.0570  138.7750 C   0  0  0  0  0  2  0  0  0  0  0  0
  189.0100  178.6160  138.7020 C   0  0  1  0  0  3  0  0  0  0  0  0
  188.6980  177.4710  139.6420 C   0  0  1  0  0  3  0  0  0  0  0  0
  188.5670  178.0110  141.0530 C   0  0  0  0  0  2  0  0  0  0  0  0
  189.7430  177.5440  141.9070 C   0  0  2  0  0  3  0  0  0  0  0  0
  190.7640  176.9170  141.1550 O   0  0  0  0  0  0  0  0  0  0  0  0
  192.0100  177.2020  141.7400 C   0  0  0  0  0  1  0  0  0  0  0  0
  189.2770  176.7210  143.1150 C   0  0  0  0  0  2  0  0  0  0  0  0
  189.1550  177.5370  144.4040 C   0  0  2  0  0  3  0  0  0  0  0  0
  191.0160  176.1570  145.0480 F   0  0  0  0  0  0  0  0  0  0  0  0
  190.3460  177.3320  145.3400 C   0  0  0  0  0  2  0  0  0  0  0  0
  187.8140  177.3240  145.1050 C   0  0  0  0  0  2  0  0  0  0  0  0
  186.6510  177.7540  144.2240 C   0  0  0  0  0  2  0  0  0  0  0  0
  184.3540  178.3550  144.9140 C   0  0  1  0  0  3  0  0  0  0  0  0
  185.7990  178.8030  144.9340 C   0  0  2  0  0  3  0  0  0  0  0  0
  183.7140  178.8230  146.0600 O   0  0  0  0  0  1  0  0  0  0  0  0
  184.7730  179.5370  144.0560 C   0  0  1  0  0  3  0  0  0  0  0  0
  184.7920  179.1720  142.5930 C   0  0  0  0  0  0  0  0  0  0  0  0
  185.6290  179.6620  141.8480 O   0  0  0  0  0  0  0  0  0  0  0  0
  183.5420  178.4560  140.7160 O   0  0  0  0  0  1  0  0  0  0  0  0
  183.8130  178.1790  142.0560 C   0  0  0  0  0  2  0  0  0  0  0  0
  1 10  1  0  0  0  0
  1 25  1  1  0  0  0
  2  4  1  0  0  0  0
  3  5  1  0  0  0  0
  4  1  1  0  0  0  0
  4  5  2  0  0  0  0
  6  8  1  0  0  0  0
  7  2  2  0  0  0  0
  7  8  1  0  0  0  0
  8  3  2  0  0  0  0
  9 10  2  0  0  0  0
  9 11  1  0  0  0  0
 10 13  1  0  0  0  0
 11 12  2  0  0  0  0
 12 14  1  0  0  0  0
 13 12  1  0  0  0  0
 14 20  1  0  0  0  0
 15 17  2  0  0  0  0
 15 20  1  0  0  0  0
 16 19  1  0  0  0  0
 17 18  1  0  0  0  0
 18 21  1  0  0  0  0
 18 19  2  0  0  0  0
 20 16  2  0  0  0  0
 22 15  1  0  0  0  0
 23 22  1  0  0  0  0
 24 22  1  0  0  0  0
 26 25  1  0  0  0  0
 27 29  1  0  0  0  0
 28 26  1  6  0  0  0
 28 27  1  0  0  0  0
 28 29  1  0  0  0  0
 29 30  1  1  0  0  0
 31 30  1  6  0  0  0
 31 34  1  0  0  0  0
 32 33  1  0  0  0  0
 32 31  1  0  0  0  0
 35 34  1  6  0  0  0
 35 38  1  0  0  0  0
 35 37  1  0  0  0  0
 36 37  1  0  0  0  0
 39 38  1  0  0  0  0
 40 41  1  0  0  0  0
 40 42  1  1  0  0  0
 41 39  1  6  0  0  0
 43 44  1  6  0  0  0
 43 40  1  0  0  0  0
 43 41  1  0  0  0  0
 45 44  2  0  0  0  0
 46 47  1  0  0  0  0
 47 44  1  0  0  0  0
M  END
>  <MODEL>
9

>  <REMARK>
 VINA RESULT:      -6.7      3.835      7.731
  Name = 
  19 active torsions:
  status: ('A' for Active; 'I' for Inactive)
    1  A    between atoms: C_2  and  C_40
    2  A    between atoms: C_2  and  C_47
    3  A    between atoms: C_7  and  CA_12
    4  A    between atoms: O_9  and  C_26
    5  A    between atoms: C_10  and  C_26
    6  A    between atoms: C_10  and  C_41
    7  A    between atoms: C_11  and  C_24
    8  A    between atoms: C_14  and  C_41
    9  A    between atoms: C_15  and  C_45
   10  A    between atoms: C_16  and  C_45
   11  A    between atoms: N_20  and  C_33
   12  A    between atoms: N_20  and  C_44
   13  A    between atoms: C_22  and  C_26
   14  A    between atoms: C_22  and  C_38
   15  A    between atoms: C_24  and  C_35
   16  A    between atoms: C_30  and  C_36
   17  A    between atoms: C_35  and  C_41
   18  A    between atoms: C_36  and  C_37
   19  A    between atoms: C_44  and  C_45
                            x       y       z     vdW  Elec       q    Type
                         _______ _______ _______ _____ _____    ______ ____

>  <TORSDO>
F 19

$$$$
