=
 OpenBabel10232411333D

 27 32  0  0  1  0  0  0  0  0999 V2000
  180.8020  175.6160  138.0840 C   0  0  0  0  0  0  0  0  0  0  0  0
  183.6200  178.4900  140.5350 C   0  0  1  0  0  0  0  0  0  0  0  0
  183.8880  179.4830  139.4110 C   0  0  0  0  0  2  0  0  0  0  0  0
  183.2810  178.9890  141.7730 C   0  0  0  0  0  2  0  0  0  0  0  0
  183.5630  177.1010  137.4420 C   0  0  0  0  0  1  0  0  0  0  0  0
  181.9840  177.0650  139.4290 N   0  0  1  0  0  0  0  0  0  0  0  0
  183.2160  177.0590  140.2120 C   0  0  0  0  0  2  0  0  0  0  0  0
  182.1700  177.4300  137.9980 C   0  0  1  0  0  0  0  0  0  0  0  0
  181.8550  178.9130  137.7940 C   0  0  0  0  0  2  0  0  0  0  0  0
  181.3790  175.7330  139.4340 C   0  0  0  0  0  2  0  0  0  0  0  0
  181.2360  176.6440  137.2810 O   0  0  0  0  0  0  0  0  0  0  0  0
  182.6270  179.8650  138.6820 C   0  0  0  0  0  0  0  0  0  0  0  0
  184.6920  178.5320  141.5640 N   0  0  0  0  0  0  0  0  0  0  0  0
  182.2170  181.1260  138.7540 C   0  0  0  0  0  2  0  0  0  0  0  0
  179.9820  174.6580  137.6830 C   0  0  0  0  0  2  0  0  0  0  0  0
  186.6310  177.6090  145.7400 C   0  0  0  0  0  3  0  0  0  0  0  0
  187.8520  177.8900  143.2260 C   0  0  1  0  0  3  0  0  0  0  0  0
  186.4710  178.0370  143.2980 C   0  0  0  0  0  0  0  0  0  0  0  0
  186.0270  178.3060  141.9990 C   0  0  0  0  0  0  0  0  0  0  0  0
  187.4190  178.4900  139.9270 N   0  0  0  0  0  0  0  0  0  0  0  0
  189.3060  178.0680  141.1560 C   0  0  0  0  0  3  0  0  0  0  0  0
  185.7000  177.9120  144.5780 C   0  0  0  0  0  3  0  0  0  0  0  0
  188.7780  178.3410  139.8810 C   0  0  0  0  0  3  0  0  0  0  0  0
  187.9650  177.4790  145.5990 C   0  0  0  0  0  3  0  0  0  0  0  0
  187.1710  178.3030  141.2300 C   0  0  0  0  0  0  0  0  0  0  0  0
  188.6210  177.6240  144.2790 C   0  0  0  0  0  3  0  0  0  0  0  0
  188.2340  178.0590  141.9520 N   0  0  0  0  0  0  0  0  0  0  0  0
  1 10  1  0  0  0  0
  2  3  1  6  0  0  0
  2 13  1  0  0  0  0
  2  4  1  0  0  0  0
  6 10  1  6  0  0  0
  6  7  1  0  0  0  0
  7  2  1  0  0  0  0
  8  5  1  6  0  0  0
  8  6  1  0  0  0  0
  9  8  1  0  0  0  0
  9 12  1  0  0  0  0
 11  8  1  0  0  0  0
 11  1  1  0  0  0  0
 12 14  2  0  0  0  0
 12  3  1  0  0  0  0
 13  4  1  0  0  0  0
 13 19  1  0  0  0  0
 15  1  2  0  0  0  0
 17 18  1  0  0  0  0
 17 26  1  6  0  0  0
 18 22  1  0  0  0  0
 19 18  2  0  0  0  0
 20 25  2  0  0  0  0
 21 27  1  0  0  0  0
 22 16  2  0  0  0  0
 23 20  1  0  0  0  0
 23 21  2  0  0  0  0
 24 16  1  0  0  0  0
 25 27  1  0  0  0  0
 25 19  1  0  0  0  0
 26 24  2  0  0  0  0
 27 17  1  0  0  0  0
M  END
>  <MODEL>
1

>  <REMARK>
 VINA RESULT:      -8.1      0.000      0.000
  Name = 
  1 active torsions:
  status: ('A' for Active; 'I' for Inactive)
    1  A    between atoms: C_5  and  N_23
                            x       y       z     vdW  Elec       q    Type
                         _______ _______ _______ _____ _____    ______ ____

>  <TORSDO>
F 1

$$$$
=
 OpenBabel10232411333D

 27 32  0  0  1  0  0  0  0  0999 V2000
  185.5250  176.7190  135.3160 C   0  0  0  0  0  0  0  0  0  0  0  0
  188.7410  177.4680  138.6770 C   0  0  1  0  0  0  0  0  0  0  0  0
  189.6490  176.2960  138.3240 C   0  0  0  0  0  2  0  0  0  0  0  0
  189.3240  178.6980  138.8910 C   0  0  0  0  0  2  0  0  0  0  0  0
  187.0960  174.8150  137.3530 C   0  0  0  0  0  1  0  0  0  0  0  0
  187.1440  177.3030  136.8480 N   0  0  1  0  0  0  0  0  0  0  0  0
  187.2690  177.4370  138.2960 C   0  0  0  0  0  2  0  0  0  0  0  0
  187.3960  175.9270  136.3370 C   0  0  1  0  0  0  0  0  0  0  0  0
  188.8380  175.8140  135.8390 C   0  0  0  0  0  2  0  0  0  0  0  0
  185.7860  177.6500  136.4270 C   0  0  0  0  0  2  0  0  0  0  0  0
  186.5030  175.7550  135.2510 O   0  0  0  0  0  0  0  0  0  0  0  0
  189.9000  176.2020  136.8430 C   0  0  0  0  0  0  0  0  0  0  0  0
  188.9270  177.8920  140.0900 N   0  0  0  0  0  0  0  0  0  0  0  0
  191.1400  176.3890  136.4030 C   0  0  0  0  0  2  0  0  0  0  0  0
  184.4950  176.7840  134.4880 C   0  0  0  0  0  2  0  0  0  0  0  0
  185.4210  178.4240  143.1680 C   0  0  0  0  0  3  0  0  0  0  0  0
  188.0540  177.5450  143.5940 C   0  0  0  0  0  0  0  0  0  0  0  0
  187.6850  177.8860  142.2970 C   0  0  0  0  0  0  0  0  0  0  0  0
  188.8100  177.6830  141.4920 C   0  0  0  0  0  0  0  0  0  0  0  0
  191.0630  176.8660  142.2110 N   0  0  0  0  0  0  0  0  0  0  0  0
  190.3200  176.7140  144.3730 C   0  0  0  0  0  3  0  0  0  0  0  0
  186.3110  178.3690  141.9380 C   0  0  0  0  0  2  0  0  0  0  0  0
  191.4040  176.5360  143.4940 C   0  0  0  0  0  3  0  0  0  0  0  0
  185.8460  178.0780  144.3990 C   0  0  0  0  0  3  0  0  0  0  0  0
  189.7840  177.2330  142.3570 C   0  0  0  0  0  0  0  0  0  0  0  0
  187.2320  177.6120  144.6370 C   0  0  0  0  0  3  0  0  0  0  0  0
  189.3370  177.1540  143.5840 N   0  0  0  0  0  0  0  0  0  0  0  0
  1 10  1  0  0  0  0
  2  7  1  6  0  0  0
  2  4  1  0  0  0  0
  2 13  1  0  0  0  0
  3  2  1  0  0  0  0
  4 13  1  0  0  0  0
  6 10  1  1  0  0  0
  6  7  1  0  0  0  0
  8  6  1  0  0  0  0
  8  5  1  1  0  0  0
  9  8  1  0  0  0  0
  9 12  1  0  0  0  0
 11  1  1  0  0  0  0
 11  8  1  0  0  0  0
 12  3  1  0  0  0  0
 13 19  1  0  0  0  0
 14 12  2  0  0  0  0
 15  1  2  0  0  0  0
 16 24  2  0  0  0  0
 17 26  2  0  0  0  0
 18 17  1  0  0  0  0
 19 18  2  0  0  0  0
 19 25  1  0  0  0  0
 20 25  2  0  0  0  0
 20 23  1  0  0  0  0
 22 18  1  0  0  0  0
 22 16  1  0  0  0  0
 23 21  2  0  0  0  0
 24 26  1  0  0  0  0
 25 27  1  0  0  0  0
 27 17  1  0  0  0  0
 27 21  1  0  0  0  0
M  END
>  <MODEL>
2

>  <REMARK>
 VINA RESULT:      -7.8      3.506      5.172
  Name = 
  1 active torsions:
  status: ('A' for Active; 'I' for Inactive)
    1  A    between atoms: C_5  and  N_23
                            x       y       z     vdW  Elec       q    Type
                         _______ _______ _______ _____ _____    ______ ____

>  <TORSDO>
F 1

$$$$
=
 OpenBabel10232411333D

 27 32  0  0  1  0  0  0  0  0999 V2000
  180.7290  181.4370  138.0310 C   0  0  0  0  0  0  0  0  0  0  0  0
  184.1120  178.5530  139.5950 C   0  0  1  0  0  0  0  0  0  0  0  0
  183.2860  177.2720  139.5670 C   0  0  0  0  0  2  0  0  0  0  0  0
  185.3760  178.5210  139.0490 C   0  0  0  0  0  2  0  0  0  0  0  0
  180.8050  179.0470  140.1580 C   0  0  0  0  0  1  0  0  0  0  0  0
  182.5100  180.0850  138.5900 N   0  0  1  0  0  0  0  0  0  0  0  0
  183.4240  179.9040  139.7130 C   0  0  0  0  0  2  0  0  0  0  0  0
  181.2340  179.3260  138.7110 C   0  0  1  0  0  0  0  0  0  0  0  0
  181.3320  178.0170  137.9250 C   0  0  0  0  0  2  0  0  0  0  0  0
  182.1340  181.4950  138.4700 C   0  0  0  0  0  2  0  0  0  0  0  0
  180.2430  180.1550  138.1320 O   0  0  0  0  0  0  0  0  0  0  0  0
  182.5050  177.1330  138.2880 C   0  0  0  0  0  0  0  0  0  0  0  0
  185.2550  178.4420  140.5400 N   0  0  0  0  0  0  0  0  0  0  0  0
  182.8060  176.1270  137.4740 C   0  0  0  0  0  2  0  0  0  0  0  0
  180.0180  182.4670  137.6030 C   0  0  0  0  0  2  0  0  0  0  0  0
  183.4550  178.9580  144.8460 C   0  0  0  0  0  3  0  0  0  0  0  0
  186.0780  178.3190  144.0710 C   0  0  0  0  0  0  0  0  0  0  0  0
  185.1360  178.5230  143.0690 C   0  0  0  0  0  0  0  0  0  0  0  0
  185.7980  178.3400  141.8510 C   0  0  0  0  0  0  0  0  0  0  0  0
  188.2070  177.7590  141.5060 N   0  0  0  0  0  0  0  0  0  0  0  0
  188.5270  177.7300  143.7740 C   0  0  0  0  0  3  0  0  0  0  0  0
  183.7040  178.8690  143.3500 C   0  0  0  0  0  2  0  0  0  0  0  0
  189.1170  177.5630  142.5080 C   0  0  0  0  0  3  0  0  0  0  0  0
  184.4180  178.7480  145.7660 C   0  0  0  0  0  3  0  0  0  0  0  0
  187.0960  178.0390  142.1990 C   0  0  0  0  0  0  0  0  0  0  0  0
  185.8050  178.4100  145.3700 C   0  0  0  0  0  3  0  0  0  0  0  0
  187.2550  178.0280  143.4980 N   0  0  0  0  0  0  0  0  0  0  0  0
  1 11  1  0  0  0  0
  1 10  1  0  0  0  0
  2  4  1  6  0  0  0
  2  7  1  0  0  0  0
  2 13  1  0  0  0  0
  3  2  1  0  0  0  0
  4 13  1  0  0  0  0
  6 10  1  1  0  0  0
  6  8  1  0  0  0  0
  6  7  1  0  0  0  0
  8  5  1  1  0  0  0
  9 12  1  0  0  0  0
  9  8  1  0  0  0  0
 11  8  1  0  0  0  0
 12  3  1  0  0  0  0
 13 19  1  0  0  0  0
 14 12  2  0  0  0  0
 15  1  2  0  0  0  0
 16 24  2  0  0  0  0
 17 26  2  0  0  0  0
 18 22  1  0  0  0  0
 18 17  1  0  0  0  0
 19 25  1  0  0  0  0
 19 18  2  0  0  0  0
 20 25  2  0  0  0  0
 20 23  1  0  0  0  0
 22 16  1  0  0  0  0
 23 21  2  0  0  0  0
 25 27  1  0  0  0  0
 26 24  1  0  0  0  0
 27 21  1  0  0  0  0
 27 17  1  0  0  0  0
M  END
>  <MODEL>
3

>  <REMARK>
 VINA RESULT:      -7.6      1.687      3.409
  Name = 
  1 active torsions:
  status: ('A' for Active; 'I' for Inactive)
    1  A    between atoms: C_5  and  N_23
                            x       y       z     vdW  Elec       q    Type
                         _______ _______ _______ _____ _____    ______ ____

>  <TORSDO>
F 1

$$$$
=
 OpenBabel10232411333D

 27 32  0  0  1  0  0  0  0  0999 V2000
  185.5010  176.7930  135.2180 C   0  0  0  0  0  0  0  0  0  0  0  0
  188.5950  177.5680  138.6860 C   0  0  1  0  0  0  0  0  0  0  0  0
  189.4930  176.3700  138.3990 C   0  0  0  0  0  2  0  0  0  0  0  0
  189.1930  178.7910  138.8920 C   0  0  0  0  0  2  0  0  0  0  0  0
  186.9510  174.9130  137.3640 C   0  0  0  0  0  1  0  0  0  0  0  0
  187.0690  177.3850  136.7980 N   0  0  1  0  0  0  0  0  0  0  0  0
  187.1390  177.5550  138.2460 C   0  0  0  0  0  2  0  0  0  0  0  0
  187.3130  175.9920  136.3330 C   0  0  1  0  0  0  0  0  0  0  0  0
  188.7720  175.8390  135.8960 C   0  0  0  0  0  2  0  0  0  0  0  0
  185.7360  177.7470  136.3140 C   0  0  0  0  0  2  0  0  0  0  0  0
  186.4610  175.8090  135.2170 O   0  0  0  0  0  0  0  0  0  0  0  0
  189.8010  176.2330  136.9330 C   0  0  0  0  0  0  0  0  0  0  0  0
  188.7330  178.0250  140.0940 N   0  0  0  0  0  0  0  0  0  0  0  0
  191.0600  176.3840  136.5380 C   0  0  0  0  0  2  0  0  0  0  0  0
  184.5060  176.8560  134.3480 C   0  0  0  0  0  2  0  0  0  0  0  0
  191.5940  176.7590  143.5950 C   0  0  0  0  0  3  0  0  0  0  0  0
  188.8700  177.4400  143.6720 C   0  0  0  0  0  0  0  0  0  0  0  0
  189.5120  177.4660  142.4380 C   0  0  0  0  0  0  0  0  0  0  0  0
  188.5560  177.8540  141.4950 C   0  0  0  0  0  0  0  0  0  0  0  0
  186.1500  178.4050  141.9110 N   0  0  0  0  0  0  0  0  0  0  0  0
  186.4400  177.9870  144.1450 C   0  0  0  0  0  3  0  0  0  0  0  0
  190.9620  177.1240  142.2630 C   0  0  0  0  0  2  0  0  0  0  0  0
  185.5400  178.3730  143.1350 C   0  0  0  0  0  3  0  0  0  0  0  0
  190.9110  176.7550  144.7570 C   0  0  0  0  0  3  0  0  0  0  0  0
  187.4000  178.0370  142.2220 C   0  0  0  0  0  0  0  0  0  0  0  0
  189.4740  177.1130  144.8110 C   0  0  0  0  0  3  0  0  0  0  0  0
  187.5890  177.7940  143.4940 N   0  0  0  0  0  0  0  0  0  0  0  0
  1 10  1  0  0  0  0
  2  7  1  6  0  0  0
  2  4  1  0  0  0  0
  2 13  1  0  0  0  0
  3  2  1  0  0  0  0
  4 13  1  0  0  0  0
  6 10  1  1  0  0  0
  6  7  1  0  0  0  0
  8  6  1  0  0  0  0
  8  5  1  1  0  0  0
  9  8  1  0  0  0  0
  9 12  1  0  0  0  0
 11  1  1  0  0  0  0
 11  8  1  0  0  0  0
 12  3  1  0  0  0  0
 13 19  1  0  0  0  0
 14 12  2  0  0  0  0
 15  1  2  0  0  0  0
 16 24  2  0  0  0  0
 17 26  2  0  0  0  0
 18 17  1  0  0  0  0
 19 25  1  0  0  0  0
 19 18  2  0  0  0  0
 20 25  2  0  0  0  0
 20 23  1  0  0  0  0
 22 18  1  0  0  0  0
 22 16  1  0  0  0  0
 23 21  2  0  0  0  0
 24 26  1  0  0  0  0
 25 27  1  0  0  0  0
 27 17  1  0  0  0  0
 27 21  1  0  0  0  0
M  END
>  <MODEL>
4

>  <REMARK>
 VINA RESULT:      -7.5      3.421      5.241
  Name = 
  1 active torsions:
  status: ('A' for Active; 'I' for Inactive)
    1  A    between atoms: C_5  and  N_23
                            x       y       z     vdW  Elec       q    Type
                         _______ _______ _______ _____ _____    ______ ____

>  <TORSDO>
F 1

$$$$
=
 OpenBabel10232411333D

 27 32  0  0  1  0  0  0  0  0999 V2000
  180.7140  181.2950  137.7570 C   0  0  0  0  0  0  0  0  0  0  0  0
  184.0450  178.6500  139.7860 C   0  0  1  0  0  0  0  0  0  0  0  0
  183.3920  177.2990  139.5190 C   0  0  0  0  0  2  0  0  0  0  0  0
  185.3850  178.7890  139.5000 C   0  0  0  0  0  2  0  0  0  0  0  0
  180.6570  178.7610  139.7110 C   0  0  0  0  0  1  0  0  0  0  0  0
  182.4990  180.0890  138.5760 N   0  0  1  0  0  0  0  0  0  0  0  0
  183.1970  179.9110  139.8450 C   0  0  0  0  0  2  0  0  0  0  0  0
  181.3190  179.1980  138.3970 C   0  0  1  0  0  0  0  0  0  0  0  0
  181.7140  177.9730  137.5700 C   0  0  0  0  0  2  0  0  0  0  0  0
  181.9940  181.4580  138.4680 C   0  0  0  0  0  2  0  0  0  0  0  0
  180.3680  179.9660  137.6830 O   0  0  0  0  0  0  0  0  0  0  0  0
  182.8890  177.1840  138.1050 C   0  0  0  0  0  0  0  0  0  0  0  0
  184.9920  178.5780  140.9300 N   0  0  0  0  0  0  0  0  0  0  0  0
  183.4530  176.2830  137.3080 C   0  0  0  0  0  2  0  0  0  0  0  0
  179.9850  182.2790  137.2580 C   0  0  0  0  0  2  0  0  0  0  0  0
  188.7740  177.1370  143.3100 C   0  0  0  0  0  3  0  0  0  0  0  0
  186.2810  178.0030  144.2720 C   0  0  0  0  0  0  0  0  0  0  0  0
  186.4740  177.9780  142.8950 C   0  0  0  0  0  0  0  0  0  0  0  0
  185.2830  178.4270  142.3140 C   0  0  0  0  0  0  0  0  0  0  0  0
  183.1950  179.1420  143.4930 N   0  0  0  0  0  0  0  0  0  0  0  0
  184.1880  178.7170  145.5140 C   0  0  0  0  0  3  0  0  0  0  0  0
  187.7560  177.5370  142.2560 C   0  0  0  0  0  2  0  0  0  0  0  0
  183.0290  179.1580  144.8510 C   0  0  0  0  0  3  0  0  0  0  0  0
  188.5190  177.1850  144.6330 C   0  0  0  0  0  3  0  0  0  0  0  0
  184.4510  178.6920  143.3800 C   0  0  0  0  0  0  0  0  0  0  0  0
  187.2090  177.6400  145.1530 C   0  0  0  0  0  3  0  0  0  0  0  0
  185.0390  178.4420  144.5220 N   0  0  0  0  0  0  0  0  0  0  0  0
  1 10  1  0  0  0  0
  2  4  1  6  0  0  0
  2  7  1  0  0  0  0
  2 13  1  0  0  0  0
  3  2  1  0  0  0  0
  4 13  1  0  0  0  0
  6 10  1  1  0  0  0
  6  7  1  0  0  0  0
  8  6  1  0  0  0  0
  8  5  1  1  0  0  0
  9 12  1  0  0  0  0
  9  8  1  0  0  0  0
 11  1  1  0  0  0  0
 11  8  1  0  0  0  0
 12  3  1  0  0  0  0
 13 19  1  0  0  0  0
 14 12  2  0  0  0  0
 15  1  2  0  0  0  0
 16 24  2  0  0  0  0
 17 27  1  0  0  0  0
 17 26  2  0  0  0  0
 18 17  1  0  0  0  0
 19 18  2  0  0  0  0
 19 25  1  0  0  0  0
 20 23  1  0  0  0  0
 22 18  1  0  0  0  0
 22 16  1  0  0  0  0
 23 21  2  0  0  0  0
 24 26  1  0  0  0  0
 25 20  2  0  0  0  0
 25 27  1  0  0  0  0
 27 21  1  0  0  0  0
M  END
>  <MODEL>
5

>  <REMARK>
 VINA RESULT:      -7.4      1.882      3.944
  Name = 
  1 active torsions:
  status: ('A' for Active; 'I' for Inactive)
    1  A    between atoms: C_5  and  N_23
                            x       y       z     vdW  Elec       q    Type
                         _______ _______ _______ _____ _____    ______ ____

>  <TORSDO>
F 1

$$$$
=
 OpenBabel10232411333D

 27 32  0  0  1  0  0  0  0  0999 V2000
  190.2620  177.5210  142.7510 C   0  0  0  0  0  0  0  0  0  0  0  0
  185.8040  178.7570  143.6450 C   0  0  1  0  0  0  0  0  0  0  0  0
  185.6040  177.8510  144.8550 C   0  0  0  0  0  2  0  0  0  0  0  0
  185.4000  180.0690  143.7450 C   0  0  0  0  0  2  0  0  0  0  0  0
  187.6170  175.8940  143.5240 C   0  0  0  0  0  1  0  0  0  0  0  0
  188.1690  178.3540  143.2310 N   0  0  1  0  0  0  0  0  0  0  0  0
  186.8540  178.4150  142.5990 C   0  0  0  0  0  2  0  0  0  0  0  0
  188.4150  177.1110  144.0120 C   0  0  1  0  0  0  0  0  0  0  0  0
  188.1380  177.3660  145.4950 C   0  0  0  0  0  2  0  0  0  0  0  0
  189.2180  178.4080  142.2120 C   0  0  0  0  0  2  0  0  0  0  0  0
  189.7880  176.8130  143.8300 O   0  0  0  0  0  0  0  0  0  0  0  0
  186.7650  177.9180  145.8090 C   0  0  0  0  0  0  0  0  0  0  0  0
  184.5060  179.1140  143.0140 N   0  0  0  0  0  0  0  0  0  0  0  0
  186.5530  178.4140  147.0240 C   0  0  0  0  0  2  0  0  0  0  0  0
  191.4900  177.4040  142.2710 C   0  0  0  0  0  2  0  0  0  0  0  0
  183.6620  178.1590  138.4950 C   0  0  0  0  0  3  0  0  0  0  0  0
  181.8790  178.2560  140.6640 C   0  0  0  0  0  0  0  0  0  0  0  0
  183.2210  178.5230  140.9130 C   0  0  0  0  0  0  0  0  0  0  0  0
  183.3310  178.7880  142.2810 C   0  0  0  0  0  0  0  0  0  0  0  0
  181.4930  178.7880  143.9800 N   0  0  0  0  0  0  0  0  0  0  0  0
  179.9820  178.2440  142.3460 C   0  0  0  0  0  3  0  0  0  0  0  0
  184.2720  178.5040  139.8430 C   0  0  0  0  0  2  0  0  0  0  0  0
  180.1790  178.5220  143.7110 C   0  0  0  0  0  3  0  0  0  0  0  0
  182.3480  177.9110  138.3240 C   0  0  0  0  0  3  0  0  0  0  0  0
  182.0480  178.6630  142.7670 C   0  0  0  0  0  0  0  0  0  0  0  0
  181.3980  177.9580  139.4600 C   0  0  0  0  0  3  0  0  0  0  0  0
  181.2030  178.3520  141.8180 N   0  0  0  0  0  0  0  0  0  0  0  0
  1 11  1  0  0  0  0
  2  7  1  6  0  0  0
  2  4  1  0  0  0  0
  2  3  1  0  0  0  0
  3 12  1  0  0  0  0
  6 10  1  6  0  0  0
  6  8  1  0  0  0  0
  7  6  1  0  0  0  0
  8  5  1  6  0  0  0
  8  9  1  0  0  0  0
  9 12  1  0  0  0  0
 10  1  1  0  0  0  0
 11  8  1  0  0  0  0
 12 14  2  0  0  0  0
 13  2  1  0  0  0  0
 13  4  1  0  0  0  0
 15  1  2  0  0  0  0
 16 22  1  0  0  0  0
 17 18  1  0  0  0  0
 17 27  1  0  0  0  0
 18 19  2  0  0  0  0
 19 25  1  0  0  0  0
 19 13  1  0  0  0  0
 21 23  2  0  0  0  0
 22 18  1  0  0  0  0
 23 20  1  0  0  0  0
 24 16  2  0  0  0  0
 24 26  1  0  0  0  0
 25 20  2  0  0  0  0
 26 17  2  0  0  0  0
 27 21  1  0  0  0  0
 27 25  1  0  0  0  0
M  END
>  <MODEL>
6

>  <REMARK>
 VINA RESULT:      -7.3      2.778      7.753
  Name = 
  1 active torsions:
  status: ('A' for Active; 'I' for Inactive)
    1  A    between atoms: C_5  and  N_23
                            x       y       z     vdW  Elec       q    Type
                         _______ _______ _______ _____ _____    ______ ____

>  <TORSDO>
F 1

$$$$
=
 OpenBabel10232411333D

 27 32  0  0  1  0  0  0  0  0999 V2000
  190.6810  177.7350  144.0130 C   0  0  0  0  0  0  0  0  0  0  0  0
  186.3550  178.6140  142.3640 C   0  0  1  0  0  0  0  0  0  0  0  0
  185.6020  177.7230  143.3460 C   0  0  0  0  0  2  0  0  0  0  0  0
  185.8820  179.8900  142.1540 C   0  0  0  0  0  2  0  0  0  0  0  0
  188.1260  175.9110  143.3920 C   0  0  0  0  0  1  0  0  0  0  0  0
  188.6030  178.4010  143.2740 N   0  0  1  0  0  0  0  0  0  0  0  0
  187.8160  178.3370  142.0460 C   0  0  0  0  0  2  0  0  0  0  0  0
  188.4750  177.2010  144.1460 C   0  0  1  0  0  0  0  0  0  0  0  0
  187.4440  177.4670  145.2460 C   0  0  0  0  0  2  0  0  0  0  0  0
  190.0260  178.5200  142.9530 C   0  0  0  0  0  2  0  0  0  0  0  0
  189.7520  177.0160  144.7280 O   0  0  0  0  0  0  0  0  0  0  0  0
  186.0820  177.9090  144.7600 C   0  0  0  0  0  0  0  0  0  0  0  0
  185.5650  178.8470  141.1270 N   0  0  0  0  0  0  0  0  0  0  0  0
  185.2330  178.4130  145.6500 C   0  0  0  0  0  2  0  0  0  0  0  0
  191.9820  177.7100  144.2550 C   0  0  0  0  0  2  0  0  0  0  0  0
  181.2100  177.5810  139.9100 C   0  0  0  0  0  3  0  0  0  0  0  0
  183.5400  177.6940  138.3460 C   0  0  1  0  0  3  0  0  0  0  0  0
  183.6380  178.0560  139.6850 C   0  0  0  0  0  0  0  0  0  0  0  0
  184.9730  178.4070  139.9110 C   0  0  0  0  0  0  0  0  0  0  0  0
  186.8450  178.3980  138.2500 N   0  0  0  0  0  0  0  0  0  0  0  0
  185.4030  177.6680  136.6260 C   0  0  0  0  0  3  0  0  0  0  0  0
  182.4700  178.0380  140.6260 C   0  0  0  0  0  3  0  0  0  0  0  0
  186.7250  178.0380  136.9360 C   0  0  0  0  0  3  0  0  0  0  0  0
  181.1860  177.2440  138.6050 C   0  0  0  0  0  3  0  0  0  0  0  0
  185.5920  178.2330  138.6920 C   0  0  0  0  0  0  0  0  0  0  0  0
  182.4080  177.3000  137.7690 C   0  0  0  0  0  3  0  0  0  0  0  0
  184.7500  177.8170  137.7810 N   0  0  0  0  0  0  0  0  0  0  0  0
  1 15  2  0  0  0  0
  1 11  1  0  0  0  0
  2  7  1  6  0  0  0
  2  3  1  0  0  0  0
  3 12  1  0  0  0  0
  4  2  1  0  0  0  0
  6  7  1  6  0  0  0
  6  8  1  0  0  0  0
  8  5  1  6  0  0  0
  8 11  1  0  0  0  0
  8  9  1  0  0  0  0
 10  6  1  0  0  0  0
 10  1  1  0  0  0  0
 12  9  1  0  0  0  0
 12 14  2  0  0  0  0
 13  4  1  0  0  0  0
 13  2  1  0  0  0  0
 16 22  2  0  0  0  0
 17 26  1  6  0  0  0
 17 18  1  0  0  0  0
 18 19  2  0  0  0  0
 18 22  1  0  0  0  0
 19 13  1  0  0  0  0
 20 25  2  0  0  0  0
 21 23  2  0  0  0  0
 21 27  1  0  0  0  0
 23 20  1  0  0  0  0
 24 16  1  0  0  0  0
 25 19  1  0  0  0  0
 26 24  2  0  0  0  0
 27 17  1  0  0  0  0
 27 25  1  0  0  0  0
M  END
>  <MODEL>
7

>  <REMARK>
 VINA RESULT:      -7.3      2.773      7.329
  Name = 
  1 active torsions:
  status: ('A' for Active; 'I' for Inactive)
    1  A    between atoms: C_5  and  N_23
                            x       y       z     vdW  Elec       q    Type
                         _______ _______ _______ _____ _____    ______ ____

>  <TORSDO>
F 1

$$$$
=
 OpenBabel10232411333D

 27 32  0  0  1  0  0  0  0  0999 V2000
  190.6190  177.5630  143.2800 C   0  0  0  0  0  0  0  0  0  0  0  0
  186.0640  178.6200  142.6940 C   0  0  1  0  0  0  0  0  0  0  0  0
  185.5330  177.7850  143.8550 C   0  0  0  0  0  2  0  0  0  0  0  0
  185.6090  179.9130  142.5660 C   0  0  0  0  0  2  0  0  0  0  0  0
  187.9140  175.8540  143.3470 C   0  0  0  0  0  1  0  0  0  0  0  0
  188.4540  178.3160  143.0420 N   0  0  1  0  0  0  0  0  0  0  0  0
  187.3910  178.2660  142.0420 C   0  0  0  0  0  2  0  0  0  0  0  0
  188.4890  177.1400  143.9560 C   0  0  1  0  0  0  0  0  0  0  0  0
  187.7670  177.4770  145.2620 C   0  0  0  0  0  2  0  0  0  0  0  0
  189.7600  178.3580  142.3850 C   0  0  0  0  0  2  0  0  0  0  0  0
  189.8600  176.9040  144.2180 O   0  0  0  0  0  0  0  0  0  0  0  0
  186.3480  177.9760  145.1060 C   0  0  0  0  0  0  0  0  0  0  0  0
  185.0080  178.8670  141.6770 N   0  0  0  0  0  0  0  0  0  0  0  0
  185.7620  178.5380  146.1580 C   0  0  0  0  0  2  0  0  0  0  0  0
  191.9370  177.4800  143.2020 C   0  0  0  0  0  2  0  0  0  0  0  0
  185.5980  177.6240  137.1880 C   0  0  0  0  0  3  0  0  0  0  0  0
  183.2440  177.7290  138.7180 C   0  0  0  0  0  0  0  0  0  0  0  0
  184.4380  178.0890  139.3350 C   0  0  0  0  0  0  0  0  0  0  0  0
  184.1220  178.4330  140.6530 C   0  0  0  0  0  0  0  0  0  0  0  0
  181.8600  178.4140  141.7250 N   0  0  0  0  0  0  0  0  0  0  0  0
  180.9320  177.6940  139.7580 C   0  0  0  0  0  3  0  0  0  0  0  0
  185.7610  178.0760  138.6290 C   0  0  0  0  0  2  0  0  0  0  0  0
  180.6990  178.0550  141.0980 C   0  0  0  0  0  3  0  0  0  0  0  0
  184.4070  177.2890  136.6520 C   0  0  0  0  0  3  0  0  0  0  0  0
  182.7580  178.2570  140.7430 C   0  0  0  0  0  0  0  0  0  0  0  0
  183.1590  177.3400  137.4490 C   0  0  0  0  0  3  0  0  0  0  0  0
  182.2500  177.8460  139.6100 N   0  0  0  0  0  0  0  0  0  0  0  0
  1 11  1  0  0  0  0
  2  7  1  6  0  0  0
  2  3  1  0  0  0  0
  3 12  1  0  0  0  0
  4  2  1  0  0  0  0
  6  7  1  6  0  0  0
  6  8  1  0  0  0  0
  8  5  1  6  0  0  0
  8 11  1  0  0  0  0
  8  9  1  0  0  0  0
 10  6  1  0  0  0  0
 10  1  1  0  0  0  0
 12  9  1  0  0  0  0
 12 14  2  0  0  0  0
 13  4  1  0  0  0  0
 13  2  1  0  0  0  0
 15  1  2  0  0  0  0
 16 22  1  0  0  0  0
 17 18  1  0  0  0  0
 17 27  1  0  0  0  0
 18 19  2  0  0  0  0
 19 25  1  0  0  0  0
 19 13  1  0  0  0  0
 21 23  2  0  0  0  0
 22 18  1  0  0  0  0
 23 20  1  0  0  0  0
 24 16  2  0  0  0  0
 24 26  1  0  0  0  0
 25 20  2  0  0  0  0
 26 17  2  0  0  0  0
 27 21  1  0  0  0  0
 27 25  1  0  0  0  0
M  END
>  <MODEL>
8

>  <REMARK>
 VINA RESULT:      -7.1      2.740      7.638
  Name = 
  1 active torsions:
  status: ('A' for Active; 'I' for Inactive)
    1  A    between atoms: C_5  and  N_23
                            x       y       z     vdW  Elec       q    Type
                         _______ _______ _______ _____ _____    ______ ____

>  <TORSDO>
F 1

$$$$
=
 OpenBabel10232411333D

 27 32  0  0  1  0  0  0  0  0999 V2000
  187.4010  177.7830  135.5730 C   0  0  0  0  0  0  0  0  0  0  0  0
  188.6090  178.0510  140.1200 C   0  0  1  0  0  0  0  0  0  0  0  0
  189.3820  176.7390  140.1800 C   0  0  0  0  0  2  0  0  0  0  0  0
  189.1900  179.1710  140.6720 C   0  0  0  0  0  2  0  0  0  0  0  0
  187.4500  175.6830  137.9870 C   0  0  0  0  0  1  0  0  0  0  0  0
  188.1190  178.1190  137.7360 N   0  0  1  0  0  0  0  0  0  0  0  0
  187.5320  178.2570  139.0650 C   0  0  0  0  0  2  0  0  0  0  0  0
  188.3770  176.7110  137.3240 C   0  0  1  0  0  0  0  0  0  0  0  0
  189.8410  176.3530  137.5900 C   0  0  0  0  0  2  0  0  0  0  0  0
  187.2170  178.6780  136.7280 C   0  0  0  0  0  2  0  0  0  0  0  0
  188.1230  176.6700  135.9320 O   0  0  0  0  0  0  0  0  0  0  0  0
  190.3140  176.5780  139.0090 C   0  0  0  0  0  0  0  0  0  0  0  0
  188.1350  178.4640  141.4670 N   0  0  0  0  0  0  0  0  0  0  0  0
  191.6210  176.5500  139.2450 C   0  0  0  0  0  2  0  0  0  0  0  0
  186.9370  178.0020  134.3530 C   0  0  0  0  0  2  0  0  0  0  0  0
  188.9860  177.2920  145.9330 C   0  0  0  0  0  3  0  0  0  0  0  0
  186.5490  177.9140  144.6830 C   0  0  0  0  0  0  0  0  0  0  0  0
  187.7030  177.9430  143.9080 C   0  0  0  0  0  0  0  0  0  0  0  0
  187.3100  178.3020  142.6150 C   0  0  0  0  0  0  0  0  0  0  0  0
  184.9920  178.8030  141.8170 N   0  0  0  0  0  0  0  0  0  0  0  0
  184.1810  178.4120  143.9240 C   0  0  0  0  0  3  0  0  0  0  0  0
  189.0640  177.6310  144.4550 C   0  0  0  0  0  2  0  0  0  0  0  0
  183.8700  178.7690  142.5990 C   0  0  0  0  0  3  0  0  0  0  0  0
  187.8290  177.2830  146.6260 C   0  0  0  0  0  3  0  0  0  0  0  0
  185.9450  178.4660  142.6960 C   0  0  0  0  0  0  0  0  0  0  0  0
  186.5380  177.6100  145.9780 C   0  0  0  0  0  3  0  0  0  0  0  0
  185.5050  178.2380  143.9070 N   0  0  0  0  0  0  0  0  0  0  0  0
  1 11  1  0  0  0  0
  1 10  1  0  0  0  0
  2  7  1  6  0  0  0
  2  3  1  0  0  0  0
  2  4  1  0  0  0  0
  2 13  1  0  0  0  0
  4 13  1  0  0  0  0
  6 10  1  6  0  0  0
  6  7  1  0  0  0  0
  8  9  1  0  0  0  0
  8  6  1  0  0  0  0
  8  5  1  1  0  0  0
  9 12  1  0  0  0  0
 11  8  1  0  0  0  0
 12 14  2  0  0  0  0
 12  3  1  0  0  0  0
 13 19  1  0  0  0  0
 15  1  2  0  0  0  0
 16 24  2  0  0  0  0
 17 26  2  0  0  0  0
 18 22  1  0  0  0  0
 18 17  1  0  0  0  0
 19 25  1  0  0  0  0
 19 18  2  0  0  0  0
 20 23  1  0  0  0  0
 20 25  2  0  0  0  0
 22 16  1  0  0  0  0
 23 21  2  0  0  0  0
 25 27  1  0  0  0  0
 26 24  1  0  0  0  0
 27 21  1  0  0  0  0
 27 17  1  0  0  0  0
M  END
>  <MODEL>
9

>  <REMARK>
 VINA RESULT:      -7.1      3.524      5.543
  Name = 
  1 active torsions:
  status: ('A' for Active; 'I' for Inactive)
    1  A    between atoms: C_5  and  N_23
                            x       y       z     vdW  Elec       q    Type
                         _______ _______ _______ _____ _____    ______ ____

>  <TORSDO>
F 1

$$$$
