=
 OpenBabel10232412263D

 38 40  0  0  1  0  0  0  0  0999 V2000
  188.3400  177.7880  142.7810 C   0  0  0  0  0  0  0  0  0  0  0  0
  187.8240  177.6730  145.1700 C   0  0  0  0  0  0  0  0  0  0  0  0
  187.2530  177.0310  147.4600 O   0  0  0  0  0  1  0  0  0  0  0  0
  190.1350  177.7480  144.4040 C   0  0  0  0  0  3  0  0  0  0  0  0
  184.9710  178.5420  144.1590 C   0  0  0  0  0  0  0  0  0  0  0  0
  189.7770  177.7270  146.8330 C   0  0  0  0  0  1  0  0  0  0  0  0
  186.7680  177.4970  146.2380 C   0  0  1  0  0  3  0  0  0  0  0  0
  189.7050  177.7640  143.0820 C   0  0  0  0  0  3  0  0  0  0  0  0
  185.9520  177.9440  143.4570 C   0  0  0  0  0  3  0  0  0  0  0  0
  187.3860  177.7910  143.8260 C   0  0  0  0  0  0  0  0  0  0  0  0
  189.2160  177.7090  145.4500 C   0  0  0  0  0  0  0  0  0  0  0  0
  185.1650  179.1880  145.4720 C   0  0  0  0  0  3  0  0  0  0  0  0
  185.9890  178.7480  146.4190 C   0  0  0  0  0  3  0  0  0  0  0  0
  183.3770  178.6300  142.2680 C   0  0  0  0  0  3  0  0  0  0  0  0
  183.6270  178.6790  143.5790 C   0  0  0  0  0  3  0  0  0  0  0  0
  181.1570  179.3600  142.4010 O   0  0  0  0  0  0  0  0  0  0  0  0
  182.0210  178.7610  141.7050 C   0  0  0  0  0  0  0  0  0  0  0  0
  181.8220  178.2000  137.8720 C   0  0  0  0  0  1  0  0  0  0  0  0
  182.0890  178.8660  139.1430 N   0  0  0  0  0  0  0  0  0  0  0  0
  181.6530  178.2380  140.3620 C   0  0  0  0  0  0  0  0  0  0  0  0
  180.9470  177.1930  140.2900 O   0  0  0  0  0  0  0  0  0  0  0  0
  182.7010  180.1970  139.1510 C   0  0  0  0  0  2  0  0  0  0  0  0
  184.0940  180.1210  139.1140 O   0  0  0  0  0  1  0  0  0  0  0  0
  187.9050  177.7760  141.3390 C   0  0  1  0  0  3  0  0  0  0  0  0
  186.7920  178.7790  141.0770 C   0  0  0  0  0  1  0  0  0  0  0  0
  189.0410  178.0650  140.4760 N   0  0  0  0  0  2  0  0  0  0  0  0
  190.6400  176.4400  139.6220 C   0  0  0  0  0  1  0  0  0  0  0  0
  189.2080  176.9470  139.5590 C   0  0  2  0  0  3  0  0  0  0  0  0
  187.0280  178.6120  137.6220 N   0  0  0  0  0  2  0  0  0  0  0  0
  189.0950  179.4760  137.1020 C   0  0  0  0  0  1  0  0  0  0  0  0
  188.3420  178.7450  138.1070 N   0  0  0  0  0  0  0  0  0  0  0  0
  187.8680  175.0330  137.3810 C   0  0  0  0  0  1  0  0  0  0  0  0
  188.8610  177.3660  138.1310 C   0  0  2  0  0  3  0  0  0  0  0  0
  186.7190  177.2670  137.3260 C   0  0  0  0  0  0  0  0  0  0  0  0
  187.7630  176.5070  137.5860 C   0  0  0  0  0  0  0  0  0  0  0  0
  184.6020  176.2470  137.6060 O   0  0  0  0  0  0  0  0  0  0  0  0
  185.0010  177.0860  135.4860 N   0  0  0  0  0  1  0  0  0  0  0  0
  185.3950  176.8460  136.8310 C   0  0  0  0  0  0  0  0  0  0  0  0
  1  8  2  0  0  0  0
  1 10  1  0  0  0  0
  2 11  1  0  0  0  0
  2  7  1  0  0  0  0
  4 11  2  0  0  0  0
  5 12  1  0  0  0  0
  7 13  1  0  0  0  0
  7  3  1  1  0  0  0
  8  4  1  0  0  0  0
  9 10  1  0  0  0  0
  9  5  2  0  0  0  0
 10  2  2  0  0  0  0
 11  6  1  0  0  0  0
 12 13  2  0  0  0  0
 14 15  2  0  0  0  0
 15  5  1  0  0  0  0
 17 14  1  0  0  0  0
 17 16  2  0  0  0  0
 18 19  1  0  0  0  0
 19 22  1  0  0  0  0
 19 20  1  0  0  0  0
 20 17  1  0  0  0  0
 21 20  2  0  0  0  0
 23 22  1  0  0  0  0
 24 25  1  1  0  0  0
 24  1  1  0  0  0  0
 26 24  1  0  0  0  0
 28 27  1  6  0  0  0
 28 26  1  0  0  0  0
 29 31  1  0  0  0  0
 30 31  1  0  0  0  0
 31 33  1  0  0  0  0
 32 35  1  0  0  0  0
 33 28  1  1  0  0  0
 34 35  2  0  0  0  0
 34 29  1  0  0  0  0
 35 33  1  0  0  0  0
 37 38  1  0  0  0  0
 38 34  1  0  0  0  0
 38 36  2  0  0  0  0
M  END
>  <MODEL>
1

>  <REMARK>
 VINA RESULT:      -9.2      0.000      0.000
  Name = 
  9 active torsions:
  status: ('A' for Active; 'I' for Inactive)
    1  A    between atoms: C_2  and  C_26
    2  A    between atoms: C_3  and  C_4
    3  A    between atoms: C_3  and  N_34
    4  A    between atoms: C_7  and  N_11
    5  A    between atoms: C_19  and  C_20
    6  A    between atoms: C_21  and  C_26
    7  A    between atoms: C_23  and  C_37
    8  A    between atoms: N_34  and  C_37
    9  A    between atoms: C_35  and  C_36
                            x       y       z     vdW  Elec       q    Type
                         _______ _______ _______ _____ _____    ______ ____

>  <TORSDO>
F 9

$$$$
=
 OpenBabel10232412263D

 38 40  0  0  1  0  0  0  0  0999 V2000
  185.1730  178.6360  144.4100 C   0  0  0  0  0  0  0  0  0  0  0  0
  183.7910  178.3350  142.4130 C   0  0  0  0  0  0  0  0  0  0  0  0
  182.4520  177.5120  140.5400 O   0  0  0  0  0  1  0  0  0  0  0  0
  182.7740  178.9270  144.5460 C   0  0  0  0  0  3  0  0  0  0  0  0
  186.5750  178.6070  140.9680 C   0  0  0  0  0  0  0  0  0  0  0  0
  181.2680  178.7520  142.6150 C   0  0  0  0  0  1  0  0  0  0  0  0
  183.7220  177.9040  140.9650 C   0  0  1  0  0  3  0  0  0  0  0  0
  184.0210  178.8940  145.1600 C   0  0  0  0  0  3  0  0  0  0  0  0
  186.3360  178.2550  142.2460 C   0  0  0  0  0  3  0  0  0  0  0  0
  185.0720  178.4010  143.0180 C   0  0  0  0  0  0  0  0  0  0  0  0
  182.6430  178.6600  143.1850 C   0  0  0  0  0  0  0  0  0  0  0  0
  185.5790  179.2360  140.0800 C   0  0  0  0  0  3  0  0  0  0  0  0
  184.2790  178.9520  140.0760 C   0  0  0  0  0  3  0  0  0  0  0  0
  188.5990  177.3180  140.3590 C   0  0  0  0  0  3  0  0  0  0  0  0
  187.9280  178.4720  140.4070 C   0  0  0  0  0  3  0  0  0  0  0  0
  190.9030  177.7190  140.4280 O   0  0  0  0  0  0  0  0  0  0  0  0
  189.9520  177.2000  139.7850 C   0  0  0  0  0  0  0  0  0  0  0  0
  190.4700  176.3960  136.0270 C   0  0  0  0  0  1  0  0  0  0  0  0
  190.0250  177.1030  137.2230 N   0  0  0  0  0  0  0  0  0  0  0  0
  190.2260  176.4880  138.5090 C   0  0  0  0  0  0  0  0  0  0  0  0
  190.6690  175.3060  138.5550 O   0  0  0  0  0  0  0  0  0  0  0  0
  189.2980  178.3680  137.0920 C   0  0  0  0  0  2  0  0  0  0  0  0
  187.9390  178.1550  136.8530 O   0  0  0  0  0  1  0  0  0  0  0  0
  186.5060  178.5780  145.1080 C   0  0  1  0  0  3  0  0  0  0  0  0
  186.3860  178.9200  146.5850 C   0  0  0  0  0  1  0  0  0  0  0  0
  187.0880  177.2520  144.9560 N   0  0  0  0  0  2  0  0  0  0  0  0
  188.7210  175.9930  143.6600 C   0  0  0  0  0  1  0  0  0  0  0  0
  188.2730  177.3730  144.1170 C   0  0  2  0  0  3  0  0  0  0  0  0
  191.5890  177.5000  144.6260 N   0  0  0  0  0  2  0  0  0  0  0  0
  190.9670  179.6510  144.1010 C   0  0  0  0  0  1  0  0  0  0  0  0
  190.5750  178.2540  144.0090 N   0  0  0  0  0  0  0  0  0  0  0  0
  189.0180  176.8050  147.1710 C   0  0  0  0  0  1  0  0  0  0  0  0
  189.4010  178.0660  144.8790 C   0  0  2  0  0  3  0  0  0  0  0  0
  191.1310  176.8920  145.8150 C   0  0  0  0  0  0  0  0  0  0  0  0
  189.8680  177.2110  146.0150 C   0  0  0  0  0  0  0  0  0  0  0  0
  192.3520  174.9010  146.1930 O   0  0  0  0  0  0  0  0  0  0  0  0
  192.3890  176.4090  147.9480 N   0  0  0  0  0  1  0  0  0  0  0  0
  191.9850  176.0200  146.6420 C   0  0  0  0  0  0  0  0  0  0  0  0
  1 24  1  0  0  0  0
  1  8  1  0  0  0  0
  2 10  1  0  0  0  0
  2 11  2  0  0  0  0
  4  8  2  0  0  0  0
  5  9  2  0  0  0  0
  6 11  1  0  0  0  0
  7  3  1  6  0  0  0
  7  2  1  0  0  0  0
  9 10  1  0  0  0  0
 10  1  2  0  0  0  0
 11  4  1  0  0  0  0
 12  5  1  0  0  0  0
 13 12  2  0  0  0  0
 13  7  1  0  0  0  0
 14 15  2  0  0  0  0
 15  5  1  0  0  0  0
 17 14  1  0  0  0  0
 17 16  2  0  0  0  0
 18 19  1  0  0  0  0
 19 20  1  0  0  0  0
 20 21  2  0  0  0  0
 20 17  1  0  0  0  0
 22 19  1  0  0  0  0
 23 22  1  0  0  0  0
 24 25  1  1  0  0  0
 26 24  1  0  0  0  0
 28 27  1  1  0  0  0
 28 26  1  0  0  0  0
 29 34  1  0  0  0  0
 31 30  1  0  0  0  0
 31 29  1  0  0  0  0
 31 33  1  0  0  0  0
 33 28  1  6  0  0  0
 33 35  1  0  0  0  0
 34 35  2  0  0  0  0
 34 38  1  0  0  0  0
 35 32  1  0  0  0  0
 36 38  2  0  0  0  0
 38 37  1  0  0  0  0
M  END
>  <MODEL>
2

>  <REMARK>
 VINA RESULT:      -9.1      2.978      7.593
  Name = 
  9 active torsions:
  status: ('A' for Active; 'I' for Inactive)
    1  A    between atoms: C_2  and  C_26
    2  A    between atoms: C_3  and  C_4
    3  A    between atoms: C_3  and  N_34
    4  A    between atoms: C_7  and  N_11
    5  A    between atoms: C_19  and  C_20
    6  A    between atoms: C_21  and  C_26
    7  A    between atoms: C_23  and  C_37
    8  A    between atoms: N_34  and  C_37
    9  A    between atoms: C_35  and  C_36
                            x       y       z     vdW  Elec       q    Type
                         _______ _______ _______ _____ _____    ______ ____

>  <TORSDO>
F 9

$$$$
=
 OpenBabel10232412263D

 38 40  0  0  1  0  0  0  0  0999 V2000
  185.1210  178.2690  142.8130 C   0  0  0  0  0  0  0  0  0  0  0  0
  182.7830  178.5190  142.1360 C   0  0  0  0  0  0  0  0  0  0  0  0
  180.4330  178.2350  141.5220 O   0  0  0  0  0  1  0  0  0  0  0  0
  183.4590  178.9480  144.4360 C   0  0  0  0  0  3  0  0  0  0  0  0
  184.0630  178.5200  139.2580 C   0  0  0  0  0  0  0  0  0  0  0  0
  181.0970  179.3310  143.8900 C   0  0  0  0  0  1  0  0  0  0  0  0
  181.7440  178.3310  141.0540 C   0  0  1  0  0  3  0  0  0  0  0  0
  184.7710  178.6060  144.1240 C   0  0  0  0  0  3  0  0  0  0  0  0
  184.5860  178.0250  140.3970 C   0  0  0  0  0  3  0  0  0  0  0  0
  184.1380  178.2690  141.7960 C   0  0  0  0  0  0  0  0  0  0  0  0
  182.4640  178.9160  143.4610 C   0  0  0  0  0  0  0  0  0  0  0  0
  182.9110  179.4400  139.2050 C   0  0  0  0  0  3  0  0  0  0  0  0
  181.8610  179.3900  140.0210 C   0  0  0  0  0  3  0  0  0  0  0  0
  185.8990  177.6430  137.8490 C   0  0  0  0  0  3  0  0  0  0  0  0
  184.7100  178.2390  137.9680 C   0  0  0  0  0  3  0  0  0  0  0  0
  185.8680  177.6390  135.5090 O   0  0  0  0  0  0  0  0  0  0  0  0
  186.5280  177.3620  136.5460 C   0  0  0  0  0  0  0  0  0  0  0  0
  190.3630  176.8360  136.7950 C   0  0  0  0  0  1  0  0  0  0  0  0
  189.0760  177.5240  136.7980 N   0  0  0  0  0  0  0  0  0  0  0  0
  187.8960  176.7910  136.4190 C   0  0  0  0  0  0  0  0  0  0  0  0
  188.0260  175.6140  135.9800 O   0  0  0  0  0  0  0  0  0  0  0  0
  189.0200  178.9590  137.0850 C   0  0  0  0  0  2  0  0  0  0  0  0
  189.0180  179.2070  138.4590 O   0  0  0  0  0  1  0  0  0  0  0  0
  186.5440  177.8750  142.5110 C   0  0  1  0  0  3  0  0  0  0  0  0
  187.2320  178.8900  141.6120 C   0  0  0  0  0  1  0  0  0  0  0  0
  187.2910  177.7290  143.7510 N   0  0  0  0  0  2  0  0  0  0  0  0
  189.0060  176.0330  143.4200 C   0  0  0  0  0  1  0  0  0  0  0  0
  188.6920  177.5210  143.4120 C   0  0  2  0  0  3  0  0  0  0  0  0
  191.8070  177.7680  144.6400 N   0  0  0  0  0  2  0  0  0  0  0  0
  191.2390  179.8960  143.9760 C   0  0  0  0  0  1  0  0  0  0  0  0
  190.9290  178.4860  143.8090 N   0  0  0  0  0  0  0  0  0  0  0  0
  188.7640  176.9770  146.5590 C   0  0  0  0  0  1  0  0  0  0  0  0
  189.5990  178.2540  144.3990 C   0  0  2  0  0  3  0  0  0  0  0  0
  191.1200  177.1430  145.7020 C   0  0  0  0  0  0  0  0  0  0  0  0
  189.8340  177.4150  145.6160 C   0  0  0  0  0  0  0  0  0  0  0  0
  192.1620  175.1340  146.3940 O   0  0  0  0  0  0  0  0  0  0  0  0
  192.0430  176.7750  148.0220 N   0  0  0  0  0  1  0  0  0  0  0  0
  191.8010  176.3010  146.7030 C   0  0  0  0  0  0  0  0  0  0  0  0
  1  8  1  0  0  0  0
  2 11  2  0  0  0  0
  5  9  2  0  0  0  0
  7  3  1  1  0  0  0
  7  2  1  0  0  0  0
  8  4  2  0  0  0  0
  9 10  1  0  0  0  0
 10  2  1  0  0  0  0
 10  1  2  0  0  0  0
 11  6  1  0  0  0  0
 11  4  1  0  0  0  0
 12  5  1  0  0  0  0
 12 13  2  0  0  0  0
 13  7  1  0  0  0  0
 14 15  2  0  0  0  0
 15  5  1  0  0  0  0
 16 17  2  0  0  0  0
 17 14  1  0  0  0  0
 18 19  1  0  0  0  0
 19 22  1  0  0  0  0
 20 17  1  0  0  0  0
 20 19  1  0  0  0  0
 21 20  2  0  0  0  0
 22 23  1  0  0  0  0
 24 25  1  6  0  0  0
 24  1  1  0  0  0  0
 24 26  1  0  0  0  0
 28 27  1  1  0  0  0
 28 26  1  0  0  0  0
 29 34  1  0  0  0  0
 31 30  1  0  0  0  0
 31 33  1  0  0  0  0
 31 29  1  0  0  0  0
 33 28  1  6  0  0  0
 33 35  1  0  0  0  0
 34 38  1  0  0  0  0
 35 34  2  0  0  0  0
 35 32  1  0  0  0  0
 36 38  2  0  0  0  0
 38 37  1  0  0  0  0
M  END
>  <MODEL>
3

>  <REMARK>
 VINA RESULT:      -8.6      2.633      7.331
  Name = 
  9 active torsions:
  status: ('A' for Active; 'I' for Inactive)
    1  A    between atoms: C_2  and  C_26
    2  A    between atoms: C_3  and  C_4
    3  A    between atoms: C_3  and  N_34
    4  A    between atoms: C_7  and  N_11
    5  A    between atoms: C_19  and  C_20
    6  A    between atoms: C_21  and  C_26
    7  A    between atoms: C_23  and  C_37
    8  A    between atoms: N_34  and  C_37
    9  A    between atoms: C_35  and  C_36
                            x       y       z     vdW  Elec       q    Type
                         _______ _______ _______ _____ _____    ______ ____

>  <TORSDO>
F 9

$$$$
=
 OpenBabel10232412263D

 38 40  0  0  1  0  0  0  0  0999 V2000
  188.8910  177.0850  144.8220 C   0  0  0  0  0  0  0  0  0  0  0  0
  186.9610  177.9000  146.0860 C   0  0  0  0  0  0  0  0  0  0  0  0
  184.9130  178.1920  147.3900 O   0  0  0  0  0  1  0  0  0  0  0  0
  189.1350  177.6660  147.1590 C   0  0  0  0  0  3  0  0  0  0  0  0
  185.7880  178.3230  143.1940 C   0  0  0  0  0  0  0  0  0  0  0  0
  187.3190  178.5840  148.5320 C   0  0  0  0  0  1  0  0  0  0  0  0
  185.4710  178.1540  146.1110 C   0  0  1  0  0  3  0  0  0  0  0  0
  189.6750  177.1730  145.9760 C   0  0  0  0  0  3  0  0  0  0  0  0
  186.7820  177.4970  143.5720 C   0  0  0  0  0  3  0  0  0  0  0  0
  187.5370  177.4940  144.8550 C   0  0  0  0  0  0  0  0  0  0  0  0
  187.7940  178.0370  147.2280 C   0  0  0  0  0  0  0  0  0  0  0  0
  185.2630  179.4240  144.0250 C   0  0  0  0  0  3  0  0  0  0  0  0
  185.1320  179.3800  145.3480 C   0  0  0  0  0  3  0  0  0  0  0  0
  185.0950  179.2760  141.0170 C   0  0  0  0  0  3  0  0  0  0  0  0
  185.2280  178.2310  141.8380 C   0  0  0  0  0  3  0  0  0  0  0  0
  184.1040  180.2160  139.1170 O   0  0  0  0  0  0  0  0  0  0  0  0
  184.5390  179.1630  139.6570 C   0  0  0  0  0  0  0  0  0  0  0  0
  183.3250  175.8340  138.0810 C   0  0  0  0  0  1  0  0  0  0  0  0
  183.3590  176.9930  138.9670 N   0  0  0  0  0  0  0  0  0  0  0  0
  184.4930  177.8780  138.9100 C   0  0  0  0  0  0  0  0  0  0  0  0
  185.4770  177.5610  138.1850 O   0  0  0  0  0  0  0  0  0  0  0  0
  182.2990  177.1790  139.9610 C   0  0  0  0  0  2  0  0  0  0  0  0
  181.1890  176.3810  139.6810 O   0  0  0  0  0  1  0  0  0  0  0  0
  189.4970  176.5200  143.5640 C   0  0  1  0  0  3  0  0  0  0  0  0
  188.6380  175.4140  142.9710 C   0  0  0  0  0  1  0  0  0  0  0  0
  189.6800  177.5790  142.5830 N   0  0  0  0  0  2  0  0  0  0  0  0
  192.0690  177.6930  142.1230 C   0  0  0  0  0  1  0  0  0  0  0  0
  190.7220  177.1610  141.6560 C   0  0  2  0  0  3  0  0  0  0  0  0
  189.0710  176.5390  138.7990 N   0  0  0  0  0  2  0  0  0  0  0  0
  188.4540  178.6680  139.4130 C   0  0  0  0  0  1  0  0  0  0  0  0
  189.0090  177.4150  139.8980 N   0  0  0  0  0  0  0  0  0  0  0  0
  192.7170  176.9100  139.1740 C   0  0  0  0  0  1  0  0  0  0  0  0
  190.4190  177.6630  140.2450 C   0  0  2  0  0  3  0  0  0  0  0  0
  190.4060  176.2570  138.4370 C   0  0  0  0  0  0  0  0  0  0  0  0
  191.2270  176.9060  139.2370 C   0  0  0  0  0  0  0  0  0  0  0  0
  191.2760  175.7990  136.2840 O   0  0  0  0  0  0  0  0  0  0  0  0
  190.4950  173.9450  137.4290 N   0  0  0  0  0  1  0  0  0  0  0  0
  190.7540  175.3400  137.3360 C   0  0  0  0  0  0  0  0  0  0  0  0
  1 10  2  0  0  0  0
  1  8  1  0  0  0  0
  2  7  1  0  0  0  0
  2 11  2  0  0  0  0
  4 11  1  0  0  0  0
  5  9  2  0  0  0  0
  5 12  1  0  0  0  0
  7  3  1  1  0  0  0
  8  4  2  0  0  0  0
  9 10  1  0  0  0  0
 10  2  1  0  0  0  0
 11  6  1  0  0  0  0
 12 13  2  0  0  0  0
 13  7  1  0  0  0  0
 14 15  2  0  0  0  0
 15  5  1  0  0  0  0
 16 17  2  0  0  0  0
 17 14  1  0  0  0  0
 18 19  1  0  0  0  0
 19 22  1  0  0  0  0
 20 19  1  0  0  0  0
 20 17  1  0  0  0  0
 21 20  2  0  0  0  0
 23 22  1  0  0  0  0
 24 25  1  6  0  0  0
 24  1  1  0  0  0  0
 26 24  1  0  0  0  0
 28 27  1  1  0  0  0
 28 26  1  0  0  0  0
 29 31  1  0  0  0  0
 30 31  1  0  0  0  0
 31 33  1  0  0  0  0
 32 35  1  0  0  0  0
 33 28  1  1  0  0  0
 34 29  1  0  0  0  0
 34 35  2  0  0  0  0
 35 33  1  0  0  0  0
 36 38  2  0  0  0  0
 38 37  1  0  0  0  0
 38 34  1  0  0  0  0
M  END
>  <MODEL>
4

>  <REMARK>
 VINA RESULT:      -8.4      2.160      3.399
  Name = 
  9 active torsions:
  status: ('A' for Active; 'I' for Inactive)
    1  A    between atoms: C_2  and  C_26
    2  A    between atoms: C_3  and  C_4
    3  A    between atoms: C_3  and  N_34
    4  A    between atoms: C_7  and  N_11
    5  A    between atoms: C_19  and  C_20
    6  A    between atoms: C_21  and  C_26
    7  A    between atoms: C_23  and  C_37
    8  A    between atoms: N_34  and  C_37
    9  A    between atoms: C_35  and  C_36
                            x       y       z     vdW  Elec       q    Type
                         _______ _______ _______ _____ _____    ______ ____

>  <TORSDO>
F 9

$$$$
=
 OpenBabel10232412263D

 38 40  0  0  1  0  0  0  0  0999 V2000
  185.2390  178.6970  143.7810 C   0  0  0  0  0  0  0  0  0  0  0  0
  187.2530  178.0930  145.0330 C   0  0  0  0  0  0  0  0  0  0  0  0
  189.3710  178.0160  146.2520 O   0  0  0  0  0  1  0  0  0  0  0  0
  185.1300  178.4160  146.1830 C   0  0  0  0  0  3  0  0  0  0  0  0
  188.2910  177.3270  142.1600 C   0  0  0  0  0  0  0  0  0  0  0  0
  187.0380  177.7220  147.5620 C   0  0  0  0  0  1  0  0  0  0  0  0
  188.7490  177.8780  145.0110 C   0  0  1  0  0  3  0  0  0  0  0  0
  184.5170  178.7410  144.9770 C   0  0  0  0  0  3  0  0  0  0  0  0
  187.2930  178.1730  142.4820 C   0  0  0  0  0  3  0  0  0  0  0  0
  186.6040  178.3250  143.7930 C   0  0  0  0  0  0  0  0  0  0  0  0
  186.4830  178.0860  146.2270 C   0  0  0  0  0  0  0  0  0  0  0  0
  188.8880  176.3540  143.0950 C   0  0  0  0  0  3  0  0  0  0  0  0
  189.0840  176.5710  144.3930 C   0  0  0  0  0  3  0  0  0  0  0  0
  188.7330  178.2800  139.9200 C   0  0  0  0  0  3  0  0  0  0  0  0
  188.7790  177.2560  140.7750 C   0  0  0  0  0  3  0  0  0  0  0  0
  188.9740  179.1520  137.7620 O   0  0  0  0  0  0  0  0  0  0  0  0
  189.2350  178.1930  138.5370 C   0  0  0  0  0  0  0  0  0  0  0  0
  190.3310  174.9480  136.7160 C   0  0  0  0  0  1  0  0  0  0  0  0
  189.4520  175.9530  137.3050 N   0  0  0  0  0  0  0  0  0  0  0  0
  190.0380  177.0430  138.0420 C   0  0  0  0  0  0  0  0  0  0  0  0
  191.2810  177.0310  138.2600 O   0  0  0  0  0  0  0  0  0  0  0  0
  187.9990  175.7860  137.2240 C   0  0  0  0  0  2  0  0  0  0  0  0
  187.5010  176.2170  135.9940 O   0  0  0  0  0  1  0  0  0  0  0  0
  184.5550  179.0810  142.4960 C   0  0  1  0  0  3  0  0  0  0  0  0
  185.5450  179.2270  141.3510 C   0  0  0  0  0  1  0  0  0  0  0  0
  183.5490  178.0870  142.1520 N   0  0  0  0  0  2  0  0  0  0  0  0
  181.2440  178.7130  142.6270 C   0  0  0  0  0  1  0  0  0  0  0  0
  182.3860  178.7850  141.6240 C   0  0  2  0  0  3  0  0  0  0  0  0
  183.0830  176.4760  139.2870 N   0  0  0  0  0  2  0  0  0  0  0  0
  180.8890  176.1120  139.8740 C   0  0  0  0  0  1  0  0  0  0  0  0
  182.1390  176.7140  140.3030 N   0  0  0  0  0  0  0  0  0  0  0  0
  182.8990  180.1190  138.7670 C   0  0  0  0  0  1  0  0  0  0  0  0
  181.9530  178.1750  140.2910 C   0  0  2  0  0  3  0  0  0  0  0  0
  183.4610  177.6730  138.6420 C   0  0  0  0  0  0  0  0  0  0  0  0
  182.8140  178.6870  139.1780 C   0  0  0  0  0  0  0  0  0  0  0  0
  185.5870  178.2380  137.7680 O   0  0  0  0  0  0  0  0  0  0  0  0
  184.1740  177.1770  136.2730 N   0  0  0  0  0  1  0  0  0  0  0  0
  184.4620  177.7100  137.5590 C   0  0  0  0  0  0  0  0  0  0  0  0
  1 10  2  0  0  0  0
  1  8  1  0  0  0  0
  2 11  2  0  0  0  0
  4 11  1  0  0  0  0
  5  9  2  0  0  0  0
  5 12  1  0  0  0  0
  7  2  1  0  0  0  0
  7  3  1  1  0  0  0
  8  4  2  0  0  0  0
  9 10  1  0  0  0  0
 10  2  1  0  0  0  0
 11  6  1  0  0  0  0
 12 13  2  0  0  0  0
 13  7  1  0  0  0  0
 14 15  2  0  0  0  0
 15  5  1  0  0  0  0
 16 17  2  0  0  0  0
 17 14  1  0  0  0  0
 18 19  1  0  0  0  0
 19 20  1  0  0  0  0
 20 21  2  0  0  0  0
 20 17  1  0  0  0  0
 22 19  1  0  0  0  0
 23 22  1  0  0  0  0
 24 25  1  6  0  0  0
 24  1  1  0  0  0  0
 26 24  1  0  0  0  0
 28 26  1  0  0  0  0
 28 27  1  1  0  0  0
 29 31  1  0  0  0  0
 30 31  1  0  0  0  0
 32 35  1  0  0  0  0
 33 31  1  0  0  0  0
 33 28  1  1  0  0  0
 34 35  2  0  0  0  0
 34 29  1  0  0  0  0
 35 33  1  0  0  0  0
 37 38  1  0  0  0  0
 38 36  2  0  0  0  0
 38 34  1  0  0  0  0
M  END
>  <MODEL>
5

>  <REMARK>
 VINA RESULT:      -8.3      2.152      5.915
  Name = 
  9 active torsions:
  status: ('A' for Active; 'I' for Inactive)
    1  A    between atoms: C_2  and  C_26
    2  A    between atoms: C_3  and  C_4
    3  A    between atoms: C_3  and  N_34
    4  A    between atoms: C_7  and  N_11
    5  A    between atoms: C_19  and  C_20
    6  A    between atoms: C_21  and  C_26
    7  A    between atoms: C_23  and  C_37
    8  A    between atoms: N_34  and  C_37
    9  A    between atoms: C_35  and  C_36
                            x       y       z     vdW  Elec       q    Type
                         _______ _______ _______ _____ _____    ______ ____

>  <TORSDO>
F 9

$$$$
=
 OpenBabel10232412263D

 38 40  0  0  1  0  0  0  0  0999 V2000
  185.4130  178.7730  144.3300 C   0  0  0  0  0  0  0  0  0  0  0  0
  187.5160  178.0690  145.3650 C   0  0  0  0  0  0  0  0  0  0  0  0
  189.7360  177.8900  146.3740 O   0  0  0  0  0  1  0  0  0  0  0  0
  185.5210  178.4050  146.7200 C   0  0  0  0  0  3  0  0  0  0  0  0
  188.2570  177.3840  142.3810 C   0  0  0  0  0  0  0  0  0  0  0  0
  187.5290  177.6090  147.8880 C   0  0  0  0  0  1  0  0  0  0  0  0
  188.9970  177.8150  145.1930 C   0  0  1  0  0  3  0  0  0  0  0  0
  184.8080  178.7910  145.5900 C   0  0  0  0  0  3  0  0  0  0  0  0
  187.3200  178.2430  142.8250 C   0  0  0  0  0  3  0  0  0  0  0  0
  186.7620  178.3650  144.2000 C   0  0  0  0  0  0  0  0  0  0  0  0
  186.8610  178.0380  146.6240 C   0  0  0  0  0  0  0  0  0  0  0  0
  188.9100  176.3610  143.2210 C   0  0  0  0  0  3  0  0  0  0  0  0
  189.2340  176.5240  144.5010 C   0  0  0  0  0  3  0  0  0  0  0  0
  188.0500  178.1400  140.0330 C   0  0  0  0  0  3  0  0  0  0  0  0
  188.6110  177.3530  140.9540 C   0  0  0  0  0  3  0  0  0  0  0  0
  188.9840  179.1200  138.1250 O   0  0  0  0  0  0  0  0  0  0  0  0
  188.4230  178.1000  138.6080 C   0  0  0  0  0  0  0  0  0  0  0  0
  188.7690  174.6540  136.8620 C   0  0  0  0  0  1  0  0  0  0  0  0
  189.1470  175.8570  137.5950 N   0  0  0  0  0  0  0  0  0  0  0  0
  188.1800  176.9130  137.7450 C   0  0  0  0  0  0  0  0  0  0  0  0
  187.0780  176.8190  137.1360 O   0  0  0  0  0  0  0  0  0  0  0  0
  190.5220  176.0130  138.0760 C   0  0  0  0  0  2  0  0  0  0  0  0
  191.1940  174.7900  138.1130 O   0  0  0  0  0  1  0  0  0  0  0  0
  184.6240  179.2240  143.1290 C   0  0  1  0  0  3  0  0  0  0  0  0
  185.5260  179.5380  141.9460 C   0  0  0  0  0  1  0  0  0  0  0  0
  183.6610  178.1980  142.7550 N   0  0  0  0  0  2  0  0  0  0  0  0
  181.4420  178.5730  143.6850 C   0  0  0  0  0  1  0  0  0  0  0  0
  182.3790  178.8460  142.5190 C   0  0  2  0  0  3  0  0  0  0  0  0
  182.7400  178.6370  139.1870 N   0  0  0  0  0  2  0  0  0  0  0  0
  182.3560  176.4840  139.8990 C   0  0  0  0  0  1  0  0  0  0  0  0
  182.7920  177.8040  140.3200 N   0  0  0  0  0  0  0  0  0  0  0  0
  179.9820  180.2930  140.9820 C   0  0  0  0  0  1  0  0  0  0  0  0
  181.7560  178.3460  141.2160 C   0  0  2  0  0  3  0  0  0  0  0  0
  181.7380  179.6220  139.3140 C   0  0  0  0  0  0  0  0  0  0  0  0
  181.1230  179.4790  140.4710 C   0  0  0  0  0  0  0  0  0  0  0  0
  181.8840  181.8280  138.4680 O   0  0  0  0  0  0  0  0  0  0  0  0
  180.8030  180.3260  137.0780 N   0  0  0  0  0  1  0  0  0  0  0  0
  181.4920  180.6450  138.2800 C   0  0  0  0  0  0  0  0  0  0  0  0
  1  8  1  0  0  0  0
  2 11  2  0  0  0  0
  5  9  2  0  0  0  0
  5 12  1  0  0  0  0
  7  2  1  0  0  0  0
  7  3  1  1  0  0  0
  8  4  2  0  0  0  0
  9 10  1  0  0  0  0
 10  1  2  0  0  0  0
 10  2  1  0  0  0  0
 11  4  1  0  0  0  0
 11  6  1  0  0  0  0
 12 13  2  0  0  0  0
 13  7  1  0  0  0  0
 14 15  2  0  0  0  0
 15  5  1  0  0  0  0
 16 17  2  0  0  0  0
 17 14  1  0  0  0  0
 18 19  1  0  0  0  0
 19 20  1  0  0  0  0
 19 22  1  0  0  0  0
 20 17  1  0  0  0  0
 21 20  2  0  0  0  0
 22 23  1  0  0  0  0
 24 25  1  6  0  0  0
 24  1  1  0  0  0  0
 26 24  1  0  0  0  0
 28 26  1  0  0  0  0
 28 27  1  1  0  0  0
 29 34  1  0  0  0  0
 29 31  1  0  0  0  0
 30 31  1  0  0  0  0
 31 33  1  0  0  0  0
 33 28  1  1  0  0  0
 34 35  2  0  0  0  0
 35 32  1  0  0  0  0
 35 33  1  0  0  0  0
 37 38  1  0  0  0  0
 38 36  2  0  0  0  0
 38 34  1  0  0  0  0
M  END
>  <MODEL>
6

>  <REMARK>
 VINA RESULT:      -8.3      2.165      6.143
  Name = 
  9 active torsions:
  status: ('A' for Active; 'I' for Inactive)
    1  A    between atoms: C_2  and  C_26
    2  A    between atoms: C_3  and  C_4
    3  A    between atoms: C_3  and  N_34
    4  A    between atoms: C_7  and  N_11
    5  A    between atoms: C_19  and  C_20
    6  A    between atoms: C_21  and  C_26
    7  A    between atoms: C_23  and  C_37
    8  A    between atoms: N_34  and  C_37
    9  A    between atoms: C_35  and  C_36
                            x       y       z     vdW  Elec       q    Type
                         _______ _______ _______ _____ _____    ______ ____

>  <TORSDO>
F 9

$$$$
=
 OpenBabel10232412263D

 38 40  0  0  1  0  0  0  0  0999 V2000
  189.2430  177.2270  141.6300 C   0  0  0  0  0  0  0  0  0  0  0  0
  187.7690  177.7700  139.7530 C   0  0  0  0  0  0  0  0  0  0  0  0
  186.1330  177.8030  137.9360 O   0  0  0  0  0  1  0  0  0  0  0  0
  187.1680  178.4090  142.0250 C   0  0  0  0  0  3  0  0  0  0  0  0
  190.3650  177.1320  138.0870 C   0  0  0  0  0  0  0  0  0  0  0  0
  185.6340  179.1050  140.2390 C   0  0  0  0  0  1  0  0  0  0  0  0
  187.4710  177.6050  138.2800 C   0  0  1  0  0  3  0  0  0  0  0  0
  188.3240  177.8070  142.5090 C   0  0  0  0  0  3  0  0  0  0  0  0
  190.0620  176.7280  139.3360 C   0  0  0  0  0  3  0  0  0  0  0  0
  188.9960  177.2460  140.2370 C   0  0  0  0  0  0  0  0  0  0  0  0
  186.8820  178.4050  140.6610 C   0  0  0  0  0  0  0  0  0  0  0  0
  189.6650  178.2170  137.3730 C   0  0  0  0  0  3  0  0  0  0  0  0
  188.3610  178.4650  137.4620 C   0  0  0  0  0  3  0  0  0  0  0  0
  192.7060  176.3370  137.9710 C   0  0  0  0  0  3  0  0  0  0  0  0
  191.5260  176.5590  137.3880 C   0  0  0  0  0  3  0  0  0  0  0  0
  194.5710  176.5350  136.5710 O   0  0  0  0  0  0  0  0  0  0  0  0
  193.8560  175.7550  137.2570 C   0  0  0  0  0  0  0  0  0  0  0  0
  195.2410  172.3330  138.4470 C   0  0  0  0  0  1  0  0  0  0  0  0
  195.0800  173.7800  138.3430 N   0  0  0  0  0  0  0  0  0  0  0  0
  194.2040  174.3100  137.3320 C   0  0  0  0  0  0  0  0  0  0  0  0
  193.6980  173.5190  136.4890 O   0  0  0  0  0  0  0  0  0  0  0  0
  195.8800  174.6630  139.1950 C   0  0  0  0  0  2  0  0  0  0  0  0
  197.0710  175.0370  138.5690 O   0  0  0  0  0  1  0  0  0  0  0  0
  190.4720  176.5580  142.1870 C   0  0  1  0  0  3  0  0  0  0  0  0
  191.7070  177.4340  142.0430 C   0  0  0  0  0  1  0  0  0  0  0  0
  190.2640  176.2270  143.5890 N   0  0  0  0  0  2  0  0  0  0  0  0
  191.9820  174.6740  144.3410 C   0  0  0  0  0  1  0  0  0  0  0  0
  191.5680  176.1330  144.2290 C   0  0  2  0  0  3  0  0  0  0  0  0
  190.1020  176.1100  147.2500 N   0  0  0  0  0  2  0  0  0  0  0  0
  192.3600  175.9470  147.6620 C   0  0  0  0  0  1  0  0  0  0  0  0
  191.3280  175.7570  146.6570 N   0  0  0  0  0  0  0  0  0  0  0  0
  190.1910  178.9390  144.8920 C   0  0  0  0  0  1  0  0  0  0  0  0
  191.5340  176.7780  145.6140 C   0  0  2  0  0  3  0  0  0  0  0  0
  189.5630  177.2770  146.6700 C   0  0  0  0  0  0  0  0  0  0  0  0
  190.3720  177.7150  145.7260 C   0  0  0  0  0  0  0  0  0  0  0  0
  188.1700  178.4160  148.2060 O   0  0  0  0  0  0  0  0  0  0  0  0
  187.1200  177.7530  146.2530 N   0  0  0  0  0  1  0  0  0  0  0  0
  188.2690  177.8480  147.0860 C   0  0  0  0  0  0  0  0  0  0  0  0
  1 24  1  0  0  0  0
  1  8  1  0  0  0  0
  2 10  1  0  0  0  0
  2 11  2  0  0  0  0
  4  8  2  0  0  0  0
  5  9  2  0  0  0  0
  6 11  1  0  0  0  0
  7  3  1  1  0  0  0
  7  2  1  0  0  0  0
  9 10  1  0  0  0  0
 10  1  2  0  0  0  0
 11  4  1  0  0  0  0
 12 13  2  0  0  0  0
 12  5  1  0  0  0  0
 13  7  1  0  0  0  0
 15 14  2  0  0  0  0
 15  5  1  0  0  0  0
 16 17  2  0  0  0  0
 17 20  1  0  0  0  0
 17 14  1  0  0  0  0
 19 18  1  0  0  0  0
 19 22  1  0  0  0  0
 20 19  1  0  0  0  0
 21 20  2  0  0  0  0
 23 22  1  0  0  0  0
 24 25  1  1  0  0  0
 24 26  1  0  0  0  0
 26 28  1  0  0  0  0
 28 27  1  1  0  0  0
 31 29  1  0  0  0  0
 31 30  1  0  0  0  0
 32 35  1  0  0  0  0
 33 28  1  6  0  0  0
 33 35  1  0  0  0  0
 33 31  1  0  0  0  0
 34 38  1  0  0  0  0
 34 29  1  0  0  0  0
 35 34  2  0  0  0  0
 37 38  1  0  0  0  0
 38 36  2  0  0  0  0
M  END
>  <MODEL>
7

>  <REMARK>
 VINA RESULT:      -7.9      4.454      9.586
  Name = 
  9 active torsions:
  status: ('A' for Active; 'I' for Inactive)
    1  A    between atoms: C_2  and  C_26
    2  A    between atoms: C_3  and  C_4
    3  A    between atoms: C_3  and  N_34
    4  A    between atoms: C_7  and  N_11
    5  A    between atoms: C_19  and  C_20
    6  A    between atoms: C_21  and  C_26
    7  A    between atoms: C_23  and  C_37
    8  A    between atoms: N_34  and  C_37
    9  A    between atoms: C_35  and  C_36
                            x       y       z     vdW  Elec       q    Type
                         _______ _______ _______ _____ _____    ______ ____

>  <TORSDO>
F 9

$$$$
=
 OpenBabel10232412263D

 38 40  0  0  1  0  0  0  0  0999 V2000
  184.4280  178.8520  142.5080 C   0  0  0  0  0  0  0  0  0  0  0  0
  185.8400  178.4000  144.4540 C   0  0  0  0  0  0  0  0  0  0  0  0
  187.3510  178.4770  146.3750 O   0  0  0  0  0  1  0  0  0  0  0  0
  183.4350  178.6870  144.7090 C   0  0  0  0  0  3  0  0  0  0  0  0
  187.8930  177.5380  142.2270 C   0  0  0  0  0  0  0  0  0  0  0  0
  184.7040  178.1470  146.7400 C   0  0  0  0  0  1  0  0  0  0  0  0
  187.2410  178.2500  145.0030 C   0  0  1  0  0  3  0  0  0  0  0  0
  183.3100  178.9240  143.3440 C   0  0  0  0  0  3  0  0  0  0  0  0
  186.8300  178.3550  142.1020 C   0  0  0  0  0  3  0  0  0  0  0  0
  185.6970  178.5420  143.0500 C   0  0  0  0  0  0  0  0  0  0  0  0
  184.6800  178.4190  145.2730 C   0  0  0  0  0  0  0  0  0  0  0  0
  188.1200  176.6400  143.3760 C   0  0  0  0  0  3  0  0  0  0  0  0
  187.8120  176.9300  144.6370 C   0  0  0  0  0  3  0  0  0  0  0  0
  188.6020  177.7630  139.8660 C   0  0  0  0  0  3  0  0  0  0  0  0
  188.8650  177.4200  141.1300 C   0  0  0  0  0  3  0  0  0  0  0  0
  190.7620  177.2990  139.0950 O   0  0  0  0  0  0  0  0  0  0  0  0
  189.5920  177.6450  138.7810 C   0  0  0  0  0  0  0  0  0  0  0  0
  188.4400  177.1840  135.1060 C   0  0  0  0  0  1  0  0  0  0  0  0
  188.9140  176.8380  136.4420 N   0  0  0  0  0  0  0  0  0  0  0  0
  189.2560  177.8980  137.3540 C   0  0  0  0  0  0  0  0  0  0  0  0
  189.2540  179.0880  136.9320 O   0  0  0  0  0  0  0  0  0  0  0  0
  189.1250  175.4330  136.7970 C   0  0  0  0  0  2  0  0  0  0  0  0
  190.4450  175.0400  136.5700 O   0  0  0  0  0  1  0  0  0  0  0  0
  184.2650  179.1420  141.0390 C   0  0  1  0  0  3  0  0  0  0  0  0
  184.9600  178.0990  140.1770 C   0  0  0  0  0  1  0  0  0  0  0  0
  182.8510  179.2000  140.6980 N   0  0  0  0  0  2  0  0  0  0  0  0
  182.3230  180.4300  138.6640 C   0  0  0  0  0  1  0  0  0  0  0  0
  182.7310  179.0870  139.2510 C   0  0  2  0  0  3  0  0  0  0  0  0
  181.8450  175.8680  139.6080 N   0  0  0  0  0  2  0  0  0  0  0  0
  179.9840  177.0850  140.1950 C   0  0  0  0  0  1  0  0  0  0  0  0
  181.4260  177.1420  140.0310 N   0  0  0  0  0  0  0  0  0  0  0  0
  182.6230  177.5770  136.4380 C   0  0  0  0  0  1  0  0  0  0  0  0
  181.7050  178.0180  138.8790 C   0  0  2  0  0  3  0  0  0  0  0  0
  182.3290  175.8960  138.2830 C   0  0  0  0  0  0  0  0  0  0  0  0
  182.2480  177.1230  137.8090 C   0  0  0  0  0  0  0  0  0  0  0  0
  182.1130  174.0330  136.8390 O   0  0  0  0  0  0  0  0  0  0  0  0
  184.2000  174.2680  137.8120 N   0  0  0  0  0  1  0  0  0  0  0  0
  182.8610  174.6990  137.6050 C   0  0  0  0  0  0  0  0  0  0  0  0
  1 10  2  0  0  0  0
  1  8  1  0  0  0  0
  2  7  1  0  0  0  0
  2 11  2  0  0  0  0
  4 11  1  0  0  0  0
  5 12  1  0  0  0  0
  7  3  1  1  0  0  0
  8  4  2  0  0  0  0
  9  5  2  0  0  0  0
  9 10  1  0  0  0  0
 10  2  1  0  0  0  0
 11  6  1  0  0  0  0
 12 13  2  0  0  0  0
 13  7  1  0  0  0  0
 14 15  2  0  0  0  0
 15  5  1  0  0  0  0
 17 16  2  0  0  0  0
 17 14  1  0  0  0  0
 18 19  1  0  0  0  0
 19 22  1  0  0  0  0
 19 20  1  0  0  0  0
 20 17  1  0  0  0  0
 21 20  2  0  0  0  0
 23 22  1  0  0  0  0
 24 25  1  6  0  0  0
 24  1  1  0  0  0  0
 26 24  1  0  0  0  0
 28 27  1  1  0  0  0
 28 26  1  0  0  0  0
 29 31  1  0  0  0  0
 31 30  1  0  0  0  0
 32 35  1  0  0  0  0
 33 28  1  1  0  0  0
 33 31  1  0  0  0  0
 34 29  1  0  0  0  0
 35 34  2  0  0  0  0
 35 33  1  0  0  0  0
 36 38  2  0  0  0  0
 38 37  1  0  0  0  0
 38 34  1  0  0  0  0
M  END
>  <MODEL>
8

>  <REMARK>
 VINA RESULT:      -7.8      2.555      6.110
  Name = 
  9 active torsions:
  status: ('A' for Active; 'I' for Inactive)
    1  A    between atoms: C_2  and  C_26
    2  A    between atoms: C_3  and  C_4
    3  A    between atoms: C_3  and  N_34
    4  A    between atoms: C_7  and  N_11
    5  A    between atoms: C_19  and  C_20
    6  A    between atoms: C_21  and  C_26
    7  A    between atoms: C_23  and  C_37
    8  A    between atoms: N_34  and  C_37
    9  A    between atoms: C_35  and  C_36
                            x       y       z     vdW  Elec       q    Type
                         _______ _______ _______ _____ _____    ______ ____

>  <TORSDO>
F 9

$$$$
=
 OpenBabel10232412263D

 38 40  0  0  1  0  0  0  0  0999 V2000
  185.9260  178.5760  141.0780 C   0  0  0  0  0  0  0  0  0  0  0  0
  184.6900  178.7840  143.1790 C   0  0  0  0  0  0  0  0  0  0  0  0
  183.5840  179.5130  145.2350 O   0  0  0  0  0  1  0  0  0  0  0  0
  183.5110  178.7220  141.0490 C   0  0  0  0  0  3  0  0  0  0  0  0
  187.4300  177.8160  144.3910 C   0  0  0  0  0  0  0  0  0  0  0  0
  182.1270  178.8400  143.0730 C   0  0  0  0  0  1  0  0  0  0  0  0
  184.7490  178.9840  144.6770 C   0  0  1  0  0  3  0  0  0  0  0  0
  184.7220  178.6400  140.3710 C   0  0  0  0  0  3  0  0  0  0  0  0
  187.2130  178.4020  143.1980 C   0  0  0  0  0  3  0  0  0  0  0  0
  185.9170  178.5990  142.4920 C   0  0  0  0  0  0  0  0  0  0  0  0
  183.4770  178.7870  142.4400 C   0  0  0  0  0  0  0  0  0  0  0  0
  186.3690  177.2310  145.2340 C   0  0  0  0  0  3  0  0  0  0  0  0
  185.1420  177.7280  145.3610 C   0  0  0  0  0  3  0  0  0  0  0  0
  189.8930  177.8800  144.1500 C   0  0  0  0  0  3  0  0  0  0  0  0
  188.8040  177.6280  144.8810 C   0  0  0  0  0  3  0  0  0  0  0  0
  192.0860  178.6280  144.4720 O   0  0  0  0  0  0  0  0  0  0  0  0
  191.2630  177.6930  144.6610 C   0  0  0  0  0  0  0  0  0  0  0  0
  191.8520  175.0540  147.4410 C   0  0  0  0  0  1  0  0  0  0  0  0
  191.5620  176.3430  146.8210 N   0  0  0  0  0  0  0  0  0  0  0  0
  191.6900  176.4710  145.3930 C   0  0  0  0  0  0  0  0  0  0  0  0
  192.1640  175.5030  144.7350 O   0  0  0  0  0  0  0  0  0  0  0  0
  191.2470  177.4990  147.6620 C   0  0  0  0  0  2  0  0  0  0  0  0
  189.8960  177.5250  148.0130 O   0  0  0  0  0  1  0  0  0  0  0  0
  187.2240  178.5170  140.3150 C   0  0  1  0  0  3  0  0  0  0  0  0
  188.0950  177.3560  140.7710 C   0  0  0  0  0  1  0  0  0  0  0  0
  186.9560  178.4010  138.8890 N   0  0  0  0  0  2  0  0  0  0  0  0
  189.1490  178.8650  137.9380 C   0  0  0  0  0  1  0  0  0  0  0  0
  188.1190  177.7930  138.2590 C   0  0  2  0  0  3  0  0  0  0  0  0
  185.7940  175.8480  136.8140 N   0  0  0  0  0  2  0  0  0  0  0  0
  186.0780  177.6290  135.3860 C   0  0  0  0  0  1  0  0  0  0  0  0
  186.2650  177.1720  136.7530 N   0  0  0  0  0  0  0  0  0  0  0  0
  189.3430  174.9960  137.3180 C   0  0  0  0  0  1  0  0  0  0  0  0
  187.7150  177.0530  136.9840 C   0  0  2  0  0  3  0  0  0  0  0  0
  186.8470  174.9350  137.0370 C   0  0  0  0  0  0  0  0  0  0  0  0
  187.9880  175.5880  137.1210 C   0  0  0  0  0  0  0  0  0  0  0  0
  187.3320  172.6790  136.5090 O   0  0  0  0  0  0  0  0  0  0  0  0
  185.6130  172.9710  138.0310 N   0  0  0  0  0  1  0  0  0  0  0  0
  186.6250  173.4830  137.1740 C   0  0  0  0  0  0  0  0  0  0  0  0
  1 10  1  0  0  0  0
  2  7  1  0  0  0  0
  4 11  2  0  0  0  0
  5 15  1  0  0  0  0
  5 12  1  0  0  0  0
  7  3  1  1  0  0  0
  7 13  1  0  0  0  0
  8  4  1  0  0  0  0
  8  1  2  0  0  0  0
  9  5  2  0  0  0  0
 10  2  2  0  0  0  0
 10  9  1  0  0  0  0
 11  6  1  0  0  0  0
 11  2  1  0  0  0  0
 12 13  2  0  0  0  0
 14 17  1  0  0  0  0
 14 15  2  0  0  0  0
 16 17  2  0  0  0  0
 17 20  1  0  0  0  0
 19 18  1  0  0  0  0
 19 22  1  0  0  0  0
 20 19  1  0  0  0  0
 21 20  2  0  0  0  0
 22 23  1  0  0  0  0
 24 25  1  1  0  0  0
 24  1  1  0  0  0  0
 26 24  1  0  0  0  0
 28 27  1  6  0  0  0
 28 26  1  0  0  0  0
 29 34  1  0  0  0  0
 30 31  1  0  0  0  0
 31 29  1  0  0  0  0
 31 33  1  0  0  0  0
 33 35  1  0  0  0  0
 33 28  1  1  0  0  0
 34 35  2  0  0  0  0
 34 38  1  0  0  0  0
 35 32  1  0  0  0  0
 36 38  2  0  0  0  0
 38 37  1  0  0  0  0
M  END
>  <MODEL>
9

>  <REMARK>
 VINA RESULT:      -7.7      2.548      6.527
  Name = 
  9 active torsions:
  status: ('A' for Active; 'I' for Inactive)
    1  A    between atoms: C_2  and  C_26
    2  A    between atoms: C_3  and  C_4
    3  A    between atoms: C_3  and  N_34
    4  A    between atoms: C_7  and  N_11
    5  A    between atoms: C_19  and  C_20
    6  A    between atoms: C_21  and  C_26
    7  A    between atoms: C_23  and  C_37
    8  A    between atoms: N_34  and  C_37
    9  A    between atoms: C_35  and  C_36
                            x       y       z     vdW  Elec       q    Type
                         _______ _______ _______ _____ _____    ______ ____

>  <TORSDO>
F 9

$$$$
