=
 OpenBabel10232410133D

 66 72  0  0  1  0  0  0  0  0999 V2000
  182.9580  169.4520  136.4390 N   0  0  0  0  0  2  0  0  0  0  0  0
  182.7260  170.8540  136.4700 C   0  0  0  0  0  0  0  0  0  0  0  0
  184.4020  172.7410  136.1500 C   0  0  0  0  0  0  0  0  0  0  0  0
  181.5590  172.7890  137.5140 C   0  0  0  0  0  3  0  0  0  0  0  0
  182.4150  173.8110  137.3690 C   0  0  0  0  0  0  0  0  0  0  0  0
  184.5090  170.4360  135.1160 C   0  0  0  0  0  0  0  0  0  0  0  0
  183.8080  173.6910  136.8850 C   0  0  0  0  0  3  0  0  0  0  0  0
  181.7870  171.3660  137.2500 C   0  0  0  0  0  3  0  0  0  0  0  0
  183.6360  171.5960  135.5240 C   0  0  1  0  0  3  0  0  0  0  0  0
  185.5290  170.5030  134.3750 O   0  0  0  0  0  0  0  0  0  0  0  0
  184.0560  169.2430  135.6450 O   0  0  0  0  0  0  0  0  0  0  0  0
  186.7380  172.0370  135.5490 C   0  0  0  0  0  2  0  0  0  0  0  0
  188.5900  175.2390  136.2910 C   0  0  0  0  0  0  0  0  0  0  0  0
  190.6220  174.5380  137.7720 C   0  0  0  0  0  3  0  0  0  0  0  0
  189.5980  174.8800  137.0440 C   0  0  0  0  0  0  0  0  0  0  0  0
  188.0540  172.7450  135.8220 C   0  0  1  0  0  3  0  0  0  0  0  0
  185.7020  173.0600  135.6400 N   0  0  0  0  0  0  0  0  0  0  0  0
  185.6720  175.3800  135.0380 N   0  0  0  0  0  2  0  0  0  0  0  0
  189.1300  172.2330  134.8800 C   0  0  0  0  0  1  0  0  0  0  0  0
  187.3120  177.0110  135.0080 C   0  0  1  0  0  3  0  0  0  0  0  0
  188.4000  176.7140  136.0420 C   0  0  0  0  0  2  0  0  0  0  0  0
  186.0030  176.6530  135.5430 N   0  0  0  0  0  2  0  0  0  0  0  0
  186.2800  174.3680  135.8950 C   0  0  2  0  0  3  0  0  0  0  0  0
  187.7490  174.2160  135.5560 C   0  0  1  0  0  3  0  0  0  0  0  0
  192.1670  176.1270  136.2110 O   0  0  0  0  0  0  0  0  0  0  0  0
  192.2140  175.3100  137.4850 P   0  0  1  0  0  0  0  0  0  0  0  0
  192.5760  176.3260  138.7890 O   0  0  0  0  0  1  0  0  0  0  0  0
  193.4990  174.0320  137.3480 C   0  0  0  0  0  2  0  0  0  0  0  0
  194.7610  174.4750  138.0650 C   0  0  0  0  0  2  0  0  0  0  0  0
  197.0080  173.8090  138.6450 O   0  0  0  0  0  1  0  0  0  0  0  0
  195.9560  173.5650  137.7470 C   0  0  1  0  0  0  0  0  0  0  0  0
  195.5120  172.1090  137.8600 C   0  0  0  0  0  2  0  0  0  0  0  0
  195.7040  171.4250  136.6500 O   0  0  0  0  0  0  0  0  0  0  0  0
  195.4090  169.3000  137.6580 O   0  0  0  0  0  0  0  0  0  0  0  0
  197.5900  170.1140  137.3920 O   0  0  0  0  0  1  0  0  0  0  0  0
  196.2640  170.1790  136.9720 C   0  0  2  0  0  0  0  0  0  0  0  0
  195.7000  168.9900  136.3070 C   0  0  0  0  0  2  0  0  0  0  0  0
  196.4310  173.8350  136.3120 C   0  0  0  0  0  2  0  0  0  0  0  0
  197.0950  175.1680  136.1740 C   0  0  0  0  0  0  0  0  0  0  0  0
  196.3260  176.3130  135.8290 N   0  0  0  0  0  1  0  0  0  0  0  0
  198.3490  175.2580  136.2570 O   0  0  0  0  0  0  0  0  0  0  0  0
  187.3320  179.6030  134.3460 C   0  0  0  0  0  3  0  0  0  0  0  0
  187.3320  178.4280  134.6330 C   0  0  0  0  0  0  0  0  0  0  0  0
  180.9170  175.8750  137.5370 C   0  0  0  0  0  3  0  0  0  0  0  0
  180.8700  177.8330  141.2110 O   0  0  0  0  0  0  0  0  0  0  0  0
  181.8140  176.7910  139.3560 N   0  0  0  0  0  0  0  0  0  0  0  0
  181.9150  177.5470  140.5640 C   0  0  0  0  0  0  0  0  0  0  0  0
  182.5510  175.7100  139.0590 C   0  0  0  0  0  3  0  0  0  0  0  0
  182.0130  175.1220  137.9300 C   0  0  0  0  0  0  0  0  0  0  0  0
  183.1950  177.9810  141.0410 N   0  0  0  0  0  2  0  0  0  0  0  0
  180.8190  176.9000  138.4590 C   0  0  0  0  0  3  0  0  0  0  0  0
  184.6630  178.1070  142.9980 C   0  0  0  0  0  3  0  0  0  0  0  0
  183.8520  179.0610  145.0710 C   0  0  0  0  0  3  0  0  0  0  0  0
  182.3740  178.8880  143.1680 C   0  0  0  0  0  3  0  0  0  0  0  0
  183.4110  178.3210  142.4110 C   0  0  0  0  0  0  0  0  0  0  0  0
  182.5940  179.2550  144.4950 C   0  0  0  0  0  3  0  0  0  0  0  0
  184.8930  178.4860  144.3250 C   0  0  0  0  0  0  0  0  0  0  0  0
  187.0130  177.1340  143.0590 O   0  0  0  0  0  0  0  0  0  0  0  0
  187.2080  177.5640  144.2310 C   0  0  0  0  0  0  0  0  0  0  0  0
  186.1990  178.3390  144.9040 N   0  0  0  0  0  0  0  0  0  0  0  0
  186.6880  178.1090  147.1580 O   0  0  0  0  0  1  0  0  0  0  0  0
  186.4660  178.8580  146.1880 N   0  0  0  0  0  2  0  0  0  0  0  0
  188.5220  177.2890  144.8920 C   0  0  0  0  0  2  0  0  0  0  0  0
  189.6610  177.9790  144.1450 C   0  0  0  0  0  2  0  0  0  0  0  0
  191.0520  176.7930  145.6840 O   0  0  0  0  0  1  0  0  0  0  0  0
  190.9780  177.2570  144.3710 C   0  0  0  0  0  2  0  0  0  0  0  0
  1  2  1  0  0  0  0
  2  8  2  0  0  0  0
  3  7  2  0  0  0  0
  5  4  2  0  0  0  0
  5 49  1  0  0  0  0
  6 11  1  0  0  0  0
  7  5  1  0  0  0  0
  8  4  1  0  0  0  0
  9  6  1  1  0  0  0
  9  3  1  0  0  0  0
  9  2  1  0  0  0  0
 10  6  2  0  0  0  0
 11  1  1  0  0  0  0
 12 17  1  0  0  0  0
 12 16  1  0  0  0  0
 13 15  2  0  0  0  0
 15 14  2  0  0  0  0
 16 19  1  6  0  0  0
 17 23  1  0  0  0  0
 17  3  1  0  0  0  0
 18 22  1  0  0  0  0
 20 43  1  1  0  0  0
 20 22  1  0  0  0  0
 20 21  1  0  0  0  0
 21 13  1  0  0  0  0
 23 18  1  6  0  0  0
 24 16  1  0  0  0  0
 24 23  1  0  0  0  0
 24 13  1  1  0  0  0
 26 25  2  6  0  0  0
 26 14  1  0  0  0  0
 26 27  1  0  0  0  0
 28 26  1  0  0  0  0
 28 29  1  0  0  0  0
 31 32  1  0  0  0  0
 31 29  1  0  0  0  0
 31 30  1  1  0  0  0
 33 36  1  0  0  0  0
 33 32  1  0  0  0  0
 36 35  1  1  0  0  0
 36 34  1  0  0  0  0
 37 36  1  0  0  0  0
 37 34  1  0  0  0  0
 38 31  1  0  0  0  0
 39 41  2  0  0  0  0
 39 38  1  0  0  0  0
 40 39  1  0  0  0  0
 42 43  3  0  0  0  0
 44 49  1  0  0  0  0
 44 51  2  0  0  0  0
 46 47  1  0  0  0  0
 47 50  1  0  0  0  0
 47 45  2  0  0  0  0
 48 46  1  0  0  0  0
 49 48  2  0  0  0  0
 50 55  1  0  0  0  0
 51 46  1  0  0  0  0
 52 57  1  0  0  0  0
 54 56  2  0  0  0  0
 55 52  2  0  0  0  0
 55 54  1  0  0  0  0
 56 53  1  0  0  0  0
 57 60  1  0  0  0  0
 57 53  2  0  0  0  0
 58 59  2  0  0  0  0
 59 63  1  0  0  0  0
 59 60  1  0  0  0  0
 60 62  1  0  0  0  0
 62 61  1  0  0  0  0
 64 66  1  0  0  0  0
 64 63  1  0  0  0  0
 66 65  1  0  0  0  0
M  END
>  <MODEL>
1

>  <REMARK>
 VINA RESULT:      -6.0      0.000      0.000
  Name = 
  18 active torsions:
  status: ('A' for Active; 'I' for Inactive)
    1  A    between atoms: C_5  and  P_37
    2  A    between atoms: C_9  and  N_26
    3  A    between atoms: O_10  and  C_19
    4  A    between atoms: O_10  and  C_38
    5  A    between atoms: C_13  and  C_58
    6  A    between atoms: C_25  and  C_30
    7  A    between atoms: C_25  and  C_53
    8  A    between atoms: C_30  and  P_37
    9  A    between atoms: C_32  and  C_35
   10  A    between atoms: C_36  and  N_59
   11  A    between atoms: C_38  and  C_53
   12  A    between atoms: C_42  and  C_49
   13  A    between atoms: C_42  and  C_57
   14  A    between atoms: C_43  and  C_44
   15  A    between atoms: C_43  and  C_53
   16  A    between atoms: C_45  and  C_57
   17  A    between atoms: N_50  and  N_62
   18  A    between atoms: N_50  and  C_64
                            x       y       z     vdW  Elec       q    Type
                         _______ _______ _______ _____ _____    ______ ____

>  <TORSDO>
F 18

$$$$
=
 OpenBabel10232410133D

 66 72  0  0  1  0  0  0  0  0999 V2000
  187.5620  179.0480  147.6540 N   0  0  0  0  0  2  0  0  0  0  0  0
  186.4820  178.6580  146.8160 C   0  0  0  0  0  0  0  0  0  0  0  0
  186.5760  177.6380  144.4870 C   0  0  0  0  0  0  0  0  0  0  0  0
  184.2040  179.1320  145.9310 C   0  0  0  0  0  3  0  0  0  0  0  0
  184.2120  178.6110  144.6960 C   0  0  0  0  0  0  0  0  0  0  0  0
  188.2940  177.3690  146.3230 C   0  0  0  0  0  0  0  0  0  0  0  0
  185.4090  178.0830  144.0030 C   0  0  0  0  0  3  0  0  0  0  0  0
  185.3290  179.3080  146.8520 C   0  0  0  0  0  3  0  0  0  0  0  0
  186.8310  177.4610  145.9670 C   0  0  1  0  0  3  0  0  0  0  0  0
  189.1290  176.5690  145.8170 O   0  0  0  0  0  0  0  0  0  0  0  0
  188.6410  178.2770  147.3050 O   0  0  0  0  0  0  0  0  0  0  0  0
  188.4630  176.0460  144.0240 C   0  0  0  0  0  2  0  0  0  0  0  0
  189.8710  177.6030  140.8890 C   0  0  0  0  0  0  0  0  0  0  0  0
  192.4410  177.7960  141.3040 C   0  0  0  0  0  3  0  0  0  0  0  0
  191.1560  177.7080  141.1110 C   0  0  0  0  0  0  0  0  0  0  0  0
  189.6160  176.1820  143.0440 C   0  0  1  0  0  3  0  0  0  0  0  0
  187.4250  176.9560  143.5550 N   0  0  0  0  0  0  0  0  0  0  0  0
  186.7280  177.6110  141.3580 N   0  0  0  0  0  2  0  0  0  0  0  0
  190.2140  174.8180  142.7440 C   0  0  0  0  0  1  0  0  0  0  0  0
  187.8670  177.8460  139.3580 C   0  0  1  0  0  3  0  0  0  0  0  0
  189.3400  178.1840  139.6030 C   0  0  0  0  0  2  0  0  0  0  0  0
  187.0290  178.5330  140.3360 N   0  0  0  0  0  2  0  0  0  0  0  0
  187.8220  177.6130  142.3220 C   0  0  2  0  0  3  0  0  0  0  0  0
  188.9760  176.7840  141.7960 C   0  0  1  0  0  3  0  0  0  0  0  0
  194.0870  178.7040  139.3520 O   0  0  0  0  0  0  0  0  0  0  0  0
  193.5690  177.4190  139.9630 P   0  0  1  0  0  0  0  0  0  0  0  0
  194.8700  176.5250  140.5730 O   0  0  0  0  0  1  0  0  0  0  0  0
  192.7110  176.4390  138.6960 C   0  0  0  0  0  2  0  0  0  0  0  0
  193.5160  176.4170  137.4110 C   0  0  0  0  0  2  0  0  0  0  0  0
  193.1120  174.0380  137.5010 O   0  0  0  0  0  1  0  0  0  0  0  0
  193.3130  175.1150  136.6230 C   0  0  1  0  0  0  0  0  0  0  0  0
  192.0960  175.2720  135.7150 C   0  0  0  0  0  2  0  0  0  0  0  0
  190.9840  174.5920  136.2350 O   0  0  0  0  0  0  0  0  0  0  0  0
  188.8380  175.1830  135.4220 O   0  0  0  0  0  0  0  0  0  0  0  0
  190.1960  176.8710  136.3150 O   0  0  0  0  0  1  0  0  0  0  0  0
  189.9210  175.5070  136.2560 C   0  0  2  0  0  0  0  0  0  0  0  0
  188.6390  175.0450  136.8180 C   0  0  0  0  0  2  0  0  0  0  0  0
  194.5540  174.8480  135.7570 C   0  0  0  0  0  2  0  0  0  0  0  0
  195.8240  174.9240  136.5440 C   0  0  0  0  0  0  0  0  0  0  0  0
  196.0760  173.9800  137.5770 N   0  0  0  0  0  1  0  0  0  0  0  0
  196.6190  175.8840  136.3650 O   0  0  0  0  0  0  0  0  0  0  0  0
  187.1400  178.5170  136.8730 C   0  0  0  0  0  3  0  0  0  0  0  0
  187.4710  178.2280  138.0000 C   0  0  0  0  0  0  0  0  0  0  0  0
  181.8430  179.4620  144.2520 C   0  0  0  0  0  3  0  0  0  0  0  0
  180.7640  179.9280  140.2570 O   0  0  0  0  0  0  0  0  0  0  0  0
  181.6660  178.8570  142.1170 N   0  0  0  0  0  0  0  0  0  0  0  0
  181.2470  178.8720  140.7510 C   0  0  0  0  0  0  0  0  0  0  0  0
  182.8490  178.4000  142.5560 C   0  0  0  0  0  3  0  0  0  0  0  0
  182.9830  178.7630  143.8830 C   0  0  0  0  0  0  0  0  0  0  0  0
  181.3730  177.6940  139.9440 N   0  0  0  0  0  2  0  0  0  0  0  0
  181.0520  179.5100  143.1190 C   0  0  0  0  0  3  0  0  0  0  0  0
  182.2410  176.9000  137.7950 C   0  0  0  0  0  3  0  0  0  0  0  0
  181.4140  177.8420  135.7230 C   0  0  0  0  0  3  0  0  0  0  0  0
  180.5930  178.6780  137.8350 C   0  0  0  0  0  3  0  0  0  0  0  0
  181.4080  177.7610  138.5170 C   0  0  0  0  0  0  0  0  0  0  0  0
  180.5970  178.7190  136.4410 C   0  0  0  0  0  3  0  0  0  0  0  0
  182.2400  176.9270  136.3960 C   0  0  0  0  0  0  0  0  0  0  0  0
  181.4170  174.2970  135.8210 O   0  0  0  0  0  0  0  0  0  0  0  0
  182.5810  174.6390  135.4680 C   0  0  0  0  0  0  0  0  0  0  0  0
  183.0360  175.9920  135.6530 N   0  0  0  0  0  0  0  0  0  0  0  0
  184.5320  177.4790  134.6940 O   0  0  0  0  0  1  0  0  0  0  0  0
  184.3170  176.3600  135.1950 N   0  0  0  0  0  2  0  0  0  0  0  0
  183.4660  173.6220  134.8180 C   0  0  0  0  0  2  0  0  0  0  0  0
  183.9770  172.6120  135.8430 C   0  0  0  0  0  2  0  0  0  0  0  0
  184.9440  173.6440  137.7700 O   0  0  0  0  0  1  0  0  0  0  0  0
  185.2440  173.1110  136.5160 C   0  0  0  0  0  2  0  0  0  0  0  0
  2  8  2  0  0  0  0
  2  1  1  0  0  0  0
  4  8  1  0  0  0  0
  5  4  2  0  0  0  0
  6 11  1  0  0  0  0
  7  3  2  0  0  0  0
  7  5  1  0  0  0  0
  9  3  1  6  0  0  0
  9  6  1  0  0  0  0
  9  2  1  0  0  0  0
 10  6  2  0  0  0  0
 11  1  1  0  0  0  0
 13 15  2  0  0  0  0
 15 14  2  0  0  0  0
 16 19  1  6  0  0  0
 16 12  1  0  0  0  0
 17 12  1  0  0  0  0
 17  3  1  0  0  0  0
 20 43  1  6  0  0  0
 20 21  1  0  0  0  0
 20 22  1  0  0  0  0
 21 13  1  0  0  0  0
 22 18  1  0  0  0  0
 23 18  1  6  0  0  0
 23 17  1  0  0  0  0
 24 13  1  1  0  0  0
 24 23  1  0  0  0  0
 24 16  1  0  0  0  0
 26 25  2  6  0  0  0
 26 27  1  0  0  0  0
 26 14  1  0  0  0  0
 28 26  1  0  0  0  0
 29 28  1  0  0  0  0
 31 29  1  0  0  0  0
 31 30  1  1  0  0  0
 32 33  1  0  0  0  0
 32 31  1  0  0  0  0
 33 36  1  0  0  0  0
 34 36  1  0  0  0  0
 34 37  1  0  0  0  0
 36 35  1  1  0  0  0
 36 37  1  0  0  0  0
 38 39  1  0  0  0  0
 38 31  1  0  0  0  0
 39 40  1  0  0  0  0
 41 39  2  0  0  0  0
 42 43  3  0  0  0  0
 45 47  2  0  0  0  0
 46 48  1  0  0  0  0
 46 51  1  0  0  0  0
 47 46  1  0  0  0  0
 48 49  2  0  0  0  0
 49 44  1  0  0  0  0
 49  5  1  0  0  0  0
 50 47  1  0  0  0  0
 51 44  2  0  0  0  0
 52 55  1  0  0  0  0
 53 57  1  0  0  0  0
 53 56  2  0  0  0  0
 54 55  2  0  0  0  0
 55 50  1  0  0  0  0
 56 54  1  0  0  0  0
 57 52  2  0  0  0  0
 59 60  1  0  0  0  0
 59 58  2  0  0  0  0
 60 57  1  0  0  0  0
 61 62  1  0  0  0  0
 62 60  1  0  0  0  0
 63 59  1  0  0  0  0
 63 64  1  0  0  0  0
 64 66  1  0  0  0  0
 66 65  1  0  0  0  0
M  END
>  <MODEL>
2

>  <REMARK>
 VINA RESULT:      -5.8      2.671      8.187
  Name = 
  18 active torsions:
  status: ('A' for Active; 'I' for Inactive)
    1  A    between atoms: C_5  and  P_37
    2  A    between atoms: C_9  and  N_26
    3  A    between atoms: O_10  and  C_19
    4  A    between atoms: O_10  and  C_38
    5  A    between atoms: C_13  and  C_58
    6  A    between atoms: C_25  and  C_30
    7  A    between atoms: C_25  and  C_53
    8  A    between atoms: C_30  and  P_37
    9  A    between atoms: C_32  and  C_35
   10  A    between atoms: C_36  and  N_59
   11  A    between atoms: C_38  and  C_53
   12  A    between atoms: C_42  and  C_49
   13  A    between atoms: C_42  and  C_57
   14  A    between atoms: C_43  and  C_44
   15  A    between atoms: C_43  and  C_53
   16  A    between atoms: C_45  and  C_57
   17  A    between atoms: N_50  and  N_62
   18  A    between atoms: N_50  and  C_64
                            x       y       z     vdW  Elec       q    Type
                         _______ _______ _______ _____ _____    ______ ____

>  <TORSDO>
F 18

$$$$
=
 OpenBabel10232410133D

 66 72  0  0  1  0  0  0  0  0999 V2000
  187.4950  179.1030  147.5960 N   0  0  0  0  0  2  0  0  0  0  0  0
  186.4210  178.7070  146.7530 C   0  0  0  0  0  0  0  0  0  0  0  0
  186.5340  177.6670  144.4340 C   0  0  0  0  0  0  0  0  0  0  0  0
  184.1510  179.1770  145.8450 C   0  0  0  0  0  3  0  0  0  0  0  0
  184.1690  178.6450  144.6150 C   0  0  0  0  0  0  0  0  0  0  0  0
  188.2350  177.4120  146.2860 C   0  0  0  0  0  0  0  0  0  0  0  0
  185.3710  178.1100  143.9370 C   0  0  0  0  0  3  0  0  0  0  0  0
  185.2690  179.3590  146.7730 C   0  0  0  0  0  3  0  0  0  0  0  0
  186.7760  177.5020  145.9180 C   0  0  1  0  0  3  0  0  0  0  0  0
  189.0730  176.6060  145.7940 O   0  0  0  0  0  0  0  0  0  0  0  0
  188.5750  178.3270  147.2630 O   0  0  0  0  0  0  0  0  0  0  0  0
  188.4100  176.0540  143.9990 C   0  0  0  0  0  2  0  0  0  0  0  0
  189.8830  177.5950  140.8860 C   0  0  0  0  0  0  0  0  0  0  0  0
  192.4480  177.7600  141.3410 C   0  0  0  0  0  3  0  0  0  0  0  0
  191.1650  177.6870  141.1280 C   0  0  0  0  0  0  0  0  0  0  0  0
  189.5790  176.1780  143.0370 C   0  0  1  0  0  3  0  0  0  0  0  0
  187.3890  176.9760  143.5150 N   0  0  0  0  0  0  0  0  0  0  0  0
  186.7320  177.6380  141.3070 N   0  0  0  0  0  2  0  0  0  0  0  0
  190.1670  174.8070  142.7470 C   0  0  0  0  0  1  0  0  0  0  0  0
  187.9050  177.8600  139.3260 C   0  0  1  0  0  3  0  0  0  0  0  0
  189.3770  178.1820  139.5920 C   0  0  0  0  0  2  0  0  0  0  0  0
  187.0590  178.5560  140.2900 N   0  0  0  0  0  2  0  0  0  0  0  0
  187.8120  177.6280  142.2880 C   0  0  2  0  0  3  0  0  0  0  0  0
  188.9650  176.7870  141.7800 C   0  0  1  0  0  3  0  0  0  0  0  0
  194.0280  178.6460  139.3250 O   0  0  0  0  0  0  0  0  0  0  0  0
  193.5920  177.3720  140.0170 P   0  0  1  0  0  0  0  0  0  0  0  0
  194.9470  176.5970  140.6710 O   0  0  0  0  0  1  0  0  0  0  0  0
  192.7910  176.2650  138.8190 C   0  0  0  0  0  2  0  0  0  0  0  0
  193.2370  176.6020  137.4090 C   0  0  0  0  0  2  0  0  0  0  0  0
  192.7190  175.8400  135.1770 O   0  0  0  0  0  1  0  0  0  0  0  0
  193.1020  175.4050  136.4570 C   0  0  1  0  0  0  0  0  0  0  0  0
  194.4440  174.6850  136.3750 C   0  0  0  0  0  2  0  0  0  0  0  0
  195.4560  175.4250  137.0060 O   0  0  0  0  0  0  0  0  0  0  0  0
  197.7960  175.2550  137.3460 O   0  0  0  0  0  0  0  0  0  0  0  0
  196.7130  173.5440  136.1650 O   0  0  0  0  0  1  0  0  0  0  0  0
  196.5870  174.5950  137.0700 C   0  0  2  0  0  0  0  0  0  0  0  0
  197.2510  174.4530  138.3790 C   0  0  0  0  0  2  0  0  0  0  0  0
  192.0450  174.4360  137.0090 C   0  0  0  0  0  2  0  0  0  0  0  0
  190.7150  174.6070  136.3480 C   0  0  0  0  0  0  0  0  0  0  0  0
  189.8360  175.6410  136.7750 N   0  0  0  0  0  1  0  0  0  0  0  0
  190.3280  173.7730  135.4870 O   0  0  0  0  0  0  0  0  0  0  0  0
  187.2540  178.5720  136.8300 C   0  0  0  0  0  3  0  0  0  0  0  0
  187.5340  178.2460  137.9610 C   0  0  0  0  0  0  0  0  0  0  0  0
  181.8460  179.5770  144.0970 C   0  0  0  0  0  3  0  0  0  0  0  0
  180.7800  179.7620  140.0760 O   0  0  0  0  0  0  0  0  0  0  0  0
  181.6310  178.8060  142.0210 N   0  0  0  0  0  0  0  0  0  0  0  0
  181.2100  178.7280  140.6580 C   0  0  0  0  0  0  0  0  0  0  0  0
  182.7910  178.3260  142.4980 C   0  0  0  0  0  3  0  0  0  0  0  0
  182.9470  178.7920  143.7900 C   0  0  0  0  0  0  0  0  0  0  0  0
  181.2710  177.4810  139.9530 N   0  0  0  0  0  2  0  0  0  0  0  0
  181.0550  179.5720  142.9640 C   0  0  0  0  0  3  0  0  0  0  0  0
  182.1340  176.5030  137.8790 C   0  0  0  0  0  3  0  0  0  0  0  0
  181.3090  177.2680  135.7350 C   0  0  0  0  0  3  0  0  0  0  0  0
  180.4940  178.2850  137.7680 C   0  0  0  0  0  3  0  0  0  0  0  0
  181.3050  177.4260  138.5250 C   0  0  0  0  0  0  0  0  0  0  0  0
  180.4980  178.2070  136.3760 C   0  0  0  0  0  3  0  0  0  0  0  0
  182.1310  176.4110  136.4830 C   0  0  0  0  0  0  0  0  0  0  0  0
  181.2690  173.7620  136.0760 O   0  0  0  0  0  0  0  0  0  0  0  0
  182.4460  174.0570  135.7230 C   0  0  0  0  0  0  0  0  0  0  0  0
  182.9230  175.4120  135.8210 N   0  0  0  0  0  0  0  0  0  0  0  0
  184.6090  176.9030  135.2700 O   0  0  0  0  0  1  0  0  0  0  0  0
  184.2190  175.7240  135.3640 N   0  0  0  0  0  2  0  0  0  0  0  0
  183.3220  172.9820  135.1620 C   0  0  0  0  0  2  0  0  0  0  0  0
  184.0410  172.2290  136.2790 C   0  0  0  0  0  2  0  0  0  0  0  0
  182.4910  170.5710  135.5300 O   0  0  0  0  0  1  0  0  0  0  0  0
  183.3600  170.9020  136.5700 C   0  0  0  0  0  2  0  0  0  0  0  0
  2  8  2  0  0  0  0
  2  1  1  0  0  0  0
  4  8  1  0  0  0  0
  5  4  2  0  0  0  0
  6 11  1  0  0  0  0
  7  3  2  0  0  0  0
  7  5  1  0  0  0  0
  9  3  1  6  0  0  0
  9  6  1  0  0  0  0
  9  2  1  0  0  0  0
 10  6  2  0  0  0  0
 11  1  1  0  0  0  0
 13 15  2  0  0  0  0
 15 14  2  0  0  0  0
 16 19  1  6  0  0  0
 16 12  1  0  0  0  0
 17 12  1  0  0  0  0
 17  3  1  0  0  0  0
 20 43  1  6  0  0  0
 20 21  1  0  0  0  0
 20 22  1  0  0  0  0
 21 13  1  0  0  0  0
 22 18  1  0  0  0  0
 23 18  1  6  0  0  0
 23 17  1  0  0  0  0
 24 13  1  1  0  0  0
 24 23  1  0  0  0  0
 24 16  1  0  0  0  0
 26 25  2  6  0  0  0
 26 27  1  0  0  0  0
 26 14  1  0  0  0  0
 28 26  1  0  0  0  0
 29 28  1  0  0  0  0
 31 30  1  6  0  0  0
 31 38  1  0  0  0  0
 31 29  1  0  0  0  0
 32 31  1  0  0  0  0
 32 33  1  0  0  0  0
 33 36  1  0  0  0  0
 34 37  1  0  0  0  0
 36 35  1  6  0  0  0
 36 34  1  0  0  0  0
 36 37  1  0  0  0  0
 39 40  1  0  0  0  0
 39 38  1  0  0  0  0
 41 39  2  0  0  0  0
 42 43  3  0  0  0  0
 45 47  2  0  0  0  0
 46 48  1  0  0  0  0
 46 51  1  0  0  0  0
 47 46  1  0  0  0  0
 48 49  2  0  0  0  0
 49 44  1  0  0  0  0
 49  5  1  0  0  0  0
 50 47  1  0  0  0  0
 51 44  2  0  0  0  0
 52 55  1  0  0  0  0
 53 56  2  0  0  0  0
 53 57  1  0  0  0  0
 54 55  2  0  0  0  0
 55 50  1  0  0  0  0
 56 54  1  0  0  0  0
 57 52  2  0  0  0  0
 59 60  1  0  0  0  0
 59 58  2  0  0  0  0
 60 57  1  0  0  0  0
 61 62  1  0  0  0  0
 62 60  1  0  0  0  0
 63 59  1  0  0  0  0
 63 64  1  0  0  0  0
 64 66  1  0  0  0  0
 65 66  1  0  0  0  0
M  END
>  <MODEL>
3

>  <REMARK>
 VINA RESULT:      -5.7      2.500      8.226
  Name = 
  18 active torsions:
  status: ('A' for Active; 'I' for Inactive)
    1  A    between atoms: C_5  and  P_37
    2  A    between atoms: C_9  and  N_26
    3  A    between atoms: O_10  and  C_19
    4  A    between atoms: O_10  and  C_38
    5  A    between atoms: C_13  and  C_58
    6  A    between atoms: C_25  and  C_30
    7  A    between atoms: C_25  and  C_53
    8  A    between atoms: C_30  and  P_37
    9  A    between atoms: C_32  and  C_35
   10  A    between atoms: C_36  and  N_59
   11  A    between atoms: C_38  and  C_53
   12  A    between atoms: C_42  and  C_49
   13  A    between atoms: C_42  and  C_57
   14  A    between atoms: C_43  and  C_44
   15  A    between atoms: C_43  and  C_53
   16  A    between atoms: C_45  and  C_57
   17  A    between atoms: N_50  and  N_62
   18  A    between atoms: N_50  and  C_64
                            x       y       z     vdW  Elec       q    Type
                         _______ _______ _______ _____ _____    ______ ____

>  <TORSDO>
F 18

$$$$
=
 OpenBabel10232410133D

 66 72  0  0  1  0  0  0  0  0999 V2000
  194.7290  177.1720  136.5640 N   0  0  0  0  0  2  0  0  0  0  0  0
  193.8250  176.8010  137.5960 C   0  0  0  0  0  0  0  0  0  0  0  0
  191.3040  176.4910  137.4530 C   0  0  0  0  0  0  0  0  0  0  0  0
  193.1250  176.9990  139.9770 C   0  0  0  0  0  3  0  0  0  0  0  0
  191.7940  176.8430  139.9460 C   0  0  0  0  0  0  0  0  0  0  0  0
  192.9790  176.1100  135.5980 C   0  0  0  0  0  0  0  0  0  0  0  0
  190.9720  176.7900  138.7160 C   0  0  0  0  0  3  0  0  0  0  0  0
  194.0490  177.1560  138.8520 C   0  0  0  0  0  3  0  0  0  0  0  0
  192.6750  175.9800  137.0690 C   0  0  1  0  0  3  0  0  0  0  0  0
  192.2640  175.6730  134.6540 O   0  0  0  0  0  0  0  0  0  0  0  0
  194.1710  176.7720  135.3770 O   0  0  0  0  0  0  0  0  0  0  0  0
  189.5080  177.4150  135.9580 C   0  0  0  0  0  2  0  0  0  0  0  0
  186.8810  174.7380  136.3700 C   0  0  0  0  0  0  0  0  0  0  0  0
  184.6690  176.0150  136.9070 C   0  0  0  0  0  3  0  0  0  0  0  0
  185.7800  175.3850  136.6520 C   0  0  0  0  0  0  0  0  0  0  0  0
  188.0580  176.9830  135.8190 C   0  0  1  0  0  3  0  0  0  0  0  0
  190.2130  176.2820  136.5480 N   0  0  0  0  0  0  0  0  0  0  0  0
  189.9500  173.9130  136.2960 N   0  0  0  0  0  2  0  0  0  0  0  0
  187.4930  177.4620  134.4930 C   0  0  0  0  0  1  0  0  0  0  0  0
  188.1080  172.5780  135.8750 C   0  0  1  0  0  3  0  0  0  0  0  0
  186.8260  173.2310  136.3960 C   0  0  0  0  0  2  0  0  0  0  0  0
  189.2080  172.8280  136.8020 N   0  0  0  0  0  2  0  0  0  0  0  0
  189.3190  175.1520  136.7380 C   0  0  2  0  0  3  0  0  0  0  0  0
  188.1160  175.4590  135.8700 C   0  0  1  0  0  3  0  0  0  0  0  0
  181.9670  176.1910  136.7730 O   0  0  0  0  0  1  0  0  0  0  0  0
  183.1390  175.4560  136.1580 P   0  0  1  0  0  0  0  0  0  0  0  0
  183.1910  175.7750  134.4970 O   0  0  0  0  0  0  0  0  0  0  0  0
  182.9460  173.6680  136.4180 C   0  0  0  0  0  2  0  0  0  0  0  0
  183.8030  172.8960  135.4310 C   0  0  0  0  0  2  0  0  0  0  0  0
  185.0870  170.9930  136.1790 O   0  0  0  0  0  1  0  0  0  0  0  0
  183.8170  171.3900  135.7300 C   0  0  1  0  0  0  0  0  0  0  0  0
  182.7750  171.0910  136.8040 C   0  0  0  0  0  2  0  0  0  0  0  0
  181.7400  170.2900  136.2980 O   0  0  0  0  0  0  0  0  0  0  0  0
  180.9380  171.8960  134.7490 O   0  0  0  0  0  0  0  0  0  0  0  0
  180.0150  171.8670  136.9030 O   0  0  0  0  0  1  0  0  0  0  0  0
  180.7020  171.1580  135.9210 C   0  0  2  0  0  0  0  0  0  0  0  0
  179.9830  170.8520  134.6710 C   0  0  0  0  0  2  0  0  0  0  0  0
  183.4560  170.6180  134.4520 C   0  0  0  0  0  2  0  0  0  0  0  0
  184.0640  169.2510  134.4230 C   0  0  0  0  0  0  0  0  0  0  0  0
  183.2320  168.1020  134.5210 N   0  0  0  0  0  1  0  0  0  0  0  0
  185.3160  169.1190  134.4200 O   0  0  0  0  0  0  0  0  0  0  0  0
  187.7490  169.9430  135.5840 C   0  0  0  0  0  3  0  0  0  0  0  0
  187.9150  171.1350  135.7010 C   0  0  0  0  0  0  0  0  0  0  0  0
  191.6410  177.0220  142.4910 C   0  0  0  0  0  3  0  0  0  0  0  0
  188.2050  178.8120  144.0170 O   0  0  0  0  0  0  0  0  0  0  0  0
  189.4510  177.3800  142.6700 N   0  0  0  0  0  0  0  0  0  0  0  0
  188.2100  177.8540  143.1950 C   0  0  0  0  0  0  0  0  0  0  0  0
  189.7080  177.1700  141.3690 C   0  0  0  0  0  3  0  0  0  0  0  0
  191.0650  176.9440  141.2320 C   0  0  0  0  0  0  0  0  0  0  0  0
  186.9760  177.2460  142.7940 N   0  0  0  0  0  2  0  0  0  0  0  0
  190.6040  177.3080  143.3590 C   0  0  0  0  0  3  0  0  0  0  0  0
  184.7890  177.8590  141.8750 C   0  0  0  0  0  3  0  0  0  0  0  0
  183.2560  179.2100  143.1750 C   0  0  0  0  0  3  0  0  0  0  0  0
  185.4320  178.6650  144.0690 C   0  0  0  0  0  3  0  0  0  0  0  0
  185.7280  177.9320  142.9100 C   0  0  0  0  0  0  0  0  0  0  0  0
  184.1990  179.3040  144.2000 C   0  0  0  0  0  3  0  0  0  0  0  0
  183.5460  178.4860  142.0070 C   0  0  0  0  0  0  0  0  0  0  0  0
  181.0490  179.7860  142.0710 O   0  0  0  0  0  0  0  0  0  0  0  0
  181.2670  178.9800  141.1230 C   0  0  0  0  0  0  0  0  0  0  0  0
  182.5520  178.3480  140.9790 N   0  0  0  0  0  0  0  0  0  0  0  0
  182.4450  176.3030  139.8930 O   0  0  0  0  0  1  0  0  0  0  0  0
  182.7870  177.5010  139.8770 N   0  0  0  0  0  2  0  0  0  0  0  0
  180.1790  178.7270  140.1270 C   0  0  0  0  0  2  0  0  0  0  0  0
  180.2500  179.7300  138.9780 C   0  0  0  0  0  2  0  0  0  0  0  0
  181.4970  181.6760  138.3690 O   0  0  0  0  0  1  0  0  0  0  0  0
  180.8600  181.0430  139.4370 C   0  0  0  0  0  2  0  0  0  0  0  0
  1  2  1  0  0  0  0
  2  8  2  0  0  0  0
  3  7  2  0  0  0  0
  5  4  2  0  0  0  0
  5 49  1  0  0  0  0
  7  5  1  0  0  0  0
  8  4  1  0  0  0  0
  9  6  1  6  0  0  0
  9  3  1  0  0  0  0
  9  2  1  0  0  0  0
 10  6  2  0  0  0  0
 11  6  1  0  0  0  0
 11  1  1  0  0  0  0
 12 17  1  0  0  0  0
 13 21  1  0  0  0  0
 13 15  2  0  0  0  0
 15 14  2  0  0  0  0
 16 19  1  6  0  0  0
 16 24  1  0  0  0  0
 16 12  1  0  0  0  0
 17 23  1  0  0  0  0
 17  3  1  0  0  0  0
 18 22  1  0  0  0  0
 20 43  1  1  0  0  0
 20 21  1  0  0  0  0
 20 22  1  0  0  0  0
 23 18  1  6  0  0  0
 24 13  1  1  0  0  0
 24 23  1  0  0  0  0
 26 27  2  6  0  0  0
 26 28  1  0  0  0  0
 26 25  1  0  0  0  0
 26 14  1  0  0  0  0
 29 31  1  0  0  0  0
 29 28  1  0  0  0  0
 31 30  1  1  0  0  0
 31 32  1  0  0  0  0
 33 32  1  0  0  0  0
 34 36  1  0  0  0  0
 36 33  1  0  0  0  0
 36 35  1  1  0  0  0
 37 34  1  0  0  0  0
 37 36  1  0  0  0  0
 38 31  1  0  0  0  0
 39 38  1  0  0  0  0
 39 40  1  0  0  0  0
 41 39  2  0  0  0  0
 42 43  3  0  0  0  0
 44 51  2  0  0  0  0
 46 47  1  0  0  0  0
 46 51  1  0  0  0  0
 47 45  2  0  0  0  0
 48 46  1  0  0  0  0
 49 48  2  0  0  0  0
 49 44  1  0  0  0  0
 50 55  1  0  0  0  0
 50 47  1  0  0  0  0
 52 57  2  0  0  0  0
 52 55  1  0  0  0  0
 53 56  2  0  0  0  0
 54 56  1  0  0  0  0
 55 54  2  0  0  0  0
 57 53  1  0  0  0  0
 59 58  2  0  0  0  0
 60 59  1  0  0  0  0
 60 57  1  0  0  0  0
 62 61  1  0  0  0  0
 62 60  1  0  0  0  0
 63 59  1  0  0  0  0
 64 66  1  0  0  0  0
 64 63  1  0  0  0  0
 65 66  1  0  0  0  0
M  END
>  <MODEL>
4

>  <REMARK>
 VINA RESULT:      -4.9      3.242      9.764
  Name = 
  18 active torsions:
  status: ('A' for Active; 'I' for Inactive)
    1  A    between atoms: C_5  and  P_37
    2  A    between atoms: C_9  and  N_26
    3  A    between atoms: O_10  and  C_19
    4  A    between atoms: O_10  and  C_38
    5  A    between atoms: C_13  and  C_58
    6  A    between atoms: C_25  and  C_30
    7  A    between atoms: C_25  and  C_53
    8  A    between atoms: C_30  and  P_37
    9  A    between atoms: C_32  and  C_35
   10  A    between atoms: C_36  and  N_59
   11  A    between atoms: C_38  and  C_53
   12  A    between atoms: C_42  and  C_49
   13  A    between atoms: C_42  and  C_57
   14  A    between atoms: C_43  and  C_44
   15  A    between atoms: C_43  and  C_53
   16  A    between atoms: C_45  and  C_57
   17  A    between atoms: N_50  and  N_62
   18  A    between atoms: N_50  and  C_64
                            x       y       z     vdW  Elec       q    Type
                         _______ _______ _______ _____ _____    ______ ____

>  <TORSDO>
F 18

$$$$
=
 OpenBabel10232410133D

 66 72  0  0  1  0  0  0  0  0999 V2000
  187.2020  168.8640  135.6370 N   0  0  0  0  0  0  0  0  0  0  0  0
  186.4180  170.0180  135.3590 C   0  0  0  0  0  0  0  0  0  0  0  0
  187.1360  172.4580  135.3810 C   0  0  0  0  0  0  0  0  0  0  0  0
  184.2460  171.2120  135.5840 C   0  0  0  0  0  3  0  0  0  0  0  0
  184.5800  172.5100  135.6030 C   0  0  0  0  0  0  0  0  0  0  0  0
  188.5900  170.4630  134.8360 C   0  0  0  0  0  0  0  0  0  0  0  0
  185.9630  173.0300  135.6880 C   0  0  0  0  0  3  0  0  0  0  0  0
  185.1270  170.0440  135.6500 C   0  0  0  0  0  2  0  0  0  0  0  0
  187.2320  171.1080  134.7080 C   0  0  1  0  0  3  0  0  0  0  0  0
  189.6910  170.9920  134.5200 O   0  0  0  0  0  0  0  0  0  0  0  0
  188.5030  169.1810  135.3440 O   0  0  0  0  0  0  0  0  0  0  0  0
  189.4440  172.9880  134.5440 C   0  0  0  0  0  2  0  0  0  0  0  0
  190.7970  174.8710  137.5210 C   0  0  0  0  0  0  0  0  0  0  0  0
  193.1150  173.7870  138.0330 C   0  0  0  0  0  3  0  0  0  0  0  0
  191.9510  174.3120  137.7790 C   0  0  0  0  0  0  0  0  0  0  0  0
  190.6420  173.5280  135.3080 C   0  0  1  0  0  3  0  0  0  0  0  0
  188.2700  173.3320  135.3390 N   0  0  0  0  0  0  0  0  0  0  0  0
  187.7470  175.2330  136.7010 N   0  0  0  0  0  2  0  0  0  0  0  0
  191.6410  174.1490  134.3460 C   0  0  0  0  0  1  0  0  0  0  0  0
  189.0540  176.6530  137.9770 C   0  0  1  0  0  3  0  0  0  0  0  0
  190.3170  175.9420  138.4690 C   0  0  0  0  0  2  0  0  0  0  0  0
  187.9200  175.7340  138.0060 N   0  0  0  0  0  2  0  0  0  0  0  0
  188.6420  174.0960  136.5170 C   0  0  2  0  0  3  0  0  0  0  0  0
  190.0480  174.5840  136.2360 C   0  0  1  0  0  3  0  0  0  0  0  0
  193.9680  176.1080  139.1420 O   0  0  0  0  0  0  0  0  0  0  0  0
  194.4880  174.8450  138.4890 P   0  0  1  0  0  0  0  0  0  0  0  0
  195.4800  174.0170  139.5830 O   0  0  0  0  0  1  0  0  0  0  0  0
  195.4530  175.2700  137.0100 C   0  0  0  0  0  2  0  0  0  0  0  0
  195.1380  174.3080  135.8800 C   0  0  0  0  0  2  0  0  0  0  0  0
  196.3140  172.8610  134.3460 O   0  0  0  0  0  1  0  0  0  0  0  0
  196.2390  173.2550  135.6920 C   0  0  1  0  0  0  0  0  0  0  0  0
  197.5740  173.8530  136.1270 C   0  0  0  0  0  2  0  0  0  0  0  0
  197.9770  173.3430  137.3710 O   0  0  0  0  0  0  0  0  0  0  0  0
  199.9060  174.6330  136.8860 O   0  0  0  0  0  0  0  0  0  0  0  0
  200.1520  172.3180  137.1570 O   0  0  0  0  0  1  0  0  0  0  0  0
  199.3760  173.4450  137.4180 C   0  0  2  0  0  0  0  0  0  0  0  0
  199.9520  174.4820  138.2940 C   0  0  0  0  0  2  0  0  0  0  0  0
  195.9270  172.0330  136.5700 C   0  0  0  0  0  2  0  0  0  0  0  0
  195.0400  171.0470  135.8770 C   0  0  0  0  0  0  0  0  0  0  0  0
  193.6540  171.3240  135.7220 N   0  0  0  0  0  1  0  0  0  0  0  0
  195.4990  169.9270  135.5270 O   0  0  0  0  0  0  0  0  0  0  0  0
  188.5100  178.7880  139.4940 C   0  0  0  0  0  3  0  0  0  0  0  0
  188.7700  177.8280  138.8060 C   0  0  0  0  0  0  0  0  0  0  0  0
  182.2910  173.5070  135.0590 C   0  0  0  0  0  3  0  0  0  0  0  0
  180.4570  175.6920  138.0920 O   0  0  0  0  0  0  0  0  0  0  0  0
  182.1890  175.0180  136.6900 N   0  0  0  0  0  0  0  0  0  0  0  0
  181.6310  175.8910  137.6740 C   0  0  0  0  0  0  0  0  0  0  0  0
  183.3970  174.4390  136.7680 C   0  0  0  0  0  3  0  0  0  0  0  0
  183.4860  173.4950  135.7630 C   0  0  0  0  0  0  0  0  0  0  0  0
  182.3990  176.9880  138.1840 N   0  0  0  0  0  2  0  0  0  0  0  0
  181.5030  174.4610  135.6760 C   0  0  0  0  0  3  0  0  0  0  0  0
  183.0940  177.7160  140.4190 C   0  0  0  0  0  3  0  0  0  0  0  0
  181.5260  178.8520  141.8730 C   0  0  0  0  0  3  0  0  0  0  0  0
  180.8090  178.0870  139.6970 C   0  0  0  0  0  3  0  0  0  0  0  0
  182.0980  177.5940  139.4430 C   0  0  0  0  0  0  0  0  0  0  0  0
  180.5230  178.7130  140.9110 C   0  0  0  0  0  3  0  0  0  0  0  0
  182.8170  178.3550  141.6320 C   0  0  0  0  0  0  0  0  0  0  0  0
  182.4350  178.0520  144.4040 O   0  0  0  0  0  0  0  0  0  0  0  0
  183.5650  178.4550  144.0080 C   0  0  0  0  0  0  0  0  0  0  0  0
  183.8570  178.5490  142.6020 N   0  0  0  0  0  0  0  0  0  0  0  0
  185.9730  178.1160  141.7610 O   0  0  0  0  0  1  0  0  0  0  0  0
  185.1460  178.9430  142.1880 N   0  0  0  0  0  2  0  0  0  0  0  0
  184.6080  178.7940  145.0260 C   0  0  0  0  0  2  0  0  0  0  0  0
  185.4720  177.5760  145.3440 C   0  0  0  0  0  2  0  0  0  0  0  0
  187.2210  177.1400  146.9130 O   0  0  0  0  0  1  0  0  0  0  0  0
  186.8290  177.9950  145.8840 C   0  0  0  0  0  2  0  0  0  0  0  0
  2  1  2  0  0  0  0
  2  8  1  0  0  0  0
  3  7  2  0  0  0  0
  4  5  2  0  0  0  0
  4  8  1  0  0  0  0
  5  7  1  0  0  0  0
  5 49  1  0  0  0  0
  6 11  1  0  0  0  0
  9  6  1  1  0  0  0
  9  2  1  0  0  0  0
  9  3  1  0  0  0  0
 10  6  2  0  0  0  0
 11  1  1  0  0  0  0
 12 16  1  0  0  0  0
 12 17  1  0  0  0  0
 13 15  2  0  0  0  0
 13 21  1  0  0  0  0
 14 26  1  0  0  0  0
 15 14  2  0  0  0  0
 16 19  1  6  0  0  0
 16 24  1  0  0  0  0
 17  3  1  0  0  0  0
 17 23  1  0  0  0  0
 18 22  1  0  0  0  0
 20 22  1  0  0  0  0
 20 21  1  0  0  0  0
 20 43  1  1  0  0  0
 23 18  1  6  0  0  0
 24 23  1  0  0  0  0
 24 13  1  1  0  0  0
 26 25  2  1  0  0  0
 26 27  1  0  0  0  0
 28 26  1  0  0  0  0
 29 28  1  0  0  0  0
 31 30  1  6  0  0  0
 31 29  1  0  0  0  0
 31 32  1  0  0  0  0
 31 38  1  0  0  0  0
 32 33  1  0  0  0  0
 33 36  1  0  0  0  0
 34 36  1  0  0  0  0
 34 37  1  0  0  0  0
 36 35  1  6  0  0  0
 36 37  1  0  0  0  0
 39 38  1  0  0  0  0
 40 39  1  0  0  0  0
 41 39  2  0  0  0  0
 43 42  3  0  0  0  0
 44 51  2  0  0  0  0
 44 49  1  0  0  0  0
 46 48  1  0  0  0  0
 46 47  1  0  0  0  0
 47 45  2  0  0  0  0
 47 50  1  0  0  0  0
 49 48  2  0  0  0  0
 50 55  1  0  0  0  0
 51 46  1  0  0  0  0
 52 57  1  0  0  0  0
 54 56  2  0  0  0  0
 55 54  1  0  0  0  0
 55 52  2  0  0  0  0
 56 53  1  0  0  0  0
 57 53  2  0  0  0  0
 57 60  1  0  0  0  0
 59 58  2  0  0  0  0
 59 63  1  0  0  0  0
 60 59  1  0  0  0  0
 61 62  1  0  0  0  0
 62 60  1  0  0  0  0
 63 64  1  0  0  0  0
 64 66  1  0  0  0  0
 66 65  1  0  0  0  0
M  END
>  <MODEL>
5

>  <REMARK>
 VINA RESULT:      -4.6      2.382      3.821
  Name = 
  18 active torsions:
  status: ('A' for Active; 'I' for Inactive)
    1  A    between atoms: C_5  and  P_37
    2  A    between atoms: C_9  and  N_26
    3  A    between atoms: O_10  and  C_19
    4  A    between atoms: O_10  and  C_38
    5  A    between atoms: C_13  and  C_58
    6  A    between atoms: C_25  and  C_30
    7  A    between atoms: C_25  and  C_53
    8  A    between atoms: C_30  and  P_37
    9  A    between atoms: C_32  and  C_35
   10  A    between atoms: C_36  and  N_59
   11  A    between atoms: C_38  and  C_53
   12  A    between atoms: C_42  and  C_49
   13  A    between atoms: C_42  and  C_57
   14  A    between atoms: C_43  and  C_44
   15  A    between atoms: C_43  and  C_53
   16  A    between atoms: C_45  and  C_57
   17  A    between atoms: N_50  and  N_62
   18  A    between atoms: N_50  and  C_64
                            x       y       z     vdW  Elec       q    Type
                         _______ _______ _______ _____ _____    ______ ____

>  <TORSDO>
F 18

$$$$
=
 OpenBabel10232410133D

 66 72  0  0  1  0  0  0  0  0999 V2000
  184.7140  178.5140  146.4280 N   0  0  0  0  0  2  0  0  0  0  0  0
  185.4470  178.6790  145.2210 C   0  0  0  0  0  0  0  0  0  0  0  0
  184.6840  178.2320  142.8350 C   0  0  0  0  0  0  0  0  0  0  0  0
  187.6060  178.4560  144.0020 C   0  0  0  0  0  3  0  0  0  0  0  0
  187.2470  178.2150  142.7320 C   0  0  0  0  0  0  0  0  0  0  0  0
  183.2300  178.9500  144.7750 C   0  0  0  0  0  0  0  0  0  0  0  0
  185.8660  177.9400  142.2760 C   0  0  0  0  0  3  0  0  0  0  0  0
  186.7570  178.4940  145.1950 C   0  0  0  0  0  3  0  0  0  0  0  0
  184.5580  179.0910  144.0740 C   0  0  1  0  0  3  0  0  0  0  0  0
  182.0950  179.0930  144.2420 O   0  0  0  0  0  0  0  0  0  0  0  0
  183.3860  178.6500  146.1140 O   0  0  0  0  0  0  0  0  0  0  0  0
  182.9070  176.7390  141.8740 C   0  0  0  0  0  2  0  0  0  0  0  0
  182.4240  178.3850  138.5140 C   0  0  0  0  0  0  0  0  0  0  0  0
  182.5480  176.4480  136.7680 C   0  0  0  0  0  3  0  0  0  0  0  0
  182.5020  177.4100  137.6450 C   0  0  0  0  0  0  0  0  0  0  0  0
  182.3890  176.6570  140.4480 C   0  0  1  0  0  3  0  0  0  0  0  0
  183.5320  178.0500  142.0030 N   0  0  0  0  0  0  0  0  0  0  0  0
  182.9940  180.1900  141.0670 N   0  0  0  0  0  2  0  0  0  0  0  0
  181.0210  175.9980  140.4240 C   0  0  0  0  0  1  0  0  0  0  0  0
  182.0220  180.8250  139.0660 C   0  0  1  0  0  3  0  0  0  0  0  0
  182.2880  179.7870  137.9740 C   0  0  0  0  0  2  0  0  0  0  0  0
  183.2010  180.9710  139.9140 N   0  0  0  0  0  2  0  0  0  0  0  0
  183.3940  178.8180  140.7770 C   0  0  2  0  0  3  0  0  0  0  0  0
  182.3020  178.1140  139.9990 C   0  0  1  0  0  3  0  0  0  0  0  0
  179.9930  176.6390  135.8840 O   0  0  0  0  0  1  0  0  0  0  0  0
  181.4100  176.4520  135.3840 P   0  0  1  0  0  0  0  0  0  0  0  0
  181.8100  177.7280  134.3460 O   0  0  0  0  0  0  0  0  0  0  0  0
  181.5400  174.8820  134.4780 C   0  0  0  0  0  2  0  0  0  0  0  0
  182.9380  174.3090  134.6150 C   0  0  0  0  0  2  0  0  0  0  0  0
  184.0640  172.1800  134.4440 O   0  0  0  0  0  1  0  0  0  0  0  0
  182.9190  172.8120  134.9550 C   0  0  1  0  0  0  0  0  0  0  0  0
  182.8760  172.6500  136.4720 C   0  0  0  0  0  2  0  0  0  0  0  0
  184.0760  172.1080  136.9580 O   0  0  0  0  0  0  0  0  0  0  0  0
  186.0170  172.8670  138.0880 O   0  0  0  0  0  0  0  0  0  0  0  0
  184.3300  174.4200  137.6030 O   0  0  0  0  0  1  0  0  0  0  0  0
  184.9050  173.1900  137.2920 C   0  0  2  0  0  0  0  0  0  0  0  0
  186.2700  173.1970  136.7330 C   0  0  0  0  0  2  0  0  0  0  0  0
  181.6620  172.1700  134.3470 C   0  0  0  0  0  2  0  0  0  0  0  0
  181.1250  171.0590  135.1920 C   0  0  0  0  0  0  0  0  0  0  0  0
  181.7250  169.7700  135.1360 N   0  0  0  0  0  1  0  0  0  0  0  0
  180.0780  171.2340  135.8700 O   0  0  0  0  0  0  0  0  0  0  0  0
  181.3620  183.1690  137.9600 C   0  0  0  0  0  3  0  0  0  0  0  0
  181.6670  182.1160  138.4720 C   0  0  0  0  0  0  0  0  0  0  0  0
  189.6920  178.0770  142.0010 C   0  0  0  0  0  3  0  0  0  0  0  0
  190.5070  175.6490  138.7180 O   0  0  0  0  0  0  0  0  0  0  0  0
  189.3820  177.2730  139.9480 N   0  0  0  0  0  0  0  0  0  0  0  0
  189.6380  176.5640  138.7350 C   0  0  0  0  0  0  0  0  0  0  0  0
  188.1650  177.4970  140.4690 C   0  0  0  0  0  3  0  0  0  0  0  0
  188.3310  177.9990  141.7460 C   0  0  0  0  0  0  0  0  0  0  0  0
  188.9140  176.8890  137.5410 N   0  0  0  0  0  2  0  0  0  0  0  0
  190.3140  177.6040  140.8600 C   0  0  0  0  0  3  0  0  0  0  0  0
  189.6820  174.8900  136.3520 C   0  0  0  0  0  3  0  0  0  0  0  0
  188.4910  174.1010  134.3970 C   0  0  0  0  0  3  0  0  0  0  0  0
  187.7580  176.1090  135.5230 C   0  0  0  0  0  3  0  0  0  0  0  0
  188.7890  175.9610  136.4630 C   0  0  0  0  0  0  0  0  0  0  0  0
  187.6100  175.1810  134.4910 C   0  0  0  0  0  3  0  0  0  0  0  0
  189.5310  173.9490  135.3280 C   0  0  0  0  0  0  0  0  0  0  0  0
  192.0950  173.8720  136.4880 O   0  0  0  0  0  0  0  0  0  0  0  0
  191.7280  172.8730  135.8070 C   0  0  0  0  0  0  0  0  0  0  0  0
  190.3990  172.8080  135.2590 N   0  0  0  0  0  0  0  0  0  0  0  0
  189.6180  170.6280  135.1510 O   0  0  0  0  0  1  0  0  0  0  0  0
  189.9970  171.6540  134.5550 N   0  0  0  0  0  2  0  0  0  0  0  0
  192.6860  171.7400  135.6160 C   0  0  0  0  0  2  0  0  0  0  0  0
  193.8660  171.8560  136.5790 C   0  0  0  0  0  2  0  0  0  0  0  0
  195.6250  170.3360  136.0260 O   0  0  0  0  0  1  0  0  0  0  0  0
  194.4990  170.4990  136.8330 C   0  0  0  0  0  2  0  0  0  0  0  0
  2  1  1  0  0  0  0
  4  8  1  0  0  0  0
  5  4  2  0  0  0  0
  6 11  1  0  0  0  0
  7  5  1  0  0  0  0
  7  3  2  0  0  0  0
  8  2  2  0  0  0  0
  9  3  1  6  0  0  0
  9  6  1  0  0  0  0
  9  2  1  0  0  0  0
 10  6  2  0  0  0  0
 11  1  1  0  0  0  0
 12 17  1  0  0  0  0
 14 15  2  0  0  0  0
 15 13  2  0  0  0  0
 16 19  1  1  0  0  0
 16 12  1  0  0  0  0
 17  3  1  0  0  0  0
 20 43  1  6  0  0  0
 20 22  1  0  0  0  0
 21 13  1  0  0  0  0
 21 20  1  0  0  0  0
 22 18  1  0  0  0  0
 23 18  1  1  0  0  0
 23 17  1  0  0  0  0
 24 13  1  6  0  0  0
 24 16  1  0  0  0  0
 24 23  1  0  0  0  0
 26 27  2  6  0  0  0
 26 25  1  0  0  0  0
 26 14  1  0  0  0  0
 28 29  1  0  0  0  0
 28 26  1  0  0  0  0
 29 31  1  0  0  0  0
 31 30  1  6  0  0  0
 31 32  1  0  0  0  0
 32 33  1  0  0  0  0
 33 36  1  0  0  0  0
 36 35  1  1  0  0  0
 36 34  1  0  0  0  0
 37 36  1  0  0  0  0
 37 34  1  0  0  0  0
 38 31  1  0  0  0  0
 38 39  1  0  0  0  0
 39 41  2  0  0  0  0
 40 39  1  0  0  0  0
 42 43  3  0  0  0  0
 45 47  2  0  0  0  0
 46 48  1  0  0  0  0
 46 51  1  0  0  0  0
 47 46  1  0  0  0  0
 48 49  2  0  0  0  0
 49 44  1  0  0  0  0
 49  5  1  0  0  0  0
 50 47  1  0  0  0  0
 51 44  2  0  0  0  0
 52 55  1  0  0  0  0
 53 56  2  0  0  0  0
 53 57  1  0  0  0  0
 54 55  2  0  0  0  0
 55 50  1  0  0  0  0
 56 54  1  0  0  0  0
 57 52  2  0  0  0  0
 59 58  2  0  0  0  0
 60 57  1  0  0  0  0
 60 59  1  0  0  0  0
 62 61  1  0  0  0  0
 62 60  1  0  0  0  0
 63 59  1  0  0  0  0
 63 64  1  0  0  0  0
 64 66  1  0  0  0  0
 65 66  1  0  0  0  0
M  END
>  <MODEL>
6

>  <REMARK>
 VINA RESULT:      -3.8      3.206     10.970
  Name = 
  18 active torsions:
  status: ('A' for Active; 'I' for Inactive)
    1  A    between atoms: C_5  and  P_37
    2  A    between atoms: C_9  and  N_26
    3  A    between atoms: O_10  and  C_19
    4  A    between atoms: O_10  and  C_38
    5  A    between atoms: C_13  and  C_58
    6  A    between atoms: C_25  and  C_30
    7  A    between atoms: C_25  and  C_53
    8  A    between atoms: C_30  and  P_37
    9  A    between atoms: C_32  and  C_35
   10  A    between atoms: C_36  and  N_59
   11  A    between atoms: C_38  and  C_53
   12  A    between atoms: C_42  and  C_49
   13  A    between atoms: C_42  and  C_57
   14  A    between atoms: C_43  and  C_44
   15  A    between atoms: C_43  and  C_53
   16  A    between atoms: C_45  and  C_57
   17  A    between atoms: N_50  and  N_62
   18  A    between atoms: N_50  and  C_64
                            x       y       z     vdW  Elec       q    Type
                         _______ _______ _______ _____ _____    ______ ____

>  <TORSDO>
F 18

$$$$
=
 OpenBabel10232410133D

 66 73  0  0  1  0  0  0  0  0999 V2000
  185.1460  179.1610  146.6150 N   0  0  0  0  0  2  0  0  0  0  0  0
  184.5720  178.6830  145.4070 C   0  0  0  0  0  0  0  0  0  0  0  0
  185.5880  178.6600  143.0740 C   0  0  0  0  0  0  0  0  0  0  0  0
  182.5650  178.4680  143.9500 C   0  0  0  0  0  3  0  0  0  0  0  0
  183.0580  178.4550  142.7040 C   0  0  0  0  0  0  0  0  0  0  0  0
  186.8370  178.4940  145.2660 C   0  0  2  0  0  3  0  0  0  0  0  0
  184.4670  178.7310  142.3440 C   0  0  0  0  0  3  0  0  0  0  0  0
  183.2660  178.7550  145.2030 C   0  0  0  0  0  3  0  0  0  0  0  0
  185.6110  178.1020  144.4800 C   0  0  1  0  0  3  0  0  0  0  0  0
  188.0340  178.3280  144.9000 O   0  0  0  0  0  0  0  0  0  0  0  0
  186.5070  179.0650  146.4800 O   0  0  0  0  0  0  0  0  0  0  0  0
  186.9090  179.5390  141.1270 C   0  0  0  0  0  2  0  0  0  0  0  0
  189.2720  176.6480  140.5870 C   0  0  0  0  0  0  0  0  0  0  0  0
  189.1510  176.1210  138.0330 C   0  0  0  0  0  3  0  0  0  0  0  0
  189.1940  176.3820  139.3080 C   0  0  0  0  0  0  0  0  0  0  0  0
  187.8850  178.8090  140.2200 C   0  0  1  0  0  3  0  0  0  0  0  0
  186.8200  178.7460  142.3470 N   0  0  0  0  0  0  0  0  0  0  0  0
  188.4390  177.4490  143.5480 N   0  0  1  0  0  0  0  0  0  0  0  0
  188.7970  179.8030  139.5210 C   0  0  0  0  0  1  0  0  0  0  0  0
  190.2910  176.2400  142.8700 C   0  0  1  0  0  3  0  0  0  0  0  0
  190.1220  175.7360  141.4350 C   0  0  0  0  0  2  0  0  0  0  0  0
  189.0170  176.1650  143.5790 N   0  0  0  0  0  2  0  0  0  0  0  0
  187.7120  177.6000  142.2920 C   0  0  2  0  0  3  0  0  0  0  0  0
  188.6780  177.9140  141.1690 C   0  0  1  0  0  3  0  0  0  0  0  0
  190.3610  174.7450  136.0360 O   0  0  0  0  0  0  0  0  0  0  0  0
  190.6620  175.7180  137.1560 P   0  0  1  0  0  0  0  0  0  0  0  0
  191.3140  177.1380  136.5050 O   0  0  0  0  0  1  0  0  0  0  0  0
  191.8600  174.9810  138.3050 C   0  0  0  0  0  2  0  0  0  0  0  0
  192.9730  174.2930  137.5370 C   0  0  0  0  0  2  0  0  0  0  0  0
  194.1230  176.2730  138.3040 O   0  0  0  0  0  1  0  0  0  0  0  0
  194.2460  175.1480  137.4720 C   0  0  1  0  0  0  0  0  0  0  0  0
  195.4330  174.3020  137.9250 C   0  0  0  0  0  2  0  0  0  0  0  0
  196.0680  174.8730  139.0390 O   0  0  0  0  0  0  0  0  0  0  0  0
  198.2460  175.7720  138.7860 O   0  0  0  0  0  0  0  0  0  0  0  0
  197.8640  173.5650  138.0970 O   0  0  0  0  0  1  0  0  0  0  0  0
  197.4420  174.6250  138.8950 C   0  0  2  0  0  0  0  0  0  0  0  0
  198.3260  175.0430  139.9980 C   0  0  0  0  0  2  0  0  0  0  0  0
  194.4780  175.6030  136.0230 C   0  0  0  0  0  2  0  0  0  0  0  0
  195.9010  175.4370  135.5950 C   0  0  0  0  0  0  0  0  0  0  0  0
  196.3280  174.2170  135.0030 N   0  0  0  0  0  1  0  0  0  0  0  0
  196.7450  176.3360  135.8550 O   0  0  0  0  0  0  0  0  0  0  0  0
  192.1610  174.8220  144.1530 C   0  0  0  0  0  3  0  0  0  0  0  0
  191.3060  175.4520  143.5750 C   0  0  0  0  0  0  0  0  0  0  0  0
  181.2380  179.3780  141.1660 C   0  0  0  0  0  3  0  0  0  0  0  0
  180.9510  177.6460  137.3900 O   0  0  0  0  0  0  0  0  0  0  0  0
  181.1470  177.6970  139.7090 N   0  0  0  0  0  0  0  0  0  0  0  0
  180.9510  177.0030  138.4760 C   0  0  0  0  0  0  0  0  0  0  0  0
  182.0160  177.3380  140.6670 C   0  0  0  0  0  3  0  0  0  0  0  0
  182.0890  178.3670  141.5870 C   0  0  0  0  0  0  0  0  0  0  0  0
  180.7540  175.5830  138.4700 N   0  0  0  0  0  2  0  0  0  0  0  0
  180.6780  178.9270  139.9850 C   0  0  0  0  0  3  0  0  0  0  0  0
  182.2140  174.1050  137.1710 C   0  0  0  0  0  3  0  0  0  0  0  0
  181.4580  173.1920  135.0600 C   0  0  0  0  0  3  0  0  0  0  0  0
  180.0310  174.6970  136.2990 C   0  0  0  0  0  3  0  0  0  0  0  0
  181.0040  174.7960  137.3040 C   0  0  0  0  0  0  0  0  0  0  0  0
  180.2580  173.8980  135.1780 C   0  0  0  0  0  3  0  0  0  0  0  0
  182.4420  173.2910  136.0570 C   0  0  0  0  0  0  0  0  0  0  0  0
  184.7270  174.1560  134.6580 O   0  0  0  0  0  0  0  0  0  0  0  0
  184.7480  172.9950  135.1560 C   0  0  0  0  0  0  0  0  0  0  0  0
  183.6490  172.5210  135.9570 N   0  0  0  0  0  0  0  0  0  0  0  0
  182.7580  170.4610  136.5360 O   0  0  0  0  0  1  0  0  0  0  0  0
  183.7260  171.2450  136.5500 N   0  0  0  0  0  2  0  0  0  0  0  0
  185.9520  172.1360  134.9330 C   0  0  0  0  0  2  0  0  0  0  0  0
  186.8490  172.1260  136.1690 C   0  0  0  0  0  2  0  0  0  0  0  0
  188.6070  170.9100  135.1000 O   0  0  0  0  0  1  0  0  0  0  0  0
  188.3170  172.0940  135.7780 C   0  0  0  0  0  2  0  0  0  0  0  0
  2  1  1  0  0  0  0
  4  8  1  0  0  0  0
  5  4  2  0  0  0  0
  6 10  1  1  0  0  0
  6 11  1  0  0  0  0
  7  5  1  0  0  0  0
  7  3  2  0  0  0  0
  8  2  2  0  0  0  0
  9  3  1  6  0  0  0
  9  6  1  0  0  0  0
  9  2  1  0  0  0  0
 11  1  1  0  0  0  0
 12 17  1  0  0  0  0
 13 21  1  0  0  0  0
 14 15  2  0  0  0  0
 15 13  2  0  0  0  0
 16 19  1  1  0  0  0
 16 12  1  0  0  0  0
 16 24  1  0  0  0  0
 17  3  1  0  0  0  0
 18 22  1  1  0  0  0
 18 10  1  0  0  0  0
 20 43  1  1  0  0  0
 20 22  1  0  0  0  0
 21 20  1  0  0  0  0
 23 17  1  1  0  0  0
 23 18  1  0  0  0  0
 24 13  1  6  0  0  0
 24 23  1  0  0  0  0
 26 25  2  6  0  0  0
 26 14  1  0  0  0  0
 26 28  1  0  0  0  0
 27 26  1  0  0  0  0
 29 28  1  0  0  0  0
 31 29  1  0  0  0  0
 31 32  1  0  0  0  0
 31 30  1  1  0  0  0
 32 33  1  0  0  0  0
 34 36  1  0  0  0  0
 34 37  1  0  0  0  0
 36 35  1  6  0  0  0
 36 33  1  0  0  0  0
 36 37  1  0  0  0  0
 38 31  1  0  0  0  0
 39 41  2  0  0  0  0
 39 38  1  0  0  0  0
 40 39  1  0  0  0  0
 43 42  3  0  0  0  0
 44 49  1  0  0  0  0
 45 47  2  0  0  0  0
 46 51  1  0  0  0  0
 46 48  1  0  0  0  0
 47 46  1  0  0  0  0
 48 49  2  0  0  0  0
 49  5  1  0  0  0  0
 50 47  1  0  0  0  0
 51 44  2  0  0  0  0
 52 55  1  0  0  0  0
 53 56  2  0  0  0  0
 53 57  1  0  0  0  0
 54 55  2  0  0  0  0
 55 50  1  0  0  0  0
 56 54  1  0  0  0  0
 57 52  2  0  0  0  0
 58 59  2  0  0  0  0
 59 60  1  0  0  0  0
 60 57  1  0  0  0  0
 60 62  1  0  0  0  0
 61 62  1  0  0  0  0
 63 59  1  0  0  0  0
 63 64  1  0  0  0  0
 65 66  1  0  0  0  0
 66 64  1  0  0  0  0
M  END
>  <MODEL>
7

>  <REMARK>
 VINA RESULT:      -3.8      2.383      8.161
  Name = 
  18 active torsions:
  status: ('A' for Active; 'I' for Inactive)
    1  A    between atoms: C_5  and  P_37
    2  A    between atoms: C_9  and  N_26
    3  A    between atoms: O_10  and  C_19
    4  A    between atoms: O_10  and  C_38
    5  A    between atoms: C_13  and  C_58
    6  A    between atoms: C_25  and  C_30
    7  A    between atoms: C_25  and  C_53
    8  A    between atoms: C_30  and  P_37
    9  A    between atoms: C_32  and  C_35
   10  A    between atoms: C_36  and  N_59
   11  A    between atoms: C_38  and  C_53
   12  A    between atoms: C_42  and  C_49
   13  A    between atoms: C_42  and  C_57
   14  A    between atoms: C_43  and  C_44
   15  A    between atoms: C_43  and  C_53
   16  A    between atoms: C_45  and  C_57
   17  A    between atoms: N_50  and  N_62
   18  A    between atoms: N_50  and  C_64
                            x       y       z     vdW  Elec       q    Type
                         _______ _______ _______ _____ _____    ______ ____

>  <TORSDO>
F 18

$$$$
=
 OpenBabel10232410133D

 66 73  0  0  1  0  0  0  0  0999 V2000
  185.1040  179.1230  146.7900 N   0  0  0  0  0  2  0  0  0  0  0  0
  184.5730  178.6380  145.5640 C   0  0  0  0  0  0  0  0  0  0  0  0
  185.6560  178.6400  143.2620 C   0  0  0  0  0  0  0  0  0  0  0  0
  182.6120  178.3940  144.0500 C   0  0  0  0  0  3  0  0  0  0  0  0
  183.1410  178.3930  142.8190 C   0  0  0  0  0  0  0  0  0  0  0  0
  186.8440  178.4890  145.4890 C   0  0  2  0  0  3  0  0  0  0  0  0
  184.5550  178.6940  142.5000 C   0  0  0  0  0  3  0  0  0  0  0  0
  183.2720  178.6890  145.3240 C   0  0  0  0  0  3  0  0  0  0  0  0
  185.6480  178.0790  144.6670 C   0  0  1  0  0  3  0  0  0  0  0  0
  188.0530  178.3450  145.1570 O   0  0  0  0  0  0  0  0  0  0  0  0
  186.4700  179.0500  146.6940 O   0  0  0  0  0  0  0  0  0  0  0  0
  187.0230  179.5680  141.3700 C   0  0  0  0  0  2  0  0  0  0  0  0
  189.4210  176.7050  140.8360 C   0  0  0  0  0  0  0  0  0  0  0  0
  189.3730  176.2300  138.2700 C   0  0  0  0  0  3  0  0  0  0  0  0
  189.3800  176.4650  139.5510 C   0  0  0  0  0  0  0  0  0  0  0  0
  188.0280  178.8640  140.4760 C   0  0  1  0  0  3  0  0  0  0  0  0
  186.9060  178.7490  142.5710 N   0  0  0  0  0  0  0  0  0  0  0  0
  188.5010  177.4390  143.7890 N   0  0  1  0  0  0  0  0  0  0  0  0
  188.9510  179.8780  139.8230 C   0  0  0  0  0  1  0  0  0  0  0  0
  190.3800  176.2570  143.1370 C   0  0  1  0  0  3  0  0  0  0  0  0
  190.2530  175.7810  141.6890 C   0  0  0  0  0  2  0  0  0  0  0  0
  189.0880  176.1590  143.8100 N   0  0  0  0  0  2  0  0  0  0  0  0
  187.8070  177.6110  142.5170 C   0  0  2  0  0  3  0  0  0  0  0  0
  188.8010  177.9540  141.4270 C   0  0  1  0  0  3  0  0  0  0  0  0
  190.8830  176.4370  136.0290 O   0  0  0  0  0  0  0  0  0  0  0  0
  190.9100  175.8550  137.4260 P   0  0  1  0  0  0  0  0  0  0  0  0
  192.1930  176.5380  138.2940 O   0  0  0  0  0  1  0  0  0  0  0  0
  191.1390  174.0550  137.3390 C   0  0  0  0  0  2  0  0  0  0  0  0
  191.9130  173.6820  136.0890 C   0  0  0  0  0  2  0  0  0  0  0  0
  193.7090  173.8190  137.6980 O   0  0  0  0  0  1  0  0  0  0  0  0
  193.4010  173.4420  136.3800 C   0  0  1  0  0  0  0  0  0  0  0  0
  193.7100  171.9600  136.1850 C   0  0  0  0  0  2  0  0  0  0  0  0
  194.9230  171.6090  136.7970 O   0  0  0  0  0  0  0  0  0  0  0  0
  196.7610  170.2370  136.1990 O   0  0  0  0  0  0  0  0  0  0  0  0
  194.7700  170.0260  134.9820 O   0  0  0  0  0  1  0  0  0  0  0  0
  195.3710  170.4360  136.1700 C   0  0  2  0  0  0  0  0  0  0  0  0
  195.9730  169.3970  137.0240 C   0  0  0  0  0  2  0  0  0  0  0  0
  194.2490  174.2640  135.3980 C   0  0  0  0  0  2  0  0  0  0  0  0
  195.0750  175.3020  136.0900 C   0  0  0  0  0  0  0  0  0  0  0  0
  196.2900  174.9330  136.7280 N   0  0  0  0  0  1  0  0  0  0  0  0
  194.6430  176.4800  136.1980 O   0  0  0  0  0  0  0  0  0  0  0  0
  192.1960  174.7820  144.4340 C   0  0  0  0  0  3  0  0  0  0  0  0
  191.3810  175.4610  143.8540 C   0  0  0  0  0  0  0  0  0  0  0  0
  181.1510  179.1520  141.4060 C   0  0  0  0  0  3  0  0  0  0  0  0
  181.2220  178.0790  137.3830 O   0  0  0  0  0  0  0  0  0  0  0  0
  181.4190  177.7690  139.6820 N   0  0  0  0  0  0  0  0  0  0  0  0
  181.3700  177.2730  138.3430 C   0  0  0  0  0  0  0  0  0  0  0  0
  182.3520  177.4470  140.5910 C   0  0  0  0  0  3  0  0  0  0  0  0
  182.2060  178.2930  141.6740 C   0  0  0  0  0  0  0  0  0  0  0  0
  181.4880  175.8670  138.0890 N   0  0  0  0  0  2  0  0  0  0  0  0
  180.6950  178.8020  140.1480 C   0  0  0  0  0  3  0  0  0  0  0  0
  183.2560  175.2150  136.5230 C   0  0  0  0  0  3  0  0  0  0  0  0
  182.6870  174.3100  134.3500 C   0  0  0  0  0  3  0  0  0  0  0  0
  180.9330  175.0050  135.8590 C   0  0  0  0  0  3  0  0  0  0  0  0
  181.8950  175.3660  136.8150 C   0  0  0  0  0  0  0  0  0  0  0  0
  181.3280  174.4790  134.6290 C   0  0  0  0  0  3  0  0  0  0  0  0
  183.6570  174.6760  135.2960 C   0  0  0  0  0  0  0  0  0  0  0  0
  184.7550  172.1260  134.8310 O   0  0  0  0  0  0  0  0  0  0  0  0
  185.5500  173.1070  134.8780 C   0  0  0  0  0  0  0  0  0  0  0  0
  185.0490  174.4490  135.0260 N   0  0  0  0  0  0  0  0  0  0  0  0
  185.7270  176.5610  134.3530 O   0  0  0  0  0  1  0  0  0  0  0  0
  185.9540  175.5300  135.0150 N   0  0  0  0  0  2  0  0  0  0  0  0
  187.0180  172.8550  134.7370 C   0  0  0  0  0  2  0  0  0  0  0  0
  187.5080  171.8860  135.8100 C   0  0  0  0  0  2  0  0  0  0  0  0
  189.6550  171.0730  135.1470 O   0  0  0  0  0  1  0  0  0  0  0  0
  188.3000  170.7450  135.1940 C   0  0  0  0  0  2  0  0  0  0  0  0
  2  1  1  0  0  0  0
  4  8  1  0  0  0  0
  5  4  2  0  0  0  0
  6 10  1  1  0  0  0
  6 11  1  0  0  0  0
  7  5  1  0  0  0  0
  7  3  2  0  0  0  0
  8  2  2  0  0  0  0
  9  3  1  6  0  0  0
  9  6  1  0  0  0  0
  9  2  1  0  0  0  0
 11  1  1  0  0  0  0
 12 17  1  0  0  0  0
 13 21  1  0  0  0  0
 14 15  2  0  0  0  0
 15 13  2  0  0  0  0
 16 19  1  1  0  0  0
 16 12  1  0  0  0  0
 16 24  1  0  0  0  0
 17  3  1  0  0  0  0
 18 22  1  1  0  0  0
 18 10  1  0  0  0  0
 20 22  1  0  0  0  0
 20 43  1  1  0  0  0
 21 20  1  0  0  0  0
 23 17  1  1  0  0  0
 23 18  1  0  0  0  0
 24 13  1  6  0  0  0
 24 23  1  0  0  0  0
 26 25  2  6  0  0  0
 26 14  1  0  0  0  0
 26 27  1  0  0  0  0
 28 26  1  0  0  0  0
 29 31  1  0  0  0  0
 29 28  1  0  0  0  0
 31 30  1  1  0  0  0
 32 31  1  0  0  0  0
 32 33  1  0  0  0  0
 34 37  1  0  0  0  0
 36 35  1  6  0  0  0
 36 34  1  0  0  0  0
 36 33  1  0  0  0  0
 36 37  1  0  0  0  0
 38 39  1  0  0  0  0
 38 31  1  0  0  0  0
 39 41  2  0  0  0  0
 39 40  1  0  0  0  0
 43 42  3  0  0  0  0
 44 49  1  0  0  0  0
 45 47  2  0  0  0  0
 46 51  1  0  0  0  0
 46 48  1  0  0  0  0
 47 46  1  0  0  0  0
 48 49  2  0  0  0  0
 49  5  1  0  0  0  0
 50 47  1  0  0  0  0
 51 44  2  0  0  0  0
 52 55  1  0  0  0  0
 53 56  2  0  0  0  0
 53 57  1  0  0  0  0
 54 55  2  0  0  0  0
 55 50  1  0  0  0  0
 56 54  1  0  0  0  0
 57 52  2  0  0  0  0
 58 59  2  0  0  0  0
 59 60  1  0  0  0  0
 60 57  1  0  0  0  0
 61 62  1  0  0  0  0
 62 60  1  0  0  0  0
 63 59  1  0  0  0  0
 63 64  1  0  0  0  0
 65 66  1  0  0  0  0
 66 64  1  0  0  0  0
M  END
>  <MODEL>
8

>  <REMARK>
 VINA RESULT:      -3.8      2.305      8.088
  Name = 
  18 active torsions:
  status: ('A' for Active; 'I' for Inactive)
    1  A    between atoms: C_5  and  P_37
    2  A    between atoms: C_9  and  N_26
    3  A    between atoms: O_10  and  C_19
    4  A    between atoms: O_10  and  C_38
    5  A    between atoms: C_13  and  C_58
    6  A    between atoms: C_25  and  C_30
    7  A    between atoms: C_25  and  C_53
    8  A    between atoms: C_30  and  P_37
    9  A    between atoms: C_32  and  C_35
   10  A    between atoms: C_36  and  N_59
   11  A    between atoms: C_38  and  C_53
   12  A    between atoms: C_42  and  C_49
   13  A    between atoms: C_42  and  C_57
   14  A    between atoms: C_43  and  C_44
   15  A    between atoms: C_43  and  C_53
   16  A    between atoms: C_45  and  C_57
   17  A    between atoms: N_50  and  N_62
   18  A    between atoms: N_50  and  C_64
                            x       y       z     vdW  Elec       q    Type
                         _______ _______ _______ _____ _____    ______ ____

>  <TORSDO>
F 18

$$$$
=
 OpenBabel10232410133D

 66 72  0  0  1  0  0  0  0  0999 V2000
  188.1770  168.3530  135.6160 N   0  0  0  0  0  2  0  0  0  0  0  0
  187.3180  169.3750  135.1270 C   0  0  0  0  0  0  0  0  0  0  0  0
  187.8070  171.8580  134.8640 C   0  0  0  0  0  0  0  0  0  0  0  0
  185.0350  170.3620  135.0300 C   0  0  0  0  0  3  0  0  0  0  0  0
  185.2480  171.6790  134.8930 C   0  0  0  0  0  0  0  0  0  0  0  0
  189.4770  169.9660  134.7040 C   0  0  0  0  0  0  0  0  0  0  0  0
  186.5660  172.3430  135.0050 C   0  0  0  0  0  3  0  0  0  0  0  0
  186.0100  169.3080  135.3180 C   0  0  0  0  0  3  0  0  0  0  0  0
  188.0820  170.4480  134.3920 C   0  0  1  0  0  3  0  0  0  0  0  0
  190.5490  170.5580  134.3970 O   0  0  0  0  0  0  0  0  0  0  0  0
  189.4640  168.7590  135.3750 O   0  0  0  0  0  0  0  0  0  0  0  0
  190.2150  172.4280  134.4310 C   0  0  0  0  0  2  0  0  0  0  0  0
  190.6370  175.3160  136.8230 C   0  0  0  0  0  0  0  0  0  0  0  0
  192.8100  174.7890  138.1700 C   0  0  0  0  0  3  0  0  0  0  0  0
  191.7190  175.0370  137.5020 C   0  0  0  0  0  0  0  0  0  0  0  0
  191.1400  173.3440  135.2140 C   0  0  1  0  0  3  0  0  0  0  0  0
  188.8570  172.8290  134.7830 N   0  0  0  0  0  0  0  0  0  0  0  0
  187.8830  174.9630  135.2750 N   0  0  0  0  0  2  0  0  0  0  0  0
  192.3110  173.7730  134.3460 C   0  0  0  0  0  1  0  0  0  0  0  0
  188.7270  176.8810  136.2550 C   0  0  1  0  0  3  0  0  0  0  0  0
  189.8640  176.5470  137.2240 C   0  0  0  0  0  2  0  0  0  0  0  0
  187.6840  175.8630  136.3400 N   0  0  0  0  0  2  0  0  0  0  0  0
  188.8650  173.9660  135.6870 C   0  0  2  0  0  3  0  0  0  0  0  0
  190.2630  174.5390  135.5770 C   0  0  1  0  0  3  0  0  0  0  0  0
  193.3740  177.4380  138.0550 O   0  0  0  0  0  0  0  0  0  0  0  0
  193.9510  176.1230  138.5360 P   0  0  1  0  0  0  0  0  0  0  0  0
  194.1920  176.1950  140.2100 O   0  0  0  0  0  1  0  0  0  0  0  0
  195.5420  175.8120  137.7150 C   0  0  0  0  0  2  0  0  0  0  0  0
  195.5580  174.4230  137.1050 C   0  0  0  0  0  2  0  0  0  0  0  0
  195.7220  173.2570  139.2140 O   0  0  0  0  0  1  0  0  0  0  0  0
  196.3440  173.4230  137.9650 C   0  0  1  0  0  0  0  0  0  0  0  0
  196.3990  172.0830  137.2370 C   0  0  0  0  0  2  0  0  0  0  0  0
  196.2080  171.0140  138.1260 O   0  0  0  0  0  0  0  0  0  0  0  0
  195.6620  168.7080  138.0440 O   0  0  0  0  0  0  0  0  0  0  0  0
  197.0200  169.5940  136.3510 O   0  0  0  0  0  1  0  0  0  0  0  0
  196.0800  169.8540  137.3460 C   0  0  2  0  0  0  0  0  0  0  0  0
  194.7240  169.3040  137.1650 C   0  0  0  0  0  2  0  0  0  0  0  0
  197.7750  173.9430  138.1670 C   0  0  0  0  0  2  0  0  0  0  0  0
  198.4680  174.2210  136.8710 C   0  0  0  0  0  0  0  0  0  0  0  0
  199.4000  173.2820  136.3490 N   0  0  0  0  0  1  0  0  0  0  0  0
  198.3080  175.3300  136.2970 O   0  0  0  0  0  0  0  0  0  0  0  0
  187.7160  179.3000  136.7810 C   0  0  0  0  0  3  0  0  0  0  0  0
  188.1670  178.2010  136.5560 C   0  0  0  0  0  0  0  0  0  0  0  0
  182.8090  172.2130  134.3460 C   0  0  0  0  0  3  0  0  0  0  0  0
  181.0170  175.2090  136.6160 O   0  0  0  0  0  0  0  0  0  0  0  0
  182.6760  174.2070  135.3270 N   0  0  0  0  0  0  0  0  0  0  0  0
  182.1110  175.3330  135.9990 C   0  0  0  0  0  0  0  0  0  0  0  0
  183.9500  173.7990  135.4410 C   0  0  0  0  0  3  0  0  0  0  0  0
  184.0590  172.5600  134.8380 C   0  0  0  0  0  0  0  0  0  0  0  0
  182.7810  176.6010  135.9740 N   0  0  0  0  0  2  0  0  0  0  0  0
  181.9720  173.2600  134.6820 C   0  0  0  0  0  3  0  0  0  0  0  0
  182.9680  177.4170  138.2770 C   0  0  0  0  0  3  0  0  0  0  0  0
  182.1050  179.6000  138.8700 C   0  0  0  0  0  3  0  0  0  0  0  0
  181.8580  178.7840  136.6100 C   0  0  0  0  0  3  0  0  0  0  0  0
  182.5290  177.6030  136.9610 C   0  0  0  0  0  0  0  0  0  0  0  0
  181.6450  179.7800  137.5640 C   0  0  0  0  0  3  0  0  0  0  0  0
  182.7700  178.4180  139.2330 C   0  0  0  0  0  0  0  0  0  0  0  0
  185.2180  179.5150  140.0880 O   0  0  0  0  0  0  0  0  0  0  0  0
  184.5860  178.7840  140.9020 C   0  0  0  0  0  0  0  0  0  0  0  0
  183.2880  178.2620  140.5630 N   0  0  0  0  0  0  0  0  0  0  0  0
  181.8200  178.0360  142.3420 O   0  0  0  0  0  1  0  0  0  0  0  0
  182.5790  177.4990  141.5140 N   0  0  0  0  0  2  0  0  0  0  0  0
  185.1920  178.5040  142.2410 C   0  0  0  0  0  2  0  0  0  0  0  0
  186.7160  178.5670  142.1710 C   0  0  0  0  0  2  0  0  0  0  0  0
  187.0740  177.0810  144.0080 O   0  0  0  0  0  1  0  0  0  0  0  0
  187.3340  178.3710  143.5450 C   0  0  0  0  0  2  0  0  0  0  0  0
  2  8  2  0  0  0  0
  2  1  1  0  0  0  0
  3  7  2  0  0  0  0
  4  8  1  0  0  0  0
  5  7  1  0  0  0  0
  5  4  2  0  0  0  0
  6 11  1  0  0  0  0
  9  6  1  1  0  0  0
  9  3  1  0  0  0  0
  9  2  1  0  0  0  0
 10  6  2  0  0  0  0
 11  1  1  0  0  0  0
 12 17  1  0  0  0  0
 12 16  1  0  0  0  0
 13 21  1  0  0  0  0
 13 15  2  0  0  0  0
 14 26  1  0  0  0  0
 15 14  2  0  0  0  0
 16 19  1  6  0  0  0
 16 24  1  0  0  0  0
 17  3  1  0  0  0  0
 17 23  1  0  0  0  0
 18 22  1  0  0  0  0
 20 22  1  0  0  0  0
 20 43  1  1  0  0  0
 20 21  1  0  0  0  0
 23 18  1  6  0  0  0
 24 23  1  0  0  0  0
 24 13  1  1  0  0  0
 26 25  2  6  0  0  0
 26 27  1  0  0  0  0
 28 26  1  0  0  0  0
 29 28  1  0  0  0  0
 29 31  1  0  0  0  0
 31 38  1  0  0  0  0
 31 30  1  1  0  0  0
 32 31  1  0  0  0  0
 32 33  1  0  0  0  0
 36 35  1  6  0  0  0
 36 34  1  0  0  0  0
 36 33  1  0  0  0  0
 37 36  1  0  0  0  0
 37 34  1  0  0  0  0
 39 38  1  0  0  0  0
 40 39  1  0  0  0  0
 41 39  2  0  0  0  0
 43 42  3  0  0  0  0
 44 51  2  0  0  0  0
 44 49  1  0  0  0  0
 46 48  1  0  0  0  0
 46 47  1  0  0  0  0
 47 45  2  0  0  0  0
 49  5  1  0  0  0  0
 49 48  2  0  0  0  0
 50 47  1  0  0  0  0
 50 55  1  0  0  0  0
 51 46  1  0  0  0  0
 52 57  1  0  0  0  0
 53 57  2  0  0  0  0
 54 55  1  0  0  0  0
 54 56  2  0  0  0  0
 55 52  2  0  0  0  0
 56 53  1  0  0  0  0
 57 60  1  0  0  0  0
 58 59  2  0  0  0  0
 59 63  1  0  0  0  0
 60 59  1  0  0  0  0
 60 62  1  0  0  0  0
 62 61  1  0  0  0  0
 64 63  1  0  0  0  0
 64 66  1  0  0  0  0
 66 65  1  0  0  0  0
M  END
>  <MODEL>
9

>  <REMARK>
 VINA RESULT:      -3.7      2.450      3.998
  Name = 
  18 active torsions:
  status: ('A' for Active; 'I' for Inactive)
    1  A    between atoms: C_5  and  P_37
    2  A    between atoms: C_9  and  N_26
    3  A    between atoms: O_10  and  C_19
    4  A    between atoms: O_10  and  C_38
    5  A    between atoms: C_13  and  C_58
    6  A    between atoms: C_25  and  C_30
    7  A    between atoms: C_25  and  C_53
    8  A    between atoms: C_30  and  P_37
    9  A    between atoms: C_32  and  C_35
   10  A    between atoms: C_36  and  N_59
   11  A    between atoms: C_38  and  C_53
   12  A    between atoms: C_42  and  C_49
   13  A    between atoms: C_42  and  C_57
   14  A    between atoms: C_43  and  C_44
   15  A    between atoms: C_43  and  C_53
   16  A    between atoms: C_45  and  C_57
   17  A    between atoms: N_50  and  N_62
   18  A    between atoms: N_50  and  C_64
                            x       y       z     vdW  Elec       q    Type
                         _______ _______ _______ _____ _____    ______ ____

>  <TORSDO>
F 18

$$$$
