=
 OpenBabel10222421533D

 54 58  0  0  1  0  0  0  0  0999 V2000
  187.1310  178.9440  140.9140 O   0  0  0  0  0  0  0  0  0  0  0  0
  189.8900  176.7130  140.2040 C   0  0  1  0  0  3  0  0  0  0  0  0
  188.8200  177.8030  142.0810 N   0  0  0  0  0  0  0  0  0  0  0  0
  188.1500  178.2050  140.9030 C   0  0  0  0  0  0  0  0  0  0  0  0
  189.8820  176.9500  141.6830 C   0  0  0  0  0  0  0  0  0  0  0  0
  191.2540  175.5850  143.3340 O   0  0  0  0  0  0  0  0  0  0  0  0
  190.5870  176.2490  142.5310 C   0  0  0  0  0  0  0  0  0  0  0  0
  188.7360  177.6110  139.6660 C   0  0  1  0  0  3  0  0  0  0  0  0
  189.1650  178.7230  138.7090 C   0  0  0  0  0  2  0  0  0  0  0  0
  188.1780  178.9120  137.6990 O   0  0  0  0  0  0  0  0  0  0  0  0
  185.5370  177.7080  137.4550 N   0  0  0  0  0  0  0  0  0  0  0  0
  186.5580  177.3640  136.6240 C   0  0  0  0  0  0  0  0  0  0  0  0
  188.5510  176.6440  134.8230 C   0  0  0  0  0  3  0  0  0  0  0  0
  188.8230  177.5970  135.8050 C   0  0  0  0  0  3  0  0  0  0  0  0
  185.0750  175.8060  135.5020 C   0  0  0  0  0  3  0  0  0  0  0  0
  184.0550  176.1740  136.3800 C   0  0  0  0  0  3  0  0  0  0  0  0
  187.8360  177.9610  136.7240 C   0  0  0  0  0  0  0  0  0  0  0  0
  184.3070  177.1380  137.3570 C   0  0  0  0  0  3  0  0  0  0  0  0
  187.3250  176.0670  134.7490 N   0  0  0  0  0  0  0  0  0  0  0  0
  186.3320  176.4020  135.6130 C   0  0  0  0  0  0  0  0  0  0  0  0
  191.2760  177.0040  139.6210 C   0  0  0  0  0  2  0  0  0  0  0  0
  191.7090  175.9000  138.6720 C   0  0  0  0  0  2  0  0  0  0  0  0
  192.5760  176.4680  137.5600 C   0  0  0  0  0  2  0  0  0  0  0  0
  192.0520  176.0380  136.2000 C   0  0  0  0  0  2  0  0  0  0  0  0
  192.3460  173.0160  135.9830 O   0  0  0  0  0  0  0  0  0  0  0  0
  195.3340  177.8930  134.3460 O   0  0  0  0  0  0  0  0  0  0  0  0
  195.3530  174.8750  136.2500 C   0  0  0  0  0  0  0  0  0  0  0  0
  197.3080  173.7900  137.0680 N   0  0  0  0  0  0  0  0  0  0  0  0
  193.2560  173.8860  135.9760 C   0  0  0  0  0  0  0  0  0  0  0  0
  194.4810  175.8620  135.6160 C   0  0  0  0  0  0  0  0  0  0  0  0
  198.7390  173.8390  137.2960 C   0  0  0  0  0  1  0  0  0  0  0  0
  196.5620  172.5980  137.5170 C   0  0  0  0  0  2  0  0  0  0  0  0
  194.5990  173.6770  136.4920 C   0  0  0  0  0  0  0  0  0  0  0  0
  196.6580  174.9390  136.4980 C   0  0  0  0  0  3  0  0  0  0  0  0
  194.9190  176.9050  134.9640 C   0  0  0  0  0  0  0  0  0  0  0  0
  193.1050  175.2700  135.4050 C   0  0  2  0  0  3  0  0  0  0  0  0
  195.1250  172.5830  137.0400 C   0  0  0  0  0  3  0  0  0  0  0  0
  188.5840  178.3350  143.4160 C   0  0  0  0  0  2  0  0  0  0  0  0
  187.8830  177.2920  144.2710 C   0  0  0  0  0  2  0  0  0  0  0  0
  188.3250  177.4010  145.7210 C   0  0  1  0  0  3  0  0  0  0  0  0
  189.7620  177.6260  145.7860 N   0  0  0  0  0  2  0  0  0  0  0  0
  190.2710  176.7840  146.8530 C   0  0  0  0  0  2  0  0  0  0  0  0
  191.7190  176.4360  146.5770 C   0  0  0  0  0  2  0  0  0  0  0  0
  192.2970  175.7050  147.7710 C   0  0  0  0  0  1  0  0  0  0  0  0
  187.6330  178.5190  146.3410 N   0  0  0  0  0  2  0  0  0  0  0  0
  186.3450  178.0350  146.8190 C   0  0  0  0  0  2  0  0  0  0  0  0
  185.3330  179.0740  146.6790 N   0  0  0  0  0  2  0  0  0  0  0  0
  184.2160  178.4870  146.0660 N   0  0  0  0  0  2  0  0  0  0  0  0
  183.9700  179.2120  144.8280 C   0  0  0  0  0  2  0  0  0  0  0  0
  182.5720  178.9130  144.2970 C   0  0  0  0  0  2  0  0  0  0  0  0
  183.6030  178.5520  142.1430 N   0  0  0  0  0  0  0  0  0  0  0  0
  182.5540  178.8830  142.8020 C   0  0  0  0  0  3  0  0  0  0  0  0
  183.5870  178.5220  140.7030 C   0  0  0  0  0  2  0  0  0  0  0  0
  184.2670  179.6280  140.1950 O   0  0  0  0  0  1  0  0  0  0  0  0
  2 21  1  6  0  0  0
  2  5  1  0  0  0  0
  3 38  1  0  0  0  0
  4  1  2  0  0  0  0
  4  3  1  0  0  0  0
  5  3  1  0  0  0  0
  5  7  2  0  0  0  0
  7  6  2  0  0  0  0
  8  9  1  6  0  0  0
  8  2  1  0  0  0  0
  8  4  1  0  0  0  0
 10  9  1  0  0  0  0
 12 17  1  0  0  0  0
 12 11  2  0  0  0  0
 13 14  1  0  0  0  0
 14 17  2  0  0  0  0
 15 20  2  0  0  0  0
 15 16  1  0  0  0  0
 16 18  2  0  0  0  0
 17 10  1  0  0  0  0
 18 11  1  0  0  0  0
 19 13  2  0  0  0  0
 19 20  1  0  0  0  0
 20 12  1  0  0  0  0
 22 21  1  0  0  0  0
 23 22  1  0  0  0  0
 24 23  1  0  0  0  0
 26 35  2  0  0  0  0
 27 33  1  0  0  0  0
 27 34  2  0  0  0  0
 28 31  1  0  0  0  0
 28 32  1  0  0  0  0
 29 25  2  0  0  0  0
 29 33  1  0  0  0  0
 30 27  1  0  0  0  0
 33 37  2  0  0  0  0
 34 28  1  0  0  0  0
 35 30  2  0  0  0  0
 36 30  1  0  0  0  0
 36 29  1  0  0  0  0
 36 24  1  1  0  0  0
 37 32  1  0  0  0  0
 38 39  1  0  0  0  0
 40 39  1  6  0  0  0
 40 41  1  0  0  0  0
 40 45  1  0  0  0  0
 41 42  1  0  0  0  0
 43 42  1  0  0  0  0
 43 44  1  0  0  0  0
 45 46  1  0  0  0  0
 47 46  1  0  0  0  0
 48 47  1  0  0  0  0
 49 48  1  0  0  0  0
 50 49  1  0  0  0  0
 51 52  2  0  0  0  0
 52 50  1  0  0  0  0
 53 51  1  0  0  0  0
 54 53  1  0  0  0  0
M  END
>  <MODEL>
1

>  <REMARK>
 VINA RESULT:      -7.4      0.000      0.000
  Name = 
  22 active torsions:
  status: ('A' for Active; 'I' for Inactive)
    1  A    between atoms: C_1  and  C_12
    2  A    between atoms: N_2  and  C_17
    3  A    between atoms: N_2  and  C_46
    4  A    between atoms: O_5  and  C_23
    5  A    between atoms: O_5  and  C_36
    6  A    between atoms: C_7  and  C_15
    7  A    between atoms: C_7  and  N_21
    8  A    between atoms: C_8  and  C_35
    9  A    between atoms: C_12  and  N_30
   10  A    between atoms: C_15  and  C_17
   11  A    between atoms: C_17  and  N_30
   12  A    between atoms: C_19  and  N_47
   13  A    between atoms: C_19  and  C_52
   14  A    between atoms: C_23  and  C_53
   15  A    between atoms: N_24  and  C_41
   16  A    between atoms: N_26  and  C_46
   17  A    between atoms: N_26  and  N_47
   18  A    between atoms: C_28  and  C_34
   19  A    between atoms: C_28  and  C_40
   20  A    between atoms: C_34  and  C_35
   21  A    between atoms: C_40  and  C_49
   22  A    between atoms: C_44  and  C_52
                            x       y       z     vdW  Elec       q    Type
                         _______ _______ _______ _____ _____    ______ ____

>  <TORSDO>
F 22

$$$$
=
 OpenBabel10222421533D

 54 58  0  0  1  0  0  0  0  0999 V2000
  187.2210  178.9560  141.2950 O   0  0  0  0  0  0  0  0  0  0  0  0
  189.8110  176.6270  140.3160 C   0  0  1  0  0  3  0  0  0  0  0  0
  188.9460  177.7160  142.2960 N   0  0  0  0  0  0  0  0  0  0  0  0
  188.2010  178.1740  141.1860 C   0  0  0  0  0  0  0  0  0  0  0  0
  189.9330  176.8290  141.7950 C   0  0  0  0  0  0  0  0  0  0  0  0
  191.3720  175.3670  143.3010 O   0  0  0  0  0  0  0  0  0  0  0  0
  190.6720  176.0780  142.5690 C   0  0  0  0  0  0  0  0  0  0  0  0
  188.6580  177.5860  139.8930 C   0  0  1  0  0  3  0  0  0  0  0  0
  189.0570  178.7010  138.9260 C   0  0  0  0  0  2  0  0  0  0  0  0
  188.0920  178.8180  137.8850 O   0  0  0  0  0  0  0  0  0  0  0  0
  188.3360  176.2640  136.5070 N   0  0  0  0  0  0  0  0  0  0  0  0
  187.1420  176.7030  136.9910 C   0  0  0  0  0  0  0  0  0  0  0  0
  184.6680  177.4690  138.0060 C   0  0  0  0  0  3  0  0  0  0  0  0
  185.7760  178.2970  138.1930 C   0  0  0  0  0  3  0  0  0  0  0  0
  186.0960  174.6830  136.1490 C   0  0  0  0  0  3  0  0  0  0  0  0
  187.3340  174.2700  135.6550 C   0  0  0  0  0  3  0  0  0  0  0  0
  187.0230  177.9320  137.6790 C   0  0  0  0  0  0  0  0  0  0  0  0
  188.4530  175.0800  135.8490 C   0  0  0  0  0  3  0  0  0  0  0  0
  184.7950  176.3000  137.3280 N   0  0  0  0  0  0  0  0  0  0  0  0
  185.9910  175.8990  136.8250 C   0  0  0  0  0  0  0  0  0  0  0  0
  191.1560  176.8720  139.6280 C   0  0  0  0  0  2  0  0  0  0  0  0
  191.3290  175.9550  138.4290 C   0  0  0  0  0  2  0  0  0  0  0  0
  192.8020  175.6680  138.1900 C   0  0  0  0  0  2  0  0  0  0  0  0
  193.3060  176.4320  136.9760 C   0  0  0  0  0  2  0  0  0  0  0  0
  191.8800  174.6500  134.9600 O   0  0  0  0  0  0  0  0  0  0  0  0
  197.4250  175.6100  136.8920 O   0  0  0  0  0  0  0  0  0  0  0  0
  194.7500  173.2750  136.5220 C   0  0  0  0  0  0  0  0  0  0  0  0
  194.9810  170.9080  136.6270 N   0  0  0  0  0  0  0  0  0  0  0  0
  192.9690  174.4320  135.5540 C   0  0  0  0  0  0  0  0  0  0  0  0
  195.0710  174.7010  136.5750 C   0  0  0  0  0  0  0  0  0  0  0  0
  195.8190  169.7660  136.9330 C   0  0  0  0  0  1  0  0  0  0  0  0
  193.5910  170.6680  136.1920 C   0  0  0  0  0  2  0  0  0  0  0  0
  193.4560  173.1140  135.9210 C   0  0  0  0  0  0  0  0  0  0  0  0
  195.5050  172.2290  136.8450 C   0  0  0  0  0  3  0  0  0  0  0  0
  196.2800  175.1680  136.7380 C   0  0  0  0  0  0  0  0  0  0  0  0
  193.9500  175.5020  135.9510 C   0  0  2  0  0  3  0  0  0  0  0  0
  192.8950  171.9240  135.7110 C   0  0  0  0  0  3  0  0  0  0  0  0
  188.8430  178.2260  143.6560 C   0  0  0  0  0  2  0  0  0  0  0  0
  187.7540  177.4780  144.4080 C   0  0  0  0  0  2  0  0  0  0  0  0
  188.2370  177.0720  145.7900 C   0  0  1  0  0  3  0  0  0  0  0  0
  189.3040  177.9610  146.2240 N   0  0  0  0  0  2  0  0  0  0  0  0
  190.1210  177.2110  147.1620 C   0  0  0  0  0  2  0  0  0  0  0  0
  191.3530  176.6880  146.4540 C   0  0  0  0  0  2  0  0  0  0  0  0
  192.1120  175.7630  147.3840 C   0  0  0  0  0  1  0  0  0  0  0  0
  187.1250  177.1630  146.7230 N   0  0  0  0  0  2  0  0  0  0  0  0
  186.6710  178.5470  146.7390 C   0  0  0  0  0  2  0  0  0  0  0  0
  185.2150  178.5990  146.7320 N   0  0  0  0  0  2  0  0  0  0  0  0
  184.8350  179.4860  145.7140 N   0  0  0  0  0  2  0  0  0  0  0  0
  183.8060  178.8240  144.9240 C   0  0  0  0  0  2  0  0  0  0  0  0
  184.2690  178.6430  143.4830 C   0  0  0  0  0  2  0  0  0  0  0  0
  183.1220  178.2150  141.4000 N   0  0  0  0  0  0  0  0  0  0  0  0
  183.1390  178.8370  142.5220 C   0  0  0  0  0  3  0  0  0  0  0  0
  182.0340  178.4000  140.4750 C   0  0  0  0  0  2  0  0  0  0  0  0
  181.6640  177.1740  139.9220 O   0  0  0  0  0  1  0  0  0  0  0  0
  2 21  1  6  0  0  0
  2  5  1  0  0  0  0
  3 38  1  0  0  0  0
  4  1  2  0  0  0  0
  4  3  1  0  0  0  0
  5  3  1  0  0  0  0
  5  7  2  0  0  0  0
  7  6  2  0  0  0  0
  8  9  1  6  0  0  0
  8  2  1  0  0  0  0
  8  4  1  0  0  0  0
 10  9  1  0  0  0  0
 11 12  1  0  0  0  0
 12 17  1  0  0  0  0
 13 14  1  0  0  0  0
 15 20  1  0  0  0  0
 16 18  1  0  0  0  0
 16 15  2  0  0  0  0
 17 10  1  0  0  0  0
 17 14  2  0  0  0  0
 18 11  2  0  0  0  0
 19 13  2  0  0  0  0
 20 12  2  0  0  0  0
 20 19  1  0  0  0  0
 22 21  1  0  0  0  0
 23 22  1  0  0  0  0
 24 23  1  0  0  0  0
 25 29  2  0  0  0  0
 27 30  1  0  0  0  0
 27 34  2  0  0  0  0
 28 34  1  0  0  0  0
 28 31  1  0  0  0  0
 29 33  1  0  0  0  0
 29 36  1  0  0  0  0
 30 35  2  0  0  0  0
 32 28  1  0  0  0  0
 33 27  1  0  0  0  0
 35 26  2  0  0  0  0
 36 30  1  0  0  0  0
 36 24  1  1  0  0  0
 37 33  2  0  0  0  0
 37 32  1  0  0  0  0
 38 39  1  0  0  0  0
 40 39  1  6  0  0  0
 40 41  1  0  0  0  0
 40 45  1  0  0  0  0
 41 42  1  0  0  0  0
 43 42  1  0  0  0  0
 43 44  1  0  0  0  0
 45 46  1  0  0  0  0
 47 46  1  0  0  0  0
 48 47  1  0  0  0  0
 49 48  1  0  0  0  0
 50 49  1  0  0  0  0
 51 52  2  0  0  0  0
 52 50  1  0  0  0  0
 53 51  1  0  0  0  0
 54 53  1  0  0  0  0
M  END
>  <MODEL>
2

>  <REMARK>
 VINA RESULT:      -7.1      1.433      2.144
  Name = 
  22 active torsions:
  status: ('A' for Active; 'I' for Inactive)
    1  A    between atoms: C_1  and  C_12
    2  A    between atoms: N_2  and  C_17
    3  A    between atoms: N_2  and  C_46
    4  A    between atoms: O_5  and  C_23
    5  A    between atoms: O_5  and  C_36
    6  A    between atoms: C_7  and  C_15
    7  A    between atoms: C_7  and  N_21
    8  A    between atoms: C_8  and  C_35
    9  A    between atoms: C_12  and  N_30
   10  A    between atoms: C_15  and  C_17
   11  A    between atoms: C_17  and  N_30
   12  A    between atoms: C_19  and  N_47
   13  A    between atoms: C_19  and  C_52
   14  A    between atoms: C_23  and  C_53
   15  A    between atoms: N_24  and  C_41
   16  A    between atoms: N_26  and  C_46
   17  A    between atoms: N_26  and  N_47
   18  A    between atoms: C_28  and  C_34
   19  A    between atoms: C_28  and  C_40
   20  A    between atoms: C_34  and  C_35
   21  A    between atoms: C_40  and  C_49
   22  A    between atoms: C_44  and  C_52
                            x       y       z     vdW  Elec       q    Type
                         _______ _______ _______ _____ _____    ______ ____

>  <TORSDO>
F 22

$$$$
=
 OpenBabel10222421533D

 54 58  0  0  1  0  0  0  0  0999 V2000
  190.2110  175.8810  135.7280 O   0  0  0  0  0  0  0  0  0  0  0  0
  190.7910  176.7150  139.2020 C   0  0  1  0  0  3  0  0  0  0  0  0
  189.2590  177.2280  137.4010 N   0  0  0  0  0  0  0  0  0  0  0  0
  190.2390  176.3410  136.9000 C   0  0  0  0  0  0  0  0  0  0  0  0
  189.5930  177.4940  138.7530 C   0  0  0  0  0  0  0  0  0  0  0  0
  188.0370  178.7230  140.3480 O   0  0  0  0  0  0  0  0  0  0  0  0
  188.7940  178.1260  139.5720 C   0  0  0  0  0  0  0  0  0  0  0  0
  191.2620  175.9650  137.9190 C   0  0  1  0  0  3  0  0  0  0  0  0
  192.6570  176.3390  137.4190 C   0  0  0  0  0  2  0  0  0  0  0  0
  193.2240  175.2570  136.6870 O   0  0  0  0  0  0  0  0  0  0  0  0
  193.1520  172.4630  135.8660 N   0  0  0  0  0  0  0  0  0  0  0  0
  193.9850  172.8970  136.8520 C   0  0  0  0  0  0  0  0  0  0  0  0
  195.7790  173.6870  138.8240 C   0  0  0  0  0  3  0  0  0  0  0  0
  194.9530  174.6380  138.2230 C   0  0  0  0  0  3  0  0  0  0  0  0
  194.7970  170.6270  137.1160 C   0  0  0  0  0  3  0  0  0  0  0  0
  193.9220  170.2150  136.1100 C   0  0  0  0  0  3  0  0  0  0  0  0
  194.0390  174.2550  137.2390 C   0  0  0  0  0  0  0  0  0  0  0  0
  193.1020  171.1580  135.4890 C   0  0  0  0  0  3  0  0  0  0  0  0
  195.7040  172.3830  138.4530 N   0  0  0  0  0  0  0  0  0  0  0  0
  194.8400  171.9700  137.4910 C   0  0  0  0  0  0  0  0  0  0  0  0
  191.8290  177.6440  139.8380 C   0  0  0  0  0  2  0  0  0  0  0  0
  192.2120  177.1610  141.2270 C   0  0  0  0  0  2  0  0  0  0  0  0
  191.2700  177.7410  142.2680 C   0  0  0  0  0  2  0  0  0  0  0  0
  191.6610  177.2780  143.6610 C   0  0  0  0  0  2  0  0  0  0  0  0
  189.2480  176.0300  142.2860 O   0  0  0  0  0  0  0  0  0  0  0  0
  191.2870  176.8150  147.8200 O   0  0  0  0  0  0  0  0  0  0  0  0
  188.6740  177.4640  145.4780 C   0  0  0  0  0  0  0  0  0  0  0  0
  186.4680  178.1520  146.0500 N   0  0  0  0  0  0  0  0  0  0  0  0
  189.3210  176.4950  143.4540 C   0  0  0  0  0  0  0  0  0  0  0  0
  190.0830  177.0940  145.5970 C   0  0  0  0  0  0  0  0  0  0  0  0
  185.5510  178.6220  147.0690 C   0  0  0  0  0  1  0  0  0  0  0  0
  185.9710  178.0010  144.6680 C   0  0  0  0  0  2  0  0  0  0  0  0
  188.2160  177.1210  144.1610 C   0  0  0  0  0  0  0  0  0  0  0  0
  187.8450  177.9370  146.4040 C   0  0  0  0  0  3  0  0  0  0  0  0
  190.7020  176.9510  146.7390 C   0  0  0  0  0  0  0  0  0  0  0  0
  190.5560  176.4510  144.3120 C   0  0  2  0  0  3  0  0  0  0  0  0
  186.9620  177.3140  143.7530 C   0  0  0  0  0  3  0  0  0  0  0  0
  188.2330  177.8940  136.6100 C   0  0  0  0  0  2  0  0  0  0  0  0
  186.8660  177.3230  136.9520 C   0  0  0  0  0  2  0  0  0  0  0  0
  186.5860  176.0730  136.1330 C   0  0  1  0  0  3  0  0  0  0  0  0
  186.2180  174.9740  137.0140 N   0  0  0  0  0  2  0  0  0  0  0  0
  187.2940  174.0010  136.9430 C   0  0  0  0  0  2  0  0  0  0  0  0
  186.7200  172.6040  137.0430 C   0  0  0  0  0  2  0  0  0  0  0  0
  187.1570  171.7930  135.8400 C   0  0  0  0  0  1  0  0  0  0  0  0
  185.4880  176.3460  135.2190 N   0  0  0  0  0  2  0  0  0  0  0  0
  184.4550  177.0530  135.9640 C   0  0  0  0  0  2  0  0  0  0  0  0
  183.2580  176.2280  136.0710 N   0  0  0  0  0  2  0  0  0  0  0  0
  182.3310  176.9390  136.8470 N   0  0  0  0  0  2  0  0  0  0  0  0
  181.8590  176.0390  137.8900 C   0  0  0  0  0  2  0  0  0  0  0  0
  182.8460  175.9980  139.0510 C   0  0  0  0  0  2  0  0  0  0  0  0
  184.2420  177.8920  139.5970 N   0  0  0  0  0  0  0  0  0  0  0  0
  183.0740  177.3630  139.6180 C   0  0  0  0  0  3  0  0  0  0  0  0
  184.4620  179.2070  140.1410 C   0  0  0  0  0  2  0  0  0  0  0  0
  184.4280  180.1570  139.1210 O   0  0  0  0  0  1  0  0  0  0  0  0
  1  4  2  0  0  0  0
  2 21  1  6  0  0  0
  3  5  1  0  0  0  0
  4  3  1  0  0  0  0
  4  8  1  0  0  0  0
  5  2  1  0  0  0  0
  5  7  2  0  0  0  0
  7  6  2  0  0  0  0
  8  9  1  6  0  0  0
  8  2  1  0  0  0  0
 10 17  1  0  0  0  0
 10  9  1  0  0  0  0
 11 12  1  0  0  0  0
 12 17  2  0  0  0  0
 12 20  1  0  0  0  0
 14 13  2  0  0  0  0
 15 20  1  0  0  0  0
 16 15  2  0  0  0  0
 17 14  1  0  0  0  0
 18 11  2  0  0  0  0
 18 16  1  0  0  0  0
 19 13  1  0  0  0  0
 20 19  2  0  0  0  0
 21 22  1  0  0  0  0
 22 23  1  0  0  0  0
 23 24  1  0  0  0  0
 25 29  2  0  0  0  0
 27 30  1  0  0  0  0
 27 34  2  0  0  0  0
 28 34  1  0  0  0  0
 28 31  1  0  0  0  0
 29 33  1  0  0  0  0
 29 36  1  0  0  0  0
 30 35  2  0  0  0  0
 32 28  1  0  0  0  0
 33 27  1  0  0  0  0
 35 26  2  0  0  0  0
 36 24  1  6  0  0  0
 36 30  1  0  0  0  0
 37 33  2  0  0  0  0
 37 32  1  0  0  0  0
 38 39  1  0  0  0  0
 38  3  1  0  0  0  0
 40 39  1  1  0  0  0
 40 41  1  0  0  0  0
 42 41  1  0  0  0  0
 42 43  1  0  0  0  0
 44 43  1  0  0  0  0
 45 46  1  0  0  0  0
 45 40  1  0  0  0  0
 46 47  1  0  0  0  0
 47 48  1  0  0  0  0
 48 49  1  0  0  0  0
 49 50  1  0  0  0  0
 50 52  1  0  0  0  0
 51 52  2  0  0  0  0
 51 53  1  0  0  0  0
 54 53  1  0  0  0  0
M  END
>  <MODEL>
3

>  <REMARK>
 VINA RESULT:      -6.9      2.171      9.137
  Name = 
  22 active torsions:
  status: ('A' for Active; 'I' for Inactive)
    1  A    between atoms: C_1  and  C_12
    2  A    between atoms: N_2  and  C_17
    3  A    between atoms: N_2  and  C_46
    4  A    between atoms: O_5  and  C_23
    5  A    between atoms: O_5  and  C_36
    6  A    between atoms: C_7  and  C_15
    7  A    between atoms: C_7  and  N_21
    8  A    between atoms: C_8  and  C_35
    9  A    between atoms: C_12  and  N_30
   10  A    between atoms: C_15  and  C_17
   11  A    between atoms: C_17  and  N_30
   12  A    between atoms: C_19  and  N_47
   13  A    between atoms: C_19  and  C_52
   14  A    between atoms: C_23  and  C_53
   15  A    between atoms: N_24  and  C_41
   16  A    between atoms: N_26  and  C_46
   17  A    between atoms: N_26  and  N_47
   18  A    between atoms: C_28  and  C_34
   19  A    between atoms: C_28  and  C_40
   20  A    between atoms: C_34  and  C_35
   21  A    between atoms: C_40  and  C_49
   22  A    between atoms: C_44  and  C_52
                            x       y       z     vdW  Elec       q    Type
                         _______ _______ _______ _____ _____    ______ ____

>  <TORSDO>
F 22

$$$$
=
 OpenBabel10222421533D

 54 58  0  0  1  0  0  0  0  0999 V2000
  187.1860  177.8860  134.8430 O   0  0  0  0  0  0  0  0  0  0  0  0
  188.8650  178.0950  138.0420 C   0  0  1  0  0  3  0  0  0  0  0  0
  189.1780  177.1410  135.8410 N   0  0  0  0  0  0  0  0  0  0  0  0
  187.9240  177.7930  135.8590 C   0  0  0  0  0  0  0  0  0  0  0  0
  189.7330  177.2740  137.1400 C   0  0  0  0  0  0  0  0  0  0  0  0
  192.1380  176.6480  137.6890 O   0  0  0  0  0  0  0  0  0  0  0  0
  190.9680  176.9520  137.4220 C   0  0  0  0  0  0  0  0  0  0  0  0
  187.6050  178.4080  137.1800 C   0  0  1  0  0  3  0  0  0  0  0  0
  186.2900  177.8380  137.7150 C   0  0  0  0  0  2  0  0  0  0  0  0
  185.4040  178.8960  138.0680 O   0  0  0  0  0  0  0  0  0  0  0  0
  185.6330  179.2320  140.9520 N   0  0  0  0  0  0  0  0  0  0  0  0
  184.4470  178.9180  140.3620 C   0  0  0  0  0  0  0  0  0  0  0  0
  181.9600  178.3520  139.2540 C   0  0  0  0  0  3  0  0  0  0  0  0
  183.0680  178.5020  138.4180 C   0  0  0  0  0  3  0  0  0  0  0  0
  183.4030  178.8960  142.5510 C   0  0  0  0  0  3  0  0  0  0  0  0
  184.6370  179.2060  143.1230 C   0  0  0  0  0  3  0  0  0  0  0  0
  184.3260  178.7750  138.9610 C   0  0  0  0  0  0  0  0  0  0  0  0
  185.7500  179.3740  142.2990 C   0  0  0  0  0  3  0  0  0  0  0  0
  182.0950  178.4760  140.5990 N   0  0  0  0  0  0  0  0  0  0  0  0
  183.2970  178.7550  141.1660 C   0  0  0  0  0  0  0  0  0  0  0  0
  188.5970  177.3510  139.3530 C   0  0  0  0  0  2  0  0  0  0  0  0
  189.2990  178.0290  140.5180 C   0  0  0  0  0  2  0  0  0  0  0  0
  190.1920  177.0390  141.2470 C   0  0  0  0  0  2  0  0  0  0  0  0
  190.4450  177.4970  142.6730 C   0  0  0  0  0  2  0  0  0  0  0  0
  187.5180  176.6690  142.7940 O   0  0  0  0  0  0  0  0  0  0  0  0
  192.4390  176.0630  146.0820 O   0  0  0  0  0  0  0  0  0  0  0  0
  189.1010  177.3120  145.9010 C   0  0  0  0  0  0  0  0  0  0  0  0
  187.7580  177.8940  147.7780 N   0  0  0  0  0  0  0  0  0  0  0  0
  188.3150  176.8400  143.7530 C   0  0  0  0  0  0  0  0  0  0  0  0
  190.2460  176.8920  145.0950 C   0  0  0  0  0  0  0  0  0  0  0  0
  187.6730  178.1280  149.2060 C   0  0  0  0  0  1  0  0  0  0  0  0
  186.5460  178.0890  146.9580 C   0  0  0  0  0  2  0  0  0  0  0  0
  187.9260  177.3040  145.0740 C   0  0  0  0  0  0  0  0  0  0  0  0
  189.0350  177.5690  147.2040 C   0  0  0  0  0  3  0  0  0  0  0  0
  191.3730  176.4660  145.6020 C   0  0  0  0  0  0  0  0  0  0  0  0
  189.7930  176.5630  143.6900 C   0  0  2  0  0  3  0  0  0  0  0  0
  186.7140  177.6180  145.5290 C   0  0  0  0  0  3  0  0  0  0  0  0
  189.6920  176.3190  134.7540 C   0  0  0  0  0  2  0  0  0  0  0  0
  189.0740  174.9310  134.8190 C   0  0  0  0  0  2  0  0  0  0  0  0
  190.1490  173.8600  134.7420 C   0  0  1  0  0  3  0  0  0  0  0  0
  191.4150  174.3910  135.2270 N   0  0  0  0  0  2  0  0  0  0  0  0
  192.3320  173.2690  135.3240 C   0  0  0  0  0  2  0  0  0  0  0  0
  193.7220  173.7770  135.6430 C   0  0  0  0  0  2  0  0  0  0  0  0
  193.9310  175.1220  134.9780 C   0  0  0  0  0  1  0  0  0  0  0  0
  189.7510  172.7330  135.5700 N   0  0  0  0  0  2  0  0  0  0  0  0
  189.0170  173.2590  136.7130 C   0  0  0  0  0  2  0  0  0  0  0  0
  187.9430  172.3470  137.0850 N   0  0  0  0  0  2  0  0  0  0  0  0
  187.0480  172.2960  136.0060 N   0  0  0  0  0  2  0  0  0  0  0  0
  185.9800  173.2470  136.2850 C   0  0  0  0  0  2  0  0  0  0  0  0
  185.3240  172.9410  137.6270 C   0  0  0  0  0  2  0  0  0  0  0  0
  183.4640  172.1730  136.2900 N   0  0  0  0  0  0  0  0  0  0  0  0
  183.9070  172.4980  137.4490 C   0  0  0  0  0  3  0  0  0  0  0  0
  182.1000  171.7450  136.1180 C   0  0  0  0  0  2  0  0  0  0  0  0
  181.2810  172.8480  135.8780 O   0  0  0  0  0  1  0  0  0  0  0  0
  1  4  2  0  0  0  0
  2 21  1  1  0  0  0
  3  4  1  0  0  0  0
  3  5  1  0  0  0  0
  4  8  1  0  0  0  0
  5  7  2  0  0  0  0
  5  2  1  0  0  0  0
  7  6  2  0  0  0  0
  8  9  1  1  0  0  0
  8  2  1  0  0  0  0
  9 10  1  0  0  0  0
 10 17  1  0  0  0  0
 11 18  1  0  0  0  0
 12 11  2  0  0  0  0
 12 20  1  0  0  0  0
 13 19  2  0  0  0  0
 14 17  2  0  0  0  0
 14 13  1  0  0  0  0
 15 16  1  0  0  0  0
 17 12  1  0  0  0  0
 18 16  2  0  0  0  0
 19 20  1  0  0  0  0
 20 15  2  0  0  0  0
 21 22  1  0  0  0  0
 22 23  1  0  0  0  0
 23 24  1  0  0  0  0
 25 29  2  0  0  0  0
 27 34  2  0  0  0  0
 28 31  1  0  0  0  0
 29 33  1  0  0  0  0
 30 35  2  0  0  0  0
 30 27  1  0  0  0  0
 32 28  1  0  0  0  0
 33 37  2  0  0  0  0
 33 27  1  0  0  0  0
 34 28  1  0  0  0  0
 35 26  2  0  0  0  0
 36 24  1  6  0  0  0
 36 29  1  0  0  0  0
 36 30  1  0  0  0  0
 37 32  1  0  0  0  0
 38 39  1  0  0  0  0
 38  3  1  0  0  0  0
 40 39  1  1  0  0  0
 40 41  1  0  0  0  0
 40 45  1  0  0  0  0
 41 42  1  0  0  0  0
 42 43  1  0  0  0  0
 44 43  1  0  0  0  0
 45 46  1  0  0  0  0
 46 47  1  0  0  0  0
 48 49  1  0  0  0  0
 48 47  1  0  0  0  0
 49 50  1  0  0  0  0
 51 52  2  0  0  0  0
 52 50  1  0  0  0  0
 53 51  1  0  0  0  0
 54 53  1  0  0  0  0
M  END
>  <MODEL>
4

>  <REMARK>
 VINA RESULT:      -6.9      2.720      9.293
  Name = 
  22 active torsions:
  status: ('A' for Active; 'I' for Inactive)
    1  A    between atoms: C_1  and  C_12
    2  A    between atoms: N_2  and  C_17
    3  A    between atoms: N_2  and  C_46
    4  A    between atoms: O_5  and  C_23
    5  A    between atoms: O_5  and  C_36
    6  A    between atoms: C_7  and  C_15
    7  A    between atoms: C_7  and  N_21
    8  A    between atoms: C_8  and  C_35
    9  A    between atoms: C_12  and  N_30
   10  A    between atoms: C_15  and  C_17
   11  A    between atoms: C_17  and  N_30
   12  A    between atoms: C_19  and  N_47
   13  A    between atoms: C_19  and  C_52
   14  A    between atoms: C_23  and  C_53
   15  A    between atoms: N_24  and  C_41
   16  A    between atoms: N_26  and  C_46
   17  A    between atoms: N_26  and  N_47
   18  A    between atoms: C_28  and  C_34
   19  A    between atoms: C_28  and  C_40
   20  A    between atoms: C_34  and  C_35
   21  A    between atoms: C_40  and  C_49
   22  A    between atoms: C_44  and  C_52
                            x       y       z     vdW  Elec       q    Type
                         _______ _______ _______ _____ _____    ______ ____

>  <TORSDO>
F 22

$$$$
=
 OpenBabel10222421533D

 54 58  0  0  1  0  0  0  0  0999 V2000
  190.7290  175.8770  134.3490 O   0  0  0  0  0  0  0  0  0  0  0  0
  191.0070  176.9160  137.8040 C   0  0  1  0  0  3  0  0  0  0  0  0
  192.2580  175.7050  136.1240 N   0  0  0  0  0  0  0  0  0  0  0  0
  191.0240  176.0930  135.5530 C   0  0  0  0  0  0  0  0  0  0  0  0
  192.2490  176.1480  137.4710 C   0  0  0  0  0  0  0  0  0  0  0  0
  194.3140  176.1000  138.9570 O   0  0  0  0  0  0  0  0  0  0  0  0
  193.3100  176.1230  138.2340 C   0  0  0  0  0  0  0  0  0  0  0  0
  190.1480  176.8350  136.5060 C   0  0  1  0  0  3  0  0  0  0  0  0
  188.8090  176.1110  136.6530 C   0  0  0  0  0  2  0  0  0  0  0  0
  187.7640  177.0510  136.8810 O   0  0  0  0  0  0  0  0  0  0  0  0
  185.7360  178.5120  138.3770 N   0  0  0  0  0  0  0  0  0  0  0  0
  185.4150  177.4500  137.5880 C   0  0  0  0  0  0  0  0  0  0  0  0
  184.6380  175.3430  135.9470 C   0  0  0  0  0  3  0  0  0  0  0  0
  185.9850  175.7030  136.0150 C   0  0  0  0  0  3  0  0  0  0  0  0
  183.0890  177.7300  138.2170 C   0  0  0  0  0  3  0  0  0  0  0  0
  183.4560  178.8060  139.0260 C   0  0  0  0  0  3  0  0  0  0  0  0
  186.3930  176.7520  136.8430 C   0  0  0  0  0  0  0  0  0  0  0  0
  184.7970  179.1880  139.0910 C   0  0  0  0  0  3  0  0  0  0  0  0
  183.7140  176.0130  136.6820 N   0  0  0  0  0  0  0  0  0  0  0  0
  184.0640  177.0470  137.4880 C   0  0  0  0  0  0  0  0  0  0  0  0
  190.3480  176.3510  139.0650 C   0  0  0  0  0  2  0  0  0  0  0  0
  190.1160  177.4450  140.0940 C   0  0  0  0  0  2  0  0  0  0  0  0
  188.6340  177.7570  140.2100 C   0  0  0  0  0  2  0  0  0  0  0  0
  188.3190  178.3650  141.5670 C   0  0  0  0  0  2  0  0  0  0  0  0
  185.5110  177.9020  142.6480 O   0  0  0  0  0  0  0  0  0  0  0  0
  191.0310  175.9200  143.6460 O   0  0  0  0  0  0  0  0  0  0  0  0
  188.1660  177.5820  144.9760 C   0  0  0  0  0  0  0  0  0  0  0  0
  187.7040  177.8600  147.2940 N   0  0  0  0  0  0  0  0  0  0  0  0
  186.6080  177.7390  143.2440 C   0  0  0  0  0  0  0  0  0  0  0  0
  188.8510  177.2270  143.7340 C   0  0  0  0  0  0  0  0  0  0  0  0
  188.1680  177.7540  148.6630 C   0  0  0  0  0  1  0  0  0  0  0  0
  186.3500  178.3950  147.0480 C   0  0  0  0  0  2  0  0  0  0  0  0
  186.8030  177.9180  144.6730 C   0  0  0  0  0  0  0  0  0  0  0  0
  188.6090  177.5260  146.2290 C   0  0  0  0  0  3  0  0  0  0  0  0
  189.9700  176.5560  143.6880 C   0  0  0  0  0  0  0  0  0  0  0  0
  187.8830  177.3030  142.5740 C   0  0  2  0  0  3  0  0  0  0  0  0
  185.9140  178.2620  145.6040 C   0  0  0  0  0  3  0  0  0  0  0  0
  193.2470  174.8370  135.4990 C   0  0  0  0  0  2  0  0  0  0  0  0
  192.8490  173.3820  135.6860 C   0  0  0  0  0  2  0  0  0  0  0  0
  194.0510  172.4700  135.5040 C   0  0  1  0  0  3  0  0  0  0  0  0
  193.6790  171.3120  134.7030 N   0  0  0  0  0  2  0  0  0  0  0  0
  193.2110  170.2950  135.6280 C   0  0  0  0  0  2  0  0  0  0  0  0
  194.3210  169.3000  135.8920 C   0  0  0  0  0  2  0  0  0  0  0  0
  193.9310  168.4080  137.0520 C   0  0  0  0  0  1  0  0  0  0  0  0
  195.1030  173.2080  134.8240 N   0  0  0  0  0  2  0  0  0  0  0  0
  196.3210  173.0720  135.6120 C   0  0  0  0  0  2  0  0  0  0  0  0
  196.0570  172.2980  136.8180 N   0  0  0  0  0  2  0  0  0  0  0  0
  196.9250  172.7700  137.8140 N   0  0  0  0  0  2  0  0  0  0  0  0
  197.2880  174.1350  137.4610 C   0  0  0  0  0  2  0  0  0  0  0  0
  198.6680  174.4830  138.0090 C   0  0  0  0  0  2  0  0  0  0  0  0
  197.4490  175.1790  139.9750 N   0  0  0  0  0  0  0  0  0  0  0  0
  198.5700  175.1310  139.3540 C   0  0  0  0  0  3  0  0  0  0  0  0
  197.3540  175.8010  141.2700 C   0  0  0  0  0  2  0  0  0  0  0  0
  196.9390  177.1260  141.1340 O   0  0  0  0  0  1  0  0  0  0  0  0
  1  4  2  0  0  0  0
  2 21  1  1  0  0  0
  3  5  1  0  0  0  0
  4  3  1  0  0  0  0
  4  8  1  0  0  0  0
  5  2  1  0  0  0  0
  5  7  2  0  0  0  0
  7  6  2  0  0  0  0
  8  9  1  1  0  0  0
  8  2  1  0  0  0  0
  9 10  1  0  0  0  0
 11 18  1  0  0  0  0
 12 11  2  0  0  0  0
 13 14  1  0  0  0  0
 13 19  2  0  0  0  0
 14 17  2  0  0  0  0
 15 16  1  0  0  0  0
 16 18  2  0  0  0  0
 17 10  1  0  0  0  0
 17 12  1  0  0  0  0
 19 20  1  0  0  0  0
 20 12  1  0  0  0  0
 20 15  2  0  0  0  0
 21 22  1  0  0  0  0
 22 23  1  0  0  0  0
 23 24  1  0  0  0  0
 25 29  2  0  0  0  0
 26 35  2  0  0  0  0
 27 34  2  0  0  0  0
 28 31  1  0  0  0  0
 29 33  1  0  0  0  0
 30 27  1  0  0  0  0
 32 28  1  0  0  0  0
 33 27  1  0  0  0  0
 33 37  2  0  0  0  0
 34 28  1  0  0  0  0
 35 30  2  0  0  0  0
 36 24  1  6  0  0  0
 36 29  1  0  0  0  0
 36 30  1  0  0  0  0
 37 32  1  0  0  0  0
 38 39  1  0  0  0  0
 38  3  1  0  0  0  0
 40 39  1  6  0  0  0
 41 40  1  0  0  0  0
 41 42  1  0  0  0  0
 42 43  1  0  0  0  0
 43 44  1  0  0  0  0
 45 40  1  0  0  0  0
 45 46  1  0  0  0  0
 46 47  1  0  0  0  0
 47 48  1  0  0  0  0
 49 48  1  0  0  0  0
 49 50  1  0  0  0  0
 50 52  1  0  0  0  0
 51 53  1  0  0  0  0
 52 51  2  0  0  0  0
 54 53  1  0  0  0  0
M  END
>  <MODEL>
5

>  <REMARK>
 VINA RESULT:      -6.9      2.359     10.448
  Name = 
  22 active torsions:
  status: ('A' for Active; 'I' for Inactive)
    1  A    between atoms: C_1  and  C_12
    2  A    between atoms: N_2  and  C_17
    3  A    between atoms: N_2  and  C_46
    4  A    between atoms: O_5  and  C_23
    5  A    between atoms: O_5  and  C_36
    6  A    between atoms: C_7  and  C_15
    7  A    between atoms: C_7  and  N_21
    8  A    between atoms: C_8  and  C_35
    9  A    between atoms: C_12  and  N_30
   10  A    between atoms: C_15  and  C_17
   11  A    between atoms: C_17  and  N_30
   12  A    between atoms: C_19  and  N_47
   13  A    between atoms: C_19  and  C_52
   14  A    between atoms: C_23  and  C_53
   15  A    between atoms: N_24  and  C_41
   16  A    between atoms: N_26  and  C_46
   17  A    between atoms: N_26  and  N_47
   18  A    between atoms: C_28  and  C_34
   19  A    between atoms: C_28  and  C_40
   20  A    between atoms: C_34  and  C_35
   21  A    between atoms: C_40  and  C_49
   22  A    between atoms: C_44  and  C_52
                            x       y       z     vdW  Elec       q    Type
                         _______ _______ _______ _____ _____    ______ ____

>  <TORSDO>
F 22

$$$$
=
 OpenBabel10222421533D

 54 58  0  0  1  0  0  0  0  0999 V2000
  186.8180  178.0450  136.9990 O   0  0  0  0  0  0  0  0  0  0  0  0
  189.9210  177.7820  138.8430 C   0  0  1  0  0  3  0  0  0  0  0  0
  188.8480  176.8710  136.8740 N   0  0  0  0  0  0  0  0  0  0  0  0
  187.9430  177.7640  137.4900 C   0  0  0  0  0  0  0  0  0  0  0  0
  190.0120  176.8360  137.6850 C   0  0  0  0  0  0  0  0  0  0  0  0
  192.1740  175.7100  136.9560 O   0  0  0  0  0  0  0  0  0  0  0  0
  191.1230  176.2570  137.3100 C   0  0  0  0  0  0  0  0  0  0  0  0
  188.4850  178.3790  138.7370 C   0  0  1  0  0  3  0  0  0  0  0  0
  187.5600  178.0700  139.9140 C   0  0  0  0  0  2  0  0  0  0  0  0
  186.5150  179.0350  139.9850 O   0  0  0  0  0  0  0  0  0  0  0  0
  185.2590  179.4720  142.5760 N   0  0  0  0  0  0  0  0  0  0  0  0
  184.5710  178.9360  141.5300 C   0  0  0  0  0  0  0  0  0  0  0  0
  183.0530  177.9060  139.4410 C   0  0  0  0  0  3  0  0  0  0  0  0
  184.3910  178.2340  139.2220 C   0  0  0  0  0  3  0  0  0  0  0  0
  182.6090  178.7760  142.9470 C   0  0  0  0  0  3  0  0  0  0  0  0
  183.3470  179.3160  144.0010 C   0  0  0  0  0  3  0  0  0  0  0  0
  185.1710  178.7420  140.2650 C   0  0  0  0  0  0  0  0  0  0  0  0
  184.6830  179.6640  143.7920 C   0  0  0  0  0  3  0  0  0  0  0  0
  182.4960  178.0830  140.6660 N   0  0  0  0  0  0  0  0  0  0  0  0
  183.2130  178.5870  141.7030 C   0  0  0  0  0  0  0  0  0  0  0  0
  190.2360  177.0570  140.1540 C   0  0  0  0  0  2  0  0  0  0  0  0
  191.5390  177.5590  140.7540 C   0  0  0  0  0  2  0  0  0  0  0  0
  191.8420  176.8270  142.0500 C   0  0  0  0  0  2  0  0  0  0  0  0
  191.2240  177.5550  143.2320 C   0  0  0  0  0  2  0  0  0  0  0  0
  188.3250  176.6980  142.8650 O   0  0  0  0  0  0  0  0  0  0  0  0
  192.6440  176.1130  146.9150 O   0  0  0  0  0  0  0  0  0  0  0  0
  189.3680  177.3330  146.1930 C   0  0  0  0  0  0  0  0  0  0  0  0
  187.7290  177.8880  147.8270 N   0  0  0  0  0  0  0  0  0  0  0  0
  188.9520  176.8700  143.9430 C   0  0  0  0  0  0  0  0  0  0  0  0
  190.6350  176.9290  145.5850 C   0  0  0  0  0  0  0  0  0  0  0  0
  187.4080  178.1100  149.2230 C   0  0  0  0  0  1  0  0  0  0  0  0
  186.6660  178.0780  146.8200 C   0  0  0  0  0  2  0  0  0  0  0  0
  188.3460  177.3200  145.1840 C   0  0  0  0  0  0  0  0  0  0  0  0
  189.0860  177.5800  147.4690 C   0  0  0  0  0  3  0  0  0  0  0  0
  191.6670  176.5100  146.2680 C   0  0  0  0  0  0  0  0  0  0  0  0
  190.4230  176.6070  144.1230 C   0  0  2  0  0  3  0  0  0  0  0  0
  187.0730  177.6190  145.4350 C   0  0  0  0  0  3  0  0  0  0  0  0
  188.5490  176.0040  135.7430 C   0  0  0  0  0  2  0  0  0  0  0  0
  187.5910  174.9050  136.1730 C   0  0  0  0  0  2  0  0  0  0  0  0
  186.4190  174.8080  135.2110 C   0  0  1  0  0  3  0  0  0  0  0  0
  186.2970  173.4460  134.7120 N   0  0  0  0  0  2  0  0  0  0  0  0
  186.4750  172.5630  135.8510 C   0  0  0  0  0  2  0  0  0  0  0  0
  187.0070  171.2270  135.3780 C   0  0  0  0  0  2  0  0  0  0  0  0
  188.4990  171.3370  135.1400 C   0  0  0  0  0  1  0  0  0  0  0  0
  185.2000  175.1740  135.9160 N   0  0  0  0  0  2  0  0  0  0  0  0
  184.4910  176.1500  135.1000 C   0  0  0  0  0  2  0  0  0  0  0  0
  183.0560  175.9050  135.1550 N   0  0  0  0  0  2  0  0  0  0  0  0
  182.4960  176.8920  135.9800 N   0  0  0  0  0  2  0  0  0  0  0  0
  181.2070  176.3940  136.4370 C   0  0  0  0  0  2  0  0  0  0  0  0
  180.1300  177.4600  136.2730 C   0  0  0  0  0  2  0  0  0  0  0  0
  180.6690  179.8090  136.4330 N   0  0  0  0  0  0  0  0  0  0  0  0
  180.4710  178.6980  137.0410 C   0  0  0  0  0  3  0  0  0  0  0  0
  180.9970  181.0020  137.1710 C   0  0  0  0  0  2  0  0  0  0  0  0
  180.9250  180.7500  138.5410 O   0  0  0  0  0  1  0  0  0  0  0  0
  1  4  2  0  0  0  0
  2 21  1  1  0  0  0
  3  4  1  0  0  0  0
  3  5  1  0  0  0  0
  4  8  1  0  0  0  0
  5  2  1  0  0  0  0
  6  7  2  0  0  0  0
  7  5  2  0  0  0  0
  8  2  1  0  0  0  0
  8  9  1  1  0  0  0
  9 10  1  0  0  0  0
 10 17  1  0  0  0  0
 11 18  1  0  0  0  0
 12 20  1  0  0  0  0
 12 11  2  0  0  0  0
 13 19  2  0  0  0  0
 14 13  1  0  0  0  0
 14 17  2  0  0  0  0
 15 16  1  0  0  0  0
 17 12  1  0  0  0  0
 18 16  2  0  0  0  0
 19 20  1  0  0  0  0
 20 15  2  0  0  0  0
 21 22  1  0  0  0  0
 22 23  1  0  0  0  0
 23 24  1  0  0  0  0
 25 29  2  0  0  0  0
 27 34  2  0  0  0  0
 28 31  1  0  0  0  0
 29 36  1  0  0  0  0
 29 33  1  0  0  0  0
 30 27  1  0  0  0  0
 30 35  2  0  0  0  0
 32 28  1  0  0  0  0
 33 37  2  0  0  0  0
 33 27  1  0  0  0  0
 34 28  1  0  0  0  0
 35 26  2  0  0  0  0
 36 24  1  6  0  0  0
 36 30  1  0  0  0  0
 37 32  1  0  0  0  0
 38 39  1  0  0  0  0
 38  3  1  0  0  0  0
 40 45  1  0  0  0  0
 40 39  1  1  0  0  0
 41 40  1  0  0  0  0
 41 42  1  0  0  0  0
 43 42  1  0  0  0  0
 44 43  1  0  0  0  0
 46 47  1  0  0  0  0
 46 45  1  0  0  0  0
 47 48  1  0  0  0  0
 48 49  1  0  0  0  0
 50 49  1  0  0  0  0
 50 52  1  0  0  0  0
 51 52  2  0  0  0  0
 51 53  1  0  0  0  0
 53 54  1  0  0  0  0
M  END
>  <MODEL>
6

>  <REMARK>
 VINA RESULT:      -6.8      3.073      9.085
  Name = 
  22 active torsions:
  status: ('A' for Active; 'I' for Inactive)
    1  A    between atoms: C_1  and  C_12
    2  A    between atoms: N_2  and  C_17
    3  A    between atoms: N_2  and  C_46
    4  A    between atoms: O_5  and  C_23
    5  A    between atoms: O_5  and  C_36
    6  A    between atoms: C_7  and  C_15
    7  A    between atoms: C_7  and  N_21
    8  A    between atoms: C_8  and  C_35
    9  A    between atoms: C_12  and  N_30
   10  A    between atoms: C_15  and  C_17
   11  A    between atoms: C_17  and  N_30
   12  A    between atoms: C_19  and  N_47
   13  A    between atoms: C_19  and  C_52
   14  A    between atoms: C_23  and  C_53
   15  A    between atoms: N_24  and  C_41
   16  A    between atoms: N_26  and  C_46
   17  A    between atoms: N_26  and  N_47
   18  A    between atoms: C_28  and  C_34
   19  A    between atoms: C_28  and  C_40
   20  A    between atoms: C_34  and  C_35
   21  A    between atoms: C_40  and  C_49
   22  A    between atoms: C_44  and  C_52
                            x       y       z     vdW  Elec       q    Type
                         _______ _______ _______ _____ _____    ______ ____

>  <TORSDO>
F 22

$$$$
=
 OpenBabel10222421533D

 54 58  0  0  1  0  0  0  0  0999 V2000
  186.5110  178.7120  140.2030 O   0  0  0  0  0  0  0  0  0  0  0  0
  189.8420  177.8150  139.1090 C   0  0  1  0  0  3  0  0  0  0  0  0
  187.5870  177.9740  138.2490 N   0  0  0  0  0  0  0  0  0  0  0  0
  187.5560  178.3220  139.6190 C   0  0  0  0  0  0  0  0  0  0  0  0
  188.9270  177.6300  137.9390 C   0  0  0  0  0  0  0  0  0  0  0  0
  189.7460  177.2620  135.5570 O   0  0  0  0  0  0  0  0  0  0  0  0
  189.3480  177.4410  136.7150 C   0  0  0  0  0  0  0  0  0  0  0  0
  188.8950  178.2410  140.2720 C   0  0  1  0  0  3  0  0  0  0  0  0
  188.8390  177.2750  141.4560 C   0  0  0  0  0  2  0  0  0  0  0  0
  189.2850  177.9240  142.6420 O   0  0  0  0  0  0  0  0  0  0  0  0
  190.8680  177.2410  144.9890 N   0  0  0  0  0  0  0  0  0  0  0  0
  189.5140  177.3660  145.0530 C   0  0  0  0  0  0  0  0  0  0  0  0
  186.7620  177.6690  145.3130 C   0  0  0  0  0  3  0  0  0  0  0  0
  187.3640  177.8780  144.0710 C   0  0  0  0  0  3  0  0  0  0  0  0
  189.6100  176.8170  147.4130 C   0  0  0  0  0  3  0  0  0  0  0  0
  190.9950  176.6850  147.3090 C   0  0  0  0  0  3  0  0  0  0  0  0
  188.7440  177.7180  143.9210 C   0  0  0  0  0  0  0  0  0  0  0  0
  191.6120  176.9070  146.0770 C   0  0  0  0  0  3  0  0  0  0  0  0
  187.5140  177.3150  146.3860 N   0  0  0  0  0  0  0  0  0  0  0  0
  188.8600  177.1630  146.2890 C   0  0  0  0  0  0  0  0  0  0  0  0
  190.6590  176.5430  139.3590 C   0  0  0  0  0  2  0  0  0  0  0  0
  192.1240  176.7640  139.0240 C   0  0  0  0  0  2  0  0  0  0  0  0
  192.5570  175.8320  137.9050 C   0  0  0  0  0  2  0  0  0  0  0  0
  193.5420  176.5270  136.9790 C   0  0  0  0  0  2  0  0  0  0  0  0
  192.0950  174.8350  134.9020 O   0  0  0  0  0  0  0  0  0  0  0  0
  197.5960  175.4330  137.0870 O   0  0  0  0  0  0  0  0  0  0  0  0
  194.7930  173.2790  136.5980 C   0  0  0  0  0  0  0  0  0  0  0  0
  194.8600  170.9030  136.7170 N   0  0  0  0  0  0  0  0  0  0  0  0
  193.1390  174.5480  135.5460 C   0  0  0  0  0  0  0  0  0  0  0  0
  195.2040  174.6810  136.6630 C   0  0  0  0  0  0  0  0  0  0  0  0
  195.6050  169.7080  137.0630 C   0  0  0  0  0  1  0  0  0  0  0  0
  193.4790  170.7530  136.2180 C   0  0  0  0  0  2  0  0  0  0  0  0
  193.5200  173.2010  135.9370 C   0  0  0  0  0  0  0  0  0  0  0  0
  195.4610  172.1870  136.9570 C   0  0  0  0  0  3  0  0  0  0  0  0
  196.4330  175.0670  136.8810 C   0  0  0  0  0  0  0  0  0  0  0  0
  194.1690  175.5520  135.9860 C   0  0  2  0  0  3  0  0  0  0  0  0
  192.8910  172.0510  135.7040 C   0  0  0  0  0  3  0  0  0  0  0  0
  186.4230  177.8050  137.3900 C   0  0  0  0  0  2  0  0  0  0  0  0
  186.1170  176.3250  137.2190 C   0  0  0  0  0  2  0  0  0  0  0  0
  184.6990  176.1250  136.7130 C   0  0  1  0  0  3  0  0  0  0  0  0
  184.5790  174.8230  136.0720 N   0  0  0  0  0  2  0  0  0  0  0  0
  185.1800  173.8550  136.9720 C   0  0  0  0  0  2  0  0  0  0  0  0
  184.2620  172.6610  137.1190 C   0  0  0  0  0  2  0  0  0  0  0  0
  184.1190  171.9680  135.7800 C   0  0  0  0  0  1  0  0  0  0  0  0
  183.7830  176.1930  137.8400 N   0  0  0  0  0  2  0  0  0  0  0  0
  182.6260  176.9750  137.4260 C   0  0  0  0  0  2  0  0  0  0  0  0
  182.8050  178.3730  137.7960 N   0  0  0  0  0  2  0  0  0  0  0  0
  181.8820  178.6560  138.8140 N   0  0  0  0  0  2  0  0  0  0  0  0
  182.6330  179.1750  139.9480 C   0  0  0  0  0  2  0  0  0  0  0  0
  183.0930  178.0370  140.8530 C   0  0  0  0  0  2  0  0  0  0  0  0
  182.9110  178.7740  143.1460 N   0  0  0  0  0  0  0  0  0  0  0  0
  183.6660  178.5600  142.1320 C   0  0  0  0  0  3  0  0  0  0  0  0
  183.4610  179.2760  144.3780 C   0  0  0  0  0  2  0  0  0  0  0  0
  184.5700  180.0810  144.1130 O   0  0  0  0  0  1  0  0  0  0  0  0
  2 21  1  1  0  0  0
  2  8  1  0  0  0  0
  3  4  1  0  0  0  0
  4  1  2  0  0  0  0
  4  8  1  0  0  0  0
  5  3  1  0  0  0  0
  5  2  1  0  0  0  0
  6  7  2  0  0  0  0
  7  5  2  0  0  0  0
  8  9  1  1  0  0  0
  9 10  1  0  0  0  0
 10 17  1  0  0  0  0
 11 12  2  0  0  0  0
 11 18  1  0  0  0  0
 12 20  1  0  0  0  0
 13 19  2  0  0  0  0
 14 13  1  0  0  0  0
 16 15  1  0  0  0  0
 17 14  2  0  0  0  0
 17 12  1  0  0  0  0
 18 16  2  0  0  0  0
 20 19  1  0  0  0  0
 20 15  2  0  0  0  0
 22 21  1  0  0  0  0
 23 22  1  0  0  0  0
 24 23  1  0  0  0  0
 25 29  2  0  0  0  0
 27 30  1  0  0  0  0
 27 34  2  0  0  0  0
 28 34  1  0  0  0  0
 28 31  1  0  0  0  0
 29 33  1  0  0  0  0
 29 36  1  0  0  0  0
 30 35  2  0  0  0  0
 32 28  1  0  0  0  0
 33 27  1  0  0  0  0
 35 26  2  0  0  0  0
 36 30  1  0  0  0  0
 36 24  1  1  0  0  0
 37 33  2  0  0  0  0
 37 32  1  0  0  0  0
 38  3  1  0  0  0  0
 39 38  1  0  0  0  0
 40 39  1  1  0  0  0
 40 45  1  0  0  0  0
 41 40  1  0  0  0  0
 41 42  1  0  0  0  0
 42 43  1  0  0  0  0
 44 43  1  0  0  0  0
 46 47  1  0  0  0  0
 46 45  1  0  0  0  0
 47 48  1  0  0  0  0
 48 49  1  0  0  0  0
 49 50  1  0  0  0  0
 50 52  1  0  0  0  0
 51 53  1  0  0  0  0
 52 51  2  0  0  0  0
 54 53  1  0  0  0  0
M  END
>  <MODEL>
7

>  <REMARK>
 VINA RESULT:      -6.7      1.960      7.025
  Name = 
  22 active torsions:
  status: ('A' for Active; 'I' for Inactive)
    1  A    between atoms: C_1  and  C_12
    2  A    between atoms: N_2  and  C_17
    3  A    between atoms: N_2  and  C_46
    4  A    between atoms: O_5  and  C_23
    5  A    between atoms: O_5  and  C_36
    6  A    between atoms: C_7  and  C_15
    7  A    between atoms: C_7  and  N_21
    8  A    between atoms: C_8  and  C_35
    9  A    between atoms: C_12  and  N_30
   10  A    between atoms: C_15  and  C_17
   11  A    between atoms: C_17  and  N_30
   12  A    between atoms: C_19  and  N_47
   13  A    between atoms: C_19  and  C_52
   14  A    between atoms: C_23  and  C_53
   15  A    between atoms: N_24  and  C_41
   16  A    between atoms: N_26  and  C_46
   17  A    between atoms: N_26  and  N_47
   18  A    between atoms: C_28  and  C_34
   19  A    between atoms: C_28  and  C_40
   20  A    between atoms: C_34  and  C_35
   21  A    between atoms: C_40  and  C_49
   22  A    between atoms: C_44  and  C_52
                            x       y       z     vdW  Elec       q    Type
                         _______ _______ _______ _____ _____    ______ ____

>  <TORSDO>
F 22

$$$$
=
 OpenBabel10222421533D

 54 58  0  0  1  0  0  0  0  0999 V2000
  193.8110  176.9150  139.9920 O   0  0  0  0  0  0  0  0  0  0  0  0
  190.7400  176.8720  138.0780 C   0  0  1  0  0  3  0  0  0  0  0  0
  191.5270  177.3600  140.3130 N   0  0  0  0  0  0  0  0  0  0  0  0
  192.6340  176.9360  139.5440 C   0  0  0  0  0  0  0  0  0  0  0  0
  190.3870  177.2890  139.4720 C   0  0  0  0  0  0  0  0  0  0  0  0
  188.1260  178.2630  140.1190 O   0  0  0  0  0  0  0  0  0  0  0  0
  189.2260  177.7890  139.8050 C   0  0  0  0  0  0  0  0  0  0  0  0
  192.2700  176.5830  138.1410 C   0  0  1  0  0  3  0  0  0  0  0  0
  192.6740  175.1380  137.8460 C   0  0  0  0  0  2  0  0  0  0  0  0
  193.7070  175.1060  136.8670 O   0  0  0  0  0  0  0  0  0  0  0  0
  196.1400  175.8200  135.4330 N   0  0  0  0  0  0  0  0  0  0  0  0
  196.1030  174.7690  136.2980 C   0  0  0  0  0  0  0  0  0  0  0  0
  196.1590  172.6500  138.0980 C   0  0  0  0  0  3  0  0  0  0  0  0
  194.9780  173.3720  137.9210 C   0  0  0  0  0  3  0  0  0  0  0  0
  198.4380  174.3310  135.8120 C   0  0  0  0  0  3  0  0  0  0  0  0
  198.4370  175.4070  134.9240 C   0  0  0  0  0  3  0  0  0  0  0  0
  194.9300  174.4320  137.0120 C   0  0  0  0  0  0  0  0  0  0  0  0
  197.2680  176.1480  134.7490 C   0  0  0  0  0  3  0  0  0  0  0  0
  197.2720  172.9750  137.3920 N   0  0  0  0  0  0  0  0  0  0  0  0
  197.2740  174.0070  136.5100 C   0  0  0  0  0  0  0  0  0  0  0  0
  189.8660  175.6970  137.6310 C   0  0  0  0  0  2  0  0  0  0  0  0
  189.2480  175.9650  136.2690 C   0  0  0  0  0  2  0  0  0  0  0  0
  188.3960  174.7860  135.8330 C   0  0  0  0  0  2  0  0  0  0  0  0
  186.9400  175.1980  135.6970 C   0  0  0  0  0  2  0  0  0  0  0  0
  185.2820  173.4240  137.5340 O   0  0  0  0  0  0  0  0  0  0  0  0
  186.9380  179.1280  137.1850 O   0  0  0  0  0  0  0  0  0  0  0  0
  184.2340  176.7990  137.2390 C   0  0  0  0  0  0  0  0  0  0  0  0
  181.9700  177.3480  137.7270 N   0  0  0  0  0  0  0  0  0  0  0  0
  185.1780  174.6660  137.3550 C   0  0  0  0  0  0  0  0  0  0  0  0
  185.6650  176.9360  136.9750 C   0  0  0  0  0  0  0  0  0  0  0  0
  180.9720  178.3760  137.9430 C   0  0  0  0  0  1  0  0  0  0  0  0
  181.5470  175.9340  137.7700 C   0  0  0  0  0  2  0  0  0  0  0  0
  183.9330  175.4100  137.4470 C   0  0  0  0  0  0  0  0  0  0  0  0
  183.3110  177.7430  137.3930 C   0  0  0  0  0  3  0  0  0  0  0  0
  186.3190  178.0620  137.0820 C   0  0  0  0  0  0  0  0  0  0  0  0
  186.3330  175.5800  137.0450 C   0  0  2  0  0  3  0  0  0  0  0  0
  182.7110  174.9660  137.7350 C   0  0  0  0  0  3  0  0  0  0  0  0
  191.5370  177.6160  141.7470 C   0  0  0  0  0  2  0  0  0  0  0  0
  190.8710  176.4640  142.4820 C   0  0  0  0  0  2  0  0  0  0  0  0
  190.1580  176.9620  143.7280 C   0  0  1  0  0  3  0  0  0  0  0  0
  191.0530  177.8020  144.5100 N   0  0  0  0  0  2  0  0  0  0  0  0
  191.2860  177.1140  145.7670 C   0  0  0  0  0  2  0  0  0  0  0  0
  189.9620  176.8470  146.4510 C   0  0  0  0  0  2  0  0  0  0  0  0
  189.9740  177.4700  147.8310 C   0  0  0  0  0  1  0  0  0  0  0  0
  188.9960  177.7380  143.3260 N   0  0  0  0  0  2  0  0  0  0  0  0
  187.8390  176.8550  143.3600 C   0  0  0  0  0  2  0  0  0  0  0  0
  186.6370  177.6120  143.6830 N   0  0  0  0  0  2  0  0  0  0  0  0
  186.5960  177.7540  145.0780 N   0  0  0  0  0  2  0  0  0  0  0  0
  185.4220  178.5540  145.3990 C   0  0  0  0  0  2  0  0  0  0  0  0
  184.8560  179.2060  144.1420 C   0  0  0  0  0  2  0  0  0  0  0  0
  182.5460  179.6470  143.5940 N   0  0  0  0  0  0  0  0  0  0  0  0
  183.4420  178.7830  143.9020 C   0  0  0  0  0  3  0  0  0  0  0  0
  181.1840  179.2410  143.3610 C   0  0  0  0  0  2  0  0  0  0  0  0
  180.5360  180.1790  142.5570 O   0  0  0  0  0  1  0  0  0  0  0  0
  2 21  1  1  0  0  0
  2  8  1  0  0  0  0
  2  5  1  0  0  0  0
  3 38  1  0  0  0  0
  4  1  2  0  0  0  0
  4  3  1  0  0  0  0
  5  7  2  0  0  0  0
  5  3  1  0  0  0  0
  7  6  2  0  0  0  0
  8  9  1  1  0  0  0
  8  4  1  0  0  0  0
 10 17  1  0  0  0  0
 10  9  1  0  0  0  0
 11 12  1  0  0  0  0
 12 20  2  0  0  0  0
 12 17  1  0  0  0  0
 14 13  1  0  0  0  0
 15 20  1  0  0  0  0
 16 15  2  0  0  0  0
 17 14  2  0  0  0  0
 18 16  1  0  0  0  0
 18 11  2  0  0  0  0
 19 13  2  0  0  0  0
 20 19  1  0  0  0  0
 22 21  1  0  0  0  0
 23 22  1  0  0  0  0
 24 23  1  0  0  0  0
 27 34  2  0  0  0  0
 27 33  1  0  0  0  0
 28 32  1  0  0  0  0
 28 31  1  0  0  0  0
 29 33  1  0  0  0  0
 29 25  2  0  0  0  0
 30 36  1  0  0  0  0
 30 35  2  0  0  0  0
 30 27  1  0  0  0  0
 33 37  2  0  0  0  0
 34 28  1  0  0  0  0
 35 26  2  0  0  0  0
 36 24  1  6  0  0  0
 36 29  1  0  0  0  0
 37 32  1  0  0  0  0
 38 39  1  0  0  0  0
 40 39  1  6  0  0  0
 40 41  1  0  0  0  0
 41 42  1  0  0  0  0
 42 43  1  0  0  0  0
 43 44  1  0  0  0  0
 45 46  1  0  0  0  0
 45 40  1  0  0  0  0
 46 47  1  0  0  0  0
 47 48  1  0  0  0  0
 48 49  1  0  0  0  0
 50 49  1  0  0  0  0
 51 52  2  0  0  0  0
 52 50  1  0  0  0  0
 53 51  1  0  0  0  0
 54 53  1  0  0  0  0
M  END
>  <MODEL>
8

>  <REMARK>
 VINA RESULT:      -6.6      2.091      8.043
  Name = 
  22 active torsions:
  status: ('A' for Active; 'I' for Inactive)
    1  A    between atoms: C_1  and  C_12
    2  A    between atoms: N_2  and  C_17
    3  A    between atoms: N_2  and  C_46
    4  A    between atoms: O_5  and  C_23
    5  A    between atoms: O_5  and  C_36
    6  A    between atoms: C_7  and  C_15
    7  A    between atoms: C_7  and  N_21
    8  A    between atoms: C_8  and  C_35
    9  A    between atoms: C_12  and  N_30
   10  A    between atoms: C_15  and  C_17
   11  A    between atoms: C_17  and  N_30
   12  A    between atoms: C_19  and  N_47
   13  A    between atoms: C_19  and  C_52
   14  A    between atoms: C_23  and  C_53
   15  A    between atoms: N_24  and  C_41
   16  A    between atoms: N_26  and  C_46
   17  A    between atoms: N_26  and  N_47
   18  A    between atoms: C_28  and  C_34
   19  A    between atoms: C_28  and  C_40
   20  A    between atoms: C_34  and  C_35
   21  A    between atoms: C_40  and  C_49
   22  A    between atoms: C_44  and  C_52
                            x       y       z     vdW  Elec       q    Type
                         _______ _______ _______ _____ _____    ______ ____

>  <TORSDO>
F 22

$$$$
=
 OpenBabel10222421533D

 54 58  0  0  1  0  0  0  0  0999 V2000
  188.2910  177.5860  135.7150 O   0  0  0  0  0  0  0  0  0  0  0  0
  189.7280  178.1270  138.9930 C   0  0  1  0  0  3  0  0  0  0  0  0
  190.2190  176.9870  136.9160 N   0  0  0  0  0  0  0  0  0  0  0  0
  188.9550  177.6050  136.7850 C   0  0  0  0  0  0  0  0  0  0  0  0
  190.6750  177.2510  138.2330 C   0  0  0  0  0  0  0  0  0  0  0  0
  193.0450  176.7400  139.0070 O   0  0  0  0  0  0  0  0  0  0  0  0
  191.8930  176.9890  138.6300 C   0  0  0  0  0  0  0  0  0  0  0  0
  188.5270  178.3280  138.0180 C   0  0  1  0  0  3  0  0  0  0  0  0
  187.1890  177.7740  138.5080 C   0  0  0  0  0  2  0  0  0  0  0  0
  186.1840  178.7800  138.4340 O   0  0  0  0  0  0  0  0  0  0  0  0
  185.6000  179.0890  141.2700 N   0  0  0  0  0  0  0  0  0  0  0  0
  184.6230  178.8020  140.3670 C   0  0  0  0  0  0  0  0  0  0  0  0
  182.5380  178.2910  138.5990 C   0  0  0  0  0  3  0  0  0  0  0  0
  183.8380  178.4270  138.1100 C   0  0  0  0  0  3  0  0  0  0  0  0
  183.0060  178.7810  142.1750 C   0  0  0  0  0  3  0  0  0  0  0  0
  184.0350  179.0630  143.0750 C   0  0  0  0  0  3  0  0  0  0  0  0
  184.8980  178.6720  138.9870 C   0  0  0  0  0  0  0  0  0  0  0  0
  185.3370  179.2180  142.5980 C   0  0  0  0  0  3  0  0  0  0  0  0
  182.2920  178.4010  139.9300 N   0  0  0  0  0  0  0  0  0  0  0  0
  183.2900  178.6530  140.8150 C   0  0  0  0  0  0  0  0  0  0  0  0
  189.3790  177.4970  140.3440 C   0  0  0  0  0  2  0  0  0  0  0  0
  188.9280  178.5550  141.3370 C   0  0  0  0  0  2  0  0  0  0  0  0
  189.7430  178.4630  142.6150 C   0  0  0  0  0  2  0  0  0  0  0  0
  190.3810  177.0900  142.7460 C   0  0  0  0  0  2  0  0  0  0  0  0
  187.4830  176.1770  142.9440 O   0  0  0  0  0  0  0  0  0  0  0  0
  192.3680  176.1990  146.3390 O   0  0  0  0  0  0  0  0  0  0  0  0
  188.9910  177.2880  145.9540 C   0  0  0  0  0  0  0  0  0  0  0  0
  187.5980  178.0640  147.7210 N   0  0  0  0  0  0  0  0  0  0  0  0
  188.2580  176.5050  143.8800 C   0  0  0  0  0  0  0  0  0  0  0  0
  190.1640  176.8060  145.2250 C   0  0  0  0  0  0  0  0  0  0  0  0
  187.4820  178.4830  149.1040 C   0  0  0  0  0  1  0  0  0  0  0  0
  186.3930  178.1030  146.8690 C   0  0  0  0  0  2  0  0  0  0  0  0
  187.8310  177.1260  145.1230 C   0  0  0  0  0  0  0  0  0  0  0  0
  188.8950  177.7140  147.2100 C   0  0  0  0  0  3  0  0  0  0  0  0
  191.2960  176.4940  145.7970 C   0  0  0  0  0  0  0  0  0  0  0  0
  189.7450  176.2770  143.8720 C   0  0  2  0  0  3  0  0  0  0  0  0
  186.6020  177.4520  145.5180 C   0  0  0  0  0  3  0  0  0  0  0  0
  190.8280  176.0840  135.9490 C   0  0  0  0  0  2  0  0  0  0  0  0
  189.7490  175.2680  135.2550 C   0  0  0  0  0  2  0  0  0  0  0  0
  189.6910  173.8600  135.8250 C   0  0  1  0  0  3  0  0  0  0  0  0
  188.6100  173.7610  136.7950 N   0  0  0  0  0  2  0  0  0  0  0  0
  187.3670  173.8280  136.0470 C   0  0  0  0  0  2  0  0  0  0  0  0
  186.2280  174.1570  136.9880 C   0  0  0  0  0  2  0  0  0  0  0  0
  185.6960  172.8780  137.6020 C   0  0  0  0  0  1  0  0  0  0  0  0
  189.4510  172.9230  134.7390 N   0  0  0  0  0  2  0  0  0  0  0  0
  190.5140  171.9280  134.7680 C   0  0  0  0  0  2  0  0  0  0  0  0
  191.7250  172.5020  135.3400 N   0  0  0  0  0  2  0  0  0  0  0  0
  192.6610  171.4630  135.4610 N   0  0  0  0  0  2  0  0  0  0  0  0
  193.8930  172.0480  135.9710 C   0  0  0  0  0  2  0  0  0  0  0  0
  193.5930  173.2720  136.8300 C   0  0  0  0  0  2  0  0  0  0  0  0
  195.0970  173.7350  138.6620 N   0  0  0  0  0  0  0  0  0  0  0  0
  194.8450  173.8480  137.4100 C   0  0  0  0  0  3  0  0  0  0  0  0
  196.3030  174.2880  139.2210 C   0  0  0  0  0  2  0  0  0  0  0  0
  196.9760  175.0380  138.2560 O   0  0  0  0  0  1  0  0  0  0  0  0
  1  4  2  0  0  0  0
  2 21  1  1  0  0  0
  3  5  1  0  0  0  0
  4  3  1  0  0  0  0
  4  8  1  0  0  0  0
  5  7  2  0  0  0  0
  5  2  1  0  0  0  0
  7  6  2  0  0  0  0
  8  9  1  1  0  0  0
  8  2  1  0  0  0  0
 10  9  1  0  0  0  0
 10 17  1  0  0  0  0
 11 18  1  0  0  0  0
 12 20  1  0  0  0  0
 12 11  2  0  0  0  0
 13 19  2  0  0  0  0
 14 13  1  0  0  0  0
 14 17  2  0  0  0  0
 15 16  1  0  0  0  0
 17 12  1  0  0  0  0
 18 16  2  0  0  0  0
 19 20  1  0  0  0  0
 20 15  2  0  0  0  0
 21 22  1  0  0  0  0
 22 23  1  0  0  0  0
 23 24  1  0  0  0  0
 25 29  2  0  0  0  0
 27 34  2  0  0  0  0
 28 31  1  0  0  0  0
 29 33  1  0  0  0  0
 30 35  2  0  0  0  0
 30 27  1  0  0  0  0
 32 28  1  0  0  0  0
 33 37  2  0  0  0  0
 33 27  1  0  0  0  0
 34 28  1  0  0  0  0
 35 26  2  0  0  0  0
 36 24  1  6  0  0  0
 36 29  1  0  0  0  0
 36 30  1  0  0  0  0
 37 32  1  0  0  0  0
 38  3  1  0  0  0  0
 39 38  1  0  0  0  0
 40 39  1  6  0  0  0
 40 41  1  0  0  0  0
 42 41  1  0  0  0  0
 42 43  1  0  0  0  0
 43 44  1  0  0  0  0
 45 46  1  0  0  0  0
 45 40  1  0  0  0  0
 46 47  1  0  0  0  0
 47 48  1  0  0  0  0
 48 49  1  0  0  0  0
 49 50  1  0  0  0  0
 50 52  1  0  0  0  0
 51 53  1  0  0  0  0
 52 51  2  0  0  0  0
 54 53  1  0  0  0  0
M  END
>  <MODEL>
9

>  <REMARK>
 VINA RESULT:      -6.5      2.469     10.023
  Name = 
  22 active torsions:
  status: ('A' for Active; 'I' for Inactive)
    1  A    between atoms: C_1  and  C_12
    2  A    between atoms: N_2  and  C_17
    3  A    between atoms: N_2  and  C_46
    4  A    between atoms: O_5  and  C_23
    5  A    between atoms: O_5  and  C_36
    6  A    between atoms: C_7  and  C_15
    7  A    between atoms: C_7  and  N_21
    8  A    between atoms: C_8  and  C_35
    9  A    between atoms: C_12  and  N_30
   10  A    between atoms: C_15  and  C_17
   11  A    between atoms: C_17  and  N_30
   12  A    between atoms: C_19  and  N_47
   13  A    between atoms: C_19  and  C_52
   14  A    between atoms: C_23  and  C_53
   15  A    between atoms: N_24  and  C_41
   16  A    between atoms: N_26  and  C_46
   17  A    between atoms: N_26  and  N_47
   18  A    between atoms: C_28  and  C_34
   19  A    between atoms: C_28  and  C_40
   20  A    between atoms: C_34  and  C_35
   21  A    between atoms: C_40  and  C_49
   22  A    between atoms: C_44  and  C_52
                            x       y       z     vdW  Elec       q    Type
                         _______ _______ _______ _____ _____    ______ ____

>  <TORSDO>
F 22

$$$$
