=
 OpenBabel10232410113D

 62 68  0  0  1  0  0  0  0  0999 V2000
  191.1570  177.6670  140.5570 O   0  0  0  0  0  0  0  0  0  0  0  0
  188.1110  176.9950  135.9050 C   0  0  1  0  0  3  0  0  0  0  0  0
  189.1210  177.5500  141.8430 C   0  0  2  0  0  3  0  0  0  0  0  0
  184.0310  177.6220  137.6500 C   0  0  0  0  0  0  0  0  0  0  0  0
  192.9550  175.8020  139.5810 O   0  0  0  0  0  0  0  0  0  0  0  0
  189.4820  177.3430  135.4510 C   0  0  1  0  0  3  0  0  0  0  0  0
  185.6560  178.4490  139.2300 C   0  0  0  0  0  0  0  0  0  0  0  0
  190.2570  176.7860  141.1680 C   0  0  0  0  0  2  0  0  0  0  0  0
  186.2250  178.1690  136.9480 C   0  0  0  0  0  0  0  0  0  0  0  0
  186.5580  178.5280  138.2150 N   0  0  0  0  0  0  0  0  0  0  0  0
  188.3380  178.1900  140.8800 O   0  0  0  0  0  0  0  0  0  0  0  0
  191.1900  177.2920  139.2540 N   0  0  0  0  0  2  0  0  0  0  0  0
  184.9730  177.7160  136.6780 N   0  0  0  0  0  0  0  0  0  0  0  0
  184.3500  177.9910  138.9740 C   0  0  0  0  0  0  0  0  0  0  0  0
  190.4640  176.3220  135.9810 C   0  0  0  0  0  2  0  0  0  0  0  0
  192.1670  176.3630  138.7720 C   0  0  0  0  0  0  0  0  0  0  0  0
  187.2380  178.2350  135.8620 C   0  0  0  0  0  2  0  0  0  0  0  0
  192.2060  176.0080  137.3130 C   0  0  1  0  0  3  0  0  0  0  0  0
  191.5570  176.9810  136.5420 O   0  0  0  0  0  0  0  0  0  0  0  0
  188.5610  176.6980  134.6010 O   0  0  0  0  0  0  0  0  0  0  0  0
  182.6730  177.1250  137.2770 C   0  0  0  0  0  1  0  0  0  0  0  0
  186.0670  178.8530  140.6100 C   0  0  0  0  0  2  0  0  0  0  0  0
  187.0210  177.8330  141.1950 C   0  0  0  0  0  2  0  0  0  0  0  0
  182.5920  176.6150  140.1020 C   0  0  0  0  0  1  0  0  0  0  0  0
  183.3470  177.9290  140.1010 C   0  0  2  0  0  3  0  0  0  0  0  0
  182.4580  179.0040  140.0440 O   0  0  0  0  0  0  0  0  0  0  0  0
  181.3970  178.6320  140.8720 C   0  0  0  0  0  1  0  0  0  0  0  0
  189.6700  178.5630  142.8450 C   0  0  0  0  0  2  0  0  0  0  0  0
  189.9560  177.4660  144.9110 C   0  0  0  0  0  2  0  0  0  0  0  0
  189.3260  177.1620  146.2630 C   0  0  2  0  0  0  0  0  0  0  0  0
  187.8050  177.6250  143.9200 C   0  0  0  0  0  2  0  0  0  0  0  0
  187.8720  176.6950  146.2740 C   0  0  0  0  0  2  0  0  0  0  0  0
  189.0630  178.3390  144.1480 N   0  0  0  0  0  0  0  0  0  0  0  0
  189.5480  178.1830  147.1960 O   0  0  0  0  0  0  0  0  0  0  0  0
  187.0330  177.4650  145.2410 C   0  0  1  0  0  3  0  0  0  0  0  0
  190.1510  176.9370  147.4730 C   0  0  2  0  0  3  0  0  0  0  0  0
  191.5160  177.0210  147.1930 O   0  0  0  0  0  0  0  0  0  0  0  0
  192.0190  175.7460  147.4470 C   0  0  0  0  0  2  0  0  0  0  0  0
  193.0830  175.8200  148.5200 C   0  0  0  0  0  1  0  0  0  0  0  0
  186.5960  178.8130  145.7990 C   0  0  0  0  0  2  0  0  0  0  0  0
  182.9570  179.1630  145.4430 O   0  0  0  0  0  0  0  0  0  0  0  0
  184.1710  179.1320  145.1090 C   0  0  0  0  0  0  0  0  0  0  0  0
  184.5490  179.4480  143.7050 C   0  0  0  0  0  1  0  0  0  0  0  0
  185.1650  178.8110  146.0870 N   0  0  0  0  0  2  0  0  0  0  0  0
  193.6310  175.7940  136.7990 C   0  0  0  0  0  2  0  0  0  0  0  0
  193.8660  176.4770  135.4570 C   0  0  0  0  0  2  0  0  0  0  0  0
  195.3210  176.7370  135.2360 C   0  0  0  0  0  0  0  0  0  0  0  0
  196.2040  175.6570  134.9170 N   0  0  0  0  0  2  0  0  0  0  0  0
  195.7680  177.9020  135.3870 O   0  0  0  0  0  0  0  0  0  0  0  0
  197.6320  175.8300  134.6860 C   0  0  1  0  0  3  0  0  0  0  0  0
  198.4800  175.0590  135.6510 C   0  0  2  0  0  3  0  0  0  0  0  0
  198.2170  174.5950  134.3470 O   0  0  0  0  0  0  0  0  0  0  0  0
  197.7170  174.1930  136.6670 C   0  0  1  0  0  3  0  0  0  0  0  0
  197.9010  172.6980  136.3680 C   0  0  2  0  0  3  0  0  0  0  0  0
  196.5570  171.7050  137.1020 S   0  0  0  0  0  0  0  0  0  0  0  0
  199.1730  172.2240  136.8930 N   0  0  0  0  0  2  0  0  0  0  0  0
  199.0630  170.7790  136.9820 C   0  0  0  0  0  2  0  0  0  0  0  0
  197.2810  169.0800  137.2170 C   0  0  0  0  0  1  0  0  0  0  0  0
  197.7450  170.4570  137.6410 C   0  0  2  0  0  3  0  0  0  0  0  0
  199.3940  174.6760  138.3130 O   0  0  0  0  0  0  0  0  0  0  0  0
  197.2330  174.6740  139.0700 O   0  0  0  0  0  1  0  0  0  0  0  0
  198.1730  174.5270  138.0550 C   0  0  0  0  0  0  0  0  0  0  0  0
  1  8  1  0  0  0  0
  2 17  1  6  0  0  0
  3 28  1  1  0  0  0
  4 14  1  0  0  0  0
  6  2  1  0  0  0  0
  6 15  1  1  0  0  0
  7 22  1  0  0  0  0
  8  3  1  0  0  0  0
  9 10  2  0  0  0  0
 10  7  1  0  0  0  0
 11 23  1  0  0  0  0
 11  3  1  0  0  0  0
 12  1  1  0  0  0  0
 13  9  1  0  0  0  0
 13  4  2  0  0  0  0
 14  7  2  0  0  0  0
 14 25  1  0  0  0  0
 15 19  1  0  0  0  0
 16 12  1  0  0  0  0
 16  5  2  0  0  0  0
 17  9  1  0  0  0  0
 18 45  1  6  0  0  0
 18 16  1  0  0  0  0
 19 18  1  0  0  0  0
 20  6  1  0  0  0  0
 20  2  1  0  0  0  0
 21  4  1  0  0  0  0
 22 23  1  0  0  0  0
 25 24  1  6  0  0  0
 26 25  1  0  0  0  0
 26 27  1  0  0  0  0
 28 33  1  0  0  0  0
 30 29  1  6  0  0  0
 30 32  1  0  0  0  0
 30 34  1  0  0  0  0
 30 36  1  0  0  0  0
 31 33  1  0  0  0  0
 31 35  1  0  0  0  0
 33 29  1  0  0  0  0
 34 36  1  0  0  0  0
 35 40  1  1  0  0  0
 35 32  1  0  0  0  0
 36 37  1  6  0  0  0
 37 38  1  0  0  0  0
 38 39  1  0  0  0  0
 40 44  1  0  0  0  0
 42 41  2  0  0  0  0
 42 44  1  0  0  0  0
 43 42  1  0  0  0  0
 46 45  1  0  0  0  0
 47 49  2  0  0  0  0
 47 46  1  0  0  0  0
 48 47  1  0  0  0  0
 50 48  1  1  0  0  0
 50 51  1  0  0  0  0
 51 53  1  1  0  0  0
 52 50  1  0  0  0  0
 52 51  1  0  0  0  0
 53 62  1  1  0  0  0
 54 53  1  1  0  0  0
 54 56  1  0  0  0  0
 54 55  1  0  0  0  0
 55 59  1  0  0  0  0
 56 57  1  0  0  0  0
 57 59  1  0  0  0  0
 59 58  1  6  0  0  0
 62 60  2  0  0  0  0
 62 61  1  0  0  0  0
M  END
>  <MODEL>
1

>  <REMARK>
 VINA RESULT:      -7.6      0.000      0.000
  Name = 
  15 active torsions:
  status: ('A' for Active; 'I' for Inactive)
    1  A    between atoms: C_1  and  C_30
    2  A    between atoms: C_4  and  C_53
    3  A    between atoms: C_5  and  N_10
    4  A    between atoms: C_8  and  C_41
    5  A    between atoms: C_17  and  C_30
    6  A    between atoms: O_22  and  C_45
    7  A    between atoms: O_22  and  C_60
    8  A    between atoms: N_24  and  C_41
    9  A    between atoms: C_26  and  C_39
   10  A    between atoms: C_26  and  O_44
   11  A    between atoms: C_30  and  C_34
   12  A    between atoms: C_37  and  C_51
   13  A    between atoms: C_49  and  C_61
   14  A    between atoms: C_51  and  N_52
   15  A    between atoms: C_53  and  C_61
                            x       y       z     vdW  Elec       q    Type
                         _______ _______ _______ _____ _____    ______ ____

>  <TORSDO>
F 15

$$$$
=
 OpenBabel10232410113D

 62 68  0  0  1  0  0  0  0  0999 V2000
  190.5940  177.8310  140.3980 O   0  0  0  0  0  0  0  0  0  0  0  0
  187.8800  176.8280  135.6030 C   0  0  1  0  0  3  0  0  0  0  0  0
  188.4840  177.7020  141.5570 C   0  0  2  0  0  3  0  0  0  0  0  0
  183.6760  177.3900  137.0530 C   0  0  0  0  0  0  0  0  0  0  0  0
  192.5110  175.9880  139.6320 O   0  0  0  0  0  0  0  0  0  0  0  0
  189.2650  177.2030  135.2200 C   0  0  1  0  0  3  0  0  0  0  0  0
  185.1670  178.3490  138.6890 C   0  0  0  0  0  0  0  0  0  0  0  0
  189.6850  176.9480  140.9950 C   0  0  0  0  0  2  0  0  0  0  0  0
  185.8930  177.9820  136.4650 C   0  0  0  0  0  0  0  0  0  0  0  0
  186.1300  178.4120  137.7300 N   0  0  0  0  0  0  0  0  0  0  0  0
  187.7440  178.2660  140.5160 O   0  0  0  0  0  0  0  0  0  0  0  0
  190.7230  177.3950  139.1200 N   0  0  0  0  0  2  0  0  0  0  0  0
  184.6760  177.4720  136.1390 N   0  0  0  0  0  0  0  0  0  0  0  0
  183.8970  177.8330  138.3740 C   0  0  0  0  0  0  0  0  0  0  0  0
  190.2440  176.2440  135.8600 C   0  0  0  0  0  2  0  0  0  0  0  0
  191.7590  176.4800  138.7480 C   0  0  0  0  0  0  0  0  0  0  0  0
  186.9710  178.0320  135.4420 C   0  0  0  0  0  2  0  0  0  0  0  0
  191.9050  176.0570  137.3140 C   0  0  1  0  0  3  0  0  0  0  0  0
  191.2760  176.9680  136.4560 O   0  0  0  0  0  0  0  0  0  0  0  0
  188.4230  176.4850  134.3460 O   0  0  0  0  0  0  0  0  0  0  0  0
  182.3630  176.8270  136.6200 C   0  0  0  0  0  1  0  0  0  0  0  0
  185.4740  178.8330  140.0710 C   0  0  0  0  0  2  0  0  0  0  0  0
  186.4220  177.8770  140.7640 C   0  0  0  0  0  2  0  0  0  0  0  0
  182.5200  176.3660  139.8600 C   0  0  0  0  0  1  0  0  0  0  0  0
  182.8260  177.7890  139.4370 C   0  0  2  0  0  3  0  0  0  0  0  0
  181.6620  178.4320  139.0090 O   0  0  0  0  0  0  0  0  0  0  0  0
  181.5060  179.5060  139.8870 C   0  0  0  0  0  1  0  0  0  0  0  0
  188.9330  178.7810  142.5400 C   0  0  0  0  0  2  0  0  0  0  0  0
  189.4230  177.6260  144.5350 C   0  0  0  0  0  2  0  0  0  0  0  0
  188.9050  177.2320  145.9110 C   0  0  2  0  0  0  0  0  0  0  0  0
  187.2040  177.6880  143.6950 C   0  0  0  0  0  2  0  0  0  0  0  0
  187.4860  176.6750  145.9980 C   0  0  0  0  0  2  0  0  0  0  0  0
  188.4310  178.4700  143.8690 N   0  0  0  0  0  0  0  0  0  0  0  0
  189.1300  178.2280  146.8700 O   0  0  0  0  0  0  0  0  0  0  0  0
  186.5350  177.4310  145.0560 C   0  0  1  0  0  3  0  0  0  0  0  0
  189.8240  177.0130  147.0540 C   0  0  2  0  0  3  0  0  0  0  0  0
  191.1590  177.1920  146.6890 O   0  0  0  0  0  0  0  0  0  0  0  0
  191.8990  176.7050  147.7650 C   0  0  0  0  0  2  0  0  0  0  0  0
  192.3620  175.2950  147.4700 C   0  0  0  0  0  1  0  0  0  0  0  0
  186.0570  178.7270  145.6980 C   0  0  0  0  0  2  0  0  0  0  0  0
  182.4830  179.1530  144.9660 O   0  0  0  0  0  0  0  0  0  0  0  0
  183.7270  179.1210  144.7660 C   0  0  0  0  0  0  0  0  0  0  0  0
  184.2590  179.5070  143.4310 C   0  0  0  0  0  1  0  0  0  0  0  0
  184.6030  178.7320  145.8260 N   0  0  0  0  0  2  0  0  0  0  0  0
  193.3660  175.8710  136.9020 C   0  0  0  0  0  2  0  0  0  0  0  0
  193.4990  175.2440  135.5190 C   0  0  0  0  0  2  0  0  0  0  0  0
  194.0950  173.8770  135.6060 C   0  0  0  0  0  0  0  0  0  0  0  0
  195.4600  173.6630  135.2350 N   0  0  0  0  0  2  0  0  0  0  0  0
  193.3710  172.9110  135.9570 O   0  0  0  0  0  0  0  0  0  0  0  0
  196.1120  172.3610  135.2960 C   0  0  1  0  0  3  0  0  0  0  0  0
  197.5040  172.4290  135.8480 C   0  0  2  0  0  3  0  0  0  0  0  0
  196.4030  172.0320  136.6340 O   0  0  0  0  0  0  0  0  0  0  0  0
  197.9790  173.8200  136.2960 C   0  0  1  0  0  3  0  0  0  0  0  0
  198.2760  173.8450  137.8030 C   0  0  2  0  0  3  0  0  0  0  0  0
  196.8920  174.5820  138.7380 S   0  0  0  0  0  0  0  0  0  0  0  0
  199.4840  174.6110  138.0720 N   0  0  0  0  0  2  0  0  0  0  0  0
  199.4330  174.9670  139.4790 C   0  0  0  0  0  2  0  0  0  0  0  0
  197.7210  175.3000  141.2330 C   0  0  0  0  0  1  0  0  0  0  0  0
  198.0540  175.5020  139.7710 C   0  0  2  0  0  3  0  0  0  0  0  0
  199.3190  175.4000  135.0860 O   0  0  0  0  0  0  0  0  0  0  0  0
  200.1650  173.2770  135.2180 O   0  0  0  0  0  1  0  0  0  0  0  0
  199.1840  174.2210  135.5000 C   0  0  0  0  0  0  0  0  0  0  0  0
  1  8  1  0  0  0  0
  2 17  1  6  0  0  0
  3 28  1  1  0  0  0
  4 14  1  0  0  0  0
  6  2  1  0  0  0  0
  6 15  1  1  0  0  0
  7 22  1  0  0  0  0
  8  3  1  0  0  0  0
  9 10  2  0  0  0  0
 10  7  1  0  0  0  0
 11 23  1  0  0  0  0
 11  3  1  0  0  0  0
 12  1  1  0  0  0  0
 13  9  1  0  0  0  0
 13  4  2  0  0  0  0
 14  7  2  0  0  0  0
 14 25  1  0  0  0  0
 15 19  1  0  0  0  0
 16 12  1  0  0  0  0
 16  5  2  0  0  0  0
 17  9  1  0  0  0  0
 18 45  1  6  0  0  0
 18 16  1  0  0  0  0
 19 18  1  0  0  0  0
 20  6  1  0  0  0  0
 20  2  1  0  0  0  0
 21  4  1  0  0  0  0
 22 23  1  0  0  0  0
 25 24  1  6  0  0  0
 26 25  1  0  0  0  0
 26 27  1  0  0  0  0
 28 33  1  0  0  0  0
 30 29  1  6  0  0  0
 30 32  1  0  0  0  0
 30 34  1  0  0  0  0
 30 36  1  0  0  0  0
 31 33  1  0  0  0  0
 31 35  1  0  0  0  0
 33 29  1  0  0  0  0
 34 36  1  0  0  0  0
 35 40  1  1  0  0  0
 35 32  1  0  0  0  0
 36 37  1  6  0  0  0
 37 38  1  0  0  0  0
 39 38  1  0  0  0  0
 40 44  1  0  0  0  0
 42 41  2  0  0  0  0
 42 44  1  0  0  0  0
 43 42  1  0  0  0  0
 46 47  1  0  0  0  0
 46 45  1  0  0  0  0
 47 49  2  0  0  0  0
 48 47  1  0  0  0  0
 50 48  1  1  0  0  0
 50 51  1  0  0  0  0
 50 52  1  0  0  0  0
 51 53  1  1  0  0  0
 51 52  1  0  0  0  0
 53 62  1  6  0  0  0
 54 53  1  6  0  0  0
 54 56  1  0  0  0  0
 54 55  1  0  0  0  0
 55 59  1  0  0  0  0
 56 57  1  0  0  0  0
 57 59  1  0  0  0  0
 59 58  1  1  0  0  0
 60 62  2  0  0  0  0
 61 62  1  0  0  0  0
M  END
>  <MODEL>
2

>  <REMARK>
 VINA RESULT:      -7.3      1.457      2.129
  Name = 
  15 active torsions:
  status: ('A' for Active; 'I' for Inactive)
    1  A    between atoms: C_1  and  C_30
    2  A    between atoms: C_4  and  C_53
    3  A    between atoms: C_5  and  N_10
    4  A    between atoms: C_8  and  C_41
    5  A    between atoms: C_17  and  C_30
    6  A    between atoms: O_22  and  C_45
    7  A    between atoms: O_22  and  C_60
    8  A    between atoms: N_24  and  C_41
    9  A    between atoms: C_26  and  C_39
   10  A    between atoms: C_26  and  O_44
   11  A    between atoms: C_30  and  C_34
   12  A    between atoms: C_37  and  C_51
   13  A    between atoms: C_49  and  C_61
   14  A    between atoms: C_51  and  N_52
   15  A    between atoms: C_53  and  C_61
                            x       y       z     vdW  Elec       q    Type
                         _______ _______ _______ _____ _____    ______ ____

>  <TORSDO>
F 15

$$$$
=
 OpenBabel10232410113D

 62 68  0  0  1  0  0  0  0  0999 V2000
  191.0530  177.5110  140.5070 O   0  0  0  0  0  0  0  0  0  0  0  0
  187.8750  177.1750  135.9070 C   0  0  1  0  0  3  0  0  0  0  0  0
  189.0540  177.3040  141.8390 C   0  0  2  0  0  3  0  0  0  0  0  0
  183.8480  177.6800  137.8070 C   0  0  0  0  0  0  0  0  0  0  0  0
  192.8170  175.7180  139.3500 O   0  0  0  0  0  0  0  0  0  0  0  0
  189.2340  177.5530  135.4410 C   0  0  1  0  0  3  0  0  0  0  0  0
  185.5190  178.3900  139.3950 C   0  0  0  0  0  0  0  0  0  0  0  0
  190.1680  176.5890  141.0790 C   0  0  0  0  0  2  0  0  0  0  0  0
  186.0230  178.2740  137.0840 C   0  0  0  0  0  0  0  0  0  0  0  0
  186.3930  178.5410  138.3630 N   0  0  0  0  0  0  0  0  0  0  0  0
  188.2460  178.0120  140.9460 O   0  0  0  0  0  0  0  0  0  0  0  0
  191.0480  177.2290  139.1800 N   0  0  0  0  0  2  0  0  0  0  0  0
  184.7630  177.8420  136.8180 N   0  0  0  0  0  0  0  0  0  0  0  0
  184.2050  177.9540  139.1440 C   0  0  0  0  0  0  0  0  0  0  0  0
  190.2280  176.4950  135.8680 C   0  0  0  0  0  2  0  0  0  0  0  0
  192.0080  176.3360  138.6060 C   0  0  0  0  0  0  0  0  0  0  0  0
  187.0050  178.4150  135.9770 C   0  0  0  0  0  2  0  0  0  0  0  0
  192.0060  176.0850  137.1250 C   0  0  1  0  0  3  0  0  0  0  0  0
  191.3380  177.1110  136.4440 O   0  0  0  0  0  0  0  0  0  0  0  0
  188.2870  176.9710  134.5730 O   0  0  0  0  0  0  0  0  0  0  0  0
  182.4780  177.2130  137.4390 C   0  0  0  0  0  1  0  0  0  0  0  0
  185.9700  178.6950  140.7890 C   0  0  0  0  0  2  0  0  0  0  0  0
  186.9370  177.6350  141.2720 C   0  0  0  0  0  2  0  0  0  0  0  0
  182.1690  176.7760  139.9950 C   0  0  0  0  0  1  0  0  0  0  0  0
  183.2350  177.8130  140.2920 C   0  0  2  0  0  3  0  0  0  0  0  0
  182.6490  179.0400  140.6110 O   0  0  0  0  0  0  0  0  0  0  0  0
  181.3210  178.9180  140.1980 C   0  0  0  0  0  1  0  0  0  0  0  0
  189.6340  178.2430  142.8940 C   0  0  0  0  0  2  0  0  0  0  0  0
  187.7960  178.4350  144.3580 C   0  0  0  0  0  2  0  0  0  0  0  0
  187.2650  178.1100  145.7460 C   0  0  2  0  0  0  0  0  0  0  0  0
  190.0160  178.4930  145.1980 C   0  0  0  0  0  2  0  0  0  0  0  0
  188.1770  178.3970  146.9360 C   0  0  0  0  0  2  0  0  0  0  0  0
  189.1370  177.8670  144.2080 N   0  0  0  0  0  0  0  0  0  0  0  0
  186.7120  176.8240  145.8170 O   0  0  0  0  0  0  0  0  0  0  0  0
  189.6370  178.0350  146.6170 C   0  0  1  0  0  3  0  0  0  0  0  0
  185.8190  177.9020  145.9960 C   0  0  2  0  0  3  0  0  0  0  0  0
  185.0630  178.0640  144.8340 O   0  0  0  0  0  0  0  0  0  0  0  0
  183.9730  178.8450  145.2150 C   0  0  0  0  0  2  0  0  0  0  0  0
  183.0840  179.1000  144.0170 C   0  0  0  0  0  1  0  0  0  0  0  0
  189.8760  176.5420  146.8040 C   0  0  0  0  0  2  0  0  0  0  0  0
  193.1960  175.3990  147.8840 O   0  0  0  0  0  0  0  0  0  0  0  0
  192.2190  175.6100  147.1160 C   0  0  0  0  0  0  0  0  0  0  0  0
  192.2720  175.1110  145.7160 C   0  0  0  0  0  1  0  0  0  0  0  0
  191.0720  176.3100  147.6070 N   0  0  0  0  0  2  0  0  0  0  0  0
  193.4140  175.9070  136.5570 C   0  0  0  0  0  2  0  0  0  0  0  0
  193.4020  175.2460  135.1830 C   0  0  0  0  0  2  0  0  0  0  0  0
  193.9690  173.8660  135.2480 C   0  0  0  0  0  0  0  0  0  0  0  0
  195.3870  173.6720  135.2590 N   0  0  0  0  0  2  0  0  0  0  0  0
  193.1910  172.8800  135.2390 O   0  0  0  0  0  0  0  0  0  0  0  0
  196.0150  172.3580  135.3250 C   0  0  1  0  0  3  0  0  0  0  0  0
  197.4150  172.4050  135.8590 C   0  0  2  0  0  3  0  0  0  0  0  0
  196.3170  172.0370  136.6620 O   0  0  0  0  0  0  0  0  0  0  0  0
  197.9220  173.7920  136.2870 C   0  0  1  0  0  3  0  0  0  0  0  0
  198.2440  173.8240  137.7890 C   0  0  2  0  0  3  0  0  0  0  0  0
  196.8900  174.5940  138.7400 S   0  0  0  0  0  0  0  0  0  0  0  0
  199.4700  174.5690  138.0310 N   0  0  0  0  0  2  0  0  0  0  0  0
  199.4500  174.9380  139.4360 C   0  0  0  0  0  2  0  0  0  0  0  0
  197.7740  175.3180  141.2150 C   0  0  0  0  0  1  0  0  0  0  0  0
  198.0860  175.5010  139.7460 C   0  0  2  0  0  3  0  0  0  0  0  0
  199.3800  175.3690  135.2180 O   0  0  0  0  0  1  0  0  0  0  0  0
  199.9560  173.1660  134.9800 O   0  0  0  0  0  0  0  0  0  0  0  0
  199.1200  174.1640  135.4680 C   0  0  0  0  0  0  0  0  0  0  0  0
  1  8  1  0  0  0  0
  2 17  1  6  0  0  0
  3 28  1  1  0  0  0
  4 14  1  0  0  0  0
  6 15  1  1  0  0  0
  6  2  1  0  0  0  0
  7 22  1  0  0  0  0
  8  3  1  0  0  0  0
  9 10  2  0  0  0  0
 10  7  1  0  0  0  0
 11 23  1  0  0  0  0
 11  3  1  0  0  0  0
 12  1  1  0  0  0  0
 13  9  1  0  0  0  0
 13  4  2  0  0  0  0
 14  7  2  0  0  0  0
 14 25  1  0  0  0  0
 15 19  1  0  0  0  0
 16 12  1  0  0  0  0
 16  5  2  0  0  0  0
 17  9  1  0  0  0  0
 18 45  1  6  0  0  0
 18 16  1  0  0  0  0
 19 18  1  0  0  0  0
 20  6  1  0  0  0  0
 20  2  1  0  0  0  0
 21  4  1  0  0  0  0
 22 23  1  0  0  0  0
 25 24  1  6  0  0  0
 25 26  1  0  0  0  0
 27 26  1  0  0  0  0
 28 33  1  0  0  0  0
 30 29  1  6  0  0  0
 30 34  1  0  0  0  0
 30 36  1  0  0  0  0
 30 32  1  0  0  0  0
 31 35  1  0  0  0  0
 33 29  1  0  0  0  0
 33 31  1  0  0  0  0
 34 36  1  0  0  0  0
 35 40  1  6  0  0  0
 35 32  1  0  0  0  0
 36 37  1  6  0  0  0
 37 38  1  0  0  0  0
 39 38  1  0  0  0  0
 40 44  1  0  0  0  0
 42 44  1  0  0  0  0
 42 41  2  0  0  0  0
 43 42  1  0  0  0  0
 46 47  1  0  0  0  0
 46 45  1  0  0  0  0
 47 48  1  0  0  0  0
 49 47  2  0  0  0  0
 50 48  1  1  0  0  0
 50 51  1  0  0  0  0
 50 52  1  0  0  0  0
 51 53  1  1  0  0  0
 51 52  1  0  0  0  0
 53 62  1  6  0  0  0
 54 53  1  6  0  0  0
 54 56  1  0  0  0  0
 54 55  1  0  0  0  0
 55 59  1  0  0  0  0
 56 57  1  0  0  0  0
 57 59  1  0  0  0  0
 59 58  1  1  0  0  0
 60 62  1  0  0  0  0
 61 62  2  0  0  0  0
M  END
>  <MODEL>
3

>  <REMARK>
 VINA RESULT:      -7.0      1.665      3.889
  Name = 
  15 active torsions:
  status: ('A' for Active; 'I' for Inactive)
    1  A    between atoms: C_1  and  C_30
    2  A    between atoms: C_4  and  C_53
    3  A    between atoms: C_5  and  N_10
    4  A    between atoms: C_8  and  C_41
    5  A    between atoms: C_17  and  C_30
    6  A    between atoms: O_22  and  C_45
    7  A    between atoms: O_22  and  C_60
    8  A    between atoms: N_24  and  C_41
    9  A    between atoms: C_26  and  C_39
   10  A    between atoms: C_26  and  O_44
   11  A    between atoms: C_30  and  C_34
   12  A    between atoms: C_37  and  C_51
   13  A    between atoms: C_49  and  C_61
   14  A    between atoms: C_51  and  N_52
   15  A    between atoms: C_53  and  C_61
                            x       y       z     vdW  Elec       q    Type
                         _______ _______ _______ _____ _____    ______ ____

>  <TORSDO>
F 15

$$$$
=
 OpenBabel10232410113D

 62 68  0  0  1  0  0  0  0  0999 V2000
  186.4560  178.6660  139.1950 O   0  0  0  0  0  0  0  0  0  0  0  0
  184.4070  178.3090  144.3950 C   0  0  1  0  0  3  0  0  0  0  0  0
  188.4810  177.6160  139.9770 C   0  0  2  0  0  3  0  0  0  0  0  0
  188.1780  177.2060  146.5530 C   0  0  0  0  0  0  0  0  0  0  0  0
  184.0290  177.7450  138.2360 O   0  0  0  0  0  0  0  0  0  0  0  0
  183.4540  179.1580  143.6360 C   0  0  1  0  0  3  0  0  0  0  0  0
  188.7820  178.0560  144.3780 C   0  0  0  0  0  0  0  0  0  0  0  0
  187.0630  177.4290  139.4440 C   0  0  0  0  0  2  0  0  0  0  0  0
  186.6670  178.5510  145.3220 C   0  0  0  0  0  0  0  0  0  0  0  0
  187.5650  178.6600  144.3090 N   0  0  0  0  0  0  0  0  0  0  0  0
  188.4400  178.2110  141.2400 O   0  0  0  0  0  0  0  0  0  0  0  0
  185.3250  178.6620  139.9440 N   0  0  0  0  0  2  0  0  0  0  0  0
  186.9770  177.8250  146.4280 N   0  0  0  0  0  0  0  0  0  0  0  0
  189.1290  177.3060  145.5160 C   0  0  0  0  0  0  0  0  0  0  0  0
  182.9170  178.3830  142.4540 C   0  0  0  0  0  2  0  0  0  0  0  0
  184.0750  178.2270  139.4000 C   0  0  0  0  0  0  0  0  0  0  0  0
  185.3310  179.1940  145.2100 C   0  0  0  0  0  2  0  0  0  0  0  0
  182.8320  178.2830  140.2430 C   0  0  1  0  0  3  0  0  0  0  0  0
  182.9900  179.1760  141.3100 O   0  0  0  0  0  0  0  0  0  0  0  0
  183.0780  178.5030  144.8260 O   0  0  0  0  0  0  0  0  0  0  0  0
  188.4520  176.4340  147.8010 C   0  0  0  0  0  1  0  0  0  0  0  0
  189.7380  178.2010  143.2370 C   0  0  0  0  0  2  0  0  0  0  0  0
  189.2570  177.4050  142.0430 C   0  0  0  0  0  2  0  0  0  0  0  0
  191.5730  177.6760  145.9020 C   0  0  0  0  0  1  0  0  0  0  0  0
  190.4910  176.6590  145.5950 C   0  0  2  0  0  3  0  0  0  0  0  0
  190.7900  175.9660  144.4200 O   0  0  0  0  0  0  0  0  0  0  0  0
  191.9780  175.2890  144.6980 C   0  0  0  0  0  1  0  0  0  0  0  0
  189.3160  178.4580  139.0160 C   0  0  0  0  0  2  0  0  0  0  0  0
  189.1400  176.8250  137.3250 C   0  0  0  0  0  2  0  0  0  0  0  0
  189.9090  175.8560  136.4380 C   0  0  2  0  0  0  0  0  0  0  0  0
  190.8080  176.6440  139.0040 C   0  0  0  0  0  2  0  0  0  0  0  0
  190.9680  174.9810  137.1030 C   0  0  0  0  0  2  0  0  0  0  0  0
  190.0850  177.5850  138.1440 N   0  0  0  0  0  0  0  0  0  0  0  0
  190.3990  176.4710  135.2780 O   0  0  0  0  0  0  0  0  0  0  0  0
  191.7530  175.7680  138.1650 C   0  0  1  0  0  3  0  0  0  0  0  0
  189.4160  175.4750  135.0930 C   0  0  2  0  0  3  0  0  0  0  0  0
  188.1980  176.0880  134.7940 O   0  0  0  0  0  0  0  0  0  0  0  0
  187.3720  175.0580  134.3470 C   0  0  0  0  0  2  0  0  0  0  0  0
  187.1570  174.0560  135.4600 C   0  0  0  0  0  1  0  0  0  0  0  0
  192.8550  176.5960  137.5170 C   0  0  0  0  0  2  0  0  0  0  0  0
  195.6610  174.5990  136.2380 O   0  0  0  0  0  0  0  0  0  0  0  0
  194.6110  175.2960  136.2190 C   0  0  0  0  0  0  0  0  0  0  0  0
  193.9180  175.5350  134.9240 C   0  0  0  0  0  1  0  0  0  0  0  0
  194.0960  175.8310  137.4420 N   0  0  0  0  0  2  0  0  0  0  0  0
  181.5890  178.6490  139.4310 C   0  0  0  0  0  2  0  0  0  0  0  0
  181.7200  180.0110  138.7600 C   0  0  0  0  0  2  0  0  0  0  0  0
  181.2300  179.9630  137.3500 C   0  0  0  0  0  0  0  0  0  0  0  0
  181.5010  178.8200  136.5330 N   0  0  0  0  0  2  0  0  0  0  0  0
  180.6250  180.9570  136.8750 O   0  0  0  0  0  0  0  0  0  0  0  0
  181.0540  178.6980  135.1510 C   0  0  1  0  0  3  0  0  0  0  0  0
  181.2330  177.3160  134.5990 C   0  0  2  0  0  3  0  0  0  0  0  0
  179.9890  177.7800  135.0710 O   0  0  0  0  0  0  0  0  0  0  0  0
  181.7970  176.2720  135.5760 C   0  0  1  0  0  3  0  0  0  0  0  0
  180.8520  175.0670  135.7040 C   0  0  2  0  0  3  0  0  0  0  0  0
  181.2850  174.0370  137.1470 S   0  0  0  0  0  0  0  0  0  0  0  0
  180.9110  174.2440  134.5060 N   0  0  0  0  0  2  0  0  0  0  0  0
  180.3790  172.9450  134.8790 C   0  0  0  0  0  2  0  0  0  0  0  0
  180.1310  171.5780  136.9260 C   0  0  0  0  0  1  0  0  0  0  0  0
  181.0310  172.5350  136.1760 C   0  0  2  0  0  3  0  0  0  0  0  0
  183.8590  176.5900  134.3920 O   0  0  0  0  0  0  0  0  0  0  0  0
  183.6600  174.6100  135.5240 O   0  0  0  0  0  1  0  0  0  0  0  0
  183.1610  175.8450  135.1250 C   0  0  0  0  0  0  0  0  0  0  0  0
  1  8  1  0  0  0  0
  1 12  1  0  0  0  0
  2 20  1  0  0  0  0
  2 17  1  1  0  0  0
  3 28  1  6  0  0  0
  3 11  1  0  0  0  0
  4 21  1  0  0  0  0
  5 16  2  0  0  0  0
  6 15  1  6  0  0  0
  6  2  1  0  0  0  0
  6 20  1  0  0  0  0
  7 14  2  0  0  0  0
  8  3  1  0  0  0  0
  9 13  1  0  0  0  0
 10  7  1  0  0  0  0
 10  9  2  0  0  0  0
 11 23  1  0  0  0  0
 13  4  2  0  0  0  0
 14 25  1  0  0  0  0
 14  4  1  0  0  0  0
 16 12  1  0  0  0  0
 16 18  1  0  0  0  0
 17  9  1  0  0  0  0
 18 45  1  6  0  0  0
 18 19  1  0  0  0  0
 19 15  1  0  0  0  0
 22  7  1  0  0  0  0
 23 22  1  0  0  0  0
 25 24  1  6  0  0  0
 26 27  1  0  0  0  0
 26 25  1  0  0  0  0
 29 33  1  0  0  0  0
 30 32  1  1  0  0  0
 30 29  1  0  0  0  0
 32 35  1  0  0  0  0
 33 31  1  0  0  0  0
 33 28  1  0  0  0  0
 34 30  1  0  0  0  0
 35 40  1  6  0  0  0
 35 31  1  0  0  0  0
 36 37  1  1  0  0  0
 36 34  1  0  0  0  0
 36 30  1  0  0  0  0
 38 37  1  0  0  0  0
 38 39  1  0  0  0  0
 42 41  2  0  0  0  0
 42 44  1  0  0  0  0
 43 42  1  0  0  0  0
 44 40  1  0  0  0  0
 46 45  1  0  0  0  0
 47 46  1  0  0  0  0
 48 47  1  0  0  0  0
 49 47  2  0  0  0  0
 50 48  1  1  0  0  0
 51 52  1  0  0  0  0
 51 50  1  0  0  0  0
 51 53  1  1  0  0  0
 52 50  1  0  0  0  0
 53 62  1  6  0  0  0
 54 53  1  6  0  0  0
 54 55  1  0  0  0  0
 56 57  1  0  0  0  0
 56 54  1  0  0  0  0
 57 59  1  0  0  0  0
 59 58  1  1  0  0  0
 59 55  1  0  0  0  0
 60 62  2  0  0  0  0
 62 61  1  0  0  0  0
M  END
>  <MODEL>
4

>  <REMARK>
 VINA RESULT:      -6.8      3.371     11.985
  Name = 
  15 active torsions:
  status: ('A' for Active; 'I' for Inactive)
    1  A    between atoms: C_1  and  C_30
    2  A    between atoms: C_4  and  C_53
    3  A    between atoms: C_5  and  N_10
    4  A    between atoms: C_8  and  C_41
    5  A    between atoms: C_17  and  C_30
    6  A    between atoms: O_22  and  C_45
    7  A    between atoms: O_22  and  C_60
    8  A    between atoms: N_24  and  C_41
    9  A    between atoms: C_26  and  C_39
   10  A    between atoms: C_26  and  O_44
   11  A    between atoms: C_30  and  C_34
   12  A    between atoms: C_37  and  C_51
   13  A    between atoms: C_49  and  C_61
   14  A    between atoms: C_51  and  N_52
   15  A    between atoms: C_53  and  C_61
                            x       y       z     vdW  Elec       q    Type
                         _______ _______ _______ _____ _____    ______ ____

>  <TORSDO>
F 15

$$$$
=
 OpenBabel10232410113D

 62 68  0  0  1  0  0  0  0  0999 V2000
  190.0940  177.7360  140.3070 O   0  0  0  0  0  0  0  0  0  0  0  0
  186.6290  177.0240  135.9650 C   0  0  1  0  0  3  0  0  0  0  0  0
  188.1840  177.6530  141.7760 C   0  0  2  0  0  3  0  0  0  0  0  0
  182.7300  177.7070  138.0680 C   0  0  0  0  0  0  0  0  0  0  0  0
  191.7820  175.8440  139.1980 O   0  0  0  0  0  0  0  0  0  0  0  0
  187.9550  177.3550  135.3820 C   0  0  1  0  0  3  0  0  0  0  0  0
  184.4990  178.5420  139.4800 C   0  0  0  0  0  0  0  0  0  0  0  0
  189.2470  176.8700  141.0110 C   0  0  0  0  0  2  0  0  0  0  0  0
  184.8540  178.2270  137.1600 C   0  0  0  0  0  0  0  0  0  0  0  0
  185.3040  178.6010  138.3850 N   0  0  0  0  0  0  0  0  0  0  0  0
  187.3200  178.2860  140.8800 O   0  0  0  0  0  0  0  0  0  0  0  0
  190.0040  177.3430  139.0120 N   0  0  0  0  0  2  0  0  0  0  0  0
  183.5800  177.7800  137.0120 N   0  0  0  0  0  0  0  0  0  0  0  0
  183.1720  178.0920  139.3510 C   0  0  0  0  0  0  0  0  0  0  0  0
  188.9740  176.3340  135.8340 C   0  0  0  0  0  2  0  0  0  0  0  0
  190.9260  176.4000  138.4560 C   0  0  0  0  0  0  0  0  0  0  0  0
  185.7630  178.2700  135.9840 C   0  0  0  0  0  2  0  0  0  0  0  0
  190.8290  176.0240  137.0050 C   0  0  1  0  0  3  0  0  0  0  0  0
  190.1190  176.9910  136.2830 O   0  0  0  0  0  0  0  0  0  0  0  0
  186.9550  176.7060  134.6300 O   0  0  0  0  0  0  0  0  0  0  0  0
  181.3410  177.2160  137.8280 C   0  0  0  0  0  1  0  0  0  0  0  0
  185.0380  178.9620  140.8100 C   0  0  0  0  0  2  0  0  0  0  0  0
  186.0350  177.9430  141.3200 C   0  0  0  0  0  2  0  0  0  0  0  0
  181.3800  176.8310  140.5580 C   0  0  0  0  0  1  0  0  0  0  0  0
  182.2770  178.0530  140.5660 C   0  0  2  0  0  3  0  0  0  0  0  0
  181.5140  179.2190  140.6680 O   0  0  0  0  0  0  0  0  0  0  0  0
  180.6230  178.9700  141.7140 C   0  0  0  0  0  1  0  0  0  0  0  0
  188.8290  178.6760  142.7090 C   0  0  0  0  0  2  0  0  0  0  0  0
  189.5040  177.5580  144.6710 C   0  0  0  0  0  2  0  0  0  0  0  0
  189.1160  177.1880  146.0960 C   0  0  2  0  0  0  0  0  0  0  0  0
  187.2170  177.6010  144.0370 C   0  0  0  0  0  2  0  0  0  0  0  0
  187.7130  176.6310  146.3230 C   0  0  0  0  0  2  0  0  0  0  0  0
  188.4520  178.3880  144.0840 N   0  0  0  0  0  0  0  0  0  0  0  0
  189.4240  178.2030  147.0120 O   0  0  0  0  0  0  0  0  0  0  0  0
  186.6760  177.3680  145.4580 C   0  0  1  0  0  3  0  0  0  0  0  0
  190.1360  176.9930  147.1540 C   0  0  2  0  0  3  0  0  0  0  0  0
  191.4310  177.1670  146.6640 O   0  0  0  0  0  0  0  0  0  0  0  0
  192.0480  175.9260  146.8160 C   0  0  0  0  0  2  0  0  0  0  0  0
  192.6960  175.8410  148.1810 C   0  0  0  0  0  1  0  0  0  0  0  0
  186.2550  178.6740  146.1170 C   0  0  0  0  0  2  0  0  0  0  0  0
  183.8020  180.2270  143.8670 O   0  0  0  0  0  0  0  0  0  0  0  0
  184.2590  179.4580  144.7540 C   0  0  0  0  0  0  0  0  0  0  0  0
  183.3640  178.4410  145.3680 C   0  0  0  0  0  1  0  0  0  0  0  0
  185.6310  179.5650  145.1430 N   0  0  0  0  0  2  0  0  0  0  0  0
  192.1990  175.7920  136.3650 C   0  0  0  0  0  2  0  0  0  0  0  0
  192.3520  174.3730  135.8320 C   0  0  0  0  0  2  0  0  0  0  0  0
  193.6400  174.2160  135.0900 C   0  0  0  0  0  0  0  0  0  0  0  0
  194.2960  172.9440  135.0500 N   0  0  0  0  0  2  0  0  0  0  0  0
  194.1640  175.2210  134.5490 O   0  0  0  0  0  0  0  0  0  0  0  0
  195.5500  172.7120  134.3460 C   0  0  1  0  0  3  0  0  0  0  0  0
  196.7330  172.6450  135.2640 C   0  0  2  0  0  3  0  0  0  0  0  0
  196.1110  171.4870  134.7560 O   0  0  0  0  0  0  0  0  0  0  0  0
  196.4240  172.7780  136.7640 C   0  0  1  0  0  3  0  0  0  0  0  0
  197.0490  171.6230  137.5620 C   0  0  2  0  0  3  0  0  0  0  0  0
  198.6470  171.1100  136.8420 S   0  0  0  0  0  0  0  0  0  0  0  0
  196.1550  170.4750  137.5830 N   0  0  0  0  0  2  0  0  0  0  0  0
  196.9750  169.3280  137.9310 C   0  0  0  0  0  2  0  0  0  0  0  0
  199.3480  168.6450  137.7710 C   0  0  0  0  0  1  0  0  0  0  0  0
  198.2160  169.3720  137.0760 C   0  0  2  0  0  3  0  0  0  0  0  0
  197.2990  174.2430  138.4500 O   0  0  0  0  0  1  0  0  0  0  0  0
  196.9330  175.1960  136.4010 O   0  0  0  0  0  0  0  0  0  0  0  0
  196.9100  174.1050  137.2630 C   0  0  0  0  0  0  0  0  0  0  0  0
  1  8  1  0  0  0  0
  2 17  1  6  0  0  0
  3 28  1  6  0  0  0
  4 14  1  0  0  0  0
  6 15  1  1  0  0  0
  6  2  1  0  0  0  0
  7 22  1  0  0  0  0
  8  3  1  0  0  0  0
  9 10  2  0  0  0  0
 10  7  1  0  0  0  0
 11 23  1  0  0  0  0
 11  3  1  0  0  0  0
 12  1  1  0  0  0  0
 13  9  1  0  0  0  0
 13  4  2  0  0  0  0
 14  7  2  0  0  0  0
 14 25  1  0  0  0  0
 15 19  1  0  0  0  0
 16 12  1  0  0  0  0
 16  5  2  0  0  0  0
 17  9  1  0  0  0  0
 18 45  1  6  0  0  0
 18 16  1  0  0  0  0
 19 18  1  0  0  0  0
 20  6  1  0  0  0  0
 20  2  1  0  0  0  0
 21  4  1  0  0  0  0
 22 23  1  0  0  0  0
 25 24  1  6  0  0  0
 25 26  1  0  0  0  0
 26 27  1  0  0  0  0
 28 33  1  0  0  0  0
 30 29  1  6  0  0  0
 30 32  1  0  0  0  0
 30 34  1  0  0  0  0
 30 36  1  0  0  0  0
 31 33  1  0  0  0  0
 31 35  1  0  0  0  0
 33 29  1  0  0  0  0
 34 36  1  0  0  0  0
 35 40  1  1  0  0  0
 35 32  1  0  0  0  0
 36 37  1  6  0  0  0
 37 38  1  0  0  0  0
 38 39  1  0  0  0  0
 41 42  2  0  0  0  0
 42 44  1  0  0  0  0
 42 43  1  0  0  0  0
 44 40  1  0  0  0  0
 46 45  1  0  0  0  0
 47 46  1  0  0  0  0
 48 47  1  0  0  0  0
 49 47  2  0  0  0  0
 50 52  1  0  0  0  0
 50 48  1  1  0  0  0
 50 51  1  0  0  0  0
 51 53  1  1  0  0  0
 52 51  1  0  0  0  0
 53 62  1  1  0  0  0
 54 53  1  6  0  0  0
 54 56  1  0  0  0  0
 55 59  1  0  0  0  0
 55 54  1  0  0  0  0
 56 57  1  0  0  0  0
 59 58  1  1  0  0  0
 59 57  1  0  0  0  0
 61 62  2  0  0  0  0
 62 60  1  0  0  0  0
M  END
>  <MODEL>
5

>  <REMARK>
 VINA RESULT:      -6.4      1.513      1.750
  Name = 
  15 active torsions:
  status: ('A' for Active; 'I' for Inactive)
    1  A    between atoms: C_1  and  C_30
    2  A    between atoms: C_4  and  C_53
    3  A    between atoms: C_5  and  N_10
    4  A    between atoms: C_8  and  C_41
    5  A    between atoms: C_17  and  C_30
    6  A    between atoms: O_22  and  C_45
    7  A    between atoms: O_22  and  C_60
    8  A    between atoms: N_24  and  C_41
    9  A    between atoms: C_26  and  C_39
   10  A    between atoms: C_26  and  O_44
   11  A    between atoms: C_30  and  C_34
   12  A    between atoms: C_37  and  C_51
   13  A    between atoms: C_49  and  C_61
   14  A    between atoms: C_51  and  N_52
   15  A    between atoms: C_53  and  C_61
                            x       y       z     vdW  Elec       q    Type
                         _______ _______ _______ _____ _____    ______ ____

>  <TORSDO>
F 15

$$$$
=
 OpenBabel10232410113D

 62 68  0  0  1  0  0  0  0  0999 V2000
  187.9940  178.2400  139.6650 O   0  0  0  0  0  0  0  0  0  0  0  0
  184.9540  178.6250  144.3540 C   0  0  1  0  0  3  0  0  0  0  0  0
  189.6340  176.9730  140.8960 C   0  0  2  0  0  3  0  0  0  0  0  0
  188.0120  177.1630  147.2860 C   0  0  0  0  0  0  0  0  0  0  0  0
  185.6800  177.6100  138.2840 O   0  0  0  0  0  0  0  0  0  0  0  0
  184.3140  179.5390  143.3730 C   0  0  1  0  0  3  0  0  0  0  0  0
  189.1510  177.7300  145.2370 C   0  0  0  0  0  0  0  0  0  0  0  0
  188.3350  176.9520  140.0970 C   0  0  0  0  0  2  0  0  0  0  0  0
  187.0030  178.6090  145.7050 C   0  0  0  0  0  0  0  0  0  0  0  0
  188.0840  178.4990  144.8910 N   0  0  0  0  0  0  0  0  0  0  0  0
  189.4490  177.6710  142.0910 O   0  0  0  0  0  0  0  0  0  0  0  0
  186.7550  178.4660  140.1690 N   0  0  0  0  0  2  0  0  0  0  0  0
  186.9730  177.9400  146.8870 N   0  0  0  0  0  0  0  0  0  0  0  0
  189.1480  177.0350  146.4600 C   0  0  0  0  0  0  0  0  0  0  0  0
  183.8960  178.7560  142.1490 C   0  0  0  0  0  2  0  0  0  0  0  0
  185.5790  178.1760  139.4060 C   0  0  0  0  0  0  0  0  0  0  0  0
  185.8340  179.4300  145.2910 C   0  0  0  0  0  2  0  0  0  0  0  0
  184.2230  178.4850  139.9750 C   0  0  1  0  0  3  0  0  0  0  0  0
  184.3140  179.4310  141.0040 O   0  0  0  0  0  0  0  0  0  0  0  0
  183.6160  179.0480  144.4950 O   0  0  0  0  0  0  0  0  0  0  0  0
  187.9140  176.4660  148.6030 C   0  0  0  0  0  1  0  0  0  0  0  0
  190.3200  177.6370  144.3070 C   0  0  0  0  0  2  0  0  0  0  0  0
  189.9550  176.8230  143.0840 C   0  0  0  0  0  2  0  0  0  0  0  0
  191.2170  176.9200  147.8610 C   0  0  0  0  0  1  0  0  0  0  0  0
  190.3480  176.2030  146.8470 C   0  0  2  0  0  3  0  0  0  0  0  0
  191.0980  175.8460  145.7250 O   0  0  0  0  0  0  0  0  0  0  0  0
  192.3180  175.4030  146.2390 C   0  0  0  0  0  1  0  0  0  0  0  0
  190.7630  177.5990  140.0810 C   0  0  0  0  0  2  0  0  0  0  0  0
  192.5790  176.7110  138.8680 C   0  0  0  0  0  2  0  0  0  0  0  0
  192.9880  175.8400  137.6890 C   0  0  2  0  0  0  0  0  0  0  0  0
  190.5650  177.3030  137.7590 C   0  0  0  0  0  2  0  0  0  0  0  0
  192.2810  176.0790  136.3570 C   0  0  0  0  0  2  0  0  0  0  0  0
  191.1200  176.7160  138.9820 N   0  0  0  0  0  0  0  0  0  0  0  0
  193.0220  174.4790  138.0190 O   0  0  0  0  0  0  0  0  0  0  0  0
  190.7830  176.3590  136.5650 C   0  0  1  0  0  3  0  0  0  0  0  0
  194.2580  175.0760  137.6900 C   0  0  2  0  0  3  0  0  0  0  0  0
  194.9880  175.2850  138.8610 O   0  0  0  0  0  0  0  0  0  0  0  0
  196.1950  174.6180  138.6610 C   0  0  0  0  0  2  0  0  0  0  0  0
  196.1260  173.8070  137.3860 C   0  0  0  0  0  1  0  0  0  0  0  0
  190.0100  175.0580  136.7320 C   0  0  0  0  0  2  0  0  0  0  0  0
  186.3620  174.6280  136.7130 O   0  0  0  0  0  0  0  0  0  0  0  0
  187.5810  174.3170  136.6480 C   0  0  0  0  0  0  0  0  0  0  0  0
  187.9580  172.9090  136.3460 C   0  0  0  0  0  1  0  0  0  0  0  0
  188.5790  175.3210  136.8500 N   0  0  0  0  0  2  0  0  0  0  0  0
  183.2340  178.9600  138.9100 C   0  0  0  0  0  2  0  0  0  0  0  0
  182.8910  177.8610  137.9110 C   0  0  0  0  0  2  0  0  0  0  0  0
  181.6730  177.1100  138.3400 C   0  0  0  0  0  0  0  0  0  0  0  0
  181.1820  176.0230  137.5480 N   0  0  0  0  0  2  0  0  0  0  0  0
  181.0550  177.4770  139.3710 O   0  0  0  0  0  0  0  0  0  0  0  0
  180.0040  175.2420  137.9010 C   0  0  1  0  0  3  0  0  0  0  0  0
  180.0380  173.8490  137.3480 C   0  0  2  0  0  3  0  0  0  0  0  0
  180.3800  174.1340  138.6850 O   0  0  0  0  0  0  0  0  0  0  0  0
  181.3040  173.4710  136.5630 C   0  0  1  0  0  3  0  0  0  0  0  0
  181.5990  171.9680  136.6790 C   0  0  2  0  0  3  0  0  0  0  0  0
  183.3760  171.6220  136.4450 S   0  0  0  0  0  0  0  0  0  0  0  0
  180.8420  171.2220  135.6850 N   0  0  0  0  0  2  0  0  0  0  0  0
  181.5010  169.9350  135.5550 C   0  0  0  0  0  2  0  0  0  0  0  0
  183.7560  168.9780  135.9050 C   0  0  0  0  0  1  0  0  0  0  0  0
  182.9830  170.1860  135.4230 C   0  0  2  0  0  3  0  0  0  0  0  0
  180.0280  173.8410  134.5660 O   0  0  0  0  0  1  0  0  0  0  0  0
  182.2620  174.3210  134.4190 O   0  0  0  0  0  0  0  0  0  0  0  0
  181.1500  173.8840  135.1300 C   0  0  0  0  0  0  0  0  0  0  0  0
  1  8  1  0  0  0  0
  1 12  1  0  0  0  0
  2 20  1  0  0  0  0
  2 17  1  1  0  0  0
  3 28  1  6  0  0  0
  3 11  1  0  0  0  0
  4 21  1  0  0  0  0
  5 16  2  0  0  0  0
  6 15  1  6  0  0  0
  6  2  1  0  0  0  0
  6 20  1  0  0  0  0
  7 14  2  0  0  0  0
  8  3  1  0  0  0  0
  9 13  1  0  0  0  0
 10  7  1  0  0  0  0
 10  9  2  0  0  0  0
 11 23  1  0  0  0  0
 13  4  2  0  0  0  0
 14 25  1  0  0  0  0
 14  4  1  0  0  0  0
 16 18  1  0  0  0  0
 16 12  1  0  0  0  0
 17  9  1  0  0  0  0
 18 45  1  6  0  0  0
 18 19  1  0  0  0  0
 19 15  1  0  0  0  0
 22  7  1  0  0  0  0
 23 22  1  0  0  0  0
 25 24  1  1  0  0  0
 26 27  1  0  0  0  0
 26 25  1  0  0  0  0
 29 33  1  0  0  0  0
 30 32  1  6  0  0  0
 30 36  1  0  0  0  0
 30 34  1  0  0  0  0
 30 29  1  0  0  0  0
 31 33  1  0  0  0  0
 32 35  1  0  0  0  0
 33 28  1  0  0  0  0
 35 40  1  1  0  0  0
 35 31  1  0  0  0  0
 36 34  1  0  0  0  0
 36 37  1  1  0  0  0
 38 37  1  0  0  0  0
 39 38  1  0  0  0  0
 40 44  1  0  0  0  0
 42 41  2  0  0  0  0
 42 44  1  0  0  0  0
 43 42  1  0  0  0  0
 46 47  1  0  0  0  0
 46 45  1  0  0  0  0
 47 49  2  0  0  0  0
 48 47  1  0  0  0  0
 50 48  1  6  0  0  0
 50 52  1  0  0  0  0
 51 53  1  6  0  0  0
 51 50  1  0  0  0  0
 51 52  1  0  0  0  0
 53 62  1  6  0  0  0
 54 53  1  6  0  0  0
 55 54  1  0  0  0  0
 56 54  1  0  0  0  0
 57 56  1  0  0  0  0
 59 57  1  0  0  0  0
 59 58  1  1  0  0  0
 59 55  1  0  0  0  0
 60 62  1  0  0  0  0
 61 62  2  0  0  0  0
M  END
>  <MODEL>
6

>  <REMARK>
 VINA RESULT:      -6.4      3.630     11.431
  Name = 
  15 active torsions:
  status: ('A' for Active; 'I' for Inactive)
    1  A    between atoms: C_1  and  C_30
    2  A    between atoms: C_4  and  C_53
    3  A    between atoms: C_5  and  N_10
    4  A    between atoms: C_8  and  C_41
    5  A    between atoms: C_17  and  C_30
    6  A    between atoms: O_22  and  C_45
    7  A    between atoms: O_22  and  C_60
    8  A    between atoms: N_24  and  C_41
    9  A    between atoms: C_26  and  C_39
   10  A    between atoms: C_26  and  O_44
   11  A    between atoms: C_30  and  C_34
   12  A    between atoms: C_37  and  C_51
   13  A    between atoms: C_49  and  C_61
   14  A    between atoms: C_51  and  N_52
   15  A    between atoms: C_53  and  C_61
                            x       y       z     vdW  Elec       q    Type
                         _______ _______ _______ _____ _____    ______ ____

>  <TORSDO>
F 15

$$$$
=
 OpenBabel10232410113D

 62 68  0  0  1  0  0  0  0  0999 V2000
  187.1670  177.2100  137.7500 O   0  0  0  0  0  0  0  0  0  0  0  0
  189.4190  177.4050  142.8750 C   0  0  1  0  0  3  0  0  0  0  0  0
  185.2540  178.4020  138.6040 C   0  0  2  0  0  3  0  0  0  0  0  0
  185.8180  178.7730  145.1650 C   0  0  0  0  0  0  0  0  0  0  0  0
  189.6200  177.9550  136.7060 O   0  0  0  0  0  0  0  0  0  0  0  0
  190.2810  176.4900  142.0820 C   0  0  1  0  0  3  0  0  0  0  0  0
  185.0770  177.9740  143.0120 C   0  0  0  0  0  0  0  0  0  0  0  0
  186.6610  178.4870  138.0200 C   0  0  0  0  0  2  0  0  0  0  0  0
  187.1820  177.3250  143.8810 C   0  0  0  0  0  0  0  0  0  0  0  0
  186.2440  177.2840  142.9000 N   0  0  0  0  0  0  0  0  0  0  0  0
  185.2950  177.8020  139.8640 O   0  0  0  0  0  0  0  0  0  0  0  0
  188.3210  177.1300  138.4590 N   0  0  0  0  0  2  0  0  0  0  0  0
  186.9650  178.0690  144.9960 N   0  0  0  0  0  0  0  0  0  0  0  0
  184.8260  178.7450  144.1620 C   0  0  0  0  0  0  0  0  0  0  0  0
  190.8310  177.2270  140.8820 C   0  0  0  0  0  2  0  0  0  0  0  0
  189.5800  177.4740  137.8710 C   0  0  0  0  0  0  0  0  0  0  0  0
  188.4630  176.5870  143.7220 C   0  0  0  0  0  2  0  0  0  0  0  0
  190.8440  177.3260  138.6680 C   0  0  1  0  0  3  0  0  0  0  0  0
  190.6600  176.4440  139.7410 O   0  0  0  0  0  0  0  0  0  0  0  0
  190.7460  177.1140  143.2580 O   0  0  0  0  0  0  0  0  0  0  0  0
  185.6440  179.5600  146.4210 C   0  0  0  0  0  1  0  0  0  0  0  0
  184.0730  177.9020  141.9060 C   0  0  0  0  0  2  0  0  0  0  0  0
  184.5680  178.6640  140.6950 C   0  0  0  0  0  2  0  0  0  0  0  0
  182.6320  178.8780  145.3570 C   0  0  0  0  0  1  0  0  0  0  0  0
  183.5180  179.4890  144.2890 C   0  0  2  0  0  3  0  0  0  0  0  0
  182.8450  179.5400  143.0660 O   0  0  0  0  0  0  0  0  0  0  0  0
  181.4920  179.4670  143.4010 C   0  0  0  0  0  1  0  0  0  0  0  0
  184.3260  177.6250  137.6720 C   0  0  0  0  0  2  0  0  0  0  0  0
  182.8970  179.3140  138.4850 C   0  0  0  0  0  2  0  0  0  0  0  0
  181.4690  179.6590  138.8820 C   0  0  2  0  0  0  0  0  0  0  0  0
  182.5370  177.0450  139.0790 C   0  0  0  0  0  2  0  0  0  0  0  0
  180.7300  178.6720  139.7820 C   0  0  0  0  0  2  0  0  0  0  0  0
  182.9420  177.9370  137.9900 N   0  0  0  0  0  0  0  0  0  0  0  0
  180.6880  180.0420  137.7840 O   0  0  0  0  0  0  0  0  0  0  0  0
  181.0400  177.2190  139.3860 C   0  0  1  0  0  3  0  0  0  0  0  0
  180.9370  181.0370  138.7540 C   0  0  2  0  0  3  0  0  0  0  0  0
  181.8990  181.9210  138.2630 O   0  0  0  0  0  0  0  0  0  0  0  0
  181.1840  182.8670  137.5310 C   0  0  0  0  0  2  0  0  0  0  0  0
  181.8870  184.2050  137.6010 C   0  0  0  0  0  1  0  0  0  0  0  0
  180.1740  176.7840  138.2110 C   0  0  0  0  0  2  0  0  0  0  0  0
  180.3010  173.2330  137.2810 O   0  0  0  0  0  0  0  0  0  0  0  0
  180.5540  174.4670  137.2410 C   0  0  0  0  0  0  0  0  0  0  0  0
  181.4300  174.9960  136.1620 C   0  0  0  0  0  1  0  0  0  0  0  0
  179.9820  175.3370  138.2210 N   0  0  0  0  0  2  0  0  0  0  0  0
  192.0280  176.8730  137.8130 C   0  0  0  0  0  2  0  0  0  0  0  0
  191.9540  175.3900  137.4670 C   0  0  0  0  0  2  0  0  0  0  0  0
  192.6630  175.1040  136.1830 C   0  0  0  0  0  0  0  0  0  0  0  0
  193.6570  174.0760  136.1250 N   0  0  0  0  0  2  0  0  0  0  0  0
  192.4150  175.8090  135.1730 O   0  0  0  0  0  0  0  0  0  0  0  0
  194.3880  173.7370  134.9110 C   0  0  1  0  0  3  0  0  0  0  0  0
  195.8670  173.6260  135.1300 C   0  0  2  0  0  3  0  0  0  0  0  0
  195.0300  172.4930  135.0690 O   0  0  0  0  0  0  0  0  0  0  0  0
  196.3460  173.8330  136.5760 C   0  0  1  0  0  3  0  0  0  0  0  0
  197.3440  172.7400  136.9890 C   0  0  2  0  0  3  0  0  0  0  0  0
  198.4700  172.3180  135.6150 S   0  0  0  0  0  0  0  0  0  0  0  0
  196.6400  171.5370  137.4050 N   0  0  0  0  0  2  0  0  0  0  0  0
  197.6060  170.4550  137.3290 C   0  0  0  0  0  2  0  0  0  0  0  0
  199.6850  169.9260  136.0970 C   0  0  0  0  0  1  0  0  0  0  0  0
  198.3150  170.5610  136.0020 C   0  0  2  0  0  3  0  0  0  0  0  0
  196.5620  176.1490  135.9920 O   0  0  0  0  0  0  0  0  0  0  0  0
  197.9480  175.4130  137.6590 O   0  0  0  0  0  1  0  0  0  0  0  0
  196.9500  175.1970  136.7160 C   0  0  0  0  0  0  0  0  0  0  0  0
  1  8  1  0  0  0  0
  1 12  1  0  0  0  0
  2 20  1  0  0  0  0
  2 17  1  1  0  0  0
  3 28  1  6  0  0  0
  3 11  1  0  0  0  0
  4 21  1  0  0  0  0
  5 16  2  0  0  0  0
  6 15  1  6  0  0  0
  6  2  1  0  0  0  0
  6 20  1  0  0  0  0
  7 14  2  0  0  0  0
  8  3  1  0  0  0  0
  9 13  1  0  0  0  0
 10  7  1  0  0  0  0
 10  9  2  0  0  0  0
 11 23  1  0  0  0  0
 13  4  2  0  0  0  0
 14 25  1  0  0  0  0
 14  4  1  0  0  0  0
 16 12  1  0  0  0  0
 16 18  1  0  0  0  0
 17  9  1  0  0  0  0
 18 45  1  6  0  0  0
 18 19  1  0  0  0  0
 19 15  1  0  0  0  0
 22  7  1  0  0  0  0
 23 22  1  0  0  0  0
 25 24  1  1  0  0  0
 26 27  1  0  0  0  0
 26 25  1  0  0  0  0
 28 33  1  0  0  0  0
 30 29  1  6  0  0  0
 30 32  1  0  0  0  0
 31 35  1  0  0  0  0
 33 29  1  0  0  0  0
 33 31  1  0  0  0  0
 34 36  1  0  0  0  0
 34 30  1  0  0  0  0
 35 40  1  6  0  0  0
 35 32  1  0  0  0  0
 36 37  1  6  0  0  0
 36 30  1  0  0  0  0
 38 39  1  0  0  0  0
 38 37  1  0  0  0  0
 40 44  1  0  0  0  0
 42 41  2  0  0  0  0
 42 44  1  0  0  0  0
 43 42  1  0  0  0  0
 46 45  1  0  0  0  0
 47 46  1  0  0  0  0
 48 47  1  0  0  0  0
 49 47  2  0  0  0  0
 50 52  1  0  0  0  0
 50 51  1  0  0  0  0
 50 48  1  1  0  0  0
 51 53  1  1  0  0  0
 52 51  1  0  0  0  0
 53 62  1  6  0  0  0
 54 53  1  6  0  0  0
 54 56  1  0  0  0  0
 55 59  1  0  0  0  0
 55 54  1  0  0  0  0
 57 56  1  0  0  0  0
 59 58  1  1  0  0  0
 59 57  1  0  0  0  0
 60 62  2  0  0  0  0
 62 61  1  0  0  0  0
M  END
>  <MODEL>
7

>  <REMARK>
 VINA RESULT:      -6.1      2.559      7.154
  Name = 
  15 active torsions:
  status: ('A' for Active; 'I' for Inactive)
    1  A    between atoms: C_1  and  C_30
    2  A    between atoms: C_4  and  C_53
    3  A    between atoms: C_5  and  N_10
    4  A    between atoms: C_8  and  C_41
    5  A    between atoms: C_17  and  C_30
    6  A    between atoms: O_22  and  C_45
    7  A    between atoms: O_22  and  C_60
    8  A    between atoms: N_24  and  C_41
    9  A    between atoms: C_26  and  C_39
   10  A    between atoms: C_26  and  O_44
   11  A    between atoms: C_30  and  C_34
   12  A    between atoms: C_37  and  C_51
   13  A    between atoms: C_49  and  C_61
   14  A    between atoms: C_51  and  N_52
   15  A    between atoms: C_53  and  C_61
                            x       y       z     vdW  Elec       q    Type
                         _______ _______ _______ _____ _____    ______ ____

>  <TORSDO>
F 15

$$$$
=
 OpenBabel10232410113D

 62 68  0  0  1  0  0  0  0  0999 V2000
  187.3310  177.0360  137.8190 O   0  0  0  0  0  0  0  0  0  0  0  0
  189.3740  177.3800  143.0230 C   0  0  1  0  0  3  0  0  0  0  0  0
  185.3880  178.2560  138.5580 C   0  0  2  0  0  3  0  0  0  0  0  0
  185.6860  178.8200  145.1230 C   0  0  0  0  0  0  0  0  0  0  0  0
  189.8260  177.7460  136.8540 O   0  0  0  0  0  0  0  0  0  0  0  0
  190.2640  176.4410  142.2930 C   0  0  1  0  0  3  0  0  0  0  0  0
  185.0310  177.9600  142.9660 C   0  0  0  0  0  0  0  0  0  0  0  0
  186.8180  178.3220  138.0300 C   0  0  0  0  0  2  0  0  0  0  0  0
  187.0970  177.3330  143.9390 C   0  0  0  0  0  0  0  0  0  0  0  0
  186.1990  177.2640  142.9220 N   0  0  0  0  0  0  0  0  0  0  0  0
  185.3760  177.6940  139.8360 O   0  0  0  0  0  0  0  0  0  0  0  0
  188.4550  176.9760  138.5760 N   0  0  0  0  0  2  0  0  0  0  0  0
  186.8370  178.1100  145.0220 N   0  0  0  0  0  0  0  0  0  0  0  0
  184.7350  178.7640  144.0810 C   0  0  0  0  0  0  0  0  0  0  0  0
  190.8650  177.1410  141.0950 C   0  0  0  0  0  2  0  0  0  0  0  0
  189.7370  177.3010  138.0300 C   0  0  0  0  0  0  0  0  0  0  0  0
  188.3810  176.5890  143.8540 C   0  0  0  0  0  2  0  0  0  0  0  0
  190.9680  177.1740  138.8820 C   0  0  1  0  0  3  0  0  0  0  0  0
  190.7380  176.3250  139.9720 O   0  0  0  0  0  0  0  0  0  0  0  0
  190.6820  177.0980  143.4680 O   0  0  0  0  0  0  0  0  0  0  0  0
  185.4630  179.6450  146.3470 C   0  0  0  0  0  1  0  0  0  0  0  0
  184.0720  177.8560  141.8220 C   0  0  0  0  0  2  0  0  0  0  0  0
  184.6180  178.5810  140.6110 C   0  0  0  0  0  2  0  0  0  0  0  0
  182.4500  178.8640  145.0950 C   0  0  0  0  0  1  0  0  0  0  0  0
  183.4250  179.5140  144.1330 C   0  0  2  0  0  3  0  0  0  0  0  0
  182.8570  179.6260  142.8620 O   0  0  0  0  0  0  0  0  0  0  0  0
  181.4890  179.4360  143.0650 C   0  0  0  0  0  1  0  0  0  0  0  0
  184.4960  177.4540  137.6130 C   0  0  0  0  0  2  0  0  0  0  0  0
  182.4640  176.2630  137.6900 C   0  0  0  0  0  2  0  0  0  0  0  0
  181.0000  176.3140  138.1050 C   0  0  2  0  0  0  0  0  0  0  0  0
  182.4700  178.6120  137.3480 C   0  0  0  0  0  2  0  0  0  0  0  0
  180.2000  177.5550  137.7160 C   0  0  0  0  0  2  0  0  0  0  0  0
  183.1180  177.5150  138.0720 N   0  0  0  0  0  0  0  0  0  0  0  0
  180.8170  175.9830  139.4540 O   0  0  0  0  0  0  0  0  0  0  0  0
  181.0420  178.8310  137.8740 C   0  0  1  0  0  3  0  0  0  0  0  0
  180.2630  175.0930  138.5090 C   0  0  2  0  0  3  0  0  0  0  0  0
  181.0660  173.9540  138.4320 O   0  0  0  0  0  0  0  0  0  0  0  0
  180.5200  173.1930  137.4000 C   0  0  0  0  0  2  0  0  0  0  0  0
  181.1990  171.8420  137.3460 C   0  0  0  0  0  1  0  0  0  0  0  0
  181.0450  179.2980  139.3240 C   0  0  0  0  0  2  0  0  0  0  0  0
  179.9820  182.8140  139.2840 O   0  0  0  0  0  0  0  0  0  0  0  0
  180.7050  181.8040  139.0730 C   0  0  0  0  0  0  0  0  0  0  0  0
  182.0310  181.9810  138.4230 C   0  0  0  0  0  1  0  0  0  0  0  0
  180.2460  180.5100  139.4750 N   0  0  0  0  0  2  0  0  0  0  0  0
  192.1850  176.6940  138.0890 C   0  0  0  0  0  2  0  0  0  0  0  0
  192.0410  175.2460  137.6360 C   0  0  0  0  0  2  0  0  0  0  0  0
  192.7520  175.0170  136.3420 C   0  0  0  0  0  0  0  0  0  0  0  0
  194.0620  174.4390  136.3340 N   0  0  0  0  0  2  0  0  0  0  0  0
  192.2120  175.3860  135.2700 O   0  0  0  0  0  0  0  0  0  0  0  0
  194.8170  174.1830  135.1140 C   0  0  1  0  0  3  0  0  0  0  0  0
  196.1910  173.6470  135.3790 C   0  0  2  0  0  3  0  0  0  0  0  0
  195.1170  172.8110  135.0160 O   0  0  0  0  0  0  0  0  0  0  0  0
  196.5460  173.4150  136.8560 C   0  0  1  0  0  3  0  0  0  0  0  0
  197.3270  172.1040  137.0380 C   0  0  2  0  0  3  0  0  0  0  0  0
  198.3850  171.7580  135.5910 S   0  0  0  0  0  0  0  0  0  0  0  0
  196.4130  170.9880  137.2280 N   0  0  0  0  0  2  0  0  0  0  0  0
  197.1730  169.7860  136.9320 C   0  0  0  0  0  2  0  0  0  0  0  0
  199.1480  169.1420  135.5900 C   0  0  0  0  0  1  0  0  0  0  0  0
  197.9140  170.0150  135.6390 C   0  0  2  0  0  3  0  0  0  0  0  0
  198.1780  175.1620  136.6570 O   0  0  0  0  0  0  0  0  0  0  0  0
  197.0980  175.0380  138.6720 O   0  0  0  0  0  1  0  0  0  0  0  0
  197.3240  174.5850  137.3770 C   0  0  0  0  0  0  0  0  0  0  0  0
  1  8  1  0  0  0  0
  1 12  1  0  0  0  0
  2 20  1  0  0  0  0
  2 17  1  1  0  0  0
  3 28  1  6  0  0  0
  3 11  1  0  0  0  0
  4 21  1  0  0  0  0
  5 16  2  0  0  0  0
  6 15  1  6  0  0  0
  6  2  1  0  0  0  0
  6 20  1  0  0  0  0
  7 14  2  0  0  0  0
  8  3  1  0  0  0  0
  9 13  1  0  0  0  0
 10  7  1  0  0  0  0
 10  9  2  0  0  0  0
 11 23  1  0  0  0  0
 13  4  2  0  0  0  0
 14 25  1  0  0  0  0
 14  4  1  0  0  0  0
 16 12  1  0  0  0  0
 16 18  1  0  0  0  0
 17  9  1  0  0  0  0
 18 45  1  6  0  0  0
 18 19  1  0  0  0  0
 19 15  1  0  0  0  0
 22  7  1  0  0  0  0
 23 22  1  0  0  0  0
 25 24  1  1  0  0  0
 26 27  1  0  0  0  0
 26 25  1  0  0  0  0
 28 33  1  0  0  0  0
 29 33  1  0  0  0  0
 30 29  1  6  0  0  0
 30 36  1  0  0  0  0
 30 34  1  0  0  0  0
 31 35  1  0  0  0  0
 31 33  1  0  0  0  0
 32 35  1  0  0  0  0
 32 30  1  0  0  0  0
 35 40  1  1  0  0  0
 36 37  1  6  0  0  0
 36 34  1  0  0  0  0
 38 37  1  0  0  0  0
 39 38  1  0  0  0  0
 40 44  1  0  0  0  0
 42 41  2  0  0  0  0
 42 44  1  0  0  0  0
 43 42  1  0  0  0  0
 46 45  1  0  0  0  0
 47 46  1  0  0  0  0
 48 47  1  0  0  0  0
 49 47  2  0  0  0  0
 50 51  1  0  0  0  0
 50 48  1  1  0  0  0
 51 53  1  1  0  0  0
 52 50  1  0  0  0  0
 52 51  1  0  0  0  0
 53 62  1  6  0  0  0
 54 53  1  6  0  0  0
 54 56  1  0  0  0  0
 55 59  1  0  0  0  0
 55 54  1  0  0  0  0
 57 56  1  0  0  0  0
 59 58  1  1  0  0  0
 59 57  1  0  0  0  0
 60 62  2  0  0  0  0
 62 61  1  0  0  0  0
M  END
>  <MODEL>
8

>  <REMARK>
 VINA RESULT:      -6.1      2.530      6.922
  Name = 
  15 active torsions:
  status: ('A' for Active; 'I' for Inactive)
    1  A    between atoms: C_1  and  C_30
    2  A    between atoms: C_4  and  C_53
    3  A    between atoms: C_5  and  N_10
    4  A    between atoms: C_8  and  C_41
    5  A    between atoms: C_17  and  C_30
    6  A    between atoms: O_22  and  C_45
    7  A    between atoms: O_22  and  C_60
    8  A    between atoms: N_24  and  C_41
    9  A    between atoms: C_26  and  C_39
   10  A    between atoms: C_26  and  O_44
   11  A    between atoms: C_30  and  C_34
   12  A    between atoms: C_37  and  C_51
   13  A    between atoms: C_49  and  C_61
   14  A    between atoms: C_51  and  N_52
   15  A    between atoms: C_53  and  C_61
                            x       y       z     vdW  Elec       q    Type
                         _______ _______ _______ _____ _____    ______ ____

>  <TORSDO>
F 15

$$$$
=
 OpenBabel10232410113D

 62 68  0  0  1  0  0  0  0  0999 V2000
  186.0130  178.8800  139.9910 O   0  0  0  0  0  0  0  0  0  0  0  0
  185.3370  178.3050  145.5210 C   0  0  1  0  0  3  0  0  0  0  0  0
  188.1300  177.7440  140.1850 C   0  0  2  0  0  3  0  0  0  0  0  0
  189.4890  177.0050  146.5970 C   0  0  0  0  0  0  0  0  0  0  0  0
  183.3900  178.0670  139.6430 O   0  0  0  0  0  0  0  0  0  0  0  0
  184.2540  179.2150  145.0680 C   0  0  1  0  0  3  0  0  0  0  0  0
  189.5520  177.9510  144.3790 C   0  0  0  0  0  0  0  0  0  0  0  0
  186.6180  177.6170  140.0230 C   0  0  0  0  0  2  0  0  0  0  0  0
  187.7650  178.4470  145.8510 C   0  0  0  0  0  0  0  0  0  0  0  0
  188.3800  178.5860  144.6490 N   0  0  0  0  0  0  0  0  0  0  0  0
  188.4320  178.2740  141.4410 O   0  0  0  0  0  0  0  0  0  0  0  0
  185.1090  178.8640  141.0030 N   0  0  0  0  0  2  0  0  0  0  0  0
  188.3180  177.6570  146.8090 N   0  0  0  0  0  0  0  0  0  0  0  0
  190.1490  177.1350  145.3570 C   0  0  0  0  0  0  0  0  0  0  0  0
  183.4070  178.5140  144.0290 C   0  0  0  0  0  2  0  0  0  0  0  0
  183.7470  178.4870  140.7770 C   0  0  0  0  0  0  0  0  0  0  0  0
  186.4680  179.1260  146.1120 C   0  0  0  0  0  2  0  0  0  0  0  0
  182.7610  178.5290  141.9100 C   0  0  1  0  0  3  0  0  0  0  0  0
  183.2160  179.3630  142.9400 O   0  0  0  0  0  0  0  0  0  0  0  0
  184.1680  178.5080  146.2850 O   0  0  0  0  0  0  0  0  0  0  0  0
  190.0430  176.1630  147.6990 C   0  0  0  0  0  1  0  0  0  0  0  0
  190.1930  178.1320  143.0390 C   0  0  0  0  0  2  0  0  0  0  0  0
  189.3970  177.4090  141.9730 C   0  0  0  0  0  2  0  0  0  0  0  0
  191.3280  175.4580  143.9230 C   0  0  0  0  0  1  0  0  0  0  0  0
  191.4630  176.4530  145.0580 C   0  0  2  0  0  3  0  0  0  0  0  0
  191.9780  175.8300  146.1970 O   0  0  0  0  0  0  0  0  0  0  0  0
  192.6020  174.6760  145.7200 C   0  0  0  0  0  1  0  0  0  0  0  0
  188.7240  178.6140  139.0800 C   0  0  0  0  0  2  0  0  0  0  0  0
  190.1470  177.6880  137.4450 C   0  0  0  0  0  2  0  0  0  0  0  0
  190.2090  176.9610  136.1100 C   0  0  2  0  0  0  0  0  0  0  0  0
  188.0940  178.7030  136.8190 C   0  0  0  0  0  2  0  0  0  0  0  0
  189.3350  177.4910  134.9760 C   0  0  0  0  0  2  0  0  0  0  0  0
  188.7470  177.8690  137.8320 N   0  0  0  0  0  0  0  0  0  0  0  0
  190.0840  175.5730  136.2540 O   0  0  0  0  0  0  0  0  0  0  0  0
  187.9570  177.9320  135.4960 C   0  0  1  0  0  3  0  0  0  0  0  0
  191.3250  176.0440  135.7750 C   0  0  2  0  0  3  0  0  0  0  0  0
  192.2660  175.9740  136.8040 O   0  0  0  0  0  0  0  0  0  0  0  0
  193.3320  175.2490  136.2750 C   0  0  0  0  0  2  0  0  0  0  0  0
  193.8200  174.2420  137.2920 C   0  0  0  0  0  1  0  0  0  0  0  0
  187.0280  176.7340  135.6420 C   0  0  0  0  0  2  0  0  0  0  0  0
  183.6100  177.7170  136.5610 O   0  0  0  0  0  0  0  0  0  0  0  0
  184.5730  177.3610  135.8300 C   0  0  0  0  0  0  0  0  0  0  0  0
  184.3680  177.2480  134.3610 C   0  0  0  0  0  1  0  0  0  0  0  0
  185.8460  177.0910  136.4210 N   0  0  0  0  0  2  0  0  0  0  0  0
  181.3660  178.9650  141.4580 C   0  0  0  0  0  2  0  0  0  0  0  0
  181.0500  178.5030  140.0400 C   0  0  0  0  0  2  0  0  0  0  0  0
  180.5060  177.1120  140.0400 C   0  0  0  0  0  0  0  0  0  0  0  0
  180.4930  176.3460  138.8310 N   0  0  0  0  0  2  0  0  0  0  0  0
  180.0120  176.6440  141.0970 O   0  0  0  0  0  0  0  0  0  0  0  0
  179.9820  174.9830  138.7520 C   0  0  1  0  0  3  0  0  0  0  0  0
  180.5040  174.2310  137.5660 C   0  0  2  0  0  3  0  0  0  0  0  0
  181.0450  174.0650  138.8570 O   0  0  0  0  0  0  0  0  0  0  0  0
  181.5080  174.9880  136.6820 C   0  0  1  0  0  3  0  0  0  0  0  0
  182.6320  174.0580  136.1990 C   0  0  2  0  0  3  0  0  0  0  0  0
  182.0320  172.3460  135.9960 S   0  0  0  0  0  0  0  0  0  0  0  0
  183.7360  174.0580  137.1460 N   0  0  0  0  0  2  0  0  0  0  0  0
  184.5070  172.8590  136.8720 C   0  0  0  0  0  2  0  0  0  0  0  0
  184.1380  170.6190  135.8860 C   0  0  0  0  0  1  0  0  0  0  0  0
  183.5410  171.7060  136.7540 C   0  0  2  0  0  3  0  0  0  0  0  0
  180.8480  176.8530  135.3240 O   0  0  0  0  0  1  0  0  0  0  0  0
  180.0490  174.8120  134.6620 O   0  0  0  0  0  0  0  0  0  0  0  0
  180.7890  175.6130  135.5250 C   0  0  0  0  0  0  0  0  0  0  0  0
  1  8  1  0  0  0  0
  1 12  1  0  0  0  0
  2 17  1  1  0  0  0
  2 20  1  0  0  0  0
  3 28  1  6  0  0  0
  3 11  1  0  0  0  0
  4 13  2  0  0  0  0
  4 21  1  0  0  0  0
  5 16  2  0  0  0  0
  6 15  1  6  0  0  0
  6  2  1  0  0  0  0
  6 20  1  0  0  0  0
  7 10  1  0  0  0  0
  7 14  2  0  0  0  0
  8  3  1  0  0  0  0
  9 17  1  0  0  0  0
  9 13  1  0  0  0  0
 10  9  2  0  0  0  0
 11 23  1  0  0  0  0
 14  4  1  0  0  0  0
 16 12  1  0  0  0  0
 16 18  1  0  0  0  0
 18 45  1  6  0  0  0
 18 19  1  0  0  0  0
 19 15  1  0  0  0  0
 22  7  1  0  0  0  0
 23 22  1  0  0  0  0
 25 24  1  6  0  0  0
 25 14  1  0  0  0  0
 25 26  1  0  0  0  0
 27 26  1  0  0  0  0
 29 33  1  0  0  0  0
 30 32  1  6  0  0  0
 30 34  1  0  0  0  0
 30 29  1  0  0  0  0
 31 33  1  0  0  0  0
 32 35  1  0  0  0  0
 33 28  1  0  0  0  0
 35 40  1  1  0  0  0
 35 31  1  0  0  0  0
 36 30  1  0  0  0  0
 36 34  1  0  0  0  0
 36 37  1  1  0  0  0
 38 37  1  0  0  0  0
 38 39  1  0  0  0  0
 40 44  1  0  0  0  0
 42 44  1  0  0  0  0
 42 41  2  0  0  0  0
 43 42  1  0  0  0  0
 46 47  1  0  0  0  0
 46 45  1  0  0  0  0
 47 49  2  0  0  0  0
 48 47  1  0  0  0  0
 50 48  1  6  0  0  0
 50 52  1  0  0  0  0
 51 53  1  6  0  0  0
 51 50  1  0  0  0  0
 51 52  1  0  0  0  0
 53 62  1  6  0  0  0
 54 53  1  1  0  0  0
 54 56  1  0  0  0  0
 55 54  1  0  0  0  0
 55 59  1  0  0  0  0
 57 56  1  0  0  0  0
 59 58  1  6  0  0  0
 59 57  1  0  0  0  0
 60 62  1  0  0  0  0
 61 62  2  0  0  0  0
M  END
>  <MODEL>
9

>  <REMARK>
 VINA RESULT:      -6.1      3.878     11.718
  Name = 
  15 active torsions:
  status: ('A' for Active; 'I' for Inactive)
    1  A    between atoms: C_1  and  C_30
    2  A    between atoms: C_4  and  C_53
    3  A    between atoms: C_5  and  N_10
    4  A    between atoms: C_8  and  C_41
    5  A    between atoms: C_17  and  C_30
    6  A    between atoms: O_22  and  C_45
    7  A    between atoms: O_22  and  C_60
    8  A    between atoms: N_24  and  C_41
    9  A    between atoms: C_26  and  C_39
   10  A    between atoms: C_26  and  O_44
   11  A    between atoms: C_30  and  C_34
   12  A    between atoms: C_37  and  C_51
   13  A    between atoms: C_49  and  C_61
   14  A    between atoms: C_51  and  N_52
   15  A    between atoms: C_53  and  C_61
                            x       y       z     vdW  Elec       q    Type
                         _______ _______ _______ _____ _____    ______ ____

>  <TORSDO>
F 15

$$$$
