=
 OpenBabel10232412093D

 39 45  0  0  1  0  0  0  0  0999 V2000
  189.2760  176.0830  137.7600 C   0  0  1  0  0  3  0  0  0  0  0  0
  190.1520  176.1350  138.9400 N   0  0  0  0  0  0  0  0  0  0  0  0
  188.6270  177.4380  137.6710 C   0  0  2  0  0  0  0  0  0  0  0  0
  187.1070  177.3820  137.5820 C   0  0  2  0  0  3  0  0  0  0  0  0
  187.9330  177.9270  136.4190 C   0  0  0  0  0  2  0  0  0  0  0  0
  191.5170  175.8470  138.4860 C   0  0  0  0  0  3  0  0  0  0  0  0
  190.1610  177.5120  139.4670 C   0  0  1  0  0  3  0  0  0  0  0  0
  190.1180  175.8210  136.6110 N   0  0  0  0  0  0  0  0  0  0  0  0
  191.5040  175.6790  136.9810 C   0  0  0  0  0  3  0  0  0  0  0  0
  189.2350  178.3950  138.6450 C   0  0  0  0  0  2  0  0  0  0  0  0
  187.5210  173.6710  135.7680 C   0  0  0  0  0  2  0  0  0  0  0  0
  188.5750  174.6130  135.1990 C   0  0  0  0  0  0  0  0  0  0  0  0
  187.5800  173.8270  134.3520 C   0  0  0  0  0  2  0  0  0  0  0  0
  189.5860  175.4640  135.3300 C   0  0  0  0  0  3  0  0  0  0  0  0
  186.4790  178.4950  138.2830 N   0  0  0  0  0  2  0  0  0  0  0  0
  184.5470  179.5940  139.3490 N   0  0  0  0  0  2  0  0  0  0  0  0
  185.1080  178.4630  138.6800 C   0  0  0  0  0  0  0  0  0  0  0  0
  184.3980  177.4480  138.4380 O   0  0  0  0  0  0  0  0  0  0  0  0
  183.1480  179.6580  139.7460 C   0  0  0  0  0  2  0  0  0  0  0  0
  181.4230  179.3190  138.0420 C   0  0  2  0  0  3  0  0  0  0  0  0
  180.9650  180.2480  138.9940 O   0  0  0  0  0  0  0  0  0  0  0  0
  182.3260  180.3150  138.6530 C   0  0  1  0  0  3  0  0  0  0  0  0
  181.3730  178.7570  135.6580 C   0  0  0  0  0  2  0  0  0  0  0  0
  181.0100  179.7820  136.6600 C   0  0  1  0  0  3  0  0  0  0  0  0
  180.0590  178.8830  136.1440 O   0  0  0  0  0  0  0  0  0  0  0  0
  189.7100  177.5190  140.9210 C   0  0  0  0  0  2  0  0  0  0  0  0
  190.8530  177.1420  141.8520 C   0  0  0  0  0  2  0  0  0  0  0  0
  191.5550  175.7830  143.8190 C   0  0  0  0  0  1  0  0  0  0  0  0
  190.4080  176.1190  142.8860 C   0  0  1  0  0  3  0  0  0  0  0  0
  189.2930  176.6670  143.6610 C   0  0  0  0  0  0  0  0  0  0  0  0
  188.3810  177.1190  144.3080 C   0  0  0  0  0  0  0  0  0  0  0  0
  187.4470  177.8400  146.4610 C   0  0  0  0  0  3  0  0  0  0  0  0
  186.3880  178.3590  147.2140 C   0  0  0  0  0  3  0  0  0  0  0  0
  187.2980  177.6520  145.0830 C   0  0  0  0  0  0  0  0  0  0  0  0
  185.0330  178.5020  145.2110 C   0  0  0  0  0  0  0  0  0  0  0  0
  186.0910  177.9830  144.4580 C   0  0  0  0  0  3  0  0  0  0  0  0
  185.1820  178.6900  146.5890 C   0  0  0  0  0  3  0  0  0  0  0  0
  182.7970  179.1130  144.0500 N   0  0  0  0  0  0  0  0  0  0  0  0
  183.7950  178.8410  144.5680 C   0  0  0  0  0  0  0  0  0  0  0  0
  1  8  1  6  0  0  0
  1  2  1  0  0  0  0
  2  7  1  0  0  0  0
  3  5  1  6  0  0  0
  3  1  1  0  0  0  0
  3 10  1  0  0  0  0
  4  3  1  0  0  0  0
  4 15  1  1  0  0  0
  5  4  1  0  0  0  0
  6  2  1  0  0  0  0
  7 26  1  1  0  0  0
  8  9  1  0  0  0  0
  9  6  2  0  0  0  0
 10  7  1  0  0  0  0
 12 14  2  0  0  0  0
 12 11  1  0  0  0  0
 13 12  1  0  0  0  0
 13 11  1  0  0  0  0
 14  8  1  0  0  0  0
 15 17  1  0  0  0  0
 16 19  1  0  0  0  0
 17 16  1  0  0  0  0
 18 17  2  0  0  0  0
 20 22  1  0  0  0  0
 20 21  1  1  0  0  0
 22 21  1  0  0  0  0
 22 19  1  1  0  0  0
 23 25  1  0  0  0  0
 24 23  1  6  0  0  0
 24 20  1  0  0  0  0
 25 24  1  0  0  0  0
 26 27  1  0  0  0  0
 27 29  1  0  0  0  0
 29 30  1  0  0  0  0
 29 28  1  1  0  0  0
 30 31  3  0  0  0  0
 31 34  1  0  0  0  0
 32 33  1  0  0  0  0
 34 32  2  0  0  0  0
 35 37  1  0  0  0  0
 36 34  1  0  0  0  0
 36 35  2  0  0  0  0
 37 33  2  0  0  0  0
 38 39  3  0  0  0  0
 39 35  1  0  0  0  0
M  END
>  <MODEL>
1

>  <REMARK>
 VINA RESULT:      -8.4      0.000      0.000
  Name = 
  11 active torsions:
  status: ('A' for Active; 'I' for Inactive)
    1  A    between atoms: C_1  and  C_23
    2  A    between atoms: C_9  and  C_18
    3  A    between atoms: C_11  and  N_12
    4  A    between atoms: C_13  and  C_14
    5  A    between atoms: C_13  and  C_23
    6  A    between atoms: C_14  and  C_30
    7  A    between atoms: N_15  and  C_32
    8  A    between atoms: C_16  and  C_31
    9  A    between atoms: C_19  and  C_28
   10  A    between atoms: C_32  and  C_35
   11  A    between atoms: N_33  and  C_38
                            x       y       z     vdW  Elec       q    Type
                         _______ _______ _______ _____ _____    ______ ____

>  <TORSDO>
F 11

$$$$
=
 OpenBabel10232412093D

 39 45  0  0  1  0  0  0  0  0999 V2000
  182.3290  179.3400  138.3490 C   0  0  1  0  0  3  0  0  0  0  0  0
  182.2930  179.7250  139.7670 N   0  0  0  0  0  0  0  0  0  0  0  0
  183.0560  178.0230  138.3000 C   0  0  2  0  0  0  0  0  0  0  0  0
  184.2220  178.0050  137.3200 C   0  0  2  0  0  3  0  0  0  0  0  0
  183.0050  177.1110  137.0950 C   0  0  0  0  0  2  0  0  0  0  0  0
  180.8840  179.8720  140.1460 C   0  0  0  0  0  3  0  0  0  0  0  0
  182.8380  178.6190  140.5760 C   0  0  1  0  0  3  0  0  0  0  0  0
  180.9570  179.2070  137.9050 N   0  0  0  0  0  0  0  0  0  0  0  0
  180.0200  179.5030  138.9590 C   0  0  0  0  0  3  0  0  0  0  0  0
  183.2900  177.4810  139.6730 C   0  0  0  0  0  2  0  0  0  0  0  0
  180.6770  181.6190  135.4200 C   0  0  0  0  0  2  0  0  0  0  0  0
  180.5460  180.1290  135.7110 C   0  0  0  0  0  0  0  0  0  0  0  0
  180.2970  180.7610  134.3460 C   0  0  0  0  0  2  0  0  0  0  0  0
  180.6020  179.0800  136.5230 C   0  0  0  0  0  3  0  0  0  0  0  0
  185.3290  177.1910  137.8040 N   0  0  0  0  0  2  0  0  0  0  0  0
  187.7230  176.7970  138.2420 N   0  0  0  0  0  2  0  0  0  0  0  0
  186.6800  177.6500  137.7670 C   0  0  0  0  0  0  0  0  0  0  0  0
  186.9510  178.7980  137.3160 O   0  0  0  0  0  0  0  0  0  0  0  0
  189.1290  177.1730  138.1980 C   0  0  0  0  0  2  0  0  0  0  0  0
  190.2350  176.8060  140.3520 C   0  0  2  0  0  3  0  0  0  0  0  0
  190.9400  177.7810  139.6220 O   0  0  0  0  0  0  0  0  0  0  0  0
  189.5390  177.8050  139.5150 C   0  0  1  0  0  3  0  0  0  0  0  0
  189.8000  176.0680  142.6470 C   0  0  0  0  0  2  0  0  0  0  0  0
  190.1730  177.2260  141.8060 C   0  0  1  0  0  3  0  0  0  0  0  0
  191.1330  176.4980  142.5310 O   0  0  0  0  0  0  0  0  0  0  0  0
  184.0190  179.1080  141.4040 C   0  0  0  0  0  2  0  0  0  0  0  0
  184.4550  178.0530  142.4120 C   0  0  0  0  0  2  0  0  0  0  0  0
  186.6090  178.7610  141.3780 C   0  0  0  0  0  1  0  0  0  0  0  0
  185.9360  177.7350  142.2690 C   0  0  1  0  0  3  0  0  0  0  0  0
  186.5650  177.7510  143.5910 C   0  0  0  0  0  0  0  0  0  0  0  0
  187.0900  177.7590  144.6770 C   0  0  0  0  0  0  0  0  0  0  0  0
  187.0080  178.1980  147.0910 C   0  0  0  0  0  3  0  0  0  0  0  0
  187.6230  178.1990  148.3480 C   0  0  0  0  0  3  0  0  0  0  0  0
  187.7160  177.7600  145.9680 C   0  0  0  0  0  0  0  0  0  0  0  0
  189.6530  177.3260  147.3560 C   0  0  0  0  0  0  0  0  0  0  0  0
  189.0390  177.3250  146.1000 C   0  0  0  0  0  3  0  0  0  0  0  0
  188.9450  177.7640  148.4800 C   0  0  0  0  0  3  0  0  0  0  0  0
  192.1050  176.5190  147.5980 N   0  0  0  0  0  0  0  0  0  0  0  0
  191.0110  176.8800  147.4910 C   0  0  0  0  0  0  0  0  0  0  0  0
  1  8  1  1  0  0  0
  1  2  1  0  0  0  0
  2  6  1  0  0  0  0
  2  7  1  0  0  0  0
  3  5  1  6  0  0  0
  3  1  1  0  0  0  0
  3 10  1  0  0  0  0
  4 15  1  1  0  0  0
  4  3  1  0  0  0  0
  5  4  1  0  0  0  0
  7 26  1  6  0  0  0
  8  9  1  0  0  0  0
  9  6  2  0  0  0  0
 10  7  1  0  0  0  0
 11 12  1  0  0  0  0
 12 14  2  0  0  0  0
 13 11  1  0  0  0  0
 13 12  1  0  0  0  0
 14  8  1  0  0  0  0
 17 15  1  0  0  0  0
 17 16  1  0  0  0  0
 18 17  2  0  0  0  0
 19 16  1  0  0  0  0
 20 21  1  6  0  0  0
 20 24  1  0  0  0  0
 22 19  1  6  0  0  0
 22 21  1  0  0  0  0
 22 20  1  0  0  0  0
 24 25  1  0  0  0  0
 24 23  1  1  0  0  0
 25 23  1  0  0  0  0
 26 27  1  0  0  0  0
 29 28  1  6  0  0  0
 29 27  1  0  0  0  0
 29 30  1  0  0  0  0
 30 31  3  0  0  0  0
 31 34  1  0  0  0  0
 32 33  1  0  0  0  0
 33 37  2  0  0  0  0
 34 36  1  0  0  0  0
 34 32  2  0  0  0  0
 35 39  1  0  0  0  0
 35 37  1  0  0  0  0
 36 35  2  0  0  0  0
 39 38  3  0  0  0  0
M  END
>  <MODEL>
2

>  <REMARK>
 VINA RESULT:      -8.3      2.906      7.521
  Name = 
  11 active torsions:
  status: ('A' for Active; 'I' for Inactive)
    1  A    between atoms: C_1  and  C_23
    2  A    between atoms: C_9  and  C_18
    3  A    between atoms: C_11  and  N_12
    4  A    between atoms: C_13  and  C_14
    5  A    between atoms: C_13  and  C_23
    6  A    between atoms: C_14  and  C_30
    7  A    between atoms: N_15  and  C_32
    8  A    between atoms: C_16  and  C_31
    9  A    between atoms: C_19  and  C_28
   10  A    between atoms: C_32  and  C_35
   11  A    between atoms: N_33  and  C_38
                            x       y       z     vdW  Elec       q    Type
                         _______ _______ _______ _____ _____    ______ ____

>  <TORSDO>
F 11

$$$$
=
 OpenBabel10232412093D

 39 45  0  0  1  0  0  0  0  0999 V2000
  189.3590  178.1740  139.0630 C   0  0  1  0  0  3  0  0  0  0  0  0
  189.3930  178.3410  140.5230 N   0  0  0  0  0  0  0  0  0  0  0  0
  189.9850  176.8320  138.7910 C   0  0  2  0  0  0  0  0  0  0  0  0
  191.1180  176.8810  137.7740 C   0  0  2  0  0  3  0  0  0  0  0  0
  189.8320  176.1170  137.4670 C   0  0  0  0  0  2  0  0  0  0  0  0
  188.0090  178.5270  140.9750 C   0  0  0  0  0  3  0  0  0  0  0  0
  189.8770  177.0920  141.1370 C   0  0  1  0  0  3  0  0  0  0  0  0
  187.9690  178.2040  138.6580 N   0  0  0  0  0  0  0  0  0  0  0  0
  187.0870  178.4020  139.7810 C   0  0  0  0  0  3  0  0  0  0  0  0
  190.2170  176.0740  140.0590 C   0  0  0  0  0  2  0  0  0  0  0  0
  185.4640  176.5490  136.9080 C   0  0  0  0  0  2  0  0  0  0  0  0
  186.5720  177.5880  136.7870 C   0  0  0  0  0  0  0  0  0  0  0  0
  185.6650  177.1640  135.6370 C   0  0  0  0  0  2  0  0  0  0  0  0
  187.5670  178.3110  137.2880 C   0  0  0  0  0  3  0  0  0  0  0  0
  192.1750  175.9290  138.0890 N   0  0  0  0  0  2  0  0  0  0  0  0
  194.3500  174.8550  137.6510 N   0  0  0  0  0  2  0  0  0  0  0  0
  193.3590  175.8210  137.2980 C   0  0  0  0  0  0  0  0  0  0  0  0
  193.5250  176.5710  136.2960 O   0  0  0  0  0  0  0  0  0  0  0  0
  195.5640  174.6530  136.8720 C   0  0  0  0  0  2  0  0  0  0  0  0
  197.9420  174.7880  137.4380 C   0  0  2  0  0  3  0  0  0  0  0  0
  197.1710  175.1550  138.5570 O   0  0  0  0  0  0  0  0  0  0  0  0
  196.6680  174.1130  137.7610 C   0  0  1  0  0  3  0  0  0  0  0  0
  200.1970  173.9950  136.9020 C   0  0  0  0  0  2  0  0  0  0  0  0
  199.1050  173.9330  137.8980 C   0  0  1  0  0  3  0  0  0  0  0  0
  200.2300  174.7560  138.0840 O   0  0  0  0  0  0  0  0  0  0  0  0
  191.1130  177.3670  141.9810 C   0  0  0  0  0  2  0  0  0  0  0  0
  191.1940  176.4110  143.1640 C   0  0  0  0  0  2  0  0  0  0  0  0
  191.8680  178.4470  144.4330 C   0  0  0  0  0  1  0  0  0  0  0  0
  191.0710  177.1570  144.4840 C   0  0  1  0  0  3  0  0  0  0  0  0
  189.6620  177.4640  144.7380 C   0  0  0  0  0  0  0  0  0  0  0  0
  188.5010  177.7110  144.9540 C   0  0  0  0  0  0  0  0  0  0  0  0
  186.6620  178.1230  146.5270 C   0  0  0  0  0  3  0  0  0  0  0  0
  185.3130  178.4000  146.7750 C   0  0  0  0  0  3  0  0  0  0  0  0
  187.1190  177.9960  145.2120 C   0  0  0  0  0  0  0  0  0  0  0  0
  184.8800  178.4230  144.3910 C   0  0  0  0  0  0  0  0  0  0  0  0
  186.2280  178.1450  144.1440 C   0  0  0  0  0  3  0  0  0  0  0  0
  184.4220  178.5490  145.7080 C   0  0  0  0  0  3  0  0  0  0  0  0
  183.2310  178.6990  142.4110 N   0  0  0  0  0  0  0  0  0  0  0  0
  183.9660  178.5750  143.2950 C   0  0  0  0  0  0  0  0  0  0  0  0
  1  8  1  1  0  0  0
  1  2  1  0  0  0  0
  2  6  1  0  0  0  0
  2  7  1  0  0  0  0
  3  5  1  6  0  0  0
  3  1  1  0  0  0  0
  3 10  1  0  0  0  0
  4 15  1  1  0  0  0
  4  3  1  0  0  0  0
  5  4  1  0  0  0  0
  7 26  1  6  0  0  0
  8  9  1  0  0  0  0
  9  6  2  0  0  0  0
 10  7  1  0  0  0  0
 12 11  1  0  0  0  0
 12 14  2  0  0  0  0
 13 12  1  0  0  0  0
 13 11  1  0  0  0  0
 14  8  1  0  0  0  0
 17 16  1  0  0  0  0
 17 15  1  0  0  0  0
 18 17  2  0  0  0  0
 19 16  1  0  0  0  0
 20 22  1  0  0  0  0
 20 24  1  0  0  0  0
 20 21  1  1  0  0  0
 22 19  1  6  0  0  0
 22 21  1  0  0  0  0
 23 25  1  0  0  0  0
 24 23  1  6  0  0  0
 24 25  1  0  0  0  0
 26 27  1  0  0  0  0
 27 29  1  0  0  0  0
 29 28  1  6  0  0  0
 29 30  1  0  0  0  0
 30 31  3  0  0  0  0
 31 34  1  0  0  0  0
 32 33  1  0  0  0  0
 34 32  2  0  0  0  0
 35 37  1  0  0  0  0
 36 35  2  0  0  0  0
 36 34  1  0  0  0  0
 37 33  2  0  0  0  0
 38 39  3  0  0  0  0
 39 35  1  0  0  0  0
M  END
>  <MODEL>
3

>  <REMARK>
 VINA RESULT:      -8.3      4.617      8.366
  Name = 
  11 active torsions:
  status: ('A' for Active; 'I' for Inactive)
    1  A    between atoms: C_1  and  C_23
    2  A    between atoms: C_9  and  C_18
    3  A    between atoms: C_11  and  N_12
    4  A    between atoms: C_13  and  C_14
    5  A    between atoms: C_13  and  C_23
    6  A    between atoms: C_14  and  C_30
    7  A    between atoms: N_15  and  C_32
    8  A    between atoms: C_16  and  C_31
    9  A    between atoms: C_19  and  C_28
   10  A    between atoms: C_32  and  C_35
   11  A    between atoms: N_33  and  C_38
                            x       y       z     vdW  Elec       q    Type
                         _______ _______ _______ _____ _____    ______ ____

>  <TORSDO>
F 11

$$$$
=
 OpenBabel10232412093D

 39 45  0  0  1  0  0  0  0  0999 V2000
  182.6460  179.3700  139.3230 C   0  0  1  0  0  3  0  0  0  0  0  0
  182.5180  179.1360  140.7690 N   0  0  0  0  0  0  0  0  0  0  0  0
  183.4340  178.2050  138.7880 C   0  0  2  0  0  0  0  0  0  0  0  0
  184.6490  178.6150  137.9670 C   0  0  2  0  0  3  0  0  0  0  0  0
  183.4880  177.8680  137.3150 C   0  0  0  0  0  2  0  0  0  0  0  0
  181.0860  179.0860  141.0810 C   0  0  0  0  0  3  0  0  0  0  0  0
  183.0700  177.8080  141.0890 C   0  0  1  0  0  3  0  0  0  0  0  0
  181.3060  179.4030  138.7740 N   0  0  0  0  0  0  0  0  0  0  0  0
  180.3030  179.2210  139.7920 C   0  0  0  0  0  3  0  0  0  0  0  0
  183.6200  177.1510  139.8320 C   0  0  0  0  0  2  0  0  0  0  0  0
  180.7550  182.6030  137.5360 C   0  0  0  0  0  2  0  0  0  0  0  0
  180.8450  181.1310  137.1510 C   0  0  0  0  0  0  0  0  0  0  0  0
  180.5550  182.2590  136.1670 C   0  0  0  0  0  2  0  0  0  0  0  0
  181.0300  179.8490  137.4410 C   0  0  0  0  0  3  0  0  0  0  0  0
  185.7660  177.6970  138.1490 N   0  0  0  0  0  2  0  0  0  0  0  0
  188.1280  177.0480  137.8730 N   0  0  0  0  0  2  0  0  0  0  0  0
  187.0800  177.9980  137.6780 C   0  0  0  0  0  0  0  0  0  0  0  0
  187.3110  179.0930  137.0930 O   0  0  0  0  0  0  0  0  0  0  0  0
  189.4830  177.2600  137.3850 C   0  0  0  0  0  2  0  0  0  0  0  0
  191.7710  176.5820  137.9360 C   0  0  2  0  0  3  0  0  0  0  0  0
  190.9460  176.4100  139.0630 O   0  0  0  0  0  0  0  0  0  0  0  0
  190.3760  176.1110  137.8140 C   0  0  1  0  0  3  0  0  0  0  0  0
  193.8070  175.7210  136.8820 C   0  0  0  0  0  2  0  0  0  0  0  0
  192.7190  175.4050  137.8320 C   0  0  1  0  0  3  0  0  0  0  0  0
  193.9930  175.8080  138.2720 O   0  0  0  0  0  0  0  0  0  0  0  0
  184.1820  177.9360  142.1210 C   0  0  0  0  0  2  0  0  0  0  0  0
  184.3330  179.3770  142.5890 C   0  0  0  0  0  2  0  0  0  0  0  0
  182.7950  178.7040  144.4300 C   0  0  0  0  0  1  0  0  0  0  0  0
  184.0310  179.5090  144.0740 C   0  0  1  0  0  3  0  0  0  0  0  0
  185.1720  179.0170  144.8470 C   0  0  0  0  0  0  0  0  0  0  0  0
  186.1160  178.6190  145.4830 C   0  0  0  0  0  0  0  0  0  0  0  0
  187.1840  178.0980  147.6320 C   0  0  0  0  0  3  0  0  0  0  0  0
  188.2860  177.6420  148.3630 C   0  0  0  0  0  3  0  0  0  0  0  0
  187.2440  178.1510  146.2360 C   0  0  0  0  0  0  0  0  0  0  0  0
  189.5090  177.2930  146.3010 C   0  0  0  0  0  0  0  0  0  0  0  0
  188.4070  177.7490  145.5710 C   0  0  0  0  0  3  0  0  0  0  0  0
  189.4490  177.2410  147.6980 C   0  0  0  0  0  3  0  0  0  0  0  0
  191.6630  176.5490  145.0660 N   0  0  0  0  0  0  0  0  0  0  0  0
  190.7020  176.8820  145.6170 C   0  0  0  0  0  0  0  0  0  0  0  0
  1  8  1  6  0  0  0
  1  2  1  0  0  0  0
  2  6  1  0  0  0  0
  2  7  1  0  0  0  0
  3  5  1  6  0  0  0
  3  1  1  0  0  0  0
  3 10  1  0  0  0  0
  4 15  1  1  0  0  0
  4  3  1  0  0  0  0
  5  4  1  0  0  0  0
  7 26  1  1  0  0  0
  8  9  1  0  0  0  0
  9  6  2  0  0  0  0
 10  7  1  0  0  0  0
 12 14  2  0  0  0  0
 12 11  1  0  0  0  0
 13 12  1  0  0  0  0
 13 11  1  0  0  0  0
 14  8  1  0  0  0  0
 17 16  1  0  0  0  0
 17 15  1  0  0  0  0
 18 17  2  0  0  0  0
 19 16  1  0  0  0  0
 20 21  1  1  0  0  0
 22 19  1  6  0  0  0
 22 20  1  0  0  0  0
 22 21  1  0  0  0  0
 23 25  1  0  0  0  0
 24 23  1  6  0  0  0
 24 20  1  0  0  0  0
 24 25  1  0  0  0  0
 26 27  1  0  0  0  0
 27 29  1  0  0  0  0
 29 28  1  1  0  0  0
 29 30  1  0  0  0  0
 30 31  3  0  0  0  0
 31 34  1  0  0  0  0
 32 33  1  0  0  0  0
 34 32  2  0  0  0  0
 35 37  1  0  0  0  0
 36 34  1  0  0  0  0
 36 35  2  0  0  0  0
 37 33  2  0  0  0  0
 38 39  3  0  0  0  0
 39 35  1  0  0  0  0
M  END
>  <MODEL>
4

>  <REMARK>
 VINA RESULT:      -8.2      2.828      7.975
  Name = 
  11 active torsions:
  status: ('A' for Active; 'I' for Inactive)
    1  A    between atoms: C_1  and  C_23
    2  A    between atoms: C_9  and  C_18
    3  A    between atoms: C_11  and  N_12
    4  A    between atoms: C_13  and  C_14
    5  A    between atoms: C_13  and  C_23
    6  A    between atoms: C_14  and  C_30
    7  A    between atoms: N_15  and  C_32
    8  A    between atoms: C_16  and  C_31
    9  A    between atoms: C_19  and  C_28
   10  A    between atoms: C_32  and  C_35
   11  A    between atoms: N_33  and  C_38
                            x       y       z     vdW  Elec       q    Type
                         _______ _______ _______ _____ _____    ______ ____

>  <TORSDO>
F 11

$$$$
=
 OpenBabel10232412093D

 39 45  0  0  1  0  0  0  0  0999 V2000
  190.3770  176.5800  139.4280 C   0  0  1  0  0  3  0  0  0  0  0  0
  190.0480  176.9230  140.8190 N   0  0  0  0  0  0  0  0  0  0  0  0
  189.4710  177.4230  138.5730 C   0  0  2  0  0  0  0  0  0  0  0  0
  188.6770  176.6220  137.5490 C   0  0  2  0  0  3  0  0  0  0  0  0
  189.7180  177.6440  137.0970 C   0  0  0  0  0  2  0  0  0  0  0  0
  191.2760  177.4180  141.4510 C   0  0  0  0  0  3  0  0  0  0  0  0
  189.0890  178.0420  140.8210 C   0  0  1  0  0  3  0  0  0  0  0  0
  191.7700  176.9180  139.2200 N   0  0  0  0  0  0  0  0  0  0  0  0
  192.3780  177.4490  140.4130 C   0  0  0  0  0  3  0  0  0  0  0  0
  188.7330  178.4310  139.3940 C   0  0  0  0  0  2  0  0  0  0  0  0
  191.5400  174.0030  137.3410 C   0  0  0  0  0  2  0  0  0  0  0  0
  192.2720  175.3340  137.4670 C   0  0  0  0  0  0  0  0  0  0  0  0
  192.5520  174.3000  136.3820 C   0  0  0  0  0  2  0  0  0  0  0  0
  192.5000  176.4990  138.0610 C   0  0  0  0  0  3  0  0  0  0  0  0
  187.3450  177.1730  137.3380 N   0  0  0  0  0  2  0  0  0  0  0  0
  184.9420  176.9490  136.8380 N   0  0  0  0  0  2  0  0  0  0  0  0
  186.2190  176.3450  137.0510 C   0  0  0  0  0  0  0  0  0  0  0  0
  186.3510  175.0910  136.9820 O   0  0  0  0  0  0  0  0  0  0  0  0
  183.7540  176.1790  136.4970 C   0  0  0  0  0  2  0  0  0  0  0  0
  182.2420  175.7640  138.3780 C   0  0  2  0  0  3  0  0  0  0  0  0
  182.9490  176.9610  138.5990 O   0  0  0  0  0  0  0  0  0  0  0  0
  182.5580  176.6950  137.2750 C   0  0  1  0  0  3  0  0  0  0  0  0
  180.0950  174.6550  138.7750 C   0  0  0  0  0  2  0  0  0  0  0  0
  180.8020  175.9530  138.8090 C   0  0  1  0  0  3  0  0  0  0  0  0
  180.5750  175.2030  139.9770 O   0  0  0  0  0  0  0  0  0  0  0  0
  187.8230  177.6460  141.5690 C   0  0  0  0  0  2  0  0  0  0  0  0
  186.6230  178.4430  141.0760 C   0  0  0  0  0  2  0  0  0  0  0  0
  184.4010  178.0330  142.1260 C   0  0  0  0  0  1  0  0  0  0  0  0
  185.6980  178.8130  142.2250 C   0  0  1  0  0  3  0  0  0  0  0  0
  186.3560  178.5040  143.4960 C   0  0  0  0  0  0  0  0  0  0  0  0
  186.8970  178.2580  144.5450 C   0  0  0  0  0  0  0  0  0  0  0  0
  186.8480  178.1210  146.9960 C   0  0  0  0  0  3  0  0  0  0  0  0
  187.4830  177.8430  148.2110 C   0  0  0  0  0  3  0  0  0  0  0  0
  187.5450  177.9730  145.7930 C   0  0  0  0  0  0  0  0  0  0  0  0
  189.5120  177.2690  147.0190 C   0  0  0  0  0  0  0  0  0  0  0  0
  188.8770  177.5470  145.8050 C   0  0  0  0  0  3  0  0  0  0  0  0
  188.8150  177.4180  148.2230 C   0  0  0  0  0  3  0  0  0  0  0  0
  191.9820  176.4820  147.0380 N   0  0  0  0  0  0  0  0  0  0  0  0
  190.8800  176.8330  147.0300 C   0  0  0  0  0  0  0  0  0  0  0  0
  1  8  1  6  0  0  0
  1  2  1  0  0  0  0
  2  7  1  0  0  0  0
  2  6  1  0  0  0  0
  3  5  1  6  0  0  0
  3 10  1  0  0  0  0
  3  1  1  0  0  0  0
  4 15  1  6  0  0  0
  4  3  1  0  0  0  0
  5  4  1  0  0  0  0
  7 26  1  1  0  0  0
  8  9  1  0  0  0  0
  9  6  2  0  0  0  0
 10  7  1  0  0  0  0
 11 12  1  0  0  0  0
 12 14  2  0  0  0  0
 13 11  1  0  0  0  0
 13 12  1  0  0  0  0
 14  8  1  0  0  0  0
 16 17  1  0  0  0  0
 17 15  1  0  0  0  0
 18 17  2  0  0  0  0
 19 16  1  0  0  0  0
 20 21  1  1  0  0  0
 20 24  1  0  0  0  0
 22 19  1  6  0  0  0
 22 20  1  0  0  0  0
 22 21  1  0  0  0  0
 23 25  1  0  0  0  0
 24 23  1  6  0  0  0
 24 25  1  0  0  0  0
 27 26  1  0  0  0  0
 27 29  1  0  0  0  0
 29 28  1  6  0  0  0
 29 30  1  0  0  0  0
 30 31  3  0  0  0  0
 31 34  1  0  0  0  0
 32 33  1  0  0  0  0
 33 37  2  0  0  0  0
 34 36  1  0  0  0  0
 34 32  2  0  0  0  0
 35 39  1  0  0  0  0
 35 37  1  0  0  0  0
 36 35  2  0  0  0  0
 39 38  3  0  0  0  0
M  END
>  <MODEL>
5

>  <REMARK>
 VINA RESULT:      -8.0      2.687      4.136
  Name = 
  11 active torsions:
  status: ('A' for Active; 'I' for Inactive)
    1  A    between atoms: C_1  and  C_23
    2  A    between atoms: C_9  and  C_18
    3  A    between atoms: C_11  and  N_12
    4  A    between atoms: C_13  and  C_14
    5  A    between atoms: C_13  and  C_23
    6  A    between atoms: C_14  and  C_30
    7  A    between atoms: N_15  and  C_32
    8  A    between atoms: C_16  and  C_31
    9  A    between atoms: C_19  and  C_28
   10  A    between atoms: C_32  and  C_35
   11  A    between atoms: N_33  and  C_38
                            x       y       z     vdW  Elec       q    Type
                         _______ _______ _______ _____ _____    ______ ____

>  <TORSDO>
F 11

$$$$
=
 OpenBabel10232412093D

 39 45  0  0  1  0  0  0  0  0999 V2000
  182.4950  179.3780  140.1460 C   0  0  1  0  0  3  0  0  0  0  0  0
  182.2880  179.3600  141.6010 N   0  0  0  0  0  0  0  0  0  0  0  0
  183.6430  178.4390  139.8850 C   0  0  2  0  0  0  0  0  0  0  0  0
  184.7660  179.0610  139.0650 C   0  0  2  0  0  3  0  0  0  0  0  0
  183.9520  177.8950  138.5080 C   0  0  0  0  0  2  0  0  0  0  0  0
  180.9080  178.9230  141.8420 C   0  0  0  0  0  3  0  0  0  0  0  0
  183.1670  178.3380  142.1970 C   0  0  1  0  0  3  0  0  0  0  0  0
  181.2720  178.9050  139.5310 N   0  0  0  0  0  0  0  0  0  0  0  0
  180.2630  178.5950  140.5120 C   0  0  0  0  0  3  0  0  0  0  0  0
  184.0170  177.6830  141.1190 C   0  0  0  0  0  2  0  0  0  0  0  0
  181.0680  181.7120  137.4940 C   0  0  0  0  0  2  0  0  0  0  0  0
  180.9800  180.1900  137.5080 C   0  0  0  0  0  0  0  0  0  0  0  0
  180.8030  181.0480  136.2600 C   0  0  0  0  0  2  0  0  0  0  0  0
  181.0230  179.0160  138.1260 C   0  0  0  0  0  3  0  0  0  0  0  0
  186.0760  178.5740  139.4760 N   0  0  0  0  0  2  0  0  0  0  0  0
  188.4210  177.9640  139.0230 N   0  0  0  0  0  2  0  0  0  0  0  0
  187.1660  178.4640  138.5610 C   0  0  0  0  0  0  0  0  0  0  0  0
  187.0200  178.8030  137.3530 O   0  0  0  0  0  0  0  0  0  0  0  0
  189.5670  177.7800  138.1450 C   0  0  0  0  0  2  0  0  0  0  0  0
  191.5580  176.4160  137.7300 C   0  0  2  0  0  3  0  0  0  0  0  0
  191.5710  176.8720  139.0610 O   0  0  0  0  0  0  0  0  0  0  0  0
  190.3190  176.5190  138.5280 C   0  0  1  0  0  3  0  0  0  0  0  0
  192.8600  174.7470  136.4970 C   0  0  0  0  0  2  0  0  0  0  0  0
  192.0250  174.9750  137.6960 C   0  0  1  0  0  3  0  0  0  0  0  0
  193.4300  174.9510  137.7650 O   0  0  0  0  0  0  0  0  0  0  0  0
  184.0750  178.9720  143.2420 C   0  0  0  0  0  2  0  0  0  0  0  0
  183.7570  178.4470  144.6360 C   0  0  0  0  0  2  0  0  0  0  0  0
  184.4280  178.4160  147.0350 C   0  0  0  0  0  1  0  0  0  0  0  0
  184.7850  178.9240  145.6510 C   0  0  1  0  0  3  0  0  0  0  0  0
  186.1070  178.4240  145.2740 C   0  0  0  0  0  0  0  0  0  0  0  0
  187.1960  178.0030  144.9680 C   0  0  0  0  0  0  0  0  0  0  0  0
  188.8220  177.3060  143.2660 C   0  0  0  0  0  3  0  0  0  0  0  0
  190.0850  176.8130  142.9210 C   0  0  0  0  0  3  0  0  0  0  0  0
  188.4910  177.4990  144.6100 C   0  0  0  0  0  0  0  0  0  0  0  0
  190.6840  176.7070  145.2660 C   0  0  0  0  0  0  0  0  0  0  0  0
  189.4210  177.1990  145.6100 C   0  0  0  0  0  3  0  0  0  0  0  0
  191.0160  176.5130  143.9200 C   0  0  0  0  0  3  0  0  0  0  0  0
  192.4060  176.1500  147.1220 N   0  0  0  0  0  0  0  0  0  0  0  0
  191.6380  176.3980  146.2930 C   0  0  0  0  0  0  0  0  0  0  0  0
  1  8  1  6  0  0  0
  1  2  1  0  0  0  0
  2  6  1  0  0  0  0
  2  7  1  0  0  0  0
  3  5  1  6  0  0  0
  3  1  1  0  0  0  0
  3 10  1  0  0  0  0
  4 15  1  1  0  0  0
  4  3  1  0  0  0  0
  5  4  1  0  0  0  0
  7 26  1  1  0  0  0
  8  9  1  0  0  0  0
  9  6  2  0  0  0  0
 10  7  1  0  0  0  0
 11 12  1  0  0  0  0
 12 14  2  0  0  0  0
 13 11  1  0  0  0  0
 13 12  1  0  0  0  0
 14  8  1  0  0  0  0
 17 16  1  0  0  0  0
 17 15  1  0  0  0  0
 18 17  2  0  0  0  0
 19 16  1  0  0  0  0
 20 22  1  0  0  0  0
 20 21  1  1  0  0  0
 22 19  1  6  0  0  0
 22 21  1  0  0  0  0
 23 25  1  0  0  0  0
 24 23  1  6  0  0  0
 24 20  1  0  0  0  0
 24 25  1  0  0  0  0
 26 27  1  0  0  0  0
 27 29  1  0  0  0  0
 29 28  1  1  0  0  0
 30 29  1  0  0  0  0
 31 30  3  0  0  0  0
 32 34  1  0  0  0  0
 33 32  2  0  0  0  0
 33 37  1  0  0  0  0
 34 31  1  0  0  0  0
 34 36  2  0  0  0  0
 35 36  1  0  0  0  0
 35 39  1  0  0  0  0
 37 35  2  0  0  0  0
 39 38  3  0  0  0  0
M  END
>  <MODEL>
6

>  <REMARK>
 VINA RESULT:      -7.8      2.858      8.025
  Name = 
  11 active torsions:
  status: ('A' for Active; 'I' for Inactive)
    1  A    between atoms: C_1  and  C_23
    2  A    between atoms: C_9  and  C_18
    3  A    between atoms: C_11  and  N_12
    4  A    between atoms: C_13  and  C_14
    5  A    between atoms: C_13  and  C_23
    6  A    between atoms: C_14  and  C_30
    7  A    between atoms: N_15  and  C_32
    8  A    between atoms: C_16  and  C_31
    9  A    between atoms: C_19  and  C_28
   10  A    between atoms: C_32  and  C_35
   11  A    between atoms: N_33  and  C_38
                            x       y       z     vdW  Elec       q    Type
                         _______ _______ _______ _____ _____    ______ ____

>  <TORSDO>
F 11

$$$$
=
 OpenBabel10232412093D

 39 45  0  0  1  0  0  0  0  0999 V2000
  189.9150  175.9640  137.7690 C   0  0  1  0  0  3  0  0  0  0  0  0
  190.9030  176.2520  138.8180 N   0  0  0  0  0  0  0  0  0  0  0  0
  189.0700  177.2040  137.6500 C   0  0  2  0  0  0  0  0  0  0  0  0
  187.5750  176.9380  137.7610 C   0  0  2  0  0  3  0  0  0  0  0  0
  188.1740  177.4660  136.4600 C   0  0  0  0  0  2  0  0  0  0  0  0
  192.2340  176.1040  138.2200 C   0  0  0  0  0  3  0  0  0  0  0  0
  190.7730  177.6640  139.2220 C   0  0  1  0  0  3  0  0  0  0  0  0
  190.6480  175.7010  136.5480 N   0  0  0  0  0  0  0  0  0  0  0  0
  192.0730  175.7850  136.7490 C   0  0  0  0  0  3  0  0  0  0  0  0
  189.6410  178.3280  138.4540 C   0  0  0  0  0  2  0  0  0  0  0  0
  188.3060  173.1540  136.2290 C   0  0  0  0  0  2  0  0  0  0  0  0
  189.1430  174.1630  135.4520 C   0  0  0  0  0  0  0  0  0  0  0  0
  188.1810  173.1710  134.8090 C   0  0  0  0  0  2  0  0  0  0  0  0
  190.0300  175.1490  135.3800 C   0  0  0  0  0  3  0  0  0  0  0  0
  186.8760  178.0210  138.4400 N   0  0  0  0  0  2  0  0  0  0  0  0
  184.8410  179.2880  139.0120 N   0  0  0  0  0  2  0  0  0  0  0  0
  185.4630  178.1950  138.3360 C   0  0  0  0  0  0  0  0  0  0  0  0
  184.7720  177.3920  137.6500 O   0  0  0  0  0  0  0  0  0  0  0  0
  183.4130  179.5600  138.9220 C   0  0  0  0  0  2  0  0  0  0  0  0
  181.7430  179.3070  140.6940 C   0  0  2  0  0  3  0  0  0  0  0  0
  181.2680  178.7080  139.5120 O   0  0  0  0  0  0  0  0  0  0  0  0
  182.6410  178.5740  139.7780 C   0  0  1  0  0  3  0  0  0  0  0  0
  180.8090  179.2490  142.9570 C   0  0  0  0  0  2  0  0  0  0  0  0
  181.3850  178.4250  141.8730 C   0  0  1  0  0  3  0  0  0  0  0  0
  179.9970  178.4960  142.0900 O   0  0  0  0  0  0  0  0  0  0  0  0
  190.4950  177.7590  140.7160 C   0  0  0  0  0  2  0  0  0  0  0  0
  190.0680  176.4110  141.2810 C   0  0  0  0  0  2  0  0  0  0  0  0
  191.9520  176.9480  142.8200 C   0  0  0  0  0  1  0  0  0  0  0  0
  190.6490  176.1870  142.6690 C   0  0  1  0  0  3  0  0  0  0  0  0
  189.6940  176.6510  143.6760 C   0  0  0  0  0  0  0  0  0  0  0  0
  188.9060  177.0420  144.5010 C   0  0  0  0  0  0  0  0  0  0  0  0
  188.3310  177.5560  146.8320 C   0  0  0  0  0  3  0  0  0  0  0  0
  187.4160  178.0160  147.7860 C   0  0  0  0  0  3  0  0  0  0  0  0
  187.9700  177.5140  145.4820 C   0  0  0  0  0  0  0  0  0  0  0  0
  185.7810  178.3890  146.0370 C   0  0  0  0  0  0  0  0  0  0  0  0
  186.6960  177.9290  145.0850 C   0  0  0  0  0  3  0  0  0  0  0  0
  186.1410  178.4310  147.3890 C   0  0  0  0  0  3  0  0  0  0  0  0
  183.4180  179.1580  145.2980 N   0  0  0  0  0  0  0  0  0  0  0  0
  184.4730  178.8150  145.6290 C   0  0  0  0  0  0  0  0  0  0  0  0
  1  8  1  6  0  0  0
  1  2  1  0  0  0  0
  2  7  1  0  0  0  0
  3  5  1  6  0  0  0
  3  4  1  0  0  0  0
  3  1  1  0  0  0  0
  3 10  1  0  0  0  0
  4 15  1  1  0  0  0
  5  4  1  0  0  0  0
  6  2  1  0  0  0  0
  7 26  1  1  0  0  0
  8  9  1  0  0  0  0
  9  6  2  0  0  0  0
 10  7  1  0  0  0  0
 12 11  1  0  0  0  0
 13 12  1  0  0  0  0
 13 11  1  0  0  0  0
 14 12  2  0  0  0  0
 14  8  1  0  0  0  0
 17 15  1  0  0  0  0
 17 16  1  0  0  0  0
 18 17  2  0  0  0  0
 19 16  1  0  0  0  0
 20 21  1  6  0  0  0
 20 24  1  0  0  0  0
 21 22  1  0  0  0  0
 22 19  1  6  0  0  0
 22 20  1  0  0  0  0
 24 25  1  0  0  0  0
 24 23  1  1  0  0  0
 25 23  1  0  0  0  0
 26 27  1  0  0  0  0
 27 29  1  0  0  0  0
 29 28  1  6  0  0  0
 29 30  1  0  0  0  0
 30 31  3  0  0  0  0
 31 34  1  0  0  0  0
 32 33  1  0  0  0  0
 34 32  2  0  0  0  0
 35 37  1  0  0  0  0
 36 34  1  0  0  0  0
 36 35  2  0  0  0  0
 37 33  2  0  0  0  0
 38 39  3  0  0  0  0
 39 35  1  0  0  0  0
M  END
>  <MODEL>
7

>  <REMARK>
 VINA RESULT:      -7.8      1.343      2.012
  Name = 
  11 active torsions:
  status: ('A' for Active; 'I' for Inactive)
    1  A    between atoms: C_1  and  C_23
    2  A    between atoms: C_9  and  C_18
    3  A    between atoms: C_11  and  N_12
    4  A    between atoms: C_13  and  C_14
    5  A    between atoms: C_13  and  C_23
    6  A    between atoms: C_14  and  C_30
    7  A    between atoms: N_15  and  C_32
    8  A    between atoms: C_16  and  C_31
    9  A    between atoms: C_19  and  C_28
   10  A    between atoms: C_32  and  C_35
   11  A    between atoms: N_33  and  C_38
                            x       y       z     vdW  Elec       q    Type
                         _______ _______ _______ _____ _____    ______ ____

>  <TORSDO>
F 11

$$$$
=
 OpenBabel10232412093D

 39 45  0  0  1  0  0  0  0  0999 V2000
  190.2420  176.8900  136.2910 C   0  0  1  0  0  3  0  0  0  0  0  0
  188.9290  177.2720  135.7520 N   0  0  0  0  0  0  0  0  0  0  0  0
  189.9810  176.3800  137.6830 C   0  0  2  0  0  0  0  0  0  0  0  0
  190.8350  177.0530  138.7490 C   0  0  2  0  0  3  0  0  0  0  0  0
  190.9950  175.5640  138.4530 C   0  0  0  0  0  2  0  0  0  0  0  0
  188.7080  176.4850  134.5340 C   0  0  0  0  0  3  0  0  0  0  0  0
  187.8840  176.8720  136.7120 C   0  0  1  0  0  3  0  0  0  0  0  0
  190.7710  175.8480  135.4340 N   0  0  0  0  0  0  0  0  0  0  0  0
  189.8770  175.5410  134.3460 C   0  0  0  0  0  3  0  0  0  0  0  0
  188.5150  176.2440  137.9450 C   0  0  0  0  0  2  0  0  0  0  0  0
  192.1010  172.6390  135.3660 C   0  0  0  0  0  2  0  0  0  0  0  0
  192.4550  174.1180  135.4670 C   0  0  0  0  0  0  0  0  0  0  0  0
  193.4780  172.9880  135.4840 C   0  0  0  0  0  2  0  0  0  0  0  0
  192.1310  175.4040  135.5090 C   0  0  0  0  0  3  0  0  0  0  0  0
  190.1120  177.2150  140.0050 N   0  0  0  0  0  2  0  0  0  0  0  0
  190.0140  177.6620  142.4260 N   0  0  0  0  0  2  0  0  0  0  0  0
  190.7780  177.5330  141.2270 C   0  0  0  0  0  0  0  0  0  0  0  0
  192.0290  177.6960  141.2460 O   0  0  0  0  0  0  0  0  0  0  0  0
  190.6210  177.9410  143.7200 C   0  0  0  0  0  2  0  0  0  0  0  0
  191.2490  176.9410  145.8650 C   0  0  2  0  0  3  0  0  0  0  0  0
  189.9470  176.5320  145.5200 O   0  0  0  0  0  0  0  0  0  0  0  0
  190.8710  176.6450  144.4680 C   0  0  1  0  0  3  0  0  0  0  0  0
  192.3910  176.0630  147.8460 C   0  0  0  0  0  2  0  0  0  0  0  0
  191.9980  175.7620  146.4530 C   0  0  1  0  0  3  0  0  0  0  0  0
  191.2730  175.2640  147.5510 O   0  0  0  0  0  0  0  0  0  0  0  0
  187.0610  178.0840  137.1270 C   0  0  0  0  0  2  0  0  0  0  0  0
  186.6710  178.0060  138.5960 C   0  0  0  0  0  2  0  0  0  0  0  0
  184.2280  178.1420  138.1270 C   0  0  0  0  0  1  0  0  0  0  0  0
  185.3890  178.7780  138.8670 C   0  0  1  0  0  3  0  0  0  0  0  0
  185.1130  178.7700  140.3050 C   0  0  0  0  0  0  0  0  0  0  0  0
  184.8790  178.7570  141.4880 C   0  0  0  0  0  0  0  0  0  0  0  0
  183.2980  178.9980  143.3510 C   0  0  0  0  0  3  0  0  0  0  0  0
  183.0240  178.9820  144.7230 C   0  0  0  0  0  3  0  0  0  0  0  0
  184.5940  178.7400  142.8940 C   0  0  0  0  0  0  0  0  0  0  0  0
  185.3420  178.4490  145.1800 C   0  0  0  0  0  0  0  0  0  0  0  0
  185.6160  178.4660  143.8080 C   0  0  0  0  0  3  0  0  0  0  0  0
  184.0450  178.7080  145.6370 C   0  0  0  0  0  3  0  0  0  0  0  0
  187.2390  177.9420  146.8720 N   0  0  0  0  0  0  0  0  0  0  0  0
  186.3920  178.1680  146.1170 C   0  0  0  0  0  0  0  0  0  0  0  0
  1  8  1  6  0  0  0
  1  3  1  0  0  0  0
  2  1  1  0  0  0  0
  2  7  1  0  0  0  0
  3 10  1  1  0  0  0
  3  5  1  0  0  0  0
  3  4  1  0  0  0  0
  4 15  1  1  0  0  0
  5  4  1  0  0  0  0
  6  2  1  0  0  0  0
  7 26  1  1  0  0  0
  7 10  1  0  0  0  0
  8 14  1  0  0  0  0
  9  6  2  0  0  0  0
  9  8  1  0  0  0  0
 11 12  1  0  0  0  0
 11 13  1  0  0  0  0
 12 13  1  0  0  0  0
 12 14  2  0  0  0  0
 15 17  1  0  0  0  0
 16 19  1  0  0  0  0
 17 18  2  0  0  0  0
 17 16  1  0  0  0  0
 20 21  1  1  0  0  0
 20 24  1  0  0  0  0
 22 19  1  6  0  0  0
 22 21  1  0  0  0  0
 22 20  1  0  0  0  0
 24 25  1  0  0  0  0
 24 23  1  1  0  0  0
 25 23  1  0  0  0  0
 26 27  1  0  0  0  0
 27 29  1  0  0  0  0
 29 28  1  6  0  0  0
 29 30  1  0  0  0  0
 30 31  3  0  0  0  0
 31 34  1  0  0  0  0
 32 33  1  0  0  0  0
 33 37  2  0  0  0  0
 34 32  2  0  0  0  0
 34 36  1  0  0  0  0
 35 37  1  0  0  0  0
 35 39  1  0  0  0  0
 36 35  2  0  0  0  0
 39 38  3  0  0  0  0
M  END
>  <MODEL>
8

>  <REMARK>
 VINA RESULT:      -7.8      3.815      7.122
  Name = 
  11 active torsions:
  status: ('A' for Active; 'I' for Inactive)
    1  A    between atoms: C_1  and  C_23
    2  A    between atoms: C_9  and  C_18
    3  A    between atoms: C_11  and  N_12
    4  A    between atoms: C_13  and  C_14
    5  A    between atoms: C_13  and  C_23
    6  A    between atoms: C_14  and  C_30
    7  A    between atoms: N_15  and  C_32
    8  A    between atoms: C_16  and  C_31
    9  A    between atoms: C_19  and  C_28
   10  A    between atoms: C_32  and  C_35
   11  A    between atoms: N_33  and  C_38
                            x       y       z     vdW  Elec       q    Type
                         _______ _______ _______ _____ _____    ______ ____

>  <TORSDO>
F 11

$$$$
=
 OpenBabel10232412093D

 39 45  0  0  1  0  0  0  0  0999 V2000
  189.3690  177.0380  145.7470 C   0  0  1  0  0  3  0  0  0  0  0  0
  187.9420  177.0440  145.3920 N   0  0  0  0  0  0  0  0  0  0  0  0
  190.0480  177.9100  144.7250 C   0  0  2  0  0  0  0  0  0  0  0  0
  191.2260  177.2370  144.0340 C   0  0  2  0  0  3  0  0  0  0  0  0
  191.4440  178.4580  144.9230 C   0  0  0  0  0  2  0  0  0  0  0  0
  187.2040  177.5580  146.5510 C   0  0  0  0  0  3  0  0  0  0  0  0
  187.7270  178.0010  144.2920 C   0  0  1  0  0  3  0  0  0  0  0  0
  189.4820  177.5940  147.0800 N   0  0  0  0  0  0  0  0  0  0  0  0
  188.1960  177.9470  147.6260 C   0  0  0  0  0  3  0  0  0  0  0  0
  189.0500  178.6230  143.8700 C   0  0  0  0  0  2  0  0  0  0  0  0
  191.9930  175.1910  147.1060 C   0  0  0  0  0  2  0  0  0  0  0  0
  191.5440  176.5120  147.7200 C   0  0  0  0  0  0  0  0  0  0  0  0
  192.8340  175.7880  148.0900 C   0  0  0  0  0  2  0  0  0  0  0  0
  190.6910  177.5210  147.8450 C   0  0  0  0  0  3  0  0  0  0  0  0
  191.3400  177.6370  142.6370 N   0  0  0  0  0  2  0  0  0  0  0  0
  190.9560  177.2920  140.2270 N   0  0  0  0  0  2  0  0  0  0  0  0
  190.7950  176.8530  141.5770 C   0  0  0  0  0  0  0  0  0  0  0  0
  190.1790  175.7800  141.8300 O   0  0  0  0  0  0  0  0  0  0  0  0
  190.4680  176.5280  139.0870 C   0  0  0  0  0  2  0  0  0  0  0  0
  189.2800  176.6700  136.9510 C   0  0  2  0  0  3  0  0  0  0  0  0
  188.4530  177.1570  137.9800 O   0  0  0  0  0  0  0  0  0  0  0  0
  189.8220  177.4580  138.0770 C   0  0  1  0  0  3  0  0  0  0  0  0
  188.7960  176.7330  134.5500 C   0  0  0  0  0  2  0  0  0  0  0  0
  189.1270  177.5570  135.7330 C   0  0  1  0  0  3  0  0  0  0  0  0
  187.8100  177.4480  135.2520 O   0  0  0  0  0  0  0  0  0  0  0  0
  187.0950  177.2970  143.0990 C   0  0  0  0  0  2  0  0  0  0  0  0
  185.8590  178.0420  142.6140 C   0  0  0  0  0  2  0  0  0  0  0  0
  187.4200  178.5420  140.7370 C   0  0  0  0  0  1  0  0  0  0  0  0
  186.2090  179.0290  141.5110 C   0  0  1  0  0  3  0  0  0  0  0  0
  185.0710  179.1630  140.6010 C   0  0  0  0  0  0  0  0  0  0  0  0
  184.1390  179.2760  139.8440 C   0  0  0  0  0  0  0  0  0  0  0  0
  182.5750  178.3120  138.2150 C   0  0  0  0  0  3  0  0  0  0  0  0
  181.4980  178.4520  137.3330 C   0  0  0  0  0  3  0  0  0  0  0  0
  183.0330  179.4160  138.9400 C   0  0  0  0  0  0  0  0  0  0  0  0
  181.3390  180.8020  137.9020 C   0  0  0  0  0  0  0  0  0  0  0  0
  182.4160  180.6610  138.7830 C   0  0  0  0  0  3  0  0  0  0  0  0
  180.8800  179.6970  137.1760 C   0  0  0  0  0  3  0  0  0  0  0  0
  180.1970  183.1110  137.6140 N   0  0  0  0  0  0  0  0  0  0  0  0
  180.7060  182.0800  137.7420 C   0  0  0  0  0  0  0  0  0  0  0  0
  1  2  1  6  0  0  0
  1  8  1  0  0  0  0
  2  6  1  0  0  0  0
  3 10  1  6  0  0  0
  3  5  1  0  0  0  0
  3  1  1  0  0  0  0
  4 15  1  6  0  0  0
  4  3  1  0  0  0  0
  4  5  1  0  0  0  0
  6  9  2  0  0  0  0
  7 26  1  6  0  0  0
  7  2  1  0  0  0  0
  8  9  1  0  0  0  0
  8 14  1  0  0  0  0
 10  7  1  0  0  0  0
 11 12  1  0  0  0  0
 11 13  1  0  0  0  0
 12 14  2  0  0  0  0
 12 13  1  0  0  0  0
 16 17  1  0  0  0  0
 17 18  2  0  0  0  0
 17 15  1  0  0  0  0
 19 16  1  0  0  0  0
 20 21  1  1  0  0  0
 20 22  1  0  0  0  0
 21 22  1  0  0  0  0
 22 19  1  1  0  0  0
 23 25  1  0  0  0  0
 24 23  1  6  0  0  0
 24 20  1  0  0  0  0
 25 24  1  0  0  0  0
 27 26  1  0  0  0  0
 29 28  1  6  0  0  0
 29 27  1  0  0  0  0
 30 29  1  0  0  0  0
 31 30  3  0  0  0  0
 32 34  1  0  0  0  0
 33 32  2  0  0  0  0
 34 31  1  0  0  0  0
 35 36  1  0  0  0  0
 36 34  2  0  0  0  0
 37 33  1  0  0  0  0
 37 35  2  0  0  0  0
 38 39  3  0  0  0  0
 39 35  1  0  0  0  0
M  END
>  <MODEL>
9

>  <REMARK>
 VINA RESULT:      -7.7      3.048      8.549
  Name = 
  11 active torsions:
  status: ('A' for Active; 'I' for Inactive)
    1  A    between atoms: C_1  and  C_23
    2  A    between atoms: C_9  and  C_18
    3  A    between atoms: C_11  and  N_12
    4  A    between atoms: C_13  and  C_14
    5  A    between atoms: C_13  and  C_23
    6  A    between atoms: C_14  and  C_30
    7  A    between atoms: N_15  and  C_32
    8  A    between atoms: C_16  and  C_31
    9  A    between atoms: C_19  and  C_28
   10  A    between atoms: C_32  and  C_35
   11  A    between atoms: N_33  and  C_38
                            x       y       z     vdW  Elec       q    Type
                         _______ _______ _______ _____ _____    ______ ____

>  <TORSDO>
F 11

$$$$
