=
 OpenBabel10232409043D

 57 62  0  0  1  0  0  0  0  0999 V2000
  190.6770  176.9150  140.9910 C   0  0  1  0  0  3  0  0  0  0  0  0
  189.3320  177.4770  141.3330 C   0  0  0  0  0  3  0  0  0  0  0  0
  189.6840  176.6320  138.4660 C   0  0  2  0  0  3  0  0  0  0  0  0
  188.2930  176.7960  139.0900 C   0  0  1  0  0  3  0  0  0  0  0  0
  188.2860  177.4250  140.4810 C   0  0  0  0  0  3  0  0  0  0  0  0
  190.6460  177.8250  138.5990 C   0  0  0  0  0  2  0  0  0  0  0  0
  191.4130  177.7550  139.9320 C   0  0  0  0  0  2  0  0  0  0  0  0
  189.7040  175.9990  137.1470 N   0  0  0  0  0  0  0  0  0  0  0  0
  197.5070  175.7270  135.1860 C   0  0  0  0  0  1  0  0  0  0  0  0
  191.6140  174.6500  137.7860 C   0  0  0  0  0  3  0  0  0  0  0  0
  194.4330  173.9760  135.5750 N   0  0  0  0  0  0  0  0  0  0  0  0
  195.7470  173.4450  137.5790 C   0  0  0  0  0  1  0  0  0  0  0  0
  190.5950  175.1150  136.8220 C   0  0  0  0  0  0  0  0  0  0  0  0
  192.1670  174.4490  135.0620 N   0  0  0  0  0  0  0  0  0  0  0  0
  195.2160  172.9380  136.2380 C   0  0  2  0  0  3  0  0  0  0  0  0
  190.7480  174.6670  135.4000 C   0  0  0  0  0  2  0  0  0  0  0  0
  192.7370  174.1620  137.3520 N   0  0  0  0  0  0  0  0  0  0  0  0
  193.0570  174.1260  135.9550 C   0  0  0  0  0  0  0  0  0  0  0  0
  196.3530  172.5190  135.3560 C   0  0  0  0  0  3  0  0  0  0  0  0
  195.0960  175.1420  134.9890 C   0  0  0  0  0  2  0  0  0  0  0  0
  196.9280  173.4020  134.5280 C   0  0  0  0  0  3  0  0  0  0  0  0
  196.5050  174.8480  134.4450 C   0  0  2  0  0  3  0  0  0  0  0  0
  186.1910  177.0050  137.9080 N   0  0  0  0  0  0  0  0  0  0  0  0
  187.3470  177.5270  138.1850 C   0  0  0  0  0  3  0  0  0  0  0  0
  185.2340  177.7250  137.1640 N   0  0  0  0  0  2  0  0  0  0  0  0
  183.9130  177.2260  136.9140 C   0  0  0  0  0  0  0  0  0  0  0  0
  183.5720  176.0670  137.2780 O   0  0  0  0  0  0  0  0  0  0  0  0
  182.9480  178.0800  136.1390 C   0  0  0  0  0  2  0  0  0  0  0  0
  180.3010  180.4980  135.8010 C   0  0  2  0  0  3  0  0  0  0  0  0
  180.3710  181.8520  135.0980 C   0  0  0  0  0  2  0  0  0  0  0  0
  182.2970  179.1120  138.6710 O   0  0  0  0  0  1  0  0  0  0  0  0
  180.6100  178.0450  135.5810 C   0  0  0  0  0  2  0  0  0  0  0  0
  181.5850  178.0040  136.6920 N   0  0  0  0  0  0  0  0  0  0  0  0
  180.8970  181.5730  137.9620 C   0  0  0  0  0  2  0  0  0  0  0  0
  180.9030  182.9490  137.3070 C   0  0  0  0  0  2  0  0  0  0  0  0
  181.3160  180.4970  136.9510 C   0  0  1  0  0  3  0  0  0  0  0  0
  180.6170  179.3780  134.8290 C   0  0  0  0  0  2  0  0  0  0  0  0
  179.9820  182.9590  136.0820 C   0  0  0  0  0  2  0  0  0  0  0  0
  181.3460  179.1220  137.6400 C   0  0  2  0  0  3  0  0  0  0  0  0
  191.5190  176.7250  142.2240 C   0  0  0  0  0  2  0  0  0  0  0  0
  191.1260  177.8070  143.2230 C   0  0  0  0  0  2  0  0  0  0  0  0
  190.9030  177.2200  144.6090 C   0  0  2  0  0  3  0  0  0  0  0  0
  191.9790  175.7310  146.3130 C   0  0  0  0  0  1  0  0  0  0  0  0
  191.9170  176.1110  144.8390 C   0  0  0  0  0  2  0  0  0  0  0  0
  189.5330  176.6970  144.7060 N   0  0  0  0  0  2  0  0  0  0  0  0
  188.5470  177.6910  145.1670 C   0  0  0  0  0  0  0  0  0  0  0  0
  187.6690  178.0820  144.1300 O   0  0  0  0  0  1  0  0  0  0  0  0
  189.2570  178.8040  145.6200 O   0  0  0  0  0  1  0  0  0  0  0  0
  185.6860  178.3250  146.3670 C   0  0  0  0  0  0  0  0  0  0  0  0
  186.4650  179.5000  146.8810 C   0  0  0  0  0  2  0  0  0  0  0  0
  187.4610  176.6970  148.8030 C   0  0  0  0  0  1  0  0  0  0  0  0
  187.3800  179.0430  148.0360 C   0  0  0  0  0  2  0  0  0  0  0  0
  188.0620  177.6650  147.7870 C   0  0  0  0  0  0  0  0  0  0  0  0
  184.1950  178.3750  146.3540 C   0  0  0  0  0  1  0  0  0  0  0  0
  189.5610  177.7530  148.0640 C   0  0  0  0  0  1  0  0  0  0  0  0
  186.2900  177.1950  146.1810 N   0  0  0  0  0  0  0  0  0  0  0  0
  187.7350  177.1020  146.3680 C   0  0  1  0  0  3  0  0  0  0  0  0
  1  2  1  0  0  0  0
  1 40  1  1  0  0  0
  3  8  1  6  0  0  0
  3  6  1  0  0  0  0
  3  4  1  0  0  0  0
  4 24  1  6  0  0  0
  4  5  1  0  0  0  0
  5  2  2  0  0  0  0
  6  7  1  0  0  0  0
  7  1  1  0  0  0  0
 11 18  1  0  0  0  0
 11 15  1  0  0  0  0
 13  8  2  0  0  0  0
 13 10  1  0  0  0  0
 14 16  1  0  0  0  0
 14 18  2  0  0  0  0
 15 12  1  1  0  0  0
 16 13  1  0  0  0  0
 17 10  2  0  0  0  0
 18 17  1  0  0  0  0
 19 15  1  0  0  0  0
 20 11  1  0  0  0  0
 21 19  2  0  0  0  0
 22 21  1  0  0  0  0
 22 20  1  0  0  0  0
 22  9  1  1  0  0  0
 23 24  2  0  0  0  0
 25 23  1  0  0  0  0
 26 25  1  0  0  0  0
 26 27  2  0  0  0  0
 28 33  1  0  0  0  0
 28 26  1  0  0  0  0
 29 37  1  6  0  0  0
 29 36  1  0  0  0  0
 30 29  1  0  0  0  0
 30 38  1  0  0  0  0
 32 33  1  0  0  0  0
 33 39  1  0  0  0  0
 35 34  1  0  0  0  0
 36 39  1  0  0  0  0
 36 34  1  1  0  0  0
 37 32  1  0  0  0  0
 38 35  1  0  0  0  0
 39 31  1  1  0  0  0
 40 41  1  0  0  0  0
 42 41  1  6  0  0  0
 42 45  1  0  0  0  0
 42 44  1  0  0  0  0
 44 43  1  0  0  0  0
 45 46  1  0  0  0  0
 46 48  1  0  0  0  0
 47 46  1  0  0  0  0
 49 50  1  0  0  0  0
 50 52  1  0  0  0  0
 53 52  1  0  0  0  0
 53 55  1  0  0  0  0
 53 51  1  0  0  0  0
 54 49  1  0  0  0  0
 56 49  2  0  0  0  0
 56 57  1  0  0  0  0
 57 46  1  6  0  0  0
 57 53  1  0  0  0  0
M  END
>  <MODEL>
1

>  <REMARK>
 VINA RESULT:      -6.4      0.000      0.000
  Name = 
  12 active torsions:
  status: ('A' for Active; 'I' for Inactive)
    1  A    between atoms: N_1  and  C_9
    2  A    between atoms: C_2  and  C_3
    3  A    between atoms: C_2  and  C_22
    4  A    between atoms: N_18  and  C_52
    5  A    between atoms: N_20  and  N_21
    6  A    between atoms: C_22  and  C_28
    7  A    between atoms: C_23  and  N_29
    8  A    between atoms: C_23  and  C_56
    9  A    between atoms: C_26  and  C_52
   10  A    between atoms: C_27  and  C_39
   11  A    between atoms: C_28  and  N_29
   12  A    between atoms: C_28  and  C_40
                            x       y       z     vdW  Elec       q    Type
                         _______ _______ _______ _____ _____    ______ ____

>  <TORSDO>
F 12

$$$$
=
 OpenBabel10232409043D

 57 62  0  0  1  0  0  0  0  0999 V2000
  186.4070  173.5580  136.4360 C   0  0  1  0  0  3  0  0  0  0  0  0
  187.6660  172.7840  136.1950 C   0  0  0  0  0  3  0  0  0  0  0  0
  188.0310  175.7420  136.6120 C   0  0  2  0  0  3  0  0  0  0  0  0
  189.1900  174.7550  136.8010 C   0  0  1  0  0  3  0  0  0  0  0  0
  188.8920  173.3260  136.3530 C   0  0  0  0  0  3  0  0  0  0  0  0
  187.2720  175.6680  135.2760 C   0  0  0  0  0  2  0  0  0  0  0  0
  186.1510  174.6160  135.3480 C   0  0  0  0  0  2  0  0  0  0  0  0
  188.2960  177.1060  137.0690 N   0  0  0  0  0  0  0  0  0  0  0  0
  187.0500  176.8130  145.0170 C   0  0  0  0  0  1  0  0  0  0  0  0
  189.5070  176.2610  138.9930 C   0  0  0  0  0  3  0  0  0  0  0  0
  189.2220  177.6840  142.3360 N   0  0  0  0  0  0  0  0  0  0  0  0
  190.0770  175.5550  143.2060 C   0  0  0  0  0  1  0  0  0  0  0  0
  188.9440  177.3500  138.1660 C   0  0  0  0  0  0  0  0  0  0  0  0
  188.9270  178.6980  140.2130 N   0  0  0  0  0  0  0  0  0  0  0  0
  190.2860  177.0670  143.1210 C   0  0  2  0  0  3  0  0  0  0  0  0
  188.9880  178.7330  138.7400 C   0  0  0  0  0  2  0  0  0  0  0  0
  189.7180  176.4570  140.2590 N   0  0  0  0  0  0  0  0  0  0  0  0
  189.3520  177.6820  140.9070 C   0  0  0  0  0  0  0  0  0  0  0  0
  190.3130  177.6640  144.4960 C   0  0  0  0  0  3  0  0  0  0  0  0
  187.8680  177.7980  142.8840 C   0  0  0  0  0  2  0  0  0  0  0  0
  189.1810  178.0880  145.0730 C   0  0  0  0  0  3  0  0  0  0  0  0
  187.8290  177.9750  144.4120 C   0  0  2  0  0  3  0  0  0  0  0  0
  191.5570  175.2590  136.8660 N   0  0  0  0  0  0  0  0  0  0  0  0
  190.4600  175.2420  136.1710 C   0  0  0  0  0  3  0  0  0  0  0  0
  192.7870  175.5930  136.2650 N   0  0  0  0  0  2  0  0  0  0  0  0
  194.0390  175.4900  136.9560 C   0  0  0  0  0  0  0  0  0  0  0  0
  194.0880  175.1770  138.1780 O   0  0  0  0  0  0  0  0  0  0  0  0
  195.3060  175.8350  136.2220 C   0  0  0  0  0  2  0  0  0  0  0  0
  197.3790  172.9000  135.9840 C   0  0  2  0  0  3  0  0  0  0  0  0
  198.2840  172.3180  137.0680 C   0  0  0  0  0  2  0  0  0  0  0  0
  197.3620  176.2940  134.3610 O   0  0  0  0  0  1  0  0  0  0  0  0
  195.0750  173.5960  135.3770 C   0  0  0  0  0  2  0  0  0  0  0  0
  195.5090  174.9710  135.0470 N   0  0  0  0  0  0  0  0  0  0  0  0
  199.2860  174.2210  135.0860 C   0  0  0  0  0  2  0  0  0  0  0  0
  200.2310  173.6020  136.1080 C   0  0  0  0  0  2  0  0  0  0  0  0
  197.8650  174.3190  135.6610 C   0  0  1  0  0  3  0  0  0  0  0  0
  195.9400  172.9410  136.4570 C   0  0  0  0  0  2  0  0  0  0  0  0
  199.7180  172.2250  136.5410 C   0  0  0  0  0  2  0  0  0  0  0  0
  196.9360  174.9850  134.6320 C   0  0  2  0  0  3  0  0  0  0  0  0
  185.2250  172.6390  136.5980 C   0  0  0  0  0  2  0  0  0  0  0  0
  183.9970  173.3670  136.0660 C   0  0  0  0  0  2  0  0  0  0  0  0
  182.8220  173.2360  137.0240 C   0  0  2  0  0  3  0  0  0  0  0  0
  180.8750  171.7030  136.6550 C   0  0  0  0  0  1  0  0  0  0  0  0
  182.3510  171.7910  137.0230 C   0  0  0  0  0  2  0  0  0  0  0  0
  181.7390  174.1330  136.5980 N   0  0  0  0  0  2  0  0  0  0  0  0
  181.4090  175.1780  137.5840 C   0  0  0  0  0  0  0  0  0  0  0  0
  180.8030  174.6370  138.7400 O   0  0  0  0  0  1  0  0  0  0  0  0
  180.5280  176.0690  136.9690 O   0  0  0  0  0  1  0  0  0  0  0  0
  181.9930  177.5490  139.6000 C   0  0  0  0  0  0  0  0  0  0  0  0
  181.3320  178.2980  138.4800 C   0  0  0  0  0  2  0  0  0  0  0  0
  184.5890  177.4640  137.3680 C   0  0  0  0  0  1  0  0  0  0  0  0
  182.3140  178.4210  137.2960 C   0  0  0  0  0  2  0  0  0  0  0  0
  183.1390  177.1280  137.0300 C   0  0  0  0  0  0  0  0  0  0  0  0
  182.1080  178.1820  140.9460 C   0  0  0  0  0  1  0  0  0  0  0  0
  183.0840  176.7540  135.5510 C   0  0  0  0  0  1  0  0  0  0  0  0
  182.6760  176.4810  139.3340 N   0  0  0  0  0  0  0  0  0  0  0  0
  182.7080  175.9590  137.9720 C   0  0  1  0  0  3  0  0  0  0  0  0
  1 40  1  6  0  0  0
  2  5  2  0  0  0  0
  2  1  1  0  0  0  0
  3  4  1  0  0  0  0
  3  8  1  6  0  0  0
  4 24  1  6  0  0  0
  5  4  1  0  0  0  0
  6  7  1  0  0  0  0
  6  3  1  0  0  0  0
  7  1  1  0  0  0  0
  8 13  2  0  0  0  0
 10 17  2  0  0  0  0
 11 20  1  0  0  0  0
 11 15  1  0  0  0  0
 13 16  1  0  0  0  0
 13 10  1  0  0  0  0
 14 18  2  0  0  0  0
 15 12  1  1  0  0  0
 15 19  1  0  0  0  0
 16 14  1  0  0  0  0
 17 18  1  0  0  0  0
 18 11  1  0  0  0  0
 19 21  2  0  0  0  0
 20 22  1  0  0  0  0
 22  9  1  1  0  0  0
 22 21  1  0  0  0  0
 24 23  2  0  0  0  0
 25 23  1  0  0  0  0
 25 26  1  0  0  0  0
 26 27  2  0  0  0  0
 28 26  1  0  0  0  0
 29 37  1  1  0  0  0
 29 30  1  0  0  0  0
 32 37  1  0  0  0  0
 33 32  1  0  0  0  0
 33 28  1  0  0  0  0
 34 35  1  0  0  0  0
 35 38  1  0  0  0  0
 36 34  1  6  0  0  0
 36 29  1  0  0  0  0
 38 30  1  0  0  0  0
 39 31  1  1  0  0  0
 39 33  1  0  0  0  0
 39 36  1  0  0  0  0
 41 40  1  0  0  0  0
 42 41  1  6  0  0  0
 43 44  1  0  0  0  0
 44 42  1  0  0  0  0
 45 42  1  0  0  0  0
 45 46  1  0  0  0  0
 46 47  1  0  0  0  0
 48 46  1  0  0  0  0
 49 54  1  0  0  0  0
 50 49  1  0  0  0  0
 52 50  1  0  0  0  0
 53 52  1  0  0  0  0
 53 51  1  0  0  0  0
 53 57  1  0  0  0  0
 55 53  1  0  0  0  0
 56 49  2  0  0  0  0
 57 46  1  6  0  0  0
 57 56  1  0  0  0  0
M  END
>  <MODEL>
2

>  <REMARK>
 VINA RESULT:      -6.3      3.456     11.777
  Name = 
  12 active torsions:
  status: ('A' for Active; 'I' for Inactive)
    1  A    between atoms: N_1  and  C_9
    2  A    between atoms: C_2  and  C_3
    3  A    between atoms: C_2  and  C_22
    4  A    between atoms: N_18  and  C_52
    5  A    between atoms: N_20  and  N_21
    6  A    between atoms: C_22  and  C_28
    7  A    between atoms: C_23  and  N_29
    8  A    between atoms: C_23  and  C_56
    9  A    between atoms: C_26  and  C_52
   10  A    between atoms: C_27  and  C_39
   11  A    between atoms: C_28  and  N_29
   12  A    between atoms: C_28  and  C_40
                            x       y       z     vdW  Elec       q    Type
                         _______ _______ _______ _____ _____    ______ ____

>  <TORSDO>
F 12

$$$$
=
 OpenBabel10232409043D

 57 62  0  0  1  0  0  0  0  0999 V2000
  190.8660  177.5180  139.9950 C   0  0  1  0  0  3  0  0  0  0  0  0
  192.3350  177.3020  140.1950 C   0  0  0  0  0  3  0  0  0  0  0  0
  191.2560  176.4310  137.5240 C   0  0  2  0  0  3  0  0  0  0  0  0
  192.7500  176.7040  137.7370 C   0  0  1  0  0  3  0  0  0  0  0  0
  193.1570  176.9350  139.1900 C   0  0  0  0  0  3  0  0  0  0  0  0
  190.5850  175.4560  138.5060 C   0  0  0  0  0  2  0  0  0  0  0  0
  190.1050  176.2000  139.7640 C   0  0  0  0  0  2  0  0  0  0  0  0
  190.8500  176.2420  136.1310 N   0  0  0  0  0  0  0  0  0  0  0  0
  183.2110  173.7470  136.6050 C   0  0  0  0  0  1  0  0  0  0  0  0
  188.7040  177.2770  136.5810 C   0  0  0  0  0  3  0  0  0  0  0  0
  185.5510  176.0470  135.2270 N   0  0  0  0  0  0  0  0  0  0  0  0
  184.4180  177.2670  137.0290 C   0  0  0  0  0  1  0  0  0  0  0  0
  189.6810  176.6010  135.7010 C   0  0  0  0  0  0  0  0  0  0  0  0
  187.7550  175.8710  134.3700 N   0  0  0  0  0  0  0  0  0  0  0  0
  184.5650  177.0820  135.5190 C   0  0  2  0  0  3  0  0  0  0  0  0
  189.1980  176.1780  134.3470 C   0  0  0  0  0  2  0  0  0  0  0  0
  187.4360  177.2050  136.3120 N   0  0  0  0  0  0  0  0  0  0  0  0
  186.9370  176.4210  135.2200 C   0  0  0  0  0  0  0  0  0  0  0  0
  183.2450  176.7100  134.9120 C   0  0  0  0  0  3  0  0  0  0  0  0
  185.2410  174.6370  135.4740 C   0  0  0  0  0  2  0  0  0  0  0  0
  182.8900  175.4230  134.7990 C   0  0  0  0  0  3  0  0  0  0  0  0
  183.7550  174.2860  135.2870 C   0  0  2  0  0  3  0  0  0  0  0  0
  194.6700  175.9950  136.4450 N   0  0  0  0  0  0  0  0  0  0  0  0
  193.6150  175.6480  137.1170 C   0  0  0  0  0  3  0  0  0  0  0  0
  195.5680  175.0230  135.9580 N   0  0  0  0  0  2  0  0  0  0  0  0
  196.9850  175.2300  135.9170 C   0  0  0  0  0  0  0  0  0  0  0  0
  197.4940  176.3410  136.2360 O   0  0  0  0  0  0  0  0  0  0  0  0
  197.8690  174.1220  135.4140 C   0  0  0  0  0  2  0  0  0  0  0  0
  199.9260  171.1670  135.5160 C   0  0  2  0  0  3  0  0  0  0  0  0
  199.8200  169.9370  134.6170 C   0  0  0  0  0  2  0  0  0  0  0  0
  197.4100  172.7470  137.8230 O   0  0  0  0  0  1  0  0  0  0  0  0
  200.2140  173.6310  135.6110 C   0  0  0  0  0  2  0  0  0  0  0  0
  198.9530  173.8130  136.3620 N   0  0  0  0  0  0  0  0  0  0  0  0
  198.4350  170.0880  137.1890 C   0  0  0  0  0  2  0  0  0  0  0  0
  198.3690  168.8180  136.3500 C   0  0  0  0  0  2  0  0  0  0  0  0
  198.6070  171.3180  136.2850 C   0  0  1  0  0  3  0  0  0  0  0  0
  200.1880  172.4090  134.6880 C   0  0  0  0  0  2  0  0  0  0  0  0
  199.6240  168.6880  135.4810 C   0  0  0  0  0  2  0  0  0  0  0  0
  198.6280  172.5930  137.1450 C   0  0  2  0  0  3  0  0  0  0  0  0
  190.2710  178.3050  141.1320 C   0  0  0  0  0  2  0  0  0  0  0  0
  189.4880  177.3350  142.0070 C   0  0  0  0  0  2  0  0  0  0  0  0
  189.8030  177.5450  143.4800 C   0  0  2  0  0  3  0  0  0  0  0  0
  191.4520  175.6740  143.7180 C   0  0  0  0  0  1  0  0  0  0  0  0
  191.2600  177.1860  143.7240 C   0  0  0  0  0  2  0  0  0  0  0  0
  188.9190  176.7010  144.2960 N   0  0  0  0  0  2  0  0  0  0  0  0
  188.5020  177.3270  145.5640 C   0  0  0  0  0  0  0  0  0  0  0  0
  188.8300  178.7020  145.6050 O   0  0  0  0  0  1  0  0  0  0  0  0
  189.1620  176.6600  146.5960 O   0  0  0  0  0  1  0  0  0  0  0  0
  185.9870  178.0170  143.7670 C   0  0  0  0  0  0  0  0  0  0  0  0
  186.3420  179.3820  144.2780 C   0  0  0  0  0  2  0  0  0  0  0  0
  184.8570  177.6380  146.9780 C   0  0  0  0  0  1  0  0  0  0  0  0
  185.9230  179.5020  145.7580 C   0  0  0  0  0  2  0  0  0  0  0  0
  186.2140  178.2220  146.5960 C   0  0  0  0  0  0  0  0  0  0  0  0
  185.0970  177.8810  142.5780 C   0  0  0  0  0  1  0  0  0  0  0  0
  186.9410  178.5840  147.8890 C   0  0  0  0  0  1  0  0  0  0  0  0
  186.2400  176.9790  144.5000 N   0  0  0  0  0  0  0  0  0  0  0  0
  186.9610  177.1350  145.7590 C   0  0  1  0  0  3  0  0  0  0  0  0
  1  2  1  0  0  0  0
  1 40  1  1  0  0  0
  3  8  1  6  0  0  0
  3  4  1  0  0  0  0
  3  6  1  0  0  0  0
  4 24  1  1  0  0  0
  4  5  1  0  0  0  0
  5  2  2  0  0  0  0
  6  7  1  0  0  0  0
  7  1  1  0  0  0  0
 11 20  1  0  0  0  0
 11 15  1  0  0  0  0
 13  8  2  0  0  0  0
 13 10  1  0  0  0  0
 14 18  2  0  0  0  0
 15 12  1  1  0  0  0
 16 14  1  0  0  0  0
 16 13  1  0  0  0  0
 17 10  2  0  0  0  0
 18 11  1  0  0  0  0
 18 17  1  0  0  0  0
 19 15  1  0  0  0  0
 21 19  2  0  0  0  0
 21 22  1  0  0  0  0
 22 20  1  0  0  0  0
 22  9  1  1  0  0  0
 23 24  2  0  0  0  0
 25 23  1  0  0  0  0
 26 25  1  0  0  0  0
 26 27  2  0  0  0  0
 28 26  1  0  0  0  0
 28 33  1  0  0  0  0
 29 30  1  6  0  0  0
 29 36  1  0  0  0  0
 30 38  1  0  0  0  0
 32 33  1  0  0  0  0
 33 39  1  0  0  0  0
 35 34  1  0  0  0  0
 36 39  1  0  0  0  0
 36 34  1  1  0  0  0
 37 29  1  0  0  0  0
 37 32  1  0  0  0  0
 38 35  1  0  0  0  0
 39 31  1  6  0  0  0
 40 41  1  0  0  0  0
 42 41  1  6  0  0  0
 42 44  1  0  0  0  0
 42 45  1  0  0  0  0
 43 44  1  0  0  0  0
 45 46  1  0  0  0  0
 46 47  1  0  0  0  0
 46 48  1  0  0  0  0
 49 50  1  0  0  0  0
 49 56  2  0  0  0  0
 50 52  1  0  0  0  0
 52 53  1  0  0  0  0
 53 51  1  0  0  0  0
 53 55  1  0  0  0  0
 54 49  1  0  0  0  0
 56 57  1  0  0  0  0
 57 46  1  6  0  0  0
 57 53  1  0  0  0  0
M  END
>  <MODEL>
3

>  <REMARK>
 VINA RESULT:      -6.2      3.395     11.117
  Name = 
  12 active torsions:
  status: ('A' for Active; 'I' for Inactive)
    1  A    between atoms: N_1  and  C_9
    2  A    between atoms: C_2  and  C_3
    3  A    between atoms: C_2  and  C_22
    4  A    between atoms: N_18  and  C_52
    5  A    between atoms: N_20  and  N_21
    6  A    between atoms: C_22  and  C_28
    7  A    between atoms: C_23  and  N_29
    8  A    between atoms: C_23  and  C_56
    9  A    between atoms: C_26  and  C_52
   10  A    between atoms: C_27  and  C_39
   11  A    between atoms: C_28  and  N_29
   12  A    between atoms: C_28  and  C_40
                            x       y       z     vdW  Elec       q    Type
                         _______ _______ _______ _____ _____    ______ ____

>  <TORSDO>
F 12

$$$$
=
 OpenBabel10232409043D

 57 62  0  0  1  0  0  0  0  0999 V2000
  191.1460  173.5140  135.4570 C   0  0  1  0  0  3  0  0  0  0  0  0
  189.9550  173.0230  134.6930 C   0  0  0  0  0  3  0  0  0  0  0  0
  189.5800  175.6480  136.1170 C   0  0  2  0  0  3  0  0  0  0  0  0
  188.6700  175.2260  134.9570 C   0  0  1  0  0  3  0  0  0  0  0  0
  188.8620  173.7870  134.4840 C   0  0  0  0  0  3  0  0  0  0  0  0
  189.7390  174.6430  137.2710 C   0  0  0  0  0  2  0  0  0  0  0  0
  190.8650  173.6410  136.9650 C   0  0  0  0  0  2  0  0  0  0  0  0
  189.4270  177.0350  136.5550 N   0  0  0  0  0  0  0  0  0  0  0  0
  187.0250  176.4490  144.2170 C   0  0  0  0  0  1  0  0  0  0  0  0
  190.4810  176.5170  138.6770 C   0  0  0  0  0  3  0  0  0  0  0  0
  189.3230  177.8280  141.8740 N   0  0  0  0  0  0  0  0  0  0  0  0
  190.5190  175.9760  142.9520 C   0  0  0  0  0  1  0  0  0  0  0  0
  189.8110  177.4320  137.7280 C   0  0  0  0  0  0  0  0  0  0  0  0
  189.1360  178.7360  139.6920 N   0  0  0  0  0  0  0  0  0  0  0  0
  190.3640  177.4930  142.8400 C   0  0  2  0  0  3  0  0  0  0  0  0
  189.4240  178.7840  138.2460 C   0  0  0  0  0  2  0  0  0  0  0  0
  190.4310  176.7600  139.9510 N   0  0  0  0  0  0  0  0  0  0  0  0
  189.6790  177.8570  140.4840 C   0  0  0  0  0  0  0  0  0  0  0  0
  190.0230  178.0790  144.1770 C   0  0  0  0  0  3  0  0  0  0  0  0
  187.9120  177.6040  142.1990 C   0  0  0  0  0  2  0  0  0  0  0  0
  188.7440  178.2110  144.5530 C   0  0  0  0  0  3  0  0  0  0  0  0
  187.5860  177.7670  143.6940 C   0  0  2  0  0  3  0  0  0  0  0  0
  186.3620  174.5200  135.1500 N   0  0  0  0  0  0  0  0  0  0  0  0
  187.2220  175.4880  135.2470 C   0  0  0  0  0  3  0  0  0  0  0  0
  185.0190  174.7070  135.5360 N   0  0  0  0  0  2  0  0  0  0  0  0
  184.5200  174.3080  136.8190 C   0  0  0  0  0  0  0  0  0  0  0  0
  185.2480  173.6820  137.6390 O   0  0  0  0  0  0  0  0  0  0  0  0
  183.0800  174.5800  137.1560 C   0  0  0  0  0  2  0  0  0  0  0  0
  182.4000  177.6510  138.9090 C   0  0  2  0  0  3  0  0  0  0  0  0
  182.4760  177.8920  140.4150 C   0  0  0  0  0  2  0  0  0  0  0  0
  180.3510  175.2100  136.9110 O   0  0  0  0  0  1  0  0  0  0  0  0
  183.6160  176.9060  136.8780 C   0  0  0  0  0  2  0  0  0  0  0  0
  182.6160  175.8560  136.5870 N   0  0  0  0  0  0  0  0  0  0  0  0
  179.9830  177.0990  139.1060 C   0  0  0  0  0  2  0  0  0  0  0  0
  180.0080  177.4030  140.6000 C   0  0  0  0  0  2  0  0  0  0  0  0
  181.3480  176.5660  138.6450 C   0  0  1  0  0  3  0  0  0  0  0  0
  183.7470  177.2090  138.3730 C   0  0  0  0  0  2  0  0  0  0  0  0
  181.1240  178.4030  140.9200 C   0  0  0  0  0  2  0  0  0  0  0  0
  181.2910  176.2250  137.1470 C   0  0  2  0  0  3  0  0  0  0  0  0
  192.3550  172.6560  135.1920 C   0  0  0  0  0  2  0  0  0  0  0  0
  193.5300  173.5860  134.9140 C   0  0  0  0  0  2  0  0  0  0  0  0
  194.5360  173.5560  136.0550 C   0  0  2  0  0  3  0  0  0  0  0  0
  193.7250  175.9200  136.2280 C   0  0  0  0  0  1  0  0  0  0  0  0
  194.9140  174.9840  136.4100 C   0  0  0  0  0  2  0  0  0  0  0  0
  195.7230  172.7940  135.6410 N   0  0  0  0  0  2  0  0  0  0  0  0
  196.2050  171.8420  136.6580 C   0  0  0  0  0  0  0  0  0  0  0  0
  195.3560  171.8060  137.7880 O   0  0  0  0  0  1  0  0  0  0  0  0
  197.4800  172.2550  137.0470 O   0  0  0  0  0  1  0  0  0  0  0  0
  194.1300  169.4880  136.2280 C   0  0  0  0  0  0  0  0  0  0  0  0
  194.3960  169.3550  137.6990 C   0  0  0  0  0  2  0  0  0  0  0  0
  197.2630  168.1180  136.0280 C   0  0  0  0  0  1  0  0  0  0  0  0
  195.7920  168.7320  137.9130 C   0  0  0  0  0  2  0  0  0  0  0  0
  196.8770  169.2790  136.9400 C   0  0  0  0  0  0  0  0  0  0  0  0
  192.9270  168.8380  135.6320 C   0  0  0  0  0  1  0  0  0  0  0  0
  198.1270  169.6950  137.7130 C   0  0  0  0  0  1  0  0  0  0  0  0
  195.0640  169.9410  135.4530 N   0  0  0  0  0  0  0  0  0  0  0  0
  196.3190  170.4160  136.0250 C   0  0  1  0  0  3  0  0  0  0  0  0
  1 40  1  1  0  0  0
  1  7  1  0  0  0  0
  2  1  1  0  0  0  0
  3  8  1  1  0  0  0
  3  6  1  0  0  0  0
  4 24  1  1  0  0  0
  4  3  1  0  0  0  0
  5  2  2  0  0  0  0
  5  4  1  0  0  0  0
  7  6  1  0  0  0  0
  8 13  2  0  0  0  0
 10 17  2  0  0  0  0
 11 20  1  0  0  0  0
 11 15  1  0  0  0  0
 13 16  1  0  0  0  0
 13 10  1  0  0  0  0
 14 18  2  0  0  0  0
 15 12  1  1  0  0  0
 15 19  1  0  0  0  0
 16 14  1  0  0  0  0
 17 18  1  0  0  0  0
 18 11  1  0  0  0  0
 19 21  2  0  0  0  0
 20 22  1  0  0  0  0
 22  9  1  1  0  0  0
 22 21  1  0  0  0  0
 23 24  2  0  0  0  0
 23 25  1  0  0  0  0
 25 26  1  0  0  0  0
 26 28  1  0  0  0  0
 26 27  2  0  0  0  0
 29 37  1  1  0  0  0
 29 30  1  0  0  0  0
 30 38  1  0  0  0  0
 32 37  1  0  0  0  0
 33 32  1  0  0  0  0
 33 39  1  0  0  0  0
 33 28  1  0  0  0  0
 34 35  1  0  0  0  0
 35 38  1  0  0  0  0
 36 29  1  0  0  0  0
 36 34  1  6  0  0  0
 39 31  1  1  0  0  0
 39 36  1  0  0  0  0
 41 40  1  0  0  0  0
 42 41  1  6  0  0  0
 42 44  1  0  0  0  0
 43 44  1  0  0  0  0
 45 42  1  0  0  0  0
 45 46  1  0  0  0  0
 46 48  1  0  0  0  0
 46 47  1  0  0  0  0
 49 50  1  0  0  0  0
 50 52  1  0  0  0  0
 51 53  1  0  0  0  0
 53 55  1  0  0  0  0
 53 52  1  0  0  0  0
 54 49  1  0  0  0  0
 56 57  1  0  0  0  0
 56 49  2  0  0  0  0
 57 46  1  1  0  0  0
 57 53  1  0  0  0  0
M  END
>  <MODEL>
4

>  <REMARK>
 VINA RESULT:      -5.9      3.507      9.562
  Name = 
  12 active torsions:
  status: ('A' for Active; 'I' for Inactive)
    1  A    between atoms: N_1  and  C_9
    2  A    between atoms: C_2  and  C_3
    3  A    between atoms: C_2  and  C_22
    4  A    between atoms: N_18  and  C_52
    5  A    between atoms: N_20  and  N_21
    6  A    between atoms: C_22  and  C_28
    7  A    between atoms: C_23  and  N_29
    8  A    between atoms: C_23  and  C_56
    9  A    between atoms: C_26  and  C_52
   10  A    between atoms: C_27  and  C_39
   11  A    between atoms: C_28  and  N_29
   12  A    between atoms: C_28  and  C_40
                            x       y       z     vdW  Elec       q    Type
                         _______ _______ _______ _____ _____    ______ ____

>  <TORSDO>
F 12

$$$$
=
 OpenBabel10232409043D

 57 62  0  0  1  0  0  0  0  0999 V2000
  184.4540  179.1010  143.0020 C   0  0  1  0  0  3  0  0  0  0  0  0
  185.8420  178.8610  142.4930 C   0  0  0  0  0  3  0  0  0  0  0  0
  183.6940  178.9510  140.3870 C   0  0  2  0  0  3  0  0  0  0  0  0
  185.1710  179.1670  140.0370 C   0  0  1  0  0  3  0  0  0  0  0  0
  186.1460  178.8860  141.1780 C   0  0  0  0  0  3  0  0  0  0  0  0
  183.3500  177.6810  141.1820 C   0  0  0  0  0  2  0  0  0  0  0  0
  183.5050  177.9290  142.6930 C   0  0  0  0  0  2  0  0  0  0  0  0
  182.7490  179.2510  139.3100 N   0  0  0  0  0  0  0  0  0  0  0  0
  183.1810  172.8490  134.4490 C   0  0  0  0  0  1  0  0  0  0  0  0
  181.9240  176.9710  139.3550 C   0  0  0  0  0  3  0  0  0  0  0  0
  181.1400  175.0550  136.3550 N   0  0  0  0  0  0  0  0  0  0  0  0
  181.3590  173.0250  137.7160 C   0  0  0  0  0  1  0  0  0  0  0  0
  181.9590  178.3480  138.8180 C   0  0  0  0  0  0  0  0  0  0  0  0
  181.1080  177.3970  136.7240 N   0  0  0  0  0  0  0  0  0  0  0  0
  180.4440  173.8590  136.8200 C   0  0  2  0  0  3  0  0  0  0  0  0
  181.1850  178.6080  137.5610 C   0  0  0  0  0  2  0  0  0  0  0  0
  181.5190  175.9950  138.6000 N   0  0  0  0  0  0  0  0  0  0  0  0
  181.1700  176.1970  137.2240 C   0  0  0  0  0  0  0  0  0  0  0  0
  179.9900  173.0470  135.6440 C   0  0  0  0  0  3  0  0  0  0  0  0
  182.2010  174.9500  135.3510 C   0  0  0  0  0  2  0  0  0  0  0  0
  180.7050  173.0390  134.5100 C   0  0  0  0  0  3  0  0  0  0  0  0
  181.9960  173.8020  134.3470 C   0  0  2  0  0  3  0  0  0  0  0  0
  186.8400  178.2230  138.5580 N   0  0  0  0  0  0  0  0  0  0  0  0
  185.5800  178.4120  138.8070 C   0  0  0  0  0  3  0  0  0  0  0  0
  187.2490  177.4130  137.4800 N   0  0  0  0  0  2  0  0  0  0  0  0
  188.5120  177.5790  136.8230 C   0  0  0  0  0  0  0  0  0  0  0  0
  189.2880  178.5280  137.1270 O   0  0  0  0  0  0  0  0  0  0  0  0
  188.8790  176.6440  135.7030 C   0  0  0  0  0  2  0  0  0  0  0  0
  191.4810  175.6020  137.9630 C   0  0  2  0  0  3  0  0  0  0  0  0
  192.5790  176.4720  138.5730 C   0  0  0  0  0  2  0  0  0  0  0  0
  190.6250  174.8900  134.3710 O   0  0  0  0  0  1  0  0  0  0  0  0
  189.0390  175.2700  137.6690 C   0  0  0  0  0  2  0  0  0  0  0  0
  189.1510  175.2830  136.1940 N   0  0  0  0  0  0  0  0  0  0  0  0
  192.9890  175.0010  136.0790 C   0  0  0  0  0  2  0  0  0  0  0  0
  194.1280  175.8010  136.7000 C   0  0  0  0  0  2  0  0  0  0  0  0
  191.6350  175.6310  136.4370 C   0  0  1  0  0  3  0  0  0  0  0  0
  190.1120  176.1190  138.3560 C   0  0  0  0  0  2  0  0  0  0  0  0
  193.9490  175.8900  138.2190 C   0  0  0  0  0  2  0  0  0  0  0  0
  190.5010  174.8360  135.7670 C   0  0  2  0  0  3  0  0  0  0  0  0
  184.4620  179.4290  144.4710 C   0  0  0  0  0  2  0  0  0  0  0  0
  185.9150  179.4520  144.9330 C   0  0  0  0  0  2  0  0  0  0  0  0
  186.1760  178.3810  145.9810 C   0  0  2  0  0  3  0  0  0  0  0  0
  185.9820  179.8010  148.0360 C   0  0  0  0  0  1  0  0  0  0  0  0
  185.3410  178.6900  147.2130 C   0  0  0  0  0  2  0  0  0  0  0  0
  187.6060  178.3630  146.3170 N   0  0  0  0  0  2  0  0  0  0  0  0
  188.3850  177.3750  145.5490 C   0  0  0  0  0  0  0  0  0  0  0  0
  187.5710  176.6430  144.6540 O   0  0  0  0  0  1  0  0  0  0  0  0
  188.9710  176.5010  146.4660 O   0  0  0  0  0  1  0  0  0  0  0  0
  189.3650  177.2580  142.5400 C   0  0  0  0  0  0  0  0  0  0  0  0
  189.9270  175.9680  143.0620 C   0  0  0  0  0  2  0  0  0  0  0  0
  191.9370  178.5650  144.3860 C   0  0  0  0  0  1  0  0  0  0  0  0
  191.1500  176.2650  143.9540 C   0  0  0  0  0  2  0  0  0  0  0  0
  190.9620  177.5010  144.8820 C   0  0  0  0  0  0  0  0  0  0  0  0
  189.2410  177.4680  141.0680 C   0  0  0  0  0  1  0  0  0  0  0  0
  191.3480  177.1540  146.3180 C   0  0  0  0  0  1  0  0  0  0  0  0
  189.2320  178.2640  143.3450 N   0  0  0  0  0  0  0  0  0  0  0  0
  189.5260  178.1040  144.7650 C   0  0  1  0  0  3  0  0  0  0  0  0
  1 40  1  1  0  0  0
  2  1  1  0  0  0  0
  3  8  1  6  0  0  0
  3  6  1  0  0  0  0
  4 24  1  6  0  0  0
  4  3  1  0  0  0  0
  4  5  1  0  0  0  0
  5  2  2  0  0  0  0
  6  7  1  0  0  0  0
  7  1  1  0  0  0  0
 11 15  1  0  0  0  0
 11 18  1  0  0  0  0
 13  8  2  0  0  0  0
 13 10  1  0  0  0  0
 14 18  2  0  0  0  0
 14 16  1  0  0  0  0
 15 12  1  1  0  0  0
 16 13  1  0  0  0  0
 17 10  2  0  0  0  0
 18 17  1  0  0  0  0
 19 15  1  0  0  0  0
 20 11  1  0  0  0  0
 21 19  2  0  0  0  0
 22  9  1  1  0  0  0
 22 21  1  0  0  0  0
 22 20  1  0  0  0  0
 23 24  2  0  0  0  0
 25 23  1  0  0  0  0
 26 27  2  0  0  0  0
 26 25  1  0  0  0  0
 28 33  1  0  0  0  0
 28 26  1  0  0  0  0
 29 37  1  6  0  0  0
 29 30  1  0  0  0  0
 32 37  1  0  0  0  0
 33 32  1  0  0  0  0
 34 35  1  0  0  0  0
 35 38  1  0  0  0  0
 36 34  1  1  0  0  0
 36 29  1  0  0  0  0
 38 30  1  0  0  0  0
 39 31  1  6  0  0  0
 39 33  1  0  0  0  0
 39 36  1  0  0  0  0
 40 41  1  0  0  0  0
 42 41  1  6  0  0  0
 42 45  1  0  0  0  0
 42 44  1  0  0  0  0
 44 43  1  0  0  0  0
 46 45  1  0  0  0  0
 46 48  1  0  0  0  0
 47 46  1  0  0  0  0
 49 50  1  0  0  0  0
 49 56  2  0  0  0  0
 50 52  1  0  0  0  0
 51 53  1  0  0  0  0
 52 53  1  0  0  0  0
 53 55  1  0  0  0  0
 54 49  1  0  0  0  0
 56 57  1  0  0  0  0
 57 53  1  0  0  0  0
 57 46  1  6  0  0  0
M  END
>  <MODEL>
5

>  <REMARK>
 VINA RESULT:      -5.8      2.861      9.360
  Name = 
  12 active torsions:
  status: ('A' for Active; 'I' for Inactive)
    1  A    between atoms: N_1  and  C_9
    2  A    between atoms: C_2  and  C_3
    3  A    between atoms: C_2  and  C_22
    4  A    between atoms: N_18  and  C_52
    5  A    between atoms: N_20  and  N_21
    6  A    between atoms: C_22  and  C_28
    7  A    between atoms: C_23  and  N_29
    8  A    between atoms: C_23  and  C_56
    9  A    between atoms: C_26  and  C_52
   10  A    between atoms: C_27  and  C_39
   11  A    between atoms: C_28  and  N_29
   12  A    between atoms: C_28  and  C_40
                            x       y       z     vdW  Elec       q    Type
                         _______ _______ _______ _____ _____    ______ ____

>  <TORSDO>
F 12

$$$$
=
 OpenBabel10232409043D

 57 62  0  0  1  0  0  0  0  0999 V2000
  188.4890  178.2250  140.1380 C   0  0  1  0  0  3  0  0  0  0  0  0
  189.9370  177.9410  140.3910 C   0  0  0  0  0  3  0  0  0  0  0  0
  188.9430  177.2160  137.6440 C   0  0  2  0  0  3  0  0  0  0  0  0
  190.4360  177.4200  137.9310 C   0  0  1  0  0  3  0  0  0  0  0  0
  190.7880  177.5790  139.4080 C   0  0  0  0  0  3  0  0  0  0  0  0
  188.1930  176.2330  138.5590 C   0  0  0  0  0  2  0  0  0  0  0  0
  187.6870  176.9490  139.8240 C   0  0  0  0  0  2  0  0  0  0  0  0
  188.5920  177.0970  136.2290 N   0  0  0  0  0  0  0  0  0  0  0  0
  182.9850  171.3220  136.0520 C   0  0  0  0  0  1  0  0  0  0  0  0
  186.2390  176.9350  136.7930 C   0  0  0  0  0  3  0  0  0  0  0  0
  183.9310  174.6350  135.1600 N   0  0  0  0  0  0  0  0  0  0  0  0
  182.4660  174.8760  137.1140 C   0  0  0  0  0  1  0  0  0  0  0  0
  187.3660  176.9430  135.8360 C   0  0  0  0  0  0  0  0  0  0  0  0
  185.9180  175.6400  134.3460 N   0  0  0  0  0  0  0  0  0  0  0  0
  182.5980  175.0340  135.6000 C   0  0  2  0  0  3  0  0  0  0  0  0
  187.0560  176.5760  134.4160 C   0  0  0  0  0  2  0  0  0  0  0  0
  185.1320  176.3320  136.4810 N   0  0  0  0  0  0  0  0  0  0  0  0
  184.9880  175.6010  135.2560 C   0  0  0  0  0  0  0  0  0  0  0  0
  181.5630  174.2030  134.9010 C   0  0  0  0  0  3  0  0  0  0  0  0
  184.3150  173.2220  135.1500 C   0  0  0  0  0  2  0  0  0  0  0  0
  181.8320  172.9360  134.5570 C   0  0  0  0  0  3  0  0  0  0  0  0
  183.1470  172.2630  134.8630 C   0  0  2  0  0  3  0  0  0  0  0  0
  192.3740  175.9700  137.9010 N   0  0  0  0  0  0  0  0  0  0  0  0
  191.2860  176.3540  137.3070 C   0  0  0  0  0  3  0  0  0  0  0  0
  193.1250  174.8860  137.4030 N   0  0  0  0  0  2  0  0  0  0  0  0
  194.4110  175.0510  136.7920 C   0  0  0  0  0  0  0  0  0  0  0  0
  194.8970  176.1980  136.5900 O   0  0  0  0  0  0  0  0  0  0  0  0
  195.1550  173.8310  136.3210 C   0  0  0  0  0  2  0  0  0  0  0  0
  197.6740  171.3220  135.7510 C   0  0  2  0  0  3  0  0  0  0  0  0
  197.6270  170.1790  134.7390 C   0  0  0  0  0  2  0  0  0  0  0  0
  195.3620  172.1850  138.5890 O   0  0  0  0  0  1  0  0  0  0  0  0
  197.5480  173.7770  136.0940 C   0  0  0  0  0  2  0  0  0  0  0  0
  196.4230  173.6500  137.0470 N   0  0  0  0  0  0  0  0  0  0  0  0
  196.7020  169.8350  137.4920 C   0  0  0  0  0  2  0  0  0  0  0  0
  196.7110  168.6550  136.5280 C   0  0  0  0  0  2  0  0  0  0  0  0
  196.5020  171.1510  136.7260 C   0  0  1  0  0  3  0  0  0  0  0  0
  197.5720  172.6600  135.0470 C   0  0  0  0  0  2  0  0  0  0  0  0
  197.8000  168.8430  135.4670 C   0  0  0  0  0  2  0  0  0  0  0  0
  196.4520  172.3250  137.7190 C   0  0  2  0  0  3  0  0  0  0  0  0
  187.8760  178.9920  141.2790 C   0  0  0  0  0  2  0  0  0  0  0  0
  186.6630  178.2080  141.7650 C   0  0  0  0  0  2  0  0  0  0  0  0
  185.4150  179.0780  141.7760 C   0  0  2  0  0  3  0  0  0  0  0  0
  184.2830  178.5330  143.9440 C   0  0  0  0  0  1  0  0  0  0  0  0
  185.1530  179.5390  143.2000 C   0  0  0  0  0  2  0  0  0  0  0  0
  184.2740  178.3040  141.2650 N   0  0  0  0  0  2  0  0  0  0  0  0
  183.8850  178.6550  139.8880 C   0  0  0  0  0  0  0  0  0  0  0  0
  183.7240  177.5070  139.0780 O   0  0  0  0  0  1  0  0  0  0  0  0
  184.8960  179.4580  139.3600 O   0  0  0  0  0  1  0  0  0  0  0  0
  181.1950  178.3880  141.5380 C   0  0  0  0  0  0  0  0  0  0  0  0
  181.0170  177.2810  140.5410 C   0  0  0  0  0  2  0  0  0  0  0  0
  180.5060  180.3180  138.7930 C   0  0  0  0  0  1  0  0  0  0  0  0
  180.6770  177.8830  139.1610 C   0  0  0  0  0  2  0  0  0  0  0  0
  181.4990  179.1590  138.8150 C   0  0  0  0  0  0  0  0  0  0  0  0
  180.3580  178.4140  142.7720 C   0  0  0  0  0  1  0  0  0  0  0  0
  182.1040  179.0420  137.4190 C   0  0  0  0  0  1  0  0  0  0  0  0
  181.8810  179.4360  141.2060 N   0  0  0  0  0  0  0  0  0  0  0  0
  182.5590  179.4850  139.9150 C   0  0  1  0  0  3  0  0  0  0  0  0
  1  2  1  0  0  0  0
  1 40  1  1  0  0  0
  3  8  1  6  0  0  0
  3  4  1  0  0  0  0
  3  6  1  0  0  0  0
  4 24  1  1  0  0  0
  4  5  1  0  0  0  0
  5  2  2  0  0  0  0
  6  7  1  0  0  0  0
  7  1  1  0  0  0  0
 11 18  1  0  0  0  0
 11 15  1  0  0  0  0
 13  8  2  0  0  0  0
 13 10  1  0  0  0  0
 14 16  1  0  0  0  0
 14 18  2  0  0  0  0
 15 12  1  1  0  0  0
 16 13  1  0  0  0  0
 17 10  2  0  0  0  0
 18 17  1  0  0  0  0
 19 15  1  0  0  0  0
 20 11  1  0  0  0  0
 21 22  1  0  0  0  0
 21 19  2  0  0  0  0
 22 20  1  0  0  0  0
 22  9  1  1  0  0  0
 24 23  2  0  0  0  0
 25 23  1  0  0  0  0
 26 25  1  0  0  0  0
 27 26  2  0  0  0  0
 28 26  1  0  0  0  0
 28 33  1  0  0  0  0
 29 30  1  6  0  0  0
 29 36  1  0  0  0  0
 30 38  1  0  0  0  0
 32 33  1  0  0  0  0
 33 39  1  0  0  0  0
 35 34  1  0  0  0  0
 36 34  1  1  0  0  0
 36 39  1  0  0  0  0
 37 29  1  0  0  0  0
 37 32  1  0  0  0  0
 38 35  1  0  0  0  0
 39 31  1  6  0  0  0
 40 41  1  0  0  0  0
 42 41  1  1  0  0  0
 42 44  1  0  0  0  0
 44 43  1  0  0  0  0
 45 42  1  0  0  0  0
 46 45  1  0  0  0  0
 47 46  1  0  0  0  0
 48 46  1  0  0  0  0
 49 54  1  0  0  0  0
 50 49  1  0  0  0  0
 51 53  1  0  0  0  0
 52 50  1  0  0  0  0
 53 52  1  0  0  0  0
 53 57  1  0  0  0  0
 55 53  1  0  0  0  0
 56 49  2  0  0  0  0
 57 46  1  1  0  0  0
 57 56  1  0  0  0  0
M  END
>  <MODEL>
6

>  <REMARK>
 VINA RESULT:      -5.6      3.523     11.392
  Name = 
  12 active torsions:
  status: ('A' for Active; 'I' for Inactive)
    1  A    between atoms: N_1  and  C_9
    2  A    between atoms: C_2  and  C_3
    3  A    between atoms: C_2  and  C_22
    4  A    between atoms: N_18  and  C_52
    5  A    between atoms: N_20  and  N_21
    6  A    between atoms: C_22  and  C_28
    7  A    between atoms: C_23  and  N_29
    8  A    between atoms: C_23  and  C_56
    9  A    between atoms: C_26  and  C_52
   10  A    between atoms: C_27  and  C_39
   11  A    between atoms: C_28  and  N_29
   12  A    between atoms: C_28  and  C_40
                            x       y       z     vdW  Elec       q    Type
                         _______ _______ _______ _____ _____    ______ ____

>  <TORSDO>
F 12

$$$$
=
 OpenBabel10232409043D

 57 62  0  0  1  0  0  0  0  0999 V2000
  187.3070  177.9540  138.1470 C   0  0  1  0  0  3  0  0  0  0  0  0
  188.3980  178.7890  137.5520 C   0  0  0  0  0  3  0  0  0  0  0  0
  188.3110  175.9300  136.6190 C   0  0  2  0  0  3  0  0  0  0  0  0
  189.0360  177.0160  135.8140 C   0  0  1  0  0  3  0  0  0  0  0  0
  189.1610  178.3610  136.5240 C   0  0  0  0  0  3  0  0  0  0  0  0
  188.6890  175.8010  138.1040 C   0  0  0  0  0  2  0  0  0  0  0  0
  187.8530  176.7670  138.9610 C   0  0  0  0  0  2  0  0  0  0  0  0
  188.1560  174.6470  135.9330 N   0  0  0  0  0  0  0  0  0  0  0  0
  180.6600  172.3230  137.7300 C   0  0  0  0  0  1  0  0  0  0  0  0
  185.9220  175.2620  135.2160 C   0  0  0  0  0  3  0  0  0  0  0  0
  183.1000  172.9550  135.2170 N   0  0  0  0  0  0  0  0  0  0  0  0
  181.6260  174.9170  135.2060 C   0  0  0  0  0  1  0  0  0  0  0  0
  187.0620  174.3260  135.3140 C   0  0  0  0  0  0  0  0  0  0  0  0
  185.4230  172.5290  135.0030 N   0  0  0  0  0  0  0  0  0  0  0  0
  182.0350  173.6330  134.4850 C   0  0  2  0  0  3  0  0  0  0  0  0
  186.8340  172.9240  134.8360 C   0  0  0  0  0  2  0  0  0  0  0  0
  184.7220  174.8000  135.0360 N   0  0  0  0  0  0  0  0  0  0  0  0
  184.4500  173.3930  135.0000 C   0  0  0  0  0  0  0  0  0  0  0  0
  180.8550  172.7190  134.3460 C   0  0  0  0  0  3  0  0  0  0  0  0
  182.8130  172.2760  136.4820 C   0  0  0  0  0  2  0  0  0  0  0  0
  180.5790  171.8180  135.2990 C   0  0  0  0  0  3  0  0  0  0  0  0
  181.3960  171.6800  136.5600 C   0  0  2  0  0  3  0  0  0  0  0  0
  191.4090  176.6390  136.1100 N   0  0  0  0  0  0  0  0  0  0  0  0
  190.3780  176.5600  135.3250 C   0  0  0  0  0  3  0  0  0  0  0  0
  192.6540  176.1040  135.7230 N   0  0  0  0  0  2  0  0  0  0  0  0
  193.5670  175.5140  136.6570 C   0  0  0  0  0  0  0  0  0  0  0  0
  193.3340  175.5260  137.8970 O   0  0  0  0  0  0  0  0  0  0  0  0
  194.8590  174.9360  136.1460 C   0  0  0  0  0  2  0  0  0  0  0  0
  198.3210  174.4190  135.3030 C   0  0  2  0  0  3  0  0  0  0  0  0
  198.8990  173.3380  134.3930 C   0  0  0  0  0  2  0  0  0  0  0  0
  196.2710  174.1480  138.4450 O   0  0  0  0  0  1  0  0  0  0  0  0
  196.7240  176.3090  135.5020 C   0  0  0  0  0  2  0  0  0  0  0  0
  196.0260  175.6820  136.6450 N   0  0  0  0  0  0  0  0  0  0  0  0
  198.6690  172.9550  137.2830 C   0  0  0  0  0  2  0  0  0  0  0  0
  199.3180  171.8860  136.4120 C   0  0  0  0  0  2  0  0  0  0  0  0
  197.6160  173.7330  136.4810 C   0  0  1  0  0  3  0  0  0  0  0  0
  197.3370  175.2850  134.5430 C   0  0  0  0  0  2  0  0  0  0  0  0
  199.9390  172.5210  135.1640 C   0  0  0  0  0  2  0  0  0  0  0  0
  196.9430  174.7780  137.3870 C   0  0  2  0  0  3  0  0  0  0  0  0
  186.3610  178.7930  138.9650 C   0  0  0  0  0  2  0  0  0  0  0  0
  186.9950  179.0020  140.3350 C   0  0  0  0  0  2  0  0  0  0  0  0
  185.9540  178.9160  141.4410 C   0  0  2  0  0  3  0  0  0  0  0  0
  187.8330  177.4880  142.2820 C   0  0  0  0  0  1  0  0  0  0  0  0
  186.5960  178.2910  142.6680 C   0  0  0  0  0  2  0  0  0  0  0  0
  184.8170  178.1050  140.9820 N   0  0  0  0  0  2  0  0  0  0  0  0
  183.5510  178.8540  140.8870 C   0  0  0  0  0  0  0  0  0  0  0  0
  183.6510  179.9450  139.9920 O   0  0  0  0  0  1  0  0  0  0  0  0
  183.2490  179.3270  142.1640 O   0  0  0  0  0  1  0  0  0  0  0  0
  183.3940  176.5370  138.7340 C   0  0  0  0  0  0  0  0  0  0  0  0
  183.3490  177.7440  137.8430 C   0  0  0  0  0  2  0  0  0  0  0  0
  180.1790  177.5110  139.4020 C   0  0  0  0  0  1  0  0  0  0  0  0
  181.9580  178.4040  137.9410 C   0  0  0  0  0  2  0  0  0  0  0  0
  181.3860  178.4440  139.3890 C   0  0  0  0  0  0  0  0  0  0  0  0
  183.7290  175.2030  138.1560 C   0  0  0  0  0  1  0  0  0  0  0  0
  180.8890  179.8470  139.7270 C   0  0  0  0  0  1  0  0  0  0  0  0
  182.9000  176.6120  139.9290 N   0  0  0  0  0  0  0  0  0  0  0  0
  182.4060  177.8890  140.4340 C   0  0  1  0  0  3  0  0  0  0  0  0
  1  7  1  0  0  0  0
  1 40  1  1  0  0  0
  2  1  1  0  0  0  0
  3  8  1  6  0  0  0
  3  6  1  0  0  0  0
  4 24  1  1  0  0  0
  4  5  1  0  0  0  0
  4  3  1  0  0  0  0
  5  2  2  0  0  0  0
  6  7  1  0  0  0  0
 10 13  1  0  0  0  0
 11 20  1  0  0  0  0
 13  8  2  0  0  0  0
 15 12  1  1  0  0  0
 15 11  1  0  0  0  0
 16 14  1  0  0  0  0
 16 13  1  0  0  0  0
 17 10  2  0  0  0  0
 18 14  2  0  0  0  0
 18 17  1  0  0  0  0
 18 11  1  0  0  0  0
 19 15  1  0  0  0  0
 19 21  2  0  0  0  0
 20 22  1  0  0  0  0
 21 22  1  0  0  0  0
 22  9  1  1  0  0  0
 24 23  2  0  0  0  0
 25 23  1  0  0  0  0
 25 26  1  0  0  0  0
 26 27  2  0  0  0  0
 28 33  1  0  0  0  0
 28 26  1  0  0  0  0
 29 30  1  6  0  0  0
 29 36  1  0  0  0  0
 30 38  1  0  0  0  0
 32 33  1  0  0  0  0
 33 39  1  0  0  0  0
 35 34  1  0  0  0  0
 36 34  1  1  0  0  0
 36 39  1  0  0  0  0
 37 29  1  0  0  0  0
 37 32  1  0  0  0  0
 38 35  1  0  0  0  0
 39 31  1  1  0  0  0
 40 41  1  0  0  0  0
 42 41  1  6  0  0  0
 42 44  1  0  0  0  0
 43 44  1  0  0  0  0
 45 42  1  0  0  0  0
 46 45  1  0  0  0  0
 46 48  1  0  0  0  0
 47 46  1  0  0  0  0
 49 56  2  0  0  0  0
 50 52  1  0  0  0  0
 50 49  1  0  0  0  0
 52 53  1  0  0  0  0
 53 51  1  0  0  0  0
 53 55  1  0  0  0  0
 53 57  1  0  0  0  0
 54 49  1  0  0  0  0
 56 57  1  0  0  0  0
 57 46  1  6  0  0  0
M  END
>  <MODEL>
7

>  <REMARK>
 VINA RESULT:      -5.3      3.645     11.470
  Name = 
  12 active torsions:
  status: ('A' for Active; 'I' for Inactive)
    1  A    between atoms: N_1  and  C_9
    2  A    between atoms: C_2  and  C_3
    3  A    between atoms: C_2  and  C_22
    4  A    between atoms: N_18  and  C_52
    5  A    between atoms: N_20  and  N_21
    6  A    between atoms: C_22  and  C_28
    7  A    between atoms: C_23  and  N_29
    8  A    between atoms: C_23  and  C_56
    9  A    between atoms: C_26  and  C_52
   10  A    between atoms: C_27  and  C_39
   11  A    between atoms: C_28  and  N_29
   12  A    between atoms: C_28  and  C_40
                            x       y       z     vdW  Elec       q    Type
                         _______ _______ _______ _____ _____    ______ ____

>  <TORSDO>
F 12

$$$$
=
 OpenBabel10232409043D

 57 62  0  0  1  0  0  0  0  0999 V2000
  191.8980  174.4730  136.0140 C   0  0  1  0  0  3  0  0  0  0  0  0
  191.3150  173.8560  134.7800 C   0  0  0  0  0  3  0  0  0  0  0  0
  189.3800  175.4150  136.4780 C   0  0  2  0  0  3  0  0  0  0  0  0
  189.0900  175.1100  135.0040 C   0  0  1  0  0  3  0  0  0  0  0  0
  190.0680  174.1410  134.3460 C   0  0  0  0  0  3  0  0  0  0  0  0
  189.7440  174.2180  137.3730 C   0  0  0  0  0  2  0  0  0  0  0  0
  191.2540  173.9290  137.3020 C   0  0  0  0  0  2  0  0  0  0  0  0
  188.4680  176.3700  137.1080 N   0  0  0  0  0  0  0  0  0  0  0  0
  190.1840  175.8830  144.9580 C   0  0  0  0  0  1  0  0  0  0  0  0
  190.2440  177.1640  138.5550 C   0  0  0  0  0  3  0  0  0  0  0  0
  189.7690  177.9410  142.0850 N   0  0  0  0  0  0  0  0  0  0  0  0
  192.1940  177.6870  142.3630 C   0  0  0  0  0  1  0  0  0  0  0  0
  188.8470  177.1510  138.0710 C   0  0  0  0  0  0  0  0  0  0  0  0
  188.2260  178.0020  140.2850 N   0  0  0  0  0  0  0  0  0  0  0  0
  190.9900  178.6180  142.5080 C   0  0  2  0  0  3  0  0  0  0  0  0
  187.8450  177.9360  138.8620 C   0  0  0  0  0  2  0  0  0  0  0  0
  190.5030  177.5610  139.7640 N   0  0  0  0  0  0  0  0  0  0  0  0
  189.4630  177.9210  140.6820 C   0  0  0  0  0  0  0  0  0  0  0  0
  190.8530  179.0680  143.9320 C   0  0  0  0  0  3  0  0  0  0  0  0
  189.1830  176.8850  142.9130 C   0  0  0  0  0  2  0  0  0  0  0  0
  190.1140  178.3610  144.7970 C   0  0  0  0  0  3  0  0  0  0  0  0
  189.4090  177.0810  144.4220 C   0  0  2  0  0  3  0  0  0  0  0  0
  187.1530  173.7850  135.5960 N   0  0  0  0  0  0  0  0  0  0  0  0
  187.6790  174.6520  134.7850 C   0  0  0  0  0  3  0  0  0  0  0  0
  185.7930  173.4300  135.4890 N   0  0  0  0  0  2  0  0  0  0  0  0
  184.9390  173.2850  136.6320 C   0  0  0  0  0  0  0  0  0  0  0  0
  185.3940  173.3820  137.8050 O   0  0  0  0  0  0  0  0  0  0  0  0
  183.4910  172.9390  136.4190 C   0  0  0  0  0  2  0  0  0  0  0  0
  182.2230  175.8570  138.1060 C   0  0  2  0  0  3  0  0  0  0  0  0
  182.2990  176.1670  139.5990 C   0  0  0  0  0  2  0  0  0  0  0  0
  180.6840  172.9540  136.2750 O   0  0  0  0  0  1  0  0  0  0  0  0
  183.4980  175.3130  136.0470 C   0  0  0  0  0  2  0  0  0  0  0  0
  182.7410  174.0610  135.8320 N   0  0  0  0  0  0  0  0  0  0  0  0
  179.9930  174.8030  138.4250 C   0  0  0  0  0  2  0  0  0  0  0  0
  180.0050  175.1630  139.9060 C   0  0  0  0  0  2  0  0  0  0  0  0
  181.4230  174.5610  137.9220 C   0  0  1  0  0  3  0  0  0  0  0  0
  183.6130  175.6950  137.5250 C   0  0  0  0  0  2  0  0  0  0  0  0
  180.8870  176.3930  140.1470 C   0  0  0  0  0  2  0  0  0  0  0  0
  181.3880  174.1570  136.4380 C   0  0  2  0  0  3  0  0  0  0  0  0
  193.3960  174.3250  136.0420 C   0  0  0  0  0  2  0  0  0  0  0  0
  193.7220  173.0780  136.8550 C   0  0  0  0  0  2  0  0  0  0  0  0
  194.3640  172.0070  135.9860 C   0  0  2  0  0  3  0  0  0  0  0  0
  194.1390  169.5120  135.9440 C   0  0  0  0  0  1  0  0  0  0  0  0
  193.3980  170.8410  135.8540 C   0  0  0  0  0  2  0  0  0  0  0  0
  195.6250  171.5680  136.6000 N   0  0  0  0  0  2  0  0  0  0  0  0
  196.8220  171.9060  135.8090 C   0  0  0  0  0  0  0  0  0  0  0  0
  196.5530  172.9090  134.8500 O   0  0  0  0  0  1  0  0  0  0  0  0
  197.2370  170.7420  135.1610 O   0  0  0  0  0  1  0  0  0  0  0  0
  196.9510  174.0180  138.1650 C   0  0  0  0  0  0  0  0  0  0  0  0
  196.9560  174.9330  136.9760 C   0  0  0  0  0  2  0  0  0  0  0  0
  200.1710  173.4560  137.1390 C   0  0  0  0  0  1  0  0  0  0  0  0
  198.3410  174.8850  136.2970 C   0  0  0  0  0  2  0  0  0  0  0  0
  198.9510  173.4540  136.2210 C   0  0  0  0  0  0  0  0  0  0  0  0
  196.6190  174.5610  139.5140 C   0  0  0  0  0  1  0  0  0  0  0  0
  199.4390  173.1560  134.8050 C   0  0  0  0  0  1  0  0  0  0  0  0
  197.4760  172.8390  138.0610 N   0  0  0  0  0  0  0  0  0  0  0  0
  197.9670  172.3720  136.7680 C   0  0  1  0  0  3  0  0  0  0  0  0
  1 40  1  1  0  0  0
  1  7  1  0  0  0  0
  2  1  1  0  0  0  0
  3  8  1  1  0  0  0
  3  6  1  0  0  0  0
  4 24  1  1  0  0  0
  4  3  1  0  0  0  0
  5  2  2  0  0  0  0
  5  4  1  0  0  0  0
  7  6  1  0  0  0  0
  8 13  2  0  0  0  0
 10 17  2  0  0  0  0
 11 15  1  0  0  0  0
 11 20  1  0  0  0  0
 13 10  1  0  0  0  0
 13 16  1  0  0  0  0
 14 18  2  0  0  0  0
 15 12  1  1  0  0  0
 15 19  1  0  0  0  0
 16 14  1  0  0  0  0
 17 18  1  0  0  0  0
 18 11  1  0  0  0  0
 19 21  2  0  0  0  0
 20 22  1  0  0  0  0
 22 21  1  0  0  0  0
 22  9  1  6  0  0  0
 24 23  2  0  0  0  0
 25 23  1  0  0  0  0
 25 26  1  0  0  0  0
 26 27  2  0  0  0  0
 28 26  1  0  0  0  0
 29 37  1  1  0  0  0
 29 30  1  0  0  0  0
 30 38  1  0  0  0  0
 32 37  1  0  0  0  0
 33 32  1  0  0  0  0
 33 28  1  0  0  0  0
 33 39  1  0  0  0  0
 34 35  1  0  0  0  0
 35 38  1  0  0  0  0
 36 29  1  0  0  0  0
 36 34  1  6  0  0  0
 39 31  1  1  0  0  0
 39 36  1  0  0  0  0
 40 41  1  0  0  0  0
 42 44  1  1  0  0  0
 42 45  1  0  0  0  0
 42 41  1  0  0  0  0
 44 43  1  0  0  0  0
 46 45  1  0  0  0  0
 47 46  1  0  0  0  0
 48 46  1  0  0  0  0
 49 54  1  0  0  0  0
 50 49  1  0  0  0  0
 52 50  1  0  0  0  0
 53 52  1  0  0  0  0
 53 57  1  0  0  0  0
 53 51  1  0  0  0  0
 55 53  1  0  0  0  0
 56 49  2  0  0  0  0
 57 46  1  6  0  0  0
 57 56  1  0  0  0  0
M  END
>  <MODEL>
8

>  <REMARK>
 VINA RESULT:      -5.3      3.864      9.695
  Name = 
  12 active torsions:
  status: ('A' for Active; 'I' for Inactive)
    1  A    between atoms: N_1  and  C_9
    2  A    between atoms: C_2  and  C_3
    3  A    between atoms: C_2  and  C_22
    4  A    between atoms: N_18  and  C_52
    5  A    between atoms: N_20  and  N_21
    6  A    between atoms: C_22  and  C_28
    7  A    between atoms: C_23  and  N_29
    8  A    between atoms: C_23  and  C_56
    9  A    between atoms: C_26  and  C_52
   10  A    between atoms: C_27  and  C_39
   11  A    between atoms: C_28  and  N_29
   12  A    between atoms: C_28  and  C_40
                            x       y       z     vdW  Elec       q    Type
                         _______ _______ _______ _____ _____    ______ ____

>  <TORSDO>
F 12

$$$$
=
 OpenBabel10232409043D

 57 62  0  0  1  0  0  0  0  0999 V2000
  191.7780  175.9880  136.3300 C   0  0  1  0  0  3  0  0  0  0  0  0
  191.2150  175.2930  135.1290 C   0  0  0  0  0  3  0  0  0  0  0  0
  189.1900  176.1840  137.1690 C   0  0  2  0  0  3  0  0  0  0  0  0
  188.7900  175.8800  135.7200 C   0  0  1  0  0  3  0  0  0  0  0  0
  189.8900  175.2460  134.8730 C   0  0  0  0  0  3  0  0  0  0  0  0
  189.9780  175.0920  137.9120 C   0  0  0  0  0  2  0  0  0  0  0  0
  191.4860  175.2310  137.6370 C   0  0  0  0  0  2  0  0  0  0  0  0
  188.1530  176.8230  137.9800 N   0  0  0  0  0  0  0  0  0  0  0  0
  190.6530  175.8130  145.5650 C   0  0  0  0  0  1  0  0  0  0  0  0
  189.8390  177.8250  139.4060 C   0  0  0  0  0  3  0  0  0  0  0  0
  189.5340  178.0480  143.0320 N   0  0  0  0  0  0  0  0  0  0  0  0
  191.9710  178.3240  143.1190 C   0  0  0  0  0  1  0  0  0  0  0  0
  188.4400  177.5500  139.0140 C   0  0  0  0  0  0  0  0  0  0  0  0
  187.8560  177.9680  141.3590 N   0  0  0  0  0  0  0  0  0  0  0  0
  190.6120  178.9320  143.4650 C   0  0  2  0  0  3  0  0  0  0  0  0
  187.3680  177.9860  139.9670 C   0  0  0  0  0  2  0  0  0  0  0  0
  190.1160  178.1240  140.6390 N   0  0  0  0  0  0  0  0  0  0  0  0
  189.1110  178.1250  141.6620 C   0  0  0  0  0  0  0  0  0  0  0  0
  190.5120  179.1660  144.9430 C   0  0  0  0  0  3  0  0  0  0  0  0
  189.2720  176.7960  143.7430 C   0  0  0  0  0  2  0  0  0  0  0  0
  190.0290  178.2110  145.7490 C   0  0  0  0  0  3  0  0  0  0  0  0
  189.5880  176.8580  145.2480 C   0  0  2  0  0  3  0  0  0  0  0  0
  186.7400  175.2100  134.6200 N   0  0  0  0  0  0  0  0  0  0  0  0
  187.5350  175.0640  135.6360 C   0  0  0  0  0  3  0  0  0  0  0  0
  185.6210  174.3700  134.4530 N   0  0  0  0  0  2  0  0  0  0  0  0
  184.3250  174.6960  134.9720 C   0  0  0  0  0  0  0  0  0  0  0  0
  184.1440  175.7200  135.6870 O   0  0  0  0  0  0  0  0  0  0  0  0
  183.1800  173.7550  134.7140 C   0  0  0  0  0  2  0  0  0  0  0  0
  183.3520  170.4670  136.1720 C   0  0  2  0  0  3  0  0  0  0  0  0
  184.0390  169.2330  135.5910 C   0  0  0  0  0  2  0  0  0  0  0  0
  180.6050  172.6300  134.7860 O   0  0  0  0  0  1  0  0  0  0  0  0
  183.6180  172.8280  136.8880 C   0  0  0  0  0  2  0  0  0  0  0  0
  182.5590  173.2940  135.9660 N   0  0  0  0  0  0  0  0  0  0  0  0
  181.2100  169.7920  135.1030 C   0  0  0  0  0  2  0  0  0  0  0  0
  181.8470  168.5150  134.5700 C   0  0  0  0  0  2  0  0  0  0  0  0
  182.2550  170.9130  135.1960 C   0  0  1  0  0  3  0  0  0  0  0  0
  184.3520  171.5870  136.3750 C   0  0  0  0  0  2  0  0  0  0  0  0
  183.0230  168.0960  135.4590 C   0  0  0  0  0  2  0  0  0  0  0  0
  181.5850  172.2050  135.6940 C   0  0  2  0  0  3  0  0  0  0  0  0
  193.2510  176.2540  136.1650 C   0  0  0  0  0  2  0  0  0  0  0  0
  193.7090  175.5510  134.8930 C   0  0  0  0  0  2  0  0  0  0  0  0
  194.5940  174.3560  135.2130 C   0  0  2  0  0  3  0  0  0  0  0  0
  194.4380  172.2750  136.6000 C   0  0  0  0  0  1  0  0  0  0  0  0
  193.7100  173.1890  135.6210 C   0  0  0  0  0  2  0  0  0  0  0  0
  195.5190  174.7090  136.2990 N   0  0  0  0  0  2  0  0  0  0  0  0
  196.9420  174.5980  135.9280 C   0  0  0  0  0  0  0  0  0  0  0  0
  197.6420  175.8030  136.1660 O   0  0  0  0  0  1  0  0  0  0  0  0
  196.9970  174.2890  134.5690 O   0  0  0  0  0  1  0  0  0  0  0  0
  199.3130  174.4670  138.0240 C   0  0  0  0  0  0  0  0  0  0  0  0
  200.0830  174.6340  136.7470 C   0  0  0  0  0  2  0  0  0  0  0  0
  198.8860  171.3020  136.7860 C   0  0  0  0  0  1  0  0  0  0  0  0
  200.0650  173.3080  135.9590 C   0  0  0  0  0  2  0  0  0  0  0  0
  198.6860  172.5840  135.9840 C   0  0  0  0  0  0  0  0  0  0  0  0
  199.9790  174.7380  139.3310 C   0  0  0  0  0  1  0  0  0  0  0  0
  198.2670  172.1850  134.5710 C   0  0  0  0  0  1  0  0  0  0  0  0
  198.1720  173.8530  138.0010 N   0  0  0  0  0  0  0  0  0  0  0  0
  197.6000  173.4260  136.7280 C   0  0  1  0  0  3  0  0  0  0  0  0
  1 40  1  6  0  0  0
  1  7  1  0  0  0  0
  2  1  1  0  0  0  0
  3  6  1  0  0  0  0
  3  8  1  1  0  0  0
  4 24  1  1  0  0  0
  4  3  1  0  0  0  0
  5  2  2  0  0  0  0
  5  4  1  0  0  0  0
  7  6  1  0  0  0  0
  8 13  2  0  0  0  0
 10 17  2  0  0  0  0
 11 15  1  0  0  0  0
 11 20  1  0  0  0  0
 13 10  1  0  0  0  0
 13 16  1  0  0  0  0
 14 18  2  0  0  0  0
 15 12  1  1  0  0  0
 15 19  1  0  0  0  0
 16 14  1  0  0  0  0
 17 18  1  0  0  0  0
 18 11  1  0  0  0  0
 19 21  2  0  0  0  0
 20 22  1  0  0  0  0
 22  9  1  6  0  0  0
 22 21  1  0  0  0  0
 23 24  2  0  0  0  0
 25 23  1  0  0  0  0
 25 26  1  0  0  0  0
 26 27  2  0  0  0  0
 28 26  1  0  0  0  0
 28 33  1  0  0  0  0
 29 30  1  6  0  0  0
 29 37  1  0  0  0  0
 33 32  1  0  0  0  0
 35 34  1  0  0  0  0
 35 38  1  0  0  0  0
 36 34  1  1  0  0  0
 36 39  1  0  0  0  0
 36 29  1  0  0  0  0
 37 32  1  0  0  0  0
 38 30  1  0  0  0  0
 39 31  1  6  0  0  0
 39 33  1  0  0  0  0
 41 40  1  0  0  0  0
 42 41  1  1  0  0  0
 42 44  1  0  0  0  0
 42 45  1  0  0  0  0
 44 43  1  0  0  0  0
 46 47  1  0  0  0  0
 46 45  1  0  0  0  0
 48 46  1  0  0  0  0
 49 54  1  0  0  0  0
 50 49  1  0  0  0  0
 52 53  1  0  0  0  0
 52 50  1  0  0  0  0
 53 57  1  0  0  0  0
 53 51  1  0  0  0  0
 55 53  1  0  0  0  0
 56 49  2  0  0  0  0
 57 46  1  6  0  0  0
 57 56  1  0  0  0  0
M  END
>  <MODEL>
9

>  <REMARK>
 VINA RESULT:      -5.1      4.499     10.584
  Name = 
  12 active torsions:
  status: ('A' for Active; 'I' for Inactive)
    1  A    between atoms: N_1  and  C_9
    2  A    between atoms: C_2  and  C_3
    3  A    between atoms: C_2  and  C_22
    4  A    between atoms: N_18  and  C_52
    5  A    between atoms: N_20  and  N_21
    6  A    between atoms: C_22  and  C_28
    7  A    between atoms: C_23  and  N_29
    8  A    between atoms: C_23  and  C_56
    9  A    between atoms: C_26  and  C_52
   10  A    between atoms: C_27  and  C_39
   11  A    between atoms: C_28  and  N_29
   12  A    between atoms: C_28  and  C_40
                            x       y       z     vdW  Elec       q    Type
                         _______ _______ _______ _____ _____    ______ ____

>  <TORSDO>
F 12

$$$$
