=
 OpenBabel10232410553D

 64 70  0  0  1  0  0  0  0  0999 V2000
  187.3480  175.6640  136.8720 C   0  0  2  0  0  3  0  0  0  0  0  0
  185.7700  177.3970  135.3670 C   0  0  0  0  0  3  0  0  0  0  0  0
  188.9590  177.4210  137.1140 C   0  0  1  0  0  3  0  0  0  0  0  0
  188.2660  176.4720  136.1470 C   0  0  2  0  0  0  0  0  0  0  0  0
  186.7820  176.7330  135.9290 C   0  0  0  0  0  0  0  0  0  0  0  0
  188.5190  177.0770  138.4640 N   0  0  2  0  0  0  0  0  0  0  0  0
  187.3610  176.1960  138.2920 C   0  0  0  0  0  2  0  0  0  0  0  0
  187.4040  177.5900  142.5710 C   0  0  0  0  0  3  0  0  0  0  0  0
  185.2110  178.3940  143.5020 C   0  0  0  0  0  0  0  0  0  0  0  0
  186.2860  178.5210  140.6100 C   0  0  0  0  0  0  0  0  0  0  0  0
  188.6350  178.3730  140.5630 C   0  0  0  0  0  2  0  0  0  0  0  0
  187.4580  178.6270  141.4990 C   0  0  2  0  0  3  0  0  0  0  0  0
  188.0850  178.3130  139.1250 C   0  0  2  0  0  3  0  0  0  0  0  0
  184.6140  178.8830  142.4030 C   0  0  0  0  0  3  0  0  0  0  0  0
  186.4150  177.5220  143.4660 C   0  0  0  0  0  3  0  0  0  0  0  0
  185.0290  178.7030  140.9980 C   0  0  0  0  0  3  0  0  0  0  0  0
  186.6350  178.3530  139.2520 N   0  0  0  0  0  2  0  0  0  0  0  0
  184.6240  178.7260  144.7300 O   0  0  0  0  0  0  0  0  0  0  0  0
  186.3120  177.5890  146.0640 N   0  0  0  0  0  2  0  0  0  0  0  0
  184.5090  178.6760  147.0470 O   0  0  0  0  0  0  0  0  0  0  0  0
  185.1030  178.3390  145.9870 C   0  0  0  0  0  0  0  0  0  0  0  0
  187.5890  178.2180  146.3570 C   0  0  2  0  0  3  0  0  0  0  0  0
  188.7000  177.2290  146.1400 C   0  0  2  0  0  3  0  0  0  0  0  0
  187.6830  178.4510  147.8420 C   0  0  0  0  0  2  0  0  0  0  0  0
  188.0470  177.2400  148.4420 O   0  0  0  0  0  0  0  0  0  0  0  0
  188.8110  176.5380  147.4880 C   0  0  0  0  0  2  0  0  0  0  0  0
  189.8910  177.9160  145.8890 O   0  0  0  0  0  0  0  0  0  0  0  0
  190.6670  177.0470  145.1130 C   0  0  0  0  0  2  0  0  0  0  0  0
  190.7560  179.0180  143.6160 C   0  0  0  0  0  1  0  0  0  0  0  0
  191.5480  177.8520  144.1720 C   0  0  2  0  0  3  0  0  0  0  0  0
  191.9890  177.0470  143.1210 O   0  0  0  0  0  1  0  0  0  0  0  0
  188.9930  175.7630  135.0370 C   0  0  0  0  0  0  0  0  0  0  0  0
  188.7680  174.3080  134.7990 C   0  0  0  0  0  1  0  0  0  0  0  0
  189.7980  176.3680  134.3460 O   0  0  0  0  0  0  0  0  0  0  0  0
  184.3380  177.0730  135.6760 C   0  0  2  0  0  3  0  0  0  0  0  0
  184.1110  177.1250  137.0540 O   0  0  0  0  0  0  0  0  0  0  0  0
  183.7680  178.3750  137.2880 O   0  0  0  0  0  1  0  0  0  0  0  0
  183.9700  175.6990  135.1270 C   0  0  0  0  0  2  0  0  0  0  0  0
  183.1110  174.9190  136.1130 C   0  0  0  0  0  2  0  0  0  0  0  0
  181.7040  175.4930  136.1850 C   0  0  0  0  0  2  0  0  0  0  0  0
  181.1790  175.4450  137.6080 C   0  0  0  0  0  1  0  0  0  0  0  0
  190.4090  177.3160  137.0290 N   0  0  0  0  0  2  0  0  0  0  0  0
  191.2260  175.0890  137.6480 C   0  0  0  0  0  2  0  0  0  0  0  0
  193.3680  176.5540  138.6370 C   0  0  0  0  0  2  0  0  0  0  0  0
  191.9950  177.1790  138.8960 C   0  0  0  0  0  2  0  0  0  0  0  0
  190.8440  176.4880  138.1450 C   0  0  1  0  0  3  0  0  0  0  0  0
  193.5140  176.1620  137.1690 C   0  0  2  0  0  3  0  0  0  0  0  0
  192.4780  175.1030  136.7580 C   0  0  0  0  0  2  0  0  0  0  0  0
  195.4130  175.5410  135.6180 C   0  0  0  0  0  0  0  0  0  0  0  0
  194.7290  175.8370  134.6020 O   0  0  0  0  0  0  0  0  0  0  0  0
  194.8580  175.6620  136.9290 N   0  0  0  0  0  2  0  0  0  0  0  0
  196.8140  175.0600  135.4610 C   0  0  0  0  0  2  0  0  0  0  0  0
  195.8670  172.8860  136.1230 C   0  0  0  0  0  2  0  0  0  0  0  0
  197.0630  173.8110  136.3030 C   0  0  1  0  0  3  0  0  0  0  0  0
  198.2900  173.1220  135.8570 N   0  0  0  0  0  0  0  0  0  0  0  0
  197.3080  171.1220  137.0190 C   0  0  0  0  0  0  0  0  0  0  0  0
  196.0490  171.7010  136.8790 O   0  0  0  0  0  0  0  0  0  0  0  0
  198.5530  171.8560  136.5750 C   0  0  1  0  0  3  0  0  0  0  0  0
  197.4100  170.0040  137.5930 O   0  0  0  0  0  0  0  0  0  0  0  0
  200.2280  171.4620  134.9160 O   0  0  0  0  0  0  0  0  0  0  0  0
  199.4110  170.9590  135.7310 C   0  0  0  0  0  0  0  0  0  0  0  0
  199.3080  169.5760  135.8460 O   0  0  0  0  0  1  0  0  0  0  0  0
  199.4500  174.0000  136.0700 C   0  0  0  0  0  2  0  0  0  0  0  0
  199.5870  174.3390  137.4240 O   0  0  0  0  0  1  0  0  0  0  0  0
  1  7  1  1  0  0  0
  2 35  1  0  0  0  0
  2  5  2  0  0  0  0
  3 42  1  1  0  0  0
  3  6  1  0  0  0  0
  4 32  1  6  0  0  0
  4  1  1  0  0  0  0
  4  3  1  0  0  0  0
  5  4  1  0  0  0  0
  5  1  1  0  0  0  0
  6  7  1  6  0  0  0
  6 13  1  0  0  0  0
  8 15  2  0  0  0  0
  9 18  1  0  0  0  0
 10 16  2  0  0  0  0
 10 12  1  0  0  0  0
 12 11  1  6  0  0  0
 12  8  1  0  0  0  0
 13 17  1  0  0  0  0
 13 11  1  1  0  0  0
 14  9  2  0  0  0  0
 15  9  1  0  0  0  0
 16 14  1  0  0  0  0
 17 10  1  0  0  0  0
 18 21  1  0  0  0  0
 21 19  1  0  0  0  0
 21 20  2  0  0  0  0
 22 19  1  1  0  0  0
 22 24  1  0  0  0  0
 23 27  1  1  0  0  0
 23 22  1  0  0  0  0
 23 26  1  0  0  0  0
 24 25  1  0  0  0  0
 26 25  1  0  0  0  0
 28 27  1  0  0  0  0
 30 29  1  6  0  0  0
 30 28  1  0  0  0  0
 31 30  1  0  0  0  0
 33 32  1  0  0  0  0
 34 32  2  0  0  0  0
 35 38  1  1  0  0  0
 35 36  1  0  0  0  0
 36 37  1  0  0  0  0
 38 39  1  0  0  0  0
 39 40  1  0  0  0  0
 40 41  1  0  0  0  0
 43 46  1  0  0  0  0
 44 45  1  0  0  0  0
 46 42  1  6  0  0  0
 46 45  1  0  0  0  0
 47 51  1  1  0  0  0
 47 44  1  0  0  0  0
 48 47  1  0  0  0  0
 48 43  1  0  0  0  0
 49 51  1  0  0  0  0
 50 49  2  0  0  0  0
 52 49  1  0  0  0  0
 53 54  1  0  0  0  0
 53 57  1  0  0  0  0
 54 52  1  6  0  0  0
 55 63  1  0  0  0  0
 55 54  1  0  0  0  0
 55 58  1  0  0  0  0
 56 59  2  0  0  0  0
 57 56  1  0  0  0  0
 58 61  1  6  0  0  0
 58 56  1  0  0  0  0
 60 61  2  0  0  0  0
 61 62  1  0  0  0  0
 63 64  1  0  0  0  0
M  END
>  <MODEL>
1

>  <REMARK>
 VINA RESULT:      -7.1      0.000      0.000
  Name = 
  20 active torsions:
  status: ('A' for Active; 'I' for Inactive)
    1  A    between atoms: C_1  and  C_38
    2  A    between atoms: N_5  and  C_6
    3  A    between atoms: C_7  and  C_47
    4  A    between atoms: C_13  and  C_51
    5  A    between atoms: C_14  and  C_38
    6  A    between atoms: C_14  and  C_47
    7  A    between atoms: C_15  and  N_50
    8  A    between atoms: C_16  and  O_55
    9  A    between atoms: C_17  and  C_51
   10  A    between atoms: C_18  and  C_30
   11  A    between atoms: N_19  and  C_28
   12  A    between atoms: C_21  and  O_35
   13  A    between atoms: C_25  and  N_50
   14  A    between atoms: N_27  and  C_33
   15  A    between atoms: C_29  and  C_36
   16  A    between atoms: O_32  and  C_47
   17  A    between atoms: O_35  and  C_43
   18  A    between atoms: C_41  and  N_57
   19  A    between atoms: O_55  and  C_56
   20  A    between atoms: C_56  and  C_63
                            x       y       z     vdW  Elec       q    Type
                         _______ _______ _______ _____ _____    ______ ____

>  <TORSDO>
F 20

$$$$
=
 OpenBabel10232410553D

 64 70  0  0  1  0  0  0  0  0999 V2000
  189.0860  178.1860  137.4790 C   0  0  2  0  0  3  0  0  0  0  0  0
  188.8760  175.4430  137.0420 C   0  0  0  0  0  3  0  0  0  0  0  0
  186.9180  178.1390  138.4990 C   0  0  1  0  0  3  0  0  0  0  0  0
  187.7090  177.9540  137.2120 C   0  0  2  0  0  0  0  0  0  0  0  0
  188.6390  176.7480  137.1870 C   0  0  0  0  0  0  0  0  0  0  0  0
  187.8460  178.6100  139.5250 N   0  0  2  0  0  0  0  0  0  0  0  0
  189.1870  178.3900  138.9790 C   0  0  0  0  0  2  0  0  0  0  0  0
  189.8080  178.9930  143.3160 C   0  0  0  0  0  3  0  0  0  0  0  0
  191.2600  177.3150  144.4960 C   0  0  0  0  0  0  0  0  0  0  0  0
  189.3810  176.9340  142.0760 C   0  0  0  0  0  0  0  0  0  0  0  0
  187.7420  178.6210  141.9920 C   0  0  0  0  0  2  0  0  0  0  0  0
  188.7800  177.9890  142.9130 C   0  0  2  0  0  3  0  0  0  0  0  0
  187.6690  177.7660  140.7130 C   0  0  2  0  0  3  0  0  0  0  0  0
  191.0200  176.2010  143.7850 C   0  0  0  0  0  3  0  0  0  0  0  0
  190.8840  178.6790  144.0420 C   0  0  0  0  0  3  0  0  0  0  0  0
  190.3270  176.0960  142.4860 C   0  0  0  0  0  3  0  0  0  0  0  0
  188.7460  176.7920  140.8230 N   0  0  0  0  0  2  0  0  0  0  0  0
  191.9270  177.1420  145.7170 O   0  0  0  0  0  0  0  0  0  0  0  0
  190.2620  177.2830  147.4860 N   0  0  0  0  0  2  0  0  0  0  0  0
  191.7750  175.5240  147.3720 O   0  0  0  0  0  0  0  0  0  0  0  0
  191.3600  176.6070  146.8800 C   0  0  0  0  0  0  0  0  0  0  0  0
  188.8860  176.8710  147.2590 C   0  0  2  0  0  3  0  0  0  0  0  0
  188.1140  178.0060  146.6490 C   0  0  2  0  0  3  0  0  0  0  0  0
  188.2000  176.7250  148.5920 C   0  0  0  0  0  2  0  0  0  0  0  0
  187.8330  178.0040  149.0260 O   0  0  0  0  0  0  0  0  0  0  0  0
  187.6100  178.7690  147.8620 C   0  0  0  0  0  2  0  0  0  0  0  0
  187.0140  177.4980  145.9510 O   0  0  0  0  0  0  0  0  0  0  0  0
  185.8900  178.0710  146.5560 C   0  0  0  0  0  2  0  0  0  0  0  0
  185.2990  178.4190  144.1760 C   0  0  0  0  0  1  0  0  0  0  0  0
  184.7460  178.1290  145.5570 C   0  0  2  0  0  3  0  0  0  0  0  0
  183.8440  179.1320  145.9160 O   0  0  0  0  0  1  0  0  0  0  0  0
  187.2300  178.4610  135.8790 C   0  0  0  0  0  0  0  0  0  0  0  0
  186.9760  177.5090  134.7590 C   0  0  0  0  0  1  0  0  0  0  0  0
  187.0800  179.6590  135.6960 O   0  0  0  0  0  0  0  0  0  0  0  0
  190.2510  174.8640  137.1940 C   0  0  2  0  0  3  0  0  0  0  0  0
  191.1160  175.8010  137.7660 O   0  0  0  0  0  0  0  0  0  0  0  0
  192.2060  175.1170  138.0490 O   0  0  0  0  0  1  0  0  0  0  0  0
  190.7880  174.3990  135.8440 C   0  0  0  0  0  2  0  0  0  0  0  0
  190.5620  172.9070  135.6410 C   0  0  0  0  0  2  0  0  0  0  0  0
  189.4820  172.6550  134.5990 C   0  0  0  0  0  2  0  0  0  0  0  0
  188.1170  173.0390  135.1390 C   0  0  0  0  0  1  0  0  0  0  0  0
  185.8380  179.1030  138.3350 N   0  0  0  0  0  2  0  0  0  0  0  0
  183.6500  179.7110  139.2580 C   0  0  0  0  0  2  0  0  0  0  0  0
  183.3890  176.9550  139.4800 C   0  0  0  0  0  2  0  0  0  0  0  0
  184.7720  177.4960  139.8520 C   0  0  0  0  0  2  0  0  0  0  0  0
  184.9750  178.9800  139.5020 C   0  0  1  0  0  3  0  0  0  0  0  0
  182.9380  177.5100  138.1320 C   0  0  2  0  0  3  0  0  0  0  0  0
  182.8020  179.0420  138.1660 C   0  0  0  0  0  2  0  0  0  0  0  0
  181.3140  176.6410  136.3990 C   0  0  0  0  0  0  0  0  0  0  0  0
  182.0910  176.9580  135.4590 O   0  0  0  0  0  0  0  0  0  0  0  0
  181.6680  176.9070  137.7570 N   0  0  0  0  0  2  0  0  0  0  0  0
  180.0120  175.9800  136.1010 C   0  0  0  0  0  2  0  0  0  0  0  0
  180.4040  174.1380  134.5150 C   0  0  0  0  0  2  0  0  0  0  0  0
  180.1800  174.4670  135.9840 C   0  0  1  0  0  3  0  0  0  0  0  0
  181.3420  174.0130  136.7730 N   0  0  0  0  0  0  0  0  0  0  0  0
  181.2510  171.9800  135.2980 C   0  0  0  0  0  0  0  0  0  0  0  0
  180.5740  172.7420  134.3480 O   0  0  0  0  0  0  0  0  0  0  0  0
  181.6170  172.5650  136.6430 C   0  0  1  0  0  3  0  0  0  0  0  0
  181.4910  170.7670  135.0550 O   0  0  0  0  0  0  0  0  0  0  0  0
  183.3800  171.2180  137.5320 O   0  0  0  0  0  1  0  0  0  0  0  0
  183.0580  172.2890  136.9540 C   0  0  0  0  0  0  0  0  0  0  0  0
  184.0410  173.2110  136.6080 O   0  0  0  0  0  0  0  0  0  0  0  0
  181.1080  174.2920  138.1970 C   0  0  0  0  0  2  0  0  0  0  0  0
  179.9830  173.6020  138.6710 O   0  0  0  0  0  1  0  0  0  0  0  0
  1  7  1  1  0  0  0
  2  5  2  0  0  0  0
  2 35  1  0  0  0  0
  3 42  1  6  0  0  0
  3  6  1  0  0  0  0
  4 32  1  6  0  0  0
  4  1  1  0  0  0  0
  4  3  1  0  0  0  0
  5  4  1  0  0  0  0
  5  1  1  0  0  0  0
  6  7  1  6  0  0  0
  6 13  1  0  0  0  0
  8 15  2  0  0  0  0
  9 18  1  0  0  0  0
 10 16  2  0  0  0  0
 10 12  1  0  0  0  0
 12 11  1  6  0  0  0
 12  8  1  0  0  0  0
 13 17  1  0  0  0  0
 13 11  1  1  0  0  0
 14  9  2  0  0  0  0
 15  9  1  0  0  0  0
 16 14  1  0  0  0  0
 17 10  1  0  0  0  0
 18 21  1  0  0  0  0
 21 20  2  0  0  0  0
 21 19  1  0  0  0  0
 22 19  1  1  0  0  0
 22 24  1  0  0  0  0
 23 27  1  1  0  0  0
 23 22  1  0  0  0  0
 23 26  1  0  0  0  0
 24 25  1  0  0  0  0
 26 25  1  0  0  0  0
 27 28  1  0  0  0  0
 30 29  1  6  0  0  0
 30 31  1  0  0  0  0
 30 28  1  0  0  0  0
 33 32  1  0  0  0  0
 34 32  2  0  0  0  0
 35 38  1  6  0  0  0
 35 36  1  0  0  0  0
 36 37  1  0  0  0  0
 39 38  1  0  0  0  0
 40 41  1  0  0  0  0
 40 39  1  0  0  0  0
 43 46  1  0  0  0  0
 44 45  1  0  0  0  0
 46 42  1  6  0  0  0
 46 45  1  0  0  0  0
 47 51  1  1  0  0  0
 47 48  1  0  0  0  0
 47 44  1  0  0  0  0
 48 43  1  0  0  0  0
 49 51  1  0  0  0  0
 50 49  2  0  0  0  0
 52 49  1  0  0  0  0
 53 54  1  0  0  0  0
 54 52  1  6  0  0  0
 54 55  1  0  0  0  0
 55 63  1  0  0  0  0
 56 58  1  0  0  0  0
 57 53  1  0  0  0  0
 57 56  1  0  0  0  0
 58 55  1  0  0  0  0
 58 61  1  6  0  0  0
 59 56  2  0  0  0  0
 61 60  1  0  0  0  0
 62 61  2  0  0  0  0
 63 64  1  0  0  0  0
M  END
>  <MODEL>
2

>  <REMARK>
 VINA RESULT:      -6.4      4.158      9.563
  Name = 
  20 active torsions:
  status: ('A' for Active; 'I' for Inactive)
    1  A    between atoms: C_1  and  C_38
    2  A    between atoms: N_5  and  C_6
    3  A    between atoms: C_7  and  C_47
    4  A    between atoms: C_13  and  C_51
    5  A    between atoms: C_14  and  C_38
    6  A    between atoms: C_14  and  C_47
    7  A    between atoms: C_15  and  N_50
    8  A    between atoms: C_16  and  O_55
    9  A    between atoms: C_17  and  C_51
   10  A    between atoms: C_18  and  C_30
   11  A    between atoms: N_19  and  C_28
   12  A    between atoms: C_21  and  O_35
   13  A    between atoms: C_25  and  N_50
   14  A    between atoms: N_27  and  C_33
   15  A    between atoms: C_29  and  C_36
   16  A    between atoms: O_32  and  C_47
   17  A    between atoms: O_35  and  C_43
   18  A    between atoms: C_41  and  N_57
   19  A    between atoms: O_55  and  C_56
   20  A    between atoms: C_56  and  C_63
                            x       y       z     vdW  Elec       q    Type
                         _______ _______ _______ _____ _____    ______ ____

>  <TORSDO>
F 20

$$$$
=
 OpenBabel10232410553D

 64 70  0  0  1  0  0  0  0  0999 V2000
  191.0580  174.4660  134.7160 C   0  0  2  0  0  3  0  0  0  0  0  0
  192.8150  173.8500  136.7890 C   0  0  0  0  0  3  0  0  0  0  0  0
  189.4660  175.1980  136.3500 C   0  0  1  0  0  3  0  0  0  0  0  0
  190.2340  174.0140  135.7820 C   0  0  2  0  0  0  0  0  0  0  0  0
  191.7380  174.0380  136.0220 C   0  0  0  0  0  0  0  0  0  0  0  0
  189.7600  176.3590  135.5120 N   0  0  2  0  0  0  0  0  0  0  0  0
  190.9120  175.9760  134.6920 C   0  0  0  0  0  2  0  0  0  0  0  0
  189.8210  176.3800  139.7980 C   0  0  0  0  0  3  0  0  0  0  0  0
  188.5610  177.8850  141.3670 C   0  0  0  0  0  0  0  0  0  0  0  0
  189.0120  178.1500  138.3240 C   0  0  0  0  0  0  0  0  0  0  0  0
  190.8980  176.9260  137.6290 C   0  0  0  0  0  2  0  0  0  0  0  0
  190.2090  177.4830  138.8700 C   0  0  2  0  0  3  0  0  0  0  0  0
  190.1490  177.4650  136.3960 C   0  0  2  0  0  3  0  0  0  0  0  0
  188.1140  178.8360  140.5300 C   0  0  0  0  0  3  0  0  0  0  0  0
  189.1160  176.5830  140.9140 C   0  0  0  0  0  3  0  0  0  0  0  0
  188.1190  178.8090  139.0550 C   0  0  0  0  0  3  0  0  0  0  0  0
  188.9760  178.1540  136.9120 N   0  0  0  0  0  2  0  0  0  0  0  0
  188.4570  178.1640  142.7370 O   0  0  0  0  0  0  0  0  0  0  0  0
  189.3730  176.1340  143.7190 N   0  0  0  0  0  2  0  0  0  0  0  0
  187.6320  177.2980  144.7250 O   0  0  0  0  0  0  0  0  0  0  0  0
  188.4350  177.2060  143.7580 C   0  0  0  0  0  0  0  0  0  0  0  0
  190.6030  176.1610  144.4930 C   0  0  2  0  0  3  0  0  0  0  0  0
  190.7600  177.5070  145.1430 C   0  0  2  0  0  3  0  0  0  0  0  0
  191.7720  176.1500  143.5430 C   0  0  0  0  0  2  0  0  0  0  0  0
  191.9460  177.4540  143.0650 O   0  0  0  0  0  0  0  0  0  0  0  0
  191.4920  178.3150  144.0860 C   0  0  0  0  0  2  0  0  0  0  0  0
  191.5850  177.3870  146.2650 O   0  0  0  0  0  0  0  0  0  0  0  0
  190.8080  176.7400  147.2330 C   0  0  0  0  0  2  0  0  0  0  0  0
  189.6140  178.3110  148.7310 C   0  0  0  0  0  1  0  0  0  0  0  0
  189.5150  177.5100  147.4480 C   0  0  2  0  0  3  0  0  0  0  0  0
  188.4380  176.6270  147.5340 O   0  0  0  0  0  1  0  0  0  0  0  0
  189.6100  172.6620  135.5690 C   0  0  0  0  0  0  0  0  0  0  0  0
  189.9280  171.8700  134.3460 C   0  0  0  0  0  1  0  0  0  0  0  0
  188.8120  172.2200  136.3810 O   0  0  0  0  0  0  0  0  0  0  0  0
  194.2010  174.1410  136.2950 C   0  0  2  0  0  3  0  0  0  0  0  0
  195.0880  174.2570  137.3690 O   0  0  0  0  0  0  0  0  0  0  0  0
  194.8360  173.2070  138.1240 O   0  0  0  0  0  1  0  0  0  0  0  0
  194.2140  175.4130  135.4550 C   0  0  0  0  0  2  0  0  0  0  0  0
  195.4250  176.2790  135.7750 C   0  0  0  0  0  2  0  0  0  0  0  0
  196.2560  176.5390  134.5280 C   0  0  0  0  0  2  0  0  0  0  0  0
  197.3010  175.4540  134.3460 C   0  0  0  0  0  1  0  0  0  0  0  0
  188.0300  174.9550  136.3630 N   0  0  0  0  0  2  0  0  0  0  0  0
  186.4230  174.4890  134.5710 C   0  0  0  0  0  2  0  0  0  0  0  0
  185.4560  176.9910  135.2910 C   0  0  0  0  0  2  0  0  0  0  0  0
  186.9820  176.8820  135.2640 C   0  0  0  0  0  2  0  0  0  0  0  0
  187.5010  175.4430  135.0970 C   0  0  1  0  0  3  0  0  0  0  0  0
  184.8470  175.8410  136.0900 C   0  0  2  0  0  3  0  0  0  0  0  0
  185.1670  174.4770  135.4550 C   0  0  0  0  0  2  0  0  0  0  0  0
  182.6430  175.5550  137.2960 C   0  0  0  0  0  0  0  0  0  0  0  0
  183.1980  174.9290  138.2390 O   0  0  0  0  0  0  0  0  0  0  0  0
  183.4070  176.0210  136.1820 N   0  0  0  0  0  2  0  0  0  0  0  0
  181.1770  175.8180  137.3350 C   0  0  0  0  0  2  0  0  0  0  0  0
  181.4580  176.4640  139.6950 C   0  0  0  0  0  2  0  0  0  0  0  0
  180.8400  176.8890  138.3700 C   0  0  1  0  0  3  0  0  0  0  0  0
  181.3970  178.1940  137.9620 N   0  0  0  0  0  0  0  0  0  0  0  0
  181.1540  178.7910  140.3920 C   0  0  0  0  0  0  0  0  0  0  0  0
  181.1820  177.4310  140.6930 O   0  0  0  0  0  0  0  0  0  0  0  0
  181.1800  179.2670  138.9580 C   0  0  1  0  0  3  0  0  0  0  0  0
  181.0300  179.6250  141.3280 O   0  0  0  0  0  0  0  0  0  0  0  0
  181.8720  181.4820  138.3810 O   0  0  0  0  0  0  0  0  0  0  0  0
  182.2150  180.3400  138.7860 C   0  0  0  0  0  0  0  0  0  0  0  0
  183.5520  180.0800  139.0720 O   0  0  0  0  0  1  0  0  0  0  0  0
  180.7700  178.6250  136.7050 C   0  0  0  0  0  2  0  0  0  0  0  0
  181.7350  178.9400  135.7380 O   0  0  0  0  0  1  0  0  0  0  0  0
  1  7  1  1  0  0  0
  1  4  1  0  0  0  0
  1  5  1  0  0  0  0
  3 42  1  6  0  0  0
  4 32  1  6  0  0  0
  4  5  1  0  0  0  0
  4  3  1  0  0  0  0
  5  2  2  0  0  0  0
  6  7  1  6  0  0  0
  6  3  1  0  0  0  0
  6 13  1  0  0  0  0
  8 15  2  0  0  0  0
  9 18  1  0  0  0  0
 10 12  1  0  0  0  0
 10 16  2  0  0  0  0
 12 11  1  6  0  0  0
 12  8  1  0  0  0  0
 13 17  1  0  0  0  0
 13 11  1  1  0  0  0
 14  9  2  0  0  0  0
 15  9  1  0  0  0  0
 16 14  1  0  0  0  0
 17 10  1  0  0  0  0
 18 21  1  0  0  0  0
 19 21  1  0  0  0  0
 21 20  2  0  0  0  0
 22 19  1  6  0  0  0
 22 23  1  0  0  0  0
 23 27  1  1  0  0  0
 24 22  1  0  0  0  0
 25 24  1  0  0  0  0
 25 26  1  0  0  0  0
 26 23  1  0  0  0  0
 27 28  1  0  0  0  0
 28 30  1  0  0  0  0
 30 31  1  0  0  0  0
 30 29  1  1  0  0  0
 32 34  2  0  0  0  0
 33 32  1  0  0  0  0
 35 38  1  1  0  0  0
 35  2  1  0  0  0  0
 35 36  1  0  0  0  0
 36 37  1  0  0  0  0
 38 39  1  0  0  0  0
 40 39  1  0  0  0  0
 41 40  1  0  0  0  0
 43 46  1  0  0  0  0
 43 48  1  0  0  0  0
 44 47  1  0  0  0  0
 45 44  1  0  0  0  0
 46 45  1  0  0  0  0
 46 42  1  1  0  0  0
 47 51  1  6  0  0  0
 48 47  1  0  0  0  0
 49 52  1  0  0  0  0
 49 50  2  0  0  0  0
 51 49  1  0  0  0  0
 53 57  1  0  0  0  0
 54 52  1  6  0  0  0
 54 53  1  0  0  0  0
 55 54  1  0  0  0  0
 55 58  1  0  0  0  0
 56 57  1  0  0  0  0
 56 59  2  0  0  0  0
 58 61  1  1  0  0  0
 58 56  1  0  0  0  0
 60 61  2  0  0  0  0
 61 62  1  0  0  0  0
 63 55  1  0  0  0  0
 64 63  1  0  0  0  0
M  END
>  <MODEL>
3

>  <REMARK>
 VINA RESULT:      -6.0      2.970     10.349
  Name = 
  20 active torsions:
  status: ('A' for Active; 'I' for Inactive)
    1  A    between atoms: C_1  and  C_38
    2  A    between atoms: N_5  and  C_6
    3  A    between atoms: C_7  and  C_47
    4  A    between atoms: C_13  and  C_51
    5  A    between atoms: C_14  and  C_38
    6  A    between atoms: C_14  and  C_47
    7  A    between atoms: C_15  and  N_50
    8  A    between atoms: C_16  and  O_55
    9  A    between atoms: C_17  and  C_51
   10  A    between atoms: C_18  and  C_30
   11  A    between atoms: N_19  and  C_28
   12  A    between atoms: C_21  and  O_35
   13  A    between atoms: C_25  and  N_50
   14  A    between atoms: N_27  and  C_33
   15  A    between atoms: C_29  and  C_36
   16  A    between atoms: O_32  and  C_47
   17  A    between atoms: O_35  and  C_43
   18  A    between atoms: C_41  and  N_57
   19  A    between atoms: O_55  and  C_56
   20  A    between atoms: C_56  and  C_63
                            x       y       z     vdW  Elec       q    Type
                         _______ _______ _______ _____ _____    ______ ____

>  <TORSDO>
F 20

$$$$
=
 OpenBabel10232410553D

 64 70  0  0  1  0  0  0  0  0999 V2000
  189.3930  178.4790  143.0590 C   0  0  2  0  0  3  0  0  0  0  0  0
  188.2350  177.0690  145.1640 C   0  0  0  0  0  3  0  0  0  0  0  0
  187.7910  177.4870  141.5800 C   0  0  1  0  0  3  0  0  0  0  0  0
  188.9790  177.2400  142.4970 C   0  0  2  0  0  0  0  0  0  0  0  0
  188.7130  177.4590  143.9800 C   0  0  0  0  0  0  0  0  0  0  0  0
  187.5770  178.9310  141.5100 N   0  0  2  0  0  0  0  0  0  0  0  0
  188.3740  179.5030  142.5970 C   0  0  0  0  0  2  0  0  0  0  0  0
  184.2010  176.8830  139.8440 C   0  0  0  0  0  3  0  0  0  0  0  0
  182.3190  177.8360  138.4760 C   0  0  0  0  0  0  0  0  0  0  0  0
  184.4580  179.2900  140.1640 C   0  0  0  0  0  0  0  0  0  0  0  0
  185.3690  177.8660  141.8010 C   0  0  0  0  0  2  0  0  0  0  0  0
  184.1990  178.0010  140.8330 C   0  0  2  0  0  3  0  0  0  0  0  0
  186.1560  179.1890  141.7720 C   0  0  2  0  0  3  0  0  0  0  0  0
  182.4950  179.1560  138.6560 C   0  0  0  0  0  3  0  0  0  0  0  0
  183.3410  176.8150  138.8240 C   0  0  0  0  0  3  0  0  0  0  0  0
  183.6640  179.8340  139.2470 C   0  0  0  0  0  3  0  0  0  0  0  0
  185.5660  179.9800  140.7010 N   0  0  0  0  0  2  0  0  0  0  0  0
  181.1020  177.4430  137.9020 O   0  0  0  0  0  0  0  0  0  0  0  0
  179.9850  175.4760  137.0040 N   0  0  0  0  0  2  0  0  0  0  0  0
  180.3390  175.7440  139.2850 O   0  0  0  0  0  0  0  0  0  0  0  0
  180.4620  176.2180  138.1240 C   0  0  0  0  0  0  0  0  0  0  0  0
  180.7440  174.3760  136.4330 C   0  0  2  0  0  3  0  0  0  0  0  0
  182.2110  174.6950  136.4810 C   0  0  2  0  0  3  0  0  0  0  0  0
  180.4950  174.3390  134.9470 C   0  0  0  0  0  2  0  0  0  0  0  0
  181.3050  175.3150  134.3540 O   0  0  0  0  0  0  0  0  0  0  0  0
  182.4430  175.4390  135.1770 C   0  0  0  0  0  2  0  0  0  0  0  0
  182.9460  173.5070  136.4560 O   0  0  0  0  0  0  0  0  0  0  0  0
  184.2480  173.8640  136.8270 C   0  0  0  0  0  2  0  0  0  0  0  0
  186.3210  172.5110  136.8730 C   0  0  0  0  0  1  0  0  0  0  0  0
  185.2490  173.0990  135.9780 C   0  0  2  0  0  3  0  0  0  0  0  0
  185.8400  173.9530  135.0450 O   0  0  0  0  0  1  0  0  0  0  0  0
  190.1000  176.2990  142.1470 C   0  0  0  0  0  0  0  0  0  0  0  0
  191.0530  175.8410  143.1980 C   0  0  0  0  0  1  0  0  0  0  0  0
  190.2540  175.9320  140.9930 O   0  0  0  0  0  0  0  0  0  0  0  0
  188.3190  177.9430  146.3810 C   0  0  2  0  0  3  0  0  0  0  0  0
  189.0530  177.3100  147.3880 O   0  0  0  0  0  0  0  0  0  0  0  0
  188.1480  176.9140  148.2600 O   0  0  0  0  0  1  0  0  0  0  0  0
  186.9230  178.2980  146.8810 C   0  0  0  0  0  2  0  0  0  0  0  0
  185.8820  178.1420  145.7810 C   0  0  0  0  0  2  0  0  0  0  0  0
  184.5350  178.6960  146.2210 C   0  0  0  0  0  2  0  0  0  0  0  0
  183.6570  178.9840  145.0180 C   0  0  0  0  0  1  0  0  0  0  0  0
  188.0230  176.9610  140.2410 N   0  0  0  0  0  2  0  0  0  0  0  0
  189.6090  178.4560  139.1200 C   0  0  0  0  0  2  0  0  0  0  0  0
  188.3180  177.5200  136.8470 C   0  0  0  0  0  2  0  0  0  0  0  0
  187.3920  177.8150  138.0290 C   0  0  0  0  0  2  0  0  0  0  0  0
  188.1340  178.1040  139.3450 C   0  0  1  0  0  3  0  0  0  0  0  0
  189.4960  176.6560  137.2870 C   0  0  2  0  0  3  0  0  0  0  0  0
  190.3610  177.3680  138.3400 C   0  0  0  0  0  2  0  0  0  0  0  0
  191.3010  175.2850  136.1640 C   0  0  0  0  0  0  0  0  0  0  0  0
  191.5390  174.6570  137.2310 O   0  0  0  0  0  0  0  0  0  0  0  0
  190.3060  176.3090  136.1300 N   0  0  0  0  0  2  0  0  0  0  0  0
  192.0580  174.9610  134.9230 C   0  0  0  0  0  2  0  0  0  0  0  0
  193.9210  176.1680  135.9900 C   0  0  0  0  0  2  0  0  0  0  0  0
  193.5610  174.9220  135.1930 C   0  0  1  0  0  3  0  0  0  0  0  0
  193.9140  173.7190  135.9730 N   0  0  0  0  0  0  0  0  0  0  0  0
  195.9950  175.0000  136.5610 C   0  0  0  0  0  0  0  0  0  0  0  0
  195.3080  176.1790  136.2770 O   0  0  0  0  0  0  0  0  0  0  0  0
  195.3460  173.6530  136.3430 C   0  0  1  0  0  3  0  0  0  0  0  0
  197.1980  175.0650  136.9330 O   0  0  0  0  0  0  0  0  0  0  0  0
  194.9490  173.1060  138.6360 O   0  0  0  0  0  1  0  0  0  0  0  0
  195.5190  172.7910  137.5580 C   0  0  0  0  0  0  0  0  0  0  0  0
  196.3050  171.6440  137.5000 O   0  0  0  0  0  0  0  0  0  0  0  0
  193.6060  172.5160  135.1860 C   0  0  0  0  0  2  0  0  0  0  0  0
  192.8710  171.5910  135.9410 O   0  0  0  0  0  1  0  0  0  0  0  0
  1  7  1  6  0  0  0
  1  5  1  0  0  0  0
  3 42  1  6  0  0  0
  3  4  1  0  0  0  0
  4 32  1  6  0  0  0
  4  1  1  0  0  0  0
  4  5  1  0  0  0  0
  5  2  2  0  0  0  0
  6  3  1  0  0  0  0
  6 13  1  0  0  0  0
  6  7  1  1  0  0  0
  9 14  2  0  0  0  0
  9 15  1  0  0  0  0
 10 17  1  0  0  0  0
 10 12  1  0  0  0  0
 12  8  1  6  0  0  0
 12 11  1  0  0  0  0
 13 11  1  6  0  0  0
 14 16  1  0  0  0  0
 15  8  2  0  0  0  0
 16 10  2  0  0  0  0
 17 13  1  0  0  0  0
 18 21  1  0  0  0  0
 18  9  1  0  0  0  0
 19 21  1  0  0  0  0
 21 20  2  0  0  0  0
 22 23  1  0  0  0  0
 22 19  1  1  0  0  0
 23 27  1  6  0  0  0
 24 22  1  0  0  0  0
 25 24  1  0  0  0  0
 25 26  1  0  0  0  0
 26 23  1  0  0  0  0
 27 28  1  0  0  0  0
 30 28  1  0  0  0  0
 30 29  1  1  0  0  0
 31 30  1  0  0  0  0
 32 33  1  0  0  0  0
 34 32  2  0  0  0  0
 35  2  1  6  0  0  0
 35 38  1  0  0  0  0
 35 36  1  0  0  0  0
 36 37  1  0  0  0  0
 39 40  1  0  0  0  0
 39 38  1  0  0  0  0
 41 40  1  0  0  0  0
 43 46  1  0  0  0  0
 44 47  1  0  0  0  0
 44 45  1  0  0  0  0
 45 46  1  0  0  0  0
 46 42  1  1  0  0  0
 47 51  1  6  0  0  0
 47 48  1  0  0  0  0
 48 43  1  0  0  0  0
 49 50  2  0  0  0  0
 51 49  1  0  0  0  0
 52 49  1  0  0  0  0
 53 57  1  0  0  0  0
 54 52  1  1  0  0  0
 54 55  1  0  0  0  0
 54 53  1  0  0  0  0
 55 58  1  0  0  0  0
 56 59  2  0  0  0  0
 57 56  1  0  0  0  0
 58 56  1  0  0  0  0
 58 61  1  1  0  0  0
 61 60  1  0  0  0  0
 62 61  2  0  0  0  0
 63 64  1  0  0  0  0
 63 55  1  0  0  0  0
M  END
>  <MODEL>
4

>  <REMARK>
 VINA RESULT:      -6.0      2.386      7.895
  Name = 
  20 active torsions:
  status: ('A' for Active; 'I' for Inactive)
    1  A    between atoms: C_1  and  C_38
    2  A    between atoms: N_5  and  C_6
    3  A    between atoms: C_7  and  C_47
    4  A    between atoms: C_13  and  C_51
    5  A    between atoms: C_14  and  C_38
    6  A    between atoms: C_14  and  C_47
    7  A    between atoms: C_15  and  N_50
    8  A    between atoms: C_16  and  O_55
    9  A    between atoms: C_17  and  C_51
   10  A    between atoms: C_18  and  C_30
   11  A    between atoms: N_19  and  C_28
   12  A    between atoms: C_21  and  O_35
   13  A    between atoms: C_25  and  N_50
   14  A    between atoms: N_27  and  C_33
   15  A    between atoms: C_29  and  C_36
   16  A    between atoms: O_32  and  C_47
   17  A    between atoms: O_35  and  C_43
   18  A    between atoms: C_41  and  N_57
   19  A    between atoms: O_55  and  C_56
   20  A    between atoms: C_56  and  C_63
                            x       y       z     vdW  Elec       q    Type
                         _______ _______ _______ _____ _____    ______ ____

>  <TORSDO>
F 20

$$$$
=
 OpenBabel10232410553D

 64 70  0  0  1  0  0  0  0  0999 V2000
  190.3160  175.3680  134.7090 C   0  0  2  0  0  3  0  0  0  0  0  0
  192.2980  174.6050  136.5120 C   0  0  0  0  0  3  0  0  0  0  0  0
  188.8820  175.8500  136.5660 C   0  0  1  0  0  3  0  0  0  0  0  0
  189.6220  174.7680  135.7950 C   0  0  2  0  0  0  0  0  0  0  0  0
  191.1420  174.8300  135.8840 C   0  0  0  0  0  0  0  0  0  0  0  0
  189.0510  177.1070  135.8390 N   0  0  2  0  0  0  0  0  0  0  0  0
  190.1220  176.8640  134.8700 C   0  0  0  0  0  2  0  0  0  0  0  0
  190.0410  176.5470  139.9720 C   0  0  0  0  0  3  0  0  0  0  0  0
  188.9910  177.6240  141.9860 C   0  0  0  0  0  0  0  0  0  0  0  0
  188.7350  178.3670  138.9990 C   0  0  0  0  0  0  0  0  0  0  0  0
  190.5510  177.5360  137.7530 C   0  0  0  0  0  2  0  0  0  0  0  0
  190.0900  177.8120  139.1800 C   0  0  2  0  0  3  0  0  0  0  0  0
  189.4950  178.1250  136.7980 C   0  0  2  0  0  3  0  0  0  0  0  0
  188.2690  178.6060  141.4220 C   0  0  0  0  0  3  0  0  0  0  0  0
  189.5780  176.4910  141.2230 C   0  0  0  0  0  3  0  0  0  0  0  0
  187.9550  178.7830  139.9910 C   0  0  0  0  0  3  0  0  0  0  0  0
  188.3920  178.5600  137.6430 N   0  0  0  0  0  2  0  0  0  0  0  0
  189.1580  177.6940  143.3760 O   0  0  0  0  0  0  0  0  0  0  0  0
  190.4880  177.5260  145.4060 N   0  0  0  0  0  2  0  0  0  0  0  0
  190.7620  176.0390  143.6420 O   0  0  0  0  0  0  0  0  0  0  0  0
  190.1660  177.0500  144.1020 C   0  0  0  0  0  0  0  0  0  0  0  0
  189.9560  176.9000  146.6060 C   0  0  2  0  0  3  0  0  0  0  0  0
  189.6220  177.9580  147.6200 C   0  0  2  0  0  3  0  0  0  0  0  0
  191.0690  176.1600  147.3000 C   0  0  0  0  0  2  0  0  0  0  0  0
  191.8200  177.0970  148.0210 O   0  0  0  0  0  0  0  0  0  0  0  0
  190.9280  178.1310  148.3760 C   0  0  0  0  0  2  0  0  0  0  0  0
  188.6560  177.4660  148.5020 O   0  0  0  0  0  0  0  0  0  0  0  0
  187.6280  176.9690  147.6920 C   0  0  0  0  0  2  0  0  0  0  0  0
  185.6660  178.4640  147.4750 C   0  0  0  0  0  1  0  0  0  0  0  0
  187.0160  178.1050  146.8890 C   0  0  2  0  0  3  0  0  0  0  0  0
  186.8580  177.7220  145.5570 O   0  0  0  0  0  1  0  0  0  0  0  0
  189.0210  173.4220  135.4940 C   0  0  0  0  0  0  0  0  0  0  0  0
  188.8170  172.4280  136.5860 C   0  0  0  0  0  1  0  0  0  0  0  0
  188.7300  173.1240  134.3460 O   0  0  0  0  0  0  0  0  0  0  0  0
  193.6150  175.0070  135.9180 C   0  0  2  0  0  3  0  0  0  0  0  0
  193.9900  174.1140  134.9100 O   0  0  0  0  0  0  0  0  0  0  0  0
  193.7010  172.9240  135.3970 O   0  0  0  0  0  1  0  0  0  0  0  0
  194.6900  175.0740  136.9970 C   0  0  0  0  0  2  0  0  0  0  0  0
  196.0110  174.4990  136.5020 C   0  0  0  0  0  2  0  0  0  0  0  0
  196.5090  173.4000  137.4290 C   0  0  0  0  0  2  0  0  0  0  0  0
  195.6400  173.3130  138.6700 C   0  0  0  0  0  1  0  0  0  0  0  0
  187.4630  175.5460  136.6960 N   0  0  0  0  0  2  0  0  0  0  0  0
  185.7730  174.7290  135.1190 C   0  0  0  0  0  2  0  0  0  0  0  0
  184.7830  177.3070  135.4150 C   0  0  0  0  0  2  0  0  0  0  0  0
  186.3080  177.2180  135.3200 C   0  0  0  0  0  2  0  0  0  0  0  0
  186.8540  175.7810  135.3940 C   0  0  1  0  0  3  0  0  0  0  0  0
  184.2490  176.3190  136.4480 C   0  0  2  0  0  3  0  0  0  0  0  0
  184.5680  174.8650  136.0610 C   0  0  0  0  0  2  0  0  0  0  0  0
  182.0500  175.8190  137.5940 C   0  0  0  0  0  0  0  0  0  0  0  0
  182.6040  175.0100  138.3860 O   0  0  0  0  0  0  0  0  0  0  0  0
  182.8110  176.4910  136.5890 N   0  0  0  0  0  2  0  0  0  0  0  0
  180.5880  176.0840  137.7000 C   0  0  0  0  0  2  0  0  0  0  0  0
  181.0730  176.9180  139.9650 C   0  0  0  0  0  2  0  0  0  0  0  0
  180.3060  177.2170  138.6850 C   0  0  1  0  0  3  0  0  0  0  0  0
  180.7580  178.5080  138.1300 N   0  0  0  0  0  0  0  0  0  0  0  0
  180.7320  179.2760  140.5230 C   0  0  0  0  0  0  0  0  0  0  0  0
  180.8530  177.9450  140.9160 O   0  0  0  0  0  0  0  0  0  0  0  0
  180.5920  179.6440  139.0640 C   0  0  1  0  0  3  0  0  0  0  0  0
  180.6620  180.1730  141.4060 O   0  0  0  0  0  0  0  0  0  0  0  0
  181.1160  181.8800  138.4020 O   0  0  0  0  0  0  0  0  0  0  0  0
  181.5530  180.7400  138.7100 C   0  0  0  0  0  0  0  0  0  0  0  0
  182.9240  180.5040  138.7210 O   0  0  0  0  0  1  0  0  0  0  0  0
  179.9890  178.8170  136.9160 C   0  0  0  0  0  2  0  0  0  0  0  0
  180.8350  179.0430  135.8220 O   0  0  0  0  0  1  0  0  0  0  0  0
  1  7  1  1  0  0  0
  1  4  1  0  0  0  0
  1  5  1  0  0  0  0
  3 42  1  6  0  0  0
  4 32  1  6  0  0  0
  4  5  1  0  0  0  0
  4  3  1  0  0  0  0
  5  2  2  0  0  0  0
  6  7  1  6  0  0  0
  6  3  1  0  0  0  0
  6 13  1  0  0  0  0
  8 15  2  0  0  0  0
  9 18  1  0  0  0  0
 10 12  1  0  0  0  0
 10 16  2  0  0  0  0
 12 11  1  6  0  0  0
 12  8  1  0  0  0  0
 13 17  1  0  0  0  0
 13 11  1  1  0  0  0
 14  9  2  0  0  0  0
 15  9  1  0  0  0  0
 16 14  1  0  0  0  0
 17 10  1  0  0  0  0
 18 21  1  0  0  0  0
 20 21  2  0  0  0  0
 21 19  1  0  0  0  0
 22 19  1  6  0  0  0
 22 24  1  0  0  0  0
 22 23  1  0  0  0  0
 23 26  1  0  0  0  0
 23 27  1  1  0  0  0
 24 25  1  0  0  0  0
 25 26  1  0  0  0  0
 28 27  1  0  0  0  0
 30 29  1  1  0  0  0
 30 28  1  0  0  0  0
 31 30  1  0  0  0  0
 32 33  1  0  0  0  0
 34 32  2  0  0  0  0
 35  2  1  1  0  0  0
 35 38  1  0  0  0  0
 36 37  1  0  0  0  0
 36 35  1  0  0  0  0
 39 38  1  0  0  0  0
 39 40  1  0  0  0  0
 40 41  1  0  0  0  0
 43 46  1  0  0  0  0
 43 48  1  0  0  0  0
 44 47  1  0  0  0  0
 45 46  1  0  0  0  0
 45 44  1  0  0  0  0
 46 42  1  1  0  0  0
 47 51  1  6  0  0  0
 48 47  1  0  0  0  0
 49 52  1  0  0  0  0
 49 50  2  0  0  0  0
 51 49  1  0  0  0  0
 53 57  1  0  0  0  0
 54 52  1  6  0  0  0
 54 53  1  0  0  0  0
 55 54  1  0  0  0  0
 55 58  1  0  0  0  0
 56 57  1  0  0  0  0
 56 59  2  0  0  0  0
 58 61  1  6  0  0  0
 58 56  1  0  0  0  0
 60 61  2  0  0  0  0
 61 62  1  0  0  0  0
 63 55  1  0  0  0  0
 64 63  1  0  0  0  0
M  END
>  <MODEL>
5

>  <REMARK>
 VINA RESULT:      -5.8      2.920     10.565
  Name = 
  20 active torsions:
  status: ('A' for Active; 'I' for Inactive)
    1  A    between atoms: C_1  and  C_38
    2  A    between atoms: N_5  and  C_6
    3  A    between atoms: C_7  and  C_47
    4  A    between atoms: C_13  and  C_51
    5  A    between atoms: C_14  and  C_38
    6  A    between atoms: C_14  and  C_47
    7  A    between atoms: C_15  and  N_50
    8  A    between atoms: C_16  and  O_55
    9  A    between atoms: C_17  and  C_51
   10  A    between atoms: C_18  and  C_30
   11  A    between atoms: N_19  and  C_28
   12  A    between atoms: C_21  and  O_35
   13  A    between atoms: C_25  and  N_50
   14  A    between atoms: N_27  and  C_33
   15  A    between atoms: C_29  and  C_36
   16  A    between atoms: O_32  and  C_47
   17  A    between atoms: O_35  and  C_43
   18  A    between atoms: C_41  and  N_57
   19  A    between atoms: O_55  and  C_56
   20  A    between atoms: C_56  and  C_63
                            x       y       z     vdW  Elec       q    Type
                         _______ _______ _______ _____ _____    ______ ____

>  <TORSDO>
F 20

$$$$
=
 OpenBabel10232410553D

 64 70  0  0  1  0  0  0  0  0999 V2000
  186.6910  176.0050  137.3240 C   0  0  2  0  0  3  0  0  0  0  0  0
  184.8690  177.9180  136.4370 C   0  0  0  0  0  3  0  0  0  0  0  0
  188.3830  177.7020  137.3500 C   0  0  1  0  0  3  0  0  0  0  0  0
  187.4410  176.8760  136.4860 C   0  0  2  0  0  0  0  0  0  0  0  0
  185.9590  177.1810  136.6650 C   0  0  0  0  0  0  0  0  0  0  0  0
  188.2660  177.2150  138.7230 N   0  0  2  0  0  0  0  0  0  0  0  0
  187.0660  176.3760  138.7460 C   0  0  0  0  0  2  0  0  0  0  0  0
  187.4770  177.2070  142.9360 C   0  0  0  0  0  3  0  0  0  0  0  0
  185.4810  178.1360  144.1500 C   0  0  0  0  0  0  0  0  0  0  0  0
  186.3930  178.5810  141.2330 C   0  0  0  0  0  0  0  0  0  0  0  0
  188.6890  178.1310  140.9770 C   0  0  0  0  0  2  0  0  0  0  0  0
  187.6180  178.3870  142.0320 C   0  0  2  0  0  3  0  0  0  0  0  0
  188.0540  178.3770  139.5960 C   0  0  2  0  0  3  0  0  0  0  0  0
  184.8970  178.8710  143.1890 C   0  0  0  0  0  3  0  0  0  0  0  0
  186.5420  177.1290  143.8870 C   0  0  0  0  0  3  0  0  0  0  0  0
  185.2000  178.8640  141.7440 C   0  0  0  0  0  3  0  0  0  0  0  0
  186.6340  178.5880  139.8420 N   0  0  0  0  0  2  0  0  0  0  0  0
  185.0200  178.3420  145.4570 O   0  0  0  0  0  0  0  0  0  0  0  0
  186.9160  177.8910  146.9150 N   0  0  0  0  0  2  0  0  0  0  0  0
  185.6020  179.7900  147.1750 O   0  0  0  0  0  0  0  0  0  0  0  0
  185.8160  178.7180  146.5460 C   0  0  0  0  0  0  0  0  0  0  0  0
  188.2750  178.1880  146.4960 C   0  0  2  0  0  3  0  0  0  0  0  0
  189.0240  176.9050  146.2680 C   0  0  2  0  0  3  0  0  0  0  0  0
  189.0260  178.7690  147.6660 C   0  0  0  0  0  2  0  0  0  0  0  0
  189.4220  177.7070  148.4880 O   0  0  0  0  0  0  0  0  0  0  0  0
  189.5920  176.5920  147.6420 C   0  0  0  0  0  2  0  0  0  0  0  0
  190.0850  177.1360  145.3870 O   0  0  0  0  0  0  0  0  0  0  0  0
  189.7730  178.3350  144.7340 C   0  0  0  0  0  2  0  0  0  0  0  0
  191.7300  177.5050  143.4630 C   0  0  0  0  0  1  0  0  0  0  0  0
  190.9240  178.7360  143.8270 C   0  0  2  0  0  3  0  0  0  0  0  0
  191.7490  179.6560  144.4740 O   0  0  0  0  0  1  0  0  0  0  0  0
  187.8500  176.2850  135.1650 C   0  0  0  0  0  0  0  0  0  0  0  0
  187.5720  174.8520  134.8630 C   0  0  0  0  0  1  0  0  0  0  0  0
  188.4450  176.9680  134.3460 O   0  0  0  0  0  0  0  0  0  0  0  0
  183.5420  177.5810  137.0490 C   0  0  2  0  0  3  0  0  0  0  0  0
  182.7820  176.8010  136.1730 O   0  0  0  0  0  0  0  0  0  0  0  0
  183.4810  175.6940  136.0220 O   0  0  0  0  0  1  0  0  0  0  0  0
  182.7870  178.8520  137.4210 C   0  0  0  0  0  2  0  0  0  0  0  0
  182.8300  179.1050  138.9220 C   0  0  0  0  0  2  0  0  0  0  0  0
  181.9530  180.2900  139.3020 C   0  0  0  0  0  2  0  0  0  0  0  0
  180.6560  180.2670  138.5160 C   0  0  0  0  0  1  0  0  0  0  0  0
  189.7650  177.5860  136.9050 N   0  0  0  0  0  2  0  0  0  0  0  0
  190.3790  175.2140  136.8690 C   0  0  0  0  0  2  0  0  0  0  0  0
  192.9130  176.2410  137.3550 C   0  0  0  0  0  2  0  0  0  0  0  0
  191.7870  176.9300  138.1300 C   0  0  0  0  0  2  0  0  0  0  0  0
  190.3760  176.5150  137.6790 C   0  0  1  0  0  3  0  0  0  0  0  0
  192.5630  176.1380  135.8730 C   0  0  2  0  0  3  0  0  0  0  0  0
  191.3030  175.2860  135.6450 C   0  0  0  0  0  2  0  0  0  0  0  0
  194.1710  174.2480  135.3870 C   0  0  0  0  0  0  0  0  0  0  0  0
  193.6530  173.5280  136.2820 O   0  0  0  0  0  0  0  0  0  0  0  0
  193.6870  175.5700  135.1450 N   0  0  0  0  0  2  0  0  0  0  0  0
  195.3000  173.7240  134.5680 C   0  0  0  0  0  2  0  0  0  0  0  0
  197.1480  172.0980  134.5340 C   0  0  0  0  0  2  0  0  0  0  0  0
  196.3190  172.9960  135.4420 C   0  0  1  0  0  3  0  0  0  0  0  0
  197.2050  173.9650  136.1180 N   0  0  0  0  0  0  0  0  0  0  0  0
  198.7590  172.0060  136.3750 C   0  0  0  0  0  0  0  0  0  0  0  0
  198.1200  171.4010  135.2940 O   0  0  0  0  0  0  0  0  0  0  0  0
  198.2740  173.3290  136.9200 C   0  0  1  0  0  3  0  0  0  0  0  0
  199.7040  171.4000  136.9470 O   0  0  0  0  0  0  0  0  0  0  0  0
  199.7880  174.9910  136.1080 O   0  0  0  0  0  0  0  0  0  0  0  0
  199.4250  174.2780  137.0800 C   0  0  0  0  0  0  0  0  0  0  0  0
  200.0920  174.3750  138.2970 O   0  0  0  0  0  1  0  0  0  0  0  0
  196.4110  174.8050  137.0250 C   0  0  0  0  0  2  0  0  0  0  0  0
  197.0810  175.0150  138.2390 O   0  0  0  0  0  1  0  0  0  0  0  0
  1  7  1  1  0  0  0
  2  5  2  0  0  0  0
  3 42  1  6  0  0  0
  3  6  1  0  0  0  0
  4 32  1  6  0  0  0
  4  5  1  0  0  0  0
  4  1  1  0  0  0  0
  4  3  1  0  0  0  0
  5  1  1  0  0  0  0
  6  7  1  6  0  0  0
  6 13  1  0  0  0  0
  8 15  2  0  0  0  0
  9 18  1  0  0  0  0
 10 16  2  0  0  0  0
 10 12  1  0  0  0  0
 12 11  1  6  0  0  0
 12  8  1  0  0  0  0
 13 17  1  0  0  0  0
 13 11  1  1  0  0  0
 14  9  2  0  0  0  0
 15  9  1  0  0  0  0
 16 14  1  0  0  0  0
 17 10  1  0  0  0  0
 18 21  1  0  0  0  0
 21 19  1  0  0  0  0
 21 20  2  0  0  0  0
 22 19  1  1  0  0  0
 22 24  1  0  0  0  0
 23 27  1  6  0  0  0
 23 22  1  0  0  0  0
 23 26  1  0  0  0  0
 24 25  1  0  0  0  0
 26 25  1  0  0  0  0
 28 27  1  0  0  0  0
 30 29  1  1  0  0  0
 30 31  1  0  0  0  0
 30 28  1  0  0  0  0
 33 32  1  0  0  0  0
 34 32  2  0  0  0  0
 35  2  1  6  0  0  0
 35 38  1  0  0  0  0
 36 35  1  0  0  0  0
 37 36  1  0  0  0  0
 38 39  1  0  0  0  0
 39 40  1  0  0  0  0
 41 40  1  0  0  0  0
 43 46  1  0  0  0  0
 44 45  1  0  0  0  0
 46 42  1  6  0  0  0
 46 45  1  0  0  0  0
 47 51  1  6  0  0  0
 47 44  1  0  0  0  0
 48 47  1  0  0  0  0
 48 43  1  0  0  0  0
 49 50  2  0  0  0  0
 51 49  1  0  0  0  0
 52 49  1  0  0  0  0
 53 57  1  0  0  0  0
 53 54  1  0  0  0  0
 54 52  1  6  0  0  0
 54 55  1  0  0  0  0
 55 58  1  0  0  0  0
 55 63  1  0  0  0  0
 56 58  1  0  0  0  0
 56 59  2  0  0  0  0
 57 56  1  0  0  0  0
 58 61  1  6  0  0  0
 60 61  2  0  0  0  0
 61 62  1  0  0  0  0
 63 64  1  0  0  0  0
M  END
>  <MODEL>
6

>  <REMARK>
 VINA RESULT:      -5.5      1.605      2.139
  Name = 
  20 active torsions:
  status: ('A' for Active; 'I' for Inactive)
    1  A    between atoms: C_1  and  C_38
    2  A    between atoms: N_5  and  C_6
    3  A    between atoms: C_7  and  C_47
    4  A    between atoms: C_13  and  C_51
    5  A    between atoms: C_14  and  C_38
    6  A    between atoms: C_14  and  C_47
    7  A    between atoms: C_15  and  N_50
    8  A    between atoms: C_16  and  O_55
    9  A    between atoms: C_17  and  C_51
   10  A    between atoms: C_18  and  C_30
   11  A    between atoms: N_19  and  C_28
   12  A    between atoms: C_21  and  O_35
   13  A    between atoms: C_25  and  N_50
   14  A    between atoms: N_27  and  C_33
   15  A    between atoms: C_29  and  C_36
   16  A    between atoms: O_32  and  C_47
   17  A    between atoms: O_35  and  C_43
   18  A    between atoms: C_41  and  N_57
   19  A    between atoms: O_55  and  C_56
   20  A    between atoms: C_56  and  C_63
                            x       y       z     vdW  Elec       q    Type
                         _______ _______ _______ _____ _____    ______ ____

>  <TORSDO>
F 20

$$$$
=
 OpenBabel10232410553D

 64 70  0  0  1  0  0  0  0  0999 V2000
  188.5120  176.3050  144.8280 C   0  0  2  0  0  3  0  0  0  0  0  0
  189.7720  178.4650  146.0570 C   0  0  0  0  0  3  0  0  0  0  0  0
  187.3220  177.8540  143.4400 C   0  0  1  0  0  3  0  0  0  0  0  0
  187.5380  177.3400  144.8560 C   0  0  2  0  0  0  0  0  0  0  0  0
  188.9020  177.6480  145.4590 C   0  0  0  0  0  0  0  0  0  0  0  0
  188.1070  177.0130  142.5390 N   0  0  2  0  0  0  0  0  0  0  0  0
  189.0170  176.2520  143.3990 C   0  0  0  0  0  2  0  0  0  0  0  0
  189.3400  176.2830  138.5000 C   0  0  0  0  0  3  0  0  0  0  0  0
  191.6760  176.1910  137.5760 C   0  0  0  0  0  0  0  0  0  0  0  0
  190.6780  177.2440  140.3020 C   0  0  0  0  0  0  0  0  0  0  0  0
  188.3940  177.8040  140.2180 C   0  0  0  0  0  2  0  0  0  0  0  0
  189.5960  177.4960  139.3320 C   0  0  2  0  0  3  0  0  0  0  0  0
  188.8950  177.8960  141.6710 C   0  0  2  0  0  3  0  0  0  0  0  0
  192.3900  176.7080  138.5900 C   0  0  0  0  0  3  0  0  0  0  0  0
  190.2670  175.7380  137.7070 C   0  0  0  0  0  3  0  0  0  0  0  0
  191.9340  176.9620  139.9710 C   0  0  0  0  0  3  0  0  0  0  0  0
  190.2900  177.4820  141.6380 N   0  0  0  0  0  2  0  0  0  0  0  0
  192.3420  176.0650  136.3490 O   0  0  0  0  0  0  0  0  0  0  0  0
  193.8720  174.4660  135.3370 N   0  0  0  0  0  2  0  0  0  0  0  0
  191.5750  174.1150  135.3520 O   0  0  0  0  0  0  0  0  0  0  0  0
  192.5420  174.8640  135.6570 C   0  0  0  0  0  0  0  0  0  0  0  0
  194.6040  173.5070  136.1480 C   0  0  2  0  0  3  0  0  0  0  0  0
  196.0580  173.8830  136.1840 C   0  0  2  0  0  3  0  0  0  0  0  0
  194.6540  172.1920  135.4140 C   0  0  0  0  0  2  0  0  0  0  0  0
  195.6680  172.2790  134.4520 O   0  0  0  0  0  0  0  0  0  0  0  0
  196.6260  173.1780  134.9650 C   0  0  0  0  0  2  0  0  0  0  0  0
  196.6490  173.3430  137.3300 O   0  0  0  0  0  0  0  0  0  0  0  0
  197.3600  174.3960  137.9170 C   0  0  0  0  0  2  0  0  0  0  0  0
  199.6570  174.4960  138.8380 C   0  0  0  0  0  1  0  0  0  0  0  0
  198.8370  174.2610  137.5850 C   0  0  2  0  0  3  0  0  0  0  0  0
  199.1990  175.1940  136.6120 O   0  0  0  0  0  1  0  0  0  0  0  0
  186.4090  177.1190  145.8260 C   0  0  0  0  0  0  0  0  0  0  0  0
  185.8110  178.2710  146.5590 C   0  0  0  0  0  1  0  0  0  0  0  0
  186.0010  175.9890  146.0440 O   0  0  0  0  0  0  0  0  0  0  0  0
  191.1680  178.0310  146.3930 C   0  0  2  0  0  3  0  0  0  0  0  0
  191.8230  177.5640  145.2500 O   0  0  0  0  0  0  0  0  0  0  0  0
  191.7820  178.5750  144.4070 O   0  0  0  0  0  1  0  0  0  0  0  0
  191.1480  176.9560  147.4730 C   0  0  0  0  0  2  0  0  0  0  0  0
  192.2470  175.9250  147.2500 C   0  0  0  0  0  2  0  0  0  0  0  0
  192.9570  175.5940  148.5540 C   0  0  0  0  0  2  0  0  0  0  0  0
  192.7600  176.7060  149.5670 C   0  0  0  0  0  1  0  0  0  0  0  0
  185.9170  177.8050  143.0560 N   0  0  0  0  0  2  0  0  0  0  0  0
  185.2910  179.3530  141.2610 C   0  0  0  0  0  2  0  0  0  0  0  0
  182.9630  179.5670  142.7600 C   0  0  0  0  0  2  0  0  0  0  0  0
  184.2510  179.5260  143.5870 C   0  0  0  0  0  2  0  0  0  0  0  0
  185.5050  179.1720  142.7680 C   0  0  1  0  0  3  0  0  0  0  0  0
  182.9390  178.4310  141.7420 C   0  0  2  0  0  3  0  0  0  0  0  0
  184.0960  178.5450  140.7360 C   0  0  0  0  0  2  0  0  0  0  0  0
  181.3350  177.4660  140.0410 C   0  0  0  0  0  0  0  0  0  0  0  0
  182.1670  176.5810  139.7040 O   0  0  0  0  0  0  0  0  0  0  0  0
  181.6660  178.4330  141.0390 N   0  0  0  0  0  2  0  0  0  0  0  0
  179.9930  177.5120  139.3970 C   0  0  0  0  0  2  0  0  0  0  0  0
  180.6870  179.4600  138.0600 C   0  0  0  0  0  2  0  0  0  0  0  0
  180.0840  178.0650  137.9760 C   0  0  1  0  0  3  0  0  0  0  0  0
  180.9480  177.2050  137.1420 N   0  0  0  0  0  0  0  0  0  0  0  0
  181.1360  179.2300  135.6650 C   0  0  0  0  0  0  0  0  0  0  0  0
  180.8040  180.0200  136.7640 O   0  0  0  0  0  0  0  0  0  0  0  0
  181.1500  177.7220  135.7710 C   0  0  1  0  0  3  0  0  0  0  0  0
  181.3520  179.7840  134.5540 O   0  0  0  0  0  0  0  0  0  0  0  0
  182.4710  175.9810  134.8020 O   0  0  0  0  0  0  0  0  0  0  0  0
  182.4260  177.1740  135.2020 C   0  0  0  0  0  0  0  0  0  0  0  0
  183.5590  177.9770  135.1140 O   0  0  0  0  0  1  0  0  0  0  0  0
  180.3450  175.8690  137.0260 C   0  0  0  0  0  2  0  0  0  0  0  0
  181.2250  174.8740  137.4730 O   0  0  0  0  0  1  0  0  0  0  0  0
  1  7  1  6  0  0  0
  1  4  1  0  0  0  0
  1  5  1  0  0  0  0
  3 42  1  6  0  0  0
  3  4  1  0  0  0  0
  4  5  1  0  0  0  0
  4 32  1  1  0  0  0
  5  2  2  0  0  0  0
  6  7  1  1  0  0  0
  6  3  1  0  0  0  0
  9 15  1  0  0  0  0
  9 14  2  0  0  0  0
 10 17  1  0  0  0  0
 12  8  1  1  0  0  0
 12 11  1  0  0  0  0
 12 10  1  0  0  0  0
 13 11  1  6  0  0  0
 13  6  1  0  0  0  0
 14 16  1  0  0  0  0
 15  8  2  0  0  0  0
 16 10  2  0  0  0  0
 17 13  1  0  0  0  0
 18  9  1  0  0  0  0
 19 21  1  0  0  0  0
 20 21  2  0  0  0  0
 21 18  1  0  0  0  0
 22 19  1  6  0  0  0
 22 23  1  0  0  0  0
 23 27  1  1  0  0  0
 24 22  1  0  0  0  0
 25 26  1  0  0  0  0
 25 24  1  0  0  0  0
 26 23  1  0  0  0  0
 27 28  1  0  0  0  0
 30 28  1  0  0  0  0
 30 29  1  1  0  0  0
 31 30  1  0  0  0  0
 32 34  2  0  0  0  0
 32 33  1  0  0  0  0
 35  2  1  6  0  0  0
 35 38  1  0  0  0  0
 36 35  1  0  0  0  0
 37 36  1  0  0  0  0
 39 38  1  0  0  0  0
 39 40  1  0  0  0  0
 40 41  1  0  0  0  0
 43 46  1  0  0  0  0
 44 45  1  0  0  0  0
 46 42  1  6  0  0  0
 46 45  1  0  0  0  0
 47 51  1  6  0  0  0
 47 44  1  0  0  0  0
 48 43  1  0  0  0  0
 48 47  1  0  0  0  0
 49 51  1  0  0  0  0
 50 49  2  0  0  0  0
 52 49  1  0  0  0  0
 54 53  1  0  0  0  0
 54 52  1  1  0  0  0
 55 54  1  0  0  0  0
 56 58  1  0  0  0  0
 56 57  1  0  0  0  0
 57 53  1  0  0  0  0
 58 61  1  1  0  0  0
 58 55  1  0  0  0  0
 59 56  2  0  0  0  0
 60 61  2  0  0  0  0
 62 61  1  0  0  0  0
 63 55  1  0  0  0  0
 63 64  1  0  0  0  0
M  END
>  <MODEL>
7

>  <REMARK>
 VINA RESULT:      -5.3      2.543     12.782
  Name = 
  20 active torsions:
  status: ('A' for Active; 'I' for Inactive)
    1  A    between atoms: C_1  and  C_38
    2  A    between atoms: N_5  and  C_6
    3  A    between atoms: C_7  and  C_47
    4  A    between atoms: C_13  and  C_51
    5  A    between atoms: C_14  and  C_38
    6  A    between atoms: C_14  and  C_47
    7  A    between atoms: C_15  and  N_50
    8  A    between atoms: C_16  and  O_55
    9  A    between atoms: C_17  and  C_51
   10  A    between atoms: C_18  and  C_30
   11  A    between atoms: N_19  and  C_28
   12  A    between atoms: C_21  and  O_35
   13  A    between atoms: C_25  and  N_50
   14  A    between atoms: N_27  and  C_33
   15  A    between atoms: C_29  and  C_36
   16  A    between atoms: O_32  and  C_47
   17  A    between atoms: O_35  and  C_43
   18  A    between atoms: C_41  and  N_57
   19  A    between atoms: O_55  and  C_56
   20  A    between atoms: C_56  and  C_63
                            x       y       z     vdW  Elec       q    Type
                         _______ _______ _______ _____ _____    ______ ____

>  <TORSDO>
F 20

$$$$
=
 OpenBabel10232410553D

 64 70  0  0  1  0  0  0  0  0999 V2000
  188.5080  178.8870  141.9460 C   0  0  2  0  0  3  0  0  0  0  0  0
  188.0590  176.4130  143.1480 C   0  0  0  0  0  3  0  0  0  0  0  0
  187.5100  178.0360  139.9400 C   0  0  1  0  0  3  0  0  0  0  0  0
  188.6790  177.9300  140.9080 C   0  0  2  0  0  0  0  0  0  0  0  0
  188.3300  177.4030  142.2940 C   0  0  0  0  0  0  0  0  0  0  0  0
  186.6900  179.1710  140.3590 N   0  0  2  0  0  0  0  0  0  0  0  0
  187.1490  179.5160  141.7070 C   0  0  0  0  0  2  0  0  0  0  0  0
  184.5550  176.8300  137.4730 C   0  0  0  0  0  3  0  0  0  0  0  0
  182.4580  177.4300  136.2220 C   0  0  0  0  0  0  0  0  0  0  0  0
  183.7370  178.7840  138.6860 C   0  0  0  0  0  0  0  0  0  0  0  0
  185.1620  177.3040  139.8320 C   0  0  0  0  0  2  0  0  0  0  0  0
  184.0580  177.3480  138.7820 C   0  0  2  0  0  3  0  0  0  0  0  0
  185.2960  178.7170  140.4310 C   0  0  2  0  0  3  0  0  0  0  0  0
  182.0400  178.5130  136.8980 C   0  0  0  0  0  3  0  0  0  0  0  0
  183.8200  176.8490  136.3580 C   0  0  0  0  0  3  0  0  0  0  0  0
  182.7930  179.2930  137.9000 C   0  0  0  0  0  3  0  0  0  0  0  0
  184.4300  179.5710  139.6310 N   0  0  0  0  0  2  0  0  0  0  0  0
  181.5380  176.8590  135.3320 O   0  0  0  0  0  0  0  0  0  0  0  0
  181.7480  174.5000  134.7710 N   0  0  0  0  0  2  0  0  0  0  0  0
  179.9960  175.2940  136.0760 O   0  0  0  0  0  0  0  0  0  0  0  0
  181.0370  175.5550  135.4130 C   0  0  0  0  0  0  0  0  0  0  0  0
  182.6570  173.6310  135.4990 C   0  0  2  0  0  3  0  0  0  0  0  0
  183.1120  172.5140  134.6040 C   0  0  2  0  0  3  0  0  0  0  0  0
  181.8730  172.8780  136.5420 C   0  0  0  0  0  2  0  0  0  0  0  0
  181.2300  171.8100  135.9040 O   0  0  0  0  0  0  0  0  0  0  0  0
  182.0460  171.4530  134.8100 C   0  0  0  0  0  2  0  0  0  0  0  0
  184.3340  172.0170  135.0660 O   0  0  0  0  0  0  0  0  0  0  0  0
  185.2010  173.1150  135.0870 C   0  0  0  0  0  2  0  0  0  0  0  0
  186.7140  171.2690  134.4290 C   0  0  0  0  0  1  0  0  0  0  0  0
  186.4880  172.7650  134.3580 C   0  0  2  0  0  3  0  0  0  0  0  0
  187.5680  173.4270  134.9420 O   0  0  0  0  0  1  0  0  0  0  0  0
  190.1000  177.7370  140.4550 C   0  0  0  0  0  0  0  0  0  0  0  0
  191.1120  177.1490  141.3790 C   0  0  0  0  0  1  0  0  0  0  0  0
  190.4410  178.0940  139.3370 O   0  0  0  0  0  0  0  0  0  0  0  0
  187.7430  176.6730  144.5910 C   0  0  2  0  0  3  0  0  0  0  0  0
  186.4450  177.1710  144.7250 O   0  0  0  0  0  0  0  0  0  0  0  0
  186.2270  177.1870  146.0250 O   0  0  0  0  0  1  0  0  0  0  0  0
  188.7520  177.6460  145.1920 C   0  0  0  0  0  2  0  0  0  0  0  0
  189.4610  177.0380  146.3950 C   0  0  0  0  0  2  0  0  0  0  0  0
  190.8250  176.4890  146.0050 C   0  0  0  0  0  2  0  0  0  0  0  0
  191.5010  177.4030  145.0010 C   0  0  0  0  0  1  0  0  0  0  0  0
  187.9600  178.2370  138.5690 N   0  0  0  0  0  2  0  0  0  0  0  0
  187.6500  177.3930  136.2890 C   0  0  0  0  0  2  0  0  0  0  0  0
  189.1690  175.2800  137.2600 C   0  0  0  0  0  2  0  0  0  0  0  0
  188.1180  175.8110  138.2380 C   0  0  0  0  0  2  0  0  0  0  0  0
  187.4510  177.1210  137.7840 C   0  0  1  0  0  3  0  0  0  0  0  0
  190.0000  176.4250  136.6870 C   0  0  2  0  0  3  0  0  0  0  0  0
  189.1330  177.4120  135.8880 C   0  0  0  0  0  2  0  0  0  0  0  0
  191.5310  174.5470  135.9630 C   0  0  0  0  0  0  0  0  0  0  0  0
  191.0740  173.7810  136.8530 O   0  0  0  0  0  0  0  0  0  0  0  0
  191.0520  175.8870  135.8390 N   0  0  0  0  0  2  0  0  0  0  0  0
  192.5810  174.0590  135.0250 C   0  0  0  0  0  2  0  0  0  0  0  0
  194.1780  172.1860  134.9390 C   0  0  0  0  0  2  0  0  0  0  0  0
  193.7120  173.3650  135.7830 C   0  0  1  0  0  3  0  0  0  0  0  0
  194.8380  174.2950  135.9950 N   0  0  0  0  0  0  0  0  0  0  0  0
  196.1940  172.2050  136.3280 C   0  0  0  0  0  0  0  0  0  0  0  0
  195.2370  171.5080  135.5930 O   0  0  0  0  0  0  0  0  0  0  0  0
  196.0070  173.6690  136.6530 C   0  0  1  0  0  3  0  0  0  0  0  0
  197.1870  171.5810  136.7890 O   0  0  0  0  0  0  0  0  0  0  0  0
  197.7490  174.3540  135.1660 O   0  0  0  0  0  0  0  0  0  0  0  0
  197.2520  174.4370  136.3200 C   0  0  0  0  0  0  0  0  0  0  0  0
  197.8590  175.2420  137.2790 O   0  0  0  0  0  1  0  0  0  0  0  0
  194.3990  175.4110  136.8450 C   0  0  0  0  0  2  0  0  0  0  0  0
  194.6180  176.6450  136.2150 O   0  0  0  0  0  1  0  0  0  0  0  0
  1  7  1  6  0  0  0
  1  5  1  0  0  0  0
  3 42  1  6  0  0  0
  3  6  1  0  0  0  0
  3  4  1  0  0  0  0
  4 32  1  6  0  0  0
  4  1  1  0  0  0  0
  4  5  1  0  0  0  0
  5  2  2  0  0  0  0
  6 13  1  0  0  0  0
  6  7  1  1  0  0  0
  9 15  1  0  0  0  0
  9 14  2  0  0  0  0
 10 12  1  0  0  0  0
 10 17  1  0  0  0  0
 12  8  1  6  0  0  0
 12 11  1  0  0  0  0
 13 11  1  6  0  0  0
 14 16  1  0  0  0  0
 15  8  2  0  0  0  0
 16 10  2  0  0  0  0
 17 13  1  0  0  0  0
 18 21  1  0  0  0  0
 18  9  1  0  0  0  0
 19 21  1  0  0  0  0
 21 20  2  0  0  0  0
 22 19  1  6  0  0  0
 22 24  1  0  0  0  0
 23 26  1  0  0  0  0
 23 27  1  1  0  0  0
 23 22  1  0  0  0  0
 25 24  1  0  0  0  0
 26 25  1  0  0  0  0
 27 28  1  0  0  0  0
 30 29  1  1  0  0  0
 30 31  1  0  0  0  0
 30 28  1  0  0  0  0
 32 33  1  0  0  0  0
 34 32  2  0  0  0  0
 35  2  1  6  0  0  0
 35 36  1  0  0  0  0
 35 38  1  0  0  0  0
 36 37  1  0  0  0  0
 38 39  1  0  0  0  0
 40 39  1  0  0  0  0
 41 40  1  0  0  0  0
 43 46  1  0  0  0  0
 44 45  1  0  0  0  0
 46 45  1  0  0  0  0
 46 42  1  1  0  0  0
 47 51  1  6  0  0  0
 47 44  1  0  0  0  0
 48 43  1  0  0  0  0
 48 47  1  0  0  0  0
 49 50  2  0  0  0  0
 51 49  1  0  0  0  0
 52 49  1  0  0  0  0
 53 57  1  0  0  0  0
 53 54  1  0  0  0  0
 54 52  1  6  0  0  0
 54 55  1  0  0  0  0
 55 58  1  0  0  0  0
 55 63  1  0  0  0  0
 56 58  1  0  0  0  0
 56 59  2  0  0  0  0
 57 56  1  0  0  0  0
 58 61  1  6  0  0  0
 60 61  2  0  0  0  0
 61 62  1  0  0  0  0
 64 63  1  0  0  0  0
M  END
>  <MODEL>
8

>  <REMARK>
 VINA RESULT:      -5.1      2.544      8.021
  Name = 
  20 active torsions:
  status: ('A' for Active; 'I' for Inactive)
    1  A    between atoms: C_1  and  C_38
    2  A    between atoms: N_5  and  C_6
    3  A    between atoms: C_7  and  C_47
    4  A    between atoms: C_13  and  C_51
    5  A    between atoms: C_14  and  C_38
    6  A    between atoms: C_14  and  C_47
    7  A    between atoms: C_15  and  N_50
    8  A    between atoms: C_16  and  O_55
    9  A    between atoms: C_17  and  C_51
   10  A    between atoms: C_18  and  C_30
   11  A    between atoms: N_19  and  C_28
   12  A    between atoms: C_21  and  O_35
   13  A    between atoms: C_25  and  N_50
   14  A    between atoms: N_27  and  C_33
   15  A    between atoms: C_29  and  C_36
   16  A    between atoms: O_32  and  C_47
   17  A    between atoms: O_35  and  C_43
   18  A    between atoms: C_41  and  N_57
   19  A    between atoms: O_55  and  C_56
   20  A    between atoms: C_56  and  C_63
                            x       y       z     vdW  Elec       q    Type
                         _______ _______ _______ _____ _____    ______ ____

>  <TORSDO>
F 20

$$$$
=
 OpenBabel10232410553D

 64 70  0  0  1  0  0  0  0  0999 V2000
  187.1960  176.1350  137.6980 C   0  0  2  0  0  3  0  0  0  0  0  0
  185.6420  178.4460  137.7790 C   0  0  0  0  0  3  0  0  0  0  0  0
  189.0790  177.4830  137.0840 C   0  0  1  0  0  3  0  0  0  0  0  0
  187.7100  176.9670  136.6660 C   0  0  2  0  0  0  0  0  0  0  0  0
  186.5380  177.5030  137.4780 C   0  0  0  0  0  0  0  0  0  0  0  0
  189.4300  176.8370  138.3470 N   0  0  2  0  0  0  0  0  0  0  0  0
  188.1910  176.2290  138.8390 C   0  0  0  0  0  2  0  0  0  0  0  0
  191.5230  176.3290  142.0520 C   0  0  0  0  0  3  0  0  0  0  0  0
  190.7920  177.0040  144.3610 C   0  0  0  0  0  0  0  0  0  0  0  0
  189.6350  177.8130  141.6140 C   0  0  0  0  0  0  0  0  0  0  0  0
  191.2210  177.5270  139.9000 C   0  0  0  0  0  2  0  0  0  0  0  0
  191.0810  177.6050  141.4160 C   0  0  2  0  0  3  0  0  0  0  0  0
  189.8550  177.8830  139.2850 C   0  0  2  0  0  3  0  0  0  0  0  0
  189.7460  177.8030  144.0910 C   0  0  0  0  0  3  0  0  0  0  0  0
  191.4130  176.0940  143.3620 C   0  0  0  0  0  3  0  0  0  0  0  0
  189.0530  177.9700  142.7990 C   0  0  0  0  0  3  0  0  0  0  0  0
  188.9290  177.9840  140.4030 N   0  0  0  0  0  2  0  0  0  0  0  0
  191.2800  177.0410  145.6740 O   0  0  0  0  0  0  0  0  0  0  0  0
  189.3210  178.1450  146.6040 N   0  0  0  0  0  2  0  0  0  0  0  0
  190.9470  177.1940  147.9650 O   0  0  0  0  0  0  0  0  0  0  0  0
  190.5530  177.4560  146.7960 C   0  0  0  0  0  0  0  0  0  0  0  0
  188.0390  177.4640  146.6810 C   0  0  2  0  0  3  0  0  0  0  0  0
  186.9270  178.4640  146.5360 C   0  0  2  0  0  3  0  0  0  0  0  0
  187.8300  176.9880  148.0950 C   0  0  0  0  0  2  0  0  0  0  0  0
  187.3900  178.0790  148.8520 O   0  0  0  0  0  0  0  0  0  0  0  0
  186.6890  178.9220  147.9640 C   0  0  0  0  0  2  0  0  0  0  0  0
  185.7770  177.8160  146.0760 O   0  0  0  0  0  0  0  0  0  0  0  0
  184.8490  178.8330  145.8250 C   0  0  0  0  0  2  0  0  0  0  0  0
  185.0970  178.2280  143.4360 C   0  0  0  0  0  1  0  0  0  0  0  0
  184.1010  178.5360  144.5360 C   0  0  2  0  0  3  0  0  0  0  0  0
  183.3250  179.6350  144.1650 O   0  0  0  0  0  1  0  0  0  0  0  0
  187.4020  176.5040  135.2680 C   0  0  0  0  0  0  0  0  0  0  0  0
  186.2080  175.6510  135.0040 C   0  0  0  0  0  1  0  0  0  0  0  0
  188.1500  176.7960  134.3470 O   0  0  0  0  0  0  0  0  0  0  0  0
  184.6430  178.2690  138.8830 C   0  0  2  0  0  3  0  0  0  0  0  0
  183.6370  177.3790  138.4940 O   0  0  0  0  0  0  0  0  0  0  0  0
  183.5910  176.4860  139.4620 O   0  0  0  0  0  1  0  0  0  0  0  0
  184.0410  179.6120  139.2810 C   0  0  0  0  0  2  0  0  0  0  0  0
  182.5190  179.5690  139.2510 C   0  0  0  0  0  2  0  0  0  0  0  0
  181.9760  180.2910  138.0270 C   0  0  0  0  0  2  0  0  0  0  0  0
  181.7650  181.7640  138.3240 C   0  0  0  0  0  1  0  0  0  0  0  0
  190.0960  177.1870  136.0830 N   0  0  0  0  0  2  0  0  0  0  0  0
  191.0160  175.2130  134.9580 C   0  0  0  0  0  2  0  0  0  0  0  0
  192.9540  175.4460  136.9340 C   0  0  0  0  0  2  0  0  0  0  0  0
  191.5220  175.6980  137.4130 C   0  0  0  0  0  2  0  0  0  0  0  0
  190.4930  175.7980  136.2740 C   0  0  1  0  0  3  0  0  0  0  0  0
  193.2530  176.2600  135.6780 C   0  0  2  0  0  3  0  0  0  0  0  0
  192.3350  175.8600  134.5100 C   0  0  0  0  0  2  0  0  0  0  0  0
  195.1670  174.8240  134.8580 C   0  0  0  0  0  0  0  0  0  0  0  0
  194.4300  173.8030  134.8130 O   0  0  0  0  0  0  0  0  0  0  0  0
  194.6460  176.0790  135.3000 N   0  0  0  0  0  2  0  0  0  0  0  0
  196.5960  174.7330  134.4480 C   0  0  0  0  0  2  0  0  0  0  0  0
  198.8390  173.8480  134.9490 C   0  0  0  0  0  2  0  0  0  0  0  0
  197.4010  173.9050  135.4470 C   0  0  1  0  0  3  0  0  0  0  0  0
  197.3680  174.5320  136.7830 N   0  0  0  0  0  0  0  0  0  0  0  0
  199.4230  173.1540  137.2220 C   0  0  0  0  0  0  0  0  0  0  0  0
  199.6360  173.0950  135.8470 O   0  0  0  0  0  0  0  0  0  0  0  0
  198.1950  173.8280  137.7880 C   0  0  1  0  0  3  0  0  0  0  0  0
  200.2310  172.5700  137.9940 O   0  0  0  0  0  0  0  0  0  0  0  0
  197.7920  174.9810  139.8440 O   0  0  0  0  0  1  0  0  0  0  0  0
  198.5820  174.7770  138.8850 C   0  0  0  0  0  0  0  0  0  0  0  0
  199.8090  175.4320  138.8470 O   0  0  0  0  0  0  0  0  0  0  0  0
  195.9850  174.5490  137.2820 C   0  0  0  0  0  2  0  0  0  0  0  0
  195.6400  173.3200  137.8610 O   0  0  0  0  0  1  0  0  0  0  0  0
  1  7  1  1  0  0  0
  3 42  1  6  0  0  0
  3  6  1  0  0  0  0
  4 32  1  6  0  0  0
  4  3  1  0  0  0  0
  4  5  1  0  0  0  0
  4  1  1  0  0  0  0
  5  1  1  0  0  0  0
  5  2  2  0  0  0  0
  6  7  1  1  0  0  0
  6 13  1  0  0  0  0
  8 15  2  0  0  0  0
  9 18  1  0  0  0  0
 10 16  2  0  0  0  0
 12 11  1  6  0  0  0
 12 10  1  0  0  0  0
 12  8  1  0  0  0  0
 13 11  1  1  0  0  0
 13 17  1  0  0  0  0
 14  9  2  0  0  0  0
 15  9  1  0  0  0  0
 16 14  1  0  0  0  0
 17 10  1  0  0  0  0
 18 21  1  0  0  0  0
 19 21  1  0  0  0  0
 21 20  2  0  0  0  0
 22 19  1  1  0  0  0
 22 24  1  0  0  0  0
 23 27  1  1  0  0  0
 23 22  1  0  0  0  0
 23 26  1  0  0  0  0
 24 25  1  0  0  0  0
 26 25  1  0  0  0  0
 28 27  1  0  0  0  0
 30 29  1  6  0  0  0
 30 28  1  0  0  0  0
 31 30  1  0  0  0  0
 33 32  1  0  0  0  0
 34 32  2  0  0  0  0
 35  2  1  6  0  0  0
 35 38  1  0  0  0  0
 36 35  1  0  0  0  0
 36 37  1  0  0  0  0
 39 38  1  0  0  0  0
 40 41  1  0  0  0  0
 40 39  1  0  0  0  0
 43 46  1  0  0  0  0
 44 45  1  0  0  0  0
 46 42  1  6  0  0  0
 46 45  1  0  0  0  0
 47 51  1  6  0  0  0
 47 44  1  0  0  0  0
 48 43  1  0  0  0  0
 48 47  1  0  0  0  0
 49 51  1  0  0  0  0
 50 49  2  0  0  0  0
 52 49  1  0  0  0  0
 53 54  1  0  0  0  0
 53 57  1  0  0  0  0
 54 52  1  6  0  0  0
 54 55  1  0  0  0  0
 55 63  1  0  0  0  0
 55 58  1  0  0  0  0
 56 58  1  0  0  0  0
 56 59  2  0  0  0  0
 57 56  1  0  0  0  0
 58 61  1  1  0  0  0
 61 60  1  0  0  0  0
 62 61  2  0  0  0  0
 63 64  1  0  0  0  0
M  END
>  <MODEL>
9

>  <REMARK>
 VINA RESULT:      -4.4      1.961      3.908
  Name = 
  20 active torsions:
  status: ('A' for Active; 'I' for Inactive)
    1  A    between atoms: C_1  and  C_38
    2  A    between atoms: N_5  and  C_6
    3  A    between atoms: C_7  and  C_47
    4  A    between atoms: C_13  and  C_51
    5  A    between atoms: C_14  and  C_38
    6  A    between atoms: C_14  and  C_47
    7  A    between atoms: C_15  and  N_50
    8  A    between atoms: C_16  and  O_55
    9  A    between atoms: C_17  and  C_51
   10  A    between atoms: C_18  and  C_30
   11  A    between atoms: N_19  and  C_28
   12  A    between atoms: C_21  and  O_35
   13  A    between atoms: C_25  and  N_50
   14  A    between atoms: N_27  and  C_33
   15  A    between atoms: C_29  and  C_36
   16  A    between atoms: O_32  and  C_47
   17  A    between atoms: O_35  and  C_43
   18  A    between atoms: C_41  and  N_57
   19  A    between atoms: O_55  and  C_56
   20  A    between atoms: C_56  and  C_63
                            x       y       z     vdW  Elec       q    Type
                         _______ _______ _______ _____ _____    ______ ____

>  <TORSDO>
F 20

$$$$
