=
 OpenBabel10232410143D

 66 75  0  0  1  0  0  0  0  0999 V2000
  186.1730  175.4670  135.6010 C   0  0  2  0  0  3  0  0  0  0  0  0
  186.4370  176.7970  136.1100 N   0  0  0  0  0  0  0  0  0  0  0  0
  187.1340  173.4910  134.3990 C   0  0  0  0  0  1  0  0  0  0  0  0
  190.7910  174.2020  136.2170 C   0  0  0  0  0  0  0  0  0  0  0  0
  187.3890  174.9370  134.8270 C   0  0  2  0  0  3  0  0  0  0  0  0
  191.0250  175.2690  137.0890 C   0  0  0  0  0  0  0  0  0  0  0  0
  187.9140  178.3470  137.0230 O   0  0  0  0  0  0  0  0  0  0  0  0
  184.9020  177.2040  134.6520 C   0  0  0  0  0  2  0  0  0  0  0  0
  185.4760  177.7100  135.8390 O   0  0  0  0  0  0  0  0  0  0  0  0
  191.7200  173.2350  136.0300 F   0  0  0  0  0  0  0  0  0  0  0  0
  187.7360  177.1850  136.5720 C   0  0  0  0  0  0  0  0  0  0  0  0
  189.6250  174.1110  135.5300 N   0  0  0  0  0  0  0  0  0  0  0  0
  190.0250  176.2630  137.2550 C   0  0  0  0  0  0  0  0  0  0  0  0
  188.6470  175.0530  135.6520 C   0  0  0  0  0  0  0  0  0  0  0  0
  188.8490  176.1900  136.4780 C   0  0  0  0  0  0  0  0  0  0  0  0
  185.0070  175.6720  134.6780 C   0  0  2  0  0  3  0  0  0  0  0  0
  192.3380  175.3160  137.8110 C   0  0  0  0  0  2  0  0  0  0  0  0
  193.0210  174.0330  137.6990 N   0  0  0  0  0  2  0  0  0  0  0  0
  194.2680  174.3130  137.0270 C   0  0  0  0  0  2  0  0  0  0  0  0
  194.7170  171.9830  137.7370 C   0  0  0  0  0  1  0  0  0  0  0  0
  195.0030  173.0140  136.6630 C   0  0  2  0  0  3  0  0  0  0  0  0
  196.5010  173.2640  136.6150 C   0  0  0  0  0  2  0  0  0  0  0  0
  196.8330  174.6020  137.2480 C   0  0  0  0  0  2  0  0  0  0  0  0
  197.3910  174.4280  138.6590 C   0  0  0  0  0  2  0  0  0  0  0  0
  198.6220  175.2980  138.8670 C   0  0  0  0  0  2  0  0  0  0  0  0
  199.0570  175.2840  140.3310 C   0  0  0  0  0  2  0  0  0  0  0  0
  198.1780  175.3220  142.5620 F   0  0  0  0  0  0  0  0  0  0  0  0
  197.1020  176.5050  140.9820 F   0  0  0  0  0  0  0  0  0  0  0  0
  197.8080  175.3420  141.2390 C   0  0  0  0  0  3  0  0  0  0  0  0
  183.7570  175.0890  135.3630 C   0  0  0  0  0  2  0  0  0  0  0  0
  183.9140  174.8660  136.8880 C   0  0  1  0  0  3  0  0  0  0  0  0
  180.4600  175.4910  138.1020 C   0  0  0  0  0  2  0  0  0  0  0  0
  181.6750  173.9320  136.7810 O   0  0  0  0  0  0  0  0  0  0  0  0
  181.8950  175.9170  137.9780 C   0  0  2  0  0  3  0  0  0  0  0  0
  182.5790  174.6270  137.5960 C   0  0  2  0  0  3  0  0  0  0  0  0
  180.3910  174.1780  137.3230 C   0  0  1  0  0  3  0  0  0  0  0  0
  179.9830  173.0440  138.2560 C   0  0  0  0  0  2  0  0  0  0  0  0
  179.9970  173.4440  139.5890 O   0  0  0  0  0  1  0  0  0  0  0  0
  182.4070  176.4250  139.2570 N   0  0  0  0  0  2  0  0  0  0  0  0
  182.5620  178.4100  140.5070 O   0  0  0  0  0  0  0  0  0  0  0  0
  183.7440  178.0080  141.1600 C   0  0  0  0  0  2  0  0  0  0  0  0
  184.8920  178.8430  140.6560 C   0  0  0  0  0  2  0  0  0  0  0  0
  182.6050  177.8960  139.1960 C   0  0  1  0  0  0  0  0  0  0  0  0
  183.8260  178.1800  138.4890 O   0  0  0  0  0  0  0  0  0  0  0  0
  184.7040  179.0960  139.1620 C   0  0  1  0  0  3  0  0  0  0  0  0
  184.3720  180.4090  138.9040 O   0  0  0  0  0  1  0  0  0  0  0  0
  181.8120  179.5760  137.5770 O   0  0  0  0  0  1  0  0  0  0  0  0
  180.4260  178.9510  139.2690 O   0  0  0  0  0  1  0  0  0  0  0  0
  181.4290  178.5150  138.4030 C   0  0  0  0  0  3  0  0  0  0  0  0
  184.3190  172.6930  137.8290 O   0  0  0  0  0  1  0  0  0  0  0  0
  184.9210  173.7690  137.1780 C   0  0  0  0  0  2  0  0  0  0  0  0
  190.1250  177.2140  138.4150 C   0  0  0  0  0  2  0  0  0  0  0  0
  189.3970  177.8450  140.6700 C   0  0  1  0  0  3  0  0  0  0  0  0
  189.5610  176.6520  139.7200 C   0  0  2  0  0  3  0  0  0  0  0  0
  190.7450  176.5060  142.3170 C   0  0  2  0  0  3  0  0  0  0  0  0
  189.5220  176.7040  143.2070 C   0  0  2  0  0  3  0  0  0  0  0  0
  188.3560  177.4500  141.5160 O   0  0  0  0  0  0  0  0  0  0  0  0
  191.7840  177.3320  142.8200 O   0  0  0  0  0  0  0  0  0  0  0  0
  191.3340  176.5210  145.0650 C   0  0  2  0  0  3  0  0  0  0  0  0
  188.7160  177.7700  142.7300 O   0  0  0  0  0  0  0  0  0  0  0  0
  190.6380  176.9520  140.8140 C   0  0  2  0  0  3  0  0  0  0  0  0
  191.4440  177.7280  144.1290 C   0  0  2  0  0  3  0  0  0  0  0  0
  190.0970  177.2120  144.5120 C   0  0  1  0  0  3  0  0  0  0  0  0
  191.5200  177.0170  146.4680 C   0  0  2  0  0  3  0  0  0  0  0  0
  192.0170  175.9200  147.3140 C   0  0  0  0  0  2  0  0  0  0  0  0
  190.6810  176.3250  147.3690 O   0  0  0  0  0  0  0  0  0  0  0  0
  1  2  1  6  0  0  0
  2 11  1  0  0  0  0
  4  6  1  0  0  0  0
  5  3  1  1  0  0  0
  5  1  1  0  0  0  0
  5 14  1  0  0  0  0
  6 13  2  0  0  0  0
  6 17  1  0  0  0  0
  8 16  1  0  0  0  0
  8  9  1  0  0  0  0
  9  2  1  0  0  0  0
 10  4  1  0  0  0  0
 11  7  2  0  0  0  0
 12 14  1  0  0  0  0
 12  4  2  0  0  0  0
 13 52  1  0  0  0  0
 14 15  2  0  0  0  0
 15 11  1  0  0  0  0
 15 13  1  0  0  0  0
 16 30  1  1  0  0  0
 16  1  1  0  0  0  0
 18 17  1  0  0  0  0
 19 18  1  0  0  0  0
 21 19  1  0  0  0  0
 21 20  1  1  0  0  0
 22 21  1  0  0  0  0
 22 23  1  0  0  0  0
 23 24  1  0  0  0  0
 24 25  1  0  0  0  0
 25 26  1  0  0  0  0
 26 29  1  0  0  0  0
 28 29  1  0  0  0  0
 29 27  1  0  0  0  0
 31 30  1  6  0  0  0
 31 51  1  0  0  0  0
 33 36  1  0  0  0  0
 33 35  1  0  0  0  0
 34 32  1  0  0  0  0
 34 39  1  1  0  0  0
 35 31  1  6  0  0  0
 35 34  1  0  0  0  0
 36 32  1  0  0  0  0
 36 37  1  1  0  0  0
 37 38  1  0  0  0  0
 40 41  1  0  0  0  0
 42 41  1  0  0  0  0
 43 49  1  6  0  0  0
 43 39  1  0  0  0  0
 43 40  1  0  0  0  0
 44 45  1  0  0  0  0
 44 43  1  0  0  0  0
 45 46  1  1  0  0  0
 45 42  1  0  0  0  0
 47 49  1  0  0  0  0
 49 48  1  0  0  0  0
 51 50  1  0  0  0  0
 53 61  1  0  0  0  0
 53 57  1  1  0  0  0
 54 52  1  6  0  0  0
 54 53  1  0  0  0  0
 54 61  1  0  0  0  0
 55 58  1  1  0  0  0
 55 56  1  0  0  0  0
 56 60  1  6  0  0  0
 56 63  1  0  0  0  0
 57 60  1  0  0  0  0
 58 62  1  0  0  0  0
 59 64  1  1  0  0  0
 61 55  1  0  0  0  0
 62 63  1  0  0  0  0
 62 59  1  0  0  0  0
 63 59  1  0  0  0  0
 64 65  1  0  0  0  0
 64 66  1  0  0  0  0
 65 66  1  0  0  0  0
M  END
>  <MODEL>
1

>  <REMARK>
 VINA RESULT:      -7.0      0.000      0.000
  Name = 
  21 active torsions:
  status: ('A' for Active; 'I' for Inactive)
    1  A    between atoms: C_3  and  C_9
    2  A    between atoms: C_3  and  C_66
    3  A    between atoms: C_5  and  C_58
    4  A    between atoms: C_6  and  C_37
    5  A    between atoms: C_6  and  C_46
    6  A    between atoms: C_9  and  C_45
    7  A    between atoms: C_9  and  C_60
    8  A    between atoms: N_10  and  C_28
    9  A    between atoms: N_10  and  C_32
   10  A    between atoms: C_13  and  C_37
   11  A    between atoms: C_13  and  C_38
   12  A    between atoms: C_20  and  C_22
   13  A    between atoms: C_22  and  N_29
   14  A    between atoms: N_29  and  C_61
   15  A    between atoms: C_32  and  C_59
   16  A    between atoms: C_34  and  C_35
   17  A    between atoms: C_36  and  C_38
   18  A    between atoms: C_36  and  C_50
   19  A    between atoms: C_39  and  C_62
   20  A    between atoms: C_50  and  C_61
   21  A    between atoms: C_54  and  C_58
                            x       y       z     vdW  Elec       q    Type
                         _______ _______ _______ _____ _____    ______ ____

>  <TORSDO>
F 21

$$$$
=
 OpenBabel10232410143D

 66 75  0  0  1  0  0  0  0  0999 V2000
  188.0430  177.0770  139.0070 C   0  0  2  0  0  3  0  0  0  0  0  0
  189.4840  176.9590  138.9110 N   0  0  0  0  0  0  0  0  0  0  0  0
  185.8830  177.0460  137.7380 C   0  0  0  0  0  1  0  0  0  0  0  0
  187.4480  174.1610  135.2060 C   0  0  0  0  0  0  0  0  0  0  0  0
  187.4070  177.0370  137.6090 C   0  0  2  0  0  3  0  0  0  0  0  0
  188.7500  173.6650  135.3120 C   0  0  0  0  0  0  0  0  0  0  0  0
  191.3660  176.0460  137.8900 O   0  0  0  0  0  0  0  0  0  0  0  0
  189.2760  178.9820  139.6280 C   0  0  0  0  0  2  0  0  0  0  0  0
  190.1770  177.8940  139.6000 O   0  0  0  0  0  0  0  0  0  0  0  0
  186.5570  173.6090  134.3480 F   0  0  0  0  0  0  0  0  0  0  0  0
  190.1090  176.1330  137.9230 C   0  0  0  0  0  0  0  0  0  0  0  0
  187.0440  175.2150  135.9580 N   0  0  0  0  0  0  0  0  0  0  0  0
  189.6530  174.2740  136.2220 C   0  0  0  0  0  0  0  0  0  0  0  0
  187.8860  175.8350  136.8330 C   0  0  0  0  0  0  0  0  0  0  0  0
  189.2380  175.4140  136.9430 C   0  0  0  0  0  0  0  0  0  0  0  0
  187.8440  178.4250  139.6380 C   0  0  2  0  0  3  0  0  0  0  0  0
  189.1370  172.5040  134.4450 C   0  0  0  0  0  2  0  0  0  0  0  0
  188.0650  171.5170  134.4190 N   0  0  0  0  0  2  0  0  0  0  0  0
  188.6670  170.2790  134.8570 C   0  0  0  0  0  2  0  0  0  0  0  0
  188.1330  167.9150  135.3680 C   0  0  0  0  0  1  0  0  0  0  0  0
  187.6120  169.3350  135.4570 C   0  0  2  0  0  3  0  0  0  0  0  0
  186.3210  169.4310  134.6600 C   0  0  0  0  0  2  0  0  0  0  0  0
  185.1970  168.7230  135.3910 C   0  0  0  0  0  2  0  0  0  0  0  0
  183.9610  169.6130  135.5100 C   0  0  0  0  0  2  0  0  0  0  0  0
  184.3430  171.0150  135.9630 C   0  0  0  0  0  2  0  0  0  0  0  0
  183.3760  171.5250  137.0280 C   0  0  0  0  0  2  0  0  0  0  0  0
  184.4170  173.6850  137.0890 F   0  0  0  0  0  0  0  0  0  0  0  0
  182.7530  173.3560  135.6150 F   0  0  0  0  0  0  0  0  0  0  0  0
  183.2140  173.0550  136.8860 C   0  0  0  0  0  3  0  0  0  0  0  0
  187.3970  178.2010  141.0940 C   0  0  0  0  0  2  0  0  0  0  0  0
  185.8620  178.1130  141.2810 C   0  0  1  0  0  3  0  0  0  0  0  0
  185.9580  179.0670  144.8690 C   0  0  0  0  0  2  0  0  0  0  0  0
  184.5740  179.3160  142.9520 O   0  0  0  0  0  0  0  0  0  0  0  0
  186.6060  178.4350  143.6710 C   0  0  2  0  0  3  0  0  0  0  0  0
  185.4320  178.2280  142.7450 C   0  0  2  0  0  3  0  0  0  0  0  0
  184.6260  179.5970  144.3380 C   0  0  1  0  0  3  0  0  0  0  0  0
  183.4720  178.9140  145.0610 C   0  0  0  0  0  2  0  0  0  0  0  0
  182.3820  178.7140  144.2180 O   0  0  0  0  0  1  0  0  0  0  0  0
  187.2310  177.1540  144.0230 N   0  0  0  0  0  2  0  0  0  0  0  0
  189.3390  176.1670  144.3540 O   0  0  0  0  0  0  0  0  0  0  0  0
  189.5740  176.0020  142.9740 C   0  0  0  0  0  2  0  0  0  0  0  0
  190.6590  176.9540  142.5430 C   0  0  0  0  0  2  0  0  0  0  0  0
  188.6150  177.3640  144.5210 C   0  0  1  0  0  0  0  0  0  0  0  0
  189.1900  178.5030  143.8540 O   0  0  0  0  0  0  0  0  0  0  0  0
  190.4940  178.2700  143.3000 C   0  0  1  0  0  3  0  0  0  0  0  0
  191.4900  178.4490  144.2370 O   0  0  0  0  0  1  0  0  0  0  0  0
  189.7690  177.5020  146.6950 O   0  0  0  0  0  1  0  0  0  0  0  0
  187.5800  176.8800  146.6570 O   0  0  0  0  0  1  0  0  0  0  0  0
  188.5470  177.6730  146.0360 C   0  0  0  0  0  3  0  0  0  0  0  0
  183.8730  178.6610  140.0500 O   0  0  0  0  0  1  0  0  0  0  0  0
  185.1460  179.1130  140.3940 C   0  0  0  0  0  2  0  0  0  0  0  0
  190.9250  173.5560  136.5810 C   0  0  0  0  0  2  0  0  0  0  0  0
  193.0350  172.5730  135.8080 C   0  0  1  0  0  3  0  0  0  0  0  0
  192.0260  173.6940  135.5290 C   0  0  2  0  0  3  0  0  0  0  0  0
  194.7820  174.3810  135.8380 C   0  0  2  0  0  3  0  0  0  0  0  0
  195.4190  173.5350  134.7380 C   0  0  2  0  0  3  0  0  0  0  0  0
  193.6070  172.3270  134.5560 O   0  0  0  0  0  0  0  0  0  0  0  0
  195.5660  174.2250  137.0100 O   0  0  0  0  0  0  0  0  0  0  0  0
  197.5810  174.6090  135.7090 C   0  0  2  0  0  3  0  0  0  0  0  0
  194.8950  172.2160  134.7470 O   0  0  0  0  0  0  0  0  0  0  0  0
  193.3410  173.9880  136.3230 C   0  0  2  0  0  3  0  0  0  0  0  0
  196.8110  173.6740  136.6460 C   0  0  2  0  0  3  0  0  0  0  0  0
  196.8570  173.3790  135.1840 C   0  0  1  0  0  3  0  0  0  0  0  0
  199.0340  174.2510  135.8070 C   0  0  2  0  0  3  0  0  0  0  0  0
  199.8040  175.0660  134.8520 C   0  0  0  0  0  2  0  0  0  0  0  0
  199.5130  173.7250  134.5870 O   0  0  0  0  0  0  0  0  0  0  0  0
  1  2  1  6  0  0  0
  1 16  1  0  0  0  0
  2  9  1  0  0  0  0
  4  6  2  0  0  0  0
  4 12  1  0  0  0  0
  5  3  1  1  0  0  0
  5  1  1  0  0  0  0
  6 13  1  0  0  0  0
  7 11  2  0  0  0  0
  8 16  1  0  0  0  0
  9  8  1  0  0  0  0
 10  4  1  0  0  0  0
 11  2  1  0  0  0  0
 12 14  2  0  0  0  0
 13 52  1  0  0  0  0
 13 15  2  0  0  0  0
 14 15  1  0  0  0  0
 14  5  1  0  0  0  0
 15 11  1  0  0  0  0
 16 30  1  1  0  0  0
 17  6  1  0  0  0  0
 18 17  1  0  0  0  0
 18 19  1  0  0  0  0
 19 21  1  0  0  0  0
 21 20  1  6  0  0  0
 22 23  1  0  0  0  0
 22 21  1  0  0  0  0
 23 24  1  0  0  0  0
 24 25  1  0  0  0  0
 25 26  1  0  0  0  0
 28 29  1  0  0  0  0
 29 26  1  0  0  0  0
 29 27  1  0  0  0  0
 30 31  1  0  0  0  0
 31 51  1  6  0  0  0
 33 36  1  0  0  0  0
 34 39  1  1  0  0  0
 34 32  1  0  0  0  0
 35 31  1  6  0  0  0
 35 33  1  0  0  0  0
 35 34  1  0  0  0  0
 36 32  1  0  0  0  0
 36 37  1  1  0  0  0
 38 37  1  0  0  0  0
 40 43  1  0  0  0  0
 41 40  1  0  0  0  0
 42 41  1  0  0  0  0
 42 45  1  0  0  0  0
 43 39  1  6  0  0  0
 43 49  1  0  0  0  0
 44 43  1  0  0  0  0
 45 44  1  0  0  0  0
 45 46  1  1  0  0  0
 49 48  1  0  0  0  0
 49 47  1  0  0  0  0
 50 51  1  0  0  0  0
 53 57  1  6  0  0  0
 53 61  1  0  0  0  0
 54 53  1  0  0  0  0
 54 61  1  0  0  0  0
 54 52  1  1  0  0  0
 55 61  1  0  0  0  0
 55 58  1  1  0  0  0
 56 60  1  1  0  0  0
 56 63  1  0  0  0  0
 56 55  1  0  0  0  0
 57 60  1  0  0  0  0
 59 64  1  1  0  0  0
 59 62  1  0  0  0  0
 62 58  1  0  0  0  0
 63 59  1  0  0  0  0
 63 62  1  0  0  0  0
 65 64  1  0  0  0  0
 66 65  1  0  0  0  0
 66 64  1  0  0  0  0
M  END
>  <MODEL>
2

>  <REMARK>
 VINA RESULT:      -6.5      3.860      9.059
  Name = 
  21 active torsions:
  status: ('A' for Active; 'I' for Inactive)
    1  A    between atoms: C_3  and  C_9
    2  A    between atoms: C_3  and  C_66
    3  A    between atoms: C_5  and  C_58
    4  A    between atoms: C_6  and  C_37
    5  A    between atoms: C_6  and  C_46
    6  A    between atoms: C_9  and  C_45
    7  A    between atoms: C_9  and  C_60
    8  A    between atoms: N_10  and  C_28
    9  A    between atoms: N_10  and  C_32
   10  A    between atoms: C_13  and  C_37
   11  A    between atoms: C_13  and  C_38
   12  A    between atoms: C_20  and  C_22
   13  A    between atoms: C_22  and  N_29
   14  A    between atoms: N_29  and  C_61
   15  A    between atoms: C_32  and  C_59
   16  A    between atoms: C_34  and  C_35
   17  A    between atoms: C_36  and  C_38
   18  A    between atoms: C_36  and  C_50
   19  A    between atoms: C_39  and  C_62
   20  A    between atoms: C_50  and  C_61
   21  A    between atoms: C_54  and  C_58
                            x       y       z     vdW  Elec       q    Type
                         _______ _______ _______ _____ _____    ______ ____

>  <TORSDO>
F 21

$$$$
=
 OpenBabel10232410143D

 66 75  0  0  1  0  0  0  0  0999 V2000
  186.2760  175.3310  135.8360 C   0  0  2  0  0  3  0  0  0  0  0  0
  186.6440  176.6550  136.2960 N   0  0  0  0  0  0  0  0  0  0  0  0
  187.0620  173.2670  134.6530 C   0  0  0  0  0  1  0  0  0  0  0  0
  190.8280  173.7920  136.3050 C   0  0  0  0  0  0  0  0  0  0  0  0
  187.4240  174.7050  135.0290 C   0  0  2  0  0  3  0  0  0  0  0  0
  191.1640  174.8630  137.1360 C   0  0  0  0  0  0  0  0  0  0  0  0
  188.2520  178.1310  137.1060 O   0  0  0  0  0  0  0  0  0  0  0  0
  185.0790  177.1200  134.8880 C   0  0  0  0  0  2  0  0  0  0  0  0
  185.7320  177.6190  136.0360 O   0  0  0  0  0  0  0  0  0  0  0  0
  191.6860  172.7620  136.1090 F   0  0  0  0  0  0  0  0  0  0  0  0
  187.9820  176.9700  136.6950 C   0  0  0  0  0  0  0  0  0  0  0  0
  189.6310  173.7570  135.6670 N   0  0  0  0  0  0  0  0  0  0  0  0
  190.2350  175.9230  137.3130 C   0  0  0  0  0  0  0  0  0  0  0  0
  188.7200  174.7620  135.8010 C   0  0  0  0  0  0  0  0  0  0  0  0
  189.0260  175.9050  136.5850 C   0  0  0  0  0  0  0  0  0  0  0  0
  185.0890  175.5860  134.9530 C   0  0  2  0  0  3  0  0  0  0  0  0
  192.5060  174.8450  137.8040 C   0  0  0  0  0  2  0  0  0  0  0  0
  193.5010  174.2510  136.9200 N   0  0  0  0  0  2  0  0  0  0  0  0
  194.7180  174.1830  137.6940 C   0  0  0  0  0  2  0  0  0  0  0  0
  195.4400  173.3010  135.4950 C   0  0  0  0  0  1  0  0  0  0  0  0
  195.7870  173.3500  136.9690 C   0  0  2  0  0  3  0  0  0  0  0  0
  195.7940  171.9310  137.5150 C   0  0  0  0  0  2  0  0  0  0  0  0
  197.1580  171.2980  137.3200 C   0  0  0  0  0  2  0  0  0  0  0  0
  197.1160  170.2040  136.2540 C   0  0  0  0  0  2  0  0  0  0  0  0
  195.8320  169.3940  136.3570 C   0  0  0  0  0  2  0  0  0  0  0  0
  195.9120  168.3890  137.5030 C   0  0  0  0  0  2  0  0  0  0  0  0
  194.7400  168.9030  139.5310 F   0  0  0  0  0  0  0  0  0  0  0  0
  193.6370  169.1340  137.5860 F   0  0  0  0  0  0  0  0  0  0  0  0
  194.5730  168.3780  138.2730 C   0  0  0  0  0  3  0  0  0  0  0  0
  183.8340  175.1020  135.7030 C   0  0  0  0  0  2  0  0  0  0  0  0
  184.0340  174.9280  137.2300 C   0  0  1  0  0  3  0  0  0  0  0  0
  180.8410  176.4450  138.3690 C   0  0  0  0  0  2  0  0  0  0  0  0
  181.6710  174.4150  137.4530 O   0  0  0  0  0  0  0  0  0  0  0  0
  182.3110  176.5620  138.0860 C   0  0  2  0  0  3  0  0  0  0  0  0
  182.7400  175.1160  138.0250 C   0  0  2  0  0  3  0  0  0  0  0  0
  180.4940  175.0130  137.9610 C   0  0  1  0  0  3  0  0  0  0  0  0
  179.9840  174.2400  139.1700 C   0  0  0  0  0  2  0  0  0  0  0  0
  180.3170  174.8720  140.3650 O   0  0  0  0  0  1  0  0  0  0  0  0
  183.0030  177.2710  139.1690 N   0  0  0  0  0  2  0  0  0  0  0  0
  183.2460  178.8300  137.4250 O   0  0  0  0  0  0  0  0  0  0  0  0
  181.9530  178.5930  136.9180 C   0  0  0  0  0  2  0  0  0  0  0  0
  181.0920  179.8000  137.1840 C   0  0  0  0  0  2  0  0  0  0  0  0
  183.1810  178.7060  138.8270 C   0  0  1  0  0  0  0  0  0  0  0  0
  182.1290  179.4730  139.4410 O   0  0  0  0  0  0  0  0  0  0  0  0
  181.4550  180.3760  138.5510 C   0  0  1  0  0  3  0  0  0  0  0  0
  182.1220  181.5780  138.4380 O   0  0  0  0  0  1  0  0  0  0  0  0
  185.5940  178.3130  139.1380 O   0  0  0  0  0  1  0  0  0  0  0  0
  184.4360  179.3620  140.7920 O   0  0  0  0  0  1  0  0  0  0  0  0
  184.5320  179.1820  139.4120 C   0  0  0  0  0  3  0  0  0  0  0  0
  184.1920  172.5760  136.7670 O   0  0  0  0  0  1  0  0  0  0  0  0
  184.7130  173.6090  137.5450 C   0  0  0  0  0  2  0  0  0  0  0  0
  190.4430  176.8950  138.4400 C   0  0  0  0  0  2  0  0  0  0  0  0
  189.5030  177.9380  140.4520 C   0  0  1  0  0  3  0  0  0  0  0  0
  189.5490  176.6290  139.6520 C   0  0  2  0  0  3  0  0  0  0  0  0
  190.2040  176.5570  142.4330 C   0  0  2  0  0  3  0  0  0  0  0  0
  188.9250  177.1160  143.0490 C   0  0  2  0  0  3  0  0  0  0  0  0
  188.2700  177.8780  141.1080 O   0  0  0  0  0  0  0  0  0  0  0  0
  191.3020  177.2000  143.0600 O   0  0  0  0  0  0  0  0  0  0  0  0
  190.2990  176.7840  145.2330 C   0  0  2  0  0  3  0  0  0  0  0  0
  188.4800  178.2620  142.3390 O   0  0  0  0  0  0  0  0  0  0  0  0
  190.4620  176.8270  140.9070 C   0  0  2  0  0  3  0  0  0  0  0  0
  190.8440  177.8170  144.2420 C   0  0  2  0  0  3  0  0  0  0  0  0
  189.3690  177.6470  144.3950 C   0  0  1  0  0  3  0  0  0  0  0  0
  190.3500  177.3980  146.6000 C   0  0  2  0  0  3  0  0  0  0  0  0
  191.3530  176.6950  147.4160 C   0  0  0  0  0  2  0  0  0  0  0  0
  189.9870  176.4630  147.5930 O   0  0  0  0  0  0  0  0  0  0  0  0
  1  2  1  6  0  0  0
  2 11  1  0  0  0  0
  4  6  1  0  0  0  0
  5  3  1  1  0  0  0
  5 14  1  0  0  0  0
  5  1  1  0  0  0  0
  6 13  2  0  0  0  0
  6 17  1  0  0  0  0
  8 16  1  0  0  0  0
  8  9  1  0  0  0  0
  9  2  1  0  0  0  0
 10  4  1  0  0  0  0
 11  7  2  0  0  0  0
 12 14  1  0  0  0  0
 12  4  2  0  0  0  0
 13 52  1  0  0  0  0
 14 15  2  0  0  0  0
 15 11  1  0  0  0  0
 15 13  1  0  0  0  0
 16 30  1  1  0  0  0
 16  1  1  0  0  0  0
 18 19  1  0  0  0  0
 18 17  1  0  0  0  0
 21 20  1  6  0  0  0
 21 22  1  0  0  0  0
 21 19  1  0  0  0  0
 23 22  1  0  0  0  0
 24 25  1  0  0  0  0
 24 23  1  0  0  0  0
 25 26  1  0  0  0  0
 26 29  1  0  0  0  0
 28 29  1  0  0  0  0
 29 27  1  0  0  0  0
 31 30  1  6  0  0  0
 31 51  1  0  0  0  0
 33 36  1  0  0  0  0
 33 35  1  0  0  0  0
 34 32  1  0  0  0  0
 34 39  1  1  0  0  0
 35 31  1  6  0  0  0
 35 34  1  0  0  0  0
 36 32  1  0  0  0  0
 36 37  1  1  0  0  0
 37 38  1  0  0  0  0
 40 43  1  0  0  0  0
 41 42  1  0  0  0  0
 41 40  1  0  0  0  0
 42 45  1  0  0  0  0
 43 39  1  1  0  0  0
 43 49  1  0  0  0  0
 43 44  1  0  0  0  0
 45 46  1  6  0  0  0
 45 44  1  0  0  0  0
 47 49  1  0  0  0  0
 49 48  1  0  0  0  0
 50 51  1  0  0  0  0
 53 61  1  0  0  0  0
 53 57  1  1  0  0  0
 54 52  1  6  0  0  0
 54 53  1  0  0  0  0
 54 61  1  0  0  0  0
 55 56  1  0  0  0  0
 55 58  1  1  0  0  0
 56 60  1  6  0  0  0
 56 63  1  0  0  0  0
 57 60  1  0  0  0  0
 58 62  1  0  0  0  0
 59 64  1  1  0  0  0
 61 55  1  0  0  0  0
 62 63  1  0  0  0  0
 62 59  1  0  0  0  0
 63 59  1  0  0  0  0
 64 65  1  0  0  0  0
 64 66  1  0  0  0  0
 65 66  1  0  0  0  0
M  END
>  <MODEL>
3

>  <REMARK>
 VINA RESULT:      -6.2      1.953      2.819
  Name = 
  21 active torsions:
  status: ('A' for Active; 'I' for Inactive)
    1  A    between atoms: C_3  and  C_9
    2  A    between atoms: C_3  and  C_66
    3  A    between atoms: C_5  and  C_58
    4  A    between atoms: C_6  and  C_37
    5  A    between atoms: C_6  and  C_46
    6  A    between atoms: C_9  and  C_45
    7  A    between atoms: C_9  and  C_60
    8  A    between atoms: N_10  and  C_28
    9  A    between atoms: N_10  and  C_32
   10  A    between atoms: C_13  and  C_37
   11  A    between atoms: C_13  and  C_38
   12  A    between atoms: C_20  and  C_22
   13  A    between atoms: C_22  and  N_29
   14  A    between atoms: N_29  and  C_61
   15  A    between atoms: C_32  and  C_59
   16  A    between atoms: C_34  and  C_35
   17  A    between atoms: C_36  and  C_38
   18  A    between atoms: C_36  and  C_50
   19  A    between atoms: C_39  and  C_62
   20  A    between atoms: C_50  and  C_61
   21  A    between atoms: C_54  and  C_58
                            x       y       z     vdW  Elec       q    Type
                         _______ _______ _______ _____ _____    ______ ____

>  <TORSDO>
F 21

$$$$
=
 OpenBabel10232410143D

 66 75  0  0  1  0  0  0  0  0999 V2000
  186.2450  175.5530  135.8490 C   0  0  2  0  0  3  0  0  0  0  0  0
  186.3260  176.8330  136.5240 N   0  0  0  0  0  0  0  0  0  0  0  0
  187.4330  173.9340  134.3520 C   0  0  0  0  0  1  0  0  0  0  0  0
  191.0340  175.0010  136.1070 C   0  0  0  0  0  0  0  0  0  0  0  0
  187.4800  175.3360  134.9630 C   0  0  2  0  0  3  0  0  0  0  0  0
  191.1490  175.9710  137.1050 C   0  0  0  0  0  0  0  0  0  0  0  0
  187.5910  178.4760  137.5810 O   0  0  0  0  0  0  0  0  0  0  0  0
  184.6600  177.1640  135.1950 C   0  0  0  0  0  2  0  0  0  0  0  0
  185.2180  177.6020  136.4170 O   0  0  0  0  0  0  0  0  0  0  0  0
  192.0920  174.2330  135.7530 F   0  0  0  0  0  0  0  0  0  0  0  0
  187.5720  177.3670  136.9830 C   0  0  0  0  0  0  0  0  0  0  0  0
  189.8580  174.8070  135.4590 N   0  0  0  0  0  0  0  0  0  0  0  0
  190.0160  176.7570  137.4440 C   0  0  0  0  0  0  0  0  0  0  0  0
  188.7520  175.5510  135.7470 C   0  0  0  0  0  0  0  0  0  0  0  0
  188.8210  176.5910  136.7110 C   0  0  0  0  0  0  0  0  0  0  0  0
  185.0080  175.6800  135.0080 C   0  0  2  0  0  3  0  0  0  0  0  0
  192.4790  176.1420  137.7750 C   0  0  0  0  0  2  0  0  0  0  0  0
  193.5470  176.1350  136.7830 N   0  0  0  0  0  2  0  0  0  0  0  0
  194.5790  175.2840  137.3290 C   0  0  0  0  0  2  0  0  0  0  0  0
  195.3150  175.6670  134.9950 C   0  0  0  0  0  1  0  0  0  0  0  0
  195.7530  175.1410  136.3470 C   0  0  2  0  0  3  0  0  0  0  0  0
  196.1280  173.6760  136.2010 C   0  0  0  0  0  2  0  0  0  0  0  0
  197.4010  173.5360  135.3880 C   0  0  0  0  0  2  0  0  0  0  0  0
  197.2800  172.4200  134.3520 C   0  0  0  0  0  2  0  0  0  0  0  0
  196.6380  171.1820  134.9600 C   0  0  0  0  0  2  0  0  0  0  0  0
  197.6310  170.4330  135.8460 C   0  0  0  0  0  2  0  0  0  0  0  0
  197.7720  168.3560  137.0390 F   0  0  0  0  0  0  0  0  0  0  0  0
  196.2720  169.8770  137.7390 F   0  0  0  0  0  0  0  0  0  0  0  0
  196.8890  169.3260  136.6280 C   0  0  0  0  0  3  0  0  0  0  0  0
  183.9100  174.8160  135.6560 C   0  0  0  0  0  2  0  0  0  0  0  0
  184.0670  174.6310  137.1860 C   0  0  1  0  0  3  0  0  0  0  0  0
  180.7190  175.6010  138.4710 C   0  0  0  0  0  2  0  0  0  0  0  0
  181.7390  173.9440  137.1050 O   0  0  0  0  0  0  0  0  0  0  0  0
  182.1890  175.8730  138.3290 C   0  0  2  0  0  3  0  0  0  0  0  0
  182.7250  174.5230  137.9140 C   0  0  2  0  0  3  0  0  0  0  0  0
  180.4980  174.3160  137.6730 C   0  0  1  0  0  3  0  0  0  0  0  0
  179.9860  173.2160  138.5950 C   0  0  0  0  0  2  0  0  0  0  0  0
  180.0410  173.5980  139.9320 O   0  0  0  0  0  1  0  0  0  0  0  0
  182.7730  176.3000  139.6060 N   0  0  0  0  0  2  0  0  0  0  0  0
  182.5710  178.2670  140.8780 O   0  0  0  0  0  0  0  0  0  0  0  0
  183.5260  177.8530  141.8280 C   0  0  0  0  0  2  0  0  0  0  0  0
  184.7680  178.6920  141.6750 C   0  0  0  0  0  2  0  0  0  0  0  0
  182.9780  177.7720  139.6240 C   0  0  1  0  0  0  0  0  0  0  0  0
  184.3470  178.0620  139.2880 O   0  0  0  0  0  0  0  0  0  0  0  0
  185.0020  178.9660  140.1920 C   0  0  1  0  0  3  0  0  0  0  0  0
  184.7530  180.2840  139.8700 O   0  0  0  0  0  1  0  0  0  0  0  0
  182.7400  179.3010  137.7050 O   0  0  0  0  0  1  0  0  0  0  0  0
  180.9840  179.0550  139.1320 O   0  0  0  0  0  1  0  0  0  0  0  0
  182.0690  178.4040  138.5430 C   0  0  0  0  0  3  0  0  0  0  0  0
  186.2680  173.9100  137.8230 O   0  0  0  0  0  1  0  0  0  0  0  0
  184.9850  173.4670  137.5040 C   0  0  0  0  0  2  0  0  0  0  0  0
  190.0340  177.5550  138.7180 C   0  0  0  0  0  2  0  0  0  0  0  0
  189.0040  177.7220  140.9380 C   0  0  1  0  0  3  0  0  0  0  0  0
  189.6610  176.7410  139.9570 C   0  0  2  0  0  3  0  0  0  0  0  0
  190.6740  176.8930  142.6250 C   0  0  2  0  0  3  0  0  0  0  0  0
  189.4230  176.5580  143.4320 C   0  0  2  0  0  3  0  0  0  0  0  0
  188.1500  176.9110  141.6910 O   0  0  0  0  0  0  0  0  0  0  0  0
  191.2910  178.0180  143.2320 O   0  0  0  0  0  0  0  0  0  0  0  0
  191.0690  176.9590  145.4070 C   0  0  2  0  0  3  0  0  0  0  0  0
  188.2970  177.2680  142.9400 O   0  0  0  0  0  0  0  0  0  0  0  0
  190.4830  177.3580  141.1360 C   0  0  2  0  0  3  0  0  0  0  0  0
  190.7590  178.1740  144.5280 C   0  0  2  0  0  3  0  0  0  0  0  0
  189.6930  177.1640  144.7930 C   0  0  1  0  0  3  0  0  0  0  0  0
  190.9780  177.4010  146.8370 C   0  0  2  0  0  3  0  0  0  0  0  0
  191.1740  176.2400  147.7220 C   0  0  0  0  0  2  0  0  0  0  0  0
  189.9010  176.7710  147.4980 O   0  0  0  0  0  0  0  0  0  0  0  0
  1  2  1  6  0  0  0
  2 11  1  0  0  0  0
  4  6  1  0  0  0  0
  5  3  1  1  0  0  0
  5 14  1  0  0  0  0
  5  1  1  0  0  0  0
  6 13  2  0  0  0  0
  6 17  1  0  0  0  0
  8  9  1  0  0  0  0
  9  2  1  0  0  0  0
 10  4  1  0  0  0  0
 11  7  2  0  0  0  0
 12 14  1  0  0  0  0
 12  4  2  0  0  0  0
 13 52  1  0  0  0  0
 14 15  2  0  0  0  0
 15 11  1  0  0  0  0
 15 13  1  0  0  0  0
 16  8  1  0  0  0  0
 16 30  1  1  0  0  0
 16  1  1  0  0  0  0
 18 19  1  0  0  0  0
 18 17  1  0  0  0  0
 21 20  1  6  0  0  0
 21 19  1  0  0  0  0
 22 21  1  0  0  0  0
 23 22  1  0  0  0  0
 24 25  1  0  0  0  0
 24 23  1  0  0  0  0
 25 26  1  0  0  0  0
 26 29  1  0  0  0  0
 29 27  1  0  0  0  0
 29 28  1  0  0  0  0
 31 30  1  6  0  0  0
 31 51  1  0  0  0  0
 33 36  1  0  0  0  0
 33 35  1  0  0  0  0
 34 32  1  0  0  0  0
 34 39  1  1  0  0  0
 35 31  1  6  0  0  0
 35 34  1  0  0  0  0
 36 32  1  0  0  0  0
 36 37  1  1  0  0  0
 37 38  1  0  0  0  0
 39 43  1  0  0  0  0
 40 41  1  0  0  0  0
 42 41  1  0  0  0  0
 43 49  1  6  0  0  0
 43 40  1  0  0  0  0
 44 43  1  0  0  0  0
 44 45  1  0  0  0  0
 45 46  1  6  0  0  0
 45 42  1  0  0  0  0
 47 49  1  0  0  0  0
 49 48  1  0  0  0  0
 51 50  1  0  0  0  0
 53 61  1  0  0  0  0
 53 57  1  1  0  0  0
 54 52  1  6  0  0  0
 54 53  1  0  0  0  0
 54 61  1  0  0  0  0
 55 58  1  1  0  0  0
 55 56  1  0  0  0  0
 56 60  1  6  0  0  0
 56 63  1  0  0  0  0
 57 60  1  0  0  0  0
 58 62  1  0  0  0  0
 59 64  1  1  0  0  0
 61 55  1  0  0  0  0
 62 63  1  0  0  0  0
 62 59  1  0  0  0  0
 63 59  1  0  0  0  0
 64 66  1  0  0  0  0
 64 65  1  0  0  0  0
 66 65  1  0  0  0  0
M  END
>  <MODEL>
4

>  <REMARK>
 VINA RESULT:      -6.1      1.876      2.346
  Name = 
  21 active torsions:
  status: ('A' for Active; 'I' for Inactive)
    1  A    between atoms: C_3  and  C_9
    2  A    between atoms: C_3  and  C_66
    3  A    between atoms: C_5  and  C_58
    4  A    between atoms: C_6  and  C_37
    5  A    between atoms: C_6  and  C_46
    6  A    between atoms: C_9  and  C_45
    7  A    between atoms: C_9  and  C_60
    8  A    between atoms: N_10  and  C_28
    9  A    between atoms: N_10  and  C_32
   10  A    between atoms: C_13  and  C_37
   11  A    between atoms: C_13  and  C_38
   12  A    between atoms: C_20  and  C_22
   13  A    between atoms: C_22  and  N_29
   14  A    between atoms: N_29  and  C_61
   15  A    between atoms: C_32  and  C_59
   16  A    between atoms: C_34  and  C_35
   17  A    between atoms: C_36  and  C_38
   18  A    between atoms: C_36  and  C_50
   19  A    between atoms: C_39  and  C_62
   20  A    between atoms: C_50  and  C_61
   21  A    between atoms: C_54  and  C_58
                            x       y       z     vdW  Elec       q    Type
                         _______ _______ _______ _____ _____    ______ ____

>  <TORSDO>
F 21

$$$$
=
 OpenBabel10232410143D

 66 75  0  0  1  0  0  0  0  0999 V2000
  185.8420  178.7840  140.0290 C   0  0  2  0  0  3  0  0  0  0  0  0
  186.7970  178.5690  138.9610 N   0  0  0  0  0  0  0  0  0  0  0  0
  185.0290  177.9820  142.2590 C   0  0  0  0  0  1  0  0  0  0  0  0
  188.9190  176.9740  143.2800 C   0  0  0  0  0  0  0  0  0  0  0  0
  185.9620  177.6750  141.0860 C   0  0  2  0  0  3  0  0  0  0  0  0
  190.0080  177.1330  142.4200 C   0  0  0  0  0  0  0  0  0  0  0  0
  188.9030  177.8780  138.2510 O   0  0  0  0  0  0  0  0  0  0  0  0
  184.9320  178.2430  137.9290 C   0  0  0  0  0  2  0  0  0  0  0  0
  186.2750  178.6250  137.7140 O   0  0  0  0  0  0  0  0  0  0  0  0
  189.0950  176.6130  144.5740 F   0  0  0  0  0  0  0  0  0  0  0  0
  188.1000  178.0290  139.2100 C   0  0  0  0  0  0  0  0  0  0  0  0
  187.6510  177.1700  142.8370 N   0  0  0  0  0  0  0  0  0  0  0  0
  189.7790  177.5100  141.0710 C   0  0  0  0  0  0  0  0  0  0  0  0
  187.3910  177.5190  141.5450 C   0  0  0  0  0  0  0  0  0  0  0  0
  188.4520  177.6410  140.6100 C   0  0  0  0  0  0  0  0  0  0  0  0
  184.5150  178.7060  139.3320 C   0  0  2  0  0  3  0  0  0  0  0  0
  191.3830  176.8910  142.9690 C   0  0  0  0  0  2  0  0  0  0  0  0
  191.2970  176.3540  144.3220 N   0  0  0  0  0  2  0  0  0  0  0  0
  191.7530  177.4140  145.1910 C   0  0  0  0  0  2  0  0  0  0  0  0
  191.3060  175.5410  146.7480 C   0  0  0  0  0  1  0  0  0  0  0  0
  191.5790  177.0300  146.6680 C   0  0  2  0  0  3  0  0  0  0  0  0
  190.3930  177.7740  147.2590 C   0  0  0  0  0  2  0  0  0  0  0  0
  189.2010  176.8460  147.3910 C   0  0  0  0  0  2  0  0  0  0  0  0
  188.2480  177.3160  148.4890 C   0  0  0  0  0  2  0  0  0  0  0  0
  187.2940  178.3780  147.9620 C   0  0  0  0  0  2  0  0  0  0  0  0
  186.8280  178.0380  146.5490 C   0  0  0  0  0  2  0  0  0  0  0  0
  184.4350  178.1810  146.4520 F   0  0  0  0  0  0  0  0  0  0  0  0
  185.5850  180.0440  146.9600 F   0  0  0  0  0  0  0  0  0  0  0  0
  185.5860  178.8880  146.1980 C   0  0  0  0  0  3  0  0  0  0  0  0
  183.9460  180.1350  139.2460 C   0  0  0  0  0  2  0  0  0  0  0  0
  182.4930  180.2100  138.7130 C   0  0  1  0  0  3  0  0  0  0  0  0
  180.7050  177.4720  140.4740 C   0  0  0  0  0  2  0  0  0  0  0  0
  181.9500  179.4400  140.9510 O   0  0  0  0  0  0  0  0  0  0  0  0
  181.2060  178.0940  139.2030 C   0  0  2  0  0  3  0  0  0  0  0  0
  181.4860  179.5140  139.6310 C   0  0  2  0  0  3  0  0  0  0  0  0
  181.2000  178.4130  141.5720 C   0  0  1  0  0  3  0  0  0  0  0  0
  180.0130  179.0030  142.3230 C   0  0  0  0  0  2  0  0  0  0  0  0
  180.3840  180.1010  143.0930 O   0  0  0  0  0  1  0  0  0  0  0  0
  180.1790  178.0530  138.1550 N   0  0  0  0  0  2  0  0  0  0  0  0
  179.9820  177.6380  135.8490 O   0  0  0  0  0  0  0  0  0  0  0  0
  180.5710  178.8670  135.4900 C   0  0  0  0  0  2  0  0  0  0  0  0
  181.9310  178.6060  134.8970 C   0  0  0  0  0  2  0  0  0  0  0  0
  180.6150  177.1920  137.0250 C   0  0  1  0  0  0  0  0  0  0  0  0
  182.0530  177.1900  136.9600 O   0  0  0  0  0  0  0  0  0  0  0  0
  182.5890  177.4540  135.6540 C   0  0  1  0  0  3  0  0  0  0  0  0
  182.6570  176.3110  134.8850 O   0  0  0  0  0  1  0  0  0  0  0  0
  180.7070  175.1850  138.4520 O   0  0  0  0  0  1  0  0  0  0  0  0
  180.4120  174.9200  136.2120 O   0  0  0  0  0  1  0  0  0  0  0  0
  180.1400  175.7460  137.3030 C   0  0  0  0  0  3  0  0  0  0  0  0
  180.7310  181.8390  138.6070 O   0  0  0  0  0  1  0  0  0  0  0  0
  182.0960  181.6410  138.4070 C   0  0  0  0  0  2  0  0  0  0  0  0
  190.9350  178.0010  140.2430 C   0  0  0  0  0  2  0  0  0  0  0  0
  191.4140  175.8300  139.2070 C   0  0  1  0  0  3  0  0  0  0  0  0
  191.0680  177.2920  138.8950 C   0  0  2  0  0  3  0  0  0  0  0  0
  193.3650  176.1340  137.6510 C   0  0  2  0  0  3  0  0  0  0  0  0
  192.7370  174.9510  136.9200 C   0  0  2  0  0  3  0  0  0  0  0  0
  190.9090  175.1320  138.1050 O   0  0  0  0  0  0  0  0  0  0  0  0
  194.5350  175.6650  138.3050 O   0  0  0  0  0  0  0  0  0  0  0  0
  195.2210  174.5430  136.2630 C   0  0  2  0  0  3  0  0  0  0  0  0
  191.8230  174.2630  137.7610 O   0  0  0  0  0  0  0  0  0  0  0  0
  192.5480  176.7910  138.8210 C   0  0  2  0  0  3  0  0  0  0  0  0
  194.8860  174.4170  137.7520 C   0  0  2  0  0  3  0  0  0  0  0  0
  193.8860  173.9840  136.7320 C   0  0  1  0  0  3  0  0  0  0  0  0
  196.0780  173.3700  135.8910 C   0  0  2  0  0  3  0  0  0  0  0  0
  196.3290  173.3870  134.4400 C   0  0  0  0  0  2  0  0  0  0  0  0
  195.4020  172.5060  135.0020 O   0  0  0  0  0  0  0  0  0  0  0  0
  1  2  1  6  0  0  0
  1  5  1  0  0  0  0
  2 11  1  0  0  0  0
  4 10  1  0  0  0  0
  5 14  1  0  0  0  0
  5  3  1  1  0  0  0
  6 17  1  0  0  0  0
  6  4  2  0  0  0  0
  7 11  2  0  0  0  0
  8 16  1  0  0  0  0
  9  8  1  0  0  0  0
  9  2  1  0  0  0  0
 11 15  1  0  0  0  0
 12  4  1  0  0  0  0
 13  6  1  0  0  0  0
 14 12  2  0  0  0  0
 15 13  2  0  0  0  0
 15 14  1  0  0  0  0
 16 30  1  6  0  0  0
 16  1  1  0  0  0  0
 17 18  1  0  0  0  0
 18 19  1  0  0  0  0
 19 21  1  0  0  0  0
 21 20  1  6  0  0  0
 21 22  1  0  0  0  0
 22 23  1  0  0  0  0
 23 24  1  0  0  0  0
 25 24  1  0  0  0  0
 26 25  1  0  0  0  0
 29 27  1  0  0  0  0
 29 26  1  0  0  0  0
 29 28  1  0  0  0  0
 31 51  1  1  0  0  0
 31 30  1  0  0  0  0
 32 36  1  0  0  0  0
 33 36  1  0  0  0  0
 34 39  1  6  0  0  0
 34 35  1  0  0  0  0
 34 32  1  0  0  0  0
 35 31  1  6  0  0  0
 35 33  1  0  0  0  0
 36 37  1  6  0  0  0
 37 38  1  0  0  0  0
 40 43  1  0  0  0  0
 41 40  1  0  0  0  0
 42 41  1  0  0  0  0
 42 45  1  0  0  0  0
 43 49  1  1  0  0  0
 43 39  1  0  0  0  0
 44 43  1  0  0  0  0
 45 46  1  6  0  0  0
 45 44  1  0  0  0  0
 48 49  1  0  0  0  0
 49 47  1  0  0  0  0
 51 50  1  0  0  0  0
 52 13  1  0  0  0  0
 53 57  1  6  0  0  0
 54 53  1  0  0  0  0
 54 52  1  1  0  0  0
 55 58  1  1  0  0  0
 55 61  1  0  0  0  0
 56 55  1  0  0  0  0
 56 60  1  1  0  0  0
 59 64  1  1  0  0  0
 59 63  1  0  0  0  0
 59 62  1  0  0  0  0
 60 57  1  0  0  0  0
 61 54  1  0  0  0  0
 61 53  1  0  0  0  0
 62 58  1  0  0  0  0
 63 56  1  0  0  0  0
 63 62  1  0  0  0  0
 65 66  1  0  0  0  0
 65 64  1  0  0  0  0
 66 64  1  0  0  0  0
M  END
>  <MODEL>
5

>  <REMARK>
 VINA RESULT:      -5.8      3.909      7.976
  Name = 
  21 active torsions:
  status: ('A' for Active; 'I' for Inactive)
    1  A    between atoms: C_3  and  C_9
    2  A    between atoms: C_3  and  C_66
    3  A    between atoms: C_5  and  C_58
    4  A    between atoms: C_6  and  C_37
    5  A    between atoms: C_6  and  C_46
    6  A    between atoms: C_9  and  C_45
    7  A    between atoms: C_9  and  C_60
    8  A    between atoms: N_10  and  C_28
    9  A    between atoms: N_10  and  C_32
   10  A    between atoms: C_13  and  C_37
   11  A    between atoms: C_13  and  C_38
   12  A    between atoms: C_20  and  C_22
   13  A    between atoms: C_22  and  N_29
   14  A    between atoms: N_29  and  C_61
   15  A    between atoms: C_32  and  C_59
   16  A    between atoms: C_34  and  C_35
   17  A    between atoms: C_36  and  C_38
   18  A    between atoms: C_36  and  C_50
   19  A    between atoms: C_39  and  C_62
   20  A    between atoms: C_50  and  C_61
   21  A    between atoms: C_54  and  C_58
                            x       y       z     vdW  Elec       q    Type
                         _______ _______ _______ _____ _____    ______ ____

>  <TORSDO>
F 21

$$$$
=
 OpenBabel10232410143D

 66 75  0  0  1  0  0  0  0  0999 V2000
  191.4010  175.5360  136.6900 C   0  0  2  0  0  3  0  0  0  0  0  0
  190.4750  175.7080  135.5890 N   0  0  0  0  0  0  0  0  0  0  0  0
  192.3260  176.5540  138.7840 C   0  0  0  0  0  1  0  0  0  0  0  0
  188.6070  178.1980  139.5900 C   0  0  0  0  0  0  0  0  0  0  0  0
  191.4330  176.7980  137.5660 C   0  0  2  0  0  3  0  0  0  0  0  0
  187.5000  178.0520  138.7510 C   0  0  0  0  0  0  0  0  0  0  0  0
  188.4710  176.5490  134.7560 O   0  0  0  0  0  0  0  0  0  0  0  0
  192.3600  175.6310  134.5440 C   0  0  0  0  0  2  0  0  0  0  0  0
  190.9770  175.3980  134.3720 O   0  0  0  0  0  0  0  0  0  0  0  0
  188.4880  178.7700  140.8120 F   0  0  0  0  0  0  0  0  0  0  0  0
  189.2550  176.4420  135.7370 C   0  0  0  0  0  0  0  0  0  0  0  0
  189.8350  177.7750  139.1990 N   0  0  0  0  0  0  0  0  0  0  0  0
  187.6690  177.4490  137.4770 C   0  0  0  0  0  0  0  0  0  0  0  0
  190.0400  177.2040  137.9780 C   0  0  0  0  0  0  0  0  0  0  0  0
  188.9650  177.0800  137.0580 C   0  0  0  0  0  0  0  0  0  0  0  0
  192.7230  175.3350  136.0060 C   0  0  2  0  0  3  0  0  0  0  0  0
  186.1720  178.5490  139.2390 C   0  0  0  0  0  2  0  0  0  0  0  0
  186.2140  178.7630  140.6800 N   0  0  0  0  0  2  0  0  0  0  0  0
  184.8630  178.5520  141.1440 C   0  0  0  0  0  2  0  0  0  0  0  0
  185.5210  180.0950  142.9660 C   0  0  0  0  0  1  0  0  0  0  0  0
  184.7460  178.8320  142.6500 C   0  0  2  0  0  3  0  0  0  0  0  0
  185.3520  177.6800  143.4370 C   0  0  0  0  0  2  0  0  0  0  0  0
  186.0940  178.2050  144.6520 C   0  0  0  0  0  2  0  0  0  0  0  0
  187.1700  177.2230  145.1140 C   0  0  0  0  0  2  0  0  0  0  0  0
  188.0300  176.7690  143.9430 C   0  0  0  0  0  2  0  0  0  0  0  0
  189.5130  176.8390  144.2990 C   0  0  0  0  0  2  0  0  0  0  0  0
  191.2430  178.3990  144.8700 F   0  0  0  0  0  0  0  0  0  0  0  0
  189.8170  178.9580  143.2250 F   0  0  0  0  0  0  0  0  0  0  0  0
  189.9380  178.3170  144.4470 C   0  0  0  0  0  3  0  0  0  0  0  0
  193.1010  173.8490  136.1440 C   0  0  0  0  0  2  0  0  0  0  0  0
  194.5620  173.5250  135.7410 C   0  0  1  0  0  3  0  0  0  0  0  0
  196.1400  170.4530  137.1070 C   0  0  0  0  0  2  0  0  0  0  0  0
  193.9850  171.3780  136.7180 O   0  0  0  0  0  0  0  0  0  0  0  0
  196.2610  171.8410  136.5470 C   0  0  2  0  0  3  0  0  0  0  0  0
  194.9100  172.0440  135.9030 C   0  0  2  0  0  3  0  0  0  0  0  0
  194.6330  170.2030  137.1660 C   0  0  1  0  0  3  0  0  0  0  0  0
  194.2690  169.0220  136.2740 C   0  0  0  0  0  2  0  0  0  0  0  0
  195.3660  168.5690  135.5460 O   0  0  0  0  0  1  0  0  0  0  0  0
  197.3350  171.9170  135.5500 N   0  0  0  0  0  2  0  0  0  0  0  0
  198.9640  173.6080  135.4160 O   0  0  0  0  0  0  0  0  0  0  0  0
  198.0430  174.6360  135.6990 C   0  0  0  0  0  2  0  0  0  0  0  0
  198.3280  175.1850  137.0730 C   0  0  0  0  0  2  0  0  0  0  0  0
  198.5740  172.4730  136.1540 C   0  0  1  0  0  0  0  0  0  0  0  0
  198.3460  172.7260  137.5520 O   0  0  0  0  0  0  0  0  0  0  0  0
  198.7390  174.0360  137.9910 C   0  0  1  0  0  3  0  0  0  0  0  0
  200.0800  174.0900  138.3080 O   0  0  0  0  0  1  0  0  0  0  0  0
  199.2780  170.2310  135.4110 O   0  0  0  0  0  1  0  0  0  0  0  0
  200.2260  171.1090  137.2840 O   0  0  0  0  0  1  0  0  0  0  0  0
  199.6950  171.4140  136.0300 C   0  0  0  0  0  3  0  0  0  0  0  0
  195.5430  175.2550  134.3940 O   0  0  0  0  0  1  0  0  0  0  0  0
  194.8700  174.0360  134.3460 C   0  0  0  0  0  2  0  0  0  0  0  0
  186.4550  176.9920  136.7170 C   0  0  0  0  0  2  0  0  0  0  0  0
  186.0390  174.6820  136.0020 C   0  0  1  0  0  3  0  0  0  0  0  0
  185.9060  175.6450  137.1900 C   0  0  2  0  0  3  0  0  0  0  0  0
  183.5930  174.2040  136.3310 C   0  0  2  0  0  3  0  0  0  0  0  0
  184.0770  172.7630  136.4720 C   0  0  2  0  0  3  0  0  0  0  0  0
  186.1550  173.4280  136.6090 O   0  0  0  0  0  0  0  0  0  0  0  0
  182.9420  174.3190  135.0760 O   0  0  0  0  0  0  0  0  0  0  0  0
  181.6960  172.2870  135.5390 C   0  0  2  0  0  3  0  0  0  0  0  0
  185.3830  172.6140  135.9380 O   0  0  0  0  0  0  0  0  0  0  0  0
  184.6770  175.3390  136.2720 C   0  0  2  0  0  3  0  0  0  0  0  0
  182.6550  173.0240  134.6000 C   0  0  2  0  0  3  0  0  0  0  0  0
  183.1860  171.9840  135.5300 C   0  0  1  0  0  3  0  0  0  0  0  0
  181.0250  171.2060  134.7450 C   0  0  2  0  0  3  0  0  0  0  0  0
  180.0140  170.5380  135.5810 C   0  0  0  0  0  2  0  0  0  0  0  0
  181.2480  169.9370  135.3220 O   0  0  0  0  0  0  0  0  0  0  0  0
  1  2  1  6  0  0  0
  1  5  1  0  0  0  0
  2 11  1  0  0  0  0
  4 10  1  0  0  0  0
  5 14  1  0  0  0  0
  5  3  1  1  0  0  0
  6 17  1  0  0  0  0
  6  4  2  0  0  0  0
  7 11  2  0  0  0  0
  8 16  1  0  0  0  0
  9  8  1  0  0  0  0
  9  2  1  0  0  0  0
 11 15  1  0  0  0  0
 12  4  1  0  0  0  0
 13  6  1  0  0  0  0
 14 12  2  0  0  0  0
 15 13  2  0  0  0  0
 15 14  1  0  0  0  0
 16 30  1  6  0  0  0
 16  1  1  0  0  0  0
 17 18  1  0  0  0  0
 18 19  1  0  0  0  0
 19 21  1  0  0  0  0
 21 20  1  6  0  0  0
 21 22  1  0  0  0  0
 22 23  1  0  0  0  0
 23 24  1  0  0  0  0
 25 26  1  0  0  0  0
 25 24  1  0  0  0  0
 26 29  1  0  0  0  0
 28 29  1  0  0  0  0
 29 27  1  0  0  0  0
 31 51  1  6  0  0  0
 31 30  1  0  0  0  0
 32 36  1  0  0  0  0
 33 36  1  0  0  0  0
 34 39  1  6  0  0  0
 34 32  1  0  0  0  0
 35 31  1  1  0  0  0
 35 34  1  0  0  0  0
 35 33  1  0  0  0  0
 36 37  1  6  0  0  0
 38 37  1  0  0  0  0
 40 41  1  0  0  0  0
 40 43  1  0  0  0  0
 41 42  1  0  0  0  0
 42 45  1  0  0  0  0
 43 39  1  6  0  0  0
 43 44  1  0  0  0  0
 44 45  1  0  0  0  0
 45 46  1  6  0  0  0
 47 49  1  0  0  0  0
 49 43  1  0  0  0  0
 49 48  1  0  0  0  0
 51 50  1  0  0  0  0
 52 13  1  0  0  0  0
 53 61  1  0  0  0  0
 53 57  1  1  0  0  0
 53 54  1  0  0  0  0
 54 52  1  6  0  0  0
 55 58  1  6  0  0  0
 55 56  1  0  0  0  0
 56 60  1  6  0  0  0
 59 64  1  6  0  0  0
 60 57  1  0  0  0  0
 61 55  1  0  0  0  0
 61 54  1  0  0  0  0
 62 58  1  0  0  0  0
 62 63  1  0  0  0  0
 62 59  1  0  0  0  0
 63 59  1  0  0  0  0
 63 56  1  0  0  0  0
 64 66  1  0  0  0  0
 64 65  1  0  0  0  0
 66 65  1  0  0  0  0
M  END
>  <MODEL>
6

>  <REMARK>
 VINA RESULT:      -5.8      4.659     11.920
  Name = 
  21 active torsions:
  status: ('A' for Active; 'I' for Inactive)
    1  A    between atoms: C_3  and  C_9
    2  A    between atoms: C_3  and  C_66
    3  A    between atoms: C_5  and  C_58
    4  A    between atoms: C_6  and  C_37
    5  A    between atoms: C_6  and  C_46
    6  A    between atoms: C_9  and  C_45
    7  A    between atoms: C_9  and  C_60
    8  A    between atoms: N_10  and  C_28
    9  A    between atoms: N_10  and  C_32
   10  A    between atoms: C_13  and  C_37
   11  A    between atoms: C_13  and  C_38
   12  A    between atoms: C_20  and  C_22
   13  A    between atoms: C_22  and  N_29
   14  A    between atoms: N_29  and  C_61
   15  A    between atoms: C_32  and  C_59
   16  A    between atoms: C_34  and  C_35
   17  A    between atoms: C_36  and  C_38
   18  A    between atoms: C_36  and  C_50
   19  A    between atoms: C_39  and  C_62
   20  A    between atoms: C_50  and  C_61
   21  A    between atoms: C_54  and  C_58
                            x       y       z     vdW  Elec       q    Type
                         _______ _______ _______ _____ _____    ______ ____

>  <TORSDO>
F 21

$$$$
=
 OpenBabel10232410143D

 66 75  0  0  1  0  0  0  0  0999 V2000
  188.6090  177.1650  138.7400 C   0  0  2  0  0  3  0  0  0  0  0  0
  187.5850  178.0900  138.2970 N   0  0  0  0  0  0  0  0  0  0  0  0
  190.1360  176.5260  140.6200 C   0  0  0  0  0  1  0  0  0  0  0  0
  187.2210  177.6710  143.3350 C   0  0  0  0  0  0  0  0  0  0  0  0
  189.1430  177.5770  140.1190 C   0  0  2  0  0  3  0  0  0  0  0  0
  185.9850  178.2050  142.9620 C   0  0  0  0  0  0  0  0  0  0  0  0
  185.7770  179.4740  138.7780 O   0  0  0  0  0  0  0  0  0  0  0  0
  189.1580  178.4930  136.8770 C   0  0  0  0  0  2  0  0  0  0  0  0
  187.7570  178.5680  137.0430 O   0  0  0  0  0  0  0  0  0  0  0  0
  187.4840  177.3500  144.6250 F   0  0  0  0  0  0  0  0  0  0  0  0
  186.6620  178.6890  139.2120 C   0  0  0  0  0  0  0  0  0  0  0  0
  188.1940  177.4640  142.4140 N   0  0  0  0  0  0  0  0  0  0  0  0
  185.7520  178.5300  141.6000 C   0  0  0  0  0  0  0  0  0  0  0  0
  188.0130  177.7750  141.0990 C   0  0  0  0  0  0  0  0  0  0  0  0
  186.8000  178.3750  140.6670 C   0  0  0  0  0  0  0  0  0  0  0  0
  189.6800  177.3040  137.6960 C   0  0  2  0  0  3  0  0  0  0  0  0
  184.9560  178.4190  144.0310 C   0  0  0  0  0  2  0  0  0  0  0  0
  185.4370  177.8980  145.3050 N   0  0  0  0  0  2  0  0  0  0  0  0
  185.5760  179.0480  146.1670 C   0  0  0  0  0  2  0  0  0  0  0  0
  186.4460  179.9210  148.3160 C   0  0  0  0  0  1  0  0  0  0  0  0
  186.2230  178.6600  147.5060 C   0  0  2  0  0  3  0  0  0  0  0  0
  187.5680  177.9980  147.2550 C   0  0  0  0  0  2  0  0  0  0  0  0
  188.3970  177.9920  148.5250 C   0  0  0  0  0  2  0  0  0  0  0  0
  189.8930  177.9620  148.2140 C   0  0  0  0  0  2  0  0  0  0  0  0
  190.2120  176.8900  147.1830 C   0  0  0  0  0  2  0  0  0  0  0  0
  191.3020  177.3630  146.2250 C   0  0  0  0  0  2  0  0  0  0  0  0
  190.9340  178.4800  144.1340 F   0  0  0  0  0  0  0  0  0  0  0  0
  191.5010  176.3060  144.0850 F   0  0  0  0  0  0  0  0  0  0  0  0
  190.7850  177.2730  144.7720 C   0  0  0  0  0  3  0  0  0  0  0  0
  189.6520  176.0350  136.8230 C   0  0  0  0  0  2  0  0  0  0  0  0
  190.6030  176.0840  135.6020 C   0  0  1  0  0  3  0  0  0  0  0  0
  192.6150  173.0080  136.1390 C   0  0  0  0  0  2  0  0  0  0  0  0
  190.4020  173.6640  135.5680 O   0  0  0  0  0  0  0  0  0  0  0  0
  192.4920  174.5040  136.1610 C   0  0  2  0  0  3  0  0  0  0  0  0
  191.2660  174.7360  135.3090 C   0  0  2  0  0  3  0  0  0  0  0  0
  191.2270  172.5240  135.7190 C   0  0  1  0  0  3  0  0  0  0  0  0
  191.3210  171.7600  134.4040 C   0  0  0  0  0  2  0  0  0  0  0  0
  191.0160  170.4120  134.5680 O   0  0  0  0  0  1  0  0  0  0  0  0
  193.6730  175.1400  135.5660 N   0  0  0  0  0  2  0  0  0  0  0  0
  194.8430  176.6790  136.9050 O   0  0  0  0  0  0  0  0  0  0  0  0
  193.7030  177.0180  137.6600 C   0  0  0  0  0  2  0  0  0  0  0  0
  193.8570  176.4710  139.0550 C   0  0  0  0  0  2  0  0  0  0  0  0
  194.7450  175.3110  136.5810 C   0  0  1  0  0  0  0  0  0  0  0  0
  194.4730  174.4540  137.7040 O   0  0  0  0  0  0  0  0  0  0  0  0
  194.5410  175.1080  138.9810 C   0  0  1  0  0  3  0  0  0  0  0  0
  195.8310  175.1570  139.4650 O   0  0  0  0  0  1  0  0  0  0  0  0
  196.2900  173.4890  135.9760 O   0  0  0  0  0  1  0  0  0  0  0  0
  197.1590  175.5010  136.5860 O   0  0  0  0  0  1  0  0  0  0  0  0
  196.0880  174.8730  135.9500 C   0  0  0  0  0  3  0  0  0  0  0  0
  188.5190  176.5030  134.4840 O   0  0  0  0  0  1  0  0  0  0  0  0
  189.9010  176.6520  134.3840 C   0  0  0  0  0  2  0  0  0  0  0  0
  184.3430  178.7860  141.1410 C   0  0  0  0  0  2  0  0  0  0  0  0
  182.5260  178.2850  139.5710 C   0  0  1  0  0  3  0  0  0  0  0  0
  184.0520  178.2650  139.7330 C   0  0  2  0  0  3  0  0  0  0  0  0
  182.7340  175.8700  138.9010 C   0  0  2  0  0  3  0  0  0  0  0  0
  182.0330  176.3480  137.6320 C   0  0  2  0  0  3  0  0  0  0  0  0
  182.3450  178.4370  138.1930 O   0  0  0  0  0  0  0  0  0  0  0  0
  181.7960  175.1160  139.6530 O   0  0  0  0  0  0  0  0  0  0  0  0
  181.1810  173.8900  137.6490 C   0  0  2  0  0  3  0  0  0  0  0  0
  181.4030  177.6020  137.8430 O   0  0  0  0  0  0  0  0  0  0  0  0
  183.2150  176.9580  139.9270 C   0  0  2  0  0  3  0  0  0  0  0  0
  180.7190  174.7740  138.8110 C   0  0  2  0  0  3  0  0  0  0  0  0
  180.8920  175.3710  137.4540 C   0  0  1  0  0  3  0  0  0  0  0  0
  179.9820  173.1420  137.1450 C   0  0  2  0  0  3  0  0  0  0  0  0
  180.3000  171.7070  137.0630 C   0  0  0  0  0  2  0  0  0  0  0  0
  180.2590  172.5040  135.9160 O   0  0  0  0  0  0  0  0  0  0  0  0
  1  2  1  6  0  0  0
  1  5  1  0  0  0  0
  2 11  1  0  0  0  0
  4 10  1  0  0  0  0
  5  3  1  1  0  0  0
  5 14  1  0  0  0  0
  6  4  1  0  0  0  0
  6 17  1  0  0  0  0
  7 11  2  0  0  0  0
  8  9  1  0  0  0  0
  8 16  1  0  0  0  0
  9  2  1  0  0  0  0
 11 15  1  0  0  0  0
 12  4  2  0  0  0  0
 13  6  2  0  0  0  0
 14 12  1  0  0  0  0
 15 14  2  0  0  0  0
 15 13  1  0  0  0  0
 16 30  1  6  0  0  0
 16  1  1  0  0  0  0
 17 18  1  0  0  0  0
 18 19  1  0  0  0  0
 19 21  1  0  0  0  0
 21 20  1  1  0  0  0
 22 21  1  0  0  0  0
 22 23  1  0  0  0  0
 24 23  1  0  0  0  0
 25 24  1  0  0  0  0
 26 25  1  0  0  0  0
 27 29  1  0  0  0  0
 28 29  1  0  0  0  0
 29 26  1  0  0  0  0
 31 51  1  6  0  0  0
 31 30  1  0  0  0  0
 32 34  1  0  0  0  0
 33 36  1  0  0  0  0
 34 39  1  6  0  0  0
 35 33  1  0  0  0  0
 35 31  1  1  0  0  0
 35 34  1  0  0  0  0
 36 37  1  6  0  0  0
 36 32  1  0  0  0  0
 37 38  1  0  0  0  0
 40 41  1  0  0  0  0
 41 42  1  0  0  0  0
 43 39  1  6  0  0  0
 43 40  1  0  0  0  0
 43 44  1  0  0  0  0
 44 45  1  0  0  0  0
 45 42  1  0  0  0  0
 45 46  1  6  0  0  0
 49 47  1  0  0  0  0
 49 43  1  0  0  0  0
 49 48  1  0  0  0  0
 51 50  1  0  0  0  0
 52 13  1  0  0  0  0
 53 57  1  6  0  0  0
 53 54  1  0  0  0  0
 53 61  1  0  0  0  0
 54 61  1  0  0  0  0
 54 52  1  1  0  0  0
 55 58  1  1  0  0  0
 55 61  1  0  0  0  0
 56 60  1  1  0  0  0
 56 55  1  0  0  0  0
 59 64  1  6  0  0  0
 59 62  1  0  0  0  0
 60 57  1  0  0  0  0
 62 58  1  0  0  0  0
 63 56  1  0  0  0  0
 63 59  1  0  0  0  0
 63 62  1  0  0  0  0
 65 64  1  0  0  0  0
 66 65  1  0  0  0  0
 66 64  1  0  0  0  0
M  END
>  <MODEL>
7

>  <REMARK>
 VINA RESULT:      -5.4      3.752     10.429
  Name = 
  21 active torsions:
  status: ('A' for Active; 'I' for Inactive)
    1  A    between atoms: C_3  and  C_9
    2  A    between atoms: C_3  and  C_66
    3  A    between atoms: C_5  and  C_58
    4  A    between atoms: C_6  and  C_37
    5  A    between atoms: C_6  and  C_46
    6  A    between atoms: C_9  and  C_45
    7  A    between atoms: C_9  and  C_60
    8  A    between atoms: N_10  and  C_28
    9  A    between atoms: N_10  and  C_32
   10  A    between atoms: C_13  and  C_37
   11  A    between atoms: C_13  and  C_38
   12  A    between atoms: C_20  and  C_22
   13  A    between atoms: C_22  and  N_29
   14  A    between atoms: N_29  and  C_61
   15  A    between atoms: C_32  and  C_59
   16  A    between atoms: C_34  and  C_35
   17  A    between atoms: C_36  and  C_38
   18  A    between atoms: C_36  and  C_50
   19  A    between atoms: C_39  and  C_62
   20  A    between atoms: C_50  and  C_61
   21  A    between atoms: C_54  and  C_58
                            x       y       z     vdW  Elec       q    Type
                         _______ _______ _______ _____ _____    ______ ____

>  <TORSDO>
F 21

$$$$
=
 OpenBabel10232410143D

 66 75  0  0  1  0  0  0  0  0999 V2000
  185.2600  177.8620  137.6900 C   0  0  2  0  0  3  0  0  0  0  0  0
  185.7800  178.0280  139.0320 N   0  0  0  0  0  0  0  0  0  0  0  0
  185.7250  178.1590  135.2470 C   0  0  0  0  0  1  0  0  0  0  0  0
  189.7130  177.2550  135.9280 C   0  0  0  0  0  0  0  0  0  0  0  0
  186.2360  178.4480  136.6590 C   0  0  2  0  0  3  0  0  0  0  0  0
  190.2370  176.9800  137.1940 C   0  0  0  0  0  0  0  0  0  0  0  0
  187.5850  178.0650  140.5020 O   0  0  0  0  0  0  0  0  0  0  0  0
  184.0690  179.3390  139.0800 C   0  0  0  0  0  2  0  0  0  0  0  0
  184.9100  178.5710  139.9150 O   0  0  0  0  0  0  0  0  0  0  0  0
  190.4620  177.0940  134.8110 F   0  0  0  0  0  0  0  0  0  0  0  0
  187.1800  177.9310  139.3160 C   0  0  0  0  0  0  0  0  0  0  0  0
  188.4390  177.7000  135.7860 N   0  0  0  0  0  0  0  0  0  0  0  0
  189.4190  177.1640  138.3390 C   0  0  0  0  0  0  0  0  0  0  0  0
  187.6280  177.9020  136.8630 C   0  0  0  0  0  0  0  0  0  0  0  0
  188.1210  177.6950  138.1790 C   0  0  0  0  0  0  0  0  0  0  0  0
  183.9810  178.6480  137.7120 C   0  0  2  0  0  3  0  0  0  0  0  0
  191.6550  176.5010  137.2820 C   0  0  0  0  0  2  0  0  0  0  0  0
  191.7490  175.1170  136.8350 N   0  0  0  0  0  2  0  0  0  0  0  0
  192.9490  174.5920  137.4430 C   0  0  0  0  0  2  0  0  0  0  0  0
  193.5570  174.8240  135.0530 C   0  0  0  0  0  1  0  0  0  0  0  0
  194.1140  174.5770  136.4400 C   0  0  2  0  0  3  0  0  0  0  0  0
  194.7920  173.2170  136.4580 C   0  0  0  0  0  2  0  0  0  0  0  0
  195.9340  173.1840  135.4590 C   0  0  0  0  0  2  0  0  0  0  0  0
  195.9370  171.8820  134.6600 C   0  0  0  0  0  2  0  0  0  0  0  0
  196.2090  170.6900  135.5650 C   0  0  0  0  0  2  0  0  0  0  0  0
  197.6510  170.7040  136.0660 C   0  0  0  0  0  2  0  0  0  0  0  0
  196.7530  169.1170  137.6240 F   0  0  0  0  0  0  0  0  0  0  0  0
  198.9600  169.5350  137.6960 F   0  0  0  0  0  0  0  0  0  0  0  0
  197.7100  170.0920  137.4840 C   0  0  0  0  0  3  0  0  0  0  0  0
  182.8130  177.6430  137.7250 C   0  0  0  0  0  2  0  0  0  0  0  0
  182.5860  176.9150  136.3770 C   0  0  1  0  0  3  0  0  0  0  0  0
  182.4800  173.3480  137.4050 C   0  0  0  0  0  2  0  0  0  0  0  0
  181.2590  175.3660  137.6950 O   0  0  0  0  0  0  0  0  0  0  0  0
  183.1730  174.4820  136.7070 C   0  0  2  0  0  3  0  0  0  0  0  0
  182.0590  175.4890  136.5510 C   0  0  2  0  0  3  0  0  0  0  0  0
  181.2270  173.9860  138.0030 C   0  0  1  0  0  3  0  0  0  0  0  0
  179.9820  173.3380  137.4090 C   0  0  0  0  0  2  0  0  0  0  0  0
  180.1680  172.9950  136.0730 O   0  0  0  0  0  1  0  0  0  0  0  0
  183.6880  174.0620  135.3980 N   0  0  0  0  0  2  0  0  0  0  0  0
  185.8890  173.5860  134.7200 O   0  0  0  0  0  0  0  0  0  0  0  0
  186.4080  174.7730  135.2760 C   0  0  0  0  0  2  0  0  0  0  0  0
  187.2500  174.4260  136.4750 C   0  0  0  0  0  2  0  0  0  0  0  0
  184.8470  173.1450  135.5600 C   0  0  1  0  0  0  0  0  0  0  0  0
  185.2000  173.0700  136.9530 O   0  0  0  0  0  0  0  0  0  0  0  0
  186.5960  173.2680  137.2230 C   0  0  1  0  0  3  0  0  0  0  0  0
  187.3160  172.0990  137.0860 O   0  0  0  0  0  1  0  0  0  0  0  0
  184.0570  170.8840  136.1400 O   0  0  0  0  0  1  0  0  0  0  0  0
  185.4400  171.1330  134.3500 O   0  0  0  0  0  1  0  0  0  0  0  0
  184.4210  171.7340  135.0900 C   0  0  0  0  0  3  0  0  0  0  0  0
  180.7910  176.9370  134.7800 O   0  0  0  0  0  1  0  0  0  0  0  0
  181.7120  177.7390  135.4510 C   0  0  0  0  0  2  0  0  0  0  0  0
  189.8500  176.5650  139.6500 C   0  0  0  0  0  2  0  0  0  0  0  0
  190.9010  176.9330  141.8350 C   0  0  1  0  0  3  0  0  0  0  0  0
  190.0170  177.5940  140.7690 C   0  0  2  0  0  3  0  0  0  0  0  0
  189.0870  177.5330  143.4700 C   0  0  2  0  0  3  0  0  0  0  0  0
  190.2200  178.2620  144.1860 C   0  0  2  0  0  3  0  0  0  0  0  0
  191.5320  178.0160  142.4550 O   0  0  0  0  0  0  0  0  0  0  0  0
  188.7700  176.3760  144.2290 O   0  0  0  0  0  0  0  0  0  0  0  0
  188.7360  177.7200  146.2520 C   0  0  2  0  0  3  0  0  0  0  0  0
  191.4840  177.7930  143.7410 O   0  0  0  0  0  0  0  0  0  0  0  0
  189.3790  176.9470  142.0420 C   0  0  2  0  0  3  0  0  0  0  0  0
  189.3310  176.5170  145.5140 C   0  0  2  0  0  3  0  0  0  0  0  0
  190.1170  177.7830  145.6180 C   0  0  1  0  0  3  0  0  0  0  0  0
  188.9400  177.4960  147.7210 C   0  0  2  0  0  3  0  0  0  0  0  0
  188.2740  178.5690  148.4780 C   0  0  0  0  0  2  0  0  0  0  0  0
  189.6610  178.5610  148.3030 O   0  0  0  0  0  0  0  0  0  0  0  0
  1 16  1  0  0  0  0
  1  2  1  1  0  0  0
  2 11  1  0  0  0  0
  2  9  1  0  0  0  0
  4  6  1  0  0  0  0
  5  3  1  6  0  0  0
  5 14  1  0  0  0  0
  5  1  1  0  0  0  0
  6 17  1  0  0  0  0
  6 13  2  0  0  0  0
  8  9  1  0  0  0  0
 10  4  1  0  0  0  0
 11  7  2  0  0  0  0
 12  4  2  0  0  0  0
 12 14  1  0  0  0  0
 13 52  1  0  0  0  0
 14 15  2  0  0  0  0
 15 13  1  0  0  0  0
 15 11  1  0  0  0  0
 16 30  1  1  0  0  0
 16  8  1  0  0  0  0
 18 17  1  0  0  0  0
 18 19  1  0  0  0  0
 21 20  1  6  0  0  0
 21 22  1  0  0  0  0
 21 19  1  0  0  0  0
 23 22  1  0  0  0  0
 24 23  1  0  0  0  0
 24 25  1  0  0  0  0
 25 26  1  0  0  0  0
 26 29  1  0  0  0  0
 29 27  1  0  0  0  0
 29 28  1  0  0  0  0
 31 51  1  6  0  0  0
 31 30  1  0  0  0  0
 32 36  1  0  0  0  0
 33 36  1  0  0  0  0
 34 39  1  6  0  0  0
 34 32  1  0  0  0  0
 35 31  1  1  0  0  0
 35 34  1  0  0  0  0
 35 33  1  0  0  0  0
 36 37  1  6  0  0  0
 38 37  1  0  0  0  0
 39 43  1  0  0  0  0
 40 41  1  0  0  0  0
 40 43  1  0  0  0  0
 41 42  1  0  0  0  0
 42 45  1  0  0  0  0
 43 49  1  6  0  0  0
 43 44  1  0  0  0  0
 44 45  1  0  0  0  0
 45 46  1  6  0  0  0
 48 49  1  0  0  0  0
 49 47  1  0  0  0  0
 50 51  1  0  0  0  0
 53 61  1  0  0  0  0
 53 57  1  1  0  0  0
 54 52  1  6  0  0  0
 54 53  1  0  0  0  0
 54 61  1  0  0  0  0
 55 56  1  0  0  0  0
 55 58  1  1  0  0  0
 56 60  1  6  0  0  0
 56 63  1  0  0  0  0
 57 60  1  0  0  0  0
 58 62  1  0  0  0  0
 59 64  1  1  0  0  0
 61 55  1  0  0  0  0
 62 63  1  0  0  0  0
 62 59  1  0  0  0  0
 63 59  1  0  0  0  0
 64 66  1  0  0  0  0
 64 65  1  0  0  0  0
 66 65  1  0  0  0  0
M  END
>  <MODEL>
8

>  <REMARK>
 VINA RESULT:      -5.3      2.670      4.587
  Name = 
  21 active torsions:
  status: ('A' for Active; 'I' for Inactive)
    1  A    between atoms: C_3  and  C_9
    2  A    between atoms: C_3  and  C_66
    3  A    between atoms: C_5  and  C_58
    4  A    between atoms: C_6  and  C_37
    5  A    between atoms: C_6  and  C_46
    6  A    between atoms: C_9  and  C_45
    7  A    between atoms: C_9  and  C_60
    8  A    between atoms: N_10  and  C_28
    9  A    between atoms: N_10  and  C_32
   10  A    between atoms: C_13  and  C_37
   11  A    between atoms: C_13  and  C_38
   12  A    between atoms: C_20  and  C_22
   13  A    between atoms: C_22  and  N_29
   14  A    between atoms: N_29  and  C_61
   15  A    between atoms: C_32  and  C_59
   16  A    between atoms: C_34  and  C_35
   17  A    between atoms: C_36  and  C_38
   18  A    between atoms: C_36  and  C_50
   19  A    between atoms: C_39  and  C_62
   20  A    between atoms: C_50  and  C_61
   21  A    between atoms: C_54  and  C_58
                            x       y       z     vdW  Elec       q    Type
                         _______ _______ _______ _____ _____    ______ ____

>  <TORSDO>
F 21

$$$$
=
 OpenBabel10232410143D

 66 75  0  0  1  0  0  0  0  0999 V2000
  189.1040  177.0740  140.1810 C   0  0  2  0  0  3  0  0  0  0  0  0
  190.4050  176.4990  139.9050 N   0  0  0  0  0  0  0  0  0  0  0  0
  187.0820  178.1700  139.1900 C   0  0  0  0  0  1  0  0  0  0  0  0
  187.5030  175.8150  135.8050 C   0  0  0  0  0  0  0  0  0  0  0  0
  188.5000  177.6740  138.9030 C   0  0  2  0  0  3  0  0  0  0  0  0
  188.5370  174.8930  135.6300 C   0  0  0  0  0  0  0  0  0  0  0  0
  191.8320  175.3400  138.4770 O   0  0  0  0  0  0  0  0  0  0  0  0
  190.9410  178.1580  141.1740 C   0  0  0  0  0  2  0  0  0  0  0  0
  191.3880  176.8870  140.7490 O   0  0  0  0  0  0  0  0  0  0  0  0
  186.4740  175.8870  134.9270 F   0  0  0  0  0  0  0  0  0  0  0  0
  190.6910  175.8420  138.6650 C   0  0  0  0  0  0  0  0  0  0  0  0
  187.5050  176.6690  136.8590 N   0  0  0  0  0  0  0  0  0  0  0  0
  189.5980  174.8520  136.5730 C   0  0  0  0  0  0  0  0  0  0  0  0
  188.5130  176.6690  137.7770 C   0  0  0  0  0  0  0  0  0  0  0  0
  189.6210  175.7950  137.6220 C   0  0  0  0  0  0  0  0  0  0  0  0
  189.4050  178.1550  141.1800 C   0  0  2  0  0  3  0  0  0  0  0  0
  188.4800  173.9840  134.4390 C   0  0  0  0  0  2  0  0  0  0  0  0
  187.2260  173.2400  134.4330 N   0  0  0  0  0  2  0  0  0  0  0  0
  187.2810  172.3760  135.5890 C   0  0  0  0  0  2  0  0  0  0  0  0
  185.5030  170.7880  134.9190 C   0  0  0  0  0  1  0  0  0  0  0  0
  185.8860  171.8380  135.9430 C   0  0  2  0  0  3  0  0  0  0  0  0
  184.8690  172.9660  135.8870 C   0  0  0  0  0  2  0  0  0  0  0  0
  184.2760  173.2090  137.2620 C   0  0  0  0  0  2  0  0  0  0  0  0
  183.2390  174.3310  137.2320 C   0  0  0  0  0  2  0  0  0  0  0  0
  183.3050  175.1660  138.5010 C   0  0  0  0  0  2  0  0  0  0  0  0
  182.6850  176.5440  138.2790 C   0  0  0  0  0  2  0  0  0  0  0  0
  182.9410  178.4380  136.8310 F   0  0  0  0  0  0  0  0  0  0  0  0
  184.4210  176.7570  136.6420 F   0  0  0  0  0  0  0  0  0  0  0  0
  183.0950  177.0740  136.8870 C   0  0  0  0  0  3  0  0  0  0  0  0
  188.9040  177.6760  142.5550 C   0  0  0  0  0  2  0  0  0  0  0  0
  189.3120  178.5950  143.7340 C   0  0  1  0  0  3  0  0  0  0  0  0
  186.9010  177.0090  146.0730 C   0  0  0  0  0  2  0  0  0  0  0  0
  189.2350  177.0760  145.6280 O   0  0  0  0  0  0  0  0  0  0  0  0
  187.1790  177.8640  144.8700 C   0  0  2  0  0  3  0  0  0  0  0  0
  188.6380  178.2050  145.0520 C   0  0  2  0  0  3  0  0  0  0  0  0
  188.2840  176.5500  146.5340 C   0  0  1  0  0  3  0  0  0  0  0  0
  188.5550  177.0610  147.9440 C   0  0  0  0  0  2  0  0  0  0  0  0
  188.1370  178.3790  148.1030 O   0  0  0  0  0  1  0  0  0  0  0  0
  186.3500  179.0760  144.8800 N   0  0  0  0  0  2  0  0  0  0  0  0
  184.7560  180.0110  143.4270 O   0  0  0  0  0  0  0  0  0  0  0  0
  185.6640  180.1050  142.3530 C   0  0  0  0  0  2  0  0  0  0  0  0
  185.2800  179.1010  141.2970 C   0  0  0  0  0  2  0  0  0  0  0  0
  185.0750  178.8460  144.1520 C   0  0  1  0  0  0  0  0  0  0  0  0
  185.1980  177.6610  143.3460 O   0  0  0  0  0  0  0  0  0  0  0  0
  184.7870  177.8270  141.9790 C   0  0  1  0  0  3  0  0  0  0  0  0
  183.4260  177.6610  141.8290 O   0  0  0  0  0  1  0  0  0  0  0  0
  182.7620  179.2750  144.8880 O   0  0  0  0  0  1  0  0  0  0  0  0
  184.3770  178.9960  146.4670 O   0  0  0  0  0  1  0  0  0  0  0  0
  183.9550  178.6110  145.1940 C   0  0  0  0  0  3  0  0  0  0  0  0
  191.2160  179.9350  144.3230 O   0  0  0  0  0  1  0  0  0  0  0  0
  190.8200  178.6790  143.8650 C   0  0  0  0  0  2  0  0  0  0  0  0
  190.5230  173.6660  136.5810 C   0  0  0  0  0  2  0  0  0  0  0  0
  192.4530  172.4600  135.6670 C   0  0  1  0  0  3  0  0  0  0  0  0
  191.6710  173.7770  135.5770 C   0  0  2  0  0  3  0  0  0  0  0  0
  194.4920  173.8870  136.0220 C   0  0  2  0  0  3  0  0  0  0  0  0
  195.0110  173.1380  134.7990 C   0  0  2  0  0  3  0  0  0  0  0  0
  193.0200  172.3280  134.3960 O   0  0  0  0  0  0  0  0  0  0  0  0
  195.1890  173.3960  137.1570 O   0  0  0  0  0  0  0  0  0  0  0  0
  197.2890  173.6200  135.9580 C   0  0  2  0  0  3  0  0  0  0  0  0
  194.2600  171.9540  134.5740 O   0  0  0  0  0  0  0  0  0  0  0  0
  192.9860  173.6880  136.4210 C   0  0  2  0  0  3  0  0  0  0  0  0
  196.3290  172.6970  136.7130 C   0  0  2  0  0  3  0  0  0  0  0  0
  196.3790  172.6490  135.2210 C   0  0  1  0  0  3  0  0  0  0  0  0
  198.6500  172.9930  136.0030 C   0  0  2  0  0  3  0  0  0  0  0  0
  199.1140  172.9280  137.3990 C   0  0  0  0  0  2  0  0  0  0  0  0
  199.6090  173.8920  136.5180 O   0  0  0  0  0  0  0  0  0  0  0  0
  1  2  1  6  0  0  0
  1 16  1  0  0  0  0
  2  9  1  0  0  0  0
  4 12  1  0  0  0  0
  5  3  1  1  0  0  0
  5  1  1  0  0  0  0
  6  4  2  0  0  0  0
  6 13  1  0  0  0  0
  7 11  2  0  0  0  0
  8 16  1  0  0  0  0
  9  8  1  0  0  0  0
 10  4  1  0  0  0  0
 11  2  1  0  0  0  0
 12 14  2  0  0  0  0
 13 52  1  0  0  0  0
 13 15  2  0  0  0  0
 14  5  1  0  0  0  0
 15 14  1  0  0  0  0
 15 11  1  0  0  0  0
 16 30  1  1  0  0  0
 17  6  1  0  0  0  0
 18 17  1  0  0  0  0
 18 19  1  0  0  0  0
 19 21  1  0  0  0  0
 21 20  1  6  0  0  0
 22 21  1  0  0  0  0
 22 23  1  0  0  0  0
 24 23  1  0  0  0  0
 24 25  1  0  0  0  0
 26 25  1  0  0  0  0
 27 29  1  0  0  0  0
 28 29  1  0  0  0  0
 29 26  1  0  0  0  0
 31 30  1  6  0  0  0
 31 51  1  0  0  0  0
 32 36  1  0  0  0  0
 33 36  1  0  0  0  0
 34 39  1  1  0  0  0
 34 35  1  0  0  0  0
 34 32  1  0  0  0  0
 35 31  1  6  0  0  0
 35 33  1  0  0  0  0
 36 37  1  1  0  0  0
 37 38  1  0  0  0  0
 40 43  1  0  0  0  0
 41 40  1  0  0  0  0
 42 45  1  0  0  0  0
 42 41  1  0  0  0  0
 43 39  1  1  0  0  0
 43 49  1  0  0  0  0
 44 43  1  0  0  0  0
 45 46  1  1  0  0  0
 45 44  1  0  0  0  0
 47 49  1  0  0  0  0
 49 48  1  0  0  0  0
 51 50  1  0  0  0  0
 53 57  1  6  0  0  0
 53 61  1  0  0  0  0
 54 53  1  0  0  0  0
 54 61  1  0  0  0  0
 54 52  1  1  0  0  0
 55 61  1  0  0  0  0
 55 58  1  1  0  0  0
 56 60  1  1  0  0  0
 56 63  1  0  0  0  0
 56 55  1  0  0  0  0
 57 60  1  0  0  0  0
 59 64  1  1  0  0  0
 59 62  1  0  0  0  0
 62 58  1  0  0  0  0
 63 59  1  0  0  0  0
 63 62  1  0  0  0  0
 64 66  1  0  0  0  0
 64 65  1  0  0  0  0
 66 65  1  0  0  0  0
M  END
>  <MODEL>
9

>  <REMARK>
 VINA RESULT:      -5.0      3.743      9.284
  Name = 
  21 active torsions:
  status: ('A' for Active; 'I' for Inactive)
    1  A    between atoms: C_3  and  C_9
    2  A    between atoms: C_3  and  C_66
    3  A    between atoms: C_5  and  C_58
    4  A    between atoms: C_6  and  C_37
    5  A    between atoms: C_6  and  C_46
    6  A    between atoms: C_9  and  C_45
    7  A    between atoms: C_9  and  C_60
    8  A    between atoms: N_10  and  C_28
    9  A    between atoms: N_10  and  C_32
   10  A    between atoms: C_13  and  C_37
   11  A    between atoms: C_13  and  C_38
   12  A    between atoms: C_20  and  C_22
   13  A    between atoms: C_22  and  N_29
   14  A    between atoms: N_29  and  C_61
   15  A    between atoms: C_32  and  C_59
   16  A    between atoms: C_34  and  C_35
   17  A    between atoms: C_36  and  C_38
   18  A    between atoms: C_36  and  C_50
   19  A    between atoms: C_39  and  C_62
   20  A    between atoms: C_50  and  C_61
   21  A    between atoms: C_54  and  C_58
                            x       y       z     vdW  Elec       q    Type
                         _______ _______ _______ _____ _____    ______ ____

>  <TORSDO>
F 21

$$$$
