=
 OpenBabel10232408143D

 32 36  0  0  1  0  0  0  0  0999 V2000
  188.5750  177.3540  147.1720 C   0  0  0  0  0  0  0  0  0  0  0  0
  190.4600  176.6230  146.0230 C   0  0  2  0  0  3  0  0  0  0  0  0
  188.0810  177.0380  144.9800 N   0  0  0  0  0  0  0  0  0  0  0  0
  191.9360  177.3010  147.8420 O   0  0  0  0  0  0  0  0  0  0  0  0
  188.9750  176.7940  146.0630 C   0  0  0  0  0  0  0  0  0  0  0  0
  186.4310  178.2860  147.7620 N   0  0  0  0  0  2  0  0  0  0  0  0
  187.1100  177.7520  145.4690 C   0  0  0  0  0  0  0  0  0  0  0  0
  187.3600  178.0860  146.8850 C   0  0  0  0  0  0  0  0  0  0  0  0
  189.6270  177.7220  148.0470 N   0  0  0  0  0  2  0  0  0  0  0  0
  190.7760  177.2300  147.3580 C   0  0  0  0  0  0  0  0  0  0  0  0
  184.8920  178.7690  145.2630 C   0  0  0  0  0  3  0  0  0  0  0  0
  183.6740  179.1780  144.5170 C   0  0  0  0  0  3  0  0  0  0  0  0
  187.0320  178.0820  142.3440 C   0  0  0  0  0  3  0  0  0  0  0  0
  183.6390  179.1360  143.1800 C   0  0  0  0  0  3  0  0  0  0  0  0
  185.3610  179.1960  141.4260 C   0  0  0  0  0  2  0  0  0  0  0  0
  184.8290  178.6340  142.4930 C   0  0  1  0  0  3  0  0  0  0  0  0
  185.8380  177.7950  143.1960 C   0  0  2  0  0  3  0  0  0  0  0  0
  186.7300  178.8220  141.3240 N   0  0  0  0  0  0  0  0  0  0  0  0
  185.9510  178.1910  144.6580 C   0  0  0  0  0  0  0  0  0  0  0  0
  191.0630  177.4660  144.9120 C   0  0  0  0  0  2  0  0  0  0  0  0
  191.5000  177.0150  142.5680 C   0  0  0  0  0  0  0  0  0  0  0  0
  191.5230  177.4360  141.3300 C   0  0  0  0  0  3  0  0  0  0  0  0
  191.4820  176.5780  143.7960 C   0  0  0  0  0  3  0  0  0  0  0  0
  190.7460  176.7890  140.2160 C   0  0  0  0  0  2  0  0  0  0  0  0
  189.6940  177.6920  139.5720 C   0  0  0  0  0  2  0  0  0  0  0  0
  189.8970  177.7580  138.1280 N   0  0  0  0  0  0  0  0  0  0  0  0
  187.5380  178.3350  137.5750 C   0  0  0  0  0  2  0  0  0  0  0  0
  187.3950  177.0830  136.8400 N   0  0  0  0  0  0  0  0  0  0  0  0
  189.0060  178.7770  137.5570 C   0  0  0  0  0  2  0  0  0  0  0  0
  189.6530  176.4390  137.5290 C   0  0  0  0  0  2  0  0  0  0  0  0
  185.7210  176.6230  136.9680 Cl  0  0  0  0  0  0  0  0  0  0  0  0
  188.1630  176.0670  137.5490 C   0  0  0  0  0  2  0  0  0  0  0  0
  1  9  1  0  0  0  0
  2 20  1  6  0  0  0
  2  5  1  0  0  0  0
  2 10  1  0  0  0  0
  3  7  2  0  0  0  0
  3  5  1  0  0  0  0
  5  1  2  0  0  0  0
  7  8  1  0  0  0  0
  8  1  1  0  0  0  0
  8  6  2  0  0  0  0
 10  4  2  0  0  0  0
 10  9  1  0  0  0  0
 12 11  1  0  0  0  0
 14 12  2  0  0  0  0
 16 15  1  1  0  0  0
 16 14  1  0  0  0  0
 16 17  1  0  0  0  0
 17 13  1  6  0  0  0
 17 19  1  0  0  0  0
 18 15  1  0  0  0  0
 18 13  2  0  0  0  0
 19 11  2  0  0  0  0
 19  7  1  0  0  0  0
 21 23  2  0  0  0  0
 22 21  2  0  0  0  0
 23 20  1  0  0  0  0
 24 22  1  0  0  0  0
 25 24  1  0  0  0  0
 26 25  1  0  0  0  0
 28 31  1  0  0  0  0
 28 32  1  0  0  0  0
 28 27  1  0  0  0  0
 29 27  1  0  0  0  0
 29 26  1  0  0  0  0
 30 32  1  0  0  0  0
 30 26  1  0  0  0  0
M  END
>  <MODEL>
1

>  <REMARK>
 VINA RESULT:      -9.6      0.000      0.000
  Name = 
  6 active torsions:
  status: ('A' for Active; 'I' for Inactive)
    1  A    between atoms: N_2  and  C_13
    2  A    between atoms: C_3  and  C_18
    3  A    between atoms: C_9  and  C_29
    4  A    between atoms: C_13  and  C_29
    5  A    between atoms: C_18  and  C_24
    6  A    between atoms: C_21  and  C_30
                            x       y       z     vdW  Elec       q    Type
                         _______ _______ _______ _____ _____    ______ ____

>  <TORSDO>
F 6

$$$$
=
 OpenBabel10232408143D

 32 36  0  0  1  0  0  0  0  0999 V2000
  185.5760  178.6480  145.9840 C   0  0  0  0  0  0  0  0  0  0  0  0
  184.8280  179.1990  143.8520 C   0  0  2  0  0  3  0  0  0  0  0  0
  187.3090  178.6370  144.5200 N   0  0  0  0  0  0  0  0  0  0  0  0
  182.5040  178.7950  144.4710 O   0  0  0  0  0  0  0  0  0  0  0  0
  185.9710  179.0370  144.8020 C   0  0  0  0  0  0  0  0  0  0  0  0
  186.8480  177.8170  147.8560 N   0  0  0  0  0  2  0  0  0  0  0  0
  187.7270  178.0040  145.5770 C   0  0  0  0  0  0  0  0  0  0  0  0
  186.6510  177.8830  146.5800 C   0  0  0  0  0  0  0  0  0  0  0  0
  184.1820  178.4120  146.0800 N   0  0  0  0  0  2  0  0  0  0  0  0
  183.7240  178.7960  144.7840 C   0  0  0  0  0  0  0  0  0  0  0  0
  189.5870  177.1290  146.9060 C   0  0  0  0  0  3  0  0  0  0  0  0
  190.9720  176.6250  147.0980 C   0  0  0  0  0  3  0  0  0  0  0  0
  189.4900  176.8750  143.2330 C   0  0  0  0  0  3  0  0  0  0  0  0
  191.7440  176.3190  146.0490 C   0  0  0  0  0  3  0  0  0  0  0  0
  191.2820  175.6810  143.7190 C   0  0  0  0  0  2  0  0  0  0  0  0
  191.1830  176.5390  144.7160 C   0  0  1  0  0  3  0  0  0  0  0  0
  190.0340  177.4590  144.4960 C   0  0  2  0  0  3  0  0  0  0  0  0
  190.2380  175.9180  142.7830 N   0  0  0  0  0  0  0  0  0  0  0  0
  189.0960  177.4510  145.6910 C   0  0  0  0  0  0  0  0  0  0  0  0
  184.9380  178.1990  142.7120 C   0  0  0  0  0  2  0  0  0  0  0  0
  185.2820  178.7880  140.3840 C   0  0  0  0  0  0  0  0  0  0  0  0
  184.8490  178.7840  139.1500 C   0  0  0  0  0  3  0  0  0  0  0  0
  185.7300  178.8010  141.6080 C   0  0  0  0  0  3  0  0  0  0  0  0
  185.6060  178.1660  138.0050 C   0  0  0  0  0  2  0  0  0  0  0  0
  186.9590  177.5670  138.3920 C   0  0  0  0  0  2  0  0  0  0  0  0
  187.9930  178.5980  138.3780 N   0  0  0  0  0  0  0  0  0  0  0  0
  189.6200  177.2940  137.0160 C   0  0  0  0  0  2  0  0  0  0  0  0
  190.5600  177.2850  138.1300 N   0  0  0  0  0  0  0  0  0  0  0  0
  188.7260  178.5360  137.1060 C   0  0  0  0  0  2  0  0  0  0  0  0
  188.8950  178.4140  139.5240 C   0  0  0  0  0  2  0  0  0  0  0  0
  191.4840  175.8170  137.9880 Cl  0  0  0  0  0  0  0  0  0  0  0  0
  189.7850  177.1730  139.3590 C   0  0  0  0  0  2  0  0  0  0  0  0
  1  9  1  0  0  0  0
  1  8  1  0  0  0  0
  2 20  1  6  0  0  0
  2 10  1  0  0  0  0
  2  5  1  0  0  0  0
  3  5  1  0  0  0  0
  3  7  2  0  0  0  0
  4 10  2  0  0  0  0
  5  1  2  0  0  0  0
  7 19  1  0  0  0  0
  7  8  1  0  0  0  0
  8  6  2  0  0  0  0
 10  9  1  0  0  0  0
 11 12  1  0  0  0  0
 14 12  2  0  0  0  0
 16 15  1  1  0  0  0
 16 14  1  0  0  0  0
 17 13  1  6  0  0  0
 17 16  1  0  0  0  0
 17 19  1  0  0  0  0
 18 13  2  0  0  0  0
 18 15  1  0  0  0  0
 19 11  2  0  0  0  0
 21 23  2  0  0  0  0
 22 21  2  0  0  0  0
 23 20  1  0  0  0  0
 24 25  1  0  0  0  0
 24 22  1  0  0  0  0
 26 25  1  0  0  0  0
 26 30  1  0  0  0  0
 27 29  1  0  0  0  0
 27 28  1  0  0  0  0
 28 32  1  0  0  0  0
 29 26  1  0  0  0  0
 31 28  1  0  0  0  0
 32 30  1  0  0  0  0
M  END
>  <MODEL>
2

>  <REMARK>
 VINA RESULT:      -9.4      2.493      5.331
  Name = 
  6 active torsions:
  status: ('A' for Active; 'I' for Inactive)
    1  A    between atoms: N_2  and  C_13
    2  A    between atoms: C_3  and  C_18
    3  A    between atoms: C_9  and  C_29
    4  A    between atoms: C_13  and  C_29
    5  A    between atoms: C_18  and  C_24
    6  A    between atoms: C_21  and  C_30
                            x       y       z     vdW  Elec       q    Type
                         _______ _______ _______ _____ _____    ______ ____

>  <TORSDO>
F 6

$$$$
=
 OpenBabel10232408143D

 32 36  0  0  1  0  0  0  0  0999 V2000
  190.6280  176.6410  142.7260 C   0  0  0  0  0  0  0  0  0  0  0  0
  189.3040  177.1470  140.8830 C   0  0  2  0  0  3  0  0  0  0  0  0
  188.5150  177.1280  143.3920 N   0  0  0  0  0  0  0  0  0  0  0  0
  191.2580  177.4540  139.4570 O   0  0  0  0  0  0  0  0  0  0  0  0
  189.3920  176.7710  142.3270 C   0  0  0  0  0  0  0  0  0  0  0  0
  191.5350  176.4500  144.9520 N   0  0  0  0  0  2  0  0  0  0  0  0
  189.2530  177.1940  144.4610 C   0  0  0  0  0  0  0  0  0  0  0  0
  190.6740  176.9650  144.1360 C   0  0  0  0  0  0  0  0  0  0  0  0
  191.5920  176.9390  141.7320 N   0  0  0  0  0  2  0  0  0  0  0  0
  190.7740  177.2040  140.5930 C   0  0  0  0  0  0  0  0  0  0  0  0
  189.5370  177.6680  146.8460 C   0  0  0  0  0  3  0  0  0  0  0  0
  189.0470  177.9290  148.2240 C   0  0  0  0  0  3  0  0  0  0  0  0
  186.3380  178.1830  145.0950 C   0  0  0  0  0  3  0  0  0  0  0  0
  187.7530  178.1780  148.4590 C   0  0  0  0  0  3  0  0  0  0  0  0
  185.9050  179.0390  147.0830 C   0  0  0  0  0  2  0  0  0  0  0  0
  186.8450  178.1430  147.3130 C   0  0  1  0  0  3  0  0  0  0  0  0
  187.2060  177.4350  146.0540 C   0  0  2  0  0  3  0  0  0  0  0  0
  185.5740  179.0370  145.7000 N   0  0  0  0  0  0  0  0  0  0  0  0
  188.7010  177.5120  145.7980 C   0  0  0  0  0  0  0  0  0  0  0  0
  188.6890  178.5280  140.7300 C   0  0  0  0  0  2  0  0  0  0  0  0
  186.2850  178.7630  140.9680 C   0  0  0  0  0  0  0  0  0  0  0  0
  185.2610  179.1290  141.6930 C   0  0  0  0  0  3  0  0  0  0  0  0
  187.2950  178.3910  140.2320 C   0  0  0  0  0  3  0  0  0  0  0  0
  184.1420  178.2000  142.0820 C   0  0  0  0  0  2  0  0  0  0  0  0
  182.7410  178.7580  141.8310 C   0  0  0  0  0  2  0  0  0  0  0  0
  182.1100  178.0630  140.7130 N   0  0  0  0  0  0  0  0  0  0  0  0
  182.7330  179.7520  138.9920 C   0  0  0  0  0  2  0  0  0  0  0  0
  181.3230  180.0450  138.7560 N   0  0  0  0  0  0  0  0  0  0  0  0
  182.8830  178.3090  139.4880 C   0  0  0  0  0  2  0  0  0  0  0  0
  180.7190  178.5130  140.5670 C   0  0  0  0  0  2  0  0  0  0  0  0
  181.2390  181.7120  138.2640 Cl  0  0  0  0  0  0  0  0  0  0  0  0
  180.6350  179.9520  140.0380 C   0  0  0  0  0  2  0  0  0  0  0  0
  1  8  1  0  0  0  0
  2 20  1  1  0  0  0
  2  5  1  0  0  0  0
  3  7  2  0  0  0  0
  4 10  2  0  0  0  0
  5  1  2  0  0  0  0
  5  3  1  0  0  0  0
  7 19  1  0  0  0  0
  8  7  1  0  0  0  0
  8  6  2  0  0  0  0
  9  1  1  0  0  0  0
 10  2  1  0  0  0  0
 10  9  1  0  0  0  0
 11 12  1  0  0  0  0
 12 14  2  0  0  0  0
 13 18  2  0  0  0  0
 16 15  1  6  0  0  0
 16 14  1  0  0  0  0
 17 13  1  6  0  0  0
 17 16  1  0  0  0  0
 18 15  1  0  0  0  0
 19 17  1  0  0  0  0
 19 11  2  0  0  0  0
 21 22  2  0  0  0  0
 22 24  1  0  0  0  0
 23 20  1  0  0  0  0
 23 21  2  0  0  0  0
 25 24  1  0  0  0  0
 26 25  1  0  0  0  0
 27 29  1  0  0  0  0
 28 27  1  0  0  0  0
 28 32  1  0  0  0  0
 29 26  1  0  0  0  0
 30 26  1  0  0  0  0
 31 28  1  0  0  0  0
 32 30  1  0  0  0  0
M  END
>  <MODEL>
3

>  <REMARK>
 VINA RESULT:      -9.2      3.107      6.013
  Name = 
  6 active torsions:
  status: ('A' for Active; 'I' for Inactive)
    1  A    between atoms: N_2  and  C_13
    2  A    between atoms: C_3  and  C_18
    3  A    between atoms: C_9  and  C_29
    4  A    between atoms: C_13  and  C_29
    5  A    between atoms: C_18  and  C_24
    6  A    between atoms: C_21  and  C_30
                            x       y       z     vdW  Elec       q    Type
                         _______ _______ _______ _____ _____    ______ ____

>  <TORSDO>
F 6

$$$$
=
 OpenBabel10232408143D

 32 36  0  0  1  0  0  0  0  0999 V2000
  185.8650  178.6250  146.3420 C   0  0  0  0  0  0  0  0  0  0  0  0
  185.0790  179.1310  144.2130 C   0  0  2  0  0  3  0  0  0  0  0  0
  187.5640  178.5380  144.8410 N   0  0  0  0  0  0  0  0  0  0  0  0
  182.7620  178.7910  144.8950 O   0  0  0  0  0  0  0  0  0  0  0  0
  186.2400  178.9730  145.1420 C   0  0  0  0  0  0  0  0  0  0  0  0
  187.1630  177.8210  148.2080 N   0  0  0  0  0  2  0  0  0  0  0  0
  187.9930  177.9270  145.9060 C   0  0  0  0  0  0  0  0  0  0  0  0
  186.9380  177.8560  146.9360 C   0  0  0  0  0  0  0  0  0  0  0  0
  184.4700  178.4200  146.4760 N   0  0  0  0  0  2  0  0  0  0  0  0
  183.9890  178.7760  145.1800 C   0  0  0  0  0  0  0  0  0  0  0  0
  189.8050  176.9040  147.1960 C   0  0  0  0  0  3  0  0  0  0  0  0
  191.1790  176.3690  147.3780 C   0  0  0  0  0  3  0  0  0  0  0  0
  189.8170  177.0140  143.5140 C   0  0  0  0  0  3  0  0  0  0  0  0
  191.9800  176.1590  146.3270 C   0  0  0  0  0  3  0  0  0  0  0  0
  191.5840  175.7580  143.9330 C   0  0  0  0  0  2  0  0  0  0  0  0
  191.4610  176.5140  145.0070 C   0  0  1  0  0  3  0  0  0  0  0  0
  190.3270  177.4650  144.8450 C   0  0  2  0  0  3  0  0  0  0  0  0
  190.5710  176.0970  142.9950 N   0  0  0  0  0  0  0  0  0  0  0  0
  189.3530  177.3500  146.0060 C   0  0  0  0  0  0  0  0  0  0  0  0
  185.1440  178.0980  143.1000 C   0  0  0  0  0  2  0  0  0  0  0  0
  184.9350  178.7900  140.7840 C   0  0  0  0  0  0  0  0  0  0  0  0
  184.2210  178.8470  139.6910 C   0  0  0  0  0  3  0  0  0  0  0  0
  185.6620  178.7410  141.8650 C   0  0  0  0  0  3  0  0  0  0  0  0
  184.6690  178.2750  138.3730 C   0  0  0  0  0  2  0  0  0  0  0  0
  186.1850  178.1410  138.2240 C   0  0  0  0  0  2  0  0  0  0  0  0
  186.5330  177.8140  136.8450 N   0  0  0  0  0  0  0  0  0  0  0  0
  188.3810  176.2480  137.4230 C   0  0  0  0  0  2  0  0  0  0  0  0
  189.3430  177.1280  136.7700 N   0  0  0  0  0  0  0  0  0  0  0  0
  187.0020  176.4230  136.7770 C   0  0  0  0  0  2  0  0  0  0  0  0
  187.5570  178.7480  136.3550 C   0  0  0  0  0  2  0  0  0  0  0  0
  190.8550  176.9140  137.6050 Cl  0  0  0  0  0  0  0  0  0  0  0  0
  188.9210  178.5010  137.0160 C   0  0  0  0  0  2  0  0  0  0  0  0
  1  9  1  0  0  0  0
  1  8  1  0  0  0  0
  2 20  1  6  0  0  0
  2  5  1  0  0  0  0
  2 10  1  0  0  0  0
  3  5  1  0  0  0  0
  3  7  2  0  0  0  0
  4 10  2  0  0  0  0
  5  1  2  0  0  0  0
  7 19  1  0  0  0  0
  7  8  1  0  0  0  0
  8  6  2  0  0  0  0
 10  9  1  0  0  0  0
 11 12  1  0  0  0  0
 14 12  2  0  0  0  0
 16 15  1  1  0  0  0
 16 14  1  0  0  0  0
 17 13  1  6  0  0  0
 17 16  1  0  0  0  0
 17 19  1  0  0  0  0
 18 13  2  0  0  0  0
 18 15  1  0  0  0  0
 19 11  2  0  0  0  0
 21 23  2  0  0  0  0
 22 21  2  0  0  0  0
 23 20  1  0  0  0  0
 24 22  1  0  0  0  0
 25 24  1  0  0  0  0
 26 25  1  0  0  0  0
 28 32  1  0  0  0  0
 28 27  1  0  0  0  0
 28 31  1  0  0  0  0
 29 26  1  0  0  0  0
 29 27  1  0  0  0  0
 30 26  1  0  0  0  0
 30 32  1  0  0  0  0
M  END
>  <MODEL>
4

>  <REMARK>
 VINA RESULT:      -9.1      2.503      5.425
  Name = 
  6 active torsions:
  status: ('A' for Active; 'I' for Inactive)
    1  A    between atoms: N_2  and  C_13
    2  A    between atoms: C_3  and  C_18
    3  A    between atoms: C_9  and  C_29
    4  A    between atoms: C_13  and  C_29
    5  A    between atoms: C_18  and  C_24
    6  A    between atoms: C_21  and  C_30
                            x       y       z     vdW  Elec       q    Type
                         _______ _______ _______ _____ _____    ______ ____

>  <TORSDO>
F 6

$$$$
=
 OpenBabel10232408143D

 32 36  0  0  1  0  0  0  0  0999 V2000
  191.0890  176.9140  142.7540 C   0  0  0  0  0  0  0  0  0  0  0  0
  190.1440  176.6340  140.6490 C   0  0  2  0  0  3  0  0  0  0  0  0
  188.8370  176.6990  142.9310 N   0  0  0  0  0  0  0  0  0  0  0  0
  192.1710  177.4130  139.5410 O   0  0  0  0  0  0  0  0  0  0  0  0
  190.0070  176.5310  142.1330 C   0  0  0  0  0  0  0  0  0  0  0  0
  191.4600  177.3900  145.0880 N   0  0  0  0  0  2  0  0  0  0  0  0
  189.2430  177.1820  144.0680 C   0  0  0  0  0  0  0  0  0  0  0  0
  190.6970  177.4360  144.0460 C   0  0  0  0  0  0  0  0  0  0  0  0
  192.1100  177.3910  141.8960 N   0  0  0  0  0  2  0  0  0  0  0  0
  191.5420  177.1740  140.6050 C   0  0  0  0  0  0  0  0  0  0  0  0
  188.8170  177.6640  146.4310 C   0  0  0  0  0  3  0  0  0  0  0  0
  187.9450  177.8990  147.6100 C   0  0  0  0  0  3  0  0  0  0  0  0
  186.2270  178.0370  143.8390 C   0  0  0  0  0  3  0  0  0  0  0  0
  186.6280  178.0890  147.4660 C   0  0  0  0  0  3  0  0  0  0  0  0
  185.2100  178.8680  145.6140 C   0  0  0  0  0  2  0  0  0  0  0  0
  186.0850  178.0150  146.1100 C   0  0  1  0  0  3  0  0  0  0  0  0
  186.8190  177.3270  145.0130 C   0  0  2  0  0  3  0  0  0  0  0  0
  185.2860  178.8540  144.1940 N   0  0  0  0  0  0  0  0  0  0  0  0
  188.3210  177.4720  145.1910 C   0  0  0  0  0  0  0  0  0  0  0  0
  189.1710  177.6630  140.0950 C   0  0  0  0  0  2  0  0  0  0  0  0
  187.6050  177.7780  138.2450 C   0  0  0  0  0  0  0  0  0  0  0  0
  186.6080  178.3840  137.6560 C   0  0  0  0  0  3  0  0  0  0  0  0
  188.5990  177.1600  138.8190 C   0  0  0  0  0  3  0  0  0  0  0  0
  185.2980  177.7140  137.3370 C   0  0  0  0  0  2  0  0  0  0  0  0
  184.2730  177.7600  138.4710 C   0  0  0  0  0  2  0  0  0  0  0  0
  184.3000  179.0640  139.1280 N   0  0  0  0  0  0  0  0  0  0  0  0
  183.2510  178.2900  141.2490 C   0  0  0  0  0  2  0  0  0  0  0  0
  182.1060  179.1620  141.0110 N   0  0  0  0  0  0  0  0  0  0  0  0
  184.4940  178.8770  140.5720 C   0  0  0  0  0  2  0  0  0  0  0  0
  183.0550  179.7900  138.8450 C   0  0  0  0  0  2  0  0  0  0  0  0
  180.7330  178.3910  141.7530 Cl  0  0  0  0  0  0  0  0  0  0  0  0
  181.8530  179.1740  139.5760 C   0  0  0  0  0  2  0  0  0  0  0  0
  1  8  1  0  0  0  0
  2 20  1  1  0  0  0
  2  5  1  0  0  0  0
  3  7  2  0  0  0  0
  4 10  2  0  0  0  0
  5  1  2  0  0  0  0
  5  3  1  0  0  0  0
  7 19  1  0  0  0  0
  8  7  1  0  0  0  0
  8  6  2  0  0  0  0
  9  1  1  0  0  0  0
 10  2  1  0  0  0  0
 10  9  1  0  0  0  0
 11 12  1  0  0  0  0
 13 18  2  0  0  0  0
 14 12  2  0  0  0  0
 16 15  1  6  0  0  0
 16 14  1  0  0  0  0
 17 13  1  6  0  0  0
 17 19  1  0  0  0  0
 17 16  1  0  0  0  0
 18 15  1  0  0  0  0
 19 11  2  0  0  0  0
 21 23  2  0  0  0  0
 22 21  2  0  0  0  0
 23 20  1  0  0  0  0
 24 22  1  0  0  0  0
 24 25  1  0  0  0  0
 25 26  1  0  0  0  0
 26 29  1  0  0  0  0
 28 27  1  0  0  0  0
 28 31  1  0  0  0  0
 29 27  1  0  0  0  0
 30 26  1  0  0  0  0
 30 32  1  0  0  0  0
 32 28  1  0  0  0  0
M  END
>  <MODEL>
5

>  <REMARK>
 VINA RESULT:      -9.1      2.902      5.411
  Name = 
  6 active torsions:
  status: ('A' for Active; 'I' for Inactive)
    1  A    between atoms: N_2  and  C_13
    2  A    between atoms: C_3  and  C_18
    3  A    between atoms: C_9  and  C_29
    4  A    between atoms: C_13  and  C_29
    5  A    between atoms: C_18  and  C_24
    6  A    between atoms: C_21  and  C_30
                            x       y       z     vdW  Elec       q    Type
                         _______ _______ _______ _____ _____    ______ ____

>  <TORSDO>
F 6

$$$$
=
 OpenBabel10232408143D

 32 36  0  0  1  0  0  0  0  0999 V2000
  186.9110  177.7570  146.9170 C   0  0  0  0  0  0  0  0  0  0  0  0
  189.0670  177.2910  146.1820 C   0  0  2  0  0  3  0  0  0  0  0  0
  186.9250  177.4710  144.6660 N   0  0  0  0  0  0  0  0  0  0  0  0
  190.0400  178.0620  148.2800 O   0  0  0  0  0  0  0  0  0  0  0  0
  187.5970  177.2900  145.9100 C   0  0  0  0  0  0  0  0  0  0  0  0
  184.5950  178.4140  147.0530 N   0  0  0  0  0  2  0  0  0  0  0  0
  185.7950  178.0500  144.9480 C   0  0  0  0  0  0  0  0  0  0  0  0
  185.7030  178.3560  146.3890 C   0  0  0  0  0  0  0  0  0  0  0  0
  187.7050  178.2090  147.9990 N   0  0  0  0  0  2  0  0  0  0  0  0
  189.0230  177.8780  147.5610 C   0  0  0  0  0  0  0  0  0  0  0  0
  183.5760  178.8490  144.2910 C   0  0  0  0  0  3  0  0  0  0  0  0
  182.4990  179.1480  143.3120 C   0  0  0  0  0  3  0  0  0  0  0  0
  186.3170  178.4130  141.8700 C   0  0  0  0  0  3  0  0  0  0  0  0
  182.7380  179.1200  141.9950 C   0  0  0  0  0  3  0  0  0  0  0  0
  184.7650  179.3710  140.6250 C   0  0  0  0  0  2  0  0  0  0  0  0
  184.0860  178.7460  141.5670 C   0  0  1  0  0  3  0  0  0  0  0  0
  185.0100  177.9990  142.4640 C   0  0  2  0  0  3  0  0  0  0  0  0
  186.1560  179.1330  140.8050 N   0  0  0  0  0  0  0  0  0  0  0  0
  184.7860  178.3860  143.9160 C   0  0  0  0  0  0  0  0  0  0  0  0
  189.7830  178.2400  145.2350 C   0  0  0  0  0  2  0  0  0  0  0  0
  190.4600  177.6080  142.9920 C   0  0  0  0  0  0  0  0  0  0  0  0
  190.3300  177.7510  141.6990 C   0  0  0  0  0  3  0  0  0  0  0  0
  190.6030  177.4510  144.2780 C   0  0  0  0  0  3  0  0  0  0  0  0
  189.9780  176.6220  140.7680 C   0  0  0  0  0  2  0  0  0  0  0  0
  189.0350  177.0120  139.6300 C   0  0  0  0  0  2  0  0  0  0  0  0
  189.7940  177.2940  138.4150 N   0  0  0  0  0  0  0  0  0  0  0  0
  187.9430  178.4700  137.2360 C   0  0  0  0  0  2  0  0  0  0  0  0
  187.9300  177.4360  136.2070 N   0  0  0  0  0  0  0  0  0  0  0  0
  189.3450  178.5720  137.8460 C   0  0  0  0  0  2  0  0  0  0  0  0
  189.6270  176.1930  137.4560 C   0  0  0  0  0  2  0  0  0  0  0  0
  186.2940  177.3420  135.6200 Cl  0  0  0  0  0  0  0  0  0  0  0  0
  188.2140  176.1630  136.8580 C   0  0  0  0  0  2  0  0  0  0  0  0
  1  9  1  0  0  0  0
  2 20  1  6  0  0  0
  2 10  1  0  0  0  0
  3  7  2  0  0  0  0
  3  5  1  0  0  0  0
  5  2  1  0  0  0  0
  5  1  2  0  0  0  0
  7  8  1  0  0  0  0
  8  1  1  0  0  0  0
  8  6  2  0  0  0  0
 10  9  1  0  0  0  0
 10  4  2  0  0  0  0
 12 11  1  0  0  0  0
 14 12  2  0  0  0  0
 15 18  1  0  0  0  0
 16 15  1  1  0  0  0
 16 14  1  0  0  0  0
 16 17  1  0  0  0  0
 17 13  1  6  0  0  0
 17 19  1  0  0  0  0
 18 13  2  0  0  0  0
 19 11  2  0  0  0  0
 19  7  1  0  0  0  0
 21 23  2  0  0  0  0
 22 21  2  0  0  0  0
 23 20  1  0  0  0  0
 24 22  1  0  0  0  0
 25 24  1  0  0  0  0
 26 25  1  0  0  0  0
 27 29  1  0  0  0  0
 28 32  1  0  0  0  0
 28 27  1  0  0  0  0
 29 26  1  0  0  0  0
 30 26  1  0  0  0  0
 31 28  1  0  0  0  0
 32 30  1  0  0  0  0
M  END
>  <MODEL>
6

>  <REMARK>
 VINA RESULT:      -9.1      1.105      1.359
  Name = 
  6 active torsions:
  status: ('A' for Active; 'I' for Inactive)
    1  A    between atoms: N_2  and  C_13
    2  A    between atoms: C_3  and  C_18
    3  A    between atoms: C_9  and  C_29
    4  A    between atoms: C_13  and  C_29
    5  A    between atoms: C_18  and  C_24
    6  A    between atoms: C_21  and  C_30
                            x       y       z     vdW  Elec       q    Type
                         _______ _______ _______ _____ _____    ______ ____

>  <TORSDO>
F 6

$$$$
=
 OpenBabel10232408143D

 32 36  0  0  1  0  0  0  0  0999 V2000
  183.9990  179.0590  144.9480 C   0  0  0  0  0  0  0  0  0  0  0  0
  183.7250  179.4770  142.6780 C   0  0  2  0  0  3  0  0  0  0  0  0
  186.0100  179.0220  143.8990 N   0  0  0  0  0  0  0  0  0  0  0  0
  181.3290  179.0390  142.7990 O   0  0  0  0  0  0  0  0  0  0  0  0
  184.6350  179.3980  143.8600 C   0  0  0  0  0  0  0  0  0  0  0  0
  184.8450  178.3640  147.0960 N   0  0  0  0  0  2  0  0  0  0  0  0
  186.1970  178.4580  145.0550 C   0  0  0  0  0  0  0  0  0  0  0  0
  184.9300  178.3580  145.8060 C   0  0  0  0  0  0  0  0  0  0  0  0
  182.6220  178.7880  144.7530 N   0  0  0  0  0  2  0  0  0  0  0  0
  182.4520  179.0910  143.3680 C   0  0  0  0  0  0  0  0  0  0  0  0
  187.7280  177.6780  146.8010 C   0  0  0  0  0  3  0  0  0  0  0  0
  189.0440  177.2240  147.3180 C   0  0  0  0  0  3  0  0  0  0  0  0
  188.4740  177.3190  143.2110 C   0  0  0  0  0  3  0  0  0  0  0  0
  190.0420  176.9130  146.4820 C   0  0  0  0  0  3  0  0  0  0  0  0
  190.1370  176.1960  144.1320 C   0  0  0  0  0  2  0  0  0  0  0  0
  189.7930  177.0780  145.0500 C   0  0  1  0  0  3  0  0  0  0  0  0
  188.7020  177.9550  144.5450 C   0  0  2  0  0  3  0  0  0  0  0  0
  189.3280  176.3740  142.9760 N   0  0  0  0  0  0  0  0  0  0  0  0
  187.5180  177.9510  145.4960 C   0  0  0  0  0  0  0  0  0  0  0  0
  184.0990  178.4230  141.6480 C   0  0  0  0  0  2  0  0  0  0  0  0
  184.5800  178.5080  139.2710 C   0  0  0  0  0  0  0  0  0  0  0  0
  184.5330  177.9370  138.0960 C   0  0  0  0  0  3  0  0  0  0  0  0
  184.6370  179.0930  140.4350 C   0  0  0  0  0  3  0  0  0  0  0  0
  185.7500  177.6630  137.2540 C   0  0  0  0  0  2  0  0  0  0  0  0
  186.9960  177.2770  138.0520 C   0  0  0  0  0  2  0  0  0  0  0  0
  187.8970  178.4200  138.1720 N   0  0  0  0  0  0  0  0  0  0  0  0
  189.8650  177.2880  137.1480 C   0  0  0  0  0  2  0  0  0  0  0  0
  190.5990  177.4090  138.4030 N   0  0  0  0  0  0  0  0  0  0  0  0
  188.8360  178.4200  137.0420 C   0  0  0  0  0  2  0  0  0  0  0  0
  188.6070  178.3620  139.4580 C   0  0  0  0  0  2  0  0  0  0  0  0
  191.6910  176.0550  138.4710 Cl  0  0  0  0  0  0  0  0  0  0  0  0
  189.6430  177.2300  139.4900 C   0  0  0  0  0  2  0  0  0  0  0  0
  1  8  1  0  0  0  0
  2 20  1  6  0  0  0
  2 10  1  0  0  0  0
  2  5  1  0  0  0  0
  3  7  2  0  0  0  0
  4 10  2  0  0  0  0
  5  3  1  0  0  0  0
  5  1  2  0  0  0  0
  7 19  1  0  0  0  0
  7  8  1  0  0  0  0
  8  6  2  0  0  0  0
  9  1  1  0  0  0  0
 10  9  1  0  0  0  0
 11 12  1  0  0  0  0
 14 12  2  0  0  0  0
 16 15  1  1  0  0  0
 16 14  1  0  0  0  0
 17 13  1  6  0  0  0
 17 16  1  0  0  0  0
 17 19  1  0  0  0  0
 18 13  2  0  0  0  0
 18 15  1  0  0  0  0
 19 11  2  0  0  0  0
 21 23  2  0  0  0  0
 22 21  2  0  0  0  0
 23 20  1  0  0  0  0
 24 25  1  0  0  0  0
 24 22  1  0  0  0  0
 25 26  1  0  0  0  0
 26 30  1  0  0  0  0
 27 28  1  0  0  0  0
 28 31  1  0  0  0  0
 28 32  1  0  0  0  0
 29 27  1  0  0  0  0
 29 26  1  0  0  0  0
 30 32  1  0  0  0  0
M  END
>  <MODEL>
7

>  <REMARK>
 VINA RESULT:      -8.8      2.885      5.638
  Name = 
  6 active torsions:
  status: ('A' for Active; 'I' for Inactive)
    1  A    between atoms: N_2  and  C_13
    2  A    between atoms: C_3  and  C_18
    3  A    between atoms: C_9  and  C_29
    4  A    between atoms: C_13  and  C_29
    5  A    between atoms: C_18  and  C_24
    6  A    between atoms: C_21  and  C_30
                            x       y       z     vdW  Elec       q    Type
                         _______ _______ _______ _____ _____    ______ ____

>  <TORSDO>
F 6

$$$$
=
 OpenBabel10232408143D

 32 36  0  0  1  0  0  0  0  0999 V2000
  184.3160  178.4500  138.9740 C   0  0  0  0  0  0  0  0  0  0  0  0
  186.4450  178.3230  138.0470 C   0  0  2  0  0  3  0  0  0  0  0  0
  185.8840  178.8910  140.5540 N   0  0  0  0  0  0  0  0  0  0  0  0
  185.6120  177.1430  136.0830 O   0  0  0  0  0  0  0  0  0  0  0  0
  185.5660  178.7730  139.1690 C   0  0  0  0  0  0  0  0  0  0  0  0
  182.4420  178.4890  140.4890 N   0  0  0  0  0  2  0  0  0  0  0  0
  184.7810  178.6470  141.1990 C   0  0  0  0  0  0  0  0  0  0  0  0
  183.6970  178.2720  140.2700 C   0  0  0  0  0  0  0  0  0  0  0  0
  184.0890  177.7050  137.7900 N   0  0  0  0  0  2  0  0  0  0  0  0
  185.3900  177.6710  137.2050 C   0  0  0  0  0  0  0  0  0  0  0  0
  183.4980  178.9470  143.2620 C   0  0  0  0  0  3  0  0  0  0  0  0
  183.3460  179.0720  144.7350 C   0  0  0  0  0  3  0  0  0  0  0  0
  186.9390  177.6320  143.2470 C   0  0  0  0  0  3  0  0  0  0  0  0
  184.3620  178.7880  145.5590 C   0  0  0  0  0  3  0  0  0  0  0  0
  186.3720  177.3830  145.3660 C   0  0  0  0  0  2  0  0  0  0  0  0
  185.6300  178.3900  144.9470 C   0  0  1  0  0  3  0  0  0  0  0  0
  185.9460  178.7120  143.5280 C   0  0  2  0  0  3  0  0  0  0  0  0
  187.2080  176.9360  144.3050 N   0  0  0  0  0  0  0  0  0  0  0  0
  184.6880  178.7000  142.6760 C   0  0  0  0  0  0  0  0  0  0  0  0
  187.4390  177.2820  138.5360 C   0  0  0  0  0  2  0  0  0  0  0  0
  189.8430  177.2560  138.8630 C   0  0  0  0  0  0  0  0  0  0  0  0
  190.8830  176.7880  139.5030 C   0  0  0  0  0  3  0  0  0  0  0  0
  188.8180  177.7340  138.2150 C   0  0  0  0  0  3  0  0  0  0  0  0
  191.8560  177.6560  140.2560 C   0  0  0  0  0  2  0  0  0  0  0  0
  191.9670  177.3340  141.7460 C   0  0  0  0  0  2  0  0  0  0  0  0
  190.6420  177.2950  142.3580 N   0  0  0  0  0  0  0  0  0  0  0  0
  191.4140  177.8790  144.6520 C   0  0  0  0  0  2  0  0  0  0  0  0
  190.9630  176.5820  145.1440 N   0  0  0  0  0  0  0  0  0  0  0  0
  190.5740  178.2900  143.4370 C   0  0  0  0  0  2  0  0  0  0  0  0
  190.3630  175.9420  142.8590 C   0  0  0  0  0  2  0  0  0  0  0  0
  192.0070  176.1650  146.4730 Cl  0  0  0  0  0  0  0  0  0  0  0  0
  191.2110  175.6030  144.0940 C   0  0  0  0  0  2  0  0  0  0  0  0
  1  5  2  0  0  0  0
  1  8  1  0  0  0  0
  2 20  1  1  0  0  0
  2  5  1  0  0  0  0
  3  7  2  0  0  0  0
  4 10  2  0  0  0  0
  5  3  1  0  0  0  0
  7 19  1  0  0  0  0
  8  6  2  0  0  0  0
  8  7  1  0  0  0  0
  9  1  1  0  0  0  0
 10  9  1  0  0  0  0
 10  2  1  0  0  0  0
 11 12  1  0  0  0  0
 12 14  2  0  0  0  0
 13 18  2  0  0  0  0
 16 15  1  6  0  0  0
 16 14  1  0  0  0  0
 17 13  1  6  0  0  0
 17 16  1  0  0  0  0
 18 15  1  0  0  0  0
 19 11  2  0  0  0  0
 19 17  1  0  0  0  0
 21 22  2  0  0  0  0
 22 24  1  0  0  0  0
 23 20  1  0  0  0  0
 23 21  2  0  0  0  0
 24 25  1  0  0  0  0
 25 26  1  0  0  0  0
 26 30  1  0  0  0  0
 26 29  1  0  0  0  0
 27 28  1  0  0  0  0
 28 31  1  0  0  0  0
 29 27  1  0  0  0  0
 30 32  1  0  0  0  0
 32 28  1  0  0  0  0
M  END
>  <MODEL>
8

>  <REMARK>
 VINA RESULT:      -8.8      3.607      6.749
  Name = 
  6 active torsions:
  status: ('A' for Active; 'I' for Inactive)
    1  A    between atoms: N_2  and  C_13
    2  A    between atoms: C_3  and  C_18
    3  A    between atoms: C_9  and  C_29
    4  A    between atoms: C_13  and  C_29
    5  A    between atoms: C_18  and  C_24
    6  A    between atoms: C_21  and  C_30
                            x       y       z     vdW  Elec       q    Type
                         _______ _______ _______ _____ _____    ______ ____

>  <TORSDO>
F 6

$$$$
=
 OpenBabel10232408143D

 32 36  0  0  1  0  0  0  0  0999 V2000
  190.6690  177.0620  143.1980 C   0  0  0  0  0  0  0  0  0  0  0  0
  190.2850  176.7790  140.9230 C   0  0  2  0  0  3  0  0  0  0  0  0
  188.4410  176.9100  142.7940 N   0  0  0  0  0  0  0  0  0  0  0  0
  192.5510  177.4870  140.3660 O   0  0  0  0  0  0  0  0  0  0  0  0
  189.7700  176.7000  142.3240 C   0  0  0  0  0  0  0  0  0  0  0  0
  190.4450  177.5590  145.5470 N   0  0  0  0  0  2  0  0  0  0  0  0
  188.5570  177.3980  143.9940 C   0  0  0  0  0  0  0  0  0  0  0  0
  189.9750  177.6120  144.3440 C   0  0  0  0  0  0  0  0  0  0  0  0
  191.8890  177.4990  142.6270 N   0  0  0  0  0  2  0  0  0  0  0  0
  191.6630  177.2800  141.2350 C   0  0  0  0  0  0  0  0  0  0  0  0
  187.5330  177.8050  146.1810 C   0  0  0  0  0  3  0  0  0  0  0  0
  186.3910  178.0720  147.0930 C   0  0  0  0  0  3  0  0  0  0  0  0
  185.8110  178.5760  143.0170 C   0  0  0  0  0  3  0  0  0  0  0  0
  185.1880  178.4060  146.6100 C   0  0  0  0  0  3  0  0  0  0  0  0
  184.4170  179.4210  144.5060 C   0  0  0  0  0  2  0  0  0  0  0  0
  185.0400  178.4570  145.1550 C   0  0  1  0  0  3  0  0  0  0  0  0
  185.9880  177.7510  144.2510 C   0  0  2  0  0  3  0  0  0  0  0  0
  184.8840  179.4690  143.1630 N   0  0  0  0  0  0  0  0  0  0  0  0
  187.3870  177.7270  144.8420 C   0  0  0  0  0  0  0  0  0  0  0  0
  189.5170  177.8260  140.1330 C   0  0  0  0  0  2  0  0  0  0  0  0
  188.8910  178.1610  137.8120 C   0  0  0  0  0  0  0  0  0  0  0  0
  188.1710  178.7960  136.9250 C   0  0  0  0  0  3  0  0  0  0  0  0
  189.6160  177.5160  138.6820 C   0  0  0  0  0  3  0  0  0  0  0  0
  187.2230  178.1120  135.9780 C   0  0  0  0  0  2  0  0  0  0  0  0
  186.0590  177.3920  136.6590 C   0  0  0  0  0  2  0  0  0  0  0  0
  185.2000  176.7590  135.6630 N   0  0  0  0  0  0  0  0  0  0  0  0
  184.0830  175.2040  137.2550 C   0  0  0  0  0  2  0  0  0  0  0  0
  184.6440  174.0600  136.5450 N   0  0  0  0  0  0  0  0  0  0  0  0
  183.9240  176.3830  136.2880 C   0  0  0  0  0  2  0  0  0  0  0  0
  185.8790  175.5900  135.0880 C   0  0  0  0  0  2  0  0  0  0  0  0
  184.8510  172.7970  137.7240 Cl  0  0  0  0  0  0  0  0  0  0  0  0
  185.9790  174.4340  136.0940 C   0  0  0  0  0  2  0  0  0  0  0  0
  1  8  1  0  0  0  0
  2 20  1  6  0  0  0
  2 10  1  0  0  0  0
  2  5  1  0  0  0  0
  3  7  2  0  0  0  0
  4 10  2  0  0  0  0
  5  3  1  0  0  0  0
  5  1  2  0  0  0  0
  7  8  1  0  0  0  0
  7 19  1  0  0  0  0
  8  6  2  0  0  0  0
  9  1  1  0  0  0  0
 10  9  1  0  0  0  0
 11 12  1  0  0  0  0
 13 18  2  0  0  0  0
 14 12  2  0  0  0  0
 16 15  1  6  0  0  0
 16 14  1  0  0  0  0
 17 13  1  6  0  0  0
 17 19  1  0  0  0  0
 17 16  1  0  0  0  0
 18 15  1  0  0  0  0
 19 11  2  0  0  0  0
 21 23  2  0  0  0  0
 22 21  2  0  0  0  0
 23 20  1  0  0  0  0
 24 25  1  0  0  0  0
 24 22  1  0  0  0  0
 26 29  1  0  0  0  0
 26 25  1  0  0  0  0
 28 27  1  0  0  0  0
 28 31  1  0  0  0  0
 29 27  1  0  0  0  0
 30 26  1  0  0  0  0
 30 32  1  0  0  0  0
 32 28  1  0  0  0  0
M  END
>  <MODEL>
9

>  <REMARK>
 VINA RESULT:      -8.7      2.604      4.416
  Name = 
  6 active torsions:
  status: ('A' for Active; 'I' for Inactive)
    1  A    between atoms: N_2  and  C_13
    2  A    between atoms: C_3  and  C_18
    3  A    between atoms: C_9  and  C_29
    4  A    between atoms: C_13  and  C_29
    5  A    between atoms: C_18  and  C_24
    6  A    between atoms: C_21  and  C_30
                            x       y       z     vdW  Elec       q    Type
                         _______ _______ _______ _____ _____    ______ ____

>  <TORSDO>
F 6

$$$$
