=
 OpenBabel10232411423D

 27 29  0  0  1  0  0  0  0  0999 V2000
  184.8600  179.0190  142.7750 C   0  0  0  0  0  2  0  0  0  0  0  0
  188.7280  176.6640  137.6820 C   0  0  0  0  0  0  0  0  0  0  0  0
  187.3580  178.3910  139.9470 N   0  0  0  0  0  0  0  0  0  0  0  0
  185.4530  178.8690  141.3940 C   0  0  0  0  0  0  0  0  0  0  0  0
  184.6100  179.2570  140.2950 N   0  0  0  0  0  2  0  0  0  0  0  0
  188.7340  177.6100  142.2740 N   0  0  0  0  0  0  0  0  0  0  0  0
  185.1290  178.4470  145.2720 C   0  0  0  0  0  1  0  0  0  0  0  0
  184.8410  177.6520  138.4710 C   0  0  0  0  0  2  0  0  0  0  0  0
  188.9820  179.1650  137.6150 C   0  0  0  0  0  1  0  0  0  0  0  0
  186.9080  178.0380  143.7100 N   0  0  0  0  0  0  0  0  0  0  0  0
  186.7290  178.4530  141.2350 C   0  0  0  0  0  0  0  0  0  0  0  0
  185.6950  178.4580  143.8980 C   0  0  0  0  0  0  0  0  0  0  0  0
  189.3570  177.5620  140.9840 C   0  0  0  0  0  0  0  0  0  0  0  0
  187.4880  176.5480  137.2680 C   0  0  0  0  0  0  0  0  0  0  0  0
  187.5120  178.0290  142.4170 C   0  0  0  0  0  0  0  0  0  0  0  0
  189.1850  177.8920  138.4230 C   0  0  1  0  0  3  0  0  0  0  0  0
  188.5850  177.9850  139.7970 C   0  0  0  0  0  0  0  0  0  0  0  0
  190.5440  177.1590  140.8720 O   0  0  0  0  0  0  0  0  0  0  0  0
  185.2580  177.5110  137.0140 C   0  0  1  0  0  3  0  0  0  0  0  0
  184.8950  179.1140  138.8730 C   0  0  0  0  0  2  0  0  0  0  0  0
  186.2600  176.4160  136.8410 C   0  0  0  0  0  3  0  0  0  0  0  0
  190.3740  175.7500  136.2550 F   0  0  0  0  0  0  0  0  0  0  0  0
  188.9910  174.3430  137.3460 F   0  0  0  0  0  0  0  0  0  0  0  0
  190.6040  175.4340  138.4710 F   0  0  0  0  0  0  0  0  0  0  0  0
  189.6890  175.5350  137.4380 C   0  0  0  0  0  0  0  0  0  0  0  0
  184.0420  177.2880  136.1190 C   0  0  0  0  0  2  0  0  0  0  0  0
  182.9400  176.6980  136.8620 N   0  0  0  0  0  1  0  0  0  0  0  0
  1 12  1  0  0  0  0
  2 16  1  0  0  0  0
  3 11  1  0  0  0  0
  4  1  1  0  0  0  0
  5  4  1  0  0  0  0
  6 15  2  0  0  0  0
  8 20  1  0  0  0  0
 10 12  2  0  0  0  0
 11  4  2  0  0  0  0
 11 15  1  0  0  0  0
 12  7  1  0  0  0  0
 13  6  1  0  0  0  0
 14  2  2  0  0  0  0
 15 10  1  0  0  0  0
 16  9  1  6  0  0  0
 16 17  1  0  0  0  0
 17  3  2  0  0  0  0
 17 13  1  0  0  0  0
 18 13  2  0  0  0  0
 19 26  1  6  0  0  0
 19  8  1  0  0  0  0
 20  5  1  0  0  0  0
 21 19  1  0  0  0  0
 21 14  2  0  0  0  0
 22 25  1  0  0  0  0
 23 25  1  0  0  0  0
 25  2  1  0  0  0  0
 25 24  1  0  0  0  0
 26 27  1  0  0  0  0
M  END
>  <MODEL>
1

>  <REMARK>
 VINA RESULT:      -7.5      0.000      0.000
  Name = 
  2 active torsions:
  status: ('A' for Active; 'I' for Inactive)
    1  A    between atoms: C_2  and  C_26
    2  A    between atoms: C_18  and  C_24
                            x       y       z     vdW  Elec       q    Type
                         _______ _______ _______ _____ _____    ______ ____

>  <TORSDO>
F 2

$$$$
=
 OpenBabel10232411423D

 27 29  0  0  1  0  0  0  0  0999 V2000
  183.9160  178.8210  141.4170 C   0  0  0  0  0  2  0  0  0  0  0  0
  190.1790  177.6760  143.8520 C   0  0  0  0  0  0  0  0  0  0  0  0
  187.3240  177.4700  142.5100 N   0  0  0  0  0  0  0  0  0  0  0  0
  185.0280  178.2560  142.2710 C   0  0  0  0  0  0  0  0  0  0  0  0
  184.6630  177.8530  143.6030 N   0  0  0  0  0  2  0  0  0  0  0  0
  187.7650  178.4390  139.9060 N   0  0  0  0  0  0  0  0  0  0  0  0
  183.3420  180.0760  139.2430 C   0  0  0  0  0  1  0  0  0  0  0  0
  186.4050  178.5250  145.1740 C   0  0  0  0  0  2  0  0  0  0  0  0
  189.1660  175.4000  143.5080 C   0  0  0  0  0  1  0  0  0  0  0  0
  185.5580  179.2360  139.6380 N   0  0  0  0  0  0  0  0  0  0  0  0
  186.2680  178.0920  141.7630 C   0  0  0  0  0  0  0  0  0  0  0  0
  184.3500  179.3850  140.0880 C   0  0  0  0  0  0  0  0  0  0  0  0
  188.8100  177.8070  140.6560 C   0  0  0  0  0  0  0  0  0  0  0  0
  189.4700  178.0900  144.8760 C   0  0  0  0  0  0  0  0  0  0  0  0
  186.5700  178.5760  140.3980 C   0  0  0  0  0  0  0  0  0  0  0  0
  189.6050  176.7030  142.8570 C   0  0  1  0  0  3  0  0  0  0  0  0
  188.5190  177.3160  142.0190 C   0  0  0  0  0  0  0  0  0  0  0  0
  189.9570  177.6790  140.1540 O   0  0  0  0  0  0  0  0  0  0  0  0
  187.4100  177.9920  146.1850 C   0  0  1  0  0  3  0  0  0  0  0  0
  185.5550  177.3810  144.6550 C   0  0  0  0  0  2  0  0  0  0  0  0
  188.7840  178.5090  145.9060 C   0  0  0  0  0  3  0  0  0  0  0  0
  192.1740  177.5730  142.5920 F   0  0  0  0  0  0  0  0  0  0  0  0
  192.3150  177.9920  144.8020 F   0  0  0  0  0  0  0  0  0  0  0  0
  191.5400  179.5730  143.4050 F   0  0  0  0  0  0  0  0  0  0  0  0
  191.5680  178.2140  143.6590 C   0  0  0  0  0  0  0  0  0  0  0  0
  186.9780  178.3230  147.6100 C   0  0  0  0  0  2  0  0  0  0  0  0
  188.0730  178.1420  148.5500 N   0  0  0  0  0  1  0  0  0  0  0  0
  1  4  1  0  0  0  0
  2 14  2  0  0  0  0
  4  5  1  0  0  0  0
  5 20  1  0  0  0  0
  6 15  2  0  0  0  0
  6 13  1  0  0  0  0
  7 12  1  0  0  0  0
  8 19  1  0  0  0  0
 10 12  2  0  0  0  0
 10 15  1  0  0  0  0
 11  4  2  0  0  0  0
 11  3  1  0  0  0  0
 12  1  1  0  0  0  0
 13 17  1  0  0  0  0
 14 21  2  0  0  0  0
 15 11  1  0  0  0  0
 16  9  1  1  0  0  0
 16  2  1  0  0  0  0
 17  3  2  0  0  0  0
 17 16  1  0  0  0  0
 18 13  2  0  0  0  0
 19 26  1  1  0  0  0
 20  8  1  0  0  0  0
 21 19  1  0  0  0  0
 22 25  1  0  0  0  0
 24 25  1  0  0  0  0
 25  2  1  0  0  0  0
 25 23  1  0  0  0  0
 26 27  1  0  0  0  0
M  END
>  <MODEL>
2

>  <REMARK>
 VINA RESULT:      -7.2      3.162      6.358
  Name = 
  2 active torsions:
  status: ('A' for Active; 'I' for Inactive)
    1  A    between atoms: C_2  and  C_26
    2  A    between atoms: C_18  and  C_24
                            x       y       z     vdW  Elec       q    Type
                         _______ _______ _______ _____ _____    ______ ____

>  <TORSDO>
F 2

$$$$
=
 OpenBabel10232411423D

 27 29  0  0  1  0  0  0  0  0999 V2000
  184.6930  178.8160  142.7610 C   0  0  0  0  0  2  0  0  0  0  0  0
  190.9500  176.8380  144.6030 C   0  0  0  0  0  0  0  0  0  0  0  0
  188.3070  178.4480  143.9600 N   0  0  0  0  0  0  0  0  0  0  0  0
  186.1970  178.6740  142.7570 C   0  0  0  0  0  0  0  0  0  0  0  0
  186.8450  178.8120  141.4790 N   0  0  0  0  0  2  0  0  0  0  0  0
  186.7670  178.1170  146.2900 N   0  0  0  0  0  0  0  0  0  0  0  0
  182.5380  178.4970  144.1340 C   0  0  0  0  0  1  0  0  0  0  0  0
  188.6120  177.1440  141.2640 C   0  0  0  0  0  2  0  0  0  0  0  0
  191.0970  179.3300  144.2990 C   0  0  0  0  0  1  0  0  0  0  0  0
  184.7000  178.3080  145.1640 N   0  0  0  0  0  0  0  0  0  0  0  0
  186.8740  178.4910  143.9120 C   0  0  0  0  0  0  0  0  0  0  0  0
  184.0220  178.5080  144.0760 C   0  0  0  0  0  0  0  0  0  0  0  0
  188.2000  178.0880  146.3290 C   0  0  0  0  0  0  0  0  0  0  0  0
  190.8130  176.4620  143.3530 C   0  0  0  0  0  0  0  0  0  0  0  0
  186.1270  178.3120  145.1760 C   0  0  0  0  0  0  0  0  0  0  0  0
  190.4560  178.1820  145.0650 C   0  0  1  0  0  3  0  0  0  0  0  0
  188.9560  178.2680  145.0720 C   0  0  0  0  0  0  0  0  0  0  0  0
  188.7970  177.9050  147.4220 O   0  0  0  0  0  0  0  0  0  0  0  0
  190.1110  176.9720  141.0700 C   0  0  1  0  0  3  0  0  0  0  0  0
  188.2580  178.6170  141.1830 C   0  0  0  0  0  2  0  0  0  0  0  0
  190.6930  176.0720  142.1120 C   0  0  0  0  0  3  0  0  0  0  0  0
  192.2170  174.8680  144.9080 F   0  0  0  0  0  0  0  0  0  0  0  0
  190.6000  175.3520  146.4020 F   0  0  0  0  0  0  0  0  0  0  0  0
  192.5050  176.5470  146.3780 F   0  0  0  0  0  0  0  0  0  0  0  0
  191.5790  175.8910  145.5860 C   0  0  0  0  0  0  0  0  0  0  0  0
  190.4230  176.4590  139.6660 C   0  0  0  0  0  2  0  0  0  0  0  0
  191.7530  176.8660  139.2390 N   0  0  0  0  0  1  0  0  0  0  0  0
  1 12  1  0  0  0  0
  2 16  1  0  0  0  0
  2 25  1  0  0  0  0
  3 17  2  0  0  0  0
  4  1  1  0  0  0  0
  4 11  2  0  0  0  0
  5  4  1  0  0  0  0
  6 13  1  0  0  0  0
 10 15  1  0  0  0  0
 11  3  1  0  0  0  0
 11 15  1  0  0  0  0
 12  7  1  0  0  0  0
 12 10  2  0  0  0  0
 13 18  2  0  0  0  0
 14  2  2  0  0  0  0
 15  6  2  0  0  0  0
 16  9  1  6  0  0  0
 16 17  1  0  0  0  0
 17 13  1  0  0  0  0
 19 26  1  6  0  0  0
 19  8  1  0  0  0  0
 19 21  1  0  0  0  0
 20  8  1  0  0  0  0
 20  5  1  0  0  0  0
 21 14  2  0  0  0  0
 22 25  1  0  0  0  0
 25 24  1  0  0  0  0
 25 23  1  0  0  0  0
 27 26  1  0  0  0  0
M  END
>  <MODEL>
3

>  <REMARK>
 VINA RESULT:      -7.1      4.244      5.926
  Name = 
  2 active torsions:
  status: ('A' for Active; 'I' for Inactive)
    1  A    between atoms: C_2  and  C_26
    2  A    between atoms: C_18  and  C_24
                            x       y       z     vdW  Elec       q    Type
                         _______ _______ _______ _____ _____    ______ ____

>  <TORSDO>
F 2

$$$$
=
 OpenBabel10232411423D

 27 29  0  0  1  0  0  0  0  0999 V2000
  185.0530  178.6670  141.0680 C   0  0  0  0  0  2  0  0  0  0  0  0
  190.9070  177.0340  144.1540 C   0  0  0  0  0  0  0  0  0  0  0  0
  188.3590  178.4950  142.9860 N   0  0  0  0  0  0  0  0  0  0  0  0
  186.5320  178.6150  141.3740 C   0  0  0  0  0  0  0  0  0  0  0  0
  187.4190  178.8150  140.2590 N   0  0  0  0  0  2  0  0  0  0  0  0
  186.3950  178.0310  144.9460 N   0  0  0  0  0  0  0  0  0  0  0  0
  182.6860  178.1950  141.9640 C   0  0  0  0  0  1  0  0  0  0  0  0
  189.2930  177.2600  140.4050 C   0  0  0  0  0  2  0  0  0  0  0  0
  190.9580  179.5360  143.9000 C   0  0  0  0  0  1  0  0  0  0  0  0
  184.5960  178.1170  143.4180 N   0  0  0  0  0  0  0  0  0  0  0  0
  186.9660  178.4520  142.6430 C   0  0  0  0  0  0  0  0  0  0  0  0
  184.1470  178.2960  142.2140 C   0  0  0  0  0  0  0  0  0  0  0  0
  187.7880  178.0860  145.2800 C   0  0  0  0  0  0  0  0  0  0  0  0
  191.0540  176.6730  142.9000 C   0  0  0  0  0  0  0  0  0  0  0  0
  185.9870  178.2060  143.7250 C   0  0  0  0  0  0  0  0  0  0  0  0
  190.2450  178.3380  144.5110 C   0  0  1  0  0  3  0  0  0  0  0  0
  188.7740  178.3340  144.2080 C   0  0  0  0  0  0  0  0  0  0  0  0
  188.1570  177.9200  146.4720 O   0  0  0  0  0  0  0  0  0  0  0  0
  190.8080  177.1810  140.5240 C   0  0  1  0  0  3  0  0  0  0  0  0
  188.8720  178.7100  140.2600 C   0  0  0  0  0  2  0  0  0  0  0  0
  191.2170  176.2990  141.6590 C   0  0  0  0  0  3  0  0  0  0  0  0
  190.3000  175.7010  146.0070 F   0  0  0  0  0  0  0  0  0  0  0  0
  192.2840  176.7700  146.0520 F   0  0  0  0  0  0  0  0  0  0  0  0
  191.9930  174.9930  144.7060 F   0  0  0  0  0  0  0  0  0  0  0  0
  191.3780  176.1100  145.2410 C   0  0  0  0  0  0  0  0  0  0  0  0
  191.4340  176.7130  139.2130 C   0  0  0  0  0  2  0  0  0  0  0  0
  190.7110  175.5780  138.6590 N   0  0  0  0  0  1  0  0  0  0  0  0
  1  4  1  0  0  0  0
  1 12  1  0  0  0  0
  2 16  1  0  0  0  0
  2 25  1  0  0  0  0
  3 17  2  0  0  0  0
  4 11  2  0  0  0  0
  5 20  1  0  0  0  0
  5  4  1  0  0  0  0
  6 13  1  0  0  0  0
  7 12  1  0  0  0  0
  8 19  1  0  0  0  0
 10 15  1  0  0  0  0
 11  3  1  0  0  0  0
 11 15  1  0  0  0  0
 12 10  2  0  0  0  0
 13 18  2  0  0  0  0
 14  2  2  0  0  0  0
 15  6  2  0  0  0  0
 16  9  1  6  0  0  0
 17 16  1  0  0  0  0
 17 13  1  0  0  0  0
 19 26  1  6  0  0  0
 19 21  1  0  0  0  0
 20  8  1  0  0  0  0
 21 14  2  0  0  0  0
 24 25  1  0  0  0  0
 25 22  1  0  0  0  0
 25 23  1  0  0  0  0
 27 26  1  0  0  0  0
M  END
>  <MODEL>
4

>  <REMARK>
 VINA RESULT:      -7.1      3.814      5.695
  Name = 
  2 active torsions:
  status: ('A' for Active; 'I' for Inactive)
    1  A    between atoms: C_2  and  C_26
    2  A    between atoms: C_18  and  C_24
                            x       y       z     vdW  Elec       q    Type
                         _______ _______ _______ _____ _____    ______ ____

>  <TORSDO>
F 2

$$$$
=
 OpenBabel10232411423D

 27 29  0  0  1  0  0  0  0  0999 V2000
  184.2420  179.0250  142.6340 C   0  0  0  0  0  2  0  0  0  0  0  0
  187.6840  176.7060  137.2270 C   0  0  0  0  0  0  0  0  0  0  0  0
  186.4420  178.4410  139.5590 N   0  0  0  0  0  0  0  0  0  0  0  0
  184.6830  178.8460  141.2000 C   0  0  0  0  0  0  0  0  0  0  0  0
  183.6890  179.1060  140.1930 N   0  0  0  0  0  2  0  0  0  0  0  0
  188.1370  177.8990  141.7380 N   0  0  0  0  0  0  0  0  0  0  0  0
  184.8440  178.6130  145.1040 C   0  0  0  0  0  1  0  0  0  0  0  0
  183.8430  177.4280  138.4280 C   0  0  0  0  0  2  0  0  0  0  0  0
  187.7160  179.2120  137.0190 C   0  0  0  0  0  1  0  0  0  0  0  0
  186.4590  178.2600  143.3610 N   0  0  0  0  0  0  0  0  0  0  0  0
  185.9620  178.5240  140.9090 C   0  0  0  0  0  0  0  0  0  0  0  0
  185.2450  178.5930  143.6730 C   0  0  0  0  0  0  0  0  0  0  0  0
  188.6090  177.8300  140.3870 C   0  0  0  0  0  0  0  0  0  0  0  0
  186.4180  176.4710  136.9700 C   0  0  0  0  0  0  0  0  0  0  0  0
  186.9090  178.2280  142.0070 C   0  0  0  0  0  0  0  0  0  0  0  0
  188.1170  178.0050  137.8530 C   0  0  1  0  0  3  0  0  0  0  0  0
  187.6730  178.1260  139.2820 C   0  0  0  0  0  0  0  0  0  0  0  0
  189.8060  177.5160  140.1530 O   0  0  0  0  0  0  0  0  0  0  0  0
  184.1000  177.2400  136.9400 C   0  0  1  0  0  3  0  0  0  0  0  0
  183.8200  178.9090  138.7550 C   0  0  0  0  0  2  0  0  0  0  0  0
  185.1650  176.2200  136.6980 C   0  0  0  0  0  3  0  0  0  0  0  0
  188.0700  174.4240  136.7550 F   0  0  0  0  0  0  0  0  0  0  0  0
  189.6010  175.5480  137.9690 F   0  0  0  0  0  0  0  0  0  0  0  0
  189.3980  175.9470  135.7650 F   0  0  0  0  0  0  0  0  0  0  0  0
  188.7020  175.6440  136.9220 C   0  0  0  0  0  0  0  0  0  0  0  0
  182.8130  176.8740  136.2070 C   0  0  0  0  0  2  0  0  0  0  0  0
  181.9530  176.0410  137.0330 N   0  0  0  0  0  1  0  0  0  0  0  0
  1 12  1  0  0  0  0
  2 16  1  0  0  0  0
  3 11  1  0  0  0  0
  4  1  1  0  0  0  0
  5  4  1  0  0  0  0
  6 15  2  0  0  0  0
  8 20  1  0  0  0  0
 10 12  2  0  0  0  0
 11  4  2  0  0  0  0
 11 15  1  0  0  0  0
 12  7  1  0  0  0  0
 13  6  1  0  0  0  0
 14  2  2  0  0  0  0
 15 10  1  0  0  0  0
 16  9  1  6  0  0  0
 16 17  1  0  0  0  0
 17  3  2  0  0  0  0
 17 13  1  0  0  0  0
 18 13  2  0  0  0  0
 19 26  1  6  0  0  0
 19  8  1  0  0  0  0
 20  5  1  0  0  0  0
 21 19  1  0  0  0  0
 21 14  2  0  0  0  0
 22 25  1  0  0  0  0
 24 25  1  0  0  0  0
 25  2  1  0  0  0  0
 25 23  1  0  0  0  0
 26 27  1  0  0  0  0
M  END
>  <MODEL>
5

>  <REMARK>
 VINA RESULT:      -6.6      0.945      1.260
  Name = 
  2 active torsions:
  status: ('A' for Active; 'I' for Inactive)
    1  A    between atoms: C_2  and  C_26
    2  A    between atoms: C_18  and  C_24
                            x       y       z     vdW  Elec       q    Type
                         _______ _______ _______ _____ _____    ______ ____

>  <TORSDO>
F 2

$$$$
=
 OpenBabel10232411423D

 27 29  0  0  1  0  0  0  0  0999 V2000
  189.7650  177.5910  139.5390 C   0  0  0  0  0  2  0  0  0  0  0  0
  182.9620  177.9620  139.7220 C   0  0  0  0  0  0  0  0  0  0  0  0
  186.0450  178.4130  139.1920 N   0  0  0  0  0  0  0  0  0  0  0  0
  188.3780  178.1100  139.8380 C   0  0  0  0  0  0  0  0  0  0  0  0
  188.2450  178.9260  141.0150 N   0  0  0  0  0  2  0  0  0  0  0  0
  186.5830  176.7050  137.0230 N   0  0  0  0  0  0  0  0  0  0  0  0
  191.1560  175.9520  138.1210 C   0  0  0  0  0  1  0  0  0  0  0  0
  186.1930  178.3420  142.1980 C   0  0  0  0  0  2  0  0  0  0  0  0
  183.7370  180.2250  138.9440 C   0  0  0  0  0  1  0  0  0  0  0  0
  188.8430  176.3650  137.6220 N   0  0  0  0  0  0  0  0  0  0  0  0
  187.3540  177.8570  138.9940 C   0  0  0  0  0  0  0  0  0  0  0  0
  189.8520  176.6090  138.3990 C   0  0  0  0  0  0  0  0  0  0  0  0
  185.2830  177.2750  137.2230 C   0  0  0  0  0  0  0  0  0  0  0  0
  183.3540  178.0040  140.9750 C   0  0  0  0  0  0  0  0  0  0  0  0
  187.5660  176.9690  137.8310 C   0  0  0  0  0  0  0  0  0  0  0  0
  183.6960  178.7310  138.6560 C   0  0  1  0  0  3  0  0  0  0  0  0
  185.0600  178.1660  138.3810 C   0  0  0  0  0  0  0  0  0  0  0  0
  184.3490  177.0090  136.4220 O   0  0  0  0  0  0  0  0  0  0  0  0
  184.8590  178.8970  142.6770 C   0  0  1  0  0  3  0  0  0  0  0  0
  187.0130  179.4600  141.5820 C   0  0  0  0  0  2  0  0  0  0  0  0
  183.7220  178.0380  142.2270 C   0  0  0  0  0  3  0  0  0  0  0  0
  181.5760  177.1620  137.9850 F   0  0  0  0  0  0  0  0  0  0  0  0
  180.6540  177.5620  140.0030 F   0  0  0  0  0  0  0  0  0  0  0  0
  182.0030  175.7870  139.7140 F   0  0  0  0  0  0  0  0  0  0  0  0
  181.7860  177.1040  139.3520 C   0  0  0  0  0  0  0  0  0  0  0  0
  184.8530  179.0650  144.1940 C   0  0  0  0  0  2  0  0  0  0  0  0
  183.5000  179.0050  144.7270 N   0  0  0  0  0  1  0  0  0  0  0  0
  1  4  1  0  0  0  0
  2 14  2  0  0  0  0
  4  5  1  0  0  0  0
  5 20  1  0  0  0  0
  6 13  1  0  0  0  0
  6 15  2  0  0  0  0
  7 12  1  0  0  0  0
  8 19  1  0  0  0  0
 10 15  1  0  0  0  0
 10 12  2  0  0  0  0
 11  3  1  0  0  0  0
 11  4  2  0  0  0  0
 12  1  1  0  0  0  0
 13 17  1  0  0  0  0
 14 21  2  0  0  0  0
 15 11  1  0  0  0  0
 16  9  1  1  0  0  0
 16  2  1  0  0  0  0
 17 16  1  0  0  0  0
 17  3  2  0  0  0  0
 18 13  2  0  0  0  0
 19 26  1  1  0  0  0
 20  8  1  0  0  0  0
 21 19  1  0  0  0  0
 22 25  1  0  0  0  0
 25 24  1  0  0  0  0
 25  2  1  0  0  0  0
 25 23  1  0  0  0  0
 26 27  1  0  0  0  0
M  END
>  <MODEL>
6

>  <REMARK>
 VINA RESULT:      -6.3      3.588      6.385
  Name = 
  2 active torsions:
  status: ('A' for Active; 'I' for Inactive)
    1  A    between atoms: C_2  and  C_26
    2  A    between atoms: C_18  and  C_24
                            x       y       z     vdW  Elec       q    Type
                         _______ _______ _______ _____ _____    ______ ____

>  <TORSDO>
F 2

$$$$
=
 OpenBabel10232411423D

 27 29  0  0  1  0  0  0  0  0999 V2000
  188.1200  177.5680  138.9880 C   0  0  0  0  0  2  0  0  0  0  0  0
  193.9000  174.3740  137.3010 C   0  0  0  0  0  0  0  0  0  0  0  0
  191.5650  176.4570  137.7510 N   0  0  0  0  0  0  0  0  0  0  0  0
  189.2090  176.9550  138.1390 C   0  0  0  0  0  0  0  0  0  0  0  0
  188.8080  176.4650  136.8470 N   0  0  0  0  0  2  0  0  0  0  0  0
  192.0350  177.3970  140.3610 N   0  0  0  0  0  0  0  0  0  0  0  0
  187.4850  178.4130  141.3360 C   0  0  0  0  0  1  0  0  0  0  0  0
  189.9150  174.3400  136.3890 C   0  0  0  0  0  2  0  0  0  0  0  0
  193.8460  176.4540  135.8880 C   0  0  0  0  0  1  0  0  0  0  0  0
  189.7620  177.8750  140.7880 N   0  0  0  0  0  0  0  0  0  0  0  0
  190.4900  176.9410  138.5690 C   0  0  0  0  0  0  0  0  0  0  0  0
  188.5270  177.9260  140.3950 C   0  0  0  0  0  0  0  0  0  0  0  0
  193.1040  176.9220  139.5330 C   0  0  0  0  0  0  0  0  0  0  0  0
  192.9360  173.6860  136.7340 C   0  0  0  0  0  0  0  0  0  0  0  0
  190.8090  177.4230  139.9310 C   0  0  0  0  0  0  0  0  0  0  0  0
  193.8820  175.8790  137.2960 C   0  0  1  0  0  3  0  0  0  0  0  0
  192.7970  176.4400  138.1700 C   0  0  0  0  0  0  0  0  0  0  0  0
  194.2840  176.9130  139.9710 O   0  0  0  0  0  0  0  0  0  0  0  0
  190.8700  173.6420  135.4320 C   0  0  1  0  0  3  0  0  0  0  0  0
  189.6290  175.7420  135.8850 C   0  0  0  0  0  2  0  0  0  0  0  0
  191.9910  172.9830  136.1700 C   0  0  0  0  0  3  0  0  0  0  0  0
  196.1560  173.6790  137.2120 F   0  0  0  0  0  0  0  0  0  0  0  0
  194.6470  172.3200  138.1910 F   0  0  0  0  0  0  0  0  0  0  0  0
  195.2930  174.2110  139.2200 F   0  0  0  0  0  0  0  0  0  0  0  0
  195.0140  173.6390  137.9920 C   0  0  0  0  0  0  0  0  0  0  0  0
  190.1260  172.6390  134.5550 C   0  0  0  0  0  2  0  0  0  0  0  0
  189.0130  172.0350  135.2710 N   0  0  0  0  0  1  0  0  0  0  0  0
  1 12  1  0  0  0  0
  2 25  1  0  0  0  0
  3 17  2  0  0  0  0
  3 11  1  0  0  0  0
  4 11  2  0  0  0  0
  4  1  1  0  0  0  0
  5  4  1  0  0  0  0
 11 15  1  0  0  0  0
 12 10  2  0  0  0  0
 12  7  1  0  0  0  0
 13 18  2  0  0  0  0
 13  6  1  0  0  0  0
 14  2  2  0  0  0  0
 15  6  2  0  0  0  0
 15 10  1  0  0  0  0
 16  9  1  6  0  0  0
 16  2  1  0  0  0  0
 16 17  1  0  0  0  0
 17 13  1  0  0  0  0
 19 26  1  1  0  0  0
 19 21  1  0  0  0  0
 19  8  1  0  0  0  0
 20  8  1  0  0  0  0
 20  5  1  0  0  0  0
 21 14  2  0  0  0  0
 22 25  1  0  0  0  0
 25 23  1  0  0  0  0
 25 24  1  0  0  0  0
 26 27  1  0  0  0  0
M  END
>  <MODEL>
7

>  <REMARK>
 VINA RESULT:      -6.1      3.876      5.613
  Name = 
  2 active torsions:
  status: ('A' for Active; 'I' for Inactive)
    1  A    between atoms: C_2  and  C_26
    2  A    between atoms: C_18  and  C_24
                            x       y       z     vdW  Elec       q    Type
                         _______ _______ _______ _____ _____    ______ ____

>  <TORSDO>
F 2

$$$$
=
 OpenBabel10232411423D

 27 29  0  0  1  0  0  0  0  0999 V2000
  184.8590  178.5000  145.3360 C   0  0  0  0  0  2  0  0  0  0  0  0
  191.0270  177.0740  142.8100 C   0  0  0  0  0  0  0  0  0  0  0  0
  188.0020  177.0290  143.7250 N   0  0  0  0  0  0  0  0  0  0  0  0
  186.2060  177.8380  145.1650 C   0  0  0  0  0  0  0  0  0  0  0  0
  186.7940  177.2770  146.3530 N   0  0  0  0  0  2  0  0  0  0  0  0
  186.6670  178.3050  141.6030 N   0  0  0  0  0  0  0  0  0  0  0  0
  183.0830  180.0060  144.2370 C   0  0  0  0  0  1  0  0  0  0  0  0
  189.1860  177.7570  146.3960 C   0  0  0  0  0  2  0  0  0  0  0  0
  189.8650  174.8550  143.0360 C   0  0  0  0  0  1  0  0  0  0  0  0
  184.9190  179.1270  142.9620 N   0  0  0  0  0  0  0  0  0  0  0  0
  186.7720  177.7360  143.9420 C   0  0  0  0  0  0  0  0  0  0  0  0
  184.3380  179.2200  144.1180 C   0  0  0  0  0  0  0  0  0  0  0  0
  187.8900  177.5870  141.3950 C   0  0  0  0  0  0  0  0  0  0  0  0
  191.2200  177.3620  144.0760 C   0  0  0  0  0  0  0  0  0  0  0  0
  186.1220  178.3810  142.7800 C   0  0  0  0  0  0  0  0  0  0  0  0
  189.8600  176.2280  142.3780 C   0  0  1  0  0  3  0  0  0  0  0  0
  188.5470  176.9360  142.5480 C   0  0  0  0  0  0  0  0  0  0  0  0
  188.3940  177.5210  140.2430 O   0  0  0  0  0  0  0  0  0  0  0  0
  190.5620  177.1070  146.4140 C   0  0  1  0  0  3  0  0  0  0  0  0
  188.1180  176.6830  146.4840 C   0  0  0  0  0  2  0  0  0  0  0  0
  191.4340  177.6540  145.3310 C   0  0  0  0  0  3  0  0  0  0  0  0
  192.3880  178.8950  142.1650 F   0  0  0  0  0  0  0  0  0  0  0  0
  191.3250  177.7210  140.5600 F   0  0  0  0  0  0  0  0  0  0  0  0
  193.0800  176.8190  141.6380 F   0  0  0  0  0  0  0  0  0  0  0  0
  191.9690  177.6320  141.7810 C   0  0  0  0  0  0  0  0  0  0  0  0
  191.2200  177.2640  147.7820 C   0  0  0  0  0  2  0  0  0  0  0  0
  192.3460  176.3550  147.9340 N   0  0  0  0  0  1  0  0  0  0  0  0
  2 14  2  0  0  0  0
  3 11  1  0  0  0  0
  4  1  1  0  0  0  0
  4  5  1  0  0  0  0
  5 20  1  0  0  0  0
  6 15  2  0  0  0  0
  8 19  1  0  0  0  0
  8 20  1  0  0  0  0
 10 12  2  0  0  0  0
 11  4  2  0  0  0  0
 12  7  1  0  0  0  0
 12  1  1  0  0  0  0
 13  6  1  0  0  0  0
 13 17  1  0  0  0  0
 14 21  2  0  0  0  0
 15 10  1  0  0  0  0
 15 11  1  0  0  0  0
 16 17  1  0  0  0  0
 16  2  1  0  0  0  0
 16  9  1  1  0  0  0
 17  3  2  0  0  0  0
 18 13  2  0  0  0  0
 19 26  1  1  0  0  0
 21 19  1  0  0  0  0
 23 25  1  0  0  0  0
 24 25  1  0  0  0  0
 25 22  1  0  0  0  0
 25  2  1  0  0  0  0
 26 27  1  0  0  0  0
M  END
>  <MODEL>
8

>  <REMARK>
 VINA RESULT:      -6.1      3.596      6.629
  Name = 
  2 active torsions:
  status: ('A' for Active; 'I' for Inactive)
    1  A    between atoms: C_2  and  C_26
    2  A    between atoms: C_18  and  C_24
                            x       y       z     vdW  Elec       q    Type
                         _______ _______ _______ _____ _____    ______ ____

>  <TORSDO>
F 2

$$$$
=
 OpenBabel10232411423D

 27 29  0  0  1  0  0  0  0  0999 V2000
  186.4150  178.4440  142.5010 C   0  0  0  0  0  2  0  0  0  0  0  0
  189.0090  176.3200  136.5660 C   0  0  0  0  0  0  0  0  0  0  0  0
  188.2230  177.9340  139.1690 N   0  0  0  0  0  0  0  0  0  0  0  0
  186.6930  178.3670  141.0180 C   0  0  0  0  0  0  0  0  0  0  0  0
  185.6490  178.8470  140.1500 N   0  0  0  0  0  2  0  0  0  0  0  0
  190.0330  176.9700  141.0950 N   0  0  0  0  0  0  0  0  0  0  0  0
  187.1890  177.7070  144.8430 C   0  0  0  0  0  1  0  0  0  0  0  0
  185.4220  177.3570  138.2310 C   0  0  0  0  0  2  0  0  0  0  0  0
  189.3400  178.8140  136.5900 C   0  0  0  0  0  1  0  0  0  0  0  0
  188.5760  177.3530  142.9140 N   0  0  0  0  0  0  0  0  0  0  0  0
  187.8870  177.9290  140.5640 C   0  0  0  0  0  0  0  0  0  0  0  0
  187.4480  177.7910  143.3830 C   0  0  0  0  0  0  0  0  0  0  0  0
  190.3630  176.9890  139.7000 C   0  0  0  0  0  0  0  0  0  0  0  0
  187.7050  176.2640  136.4240 C   0  0  0  0  0  0  0  0  0  0  0  0
  188.8880  177.4100  141.5220 C   0  0  0  0  0  0  0  0  0  0  0  0
  189.6610  177.4860  137.2600 C   0  0  1  0  0  3  0  0  0  0  0  0
  189.3730  177.5070  138.7340 C   0  0  0  0  0  0  0  0  0  0  0  0
  191.4830  176.5630  139.3120 O   0  0  0  0  0  0  0  0  0  0  0  0
  185.5120  177.2990  136.7130 C   0  0  1  0  0  3  0  0  0  0  0  0
  185.6180  178.7880  138.6950 C   0  0  0  0  0  2  0  0  0  0  0  0
  186.4100  176.1910  136.2660 C   0  0  0  0  0  3  0  0  0  0  0  0
  190.8540  175.6750  135.2410 F   0  0  0  0  0  0  0  0  0  0  0  0
  189.0610  174.3120  135.3280 F   0  0  0  0  0  0  0  0  0  0  0  0
  190.4270  174.4900  137.1050 F   0  0  0  0  0  0  0  0  0  0  0  0
  189.8500  175.1850  136.0570 C   0  0  0  0  0  0  0  0  0  0  0  0
  184.1250  177.1650  136.0900 C   0  0  0  0  0  2  0  0  0  0  0  0
  183.9610  175.8760  135.4370 N   0  0  0  0  0  1  0  0  0  0  0  0
  1 12  1  0  0  0  0
  2 16  1  0  0  0  0
  3 11  1  0  0  0  0
  4  1  1  0  0  0  0
  5  4  1  0  0  0  0
  6 15  2  0  0  0  0
  8 20  1  0  0  0  0
 10 12  2  0  0  0  0
 11  4  2  0  0  0  0
 11 15  1  0  0  0  0
 12  7  1  0  0  0  0
 13  6  1  0  0  0  0
 14  2  2  0  0  0  0
 15 10  1  0  0  0  0
 16  9  1  6  0  0  0
 16 17  1  0  0  0  0
 17  3  2  0  0  0  0
 17 13  1  0  0  0  0
 18 13  2  0  0  0  0
 19 26  1  6  0  0  0
 19  8  1  0  0  0  0
 20  5  1  0  0  0  0
 21 14  2  0  0  0  0
 21 19  1  0  0  0  0
 22 25  1  0  0  0  0
 23 25  1  0  0  0  0
 25  2  1  0  0  0  0
 25 24  1  0  0  0  0
 27 26  1  0  0  0  0
M  END
>  <MODEL>
9

>  <REMARK>
 VINA RESULT:      -6.0      1.264      1.472
  Name = 
  2 active torsions:
  status: ('A' for Active; 'I' for Inactive)
    1  A    between atoms: C_2  and  C_26
    2  A    between atoms: C_18  and  C_24
                            x       y       z     vdW  Elec       q    Type
                         _______ _______ _______ _____ _____    ______ ____

>  <TORSDO>
F 2

$$$$
