=
 OpenBabel10232412163D

 48 51  0  0  1  0  0  0  0  0999 V2000
  186.1360  179.0220  141.8140 S   0  0  0  0  0  0  0  0  0  0  0  0
  184.7710  179.2310  143.0010 C   0  0  1  0  0  3  0  0  0  0  0  0
  184.9060  178.7980  140.5360 C   0  0  0  0  0  0  0  0  0  0  0  0
  183.5770  178.4610  142.4630 C   0  0  0  0  0  2  0  0  0  0  0  0
  183.6840  178.5140  140.9800 C   0  0  0  0  0  0  0  0  0  0  0  0
  182.1410  176.9240  139.7960 N   0  0  0  0  0  2  0  0  0  0  0  0
  180.9580  176.5320  139.0900 C   0  0  0  0  0  0  0  0  0  0  0  0
  180.0570  177.3750  138.8200 O   0  0  0  0  0  0  0  0  0  0  0  0
  182.5020  178.2710  140.1250 C   0  0  0  0  0  0  0  0  0  0  0  0
  181.8260  179.2350  139.6750 O   0  0  0  0  0  0  0  0  0  0  0  0
  180.7920  175.1210  138.6480 C   0  0  0  0  0  2  0  0  0  0  0  0
  181.1960  174.9660  137.1910 C   0  0  0  0  0  2  0  0  0  0  0  0
  184.1070  171.9240  137.1940 N   0  0  0  0  0  0  0  0  0  0  0  0
  182.6940  171.5440  137.1530 C   0  0  0  0  0  2  0  0  0  0  0  0
  183.5910  174.2600  137.3980 C   0  0  0  0  0  2  0  0  0  0  0  0
  182.2290  173.9480  137.0660 N   0  0  0  0  0  0  0  0  0  0  0  0
  184.5020  173.2860  137.4360 C   0  0  0  0  0  3  0  0  0  0  0  0
  181.8890  172.6500  136.4730 C   0  0  0  0  0  2  0  0  0  0  0  0
  185.2090  178.9860  139.1470 N   0  0  0  0  0  2  0  0  0  0  0  0
  186.1090  178.1100  138.4130 C   0  0  0  0  0  2  0  0  0  0  0  0
  188.8790  177.2660  138.0510 N   0  0  0  0  0  2  0  0  0  0  0  0
  187.0650  178.9090  137.6620 N   0  0  0  0  0  2  0  0  0  0  0  0
  189.2260  179.2700  136.9050 O   0  0  0  0  0  0  0  0  0  0  0  0
  188.4270  178.5120  137.5130 C   0  0  0  0  0  0  0  0  0  0  0  0
  190.9570  177.0090  139.2860 C   0  0  0  0  0  1  0  0  0  0  0  0
  190.2610  176.8210  137.9490 C   0  0  1  0  0  3  0  0  0  0  0  0
  190.2880  175.3560  137.5550 C   0  0  0  0  0  2  0  0  0  0  0  0
  191.4950  174.7230  138.0670 N   0  0  0  0  0  2  0  0  0  0  0  0
  192.2500  174.2400  136.9190 C   0  0  0  0  0  2  0  0  0  0  0  0
  193.4170  175.1310  136.6580 C   0  0  0  0  0  0  0  0  0  0  0  0
  193.8320  176.0350  137.6310 O   0  0  0  0  0  1  0  0  0  0  0  0
  194.0390  175.0510  135.5670 O   0  0  0  0  0  0  0  0  0  0  0  0
  185.1570  178.7100  144.3720 C   0  0  0  0  0  2  0  0  0  0  0  0
  186.5860  178.4370  144.4070 N   0  0  0  0  0  2  0  0  0  0  0  0
  188.6710  177.4050  147.8960 N   0  0  0  0  0  0  0  0  0  0  0  0
  187.3640  177.7610  147.9830 C   0  0  0  0  0  3  0  0  0  0  0  0
  188.6350  177.6050  145.5000 C   0  0  0  0  0  0  0  0  0  0  0  0
  189.3380  177.3430  146.7100 C   0  0  0  0  0  0  0  0  0  0  0  0
  187.2920  178.0400  145.5880 C   0  0  0  0  0  0  0  0  0  0  0  0
  186.6580  178.0980  146.8340 C   0  0  0  0  0  3  0  0  0  0  0  0
  189.2960  177.4720  144.1440 C   0  0  2  0  0  3  0  0  0  0  0  0
  188.8680  176.7110  141.8310 C   0  0  0  0  0  1  0  0  0  0  0  0
  188.6100  176.4080  143.2930 C   0  0  1  0  0  3  0  0  0  0  0  0
  189.9140  176.0940  143.9750 C   0  0  0  0  0  2  0  0  0  0  0  0
  191.2830  175.9310  147.5130 N   0  0  0  0  0  2  0  0  0  0  0  0
  192.6950  175.5850  147.5410 C   0  0  0  0  0  1  0  0  0  0  0  0
  191.5830  177.7410  146.0800 O   0  0  0  0  0  0  0  0  0  0  0  0
  190.7860  177.0440  146.7630 C   0  0  0  0  0  0  0  0  0  0  0  0
  1  2  1  0  0  0  0
  2 33  1  1  0  0  0
  3  5  2  0  0  0  0
  3  1  1  0  0  0  0
  4  2  1  0  0  0  0
  5  4  1  0  0  0  0
  6  9  1  0  0  0  0
  7  6  1  0  0  0  0
  8  7  2  0  0  0  0
  9  5  1  0  0  0  0
 10  9  2  0  0  0  0
 11  7  1  0  0  0  0
 12 11  1  0  0  0  0
 13 17  2  0  0  0  0
 14 13  1  0  0  0  0
 15 17  1  0  0  0  0
 16 12  1  0  0  0  0
 16 15  1  0  0  0  0
 18 16  1  0  0  0  0
 18 14  1  0  0  0  0
 19  3  1  0  0  0  0
 20 19  1  0  0  0  0
 22 20  1  0  0  0  0
 23 24  2  0  0  0  0
 24 22  1  0  0  0  0
 24 21  1  0  0  0  0
 26 21  1  0  0  0  0
 26 25  1  1  0  0  0
 27 26  1  0  0  0  0
 27 28  1  0  0  0  0
 29 28  1  0  0  0  0
 30 29  1  0  0  0  0
 30 31  1  0  0  0  0
 32 30  2  0  0  0  0
 33 34  1  0  0  0  0
 34 39  1  0  0  0  0
 35 36  1  0  0  0  0
 37 39  2  0  0  0  0
 37 38  1  0  0  0  0
 38 48  1  0  0  0  0
 38 35  2  0  0  0  0
 39 40  1  0  0  0  0
 40 36  2  0  0  0  0
 41 37  1  1  0  0  0
 43 42  1  6  0  0  0
 43 44  1  0  0  0  0
 43 41  1  0  0  0  0
 44 41  1  0  0  0  0
 45 46  1  0  0  0  0
 47 48  2  0  0  0  0
 48 45  1  0  0  0  0
M  END
>  <MODEL>
1

>  <REMARK>
 VINA RESULT:      -7.8      0.000      0.000
  Name = 
  17 active torsions:
  status: ('A' for Active; 'I' for Inactive)
    1  A    between atoms: N_1  and  C_16
    2  A    between atoms: C_2  and  C_23
    3  A    between atoms: C_4  and  C_18
    4  A    between atoms: C_4  and  C_42
    5  A    between atoms: C_6  and  N_9
    6  A    between atoms: C_6  and  N_32
    7  A    between atoms: C_7  and  C_38
    8  A    between atoms: C_13  and  C_30
    9  A    between atoms: C_13  and  N_39
   10  A    between atoms: C_16  and  C_34
   11  A    between atoms: C_25  and  C_47
   12  A    between atoms: C_28  and  C_46
   13  A    between atoms: N_31  and  C_42
   14  A    between atoms: N_32  and  C_37
   15  A    between atoms: C_34  and  N_45
   16  A    between atoms: C_38  and  N_45
   17  A    between atoms: N_39  and  C_40
                            x       y       z     vdW  Elec       q    Type
                         _______ _______ _______ _____ _____    ______ ____

>  <TORSDO>
F 17

$$$$
=
 OpenBabel10232412163D

 48 51  0  0  1  0  0  0  0  0999 V2000
  188.4150  177.7860  142.9020 S   0  0  0  0  0  0  0  0  0  0  0  0
  188.0650  178.6350  141.3290 C   0  0  1  0  0  3  0  0  0  0  0  0
  190.0390  177.4030  142.2610 C   0  0  0  0  0  0  0  0  0  0  0  0
  188.9220  177.9810  140.2580 C   0  0  0  0  0  2  0  0  0  0  0  0
  190.1630  177.5250  140.9410 C   0  0  0  0  0  0  0  0  0  0  0  0
  191.3260  176.4120  139.0130 N   0  0  0  0  0  2  0  0  0  0  0  0
  192.4050  176.1660  138.1040 C   0  0  0  0  0  0  0  0  0  0  0  0
  193.4900  176.8060  138.1970 O   0  0  0  0  0  0  0  0  0  0  0  0
  191.3960  177.2530  140.1710 C   0  0  0  0  0  0  0  0  0  0  0  0
  192.5000  177.7390  140.5350 O   0  0  0  0  0  0  0  0  0  0  0  0
  192.2610  175.1270  137.0470 C   0  0  0  0  0  2  0  0  0  0  0  0
  191.5800  175.7050  135.8180 C   0  0  0  0  0  2  0  0  0  0  0  0
  188.4970  173.0360  134.7660 N   0  0  0  0  0  0  0  0  0  0  0  0
  188.1620  174.4430  134.9890 C   0  0  0  0  0  2  0  0  0  0  0  0
  190.7920  173.3650  135.3910 C   0  0  0  0  0  2  0  0  0  0  0  0
  190.5640  174.7820  135.3310 N   0  0  0  0  0  0  0  0  0  0  0  0
  189.8000  172.5230  135.0940 C   0  0  0  0  0  3  0  0  0  0  0  0
  189.3730  175.3140  134.6600 C   0  0  0  0  0  2  0  0  0  0  0  0
  191.1360  177.0630  143.1190 N   0  0  0  0  0  2  0  0  0  0  0  0
  191.0980  175.9310  144.0340 C   0  0  0  0  0  2  0  0  0  0  0  0
  189.8030  176.6430  146.5500 N   0  0  0  0  0  2  0  0  0  0  0  0
  191.8630  176.2450  145.2310 N   0  0  0  0  0  2  0  0  0  0  0  0
  191.9410  176.9420  147.4410 O   0  0  0  0  0  0  0  0  0  0  0  0
  191.2300  176.6230  146.4520 C   0  0  0  0  0  0  0  0  0  0  0  0
  189.5490  178.4370  148.1710 C   0  0  0  0  0  1  0  0  0  0  0  0
  189.1040  177.0430  147.7620 C   0  0  1  0  0  3  0  0  0  0  0  0
  187.6090  177.0340  147.5050 C   0  0  0  0  0  2  0  0  0  0  0  0
  187.1420  178.3850  147.2250 N   0  0  0  0  0  2  0  0  0  0  0  0
  186.6130  178.3860  145.8680 C   0  0  0  0  0  2  0  0  0  0  0  0
  185.1560  178.7040  145.8830 C   0  0  0  0  0  0  0  0  0  0  0  0
  184.3870  178.3860  146.9990 O   0  0  0  0  0  1  0  0  0  0  0  0
  184.6260  179.2780  144.8970 O   0  0  0  0  0  0  0  0  0  0  0  0
  186.5970  178.5260  140.9660 C   0  0  0  0  0  2  0  0  0  0  0  0
  186.4260  178.7730  139.5410 N   0  0  0  0  0  2  0  0  0  0  0  0
  182.9650  177.6140  137.4770 N   0  0  0  0  0  0  0  0  0  0  0  0
  182.8470  178.3470  138.6130 C   0  0  0  0  0  3  0  0  0  0  0  0
  185.3650  177.7050  137.5880 C   0  0  0  0  0  0  0  0  0  0  0  0
  184.1710  177.2550  136.9560 C   0  0  0  0  0  0  0  0  0  0  0  0
  185.2510  178.4120  138.8070 C   0  0  0  0  0  0  0  0  0  0  0  0
  183.9860  178.7450  139.3040 C   0  0  0  0  0  3  0  0  0  0  0  0
  186.7350  177.4110  137.0130 C   0  0  2  0  0  3  0  0  0  0  0  0
  188.9870  178.3940  136.7360 C   0  0  0  0  0  1  0  0  0  0  0  0
  187.5030  178.6960  136.7180 C   0  0  1  0  0  3  0  0  0  0  0  0
  186.8520  177.9380  135.5920 C   0  0  0  0  0  2  0  0  0  0  0  0
  184.4970  174.9820  135.8840 N   0  0  0  0  0  2  0  0  0  0  0  0
  184.4450  174.0780  134.7460 C   0  0  0  0  0  1  0  0  0  0  0  0
  183.7780  176.8290  134.6630 O   0  0  0  0  0  0  0  0  0  0  0  0
  184.1590  176.3680  135.7720 C   0  0  0  0  0  0  0  0  0  0  0  0
  2 33  1  6  0  0  0
  2  1  1  0  0  0  0
  3  1  1  0  0  0  0
  3 19  1  0  0  0  0
  4  5  1  0  0  0  0
  4  2  1  0  0  0  0
  5  3  2  0  0  0  0
  6  9  1  0  0  0  0
  7  8  2  0  0  0  0
  7  6  1  0  0  0  0
  9 10  2  0  0  0  0
  9  5  1  0  0  0  0
 11  7  1  0  0  0  0
 12 11  1  0  0  0  0
 13 14  1  0  0  0  0
 13 17  2  0  0  0  0
 16 15  1  0  0  0  0
 16 12  1  0  0  0  0
 17 15  1  0  0  0  0
 18 14  1  0  0  0  0
 18 16  1  0  0  0  0
 19 20  1  0  0  0  0
 20 22  1  0  0  0  0
 21 26  1  0  0  0  0
 22 24  1  0  0  0  0
 24 21  1  0  0  0  0
 24 23  2  0  0  0  0
 26 25  1  6  0  0  0
 27 26  1  0  0  0  0
 28 27  1  0  0  0  0
 29 30  1  0  0  0  0
 29 28  1  0  0  0  0
 30 31  1  0  0  0  0
 32 30  2  0  0  0  0
 34 33  1  0  0  0  0
 35 36  1  0  0  0  0
 36 40  2  0  0  0  0
 37 39  2  0  0  0  0
 38 35  2  0  0  0  0
 38 37  1  0  0  0  0
 39 40  1  0  0  0  0
 39 34  1  0  0  0  0
 41 37  1  1  0  0  0
 43 42  1  6  0  0  0
 43 41  1  0  0  0  0
 44 43  1  0  0  0  0
 44 41  1  0  0  0  0
 46 45  1  0  0  0  0
 47 48  2  0  0  0  0
 48 45  1  0  0  0  0
 48 38  1  0  0  0  0
M  END
>  <MODEL>
2

>  <REMARK>
 VINA RESULT:      -7.5      2.681      9.604
  Name = 
  17 active torsions:
  status: ('A' for Active; 'I' for Inactive)
    1  A    between atoms: N_1  and  C_16
    2  A    between atoms: C_2  and  C_23
    3  A    between atoms: C_4  and  C_18
    4  A    between atoms: C_4  and  C_42
    5  A    between atoms: C_6  and  N_9
    6  A    between atoms: C_6  and  N_32
    7  A    between atoms: C_7  and  C_38
    8  A    between atoms: C_13  and  C_30
    9  A    between atoms: C_13  and  N_39
   10  A    between atoms: C_16  and  C_34
   11  A    between atoms: C_25  and  C_47
   12  A    between atoms: C_28  and  C_46
   13  A    between atoms: N_31  and  C_42
   14  A    between atoms: N_32  and  C_37
   15  A    between atoms: C_34  and  N_45
   16  A    between atoms: C_38  and  N_45
   17  A    between atoms: N_39  and  C_40
                            x       y       z     vdW  Elec       q    Type
                         _______ _______ _______ _____ _____    ______ ____

>  <TORSDO>
F 17

$$$$
=
 OpenBabel10232412163D

 48 51  0  0  1  0  0  0  0  0999 V2000
  182.9780  178.7300  142.8930 S   0  0  0  0  0  0  0  0  0  0  0  0
  184.6750  178.1400  143.1940 C   0  0  1  0  0  3  0  0  0  0  0  0
  183.4190  178.9280  141.1720 C   0  0  0  0  0  0  0  0  0  0  0  0
  185.5710  178.7750  142.1440 C   0  0  0  0  0  2  0  0  0  0  0  0
  184.7280  178.9460  140.9290 C   0  0  0  0  0  0  0  0  0  0  0  0
  186.5580  178.4110  139.2930 N   0  0  0  0  0  2  0  0  0  0  0  0
  187.1940  178.3730  138.0100 C   0  0  0  0  0  0  0  0  0  0  0  0
  186.6320  178.8670  136.9940 O   0  0  0  0  0  0  0  0  0  0  0  0
  185.3450  179.1120  139.5950 C   0  0  0  0  0  0  0  0  0  0  0  0
  184.8230  179.8720  138.7360 O   0  0  0  0  0  0  0  0  0  0  0  0
  188.5460  177.7660  137.8720 C   0  0  0  0  0  2  0  0  0  0  0  0
  188.4680  176.2530  137.9880 C   0  0  0  0  0  2  0  0  0  0  0  0
  192.4000  174.8200  137.5300 N   0  0  0  0  0  2  0  0  0  0  0  0
  192.2020  176.1650  138.0720 C   0  0  0  0  0  2  0  0  0  0  0  0
  190.0520  174.5040  137.1470 C   0  0  0  0  0  3  0  0  0  0  0  0
  189.8050  175.6790  137.9350 N   0  0  0  0  0  0  0  0  0  0  0  0
  191.3040  174.0750  136.9730 C   0  0  0  0  0  3  0  0  0  0  0  0
  190.8570  176.2300  138.7940 C   0  0  0  0  0  2  0  0  0  0  0  0
  182.4320  178.9870  140.1350 N   0  0  0  0  0  2  0  0  0  0  0  0
  181.1270  178.3520  140.2540 C   0  0  0  0  0  2  0  0  0  0  0  0
  181.8880  177.2100  137.6780 N   0  0  0  0  0  2  0  0  0  0  0  0
  181.2630  176.9170  140.0580 N   0  0  0  0  0  2  0  0  0  0  0  0
  181.6480  175.1060  138.6630 O   0  0  0  0  0  0  0  0  0  0  0  0
  181.6030  176.3570  138.7920 C   0  0  0  0  0  0  0  0  0  0  0  0
  181.2520  177.2640  135.3330 C   0  0  0  0  0  1  0  0  0  0  0  0
  182.2170  176.6950  136.3580 C   0  0  1  0  0  3  0  0  0  0  0  0
  183.6380  177.0940  136.0050 C   0  0  0  0  0  2  0  0  0  0  0  0
  184.4670  175.9060  135.8540 N   0  0  0  0  0  2  0  0  0  0  0  0
  184.9370  175.5350  137.1820 C   0  0  0  0  0  2  0  0  0  0  0  0
  185.1190  174.0580  137.2700 C   0  0  0  0  0  0  0  0  0  0  0  0
  184.0080  173.2270  137.3810 O   0  0  0  0  0  1  0  0  0  0  0  0
  186.2740  173.5620  137.2240 O   0  0  0  0  0  0  0  0  0  0  0  0
  185.1460  178.5200  144.5850 C   0  0  0  0  0  2  0  0  0  0  0  0
  186.6000  178.4880  144.6340 N   0  0  0  0  0  2  0  0  0  0  0  0
  188.8090  177.2770  147.9860 N   0  0  0  0  0  0  0  0  0  0  0  0
  187.5080  177.6330  148.1400 C   0  0  0  0  0  3  0  0  0  0  0  0
  188.6830  177.5950  145.6060 C   0  0  0  0  0  0  0  0  0  0  0  0
  189.4300  177.2710  146.7740 C   0  0  0  0  0  0  0  0  0  0  0  0
  187.3480  178.0300  145.7660 C   0  0  0  0  0  0  0  0  0  0  0  0
  186.7610  178.0290  147.0370 C   0  0  0  0  0  3  0  0  0  0  0  0
  189.2930  177.5270  144.2210 C   0  0  2  0  0  3  0  0  0  0  0  0
  188.7110  177.1210  141.8520 C   0  0  0  0  0  1  0  0  0  0  0  0
  188.4360  176.6880  143.2780 C   0  0  1  0  0  3  0  0  0  0  0  0
  189.6880  176.1010  143.8720 C   0  0  0  0  0  2  0  0  0  0  0  0
  191.4140  175.8950  147.5420 N   0  0  0  0  0  2  0  0  0  0  0  0
  192.8240  175.5400  147.5060 C   0  0  0  0  0  1  0  0  0  0  0  0
  191.6350  177.6120  145.9860 O   0  0  0  0  0  0  0  0  0  0  0  0
  190.8780  176.9640  146.7580 C   0  0  0  0  0  0  0  0  0  0  0  0
  1  2  1  0  0  0  0
  2 33  1  1  0  0  0
  3  1  1  0  0  0  0
  4  2  1  0  0  0  0
  5  3  2  0  0  0  0
  5  4  1  0  0  0  0
  6  9  1  0  0  0  0
  7  6  1  0  0  0  0
  8  7  2  0  0  0  0
  9  5  1  0  0  0  0
 10  9  2  0  0  0  0
 11 12  1  0  0  0  0
 11  7  1  0  0  0  0
 13 14  1  0  0  0  0
 14 18  1  0  0  0  0
 15 16  1  0  0  0  0
 16 12  1  0  0  0  0
 16 18  1  0  0  0  0
 17 15  2  0  0  0  0
 17 13  1  0  0  0  0
 19 20  1  0  0  0  0
 19  3  1  0  0  0  0
 21 24  1  0  0  0  0
 22 20  1  0  0  0  0
 23 24  2  0  0  0  0
 24 22  1  0  0  0  0
 26 25  1  6  0  0  0
 26 21  1  0  0  0  0
 27 26  1  0  0  0  0
 28 27  1  0  0  0  0
 28 29  1  0  0  0  0
 29 30  1  0  0  0  0
 30 31  1  0  0  0  0
 32 30  2  0  0  0  0
 33 34  1  0  0  0  0
 34 39  1  0  0  0  0
 35 36  1  0  0  0  0
 37 39  2  0  0  0  0
 37 38  1  0  0  0  0
 38 35  2  0  0  0  0
 39 40  1  0  0  0  0
 40 36  2  0  0  0  0
 41 37  1  1  0  0  0
 43 42  1  6  0  0  0
 43 44  1  0  0  0  0
 43 41  1  0  0  0  0
 44 41  1  0  0  0  0
 46 45  1  0  0  0  0
 47 48  2  0  0  0  0
 48 38  1  0  0  0  0
 48 45  1  0  0  0  0
M  END
>  <MODEL>
3

>  <REMARK>
 VINA RESULT:      -7.4      2.298      5.690
  Name = 
  17 active torsions:
  status: ('A' for Active; 'I' for Inactive)
    1  A    between atoms: N_1  and  C_16
    2  A    between atoms: C_2  and  C_23
    3  A    between atoms: C_4  and  C_18
    4  A    between atoms: C_4  and  C_42
    5  A    between atoms: C_6  and  N_9
    6  A    between atoms: C_6  and  N_32
    7  A    between atoms: C_7  and  C_38
    8  A    between atoms: C_13  and  C_30
    9  A    between atoms: C_13  and  N_39
   10  A    between atoms: C_16  and  C_34
   11  A    between atoms: C_25  and  C_47
   12  A    between atoms: C_28  and  C_46
   13  A    between atoms: N_31  and  C_42
   14  A    between atoms: N_32  and  C_37
   15  A    between atoms: C_34  and  N_45
   16  A    between atoms: C_38  and  N_45
   17  A    between atoms: N_39  and  C_40
                            x       y       z     vdW  Elec       q    Type
                         _______ _______ _______ _____ _____    ______ ____

>  <TORSDO>
F 17

$$$$
=
 OpenBabel10232412163D

 48 51  0  0  1  0  0  0  0  0999 V2000
  189.6660  177.1630  136.3240 S   0  0  0  0  0  0  0  0  0  0  0  0
  191.3380  176.4630  136.4990 C   0  0  1  0  0  3  0  0  0  0  0  0
  189.7060  177.5330  138.0720 C   0  0  0  0  0  0  0  0  0  0  0  0
  191.4810  175.9750  137.9310 C   0  0  0  0  0  2  0  0  0  0  0  0
  190.6370  176.8770  138.7620 C   0  0  0  0  0  0  0  0  0  0  0  0
  189.8480  176.5440  141.1230 N   0  0  0  0  0  2  0  0  0  0  0  0
  189.9800  176.4790  142.5480 C   0  0  0  0  0  0  0  0  0  0  0  0
  191.0900  176.7030  143.1070 O   0  0  0  0  0  0  0  0  0  0  0  0
  190.8630  176.9980  140.2180 C   0  0  0  0  0  0  0  0  0  0  0  0
  191.9250  177.5080  140.6630 O   0  0  0  0  0  0  0  0  0  0  0  0
  188.7910  176.1680  143.3880 C   0  0  0  0  0  2  0  0  0  0  0  0
  188.0690  177.4430  143.7880 C   0  0  0  0  0  2  0  0  0  0  0  0
  187.5890  177.9290  147.9430 N   0  0  0  0  0  2  0  0  0  0  0  0
  186.5250  178.3980  147.0530 C   0  0  0  0  0  2  0  0  0  0  0  0
  189.0060  177.3070  146.1070 C   0  0  0  0  0  3  0  0  0  0  0  0
  187.8810  177.4790  145.2310 N   0  0  0  0  0  0  0  0  0  0  0  0
  188.8580  177.5000  147.4190 C   0  0  0  0  0  3  0  0  0  0  0  0
  186.5220  177.5590  145.7770 C   0  0  0  0  0  2  0  0  0  0  0  0
  188.8470  178.5170  138.6620 N   0  0  0  0  0  2  0  0  0  0  0  0
  187.4470  178.2600  138.9650 C   0  0  0  0  0  2  0  0  0  0  0  0
  184.6960  178.6740  139.8470 N   0  0  0  0  0  2  0  0  0  0  0  0
  187.1330  178.7700  140.2910 N   0  0  0  0  0  2  0  0  0  0  0  0
  185.5760  179.5010  141.8460 O   0  0  0  0  0  0  0  0  0  0  0  0
  185.7890  179.0010  140.7110 C   0  0  0  0  0  0  0  0  0  0  0  0
  182.5840  179.5840  139.0600 C   0  0  0  0  0  1  0  0  0  0  0  0
  183.3080  178.9100  140.2130 C   0  0  1  0  0  3  0  0  0  0  0  0
  182.6420  177.5850  140.5360 C   0  0  0  0  0  2  0  0  0  0  0  0
  181.7320  177.2090  139.4630 N   0  0  0  0  0  2  0  0  0  0  0  0
  181.9600  175.7990  139.1780 C   0  0  0  0  0  2  0  0  0  0  0  0
  183.0300  175.6480  138.1510 C   0  0  0  0  0  0  0  0  0  0  0  0
  183.2420  176.6550  137.2150 O   0  0  0  0  0  0  0  0  0  0  0  0
  183.7560  174.6200  138.1450 O   0  0  0  0  0  1  0  0  0  0  0  0
  191.5540  175.3160  135.5300 C   0  0  0  0  0  2  0  0  0  0  0  0
  192.8270  174.6710  135.8120 N   0  0  0  0  0  2  0  0  0  0  0  0
  196.5510  176.5640  135.4500 N   0  0  0  0  0  0  0  0  0  0  0  0
  195.4730  177.0920  134.8170 C   0  0  0  0  0  3  0  0  0  0  0  0
  195.2070  174.8330  136.4390 C   0  0  0  0  0  0  0  0  0  0  0  0
  196.4730  175.4490  136.2280 C   0  0  0  0  0  0  0  0  0  0  0  0
  194.0920  175.3370  135.7300 C   0  0  0  0  0  0  0  0  0  0  0  0
  194.2300  176.4790  134.9340 C   0  0  0  0  0  3  0  0  0  0  0  0
  195.0390  173.6410  137.3580 C   0  0  2  0  0  3  0  0  0  0  0  0
  195.9430  171.3840  137.8110 C   0  0  0  0  0  1  0  0  0  0  0  0
  195.5740  172.3650  136.7160 C   0  0  1  0  0  3  0  0  0  0  0  0
  194.0910  172.6190  136.7520 C   0  0  0  0  0  2  0  0  0  0  0  0
  198.1330  175.1910  138.1260 N   0  0  0  0  0  2  0  0  0  0  0  0
  199.3480  174.6400  138.7050 C   0  0  0  0  0  1  0  0  0  0  0  0
  198.4470  174.1550  136.0640 O   0  0  0  0  0  0  0  0  0  0  0  0
  197.7410  174.9170  136.7770 C   0  0  0  0  0  0  0  0  0  0  0  0
  1  2  1  0  0  0  0
  1  3  1  0  0  0  0
  2 33  1  6  0  0  0
  2  4  1  0  0  0  0
  3 19  1  0  0  0  0
  3  5  2  0  0  0  0
  4  5  1  0  0  0  0
  5  9  1  0  0  0  0
  6  7  1  0  0  0  0
  7  8  2  0  0  0  0
  7 11  1  0  0  0  0
  9 10  2  0  0  0  0
  9  6  1  0  0  0  0
 11 12  1  0  0  0  0
 12 16  1  0  0  0  0
 14 13  1  0  0  0  0
 15 17  2  0  0  0  0
 16 18  1  0  0  0  0
 16 15  1  0  0  0  0
 17 13  1  0  0  0  0
 18 14  1  0  0  0  0
 19 20  1  0  0  0  0
 20 22  1  0  0  0  0
 21 26  1  0  0  0  0
 21 24  1  0  0  0  0
 22 24  1  0  0  0  0
 24 23  2  0  0  0  0
 26 25  1  6  0  0  0
 26 27  1  0  0  0  0
 28 27  1  0  0  0  0
 29 28  1  0  0  0  0
 30 29  1  0  0  0  0
 31 30  2  0  0  0  0
 32 30  1  0  0  0  0
 33 34  1  0  0  0  0
 35 38  1  0  0  0  0
 36 40  1  0  0  0  0
 36 35  2  0  0  0  0
 38 37  2  0  0  0  0
 38 48  1  0  0  0  0
 39 34  1  0  0  0  0
 39 37  1  0  0  0  0
 40 39  2  0  0  0  0
 41 37  1  6  0  0  0
 43 44  1  0  0  0  0
 43 41  1  0  0  0  0
 43 42  1  1  0  0  0
 44 41  1  0  0  0  0
 45 46  1  0  0  0  0
 47 48  2  0  0  0  0
 48 45  1  0  0  0  0
M  END
>  <MODEL>
4

>  <REMARK>
 VINA RESULT:      -7.3      2.958     10.169
  Name = 
  17 active torsions:
  status: ('A' for Active; 'I' for Inactive)
    1  A    between atoms: N_1  and  C_16
    2  A    between atoms: C_2  and  C_23
    3  A    between atoms: C_4  and  C_18
    4  A    between atoms: C_4  and  C_42
    5  A    between atoms: C_6  and  N_9
    6  A    between atoms: C_6  and  N_32
    7  A    between atoms: C_7  and  C_38
    8  A    between atoms: C_13  and  C_30
    9  A    between atoms: C_13  and  N_39
   10  A    between atoms: C_16  and  C_34
   11  A    between atoms: C_25  and  C_47
   12  A    between atoms: C_28  and  C_46
   13  A    between atoms: N_31  and  C_42
   14  A    between atoms: N_32  and  C_37
   15  A    between atoms: C_34  and  N_45
   16  A    between atoms: C_38  and  N_45
   17  A    between atoms: N_39  and  C_40
                            x       y       z     vdW  Elec       q    Type
                         _______ _______ _______ _____ _____    ______ ____

>  <TORSDO>
F 17

$$$$
=
 OpenBabel10232412163D

 48 51  0  0  1  0  0  0  0  0999 V2000
  187.4630  178.4220  140.8330 S   0  0  0  0  0  0  0  0  0  0  0  0
  187.2500  177.6730  139.1860 C   0  0  1  0  0  3  0  0  0  0  0  0
  185.7290  178.8570  140.7880 C   0  0  0  0  0  0  0  0  0  0  0  0
  186.1070  178.3990  138.4980 C   0  0  0  0  0  2  0  0  0  0  0  0
  185.1740  178.8200  139.5790 C   0  0  0  0  0  0  0  0  0  0  0  0
  182.8140  178.0880  139.1290 N   0  0  0  0  0  2  0  0  0  0  0  0
  181.4010  178.2590  138.9660 C   0  0  0  0  0  0  0  0  0  0  0  0
  180.8690  179.3990  139.0810 O   0  0  0  0  0  0  0  0  0  0  0  0
  183.7640  179.1500  139.2780 C   0  0  0  0  0  0  0  0  0  0  0  0
  183.4010  180.3490  139.1360 O   0  0  0  0  0  0  0  0  0  0  0  0
  180.5460  177.0870  138.6350 C   0  0  0  0  0  2  0  0  0  0  0  0
  181.0570  175.8380  139.3330 C   0  0  0  0  0  2  0  0  0  0  0  0
  181.4880  172.4490  136.8710 N   0  0  0  0  0  0  0  0  0  0  0  0
  180.4280  172.4530  137.8810 C   0  0  0  0  0  2  0  0  0  0  0  0
  182.3430  174.5730  137.5940 C   0  0  0  0  0  2  0  0  0  0  0  0
  181.1540  174.7390  138.3820 N   0  0  0  0  0  0  0  0  0  0  0  0
  182.4920  173.4780  136.8450 C   0  0  0  0  0  3  0  0  0  0  0  0
  179.9820  173.8900  138.1440 C   0  0  0  0  0  2  0  0  0  0  0  0
  184.9870  179.1490  141.9800 N   0  0  0  0  0  2  0  0  0  0  0  0
  184.8860  178.2170  143.0920 C   0  0  0  0  0  2  0  0  0  0  0  0
  186.9110  178.1590  145.1930 N   0  0  0  0  0  2  0  0  0  0  0  0
  184.7260  178.9550  144.3360 N   0  0  0  0  0  2  0  0  0  0  0  0
  185.4840  179.5100  146.4550 O   0  0  0  0  0  0  0  0  0  0  0  0
  185.7010  178.9010  145.3750 C   0  0  0  0  0  0  0  0  0  0  0  0
  187.3230  177.4330  147.4760 C   0  0  0  0  0  1  0  0  0  0  0  0
  187.9290  178.0500  146.2260 C   0  0  1  0  0  3  0  0  0  0  0  0
  189.0650  177.1800  145.7210 C   0  0  0  0  0  2  0  0  0  0  0  0
  190.0940  178.0090  145.1090 N   0  0  0  0  0  2  0  0  0  0  0  0
  190.1860  177.6200  143.7080 C   0  0  0  0  0  2  0  0  0  0  0  0
  190.8150  176.2740  143.5880 C   0  0  0  0  0  0  0  0  0  0  0  0
  190.2380  175.3080  142.7690 O   0  0  0  0  0  0  0  0  0  0  0  0
  191.8780  176.0170  144.2110 O   0  0  0  0  0  1  0  0  0  0  0  0
  188.5190  177.7940  138.3640 C   0  0  0  0  0  2  0  0  0  0  0  0
  189.3670  176.6340  138.6020 N   0  0  0  0  0  2  0  0  0  0  0  0
  193.4630  177.0120  139.4170 N   0  0  0  0  0  0  0  0  0  0  0  0
  192.5610  177.4890  140.3120 C   0  0  0  0  0  3  0  0  0  0  0  0
  191.7130  176.1670  138.0010 C   0  0  0  0  0  0  0  0  0  0  0  0
  193.0950  176.3860  138.2650 C   0  0  0  0  0  0  0  0  0  0  0  0
  190.7670  176.7190  138.8950 C   0  0  0  0  0  0  0  0  0  0  0  0
  191.2000  177.3650  140.0580 C   0  0  0  0  0  3  0  0  0  0  0  0
  191.2410  175.4050  136.7800 C   0  0  2  0  0  3  0  0  0  0  0  0
  189.4580  173.8800  136.0010 C   0  0  0  0  0  1  0  0  0  0  0  0
  190.3590  174.2220  137.1700 C   0  0  1  0  0  3  0  0  0  0  0  0
  191.7940  173.9880  136.7790 C   0  0  0  0  0  2  0  0  0  0  0  0
  195.0330  174.8950  137.6000 N   0  0  0  0  0  2  0  0  0  0  0  0
  196.0690  174.4700  136.6720 C   0  0  0  0  0  1  0  0  0  0  0  0
  194.2910  176.6310  136.2390 O   0  0  0  0  0  0  0  0  0  0  0  0
  194.1750  176.0060  137.3270 C   0  0  0  0  0  0  0  0  0  0  0  0
  2 33  1  6  0  0  0
  2  1  1  0  0  0  0
  3  1  1  0  0  0  0
  3 19  1  0  0  0  0
  4  2  1  0  0  0  0
  4  5  1  0  0  0  0
  5  3  2  0  0  0  0
  6  9  1  0  0  0  0
  7  8  2  0  0  0  0
  7  6  1  0  0  0  0
  9  5  1  0  0  0  0
 10  9  2  0  0  0  0
 11  7  1  0  0  0  0
 11 12  1  0  0  0  0
 13 14  1  0  0  0  0
 14 18  1  0  0  0  0
 15 16  1  0  0  0  0
 16 12  1  0  0  0  0
 17 13  2  0  0  0  0
 17 15  1  0  0  0  0
 18 16  1  0  0  0  0
 19 20  1  0  0  0  0
 20 22  1  0  0  0  0
 21 24  1  0  0  0  0
 21 26  1  0  0  0  0
 22 24  1  0  0  0  0
 24 23  2  0  0  0  0
 26 25  1  1  0  0  0
 27 26  1  0  0  0  0
 28 27  1  0  0  0  0
 29 28  1  0  0  0  0
 30 29  1  0  0  0  0
 30 32  1  0  0  0  0
 31 30  2  0  0  0  0
 33 34  1  0  0  0  0
 34 39  1  0  0  0  0
 35 36  1  0  0  0  0
 37 38  1  0  0  0  0
 37 39  2  0  0  0  0
 38 35  2  0  0  0  0
 39 40  1  0  0  0  0
 40 36  2  0  0  0  0
 41 43  1  0  0  0  0
 41 37  1  1  0  0  0
 43 42  1  6  0  0  0
 44 41  1  0  0  0  0
 44 43  1  0  0  0  0
 46 45  1  0  0  0  0
 47 48  2  0  0  0  0
 48 45  1  0  0  0  0
 48 38  1  0  0  0  0
M  END
>  <MODEL>
5

>  <REMARK>
 VINA RESULT:      -7.2      1.987      6.717
  Name = 
  17 active torsions:
  status: ('A' for Active; 'I' for Inactive)
    1  A    between atoms: N_1  and  C_16
    2  A    between atoms: C_2  and  C_23
    3  A    between atoms: C_4  and  C_18
    4  A    between atoms: C_4  and  C_42
    5  A    between atoms: C_6  and  N_9
    6  A    between atoms: C_6  and  N_32
    7  A    between atoms: C_7  and  C_38
    8  A    between atoms: C_13  and  C_30
    9  A    between atoms: C_13  and  N_39
   10  A    between atoms: C_16  and  C_34
   11  A    between atoms: C_25  and  C_47
   12  A    between atoms: C_28  and  C_46
   13  A    between atoms: N_31  and  C_42
   14  A    between atoms: N_32  and  C_37
   15  A    between atoms: C_34  and  N_45
   16  A    between atoms: C_38  and  N_45
   17  A    between atoms: N_39  and  C_40
                            x       y       z     vdW  Elec       q    Type
                         _______ _______ _______ _____ _____    ______ ____

>  <TORSDO>
F 17

$$$$
=
 OpenBabel10232412163D

 48 51  0  0  1  0  0  0  0  0999 V2000
  185.2970  178.9350  141.0700 S   0  0  0  0  0  0  0  0  0  0  0  0
  183.7280  178.9500  141.9970 C   0  0  1  0  0  3  0  0  0  0  0  0
  184.3580  178.5050  139.6110 C   0  0  0  0  0  0  0  0  0  0  0  0
  182.7760  177.9960  141.2950 C   0  0  0  0  0  2  0  0  0  0  0  0
  183.1320  178.0430  139.8510 C   0  0  0  0  0  0  0  0  0  0  0  0
  182.3730  176.3540  138.1540 N   0  0  0  0  0  2  0  0  0  0  0  0
  181.4610  175.7470  137.2310 C   0  0  0  0  0  0  0  0  0  0  0  0
  180.3130  176.2360  137.0400 O   0  0  0  0  0  0  0  0  0  0  0  0
  182.1680  177.6070  138.8170 C   0  0  0  0  0  0  0  0  0  0  0  0
  181.1860  178.3330  138.5080 O   0  0  0  0  0  0  0  0  0  0  0  0
  181.8740  174.5370  136.4680 C   0  0  0  0  0  2  0  0  0  0  0  0
  181.4440  173.2740  137.1950 C   0  0  0  0  0  2  0  0  0  0  0  0
  182.6040  169.6630  135.3650 N   0  0  0  0  0  0  0  0  0  0  0  0
  181.2010  170.0740  135.2810 C   0  0  0  0  0  2  0  0  0  0  0  0
  183.1830  171.5200  136.7720 C   0  0  0  0  0  2  0  0  0  0  0  0
  181.9040  172.0990  136.4680 N   0  0  0  0  0  0  0  0  0  0  0  0
  183.5300  170.3560  136.2200 C   0  0  0  0  0  3  0  0  0  0  0  0
  181.1140  171.5980  135.3380 C   0  0  0  0  0  2  0  0  0  0  0  0
  184.8680  178.7150  138.2880 N   0  0  0  0  0  2  0  0  0  0  0  0
  185.9830  177.9540  137.7450 C   0  0  0  0  0  2  0  0  0  0  0  0
  188.7740  177.1280  137.9450 N   0  0  0  0  0  2  0  0  0  0  0  0
  187.0770  178.8560  137.4190 N   0  0  0  0  0  2  0  0  0  0  0  0
  189.3500  179.3000  137.3100 O   0  0  0  0  0  0  0  0  0  0  0  0
  188.4420  178.4620  137.5470 C   0  0  0  0  0  0  0  0  0  0  0  0
  190.5290  176.7460  139.5830 C   0  0  0  0  0  1  0  0  0  0  0  0
  190.1470  176.6780  138.1140 C   0  0  1  0  0  3  0  0  0  0  0  0
  190.2720  175.2500  137.6150 C   0  0  0  0  0  2  0  0  0  0  0  0
  189.2880  174.9980  136.5710 N   0  0  0  0  0  2  0  0  0  0  0  0
  188.9070  173.5960  136.6670 C   0  0  0  0  0  2  0  0  0  0  0  0
  187.4410  173.4770  136.9110 C   0  0  0  0  0  0  0  0  0  0  0  0
  186.7950  172.2660  136.6790 O   0  0  0  0  0  0  0  0  0  0  0  0
  186.7920  174.4630  137.3450 O   0  0  0  0  0  1  0  0  0  0  0  0
  183.9410  178.5160  143.4340 C   0  0  0  0  0  2  0  0  0  0  0  0
  185.3500  178.2280  143.6540 N   0  0  0  0  0  2  0  0  0  0  0  0
  187.2460  178.4570  147.3880 N   0  0  0  0  0  0  0  0  0  0  0  0
  186.1010  179.1550  147.1800 C   0  0  0  0  0  3  0  0  0  0  0  0
  187.1350  177.4900  145.1890 C   0  0  0  0  0  0  0  0  0  0  0  0
  187.8010  177.6550  146.4360 C   0  0  0  0  0  0  0  0  0  0  0  0
  185.9790  178.2650  144.9410 C   0  0  0  0  0  0  0  0  0  0  0  0
  185.4580  179.0840  145.9500 C   0  0  0  0  0  3  0  0  0  0  0  0
  187.6550  176.5500  144.1210 C   0  0  2  0  0  3  0  0  0  0  0  0
  189.7330  175.8620  142.9720 C   0  0  0  0  0  1  0  0  0  0  0  0
  188.9760  177.0440  143.5410 C   0  0  1  0  0  3  0  0  0  0  0  0
  187.7000  177.2400  142.7670 C   0  0  0  0  0  2  0  0  0  0  0  0
  190.3080  177.4700  146.1150 N   0  0  0  0  0  2  0  0  0  0  0  0
  191.6080  176.9090  146.4450 C   0  0  0  0  0  1  0  0  0  0  0  0
  189.1610  176.1490  147.6510 O   0  0  0  0  0  0  0  0  0  0  0  0
  189.1050  177.0320  146.7540 C   0  0  0  0  0  0  0  0  0  0  0  0
  1  2  1  0  0  0  0
  2 33  1  1  0  0  0
  3  5  2  0  0  0  0
  3  1  1  0  0  0  0
  4  2  1  0  0  0  0
  5  4  1  0  0  0  0
  6  9  1  0  0  0  0
  7  6  1  0  0  0  0
  8  7  2  0  0  0  0
  9  5  1  0  0  0  0
 10  9  2  0  0  0  0
 11 12  1  0  0  0  0
 11  7  1  0  0  0  0
 13 17  2  0  0  0  0
 14 18  1  0  0  0  0
 14 13  1  0  0  0  0
 16 15  1  0  0  0  0
 16 12  1  0  0  0  0
 17 15  1  0  0  0  0
 18 16  1  0  0  0  0
 19  3  1  0  0  0  0
 20 19  1  0  0  0  0
 21 26  1  0  0  0  0
 22 24  1  0  0  0  0
 22 20  1  0  0  0  0
 23 24  2  0  0  0  0
 24 21  1  0  0  0  0
 26 25  1  1  0  0  0
 27 26  1  0  0  0  0
 28 29  1  0  0  0  0
 28 27  1  0  0  0  0
 29 30  1  0  0  0  0
 30 32  1  0  0  0  0
 31 30  2  0  0  0  0
 33 34  1  0  0  0  0
 34 39  1  0  0  0  0
 36 35  1  0  0  0  0
 37 38  1  0  0  0  0
 38 48  1  0  0  0  0
 38 35  2  0  0  0  0
 39 37  2  0  0  0  0
 39 40  1  0  0  0  0
 40 36  2  0  0  0  0
 41 37  1  1  0  0  0
 43 42  1  6  0  0  0
 43 41  1  0  0  0  0
 44 43  1  0  0  0  0
 44 41  1  0  0  0  0
 45 46  1  0  0  0  0
 45 48  1  0  0  0  0
 48 47  2  0  0  0  0
M  END
>  <MODEL>
6

>  <REMARK>
 VINA RESULT:      -7.1      2.004      2.580
  Name = 
  17 active torsions:
  status: ('A' for Active; 'I' for Inactive)
    1  A    between atoms: N_1  and  C_16
    2  A    between atoms: C_2  and  C_23
    3  A    between atoms: C_4  and  C_18
    4  A    between atoms: C_4  and  C_42
    5  A    between atoms: C_6  and  N_9
    6  A    between atoms: C_6  and  N_32
    7  A    between atoms: C_7  and  C_38
    8  A    between atoms: C_13  and  C_30
    9  A    between atoms: C_13  and  N_39
   10  A    between atoms: C_16  and  C_34
   11  A    between atoms: C_25  and  C_47
   12  A    between atoms: C_28  and  C_46
   13  A    between atoms: N_31  and  C_42
   14  A    between atoms: N_32  and  C_37
   15  A    between atoms: C_34  and  N_45
   16  A    between atoms: C_38  and  N_45
   17  A    between atoms: N_39  and  C_40
                            x       y       z     vdW  Elec       q    Type
                         _______ _______ _______ _____ _____    ______ ____

>  <TORSDO>
F 17

$$$$
=
 OpenBabel10232412163D

 48 51  0  0  1  0  0  0  0  0999 V2000
  189.8080  176.9440  136.6840 S   0  0  0  0  0  0  0  0  0  0  0  0
  191.5100  176.3730  136.9920 C   0  0  1  0  0  3  0  0  0  0  0  0
  189.7330  177.4450  138.3980 C   0  0  0  0  0  0  0  0  0  0  0  0
  191.6080  176.0030  138.4620 C   0  0  0  0  0  2  0  0  0  0  0  0
  190.6660  176.9050  139.1800 C   0  0  0  0  0  0  0  0  0  0  0  0
  189.7190  176.8160  141.5050 N   0  0  0  0  0  2  0  0  0  0  0  0
  189.7590  176.8760  142.9360 C   0  0  0  0  0  0  0  0  0  0  0  0
  190.8410  177.1060  143.5440 O   0  0  0  0  0  0  0  0  0  0  0  0
  190.8060  177.1480  140.6320 C   0  0  0  0  0  0  0  0  0  0  0  0
  191.8610  177.6550  141.0990 O   0  0  0  0  0  0  0  0  0  0  0  0
  188.5090  176.6870  143.7200 C   0  0  0  0  0  2  0  0  0  0  0  0
  188.6170  177.3710  145.0720 C   0  0  0  0  0  2  0  0  0  0  0  0
  184.8820  178.8090  146.3800 N   0  0  0  0  0  0  0  0  0  0  0  0
  185.1610  178.7860  144.9440 C   0  0  0  0  0  2  0  0  0  0  0  0
  187.0910  178.0540  146.9390 C   0  0  0  0  0  2  0  0  0  0  0  0
  187.2920  177.7420  145.5510 N   0  0  0  0  0  0  0  0  0  0  0  0
  185.9180  178.5460  147.3420 C   0  0  0  0  0  3  0  0  0  0  0  0
  186.1500  177.6620  144.6360 C   0  0  0  0  0  2  0  0  0  0  0  0
  188.7830  178.4100  138.8690 N   0  0  0  0  0  2  0  0  0  0  0  0
  187.3700  178.1040  139.0400 C   0  0  0  0  0  2  0  0  0  0  0  0
  184.5170  178.4350  139.5590 N   0  0  0  0  0  2  0  0  0  0  0  0
  186.8770  178.7400  140.2530 N   0  0  0  0  0  2  0  0  0  0  0  0
  185.1140  179.5390  141.5280 O   0  0  0  0  0  0  0  0  0  0  0  0
  185.4840  178.9290  140.4910 C   0  0  0  0  0  0  0  0  0  0  0  0
  182.4970  179.2760  138.5010 C   0  0  0  0  0  1  0  0  0  0  0  0
  183.0860  178.6210  139.7380 C   0  0  1  0  0  3  0  0  0  0  0  0
  182.4310  177.2710  139.9690 C   0  0  0  0  0  2  0  0  0  0  0  0
  183.1330  176.2400  139.2180 N   0  0  0  0  0  2  0  0  0  0  0  0
  182.1500  175.5750  138.3730 C   0  0  0  0  0  2  0  0  0  0  0  0
  182.8340  174.7870  137.3090 C   0  0  0  0  0  0  0  0  0  0  0  0
  183.8900  173.9430  137.6400 O   0  0  0  0  0  1  0  0  0  0  0  0
  182.4450  174.8700  136.1150 O   0  0  0  0  0  0  0  0  0  0  0  0
  191.8490  175.1760  136.1250 C   0  0  0  0  0  2  0  0  0  0  0  0
  193.2630  175.2060  135.7810 N   0  0  0  0  0  2  0  0  0  0  0  0
  195.8830  172.0680  136.7130 N   0  0  0  0  0  0  0  0  0  0  0  0
  194.5660  171.8000  136.5240 C   0  0  0  0  0  3  0  0  0  0  0  0
  195.5550  174.3910  136.1890 C   0  0  0  0  0  0  0  0  0  0  0  0
  196.4040  173.3200  136.5880 C   0  0  0  0  0  0  0  0  0  0  0  0
  194.1710  174.1330  136.0550 C   0  0  0  0  0  0  0  0  0  0  0  0
  193.6870  172.8290  136.2070 C   0  0  0  0  0  3  0  0  0  0  0  0
  196.0870  175.7890  135.9510 C   0  0  2  0  0  3  0  0  0  0  0  0
  195.8330  177.7460  134.4610 C   0  0  0  0  0  1  0  0  0  0  0  0
  195.8610  176.2320  134.5080 C   0  0  1  0  0  3  0  0  0  0  0  0
  197.2260  175.7720  134.9450 C   0  0  0  0  0  2  0  0  0  0  0  0
  198.2360  174.2010  138.0990 N   0  0  0  0  0  2  0  0  0  0  0  0
  199.6330  174.3440  138.4770 C   0  0  0  0  0  1  0  0  0  0  0  0
  198.7070  172.9500  136.1930 O   0  0  0  0  0  0  0  0  0  0  0  0
  197.8350  173.4950  136.9220 C   0  0  0  0  0  0  0  0  0  0  0  0
  1  2  1  0  0  0  0
  1  3  1  0  0  0  0
  2 33  1  6  0  0  0
  2  4  1  0  0  0  0
  3 19  1  0  0  0  0
  3  5  2  0  0  0  0
  4  5  1  0  0  0  0
  5  9  1  0  0  0  0
  6  7  1  0  0  0  0
  7  8  2  0  0  0  0
  7 11  1  0  0  0  0
  9 10  2  0  0  0  0
  9  6  1  0  0  0  0
 11 12  1  0  0  0  0
 12 16  1  0  0  0  0
 13 17  2  0  0  0  0
 14 13  1  0  0  0  0
 15 17  1  0  0  0  0
 16 15  1  0  0  0  0
 18 14  1  0  0  0  0
 18 16  1  0  0  0  0
 19 20  1  0  0  0  0
 20 22  1  0  0  0  0
 21 26  1  0  0  0  0
 21 24  1  0  0  0  0
 22 24  1  0  0  0  0
 24 23  2  0  0  0  0
 26 25  1  6  0  0  0
 26 27  1  0  0  0  0
 28 27  1  0  0  0  0
 29 28  1  0  0  0  0
 30 31  1  0  0  0  0
 30 29  1  0  0  0  0
 32 30  2  0  0  0  0
 34 39  1  0  0  0  0
 34 33  1  0  0  0  0
 36 35  2  0  0  0  0
 37 38  2  0  0  0  0
 38 35  1  0  0  0  0
 38 48  1  0  0  0  0
 39 37  1  0  0  0  0
 39 40  2  0  0  0  0
 40 36  1  0  0  0  0
 41 37  1  6  0  0  0
 43 42  1  1  0  0  0
 43 44  1  0  0  0  0
 43 41  1  0  0  0  0
 44 41  1  0  0  0  0
 45 46  1  0  0  0  0
 47 48  2  0  0  0  0
 48 45  1  0  0  0  0
M  END
>  <MODEL>
7

>  <REMARK>
 VINA RESULT:      -6.9      3.071     10.167
  Name = 
  17 active torsions:
  status: ('A' for Active; 'I' for Inactive)
    1  A    between atoms: N_1  and  C_16
    2  A    between atoms: C_2  and  C_23
    3  A    between atoms: C_4  and  C_18
    4  A    between atoms: C_4  and  C_42
    5  A    between atoms: C_6  and  N_9
    6  A    between atoms: C_6  and  N_32
    7  A    between atoms: C_7  and  C_38
    8  A    between atoms: C_13  and  C_30
    9  A    between atoms: C_13  and  N_39
   10  A    between atoms: C_16  and  C_34
   11  A    between atoms: C_25  and  C_47
   12  A    between atoms: C_28  and  C_46
   13  A    between atoms: N_31  and  C_42
   14  A    between atoms: N_32  and  C_37
   15  A    between atoms: C_34  and  N_45
   16  A    between atoms: C_38  and  N_45
   17  A    between atoms: N_39  and  C_40
                            x       y       z     vdW  Elec       q    Type
                         _______ _______ _______ _____ _____    ______ ____

>  <TORSDO>
F 17

$$$$
=
 OpenBabel10232412163D

 48 51  0  0  1  0  0  0  0  0999 V2000
  189.1000  176.1540  136.7520 S   0  0  0  0  0  0  0  0  0  0  0  0
  187.8860  177.0600  137.7640 C   0  0  1  0  0  3  0  0  0  0  0  0
  190.1750  176.1250  138.1800 C   0  0  0  0  0  0  0  0  0  0  0  0
  188.6580  177.8210  138.8290 C   0  0  0  0  0  2  0  0  0  0  0  0
  189.8620  177.0010  139.1330 C   0  0  0  0  0  0  0  0  0  0  0  0
  189.9690  176.8310  141.6370 N   0  0  0  0  0  2  0  0  0  0  0  0
  190.6050  176.8300  142.9210 C   0  0  0  0  0  0  0  0  0  0  0  0
  191.8490  177.0180  143.0280 O   0  0  0  0  0  0  0  0  0  0  0  0
  190.6030  177.1810  140.4000 C   0  0  0  0  0  0  0  0  0  0  0  0
  191.7720  177.6520  140.3990 O   0  0  0  0  0  0  0  0  0  0  0  0
  189.7900  176.6290  144.1500 C   0  0  0  0  0  2  0  0  0  0  0  0
  188.3410  177.0130  143.9010 C   0  0  0  0  0  2  0  0  0  0  0  0
  186.6100  178.4830  147.4470 N   0  0  0  0  0  2  0  0  0  0  0  0
  187.8760  177.7530  147.5330 C   0  0  0  0  0  2  0  0  0  0  0  0
  186.4180  178.0990  145.0850 C   0  0  0  0  0  3  0  0  0  0  0  0
  187.7800  177.6440  145.0880 N   0  0  0  0  0  0  0  0  0  0  0  0
  185.8620  178.5280  146.2190 C   0  0  0  0  0  3  0  0  0  0  0  0
  188.6540  177.9270  146.2310 C   0  0  0  0  0  2  0  0  0  0  0  0
  191.2420  175.1770  138.3090 N   0  0  0  0  0  2  0  0  0  0  0  0
  192.5860  175.4320  137.8110 C   0  0  0  0  0  2  0  0  0  0  0  0
  194.5770  176.0650  135.7730 N   0  0  0  0  0  2  0  0  0  0  0  0
  192.8820  174.5210  136.7160 N   0  0  0  0  0  2  0  0  0  0  0  0
  194.0070  174.0470  134.7450 O   0  0  0  0  0  0  0  0  0  0  0  0
  193.8320  174.8450  135.7030 C   0  0  0  0  0  0  0  0  0  0  0  0
  195.8100  177.9480  134.8570 C   0  0  0  0  0  1  0  0  0  0  0  0
  195.5410  176.4570  134.7570 C   0  0  1  0  0  3  0  0  0  0  0  0
  196.8310  175.6850  134.9660 C   0  0  0  0  0  2  0  0  0  0  0  0
  197.4570  176.0880  136.2170 N   0  0  0  0  0  2  0  0  0  0  0  0
  197.9630  174.8810  136.8560 C   0  0  0  0  0  2  0  0  0  0  0  0
  196.8650  174.1850  137.5870 C   0  0  0  0  0  0  0  0  0  0  0  0
  196.1830  174.8440  138.6050 O   0  0  0  0  0  1  0  0  0  0  0  0
  196.5420  173.0110  137.2700 O   0  0  0  0  0  0  0  0  0  0  0  0
  187.0770  178.0220  136.9150 C   0  0  0  0  0  2  0  0  0  0  0  0
  185.6770  177.6250  136.9280 N   0  0  0  0  0  2  0  0  0  0  0  0
  183.0390  178.6430  140.0240 N   0  0  0  0  0  0  0  0  0  0  0  0
  184.2490  179.2540  139.9540 C   0  0  0  0  0  3  0  0  0  0  0  0
  183.4650  177.4180  137.9990 C   0  0  0  0  0  0  0  0  0  0  0  0
  182.6270  177.7220  139.1090 C   0  0  0  0  0  0  0  0  0  0  0  0
  184.7530  178.0000  137.9560 C   0  0  0  0  0  0  0  0  0  0  0  0
  185.1310  178.9320  138.9290 C   0  0  0  0  0  3  0  0  0  0  0  0
  183.0310  176.4660  136.9040 C   0  0  2  0  0  3  0  0  0  0  0  0
  182.2690  174.1450  136.5260 C   0  0  0  0  0  1  0  0  0  0  0  0
  183.2210  175.0120  137.3240 C   0  0  1  0  0  3  0  0  0  0  0  0
  184.2110  175.6560  136.3910 C   0  0  0  0  0  2  0  0  0  0  0  0
  181.2670  175.7810  140.0070 N   0  0  0  0  0  2  0  0  0  0  0  0
  180.0040  175.1270  140.3080 C   0  0  0  0  0  1  0  0  0  0  0  0
  180.2630  177.6530  139.0550 O   0  0  0  0  0  0  0  0  0  0  0  0
  181.3290  177.0550  139.3580 C   0  0  0  0  0  0  0  0  0  0  0  0
  1  2  1  0  0  0  0
  1  3  1  0  0  0  0
  2 33  1  6  0  0  0
  2  4  1  0  0  0  0
  3 19  1  0  0  0  0
  3  5  2  0  0  0  0
  4  5  1  0  0  0  0
  5  9  1  0  0  0  0
  6  7  1  0  0  0  0
  7  8  2  0  0  0  0
  7 11  1  0  0  0  0
  9  6  1  0  0  0  0
 10  9  2  0  0  0  0
 12 11  1  0  0  0  0
 12 16  1  0  0  0  0
 13 14  1  0  0  0  0
 15 16  1  0  0  0  0
 15 17  2  0  0  0  0
 16 18  1  0  0  0  0
 17 13  1  0  0  0  0
 18 14  1  0  0  0  0
 20 19  1  0  0  0  0
 22 20  1  0  0  0  0
 23 24  2  0  0  0  0
 24 21  1  0  0  0  0
 24 22  1  0  0  0  0
 26 25  1  1  0  0  0
 26 27  1  0  0  0  0
 26 21  1  0  0  0  0
 27 28  1  0  0  0  0
 28 29  1  0  0  0  0
 29 30  1  0  0  0  0
 30 31  1  0  0  0  0
 32 30  2  0  0  0  0
 33 34  1  0  0  0  0
 34 39  1  0  0  0  0
 36 35  1  0  0  0  0
 37 38  1  0  0  0  0
 38 48  1  0  0  0  0
 38 35  2  0  0  0  0
 39 37  2  0  0  0  0
 39 40  1  0  0  0  0
 40 36  2  0  0  0  0
 41 43  1  0  0  0  0
 41 37  1  1  0  0  0
 43 42  1  6  0  0  0
 44 41  1  0  0  0  0
 44 43  1  0  0  0  0
 45 46  1  0  0  0  0
 47 48  2  0  0  0  0
 48 45  1  0  0  0  0
M  END
>  <MODEL>
8

>  <REMARK>
 VINA RESULT:      -6.9      2.535      8.984
  Name = 
  17 active torsions:
  status: ('A' for Active; 'I' for Inactive)
    1  A    between atoms: N_1  and  C_16
    2  A    between atoms: C_2  and  C_23
    3  A    between atoms: C_4  and  C_18
    4  A    between atoms: C_4  and  C_42
    5  A    between atoms: C_6  and  N_9
    6  A    between atoms: C_6  and  N_32
    7  A    between atoms: C_7  and  C_38
    8  A    between atoms: C_13  and  C_30
    9  A    between atoms: C_13  and  N_39
   10  A    between atoms: C_16  and  C_34
   11  A    between atoms: C_25  and  C_47
   12  A    between atoms: C_28  and  C_46
   13  A    between atoms: N_31  and  C_42
   14  A    between atoms: N_32  and  C_37
   15  A    between atoms: C_34  and  N_45
   16  A    between atoms: C_38  and  N_45
   17  A    between atoms: N_39  and  C_40
                            x       y       z     vdW  Elec       q    Type
                         _______ _______ _______ _____ _____    ______ ____

>  <TORSDO>
F 17

$$$$
=
 OpenBabel10232412163D

 48 51  0  0  1  0  0  0  0  0999 V2000
  190.1700  176.1010  136.1180 S   0  0  0  0  0  0  0  0  0  0  0  0
  191.7960  175.4270  136.5870 C   0  0  1  0  0  3  0  0  0  0  0  0
  190.1780  177.0200  137.6510 C   0  0  0  0  0  0  0  0  0  0  0  0
  191.8680  175.4280  138.1050 C   0  0  0  0  0  2  0  0  0  0  0  0
  191.0510  176.5860  138.5590 C   0  0  0  0  0  0  0  0  0  0  0  0
  190.1340  177.1840  140.8190 N   0  0  0  0  0  2  0  0  0  0  0  0
  190.2020  177.5930  142.1910 C   0  0  0  0  0  0  0  0  0  0  0  0
  191.3120  177.8470  142.7360 O   0  0  0  0  0  0  0  0  0  0  0  0
  191.2380  177.1660  139.9060 C   0  0  0  0  0  0  0  0  0  0  0  0
  192.3490  177.6540  140.2460 O   0  0  0  0  0  0  0  0  0  0  0  0
  188.9500  177.7450  142.9810 C   0  0  0  0  0  2  0  0  0  0  0  0
  188.8100  176.6130  143.9840 C   0  0  0  0  0  2  0  0  0  0  0  0
  188.9700  177.7650  148.0310 N   0  0  0  0  0  2  0  0  0  0  0  0
  190.0830  176.9930  147.4760 C   0  0  0  0  0  2  0  0  0  0  0  0
  187.7100  177.6290  145.9930 C   0  0  0  0  0  3  0  0  0  0  0  0
  188.8900  177.1360  145.3410 N   0  0  0  0  0  0  0  0  0  0  0  0
  187.7560  177.9570  147.2860 C   0  0  0  0  0  3  0  0  0  0  0  0
  190.2030  177.2760  145.9800 C   0  0  0  0  0  2  0  0  0  0  0  0
  189.3570  178.1780  137.8490 N   0  0  0  0  0  2  0  0  0  0  0  0
  187.9740  178.0950  138.2940 C   0  0  0  0  0  2  0  0  0  0  0  0
  185.0610  178.1530  138.4760 N   0  0  0  0  0  2  0  0  0  0  0  0
  187.1250  177.7020  137.1790 N   0  0  0  0  0  2  0  0  0  0  0  0
  185.0170  177.2940  136.3050 O   0  0  0  0  0  0  0  0  0  0  0  0
  185.7020  177.7010  137.2790 C   0  0  0  0  0  0  0  0  0  0  0  0
  183.1520  176.7660  139.0590 C   0  0  0  0  0  1  0  0  0  0  0  0
  183.6160  178.1510  138.6420 C   0  0  1  0  0  3  0  0  0  0  0  0
  183.2330  179.1650  139.7050 C   0  0  0  0  0  2  0  0  0  0  0  0
  184.1680  179.0990  140.8190 N   0  0  0  0  0  2  0  0  0  0  0  0
  183.4320  178.6050  141.9740 C   0  0  0  0  0  2  0  0  0  0  0  0
  184.2460  178.7670  143.2120 C   0  0  0  0  0  0  0  0  0  0  0  0
  185.4270  178.0460  143.3660 O   0  0  0  0  0  0  0  0  0  0  0  0
  183.8780  179.5690  144.1080 O   0  0  0  0  0  1  0  0  0  0  0  0
  191.9770  174.0200  136.0530 C   0  0  0  0  0  2  0  0  0  0  0  0
  193.1770  173.9600  135.2310 N   0  0  0  0  0  2  0  0  0  0  0  0
  196.4270  176.5990  135.4710 N   0  0  0  0  0  0  0  0  0  0  0  0
  195.3160  176.9730  134.7850 C   0  0  0  0  0  3  0  0  0  0  0  0
  195.4070  174.5210  136.1220 C   0  0  0  0  0  0  0  0  0  0  0  0
  196.5250  175.4020  136.1130 C   0  0  0  0  0  0  0  0  0  0  0  0
  194.2730  174.8740  135.3550 C   0  0  0  0  0  0  0  0  0  0  0  0
  194.2280  176.1110  134.7030 C   0  0  0  0  0  3  0  0  0  0  0  0
  195.4230  173.2130  136.8860 C   0  0  2  0  0  3  0  0  0  0  0  0
  196.8400  171.2400  137.3460 C   0  0  0  0  0  1  0  0  0  0  0  0
  196.4140  172.2260  136.2780 C   0  0  1  0  0  3  0  0  0  0  0  0
  194.9410  172.0680  136.0110 C   0  0  0  0  0  2  0  0  0  0  0  0
  198.9090  174.5560  135.9540 N   0  0  0  0  0  2  0  0  0  0  0  0
  200.2130  174.2720  136.5310 C   0  0  0  0  0  1  0  0  0  0  0  0
  198.0040  175.3210  137.9580 O   0  0  0  0  0  0  0  0  0  0  0  0
  197.8280  175.0740  136.7350 C   0  0  0  0  0  0  0  0  0  0  0  0
  1  2  1  0  0  0  0
  1  3  1  0  0  0  0
  2 33  1  1  0  0  0
  2  4  1  0  0  0  0
  3 19  1  0  0  0  0
  3  5  2  0  0  0  0
  4  5  1  0  0  0  0
  5  9  1  0  0  0  0
  6  7  1  0  0  0  0
  7  8  2  0  0  0  0
  7 11  1  0  0  0  0
  9 10  2  0  0  0  0
  9  6  1  0  0  0  0
 11 12  1  0  0  0  0
 12 16  1  0  0  0  0
 14 13  1  0  0  0  0
 15 17  2  0  0  0  0
 16 18  1  0  0  0  0
 16 15  1  0  0  0  0
 17 13  1  0  0  0  0
 18 14  1  0  0  0  0
 19 20  1  0  0  0  0
 21 26  1  0  0  0  0
 22 24  1  0  0  0  0
 22 20  1  0  0  0  0
 23 24  2  0  0  0  0
 24 21  1  0  0  0  0
 26 25  1  1  0  0  0
 26 27  1  0  0  0  0
 27 28  1  0  0  0  0
 28 29  1  0  0  0  0
 29 30  1  0  0  0  0
 30 31  2  0  0  0  0
 30 32  1  0  0  0  0
 34 39  1  0  0  0  0
 34 33  1  0  0  0  0
 35 38  1  0  0  0  0
 36 35  2  0  0  0  0
 38 37  2  0  0  0  0
 38 48  1  0  0  0  0
 39 37  1  0  0  0  0
 40 36  1  0  0  0  0
 40 39  2  0  0  0  0
 41 37  1  6  0  0  0
 43 41  1  0  0  0  0
 43 42  1  1  0  0  0
 44 43  1  0  0  0  0
 44 41  1  0  0  0  0
 45 46  1  0  0  0  0
 45 48  1  0  0  0  0
 48 47  2  0  0  0  0
M  END
>  <MODEL>
9

>  <REMARK>
 VINA RESULT:      -6.8      3.204     10.575
  Name = 
  17 active torsions:
  status: ('A' for Active; 'I' for Inactive)
    1  A    between atoms: N_1  and  C_16
    2  A    between atoms: C_2  and  C_23
    3  A    between atoms: C_4  and  C_18
    4  A    between atoms: C_4  and  C_42
    5  A    between atoms: C_6  and  N_9
    6  A    between atoms: C_6  and  N_32
    7  A    between atoms: C_7  and  C_38
    8  A    between atoms: C_13  and  C_30
    9  A    between atoms: C_13  and  N_39
   10  A    between atoms: C_16  and  C_34
   11  A    between atoms: C_25  and  C_47
   12  A    between atoms: C_28  and  C_46
   13  A    between atoms: N_31  and  C_42
   14  A    between atoms: N_32  and  C_37
   15  A    between atoms: C_34  and  N_45
   16  A    between atoms: C_38  and  N_45
   17  A    between atoms: N_39  and  C_40
                            x       y       z     vdW  Elec       q    Type
                         _______ _______ _______ _____ _____    ______ ____

>  <TORSDO>
F 17

$$$$
