=
 OpenBabel10232409353D

 33 36  0  0  1  0  0  0  0  0999 V2000
  189.8630  178.3920  143.7050 C   0  0  0  0  0  0  0  0  0  0  0  0
  184.4380  174.2790  136.5730 F   0  0  0  0  0  0  0  0  0  0  0  0
  188.2090  177.2430  142.6190 C   0  0  1  0  0  3  0  0  0  0  0  0
  190.4820  177.7610  141.3640 C   0  0  0  0  0  1  0  0  0  0  0  0
  182.4330  175.1300  136.0180 F   0  0  0  0  0  0  0  0  0  0  0  0
  188.2510  178.2290  137.5290 C   0  0  0  0  0  2  0  0  0  0  0  0
  187.1980  177.7880  141.6460 C   0  0  1  0  0  3  0  0  0  0  0  0
  191.3690  179.1980  144.0850 Cl  0  0  0  0  0  0  0  0  0  0  0  0
  182.9170  178.2290  139.0130 C   0  0  0  0  0  2  0  0  0  0  0  0
  188.2010  176.2840  135.9630 C   0  0  0  0  0  2  0  0  0  0  0  0
  184.9390  178.4070  141.1790 N   0  0  0  0  0  0  0  0  0  0  0  0
  183.1380  175.2510  138.7930 O   0  0  0  0  0  1  0  0  0  0  0  0
  185.2450  178.5520  139.8570 C   0  0  1  0  0  3  0  0  0  0  0  0
  183.7070  175.4490  136.4600 C   0  0  0  0  0  0  0  0  0  0  0  0
  189.5620  177.8620  142.5340 C   0  0  0  0  0  0  0  0  0  0  0  0
  182.7130  177.3620  137.7840 C   0  0  0  0  0  2  0  0  0  0  0  0
  187.8350  177.6750  144.0020 C   0  0  0  0  0  0  0  0  0  0  0  0
  183.6180  176.1380  137.8300 C   0  0  1  0  0  3  0  0  0  0  0  0
  184.3670  176.3560  135.4130 C   0  0  0  0  0  2  0  0  0  0  0  0
  187.4960  177.9190  140.3260 N   0  0  0  0  0  0  0  0  0  0  0  0
  188.7690  178.3220  144.6100 N   0  0  0  0  0  0  0  0  0  0  0  0
  184.2080  179.0310  138.8870 C   0  0  2  0  0  3  0  0  0  0  0  0
  185.7580  176.8600  135.8040 C   0  0  0  0  0  2  0  0  0  0  0  0
  186.4670  177.7620  144.4100 N   0  0  0  0  0  0  0  0  0  0  0  0
  189.9280  176.4470  137.7070 C   0  0  0  0  0  1  0  0  0  0  0  0
  186.9190  178.4970  138.0490 N   0  0  0  0  0  2  0  0  0  0  0  0
  186.5590  178.3110  139.4250 C   0  0  0  0  0  0  0  0  0  0  0  0
  185.5350  177.9070  143.5130 C   0  0  0  0  0  3  0  0  0  0  0  0
  188.4810  176.7350  137.3920 C   0  0  1  0  0  3  0  0  0  0  0  0
  186.7870  175.7380  135.7950 C   0  0  0  0  0  2  0  0  0  0  0  0
  185.8780  178.0240  142.0790 C   0  0  0  0  0  0  0  0  0  0  0  0
  183.9390  180.5170  139.0910 C   0  0  0  0  0  2  0  0  0  0  0  0
  182.5010  180.8470  138.7120 C   0  0  0  0  0  1  0  0  0  0  0  0
  1  8  1  0  0  0  0
  1 21  1  0  0  0  0
  3 15  1  6  0  0  0
  3 17  1  0  0  0  0
  4 15  1  0  0  0  0
  5 14  1  0  0  0  0
  6 26  1  0  0  0  0
  7 20  1  6  0  0  0
  7 31  1  0  0  0  0
  7  3  1  0  0  0  0
 10 29  1  0  0  0  0
 11 31  2  0  0  0  0
 13 27  1  1  0  0  0
 13 11  1  0  0  0  0
 14  2  1  0  0  0  0
 14 18  1  0  0  0  0
 15  1  2  0  0  0  0
 16 18  1  0  0  0  0
 16  9  1  0  0  0  0
 17 24  1  0  0  0  0
 17 21  2  0  0  0  0
 18 12  1  1  0  0  0
 19 23  1  0  0  0  0
 19 14  1  0  0  0  0
 22  9  1  0  0  0  0
 22 32  1  1  0  0  0
 22 13  1  0  0  0  0
 26 27  1  0  0  0  0
 27 20  2  0  0  0  0
 28 24  2  0  0  0  0
 29  6  1  0  0  0  0
 29 25  1  6  0  0  0
 30 23  1  0  0  0  0
 30 10  1  0  0  0  0
 31 28  1  0  0  0  0
 33 32  1  0  0  0  0
M  END
>  <MODEL>
1

>  <REMARK>
 VINA RESULT:      -6.6      0.000      0.000
  Name = 
  1 active torsions:
  status: ('A' for Active; 'I' for Inactive)
    1  A    between atoms: C_13  and  C_23
                            x       y       z     vdW  Elec       q    Type
                         _______ _______ _______ _____ _____    ______ ____

>  <TORSDO>
F 1

$$$$
=
 OpenBabel10232409353D

 33 36  0  0  1  0  0  0  0  0999 V2000
  183.4280  171.9780  135.3960 C   0  0  0  0  0  0  0  0  0  0  0  0
  186.9020  177.4970  142.7920 F   0  0  0  0  0  0  0  0  0  0  0  0
  184.7760  172.7900  137.0580 C   0  0  1  0  0  3  0  0  0  0  0  0
  182.2270  173.5010  136.9780 C   0  0  0  0  0  1  0  0  0  0  0  0
  188.6400  178.8850  142.4730 F   0  0  0  0  0  0  0  0  0  0  0  0
  183.3130  177.5410  138.5280 C   0  0  0  0  0  2  0  0  0  0  0  0
  185.4610  174.1300  137.1130 C   0  0  1  0  0  3  0  0  0  0  0  0
  182.0460  171.6420  134.3780 Cl  0  0  0  0  0  0  0  0  0  0  0  0
  188.8440  177.6740  138.3130 C   0  0  0  0  0  2  0  0  0  0  0  0
  183.0260  177.9700  140.9720 C   0  0  0  0  0  2  0  0  0  0  0  0
  187.4780  175.4010  136.9810 N   0  0  0  0  0  0  0  0  0  0  0  0
  188.7080  176.4120  141.0250 O   0  0  0  0  0  1  0  0  0  0  0  0
  186.8190  176.5060  137.4340 C   0  0  1  0  0  3  0  0  0  0  0  0
  187.5190  178.3290  141.8750 C   0  0  0  0  0  0  0  0  0  0  0  0
  183.4240  172.8000  136.4310 C   0  0  0  0  0  0  0  0  0  0  0  0
  188.7470  178.3610  139.6630 C   0  0  0  0  0  2  0  0  0  0  0  0
  185.4910  171.9200  136.0710 C   0  0  0  0  0  0  0  0  0  0  0  0
  187.9450  177.5160  140.6430 C   0  0  1  0  0  3  0  0  0  0  0  0
  186.5600  179.4660  141.4980 C   0  0  0  0  0  2  0  0  0  0  0  0
  184.8100  175.2290  137.5800 N   0  0  0  0  0  0  0  0  0  0  0  0
  184.7280  171.4660  135.1380 N   0  0  0  0  0  0  0  0  0  0  0  0
  187.5320  177.8200  137.5490 C   0  0  2  0  0  3  0  0  0  0  0  0
  185.3060  179.0090  140.7510 C   0  0  0  0  0  2  0  0  0  0  0  0
  186.9130  171.9720  135.9260 N   0  0  0  0  0  0  0  0  0  0  0  0
  181.8300  176.1230  139.8730 C   0  0  0  0  0  1  0  0  0  0  0  0
  184.7220  177.5740  138.1690 N   0  0  0  0  0  2  0  0  0  0  0  0
  185.4490  176.4180  137.7310 C   0  0  0  0  0  0  0  0  0  0  0  0
  187.5600  173.0400  136.2940 C   0  0  0  0  0  3  0  0  0  0  0  0
  183.1230  176.9000  139.8910 C   0  0  1  0  0  3  0  0  0  0  0  0
  184.3650  178.2250  141.6560 C   0  0  0  0  0  2  0  0  0  0  0  0
  186.8360  174.2170  136.8210 C   0  0  0  0  0  0  0  0  0  0  0  0
  187.7780  178.4100  136.1670 C   0  0  0  0  0  2  0  0  0  0  0  0
  189.1400  177.9720  135.6440 C   0  0  0  0  0  1  0  0  0  0  0  0
  1 15  2  0  0  0  0
  3 17  1  6  0  0  0
  3  7  1  0  0  0  0
  6 29  1  0  0  0  0
  7 31  1  1  0  0  0
  7 20  1  0  0  0  0
  8  1  1  0  0  0  0
  9 16  1  0  0  0  0
 10 30  1  0  0  0  0
 13 11  1  6  0  0  0
 13 22  1  0  0  0  0
 13 27  1  0  0  0  0
 14  5  1  0  0  0  0
 14  2  1  0  0  0  0
 15  4  1  0  0  0  0
 15  3  1  0  0  0  0
 16 18  1  0  0  0  0
 18 12  1  1  0  0  0
 18 14  1  0  0  0  0
 19 14  1  0  0  0  0
 20 27  2  0  0  0  0
 21  1  1  0  0  0  0
 21 17  2  0  0  0  0
 22 32  1  6  0  0  0
 22  9  1  0  0  0  0
 23 19  1  0  0  0  0
 23 30  1  0  0  0  0
 24 17  1  0  0  0  0
 24 28  2  0  0  0  0
 26  6  1  0  0  0  0
 27 26  1  0  0  0  0
 28 31  1  0  0  0  0
 29 25  1  6  0  0  0
 29 10  1  0  0  0  0
 31 11  2  0  0  0  0
 33 32  1  0  0  0  0
M  END
>  <MODEL>
2

>  <REMARK>
 VINA RESULT:      -5.7      4.456      7.825
  Name = 
  1 active torsions:
  status: ('A' for Active; 'I' for Inactive)
    1  A    between atoms: C_13  and  C_23
                            x       y       z     vdW  Elec       q    Type
                         _______ _______ _______ _____ _____    ______ ____

>  <TORSDO>
F 1

$$$$
=
 OpenBabel10232409353D

 33 36  0  0  1  0  0  0  0  0999 V2000
  185.6070  179.0600  146.1700 C   0  0  0  0  0  0  0  0  0  0  0  0
  185.7610  174.6350  137.3600 F   0  0  0  0  0  0  0  0  0  0  0  0
  184.9860  177.8330  144.3400 C   0  0  1  0  0  3  0  0  0  0  0  0
  187.5410  178.4130  144.7200 C   0  0  0  0  0  1  0  0  0  0  0  0
  184.5010  175.4030  135.6650 F   0  0  0  0  0  0  0  0  0  0  0  0
  188.1160  178.7370  140.3070 C   0  0  0  0  0  2  0  0  0  0  0  0
  184.7720  178.3250  142.9330 C   0  0  1  0  0  3  0  0  0  0  0  0
  186.5500  179.9260  147.3620 Cl  0  0  0  0  0  0  0  0  0  0  0  0
  182.9910  178.5660  138.2200 C   0  0  0  0  0  2  0  0  0  0  0  0
  189.0720  176.7660  139.1070 C   0  0  0  0  0  2  0  0  0  0  0  0
  183.2610  178.8530  141.1620 N   0  0  0  0  0  0  0  0  0  0  0  0
  183.3570  175.5950  138.2860 O   0  0  0  0  0  1  0  0  0  0  0  0
  184.3090  178.9880  140.2990 C   0  0  1  0  0  3  0  0  0  0  0  0
  185.2320  175.7750  136.7820 C   0  0  0  0  0  0  0  0  0  0  0  0
  186.0960  178.5000  145.0780 C   0  0  0  0  0  0  0  0  0  0  0  0
  183.5990  177.6720  137.1540 C   0  0  0  0  0  2  0  0  0  0  0  0
  183.8350  178.2730  145.1900 C   0  0  0  0  0  0  0  0  0  0  0  0
  184.3090  176.4830  137.7860 C   0  0  1  0  0  3  0  0  0  0  0  0
  186.3760  176.6890  136.3260 C   0  0  0  0  0  2  0  0  0  0  0  0
  185.8130  178.4450  142.0680 N   0  0  0  0  0  0  0  0  0  0  0  0
  184.1890  178.9640  146.2180 N   0  0  0  0  0  0  0  0  0  0  0  0
  184.0740  179.4130  138.8810 C   0  0  2  0  0  3  0  0  0  0  0  0
  187.2270  177.2500  137.4680 C   0  0  0  0  0  2  0  0  0  0  0  0
  182.5020  178.3180  144.6730 N   0  0  0  0  0  0  0  0  0  0  0  0
  189.3670  177.0210  141.5360 C   0  0  0  0  0  1  0  0  0  0  0  0
  186.7400  178.9650  139.8940 N   0  0  0  0  0  2  0  0  0  0  0  0
  185.6170  178.7880  140.7680 C   0  0  0  0  0  0  0  0  0  0  0  0
  182.3120  178.4130  143.3890 C   0  0  0  0  0  3  0  0  0  0  0  0
  188.4100  177.2500  140.3920 C   0  0  1  0  0  3  0  0  0  0  0  0
  188.0670  176.1660  138.1290 C   0  0  0  0  0  2  0  0  0  0  0  0
  183.4590  178.5190  142.4610 C   0  0  0  0  0  0  0  0  0  0  0  0
  183.7080  180.8910  138.8260 C   0  0  0  0  0  2  0  0  0  0  0  0
  182.2350  181.0530  138.4710 C   0  0  0  0  0  1  0  0  0  0  0  0
  1 21  1  0  0  0  0
  1  8  1  0  0  0  0
  3 15  1  1  0  0  0
  3 17  1  0  0  0  0
  4 15  1  0  0  0  0
  5 14  1  0  0  0  0
  6 29  1  0  0  0  0
  7 20  1  6  0  0  0
  7  3  1  0  0  0  0
  9 22  1  0  0  0  0
 10 29  1  0  0  0  0
 11 31  2  0  0  0  0
 13 27  1  1  0  0  0
 13 11  1  0  0  0  0
 14  2  1  0  0  0  0
 14 18  1  0  0  0  0
 15  1  2  0  0  0  0
 16 18  1  0  0  0  0
 16  9  1  0  0  0  0
 17 21  2  0  0  0  0
 18 12  1  6  0  0  0
 19 14  1  0  0  0  0
 19 23  1  0  0  0  0
 22 32  1  1  0  0  0
 22 13  1  0  0  0  0
 23 30  1  0  0  0  0
 24 17  1  0  0  0  0
 26  6  1  0  0  0  0
 26 27  1  0  0  0  0
 27 20  2  0  0  0  0
 28 24  2  0  0  0  0
 29 25  1  1  0  0  0
 30 10  1  0  0  0  0
 31  7  1  0  0  0  0
 31 28  1  0  0  0  0
 33 32  1  0  0  0  0
M  END
>  <MODEL>
3

>  <REMARK>
 VINA RESULT:      -5.7      1.998      2.942
  Name = 
  1 active torsions:
  status: ('A' for Active; 'I' for Inactive)
    1  A    between atoms: C_13  and  C_23
                            x       y       z     vdW  Elec       q    Type
                         _______ _______ _______ _____ _____    ______ ____

>  <TORSDO>
F 1

$$$$
=
 OpenBabel10232409353D

 33 36  0  0  1  0  0  0  0  0999 V2000
  182.7630  174.0110  135.2450 C   0  0  0  0  0  0  0  0  0  0  0  0
  188.0340  176.9210  143.0530 F   0  0  0  0  0  0  0  0  0  0  0  0
  184.3850  174.1230  136.8550 C   0  0  1  0  0  3  0  0  0  0  0  0
  182.1050  175.4230  137.2030 C   0  0  0  0  0  1  0  0  0  0  0  0
  190.0440  177.8900  142.7860 F   0  0  0  0  0  0  0  0  0  0  0  0
  184.2950  178.6860  139.3150 C   0  0  0  0  0  2  0  0  0  0  0  0
  185.3930  175.2210  137.0700 C   0  0  1  0  0  3  0  0  0  0  0  0
  181.2750  174.2280  134.3510 Cl  0  0  0  0  0  0  0  0  0  0  0  0
  189.6460  177.5350  138.4820 C   0  0  0  0  0  2  0  0  0  0  0  0
  184.2950  178.6650  141.8120 C   0  0  0  0  0  2  0  0  0  0  0  0
  187.6540  175.9740  136.9330 N   0  0  0  0  0  0  0  0  0  0  0  0
  189.3760  175.8190  140.9210 O   0  0  0  0  0  1  0  0  0  0  0  0
  187.3340  177.0880  137.6510 C   0  0  1  0  0  3  0  0  0  0  0  0
  188.7810  177.7510  142.2340 C   0  0  0  0  0  0  0  0  0  0  0  0
  183.0410  174.5820  136.4030 C   0  0  0  0  0  0  0  0  0  0  0  0
  189.8210  177.9370  139.9350 C   0  0  0  0  0  2  0  0  0  0  0  0
  184.7830  173.3260  135.6520 C   0  0  0  0  0  0  0  0  0  0  0  0
  188.8990  177.1270  140.8350 C   0  0  1  0  0  3  0  0  0  0  0  0
  188.1220  179.1350  142.1820 C   0  0  0  0  0  2  0  0  0  0  0  0
  185.0800  176.3250  137.7990 N   0  0  0  0  0  0  0  0  0  0  0  0
  183.8670  173.2660  134.7480 N   0  0  0  0  0  0  0  0  0  0  0  0
  188.3670  178.1420  137.9160 C   0  0  2  0  0  3  0  0  0  0  0  0
  186.7440  179.1530  141.5170 C   0  0  0  0  0  2  0  0  0  0  0  0
  186.1580  173.0660  135.3540 N   0  0  0  0  0  0  0  0  0  0  0  0
  182.5930  177.4200  140.5470 C   0  0  0  0  0  1  0  0  0  0  0  0
  185.6370  178.4530  138.8050 N   0  0  0  0  0  2  0  0  0  0  0  0
  186.0120  177.2710  138.0850 C   0  0  0  0  0  0  0  0  0  0  0  0
  187.0800  173.8510  135.8290 C   0  0  0  0  0  3  0  0  0  0  0  0
  184.0400  177.8460  140.5530 C   0  0  1  0  0  3  0  0  0  0  0  0
  185.6980  178.4490  142.3700 C   0  0  0  0  0  2  0  0  0  0  0  0
  186.7210  175.0340  136.6390 C   0  0  0  0  0  0  0  0  0  0  0  0
  188.6610  178.9250  136.6420 C   0  0  0  0  0  2  0  0  0  0  0  0
  189.4200  178.0490  135.6520 C   0  0  0  0  0  1  0  0  0  0  0  0
  1 15  2  0  0  0  0
  3 17  1  6  0  0  0
  3  7  1  0  0  0  0
  6 29  1  0  0  0  0
  7 31  1  1  0  0  0
  7 20  1  0  0  0  0
  8  1  1  0  0  0  0
  9 16  1  0  0  0  0
 10 30  1  0  0  0  0
 13 11  1  6  0  0  0
 13 22  1  0  0  0  0
 13 27  1  0  0  0  0
 14  5  1  0  0  0  0
 14  2  1  0  0  0  0
 15  3  1  0  0  0  0
 15  4  1  0  0  0  0
 16 18  1  0  0  0  0
 18 12  1  1  0  0  0
 18 14  1  0  0  0  0
 19 14  1  0  0  0  0
 20 27  2  0  0  0  0
 21  1  1  0  0  0  0
 21 17  2  0  0  0  0
 22 32  1  6  0  0  0
 22  9  1  0  0  0  0
 23 19  1  0  0  0  0
 23 30  1  0  0  0  0
 24 17  1  0  0  0  0
 24 28  2  0  0  0  0
 26  6  1  0  0  0  0
 27 26  1  0  0  0  0
 28 31  1  0  0  0  0
 29 25  1  1  0  0  0
 29 10  1  0  0  0  0
 31 11  2  0  0  0  0
 33 32  1  0  0  0  0
M  END
>  <MODEL>
4

>  <REMARK>
 VINA RESULT:      -4.7      4.165      7.835
  Name = 
  1 active torsions:
  status: ('A' for Active; 'I' for Inactive)
    1  A    between atoms: C_13  and  C_23
                            x       y       z     vdW  Elec       q    Type
                         _______ _______ _______ _____ _____    ______ ____

>  <TORSDO>
F 1

$$$$
=
 OpenBabel10232409353D

 33 36  0  0  1  0  0  0  0  0999 V2000
  189.6910  177.6610  139.8280 C   0  0  0  0  0  0  0  0  0  0  0  0
  180.9360  180.1660  136.0490 F   0  0  0  0  0  0  0  0  0  0  0  0
  188.0760  178.4050  138.3880 C   0  0  1  0  0  3  0  0  0  0  0  0
  187.5360  178.2130  140.9730 C   0  0  0  0  0  1  0  0  0  0  0  0
  179.9830  178.9260  134.4350 F   0  0  0  0  0  0  0  0  0  0  0  0
  183.3370  177.0580  140.0030 C   0  0  0  0  0  2  0  0  0  0  0  0
  186.9460  177.6130  137.7850 C   0  0  1  0  0  3  0  0  0  0  0  0
  190.5490  177.1730  141.2730 Cl  0  0  0  0  0  0  0  0  0  0  0  0
  183.3580  176.2040  134.5330 C   0  0  0  0  0  2  0  0  0  0  0  0
  181.5860  178.8360  140.0950 C   0  0  0  0  0  2  0  0  0  0  0  0
  185.9830  176.5610  135.8710 N   0  0  0  0  0  0  0  0  0  0  0  0
  182.8390  179.1470  134.3460 O   0  0  0  0  0  1  0  0  0  0  0  0
  184.8160  176.3730  136.5530 C   0  0  1  0  0  3  0  0  0  0  0  0
  180.7790  178.8780  135.5690 C   0  0  0  0  0  0  0  0  0  0  0  0
  188.4260  178.0360  139.7900 C   0  0  0  0  0  0  0  0  0  0  0  0
  182.0210  176.9230  134.5500 C   0  0  0  0  0  2  0  0  0  0  0  0
  189.3550  178.0190  137.7130 C   0  0  0  0  0  0  0  0  0  0  0  0
  182.1520  178.2910  135.2060 C   0  0  1  0  0  3  0  0  0  0  0  0
  180.0620  178.0280  136.6260 C   0  0  0  0  0  2  0  0  0  0  0  0
  185.7780  177.4380  138.4570 N   0  0  0  0  0  0  0  0  0  0  0  0
  190.2610  177.6000  138.5280 N   0  0  0  0  0  0  0  0  0  0  0  0
  183.6740  175.6410  135.9140 C   0  0  2  0  0  3  0  0  0  0  0  0
  180.8640  177.8160  137.9120 C   0  0  0  0  0  2  0  0  0  0  0  0
  189.3970  177.7160  136.3160 N   0  0  0  0  0  0  0  0  0  0  0  0
  183.7280  179.1220  141.2690 C   0  0  0  0  0  1  0  0  0  0  0  0
  183.5180  176.5930  138.6360 N   0  0  0  0  0  2  0  0  0  0  0  0
  184.7170  176.8140  137.8820 C   0  0  0  0  0  0  0  0  0  0  0  0
  188.3120  177.3370  135.7060 C   0  0  0  0  0  3  0  0  0  0  0  0
  183.0820  178.5540  140.0300 C   0  0  1  0  0  3  0  0  0  0  0  0
  180.9870  179.1020  138.7170 C   0  0  0  0  0  2  0  0  0  0  0  0
  187.0440  177.1750  136.4490 C   0  0  0  0  0  0  0  0  0  0  0  0
  183.9820  174.1520  135.8310 C   0  0  0  0  0  2  0  0  0  0  0  0
  183.3140  173.4120  136.9830 C   0  0  0  0  0  1  0  0  0  0  0  0
  1  8  1  0  0  0  0
  3 17  1  6  0  0  0
  3 15  1  0  0  0  0
  5 14  1  0  0  0  0
  6 29  1  0  0  0  0
  7 31  1  6  0  0  0
  7  3  1  0  0  0  0
  7 20  1  0  0  0  0
  9 16  1  0  0  0  0
  9 22  1  0  0  0  0
 11 31  2  0  0  0  0
 13 11  1  1  0  0  0
 13 27  1  0  0  0  0
 14  2  1  0  0  0  0
 14 19  1  0  0  0  0
 15  1  2  0  0  0  0
 15  4  1  0  0  0  0
 16 18  1  0  0  0  0
 17 21  2  0  0  0  0
 18 12  1  6  0  0  0
 18 14  1  0  0  0  0
 19 23  1  0  0  0  0
 21  1  1  0  0  0  0
 22 32  1  6  0  0  0
 22 13  1  0  0  0  0
 23 30  1  0  0  0  0
 24 17  1  0  0  0  0
 26  6  1  0  0  0  0
 27 20  2  0  0  0  0
 27 26  1  0  0  0  0
 28 24  2  0  0  0  0
 28 31  1  0  0  0  0
 29 10  1  0  0  0  0
 29 25  1  1  0  0  0
 30 10  1  0  0  0  0
 32 33  1  0  0  0  0
M  END
>  <MODEL>
5

>  <REMARK>
 VINA RESULT:      -4.6      3.028      5.577
  Name = 
  1 active torsions:
  status: ('A' for Active; 'I' for Inactive)
    1  A    between atoms: C_13  and  C_23
                            x       y       z     vdW  Elec       q    Type
                         _______ _______ _______ _____ _____    ______ ____

>  <TORSDO>
F 1

$$$$
=
 OpenBabel10232409353D

 33 36  0  0  1  0  0  0  0  0999 V2000
  187.8030  178.2050  144.7700 C   0  0  0  0  0  0  0  0  0  0  0  0
  183.7320  175.0190  136.3730 F   0  0  0  0  0  0  0  0  0  0  0  0
  186.3110  177.3340  143.2690 C   0  0  1  0  0  3  0  0  0  0  0  0
  188.8740  177.4910  142.6240 C   0  0  0  0  0  1  0  0  0  0  0  0
  182.0790  176.1770  135.3860 F   0  0  0  0  0  0  0  0  0  0  0  0
  187.7500  178.3160  138.3860 C   0  0  0  0  0  2  0  0  0  0  0  0
  185.6640  178.0340  142.1040 C   0  0  1  0  0  3  0  0  0  0  0  0
  189.2740  178.7620  145.5350 Cl  0  0  0  0  0  0  0  0  0  0  0  0
  182.2790  179.1510  138.5350 C   0  0  0  0  0  2  0  0  0  0  0  0
  187.7900  176.4080  136.7750 C   0  0  0  0  0  2  0  0  0  0  0  0
  183.7110  179.0020  141.1300 N   0  0  0  0  0  0  0  0  0  0  0  0
  182.0910  176.1770  138.2510 O   0  0  0  0  0  1  0  0  0  0  0  0
  184.3500  179.1020  139.9290 C   0  0  1  0  0  3  0  0  0  0  0  0
  183.2390  176.2900  136.1350 C   0  0  0  0  0  0  0  0  0  0  0  0
  187.7220  177.7330  143.5390 C   0  0  0  0  0  0  0  0  0  0  0  0
  182.2530  178.3320  137.2580 C   0  0  0  0  0  2  0  0  0  0  0  0
  185.6790  177.8150  144.5380 C   0  0  0  0  0  0  0  0  0  0  0  0
  182.9220  176.9800  137.4700 C   0  0  1  0  0  3  0  0  0  0  0  0
  184.2660  177.0850  135.3180 C   0  0  0  0  0  2  0  0  0  0  0  0
  186.2930  178.1200  140.9020 N   0  0  0  0  0  0  0  0  0  0  0  0
  186.5220  178.3050  145.3790 N   0  0  0  0  0  0  0  0  0  0  0  0
  183.6680  179.7410  138.7580 C   0  0  2  0  0  3  0  0  0  0  0  0
  185.5780  177.3620  136.0540 C   0  0  0  0  0  2  0  0  0  0  0  0
  184.2820  178.1160  144.6060 N   0  0  0  0  0  0  0  0  0  0  0  0
  189.0410  176.2920  138.8900 C   0  0  0  0  0  1  0  0  0  0  0  0
  186.3880  178.7890  138.5790 N   0  0  0  0  0  2  0  0  0  0  0  0
  185.6770  178.6580  139.8180 C   0  0  0  0  0  0  0  0  0  0  0  0
  183.6320  178.4080  143.5170 C   0  0  0  0  0  3  0  0  0  0  0  0
  187.7770  176.8050  138.2460 C   0  0  1  0  0  3  0  0  0  0  0  0
  186.3950  176.0920  136.2470 C   0  0  0  0  0  2  0  0  0  0  0  0
  184.3300  178.4740  142.2150 C   0  0  0  0  0  0  0  0  0  0  0  0
  183.5860  181.2500  138.9530 C   0  0  0  0  0  2  0  0  0  0  0  0
  182.2210  181.7630  138.5110 C   0  0  0  0  0  1  0  0  0  0  0  0
  1 21  1  0  0  0  0
  1  8  1  0  0  0  0
  3 15  1  1  0  0  0
  3 17  1  0  0  0  0
  4 15  1  0  0  0  0
  5 14  1  0  0  0  0
  6 26  1  0  0  0  0
  7 20  1  6  0  0  0
  7 31  1  0  0  0  0
  7  3  1  0  0  0  0
  9 22  1  0  0  0  0
 10 29  1  0  0  0  0
 11 31  2  0  0  0  0
 13 27  1  1  0  0  0
 13 11  1  0  0  0  0
 14  2  1  0  0  0  0
 14 18  1  0  0  0  0
 15  1  2  0  0  0  0
 16 18  1  0  0  0  0
 16  9  1  0  0  0  0
 17 24  1  0  0  0  0
 17 21  2  0  0  0  0
 18 12  1  1  0  0  0
 19 23  1  0  0  0  0
 19 14  1  0  0  0  0
 22 32  1  1  0  0  0
 22 13  1  0  0  0  0
 23 30  1  0  0  0  0
 26 27  1  0  0  0  0
 27 20  2  0  0  0  0
 28 24  2  0  0  0  0
 29  6  1  0  0  0  0
 29 25  1  1  0  0  0
 30 10  1  0  0  0  0
 31 28  1  0  0  0  0
 33 32  1  0  0  0  0
M  END
>  <MODEL>
6

>  <REMARK>
 VINA RESULT:      -4.5      1.222      1.510
  Name = 
  1 active torsions:
  status: ('A' for Active; 'I' for Inactive)
    1  A    between atoms: C_13  and  C_23
                            x       y       z     vdW  Elec       q    Type
                         _______ _______ _______ _____ _____    ______ ____

>  <TORSDO>
F 1

$$$$
=
 OpenBabel10232409353D

 33 36  0  0  1  0  0  0  0  0999 V2000
  184.7460  179.1550  144.8440 C   0  0  0  0  0  0  0  0  0  0  0  0
  183.0800  175.1970  135.9680 F   0  0  0  0  0  0  0  0  0  0  0  0
  183.7510  178.0380  143.1120 C   0  0  1  0  0  3  0  0  0  0  0  0
  186.3470  178.5470  143.0200 C   0  0  0  0  0  1  0  0  0  0  0  0
  181.5410  176.0790  134.5870 F   0  0  0  0  0  0  0  0  0  0  0  0
  186.0760  179.0910  138.6000 C   0  0  0  0  0  2  0  0  0  0  0  0
  183.2860  178.6080  141.7980 C   0  0  1  0  0  3  0  0  0  0  0  0
  185.9250  179.9380  145.8720 Cl  0  0  0  0  0  0  0  0  0  0  0  0
  180.6430  179.1320  137.5340 C   0  0  0  0  0  2  0  0  0  0  0  0
  186.7260  177.1680  137.1450 C   0  0  0  0  0  2  0  0  0  0  0  0
  181.4800  179.2580  140.3780 N   0  0  0  0  0  0  0  0  0  0  0  0
  180.9270  176.1550  137.3850 O   0  0  0  0  0  1  0  0  0  0  0  0
  182.3470  179.4180  139.3370 C   0  0  1  0  0  3  0  0  0  0  0  0
  182.4830  176.3770  135.5590 C   0  0  0  0  0  0  0  0  0  0  0  0
  185.0010  178.6440  143.6530 C   0  0  0  0  0  0  0  0  0  0  0  0
  181.0090  178.2840  136.3290 C   0  0  0  0  0  2  0  0  0  0  0  0
  182.7970  178.4560  144.1880 C   0  0  0  0  0  0  0  0  0  0  0  0
  181.7910  177.0490  136.7550 C   0  0  1  0  0  3  0  0  0  0  0  0
  183.5460  177.2910  134.9350 C   0  0  0  0  0  2  0  0  0  0  0  0
  184.1450  178.7530  140.7550 N   0  0  0  0  0  0  0  0  0  0  0  0
  183.3620  179.0850  145.1600 N   0  0  0  0  0  0  0  0  0  0  0  0
  181.8570  179.9220  138.0130 C   0  0  2  0  0  3  0  0  0  0  0  0
  184.6160  177.7740  135.9170 C   0  0  0  0  0  2  0  0  0  0  0  0
  181.3920  178.5540  143.9400 N   0  0  0  0  0  0  0  0  0  0  0  0
  187.4870  177.2880  139.4810 C   0  0  0  0  0  1  0  0  0  0  0  0
  184.6540  179.3680  138.4710 N   0  0  0  0  0  2  0  0  0  0  0  0
  183.7140  179.1680  139.5360 C   0  0  0  0  0  0  0  0  0  0  0  0
  180.9620  178.7210  142.7230 C   0  0  0  0  0  3  0  0  0  0  0  0
  186.3370  177.5970  138.5550 C   0  0  1  0  0  3  0  0  0  0  0  0
  185.5350  176.6400  136.3510 C   0  0  0  0  0  2  0  0  0  0  0  0
  181.9130  178.8530  141.5980 C   0  0  0  0  0  0  0  0  0  0  0  0
  181.5310  181.4070  138.1000 C   0  0  0  0  0  2  0  0  0  0  0  0
  180.7220  181.8390  136.8840 C   0  0  0  0  0  1  0  0  0  0  0  0
  1 21  1  0  0  0  0
  1  8  1  0  0  0  0
  3 15  1  1  0  0  0
  3 17  1  0  0  0  0
  4 15  1  0  0  0  0
  5 14  1  0  0  0  0
  7 20  1  6  0  0  0
  7  3  1  0  0  0  0
  9 22  1  0  0  0  0
 10 29  1  0  0  0  0
 11 31  2  0  0  0  0
 13 27  1  1  0  0  0
 13 11  1  0  0  0  0
 14  2  1  0  0  0  0
 14 18  1  0  0  0  0
 15  1  2  0  0  0  0
 16 18  1  0  0  0  0
 16  9  1  0  0  0  0
 17 21  2  0  0  0  0
 18 12  1  6  0  0  0
 19 14  1  0  0  0  0
 19 23  1  0  0  0  0
 22 32  1  1  0  0  0
 22 13  1  0  0  0  0
 23 30  1  0  0  0  0
 24 17  1  0  0  0  0
 26  6  1  0  0  0  0
 26 27  1  0  0  0  0
 27 20  2  0  0  0  0
 28 24  2  0  0  0  0
 29  6  1  0  0  0  0
 29 25  1  1  0  0  0
 30 10  1  0  0  0  0
 31  7  1  0  0  0  0
 31 28  1  0  0  0  0
 33 32  1  0  0  0  0
M  END
>  <MODEL>
7

>  <REMARK>
 VINA RESULT:      -4.3      2.484      3.507
  Name = 
  1 active torsions:
  status: ('A' for Active; 'I' for Inactive)
    1  A    between atoms: C_13  and  C_23
                            x       y       z     vdW  Elec       q    Type
                         _______ _______ _______ _____ _____    ______ ____

>  <TORSDO>
F 1

$$$$
=
 OpenBabel10232409353D

 33 36  0  0  1  0  0  0  0  0999 V2000
  191.0360  178.5180  143.4320 C   0  0  0  0  0  0  0  0  0  0  0  0
  188.7480  172.3100  136.1210 F   0  0  0  0  0  0  0  0  0  0  0  0
  189.9120  177.0040  142.1350 C   0  0  1  0  0  3  0  0  0  0  0  0
  192.5110  177.3600  141.7750 C   0  0  0  0  0  1  0  0  0  0  0  0
  187.1540  172.8330  134.6260 F   0  0  0  0  0  0  0  0  0  0  0  0
  191.9930  176.6570  137.4000 C   0  0  0  0  0  2  0  0  0  0  0  0
  189.3850  177.2020  140.7390 C   0  0  1  0  0  3  0  0  0  0  0  0
  192.2930  179.5080  144.1390 Cl  0  0  0  0  0  0  0  0  0  0  0  0
  186.5100  176.6220  136.6350 C   0  0  0  0  0  2  0  0  0  0  0  0
  192.5060  174.3790  136.5150 C   0  0  0  0  0  2  0  0  0  0  0  0
  187.5150  177.5040  139.2840 N   0  0  0  0  0  0  0  0  0  0  0  0
  186.7080  173.7130  137.3160 O   0  0  0  0  0  1  0  0  0  0  0  0
  188.3230  177.3300  138.1990 C   0  0  1  0  0  3  0  0  0  0  0  0
  188.1590  173.3520  135.4260 C   0  0  0  0  0  0  0  0  0  0  0  0
  191.2070  177.6850  142.4220 C   0  0  0  0  0  0  0  0  0  0  0  0
  186.7820  175.4570  135.7010 C   0  0  0  0  0  2  0  0  0  0  0  0
  189.0340  177.7450  143.0960 C   0  0  0  0  0  0  0  0  0  0  0  0
  187.5560  174.3590  136.4180 C   0  0  1  0  0  3  0  0  0  0  0  0
  189.2070  174.0110  134.5190 C   0  0  0  0  0  2  0  0  0  0  0  0
  190.1840  177.0150  139.6560 N   0  0  0  0  0  0  0  0  0  0  0  0
  189.6710  178.5960  143.8230 N   0  0  0  0  0  0  0  0  0  0  0  0
  187.7700  177.4640  136.8120 C   0  0  2  0  0  3  0  0  0  0  0  0
  190.3450  174.7040  135.2710 C   0  0  0  0  0  2  0  0  0  0  0  0
  187.6200  177.8270  142.9000 N   0  0  0  0  0  0  0  0  0  0  0  0
  193.4070  175.1160  138.6820 C   0  0  0  0  0  1  0  0  0  0  0  0
  190.5730  176.9450  137.2690 N   0  0  0  0  0  2  0  0  0  0  0  0
  189.6930  177.0900  138.3920 C   0  0  0  0  0  0  0  0  0  0  0  0
  187.1230  177.6650  141.7080 C   0  0  0  0  0  3  0  0  0  0  0  0
  192.2120  175.2000  137.7640 C   0  0  1  0  0  3  0  0  0  0  0  0
  191.2580  173.7000  135.9610 C   0  0  0  0  0  2  0  0  0  0  0  0
  188.0090  177.4380  140.5450 C   0  0  0  0  0  0  0  0  0  0  0  0
  187.4880  178.9270  136.4940 C   0  0  0  0  0  2  0  0  0  0  0  0
  186.8910  179.0540  135.0980 C   0  0  0  0  0  1  0  0  0  0  0  0
  1 21  1  0  0  0  0
  1  8  1  0  0  0  0
  3 15  1  6  0  0  0
  3 17  1  0  0  0  0
  4 15  1  0  0  0  0
  5 14  1  0  0  0  0
  6 29  1  0  0  0  0
  7 20  1  6  0  0  0
  7  3  1  0  0  0  0
  9 22  1  0  0  0  0
 10 29  1  0  0  0  0
 11 31  2  0  0  0  0
 13 27  1  1  0  0  0
 13 11  1  0  0  0  0
 14  2  1  0  0  0  0
 14 18  1  0  0  0  0
 15  1  2  0  0  0  0
 16 18  1  0  0  0  0
 16  9  1  0  0  0  0
 17 21  2  0  0  0  0
 18 12  1  1  0  0  0
 19 23  1  0  0  0  0
 19 14  1  0  0  0  0
 22 32  1  1  0  0  0
 22 13  1  0  0  0  0
 23 30  1  0  0  0  0
 24 17  1  0  0  0  0
 26  6  1  0  0  0  0
 26 27  1  0  0  0  0
 27 20  2  0  0  0  0
 28 24  2  0  0  0  0
 29 25  1  1  0  0  0
 30 10  1  0  0  0  0
 31  7  1  0  0  0  0
 31 28  1  0  0  0  0
 33 32  1  0  0  0  0
M  END
>  <MODEL>
8

>  <REMARK>
 VINA RESULT:      -4.3      2.745      3.850
  Name = 
  1 active torsions:
  status: ('A' for Active; 'I' for Inactive)
    1  A    between atoms: C_13  and  C_23
                            x       y       z     vdW  Elec       q    Type
                         _______ _______ _______ _____ _____    ______ ____

>  <TORSDO>
F 1

$$$$
=
 OpenBabel10232409353D

 33 36  0  0  1  0  0  0  0  0999 V2000
  181.2150  178.3610  141.3600 C   0  0  0  0  0  0  0  0  0  0  0  0
  189.0880  173.7960  137.5650 F   0  0  0  0  0  0  0  0  0  0  0  0
  182.5580  176.7770  140.3980 C   0  0  1  0  0  3  0  0  0  0  0  0
  183.6550  178.8290  141.6610 C   0  0  0  0  0  1  0  0  0  0  0  0
  189.2390  173.4090  135.3560 F   0  0  0  0  0  0  0  0  0  0  0  0
  187.0090  178.8370  138.7190 C   0  0  0  0  0  2  0  0  0  0  0  0
  183.2460  176.8440  139.0610 C   0  0  1  0  0  3  0  0  0  0  0  0
  180.6480  179.7710  142.2260 Cl  0  0  0  0  0  0  0  0  0  0  0  0
  185.3930  175.3230  134.7570 C   0  0  0  0  0  2  0  0  0  0  0  0
  189.1380  177.7070  139.3720 C   0  0  0  0  0  2  0  0  0  0  0  0
  183.3810  176.1070  136.7940 N   0  0  0  0  0  0  0  0  0  0  0  0
  186.6180  173.2210  136.5020 O   0  0  0  0  0  1  0  0  0  0  0  0
  184.5870  176.7300  136.6560 C   0  0  1  0  0  3  0  0  0  0  0  0
  188.7680  174.2940  136.3140 C   0  0  0  0  0  0  0  0  0  0  0  0
  182.4840  178.0710  141.1340 C   0  0  0  0  0  0  0  0  0  0  0  0
  186.8330  174.8460  134.7790 C   0  0  0  0  0  2  0  0  0  0  0  0
  181.0950  176.5410  140.1820 C   0  0  0  0  0  0  0  0  0  0  0  0
  187.2430  174.4260  136.1840 C   0  0  1  0  0  3  0  0  0  0  0  0
  189.4710  175.6420  136.1110 C   0  0  0  0  0  2  0  0  0  0  0  0
  184.4540  177.4520  138.9250 N   0  0  0  0  0  0  0  0  0  0  0  0
  180.3440  177.4350  140.7250 N   0  0  0  0  0  0  0  0  0  0  0  0
  185.2930  176.7320  135.3340 C   0  0  2  0  0  3  0  0  0  0  0  0
  188.9910  176.7500  137.0510 C   0  0  0  0  0  2  0  0  0  0  0  0
  180.6260  175.7000  139.1240 N   0  0  0  0  0  0  0  0  0  0  0  0
  187.5150  178.4110  141.0810 C   0  0  0  0  0  1  0  0  0  0  0  0
  186.3740  178.1280  137.6180 N   0  0  0  0  0  2  0  0  0  0  0  0
  185.1290  177.4280  137.7470 C   0  0  0  0  0  0  0  0  0  0  0  0
  181.3810  175.4880  138.0860 C   0  0  0  0  0  3  0  0  0  0  0  0
  187.6540  177.8590  139.6840 C   0  0  1  0  0  3  0  0  0  0  0  0
  189.4230  176.4970  138.4880 C   0  0  0  0  0  2  0  0  0  0  0  0
  182.7030  176.1390  137.9670 C   0  0  0  0  0  0  0  0  0  0  0  0
  184.5860  177.6630  134.3580 C   0  0  0  0  0  2  0  0  0  0  0  0
  183.0900  177.3740  134.3470 C   0  0  0  0  0  1  0  0  0  0  0  0
  1  8  1  0  0  0  0
  3 17  1  6  0  0  0
  3 15  1  0  0  0  0
  5 14  1  0  0  0  0
  6 29  1  0  0  0  0
  7 31  1  1  0  0  0
  7  3  1  0  0  0  0
  9 16  1  0  0  0  0
  9 22  1  0  0  0  0
 10 29  1  0  0  0  0
 11 31  2  0  0  0  0
 13 11  1  6  0  0  0
 13 27  1  0  0  0  0
 14  2  1  0  0  0  0
 15  1  2  0  0  0  0
 15  4  1  0  0  0  0
 16 18  1  0  0  0  0
 17 21  2  0  0  0  0
 18 14  1  0  0  0  0
 18 12  1  6  0  0  0
 19 14  1  0  0  0  0
 19 23  1  0  0  0  0
 20  7  1  0  0  0  0
 21  1  1  0  0  0  0
 22 32  1  6  0  0  0
 22 13  1  0  0  0  0
 23 30  1  0  0  0  0
 24 17  1  0  0  0  0
 26 27  1  0  0  0  0
 26  6  1  0  0  0  0
 27 20  2  0  0  0  0
 28 24  2  0  0  0  0
 29 25  1  1  0  0  0
 30 10  1  0  0  0  0
 31 28  1  0  0  0  0
 33 32  1  0  0  0  0
M  END
>  <MODEL>
9

>  <REMARK>
 VINA RESULT:      -4.1      3.539      5.778
  Name = 
  1 active torsions:
  status: ('A' for Active; 'I' for Inactive)
    1  A    between atoms: C_13  and  C_23
                            x       y       z     vdW  Elec       q    Type
                         _______ _______ _______ _____ _____    ______ ____

>  <TORSDO>
F 1

$$$$
