=
 OpenBabel10232409063D

 28 30  0  0  1  0  0  0  0  0999 V2000
  190.5350  176.9290  144.3200 N   0  0  0  0  0  0  0  0  0  0  0  0
  190.3450  177.3240  142.1660 C   0  0  1  0  0  3  0  0  0  0  0  0
  186.1350  177.9840  143.9100 C   0  0  0  0  0  0  0  0  0  0  0  0
  189.0090  177.4990  142.8060 C   0  0  0  0  0  0  0  0  0  0  0  0
  191.1990  176.7590  143.1430 O   0  0  0  0  0  0  0  0  0  0  0  0
  187.8900  177.9040  142.1120 C   0  0  0  0  0  3  0  0  0  0  0  0
  188.2170  177.2750  145.1690 C   0  0  0  0  0  0  0  0  0  0  0  0
  186.6220  178.1060  142.6160 C   0  0  0  0  0  3  0  0  0  0  0  0
  184.7690  178.2120  144.0210 O   0  0  0  0  0  1  0  0  0  0  0  0
  188.6300  176.9350  146.3130 O   0  0  0  0  0  0  0  0  0  0  0  0
  186.8560  177.6410  145.0830 C   0  0  0  0  0  0  0  0  0  0  0  0
  189.1610  177.2480  144.1290 C   0  0  0  0  0  0  0  0  0  0  0  0
  186.1750  177.6220  146.3150 O   0  0  0  0  0  0  0  0  0  0  0  0
  185.9110  178.7720  147.1090 C   0  0  0  0  0  1  0  0  0  0  0  0
  191.9010  176.2030  146.2090 C   0  0  0  0  0  1  0  0  0  0  0  0
  191.2770  177.3840  145.4910 C   0  0  0  0  0  2  0  0  0  0  0  0
  190.2480  176.4180  141.0310 N   0  0  0  0  0  2  0  0  0  0  0  0
  189.3470  177.5420  137.8700 C   0  0  2  0  0  3  0  0  0  0  0  0
  190.7030  177.1450  139.8570 C   0  0  2  0  0  3  0  0  0  0  0  0
  189.5670  177.9870  139.3020 C   0  0  0  0  0  2  0  0  0  0  0  0
  190.5870  176.7700  137.4770 C   0  0  0  0  0  2  0  0  0  0  0  0
  191.0970  176.1680  138.7660 C   0  0  0  0  0  2  0  0  0  0  0  0
  189.1560  178.7520  136.9710 C   0  0  0  0  0  2  0  0  0  0  0  0
  187.7930  179.2490  137.0750 N   0  0  0  0  0  2  0  0  0  0  0  0
  186.9070  178.1070  136.9210 C   0  0  0  0  0  2  0  0  0  0  0  0
  186.0730  178.5830  139.0930 O   0  0  0  0  0  1  0  0  0  0  0  0
  185.6770  178.2850  137.7900 C   0  0  0  0  0  3  0  0  0  0  0  0
  184.9240  177.1110  137.7910 O   0  0  0  0  0  1  0  0  0  0  0  0
  1 16  1  0  0  0  0
  2 17  1  6  0  0  0
  2  4  1  0  0  0  0
  2  5  1  0  0  0  0
  3  9  1  0  0  0  0
  3 11  2  0  0  0  0
  4 12  2  0  0  0  0
  5  1  1  0  0  0  0
  6  8  2  0  0  0  0
  6  4  1  0  0  0  0
  7 10  2  0  0  0  0
  8  3  1  0  0  0  0
 11  7  1  0  0  0  0
 11 13  1  0  0  0  0
 12  1  1  0  0  0  0
 12  7  1  0  0  0  0
 13 14  1  0  0  0  0
 16 15  1  0  0  0  0
 18 23  1  6  0  0  0
 18 20  1  0  0  0  0
 19 17  1  1  0  0  0
 20 19  1  0  0  0  0
 21 18  1  0  0  0  0
 21 22  1  0  0  0  0
 22 19  1  0  0  0  0
 23 24  1  0  0  0  0
 25 24  1  0  0  0  0
 25 27  1  0  0  0  0
 27 28  1  0  0  0  0
 27 26  1  0  0  0  0
M  END
>  <MODEL>
1

>  <REMARK>
 VINA RESULT:      -7.7      0.000      0.000
  Name = 
  8 active torsions:
  status: ('A' for Active; 'I' for Inactive)
    1  A    between atoms: N_1  and  C_18
    2  A    between atoms: C_2  and  N_19
    3  A    between atoms: C_4  and  N_20
    4  A    between atoms: C_4  and  C_25
    5  A    between atoms: C_6  and  C_23
    6  A    between atoms: C_8  and  N_19
    7  A    between atoms: O_11  and  C_17
    8  A    between atoms: N_20  and  C_23
                            x       y       z     vdW  Elec       q    Type
                         _______ _______ _______ _____ _____    ______ ____

>  <TORSDO>
F 8

$$$$
=
 OpenBabel10232409063D

 28 30  0  0  1  0  0  0  0  0999 V2000
  187.8290  177.7910  146.8200 N   0  0  0  0  0  0  0  0  0  0  0  0
  186.0860  177.7510  145.4820 C   0  0  1  0  0  3  0  0  0  0  0  0
  189.6490  176.4020  142.8960 C   0  0  0  0  0  0  0  0  0  0  0  0
  187.2940  177.3420  144.7080 C   0  0  0  0  0  0  0  0  0  0  0  0
  186.5400  178.2210  146.7370 O   0  0  0  0  0  0  0  0  0  0  0  0
  187.2470  176.9550  143.3870 C   0  0  0  0  0  3  0  0  0  0  0  0
  189.7030  177.0840  145.3360 C   0  0  0  0  0  0  0  0  0  0  0  0
  188.3010  176.5490  142.5970 C   0  0  0  0  0  3  0  0  0  0  0  0
  190.4290  176.0290  141.8080 O   0  0  0  0  0  1  0  0  0  0  0  0
  190.4870  177.2630  146.3100 O   0  0  0  0  0  0  0  0  0  0  0  0
  190.2910  176.6090  144.1440 C   0  0  0  0  0  0  0  0  0  0  0  0
  188.3480  177.3790  145.5610 C   0  0  0  0  0  0  0  0  0  0  0  0
  191.6720  176.3530  144.2460 O   0  0  0  0  0  0  0  0  0  0  0  0
  192.2410  175.0650  144.4500 C   0  0  0  0  0  1  0  0  0  0  0  0
  188.7280  178.3170  149.0290 C   0  0  0  0  0  1  0  0  0  0  0  0
  188.3030  177.2170  148.0750 C   0  0  0  0  0  2  0  0  0  0  0  0
  185.3830  178.8230  144.7930 N   0  0  0  0  0  2  0  0  0  0  0  0
  183.0140  179.1340  142.2710 C   0  0  2  0  0  3  0  0  0  0  0  0
  184.1700  178.2530  144.2280 C   0  0  2  0  0  3  0  0  0  0  0  0
  184.2220  178.3320  142.7130 C   0  0  0  0  0  2  0  0  0  0  0  0
  182.0710  179.1530  143.4540 C   0  0  0  0  0  2  0  0  0  0  0  0
  182.9660  179.0630  144.6680 C   0  0  0  0  0  2  0  0  0  0  0  0
  182.3590  178.4720  141.0700 C   0  0  0  0  0  2  0  0  0  0  0  0
  183.2880  177.5510  140.4320 N   0  0  0  0  0  2  0  0  0  0  0  0
  183.5810  178.0840  139.1120 C   0  0  0  0  0  2  0  0  0  0  0  0
  184.3850  180.3190  139.0580 O   0  0  0  0  0  1  0  0  0  0  0  0
  184.7940  178.9920  139.1790 C   0  0  0  0  0  3  0  0  0  0  0  0
  185.6740  178.6830  138.1420 O   0  0  0  0  0  1  0  0  0  0  0  0
  1 16  1  0  0  0  0
  2 17  1  6  0  0  0
  2  5  1  0  0  0  0
  3 11  2  0  0  0  0
  4  2  1  0  0  0  0
  4 12  2  0  0  0  0
  5  1  1  0  0  0  0
  6  4  1  0  0  0  0
  7 12  1  0  0  0  0
  7 10  2  0  0  0  0
  8  3  1  0  0  0  0
  8  6  2  0  0  0  0
  9  3  1  0  0  0  0
 11 13  1  0  0  0  0
 11  7  1  0  0  0  0
 12  1  1  0  0  0  0
 13 14  1  0  0  0  0
 16 15  1  0  0  0  0
 18 23  1  6  0  0  0
 18 20  1  0  0  0  0
 18 21  1  0  0  0  0
 19 22  1  0  0  0  0
 19 17  1  1  0  0  0
 20 19  1  0  0  0  0
 21 22  1  0  0  0  0
 24 23  1  0  0  0  0
 25 27  1  0  0  0  0
 25 24  1  0  0  0  0
 26 27  1  0  0  0  0
 28 27  1  0  0  0  0
M  END
>  <MODEL>
2

>  <REMARK>
 VINA RESULT:      -7.7      3.110      5.567
  Name = 
  8 active torsions:
  status: ('A' for Active; 'I' for Inactive)
    1  A    between atoms: N_1  and  C_18
    2  A    between atoms: C_2  and  N_19
    3  A    between atoms: C_4  and  N_20
    4  A    between atoms: C_4  and  C_25
    5  A    between atoms: C_6  and  C_23
    6  A    between atoms: C_8  and  N_19
    7  A    between atoms: O_11  and  C_17
    8  A    between atoms: N_20  and  C_23
                            x       y       z     vdW  Elec       q    Type
                         _______ _______ _______ _____ _____    ______ ____

>  <TORSDO>
F 8

$$$$
=
 OpenBabel10232409063D

 28 30  0  0  1  0  0  0  0  0999 V2000
  182.6910  178.6570  143.3890 N   0  0  0  0  0  0  0  0  0  0  0  0
  184.7220  178.7800  144.2200 C   0  0  1  0  0  3  0  0  0  0  0  0
  185.2680  178.7170  139.6480 C   0  0  0  0  0  0  0  0  0  0  0  0
  184.8140  178.7350  142.7310 C   0  0  0  0  0  0  0  0  0  0  0  0
  183.3740  178.5100  144.5570 O   0  0  0  0  0  0  0  0  0  0  0  0
  186.0070  178.8230  142.0480 C   0  0  0  0  0  3  0  0  0  0  0  0
  183.0840  178.5940  140.9280 C   0  0  0  0  0  0  0  0  0  0  0  0
  186.1900  178.8050  140.6810 C   0  0  0  0  0  3  0  0  0  0  0  0
  185.8430  178.6620  138.3840 O   0  0  0  0  0  1  0  0  0  0  0  0
  181.8370  178.4690  140.7740 O   0  0  0  0  0  0  0  0  0  0  0  0
  183.8540  178.6560  139.7460 C   0  0  0  0  0  0  0  0  0  0  0  0
  183.5480  178.6590  142.2520 C   0  0  0  0  0  0  0  0  0  0  0  0
  183.0930  178.6210  138.5610 O   0  0  0  0  0  0  0  0  0  0  0  0
  182.8390  177.4460  137.8000 C   0  0  0  0  0  1  0  0  0  0  0  0
  180.3220  178.4960  143.9640 C   0  0  0  0  0  1  0  0  0  0  0  0
  181.4210  179.3760  143.3980 C   0  0  0  0  0  2  0  0  0  0  0  0
  185.5780  177.7610  144.8100 N   0  0  0  0  0  2  0  0  0  0  0  0
  188.2580  177.3280  146.9770 C   0  0  2  0  0  3  0  0  0  0  0  0
  186.5800  178.4490  145.6090 C   0  0  2  0  0  3  0  0  0  0  0  0
  187.8930  177.6880  145.5510 C   0  0  0  0  0  2  0  0  0  0  0  0
  187.4080  178.2140  147.8620 C   0  0  0  0  0  2  0  0  0  0  0  0
  186.1510  178.4730  147.0640 C   0  0  0  0  0  2  0  0  0  0  0  0
  189.7360  177.5830  147.2180 C   0  0  0  0  0  2  0  0  0  0  0  0
  190.4940  176.3530  147.0540 N   0  0  0  0  0  2  0  0  0  0  0  0
  191.6650  176.6740  146.2540 C   0  0  0  0  0  2  0  0  0  0  0  0
  191.9440  175.5130  144.2000 O   0  0  0  0  0  1  0  0  0  0  0  0
  191.3150  176.6140  144.7800 C   0  0  0  0  0  3  0  0  0  0  0  0
  191.7430  177.7790  144.1450 O   0  0  0  0  0  1  0  0  0  0  0  0
  1 16  1  0  0  0  0
  1  5  1  0  0  0  0
  2  5  1  0  0  0  0
  2 17  1  1  0  0  0
  3 11  2  0  0  0  0
  3  8  1  0  0  0  0
  4  2  1  0  0  0  0
  6  4  1  0  0  0  0
  7 12  1  0  0  0  0
  8  6  2  0  0  0  0
  9  3  1  0  0  0  0
 10  7  2  0  0  0  0
 11  7  1  0  0  0  0
 12  4  2  0  0  0  0
 12  1  1  0  0  0  0
 13 11  1  0  0  0  0
 14 13  1  0  0  0  0
 16 15  1  0  0  0  0
 18 23  1  6  0  0  0
 18 21  1  0  0  0  0
 19 17  1  6  0  0  0
 19 22  1  0  0  0  0
 20 19  1  0  0  0  0
 20 18  1  0  0  0  0
 22 21  1  0  0  0  0
 24 23  1  0  0  0  0
 25 24  1  0  0  0  0
 26 27  1  0  0  0  0
 27 25  1  0  0  0  0
 28 27  1  0  0  0  0
M  END
>  <MODEL>
3

>  <REMARK>
 VINA RESULT:      -7.6      3.487      8.190
  Name = 
  8 active torsions:
  status: ('A' for Active; 'I' for Inactive)
    1  A    between atoms: N_1  and  C_18
    2  A    between atoms: C_2  and  N_19
    3  A    between atoms: C_4  and  N_20
    4  A    between atoms: C_4  and  C_25
    5  A    between atoms: C_6  and  C_23
    6  A    between atoms: C_8  and  N_19
    7  A    between atoms: O_11  and  C_17
    8  A    between atoms: N_20  and  C_23
                            x       y       z     vdW  Elec       q    Type
                         _______ _______ _______ _____ _____    ______ ____

>  <TORSDO>
F 8

$$$$
=
 OpenBabel10232409063D

 28 30  0  0  1  0  0  0  0  0999 V2000
  184.2820  178.8930  140.0320 N   0  0  0  0  0  0  0  0  0  0  0  0
  185.1020  179.0010  142.0690 C   0  0  1  0  0  3  0  0  0  0  0  0
  188.6790  177.9700  139.3590 C   0  0  0  0  0  0  0  0  0  0  0  0
  186.2030  178.6490  141.1260 C   0  0  0  0  0  0  0  0  0  0  0  0
  183.8930  178.9250  141.3360 O   0  0  0  0  0  0  0  0  0  0  0  0
  187.5130  178.4920  141.5240 C   0  0  0  0  0  3  0  0  0  0  0  0
  186.2690  178.3000  138.6480 C   0  0  0  0  0  0  0  0  0  0  0  0
  188.5960  178.1830  140.7290 C   0  0  0  0  0  3  0  0  0  0  0  0
  189.9480  177.6110  138.9220 O   0  0  0  0  0  1  0  0  0  0  0  0
  185.5050  178.2570  137.6440 O   0  0  0  0  0  0  0  0  0  0  0  0
  187.6370  178.0540  138.4010 C   0  0  0  0  0  0  0  0  0  0  0  0
  185.6640  178.5900  139.8830 C   0  0  0  0  0  0  0  0  0  0  0  0
  187.9480  177.8480  137.0420 O   0  0  0  0  0  0  0  0  0  0  0  0
  188.0480  176.5720  136.4220 C   0  0  0  0  0  1  0  0  0  0  0  0
  182.2760  179.0170  138.6440 C   0  0  0  0  0  1  0  0  0  0  0  0
  183.5620  179.7070  139.0600 C   0  0  0  0  0  2  0  0  0  0  0  0
  185.0570  178.0510  143.1700 N   0  0  0  0  0  2  0  0  0  0  0  0
  186.3800  177.6120  146.3520 C   0  0  2  0  0  3  0  0  0  0  0  0
  185.5540  178.7360  144.3530 C   0  0  2  0  0  3  0  0  0  0  0  0
  186.7380  177.9780  144.9260 C   0  0  0  0  0  2  0  0  0  0  0  0
  185.2090  178.4940  146.7270 C   0  0  0  0  0  2  0  0  0  0  0  0
  184.4840  178.7540  145.4280 C   0  0  0  0  0  2  0  0  0  0  0  0
  187.5640  177.8680  147.2700 C   0  0  0  0  0  2  0  0  0  0  0  0
  188.8130  177.6560  146.5550 N   0  0  0  0  0  2  0  0  0  0  0  0
  189.7470  177.0560  147.4930 C   0  0  0  0  0  2  0  0  0  0  0  0
  192.1010  176.7560  147.6180 O   0  0  0  0  0  1  0  0  0  0  0  0
  191.0060  176.6260  146.7640 C   0  0  0  0  0  3  0  0  0  0  0  0
  191.1980  177.4280  145.6390 O   0  0  0  0  0  1  0  0  0  0  0  0
  1  5  1  0  0  0  0
  2 17  1  1  0  0  0
  3  8  1  0  0  0  0
  4  6  1  0  0  0  0
  4  2  1  0  0  0  0
  5  2  1  0  0  0  0
  7 12  1  0  0  0  0
  8  6  2  0  0  0  0
  9  3  1  0  0  0  0
 10  7  2  0  0  0  0
 11  7  1  0  0  0  0
 11  3  2  0  0  0  0
 12  1  1  0  0  0  0
 12  4  2  0  0  0  0
 13 11  1  0  0  0  0
 14 13  1  0  0  0  0
 15 16  1  0  0  0  0
 16  1  1  0  0  0  0
 18 21  1  0  0  0  0
 18 23  1  1  0  0  0
 19 17  1  6  0  0  0
 19 20  1  0  0  0  0
 19 22  1  0  0  0  0
 20 18  1  0  0  0  0
 22 21  1  0  0  0  0
 24 23  1  0  0  0  0
 24 25  1  0  0  0  0
 27 25  1  0  0  0  0
 27 26  1  0  0  0  0
 28 27  1  0  0  0  0
M  END
>  <MODEL>
4

>  <REMARK>
 VINA RESULT:      -7.5      2.539      8.466
  Name = 
  8 active torsions:
  status: ('A' for Active; 'I' for Inactive)
    1  A    between atoms: N_1  and  C_18
    2  A    between atoms: C_2  and  N_19
    3  A    between atoms: C_4  and  N_20
    4  A    between atoms: C_4  and  C_25
    5  A    between atoms: C_6  and  C_23
    6  A    between atoms: C_8  and  N_19
    7  A    between atoms: O_11  and  C_17
    8  A    between atoms: N_20  and  C_23
                            x       y       z     vdW  Elec       q    Type
                         _______ _______ _______ _____ _____    ______ ____

>  <TORSDO>
F 8

$$$$
=
 OpenBabel10232409063D

 28 30  0  0  1  0  0  0  0  0999 V2000
  189.6440  177.4080  140.1730 N   0  0  0  0  0  0  0  0  0  0  0  0
  189.7470  176.9030  142.3100 C   0  0  1  0  0  3  0  0  0  0  0  0
  185.5190  178.6070  141.6530 C   0  0  0  0  0  0  0  0  0  0  0  0
  188.4040  177.4840  142.0170 C   0  0  0  0  0  0  0  0  0  0  0  0
  190.5370  177.0890  141.1500 O   0  0  0  0  0  0  0  0  0  0  0  0
  187.4120  177.6010  142.9660 C   0  0  0  0  0  3  0  0  0  0  0  0
  187.3490  178.3480  139.9190 C   0  0  0  0  0  0  0  0  0  0  0  0
  186.1420  178.1090  142.7890 C   0  0  0  0  0  3  0  0  0  0  0  0
  184.2380  179.0950  141.8820 O   0  0  0  0  0  1  0  0  0  0  0  0
  187.6210  178.5740  138.7060 O   0  0  0  0  0  0  0  0  0  0  0  0
  186.0450  178.6890  140.3380 C   0  0  0  0  0  0  0  0  0  0  0  0
  188.3750  177.7850  140.6960 C   0  0  0  0  0  0  0  0  0  0  0  0
  185.2220  179.1870  139.3090 O   0  0  0  0  0  0  0  0  0  0  0  0
  184.3250  178.3950  138.5400 C   0  0  0  0  0  1  0  0  0  0  0  0
  191.1230  176.0840  138.7480 C   0  0  0  0  0  1  0  0  0  0  0  0
  189.7840  176.7910  138.8580 C   0  0  0  0  0  2  0  0  0  0  0  0
  190.3660  177.5980  143.4280 N   0  0  0  0  0  2  0  0  0  0  0  0
  189.7460  177.6640  146.8460 C   0  0  2  0  0  3  0  0  0  0  0  0
  190.1610  176.7790  144.6130 C   0  0  2  0  0  3  0  0  0  0  0  0
  189.1010  177.4110  145.4970 C   0  0  0  0  0  2  0  0  0  0  0  0
  191.0020  176.8210  146.8730 C   0  0  0  0  0  2  0  0  0  0  0  0
  191.4380  176.7240  145.4300 C   0  0  0  0  0  2  0  0  0  0  0  0
  188.7980  177.2570  147.9620 C   0  0  0  0  0  2  0  0  0  0  0  0
  187.7490  178.2510  148.1220 N   0  0  0  0  0  2  0  0  0  0  0  0
  186.5680  177.7430  147.4430 C   0  0  0  0  0  2  0  0  0  0  0  0
  185.8840  180.0130  147.5900 O   0  0  0  0  0  1  0  0  0  0  0  0
  185.8260  178.8840  146.7740 C   0  0  0  0  0  3  0  0  0  0  0  0
  184.4930  178.5260  146.5730 O   0  0  0  0  0  1  0  0  0  0  0  0
  1 12  1  0  0  0  0
  1  5  1  0  0  0  0
  2 17  1  1  0  0  0
  3  9  1  0  0  0  0
  3  8  1  0  0  0  0
  4  2  1  0  0  0  0
  4  6  1  0  0  0  0
  5  2  1  0  0  0  0
  7 11  1  0  0  0  0
  7 12  1  0  0  0  0
  8  6  2  0  0  0  0
 10  7  2  0  0  0  0
 11  3  2  0  0  0  0
 12  4  2  0  0  0  0
 13 11  1  0  0  0  0
 14 13  1  0  0  0  0
 15 16  1  0  0  0  0
 16  1  1  0  0  0  0
 18 21  1  0  0  0  0
 18 23  1  1  0  0  0
 19 17  1  6  0  0  0
 19 22  1  0  0  0  0
 19 20  1  0  0  0  0
 20 18  1  0  0  0  0
 22 21  1  0  0  0  0
 23 24  1  0  0  0  0
 25 24  1  0  0  0  0
 27 25  1  0  0  0  0
 27 26  1  0  0  0  0
 28 27  1  0  0  0  0
M  END
>  <MODEL>
5

>  <REMARK>
 VINA RESULT:      -7.4      1.887      6.739
  Name = 
  8 active torsions:
  status: ('A' for Active; 'I' for Inactive)
    1  A    between atoms: N_1  and  C_18
    2  A    between atoms: C_2  and  N_19
    3  A    between atoms: C_4  and  N_20
    4  A    between atoms: C_4  and  C_25
    5  A    between atoms: C_6  and  C_23
    6  A    between atoms: C_8  and  N_19
    7  A    between atoms: O_11  and  C_17
    8  A    between atoms: N_20  and  C_23
                            x       y       z     vdW  Elec       q    Type
                         _______ _______ _______ _____ _____    ______ ____

>  <TORSDO>
F 8

$$$$
=
 OpenBabel10232409063D

 28 30  0  0  1  0  0  0  0  0999 V2000
  191.0810  177.1220  139.6310 N   0  0  0  0  0  0  0  0  0  0  0  0
  190.4880  176.8610  141.7310 C   0  0  1  0  0  3  0  0  0  0  0  0
  186.7490  178.4900  139.5920 C   0  0  0  0  0  0  0  0  0  0  0  0
  189.3280  177.4080  140.9680 C   0  0  0  0  0  0  0  0  0  0  0  0
  191.6090  176.9130  140.8680 O   0  0  0  0  0  0  0  0  0  0  0  0
  188.0930  177.6330  141.5360 C   0  0  0  0  0  3  0  0  0  0  0  0
  189.0200  178.0330  138.5640 C   0  0  0  0  0  0  0  0  0  0  0  0
  186.9640  178.1210  140.9130 C   0  0  0  0  0  3  0  0  0  0  0  0
  185.4810  179.0020  139.3490 O   0  0  0  0  0  1  0  0  0  0  0  0
  189.6690  178.1200  137.4840 O   0  0  0  0  0  0  0  0  0  0  0  0
  187.6640  178.4220  138.5100 C   0  0  0  0  0  0  0  0  0  0  0  0
  189.7280  177.5580  139.6810 C   0  0  0  0  0  0  0  0  0  0  0  0
  187.2260  178.8020  137.2270 O   0  0  0  0  0  0  0  0  0  0  0  0
  186.7540  177.8980  136.2350 C   0  0  0  0  0  1  0  0  0  0  0  0
  193.1080  176.5410  138.3960 C   0  0  0  0  0  1  0  0  0  0  0  0
  191.6050  176.3600  138.5020 C   0  0  0  0  0  2  0  0  0  0  0  0
  190.7490  177.6760  142.9080 N   0  0  0  0  0  2  0  0  0  0  0  0
  189.7640  177.8440  146.2350 C   0  0  2  0  0  3  0  0  0  0  0  0
  190.3610  176.8940  144.0710 C   0  0  2  0  0  3  0  0  0  0  0  0
  189.2560  177.6100  144.8260 C   0  0  0  0  0  2  0  0  0  0  0  0
  190.9500  176.9200  146.4090 C   0  0  0  0  0  2  0  0  0  0  0  0
  191.5340  176.7690  145.0240 C   0  0  0  0  0  2  0  0  0  0  0  0
  188.6750  177.5200  147.2430 C   0  0  0  0  0  2  0  0  0  0  0  0
  187.3930  177.3720  146.5720 N   0  0  0  0  0  2  0  0  0  0  0  0
  186.5180  178.4130  147.0870 C   0  0  0  0  0  2  0  0  0  0  0  0
  184.2920  178.7880  146.3470 O   0  0  0  0  0  1  0  0  0  0  0  0
  185.6270  178.9350  145.9750 C   0  0  0  0  0  3  0  0  0  0  0  0
  185.8630  178.2160  144.8040 O   0  0  0  0  0  1  0  0  0  0  0  0
  1 12  1  0  0  0  0
  1  5  1  0  0  0  0
  2 17  1  1  0  0  0
  3  8  1  0  0  0  0
  4  6  1  0  0  0  0
  4  2  1  0  0  0  0
  5  2  1  0  0  0  0
  7 12  1  0  0  0  0
  8  6  2  0  0  0  0
  9  3  1  0  0  0  0
 10  7  2  0  0  0  0
 11  7  1  0  0  0  0
 11  3  2  0  0  0  0
 12  4  2  0  0  0  0
 13 11  1  0  0  0  0
 14 13  1  0  0  0  0
 15 16  1  0  0  0  0
 16  1  1  0  0  0  0
 18 21  1  0  0  0  0
 18 23  1  1  0  0  0
 19 17  1  6  0  0  0
 19 20  1  0  0  0  0
 19 22  1  0  0  0  0
 20 18  1  0  0  0  0
 22 21  1  0  0  0  0
 24 25  1  0  0  0  0
 24 23  1  0  0  0  0
 27 26  1  0  0  0  0
 27 25  1  0  0  0  0
 28 27  1  0  0  0  0
M  END
>  <MODEL>
6

>  <REMARK>
 VINA RESULT:      -7.3      1.779      6.834
  Name = 
  8 active torsions:
  status: ('A' for Active; 'I' for Inactive)
    1  A    between atoms: N_1  and  C_18
    2  A    between atoms: C_2  and  N_19
    3  A    between atoms: C_4  and  N_20
    4  A    between atoms: C_4  and  C_25
    5  A    between atoms: C_6  and  C_23
    6  A    between atoms: C_8  and  N_19
    7  A    between atoms: O_11  and  C_17
    8  A    between atoms: N_20  and  C_23
                            x       y       z     vdW  Elec       q    Type
                         _______ _______ _______ _____ _____    ______ ____

>  <TORSDO>
F 8

$$$$
=
 OpenBabel10232409063D

 28 30  0  0  1  0  0  0  0  0999 V2000
  184.5850  179.0560  143.8020 N   0  0  0  0  0  0  0  0  0  0  0  0
  185.7030  178.3490  142.0470 C   0  0  1  0  0  3  0  0  0  0  0  0
  188.2830  177.2080  145.6870 C   0  0  0  0  0  0  0  0  0  0  0  0
  186.4880  178.0320  143.2760 C   0  0  0  0  0  0  0  0  0  0  0  0
  184.6290  179.1790  142.4470 O   0  0  0  0  0  0  0  0  0  0  0  0
  187.6840  177.3500  143.2500 C   0  0  0  0  0  3  0  0  0  0  0  0
  186.0620  178.4300  145.7100 C   0  0  0  0  0  0  0  0  0  0  0  0
  188.4700  177.0000  144.3280 C   0  0  0  0  0  3  0  0  0  0  0  0
  189.3380  176.7650  146.4750 O   0  0  0  0  0  1  0  0  0  0  0  0
  185.2310  178.9860  146.4810 O   0  0  0  0  0  0  0  0  0  0  0  0
  187.1780  177.8250  146.3290 C   0  0  0  0  0  0  0  0  0  0  0  0
  185.7720  178.4810  144.3360 C   0  0  0  0  0  0  0  0  0  0  0  0
  187.1620  177.8910  147.7350 O   0  0  0  0  0  0  0  0  0  0  0  0
  188.1910  178.4710  148.5270 C   0  0  0  0  0  1  0  0  0  0  0  0
  182.1680  179.0420  143.4430 C   0  0  0  0  0  1  0  0  0  0  0  0
  183.2900  178.8970  144.4550 C   0  0  0  0  0  2  0  0  0  0  0  0
  186.5320  179.0640  141.0880 N   0  0  0  0  0  2  0  0  0  0  0  0
  188.7010  178.5370  138.4270 C   0  0  2  0  0  3  0  0  0  0  0  0
  186.9860  178.0960  140.1020 C   0  0  2  0  0  3  0  0  0  0  0  0
  188.4840  178.2370  139.8970 C   0  0  0  0  0  2  0  0  0  0  0  0
  187.4120  178.1620  137.7300 C   0  0  0  0  0  2  0  0  0  0  0  0
  186.3320  178.3780  138.7630 C   0  0  0  0  0  2  0  0  0  0  0  0
  189.8630  177.7150  137.8930 C   0  0  0  0  0  2  0  0  0  0  0  0
  190.1420  176.5970  138.7810 N   0  0  0  0  0  2  0  0  0  0  0  0
  191.5820  176.3940  138.7750 C   0  0  0  0  0  2  0  0  0  0  0  0
  193.6280  177.1990  139.6750 O   0  0  0  0  0  1  0  0  0  0  0  0
  192.2490  177.4090  139.6830 C   0  0  0  0  0  3  0  0  0  0  0  0
  191.7670  177.2700  140.9840 O   0  0  0  0  0  1  0  0  0  0  0  0
  1 12  1  0  0  0  0
  1 16  1  0  0  0  0
  2 17  1  6  0  0  0
  2  5  1  0  0  0  0
  2  4  1  0  0  0  0
  3 11  2  0  0  0  0
  3  9  1  0  0  0  0
  4 12  2  0  0  0  0
  5  1  1  0  0  0  0
  6  4  1  0  0  0  0
  6  8  2  0  0  0  0
  7 11  1  0  0  0  0
  7 10  2  0  0  0  0
  8  3  1  0  0  0  0
 11 13  1  0  0  0  0
 12  7  1  0  0  0  0
 13 14  1  0  0  0  0
 15 16  1  0  0  0  0
 18 23  1  6  0  0  0
 18 20  1  0  0  0  0
 19 17  1  1  0  0  0
 20 19  1  0  0  0  0
 21 18  1  0  0  0  0
 21 22  1  0  0  0  0
 22 19  1  0  0  0  0
 23 24  1  0  0  0  0
 25 24  1  0  0  0  0
 25 27  1  0  0  0  0
 26 27  1  0  0  0  0
 27 28  1  0  0  0  0
M  END
>  <MODEL>
7

>  <REMARK>
 VINA RESULT:      -7.1      2.353      4.925
  Name = 
  8 active torsions:
  status: ('A' for Active; 'I' for Inactive)
    1  A    between atoms: N_1  and  C_18
    2  A    between atoms: C_2  and  N_19
    3  A    between atoms: C_4  and  N_20
    4  A    between atoms: C_4  and  C_25
    5  A    between atoms: C_6  and  C_23
    6  A    between atoms: C_8  and  N_19
    7  A    between atoms: O_11  and  C_17
    8  A    between atoms: N_20  and  C_23
                            x       y       z     vdW  Elec       q    Type
                         _______ _______ _______ _____ _____    ______ ____

>  <TORSDO>
F 8

$$$$
=
 OpenBabel10232409063D

 28 30  0  0  1  0  0  0  0  0999 V2000
  187.6310  178.0400  141.1190 N   0  0  0  0  0  0  0  0  0  0  0  0
  189.7570  177.5460  141.3770 C   0  0  1  0  0  3  0  0  0  0  0  0
  189.0820  177.7300  136.8250 C   0  0  0  0  0  0  0  0  0  0  0  0
  189.4510  177.6050  139.9170 C   0  0  0  0  0  0  0  0  0  0  0  0
  188.5190  177.6170  142.0600 O   0  0  0  0  0  0  0  0  0  0  0  0
  190.4070  177.4300  138.9410 C   0  0  0  0  0  3  0  0  0  0  0  0
  187.3520  178.0850  138.6420 C   0  0  0  0  0  0  0  0  0  0  0  0
  190.2240  177.4800  137.5750 C   0  0  0  0  0  3  0  0  0  0  0  0
  189.2780  177.6320  135.4530 O   0  0  0  0  0  1  0  0  0  0  0  0
  186.1230  178.3100  138.8270 O   0  0  0  0  0  0  0  0  0  0  0  0
  187.7810  178.0390  137.2980 C   0  0  0  0  0  0  0  0  0  0  0  0
  188.1360  177.9100  139.7950 C   0  0  0  0  0  0  0  0  0  0  0  0
  186.7660  178.3100  136.3600 O   0  0  0  0  0  0  0  0  0  0  0  0
  185.9340  177.3210  135.7650 C   0  0  0  0  0  1  0  0  0  0  0  0
  185.6480  178.5150  142.4640 C   0  0  0  0  0  1  0  0  0  0  0  0
  186.6580  179.0680  141.4760 C   0  0  0  0  0  2  0  0  0  0  0  0
  190.4140  176.2900  141.7040 N   0  0  0  0  0  2  0  0  0  0  0  0
  190.9290  176.9800  145.0700 C   0  0  2  0  0  3  0  0  0  0  0  0
  191.4190  176.5780  142.7160 C   0  0  2  0  0  3  0  0  0  0  0  0
  191.0470  175.8940  144.0190 C   0  0  0  0  0  2  0  0  0  0  0  0
  191.6230  178.1950  144.4940 C   0  0  0  0  0  2  0  0  0  0  0  0
  191.4540  178.0680  142.9980 C   0  0  0  0  0  2  0  0  0  0  0  0
  191.6010  176.5350  146.3580 C   0  0  0  0  0  2  0  0  0  0  0  0
  190.8420  176.9980  147.5100 N   0  0  0  0  0  2  0  0  0  0  0  0
  189.4380  176.7460  147.2280 C   0  0  0  0  0  2  0  0  0  0  0  0
  188.3010  177.8890  148.9720 O   0  0  0  0  0  1  0  0  0  0  0  0
  188.6090  177.9560  147.6140 C   0  0  0  0  0  3  0  0  0  0  0  0
  187.4280  177.9760  146.8720 O   0  0  0  0  0  1  0  0  0  0  0  0
  1 16  1  0  0  0  0
  1  5  1  0  0  0  0
  2 17  1  6  0  0  0
  2  5  1  0  0  0  0
  3 11  2  0  0  0  0
  3  8  1  0  0  0  0
  4  2  1  0  0  0  0
  6  4  1  0  0  0  0
  7 10  2  0  0  0  0
  7 12  1  0  0  0  0
  8  6  2  0  0  0  0
  9  3  1  0  0  0  0
 11  7  1  0  0  0  0
 12  4  2  0  0  0  0
 12  1  1  0  0  0  0
 13 11  1  0  0  0  0
 14 13  1  0  0  0  0
 16 15  1  0  0  0  0
 18 23  1  1  0  0  0
 19 17  1  6  0  0  0
 19 22  1  0  0  0  0
 19 20  1  0  0  0  0
 20 18  1  0  0  0  0
 21 18  1  0  0  0  0
 22 21  1  0  0  0  0
 23 24  1  0  0  0  0
 25 24  1  0  0  0  0
 25 27  1  0  0  0  0
 27 26  1  0  0  0  0
 28 27  1  0  0  0  0
M  END
>  <MODEL>
8

>  <REMARK>
 VINA RESULT:      -7.0      1.998      7.483
  Name = 
  8 active torsions:
  status: ('A' for Active; 'I' for Inactive)
    1  A    between atoms: N_1  and  C_18
    2  A    between atoms: C_2  and  N_19
    3  A    between atoms: C_4  and  N_20
    4  A    between atoms: C_4  and  C_25
    5  A    between atoms: C_6  and  C_23
    6  A    between atoms: C_8  and  N_19
    7  A    between atoms: O_11  and  C_17
    8  A    between atoms: N_20  and  C_23
                            x       y       z     vdW  Elec       q    Type
                         _______ _______ _______ _____ _____    ______ ____

>  <TORSDO>
F 8

$$$$
=
 OpenBabel10232409063D

 28 30  0  0  1  0  0  0  0  0999 V2000
  188.4300  177.6310  138.1320 N   0  0  0  0  0  0  0  0  0  0  0  0
  188.8910  177.9370  140.2590 C   0  0  1  0  0  3  0  0  0  0  0  0
  192.8330  176.5320  138.3380 C   0  0  0  0  0  0  0  0  0  0  0  0
  190.1220  177.4590  139.5640 C   0  0  0  0  0  0  0  0  0  0  0  0
  187.8240  177.8130  139.3370 O   0  0  0  0  0  0  0  0  0  0  0  0
  191.3350  177.3120  140.2000 C   0  0  0  0  0  3  0  0  0  0  0  0
  190.5980  176.8450  137.1850 C   0  0  0  0  0  0  0  0  0  0  0  0
  192.5250  176.8930  139.6430 C   0  0  0  0  0  3  0  0  0  0  0  0
  194.1420  176.0970  138.1690 O   0  0  0  0  0  1  0  0  0  0  0  0
  190.0160  176.7130  136.0720 O   0  0  0  0  0  0  0  0  0  0  0  0
  191.9760  176.5390  137.2080 C   0  0  0  0  0  0  0  0  0  0  0  0
  189.8030  177.2800  138.2590 C   0  0  0  0  0  0  0  0  0  0  0  0
  192.5060  176.1810  135.9530 O   0  0  0  0  0  0  0  0  0  0  0  0
  192.9570  174.8760  135.6110 C   0  0  0  0  0  1  0  0  0  0  0  0
  186.5450  177.8450  136.5920 C   0  0  0  0  0  1  0  0  0  0  0  0
  187.9230  178.3550  136.9700 C   0  0  0  0  0  2  0  0  0  0  0  0
  188.6160  177.1120  141.4260 N   0  0  0  0  0  2  0  0  0  0  0  0
  187.6480  177.2770  144.7580 C   0  0  2  0  0  3  0  0  0  0  0  0
  188.2560  178.0080  142.5130 C   0  0  2  0  0  3  0  0  0  0  0  0
  188.8210  177.4820  143.8210 C   0  0  0  0  0  2  0  0  0  0  0  0
  186.4960  178.0560  144.1620 C   0  0  0  0  0  2  0  0  0  0  0  0
  186.7480  178.0470  142.6720 C   0  0  0  0  0  2  0  0  0  0  0  0
  187.9900  177.7950  146.1450 C   0  0  0  0  0  2  0  0  0  0  0  0
  189.4330  177.8550  146.3190 N   0  0  0  0  0  2  0  0  0  0  0  0
  189.7740  176.9280  147.3870 C   0  0  0  0  0  2  0  0  0  0  0  0
  191.9760  177.2490  148.2180 O   0  0  0  0  0  1  0  0  0  0  0  0
  191.2340  176.5320  147.2800 C   0  0  0  0  0  3  0  0  0  0  0  0
  191.7090  176.8150  146.0000 O   0  0  0  0  0  1  0  0  0  0  0  0
  1 12  1  0  0  0  0
  1  5  1  0  0  0  0
  2 17  1  1  0  0  0
  3  8  1  0  0  0  0
  4  6  1  0  0  0  0
  4  2  1  0  0  0  0
  5  2  1  0  0  0  0
  7 11  1  0  0  0  0
  7 12  1  0  0  0  0
  8  6  2  0  0  0  0
  9  3  1  0  0  0  0
 10  7  2  0  0  0  0
 11  3  2  0  0  0  0
 12  4  2  0  0  0  0
 13 11  1  0  0  0  0
 14 13  1  0  0  0  0
 15 16  1  0  0  0  0
 16  1  1  0  0  0  0
 18 23  1  1  0  0  0
 19 17  1  6  0  0  0
 19 22  1  0  0  0  0
 19 20  1  0  0  0  0
 20 18  1  0  0  0  0
 21 18  1  0  0  0  0
 22 21  1  0  0  0  0
 23 24  1  0  0  0  0
 24 25  1  0  0  0  0
 27 25  1  0  0  0  0
 27 26  1  0  0  0  0
 28 27  1  0  0  0  0
M  END
>  <MODEL>
9

>  <REMARK>
 VINA RESULT:      -6.9      2.622      8.561
  Name = 
  8 active torsions:
  status: ('A' for Active; 'I' for Inactive)
    1  A    between atoms: N_1  and  C_18
    2  A    between atoms: C_2  and  N_19
    3  A    between atoms: C_4  and  N_20
    4  A    between atoms: C_4  and  C_25
    5  A    between atoms: C_6  and  C_23
    6  A    between atoms: C_8  and  N_19
    7  A    between atoms: O_11  and  C_17
    8  A    between atoms: N_20  and  C_23
                            x       y       z     vdW  Elec       q    Type
                         _______ _______ _______ _____ _____    ______ ____

>  <TORSDO>
F 8

$$$$
