=
 OpenBabel10232411093D

 36 40  0  0  1  0  0  0  0  0999 V2000
  183.4690  177.9200  137.8100 C   0  0  1  0  0  3  0  0  0  0  0  0
  182.1710  178.8440  144.0230 C   0  0  0  0  0  2  0  0  0  0  0  0
  185.7500  178.5670  140.6990 C   0  0  0  0  0  0  0  0  0  0  0  0
  182.3400  177.6260  136.8270 C   0  0  0  0  0  2  0  0  0  0  0  0
  181.2050  178.6490  136.9600 C   0  0  1  0  0  3  0  0  0  0  0  0
  183.5320  179.3680  139.9530 C   0  0  1  0  0  3  0  0  0  0  0  0
  181.7420  177.7010  141.8330 C   0  0  0  0  0  2  0  0  0  0  0  0
  180.9400  178.3070  140.6860 C   0  0  0  0  0  2  0  0  0  0  0  0
  182.4690  178.8360  142.5340 C   0  0  2  0  0  3  0  0  0  0  0  0
  183.9200  178.7410  142.3730 N   0  0  0  0  0  0  0  0  0  0  0  0
  188.0300  177.4280  143.1060 C   0  0  0  0  0  2  0  0  0  0  0  0
  182.9500  178.1260  139.2470 C   0  0  1  0  0  3  0  0  0  0  0  0
  184.3840  176.8670  137.7890 O   0  0  0  0  0  1  0  0  0  0  0  0
  184.4950  178.9480  141.0460 C   0  0  0  0  0  0  0  0  0  0  0  0
  186.6950  178.0860  143.0620 C   0  0  0  0  0  0  0  0  0  0  0  0
  180.8350  178.9330  138.4240 C   0  0  0  0  0  2  0  0  0  0  0  0
  186.6910  178.0540  141.6930 C   0  0  0  0  0  0  0  0  0  0  0  0
  181.4760  177.9990  139.3520 N   0  0  2  0  0  0  0  0  0  0  0  0
  188.0220  177.3790  141.6870 C   0  0  0  0  0  2  0  0  0  0  0  0
  184.0760  180.3100  139.0720 O   0  0  0  0  0  1  0  0  0  0  0  0
  183.4620  179.2780  144.6820 C   0  0  0  0  0  2  0  0  0  0  0  0
  184.5040  178.9390  143.6790 C   0  0  0  0  0  0  0  0  0  0  0  0
  185.7730  178.6270  144.0390 C   0  0  0  0  0  0  0  0  0  0  0  0
  181.5780  179.8970  136.3170 N   0  0  0  0  0  2  0  0  0  0  0  0
  181.0630  180.9810  137.1370 C   0  0  0  0  0  2  0  0  0  0  0  0
  180.9410  183.2980  136.6020 O   0  0  0  0  0  1  0  0  0  0  0  0
  180.4370  182.0450  136.2490 C   0  0  0  0  0  2  0  0  0  0  0  0
  186.2810  178.7520  145.3450 O   0  0  0  0  0  0  0  0  0  0  0  0
  187.8290  177.6870  146.8310 C   0  0  0  0  0  1  0  0  0  0  0  0
  186.4120  177.7030  146.2970 C   0  0  0  0  0  2  0  0  0  0  0  0
  186.1400  178.6630  139.3530 O   0  0  0  0  0  0  0  0  0  0  0  0
  187.4050  178.2460  138.8540 C   0  0  0  0  0  2  0  0  0  0  0  0
  187.4230  179.5660  136.8740 O   0  0  0  0  0  0  0  0  0  0  0  0
  187.5110  177.2530  136.5380 N   0  0  0  0  0  2  0  0  0  0  0  0
  187.4320  178.4090  137.3750 C   0  0  0  0  0  0  0  0  0  0  0  0
  187.5700  177.3560  135.0890 C   0  0  0  0  0  1  0  0  0  0  0  0
  1 13  1  1  0  0  0
  1 12  1  0  0  0  0
  2 21  1  0  0  0  0
  3 14  2  0  0  0  0
  3 17  1  0  0  0  0
  4  5  1  0  0  0  0
  4  1  1  0  0  0  0
  5 24  1  1  0  0  0
  5 16  1  0  0  0  0
  6 20  1  6  0  0  0
  6 14  1  0  0  0  0
  8  7  1  0  0  0  0
  9  7  1  6  0  0  0
  9  2  1  0  0  0  0
 10  9  1  0  0  0  0
 10 22  1  0  0  0  0
 12 18  1  0  0  0  0
 12  6  1  0  0  0  0
 14 10  1  0  0  0  0
 15 11  1  0  0  0  0
 15 23  1  0  0  0  0
 16 18  1  0  0  0  0
 17 15  2  0  0  0  0
 18  8  1  0  0  0  0
 19 17  1  0  0  0  0
 19 11  1  0  0  0  0
 22 23  2  0  0  0  0
 22 21  1  0  0  0  0
 23 28  1  0  0  0  0
 24 25  1  0  0  0  0
 27 26  1  0  0  0  0
 27 25  1  0  0  0  0
 28 30  1  0  0  0  0
 30 29  1  0  0  0  0
 31  3  1  0  0  0  0
 32 31  1  0  0  0  0
 33 35  2  0  0  0  0
 34 35  1  0  0  0  0
 35 32  1  0  0  0  0
 36 34  1  0  0  0  0
M  END
>  <MODEL>
1

>  <REMARK>
 VINA RESULT:      -6.7      0.000      0.000
  Name = 
  8 active torsions:
  status: ('A' for Active; 'I' for Inactive)
    1  A    between atoms: C_4  and  O_35
    2  A    between atoms: C_6  and  N_29
    3  A    between atoms: C_19  and  C_21
    4  A    between atoms: C_19  and  N_29
    5  A    between atoms: C_24  and  C_28
    6  A    between atoms: C_24  and  O_35
    7  A    between atoms: C_27  and  O_33
    8  A    between atoms: O_33  and  C_34
                            x       y       z     vdW  Elec       q    Type
                         _______ _______ _______ _____ _____    ______ ____

>  <TORSDO>
F 8

$$$$
=
 OpenBabel10232411093D

 36 40  0  0  1  0  0  0  0  0999 V2000
  189.9000  177.9290  143.9630 C   0  0  1  0  0  3  0  0  0  0  0  0
  183.7590  178.7210  145.6370 C   0  0  0  0  0  2  0  0  0  0  0  0
  186.7920  177.8860  141.8900 C   0  0  0  0  0  0  0  0  0  0  0  0
  191.0000  178.0380  145.0150 C   0  0  0  0  0  2  0  0  0  0  0  0
  190.6930  177.1660  146.2370 C   0  0  1  0  0  3  0  0  0  0  0  0
  187.4620  177.0770  144.1280 C   0  0  1  0  0  3  0  0  0  0  0  0
  186.1900  179.2910  145.8600 C   0  0  0  0  0  2  0  0  0  0  0  0
  187.2010  178.4690  146.6540 C   0  0  0  0  0  2  0  0  0  0  0  0
  185.1770  178.3260  145.2660 C   0  0  2  0  0  3  0  0  0  0  0  0
  185.2570  178.2750  143.8070 N   0  0  0  0  0  0  0  0  0  0  0  0
  184.5980  179.4420  139.6410 C   0  0  0  0  0  2  0  0  0  0  0  0
  188.4970  178.1340  144.5680 C   0  0  1  0  0  3  0  0  0  0  0  0
  190.1220  178.8740  142.9620 O   0  0  0  0  0  1  0  0  0  0  0  0
  186.4470  177.6950  143.1880 C   0  0  0  0  0  0  0  0  0  0  0  0
  184.5660  178.8890  141.0230 C   0  0  0  0  0  0  0  0  0  0  0  0
  189.2340  177.2930  146.7010 C   0  0  0  0  0  2  0  0  0  0  0  0
  185.8960  178.5700  140.9580 C   0  0  0  0  0  0  0  0  0  0  0  0
  188.5280  178.3860  146.0280 N   0  0  2  0  0  0  0  0  0  0  0  0
  185.9810  179.1260  139.5760 C   0  0  0  0  0  2  0  0  0  0  0  0
  188.0380  175.9050  143.6240 O   0  0  0  0  0  1  0  0  0  0  0  0
  182.9250  178.3810  144.4210 C   0  0  0  0  0  2  0  0  0  0  0  0
  183.9060  178.3780  143.3060 C   0  0  0  0  0  0  0  0  0  0  0  0
  183.5510  178.6830  142.0350 C   0  0  0  0  0  0  0  0  0  0  0  0
  190.9740  175.7720  145.9410 N   0  0  0  0  0  2  0  0  0  0  0  0
  192.2940  175.4720  146.4690 C   0  0  0  0  0  2  0  0  0  0  0  0
  193.1530  176.3710  148.5000 O   0  0  0  0  0  1  0  0  0  0  0  0
  192.2450  175.4430  147.9890 C   0  0  0  0  0  2  0  0  0  0  0  0
  182.2230  178.8610  141.6030 O   0  0  0  0  0  0  0  0  0  0  0  0
  180.1010  177.7780  141.3580 C   0  0  0  0  0  1  0  0  0  0  0  0
  181.4850  177.9710  140.7740 C   0  0  0  0  0  2  0  0  0  0  0  0
  188.0400  177.4210  141.4440 O   0  0  0  0  0  0  0  0  0  0  0  0
  188.6750  177.8520  140.2460 C   0  0  0  0  0  2  0  0  0  0  0  0
  190.3170  176.2590  140.8970 O   0  0  0  0  0  0  0  0  0  0  0  0
  190.4690  177.0100  138.6870 N   0  0  0  0  0  2  0  0  0  0  0  0
  189.8680  177.0040  139.9850 C   0  0  0  0  0  0  0  0  0  0  0  0
  191.6180  176.1780  138.3690 C   0  0  0  0  0  1  0  0  0  0  0  0
  1 13  1  6  0  0  0
  1 12  1  0  0  0  0
  1  4  1  0  0  0  0
  3 14  2  0  0  0  0
  4  5  1  0  0  0  0
  5 24  1  6  0  0  0
  5 16  1  0  0  0  0
  6 20  1  6  0  0  0
  6 12  1  0  0  0  0
  7  8  1  0  0  0  0
  9  2  1  6  0  0  0
  9  7  1  0  0  0  0
 10  9  1  0  0  0  0
 11 15  1  0  0  0  0
 12 18  1  0  0  0  0
 14 10  1  0  0  0  0
 14  6  1  0  0  0  0
 15 23  1  0  0  0  0
 17 15  2  0  0  0  0
 17  3  1  0  0  0  0
 18  8  1  0  0  0  0
 18 16  1  0  0  0  0
 19 11  1  0  0  0  0
 19 17  1  0  0  0  0
 21  2  1  0  0  0  0
 22 10  1  0  0  0  0
 22 21  1  0  0  0  0
 23 22  2  0  0  0  0
 24 25  1  0  0  0  0
 25 27  1  0  0  0  0
 27 26  1  0  0  0  0
 28 23  1  0  0  0  0
 30 29  1  0  0  0  0
 30 28  1  0  0  0  0
 31  3  1  0  0  0  0
 32 31  1  0  0  0  0
 34 35  1  0  0  0  0
 35 32  1  0  0  0  0
 35 33  2  0  0  0  0
 36 34  1  0  0  0  0
M  END
>  <MODEL>
2

>  <REMARK>
 VINA RESULT:      -6.5      3.388      8.243
  Name = 
  8 active torsions:
  status: ('A' for Active; 'I' for Inactive)
    1  A    between atoms: C_4  and  O_35
    2  A    between atoms: C_6  and  N_29
    3  A    between atoms: C_19  and  C_21
    4  A    between atoms: C_19  and  N_29
    5  A    between atoms: C_24  and  C_28
    6  A    between atoms: C_24  and  O_35
    7  A    between atoms: C_27  and  O_33
    8  A    between atoms: O_33  and  C_34
                            x       y       z     vdW  Elec       q    Type
                         _______ _______ _______ _____ _____    ______ ____

>  <TORSDO>
F 8

$$$$
=
 OpenBabel10232411093D

 36 40  0  0  1  0  0  0  0  0999 V2000
  188.8640  178.0910  140.5470 C   0  0  1  0  0  3  0  0  0  0  0  0
  191.5420  176.8170  146.2350 C   0  0  0  0  0  2  0  0  0  0  0  0
  187.3040  177.5080  143.8920 C   0  0  0  0  0  0  0  0  0  0  0  0
  189.7440  178.3350  139.3250 C   0  0  0  0  0  2  0  0  0  0  0  0
  190.7850  177.2220  139.1550 C   0  0  1  0  0  3  0  0  0  0  0  0
  189.1980  176.5670  142.6110 C   0  0  1  0  0  3  0  0  0  0  0  0
  191.5250  178.0110  144.0300 C   0  0  0  0  0  2  0  0  0  0  0  0
  191.9720  177.3910  142.7090 C   0  0  0  0  0  2  0  0  0  0  0  0
  190.8950  176.9090  144.8650 C   0  0  2  0  0  3  0  0  0  0  0  0
  189.4620  177.1240  145.0650 N   0  0  0  0  0  0  0  0  0  0  0  0
  185.7800  178.7240  146.8060 C   0  0  0  0  0  2  0  0  0  0  0  0
  189.6960  177.7870  141.8100 C   0  0  1  0  0  3  0  0  0  0  0  0
  188.0650  179.2120  140.7720 O   0  0  0  0  0  1  0  0  0  0  0  0
  188.5670  177.0160  143.9150 C   0  0  0  0  0  0  0  0  0  0  0  0
  187.0020  177.9650  146.4240 C   0  0  0  0  0  0  0  0  0  0  0  0
  191.4720  176.8510  140.4780 C   0  0  0  0  0  2  0  0  0  0  0  0
  186.6790  178.0530  145.0970 C   0  0  0  0  0  0  0  0  0  0  0  0
  191.1570  177.7940  141.5540 N   0  0  2  0  0  0  0  0  0  0  0  0
  185.4480  178.8290  145.4290 C   0  0  0  0  0  2  0  0  0  0  0  0
  188.3780  175.7060  141.8710 O   0  0  0  0  0  1  0  0  0  0  0  0
  190.4160  176.4590  147.1800 C   0  0  0  0  0  2  0  0  0  0  0  0
  189.1960  176.9190  146.4700 C   0  0  0  0  0  0  0  0  0  0  0  0
  188.0840  177.3150  147.1350 C   0  0  0  0  0  0  0  0  0  0  0  0
  190.1620  176.0340  138.5980 N   0  0  0  0  0  2  0  0  0  0  0  0
  190.8130  175.7560  137.3280 C   0  0  0  0  0  2  0  0  0  0  0  0
  190.0770  173.4950  137.4610 O   0  0  0  0  0  1  0  0  0  0  0  0
  191.2080  174.2890  137.2640 C   0  0  0  0  0  2  0  0  0  0  0  0
  187.8970  177.1770  148.5230 O   0  0  0  0  0  0  0  0  0  0  0  0
  189.4620  178.9280  148.9950 C   0  0  0  0  0  1  0  0  0  0  0  0
  188.3000  178.1100  149.5190 C   0  0  0  0  0  2  0  0  0  0  0  0
  186.5920  177.4980  142.6800 O   0  0  0  0  0  0  0  0  0  0  0  0
  185.1860  177.6790  142.5760 C   0  0  0  0  0  2  0  0  0  0  0  0
  185.2660  179.9460  141.8580 O   0  0  0  0  0  0  0  0  0  0  0  0
  184.2450  178.4580  140.3690 N   0  0  0  0  0  2  0  0  0  0  0  0
  184.8980  178.7670  141.6030 C   0  0  0  0  0  0  0  0  0  0  0  0
  183.9670  179.4790  139.3710 C   0  0  0  0  0  1  0  0  0  0  0  0
  1 13  1  1  0  0  0
  1 12  1  0  0  0  0
  2 21  1  0  0  0  0
  3 14  2  0  0  0  0
  3 17  1  0  0  0  0
  4  1  1  0  0  0  0
  5 24  1  1  0  0  0
  5  4  1  0  0  0  0
  5 16  1  0  0  0  0
  6 20  1  6  0  0  0
  6 14  1  0  0  0  0
  8  7  1  0  0  0  0
  9  7  1  6  0  0  0
  9 10  1  0  0  0  0
  9  2  1  0  0  0  0
 10 22  1  0  0  0  0
 12  6  1  0  0  0  0
 14 10  1  0  0  0  0
 15 11  1  0  0  0  0
 15 23  1  0  0  0  0
 16 18  1  0  0  0  0
 17 19  1  0  0  0  0
 17 15  2  0  0  0  0
 18 12  1  0  0  0  0
 18  8  1  0  0  0  0
 19 11  1  0  0  0  0
 22 23  2  0  0  0  0
 22 21  1  0  0  0  0
 23 28  1  0  0  0  0
 25 24  1  0  0  0  0
 27 25  1  0  0  0  0
 27 26  1  0  0  0  0
 28 30  1  0  0  0  0
 29 30  1  0  0  0  0
 31  3  1  0  0  0  0
 32 31  1  0  0  0  0
 34 35  1  0  0  0  0
 35 33  2  0  0  0  0
 35 32  1  0  0  0  0
 36 34  1  0  0  0  0
M  END
>  <MODEL>
3

>  <REMARK>
 VINA RESULT:      -6.5      3.246      7.488
  Name = 
  8 active torsions:
  status: ('A' for Active; 'I' for Inactive)
    1  A    between atoms: C_4  and  O_35
    2  A    between atoms: C_6  and  N_29
    3  A    between atoms: C_19  and  C_21
    4  A    between atoms: C_19  and  N_29
    5  A    between atoms: C_24  and  C_28
    6  A    between atoms: C_24  and  O_35
    7  A    between atoms: C_27  and  O_33
    8  A    between atoms: O_33  and  C_34
                            x       y       z     vdW  Elec       q    Type
                         _______ _______ _______ _____ _____    ______ ____

>  <TORSDO>
F 8

$$$$
=
 OpenBabel10232411093D

 36 40  0  0  1  0  0  0  0  0999 V2000
  183.0100  179.7520  139.0840 C   0  0  1  0  0  3  0  0  0  0  0  0
  183.9750  175.3980  134.4730 C   0  0  0  0  0  2  0  0  0  0  0  0
  186.1070  177.9140  138.0870 C   0  0  0  0  0  0  0  0  0  0  0  0
  181.6360  180.3930  139.2560 C   0  0  0  0  0  2  0  0  0  0  0  0
  180.5300  179.3330  139.3220 C   0  0  1  0  0  3  0  0  0  0  0  0
  183.7010  177.3840  138.3040 C   0  0  1  0  0  3  0  0  0  0  0  0
  182.8970  177.4950  135.3280 C   0  0  0  0  0  2  0  0  0  0  0  0
  181.6750  177.5260  136.2410 C   0  0  0  0  0  2  0  0  0  0  0  0
  183.7100  176.2640  135.6920 C   0  0  2  0  0  3  0  0  0  0  0  0
  185.0040  176.6150  136.2760 N   0  0  0  0  0  0  0  0  0  0  0  0
  189.2090  177.8140  136.4570 C   0  0  0  0  0  2  0  0  0  0  0  0
  183.0310  178.7230  137.9350 C   0  0  1  0  0  3  0  0  0  0  0  0
  183.9560  180.7470  138.8390 O   0  0  0  0  0  1  0  0  0  0  0  0
  185.0330  177.2490  137.5920 C   0  0  0  0  0  0  0  0  0  0  0  0
  187.8910  177.1260  136.3820 C   0  0  0  0  0  0  0  0  0  0  0  0
  180.6910  178.2440  138.2490 C   0  0  0  0  0  2  0  0  0  0  0  0
  187.3920  177.9080  137.3900 C   0  0  0  0  0  0  0  0  0  0  0  0
  181.7180  178.5830  137.2610 N   0  0  2  0  0  0  0  0  0  0  0  0
  188.6900  178.6360  137.4930 C   0  0  0  0  0  2  0  0  0  0  0  0
  183.7890  177.1620  139.6840 O   0  0  0  0  0  1  0  0  0  0  0  0
  185.3660  174.8410  134.6800 C   0  0  0  0  0  2  0  0  0  0  0  0
  186.0010  175.8050  135.6140 C   0  0  0  0  0  0  0  0  0  0  0  0
  187.3380  176.0250  135.6220 C   0  0  0  0  0  0  0  0  0  0  0  0
  180.5150  178.7060  140.6320 N   0  0  0  0  0  2  0  0  0  0  0  0
  180.1350  179.7240  141.5970 C   0  0  0  0  0  2  0  0  0  0  0  0
  182.0690  178.8040  142.6390 O   0  0  0  0  0  1  0  0  0  0  0  0
  180.8900  179.5060  142.8990 C   0  0  0  0  0  2  0  0  0  0  0  0
  188.2710  175.2650  134.8920 O   0  0  0  0  0  0  0  0  0  0  0  0
  188.6180  173.3330  136.2640 C   0  0  0  0  0  1  0  0  0  0  0  0
  189.2760  174.4210  135.4410 C   0  0  0  0  0  2  0  0  0  0  0  0
  185.9690  178.6270  139.2900 O   0  0  0  0  0  0  0  0  0  0  0  0
  186.8700  178.5300  140.3860 C   0  0  0  0  0  2  0  0  0  0  0  0
  185.2430  179.6650  141.7000 O   0  0  0  0  0  0  0  0  0  0  0  0
  186.4120  177.9650  142.8010 N   0  0  0  0  0  2  0  0  0  0  0  0
  186.1330  178.7730  141.6550 C   0  0  0  0  0  0  0  0  0  0  0  0
  185.7010  178.1400  144.0570 C   0  0  0  0  0  1  0  0  0  0  0  0
  1 13  1  6  0  0  0
  1  4  1  0  0  0  0
  2 21  1  0  0  0  0
  3 31  1  0  0  0  0
  4  5  1  0  0  0  0
  5 24  1  1  0  0  0
  6 20  1  1  0  0  0
  7  9  1  0  0  0  0
  7  8  1  0  0  0  0
  8 18  1  0  0  0  0
  9  2  1  6  0  0  0
  9 10  1  0  0  0  0
 10 14  1  0  0  0  0
 11 19  1  0  0  0  0
 12  6  1  0  0  0  0
 12  1  1  0  0  0  0
 14  3  2  0  0  0  0
 14  6  1  0  0  0  0
 15 11  1  0  0  0  0
 15 17  2  0  0  0  0
 16  5  1  0  0  0  0
 17 19  1  0  0  0  0
 17  3  1  0  0  0  0
 18 12  1  0  0  0  0
 18 16  1  0  0  0  0
 21 22  1  0  0  0  0
 22 23  2  0  0  0  0
 22 10  1  0  0  0  0
 23 15  1  0  0  0  0
 24 25  1  0  0  0  0
 25 27  1  0  0  0  0
 26 27  1  0  0  0  0
 28 30  1  0  0  0  0
 28 23  1  0  0  0  0
 30 29  1  0  0  0  0
 31 32  1  0  0  0  0
 32 35  1  0  0  0  0
 34 36  1  0  0  0  0
 35 33  2  0  0  0  0
 35 34  1  0  0  0  0
M  END
>  <MODEL>
4

>  <REMARK>
 VINA RESULT:      -6.0      2.197      6.437
  Name = 
  8 active torsions:
  status: ('A' for Active; 'I' for Inactive)
    1  A    between atoms: C_4  and  O_35
    2  A    between atoms: C_6  and  N_29
    3  A    between atoms: C_19  and  C_21
    4  A    between atoms: C_19  and  N_29
    5  A    between atoms: C_24  and  C_28
    6  A    between atoms: C_24  and  O_35
    7  A    between atoms: C_27  and  O_33
    8  A    between atoms: O_33  and  C_34
                            x       y       z     vdW  Elec       q    Type
                         _______ _______ _______ _____ _____    ______ ____

>  <TORSDO>
F 8

$$$$
=
 OpenBabel10232411093D

 36 40  0  0  1  0  0  0  0  0999 V2000
  191.9750  175.6550  135.8470 C   0  0  1  0  0  3  0  0  0  0  0  0
  191.5460  177.7440  141.8960 C   0  0  0  0  0  2  0  0  0  0  0  0
  188.9810  176.4680  137.9300 C   0  0  0  0  0  0  0  0  0  0  0  0
  193.3430  175.4400  135.2060 C   0  0  0  0  0  2  0  0  0  0  0  0
  194.2490  174.5860  136.1010 C   0  0  1  0  0  3  0  0  0  0  0  0
  191.1750  175.3850  138.2920 C   0  0  1  0  0  3  0  0  0  0  0  0
  192.6640  177.7190  139.6520 C   0  0  0  0  0  2  0  0  0  0  0  0
  193.6300  176.6350  139.1810 C   0  0  0  0  0  2  0  0  0  0  0  0
  191.6300  177.0550  140.5460 C   0  0  2  0  0  3  0  0  0  0  0  0
  190.2950  177.0800  139.9510 N   0  0  0  0  0  0  0  0  0  0  0  0
  186.3650  178.6310  138.8070 C   0  0  0  0  0  2  0  0  0  0  0  0
  192.0870  176.1420  137.3050 C   0  0  1  0  0  3  0  0  0  0  0  0
  191.2550  176.5850  135.0960 O   0  0  0  0  0  1  0  0  0  0  0  0
  190.0420  176.2800  138.7550 C   0  0  0  0  0  0  0  0  0  0  0  0
  187.5590  178.0140  139.4470 C   0  0  0  0  0  0  0  0  0  0  0  0
  194.2010  175.0190  137.5750 C   0  0  0  0  0  2  0  0  0  0  0  0
  187.9080  177.3990  138.2740 C   0  0  0  0  0  0  0  0  0  0  0  0
  193.4910  176.2870  137.7600 N   0  0  2  0  0  0  0  0  0  0  0  0
  186.7320  178.0070  137.5850 C   0  0  0  0  0  2  0  0  0  0  0  0
  190.7350  174.1450  137.8110 O   0  0  0  0  0  1  0  0  0  0  0  0
  190.0830  177.6850  142.2780 C   0  0  0  0  0  2  0  0  0  0  0  0
  189.3820  177.5250  140.9790 C   0  0  0  0  0  0  0  0  0  0  0  0
  188.1230  177.9840  140.7800 C   0  0  0  0  0  0  0  0  0  0  0  0
  193.8710  173.1870  136.0070 N   0  0  0  0  0  2  0  0  0  0  0  0
  195.0700  172.3960  136.2310 C   0  0  0  0  0  2  0  0  0  0  0  0
  195.4280  171.6880  138.4760 O   0  0  0  0  0  1  0  0  0  0  0  0
  194.7960  171.3330  137.2830 C   0  0  0  0  0  2  0  0  0  0  0  0
  187.2940  178.4930  141.7980 O   0  0  0  0  0  0  0  0  0  0  0  0
  185.2060  178.3140  142.9580 C   0  0  0  0  0  1  0  0  0  0  0  0
  186.5880  177.7260  142.7650 C   0  0  0  0  0  2  0  0  0  0  0  0
  188.9270  175.7550  136.7210 O   0  0  0  0  0  0  0  0  0  0  0  0
  187.7230  175.4120  136.0470 C   0  0  0  0  0  2  0  0  0  0  0  0
  187.8680  173.1170  136.6600 O   0  0  0  0  0  0  0  0  0  0  0  0
  185.8530  174.1750  137.2030 N   0  0  0  0  0  2  0  0  0  0  0  0
  187.1650  174.1640  136.6340 C   0  0  0  0  0  0  0  0  0  0  0  0
  185.2710  172.9910  137.8150 C   0  0  0  0  0  1  0  0  0  0  0  0
  1 13  1  6  0  0  0
  1 12  1  0  0  0  0
  2 21  1  0  0  0  0
  3 17  1  0  0  0  0
  3 14  2  0  0  0  0
  4  1  1  0  0  0  0
  4  5  1  0  0  0  0
  5 24  1  1  0  0  0
  5 16  1  0  0  0  0
  6 20  1  6  0  0  0
  6 14  1  0  0  0  0
  8  7  1  0  0  0  0
  9  7  1  6  0  0  0
  9  2  1  0  0  0  0
 10  9  1  0  0  0  0
 10 22  1  0  0  0  0
 11 15  1  0  0  0  0
 12 18  1  0  0  0  0
 12  6  1  0  0  0  0
 14 10  1  0  0  0  0
 15 23  1  0  0  0  0
 16 18  1  0  0  0  0
 17 15  2  0  0  0  0
 18  8  1  0  0  0  0
 19 17  1  0  0  0  0
 19 11  1  0  0  0  0
 22 21  1  0  0  0  0
 23 22  2  0  0  0  0
 23 28  1  0  0  0  0
 24 25  1  0  0  0  0
 25 27  1  0  0  0  0
 27 26  1  0  0  0  0
 28 30  1  0  0  0  0
 30 29  1  0  0  0  0
 31  3  1  0  0  0  0
 32 35  1  0  0  0  0
 32 31  1  0  0  0  0
 34 36  1  0  0  0  0
 35 33  2  0  0  0  0
 35 34  1  0  0  0  0
M  END
>  <MODEL>
5

>  <REMARK>
 VINA RESULT:      -5.9      5.101      9.337
  Name = 
  8 active torsions:
  status: ('A' for Active; 'I' for Inactive)
    1  A    between atoms: C_4  and  O_35
    2  A    between atoms: C_6  and  N_29
    3  A    between atoms: C_19  and  C_21
    4  A    between atoms: C_19  and  N_29
    5  A    between atoms: C_24  and  C_28
    6  A    between atoms: C_24  and  O_35
    7  A    between atoms: C_27  and  O_33
    8  A    between atoms: O_33  and  C_34
                            x       y       z     vdW  Elec       q    Type
                         _______ _______ _______ _____ _____    ______ ____

>  <TORSDO>
F 8

$$$$
=
 OpenBabel10232411093D

 36 40  0  0  1  0  0  0  0  0999 V2000
  190.1390  175.6280  137.4010 C   0  0  1  0  0  3  0  0  0  0  0  0
  184.6650  178.7900  138.4940 C   0  0  0  0  0  2  0  0  0  0  0  0
  188.8780  177.3080  140.4920 C   0  0  0  0  0  0  0  0  0  0  0  0
  190.3940  174.9880  136.0400 C   0  0  0  0  0  2  0  0  0  0  0  0
  190.1490  175.9830  134.9000 C   0  0  1  0  0  3  0  0  0  0  0  0
  188.8440  177.7690  138.0630 C   0  0  1  0  0  3  0  0  0  0  0  0
  185.9480  176.9140  137.4340 C   0  0  0  0  0  2  0  0  0  0  0  0
  186.7820  177.0490  136.1630 C   0  0  0  0  0  2  0  0  0  0  0  0
  186.0430  178.2310  138.1870 C   0  0  2  0  0  3  0  0  0  0  0  0
  186.7560  178.0860  139.4560 N   0  0  0  0  0  0  0  0  0  0  0  0
  187.4240  177.1500  143.6780 C   0  0  0  0  0  2  0  0  0  0  0  0
  188.7780  176.3520  137.4570 C   0  0  1  0  0  3  0  0  0  0  0  0
  190.1870  174.6460  138.3900 O   0  0  0  0  0  1  0  0  0  0  0  0
  188.1860  177.7870  139.4290 C   0  0  0  0  0  0  0  0  0  0  0  0
  187.1210  177.7420  142.3460 C   0  0  0  0  0  0  0  0  0  0  0  0
  188.8540  176.7900  135.0890 C   0  0  0  0  0  2  0  0  0  0  0  0
  188.2630  177.2030  141.8140 C   0  0  0  0  0  0  0  0  0  0  0  0
  188.0280  176.2690  136.1800 N   0  0  2  0  0  0  0  0  0  0  0  0
  188.6010  176.5780  143.1260 C   0  0  0  0  0  2  0  0  0  0  0  0
  190.1320  178.3180  138.0650 O   0  0  0  0  0  1  0  0  0  0  0  0
  184.7990  179.4410  139.8540 C   0  0  0  0  0  2  0  0  0  0  0  0
  185.9670  178.7570  140.4630 C   0  0  0  0  0  0  0  0  0  0  0  0
  186.0920  178.6040  141.8040 C   0  0  0  0  0  0  0  0  0  0  0  0
  191.2670  176.9040  134.7910 N   0  0  0  0  0  2  0  0  0  0  0  0
  192.4200  176.1390  134.3470 C   0  0  0  0  0  2  0  0  0  0  0  0
  194.2190  175.2120  135.6010 O   0  0  0  0  0  1  0  0  0  0  0  0
  193.6040  176.4170  135.2590 C   0  0  0  0  0  2  0  0  0  0  0  0
  185.2470  179.2070  142.7540 O   0  0  0  0  0  0  0  0  0  0  0  0
  184.0020  179.0630  144.7950 C   0  0  0  0  0  1  0  0  0  0  0  0
  184.1020  178.6120  143.3530 C   0  0  0  0  0  2  0  0  0  0  0  0
  190.2100  176.8990  140.3080 O   0  0  0  0  0  0  0  0  0  0  0  0
  191.3440  177.6620  140.6990 C   0  0  0  0  0  2  0  0  0  0  0  0
  191.9820  176.3890  142.6050 O   0  0  0  0  0  0  0  0  0  0  0  0
  191.3690  178.6040  143.0380 N   0  0  0  0  0  2  0  0  0  0  0  0
  191.5730  177.4950  142.1590 C   0  0  0  0  0  0  0  0  0  0  0  0
  191.6060  178.5040  144.4690 C   0  0  0  0  0  1  0  0  0  0  0  0
  1 12  1  0  0  0  0
  1 13  1  1  0  0  0
  2 21  1  0  0  0  0
  3 17  1  0  0  0  0
  4  1  1  0  0  0  0
  5 24  1  1  0  0  0
  5 16  1  0  0  0  0
  5  4  1  0  0  0  0
  6 20  1  1  0  0  0
  6 14  1  0  0  0  0
  8 18  1  0  0  0  0
  8  7  1  0  0  0  0
  9  7  1  1  0  0  0
  9  2  1  0  0  0  0
  9 10  1  0  0  0  0
 10 22  1  0  0  0  0
 12  6  1  0  0  0  0
 14 10  1  0  0  0  0
 14  3  2  0  0  0  0
 15 11  1  0  0  0  0
 16 18  1  0  0  0  0
 17 15  2  0  0  0  0
 17 19  1  0  0  0  0
 18 12  1  0  0  0  0
 19 11  1  0  0  0  0
 21 22  1  0  0  0  0
 22 23  2  0  0  0  0
 23 15  1  0  0  0  0
 23 28  1  0  0  0  0
 25 24  1  0  0  0  0
 25 27  1  0  0  0  0
 27 26  1  0  0  0  0
 28 30  1  0  0  0  0
 30 29  1  0  0  0  0
 31  3  1  0  0  0  0
 31 32  1  0  0  0  0
 32 35  1  0  0  0  0
 34 36  1  0  0  0  0
 35 33  2  0  0  0  0
 35 34  1  0  0  0  0
M  END
>  <MODEL>
6

>  <REMARK>
 VINA RESULT:      -5.8      3.504      7.131
  Name = 
  8 active torsions:
  status: ('A' for Active; 'I' for Inactive)
    1  A    between atoms: C_4  and  O_35
    2  A    between atoms: C_6  and  N_29
    3  A    between atoms: C_19  and  C_21
    4  A    between atoms: C_19  and  N_29
    5  A    between atoms: C_24  and  C_28
    6  A    between atoms: C_24  and  O_35
    7  A    between atoms: C_27  and  O_33
    8  A    between atoms: O_33  and  C_34
                            x       y       z     vdW  Elec       q    Type
                         _______ _______ _______ _____ _____    ______ ____

>  <TORSDO>
F 8

$$$$
=
 OpenBabel10232411093D

 36 40  0  0  1  0  0  0  0  0999 V2000
  186.8470  177.7020  138.2120 C   0  0  1  0  0  3  0  0  0  0  0  0
  191.6210  175.8540  134.3470 C   0  0  0  0  0  2  0  0  0  0  0  0
  190.3230  176.5830  139.0070 C   0  0  0  0  0  0  0  0  0  0  0  0
  185.5170  178.1600  137.6200 C   0  0  0  0  0  2  0  0  0  0  0  0
  184.9810  177.1480  136.6020 C   0  0  1  0  0  3  0  0  0  0  0  0
  188.5590  175.9410  137.3980 C   0  0  1  0  0  3  0  0  0  0  0  0
  189.6610  177.3270  134.8710 C   0  0  0  0  0  2  0  0  0  0  0  0
  188.2020  176.9170  134.6950 C   0  0  0  0  0  2  0  0  0  0  0  0
  190.4410  176.0860  135.2730 C   0  0  2  0  0  3  0  0  0  0  0  0
  190.9590  176.1820  136.6370 N   0  0  0  0  0  0  0  0  0  0  0  0
  193.6310  177.3030  139.9180 C   0  0  0  0  0  2  0  0  0  0  0  0
  187.8550  177.2850  137.1210 C   0  0  1  0  0  3  0  0  0  0  0  0
  187.3890  178.7310  138.9820 O   0  0  0  0  0  1  0  0  0  0  0  0
  190.0150  176.1720  137.7520 C   0  0  0  0  0  0  0  0  0  0  0  0
  192.9010  176.6800  138.7790 C   0  0  0  0  0  0  0  0  0  0  0  0
  186.0670  176.6480  135.6380 C   0  0  0  0  0  2  0  0  0  0  0  0
  191.6950  176.9220  139.3800 C   0  0  0  0  0  0  0  0  0  0  0  0
  187.3080  177.4180  135.7490 N   0  0  2  0  0  0  0  0  0  0  0  0
  192.3810  177.5690  140.5370 C   0  0  0  0  0  2  0  0  0  0  0  0
  187.8870  175.1370  138.3270 O   0  0  0  0  0  1  0  0  0  0  0  0
  192.7160  175.3040  135.2340 C   0  0  0  0  0  2  0  0  0  0  0  0
  192.3450  175.7760  136.5920 C   0  0  0  0  0  0  0  0  0  0  0  0
  193.2740  176.0100  137.5510 C   0  0  0  0  0  0  0  0  0  0  0  0
  184.3990  176.0080  137.2900 N   0  0  0  0  0  2  0  0  0  0  0  0
  184.9640  174.8070  136.6970 C   0  0  0  0  0  2  0  0  0  0  0  0
  185.4580  172.9770  138.1380 O   0  0  0  0  0  1  0  0  0  0  0  0
  184.4280  173.5780  137.4140 C   0  0  0  0  0  2  0  0  0  0  0  0
  194.6370  175.6770  137.4340 O   0  0  0  0  0  0  0  0  0  0  0  0
  195.5850  174.0040  138.8620 C   0  0  0  0  0  1  0  0  0  0  0  0
  195.1820  174.3630  137.4470 C   0  0  0  0  0  2  0  0  0  0  0  0
  189.2940  176.6890  139.9580 O   0  0  0  0  0  0  0  0  0  0  0  0
  189.2770  177.6370  141.0170 C   0  0  0  0  0  2  0  0  0  0  0  0
  189.2620  175.8980  142.6410 O   0  0  0  0  0  0  0  0  0  0  0  0
  187.7390  177.6330  143.0160 N   0  0  0  0  0  2  0  0  0  0  0  0
  188.7630  176.9900  142.2540 C   0  0  0  0  0  0  0  0  0  0  0  0
  187.2220  177.0590  144.2480 C   0  0  0  0  0  1  0  0  0  0  0  0
  1 13  1  6  0  0  0
  2 21  1  0  0  0  0
  3 17  1  0  0  0  0
  3 31  1  0  0  0  0
  4  1  1  0  0  0  0
  5 24  1  1  0  0  0
  5  4  1  0  0  0  0
  6 14  1  0  0  0  0
  6 20  1  1  0  0  0
  7  9  1  0  0  0  0
  8  7  1  0  0  0  0
  8 18  1  0  0  0  0
  9  2  1  6  0  0  0
  9 10  1  0  0  0  0
 10 14  1  0  0  0  0
 11 19  1  0  0  0  0
 12  6  1  0  0  0  0
 12  1  1  0  0  0  0
 14  3  2  0  0  0  0
 15 17  2  0  0  0  0
 15 11  1  0  0  0  0
 16 18  1  0  0  0  0
 16  5  1  0  0  0  0
 17 19  1  0  0  0  0
 18 12  1  0  0  0  0
 21 22  1  0  0  0  0
 22 10  1  0  0  0  0
 22 23  2  0  0  0  0
 23 15  1  0  0  0  0
 25 24  1  0  0  0  0
 25 27  1  0  0  0  0
 27 26  1  0  0  0  0
 28 30  1  0  0  0  0
 28 23  1  0  0  0  0
 30 29  1  0  0  0  0
 31 32  1  0  0  0  0
 32 35  1  0  0  0  0
 34 36  1  0  0  0  0
 35 33  2  0  0  0  0
 35 34  1  0  0  0  0
M  END
>  <MODEL>
7

>  <REMARK>
 VINA RESULT:      -5.7      4.256      8.295
  Name = 
  8 active torsions:
  status: ('A' for Active; 'I' for Inactive)
    1  A    between atoms: C_4  and  O_35
    2  A    between atoms: C_6  and  N_29
    3  A    between atoms: C_19  and  C_21
    4  A    between atoms: C_19  and  N_29
    5  A    between atoms: C_24  and  C_28
    6  A    between atoms: C_24  and  O_35
    7  A    between atoms: C_27  and  O_33
    8  A    between atoms: O_33  and  C_34
                            x       y       z     vdW  Elec       q    Type
                         _______ _______ _______ _____ _____    ______ ____

>  <TORSDO>
F 8

$$$$
=
 OpenBabel10232411093D

 36 40  0  0  1  0  0  0  0  0999 V2000
  188.6990  176.8550  143.0320 C   0  0  1  0  0  3  0  0  0  0  0  0
  190.2500  177.3940  136.8320 C   0  0  0  0  0  2  0  0  0  0  0  0
  186.7820  178.2900  140.1630 C   0  0  0  0  0  0  0  0  0  0  0  0
  189.6590  176.1780  144.0060 C   0  0  0  0  0  2  0  0  0  0  0  0
  191.0740  176.7560  143.8870 C   0  0  1  0  0  3  0  0  0  0  0  0
  189.1370  178.2770  140.9150 C   0  0  1  0  0  3  0  0  0  0  0  0
  190.2590  176.1340  139.0000 C   0  0  0  0  0  2  0  0  0  0  0  0
  191.2170  176.4110  140.1550 C   0  0  0  0  0  2  0  0  0  0  0  0
  189.9630  177.4610  138.3210 C   0  0  2  0  0  3  0  0  0  0  0  0
  188.5660  177.8620  138.4860 N   0  0  0  0  0  0  0  0  0  0  0  0
  184.2570  178.0370  137.7440 C   0  0  0  0  0  2  0  0  0  0  0  0
  189.2610  176.8980  141.5970 C   0  0  1  0  0  3  0  0  0  0  0  0
  187.4800  176.1760  143.0380 O   0  0  0  0  0  1  0  0  0  0  0  0
  188.0920  178.2280  139.8180 C   0  0  0  0  0  0  0  0  0  0  0  0
  185.7350  178.2020  137.7950 C   0  0  0  0  0  0  0  0  0  0  0  0
  191.5230  176.9230  142.4270 C   0  0  0  0  0  2  0  0  0  0  0  0
  185.7250  178.1450  139.1630 C   0  0  0  0  0  0  0  0  0  0  0  0
  190.6040  176.2800  141.4840 N   0  0  2  0  0  0  0  0  0  0  0  0
  184.2440  177.9630  139.1630 C   0  0  0  0  0  2  0  0  0  0  0  0
  188.9440  179.3320  141.8150 O   0  0  0  0  0  1  0  0  0  0  0  0
  189.1850  178.2530  136.1860 C   0  0  0  0  0  2  0  0  0  0  0  0
  188.0870  178.2700  137.1860 C   0  0  0  0  0  0  0  0  0  0  0  0
  186.7890  178.4140  136.8250 C   0  0  0  0  0  0  0  0  0  0  0  0
  191.1460  178.0450  144.5530 N   0  0  0  0  0  2  0  0  0  0  0  0
  190.8130  177.8310  145.9520 C   0  0  0  0  0  2  0  0  0  0  0  0
  191.9780  176.9140  147.8150 O   0  0  0  0  0  1  0  0  0  0  0  0
  191.6080  176.6540  146.4950 C   0  0  0  0  0  2  0  0  0  0  0  0
  186.3570  178.7280  135.5230 O   0  0  0  0  0  0  0  0  0  0  0  0
  185.2850  176.9000  134.4070 C   0  0  0  0  0  1  0  0  0  0  0  0
  186.4410  177.8780  134.3850 C   0  0  0  0  0  2  0  0  0  0  0  0
  186.4440  178.4890  141.5130 O   0  0  0  0  0  0  0  0  0  0  0  0
  185.6070  179.5380  141.9820 C   0  0  0  0  0  2  0  0  0  0  0  0
  183.7190  178.2810  142.6990 O   0  0  0  0  0  0  0  0  0  0  0  0
  184.9500  179.3030  144.4060 N   0  0  0  0  0  2  0  0  0  0  0  0
  184.6920  179.0110  143.0300 C   0  0  0  0  0  0  0  0  0  0  0  0
  184.1050  178.7880  145.4720 C   0  0  0  0  0  1  0  0  0  0  0  0
  1 13  1  6  0  0  0
  1  4  1  0  0  0  0
  3 31  1  0  0  0  0
  5  4  1  0  0  0  0
  5 24  1  6  0  0  0
  6 12  1  0  0  0  0
  6 20  1  1  0  0  0
  7  8  1  0  0  0  0
  8 18  1  0  0  0  0
  9  2  1  6  0  0  0
  9 10  1  0  0  0  0
  9  7  1  0  0  0  0
 10 14  1  0  0  0  0
 11 15  1  0  0  0  0
 11 19  1  0  0  0  0
 12  1  1  0  0  0  0
 14  3  2  0  0  0  0
 14  6  1  0  0  0  0
 15 17  2  0  0  0  0
 16  5  1  0  0  0  0
 17  3  1  0  0  0  0
 18 12  1  0  0  0  0
 18 16  1  0  0  0  0
 19 17  1  0  0  0  0
 21  2  1  0  0  0  0
 21 22  1  0  0  0  0
 22 10  1  0  0  0  0
 23 22  2  0  0  0  0
 23 15  1  0  0  0  0
 24 25  1  0  0  0  0
 25 27  1  0  0  0  0
 27 26  1  0  0  0  0
 28 23  1  0  0  0  0
 30 29  1  0  0  0  0
 30 28  1  0  0  0  0
 31 32  1  0  0  0  0
 32 35  1  0  0  0  0
 33 35  2  0  0  0  0
 34 36  1  0  0  0  0
 35 34  1  0  0  0  0
M  END
>  <MODEL>
8

>  <REMARK>
 VINA RESULT:      -5.6      3.199      9.188
  Name = 
  8 active torsions:
  status: ('A' for Active; 'I' for Inactive)
    1  A    between atoms: C_4  and  O_35
    2  A    between atoms: C_6  and  N_29
    3  A    between atoms: C_19  and  C_21
    4  A    between atoms: C_19  and  N_29
    5  A    between atoms: C_24  and  C_28
    6  A    between atoms: C_24  and  O_35
    7  A    between atoms: C_27  and  O_33
    8  A    between atoms: O_33  and  C_34
                            x       y       z     vdW  Elec       q    Type
                         _______ _______ _______ _____ _____    ______ ____

>  <TORSDO>
F 8

$$$$
=
 OpenBabel10232411093D

 36 40  0  0  1  0  0  0  0  0999 V2000
  190.5920  177.7570  144.1940 C   0  0  1  0  0  3  0  0  0  0  0  0
  184.2970  178.4290  143.1560 C   0  0  0  0  0  2  0  0  0  0  0  0
  188.6120  177.5310  141.0320 C   0  0  0  0  0  0  0  0  0  0  0  0
  191.1600  177.9460  145.5970 C   0  0  0  0  0  2  0  0  0  0  0  0
  190.3870  177.1170  146.6290 C   0  0  1  0  0  3  0  0  0  0  0  0
  188.3110  176.8390  143.3870 C   0  0  1  0  0  3  0  0  0  0  0  0
  186.4160  179.0830  144.3280 C   0  0  0  0  0  2  0  0  0  0  0  0
  187.0180  178.3270  145.5080 C   0  0  0  0  0  2  0  0  0  0  0  0
  185.7470  178.0630  143.4220 C   0  0  2  0  0  3  0  0  0  0  0  0
  186.4210  177.9530  142.1290 N   0  0  0  0  0  0  0  0  0  0  0  0
  187.5210  178.9220  138.0050 C   0  0  0  0  0  2  0  0  0  0  0  0
  189.0620  177.9450  144.1570 C   0  0  1  0  0  3  0  0  0  0  0  0
  191.1960  178.6660  143.3250 O   0  0  0  0  0  1  0  0  0  0  0  0
  187.7660  177.3850  142.0820 C   0  0  0  0  0  0  0  0  0  0  0  0
  186.9290  178.4280  139.2780 C   0  0  0  0  0  0  0  0  0  0  0  0
  188.8640  177.2180  146.4460 C   0  0  0  0  0  2  0  0  0  0  0  0
  188.1720  178.1470  139.7810 C   0  0  0  0  0  0  0  0  0  0  0  0
  188.4870  178.2600  145.4880 N   0  0  2  0  0  0  0  0  0  0  0  0
  188.8120  178.6460  138.5290 C   0  0  0  0  0  2  0  0  0  0  0  0
  189.0570  175.6650  143.2240 O   0  0  0  0  0  1  0  0  0  0  0  0
  184.0420  178.0120  141.7240 C   0  0  0  0  0  2  0  0  0  0  0  0
  185.3950  177.9930  141.1120 C   0  0  0  0  0  0  0  0  0  0  0  0
  185.5900  178.2320  139.7930 C   0  0  0  0  0  0  0  0  0  0  0  0
  190.7800  175.7200  146.5450 N   0  0  0  0  0  2  0  0  0  0  0  0
  192.2250  175.6650  146.6970 C   0  0  0  0  0  2  0  0  0  0  0  0
  192.8920  176.7820  148.6920 O   0  0  0  0  0  1  0  0  0  0  0  0
  192.5820  175.5260  148.1690 C   0  0  0  0  0  2  0  0  0  0  0  0
  184.5560  178.3510  138.8460 O   0  0  0  0  0  0  0  0  0  0  0  0
  183.5060  177.6250  136.8190 C   0  0  0  0  0  1  0  0  0  0  0  0
  183.8330  177.2770  138.2560 C   0  0  0  0  0  2  0  0  0  0  0  0
  189.9390  177.0870  141.1620 O   0  0  0  0  0  0  0  0  0  0  0  0
  191.0340  177.6040  140.4180 C   0  0  0  0  0  2  0  0  0  0  0  0
  190.6730  175.6640  139.0890 O   0  0  0  0  0  0  0  0  0  0  0  0
  192.7070  176.7620  138.7280 N   0  0  0  0  0  2  0  0  0  0  0  0
  191.4490  176.6100  139.3920 C   0  0  0  0  0  0  0  0  0  0  0  0
  193.1480  175.8360  137.6980 C   0  0  0  0  0  1  0  0  0  0  0  0
  1 13  1  6  0  0  0
  1  4  1  0  0  0  0
  3 31  1  0  0  0  0
  3 14  2  0  0  0  0
  4  5  1  0  0  0  0
  5 24  1  6  0  0  0
  6 20  1  6  0  0  0
  6 12  1  0  0  0  0
  7  8  1  0  0  0  0
  9  2  1  6  0  0  0
  9  7  1  0  0  0  0
 10  9  1  0  0  0  0
 11 19  1  0  0  0  0
 11 15  1  0  0  0  0
 12  1  1  0  0  0  0
 12 18  1  0  0  0  0
 14 10  1  0  0  0  0
 14  6  1  0  0  0  0
 15 17  2  0  0  0  0
 15 23  1  0  0  0  0
 16  5  1  0  0  0  0
 17  3  1  0  0  0  0
 18  8  1  0  0  0  0
 18 16  1  0  0  0  0
 19 17  1  0  0  0  0
 21  2  1  0  0  0  0
 22 21  1  0  0  0  0
 22 10  1  0  0  0  0
 23 22  2  0  0  0  0
 24 25  1  0  0  0  0
 25 27  1  0  0  0  0
 27 26  1  0  0  0  0
 28 23  1  0  0  0  0
 29 30  1  0  0  0  0
 30 28  1  0  0  0  0
 32 31  1  0  0  0  0
 33 35  2  0  0  0  0
 34 35  1  0  0  0  0
 35 32  1  0  0  0  0
 36 34  1  0  0  0  0
M  END
>  <MODEL>
9

>  <REMARK>
 VINA RESULT:      -5.6      3.617      8.565
  Name = 
  8 active torsions:
  status: ('A' for Active; 'I' for Inactive)
    1  A    between atoms: C_4  and  O_35
    2  A    between atoms: C_6  and  N_29
    3  A    between atoms: C_19  and  C_21
    4  A    between atoms: C_19  and  N_29
    5  A    between atoms: C_24  and  C_28
    6  A    between atoms: C_24  and  O_35
    7  A    between atoms: C_27  and  O_33
    8  A    between atoms: O_33  and  C_34
                            x       y       z     vdW  Elec       q    Type
                         _______ _______ _______ _____ _____    ______ ____

>  <TORSDO>
F 8

$$$$
