=
 OpenBabel10222421363D

 43 47  0  0  1  0  0  0  0  0999 V2000
  190.2580  175.5900  138.0920 C   0  0  0  0  0  2  0  0  0  0  0  0
  191.3820  174.6110  134.4700 C   0  0  0  0  0  0  0  0  0  0  0  0
  190.0870  175.1090  134.6400 C   0  0  0  0  0  3  0  0  0  0  0  0
  190.5010  172.3560  134.3920 C   0  0  0  0  0  3  0  0  0  0  0  0
  187.5940  176.8930  136.2180 C   0  0  1  0  0  3  0  0  0  0  0  0
  187.4160  178.4580  139.8390 C   0  0  2  0  0  3  0  0  0  0  0  0
  186.7110  173.9500  135.2740 O   0  0  0  0  0  0  0  0  0  0  0  0
  186.4140  178.1350  143.2840 C   0  0  0  0  0  2  0  0  0  0  0  0
  186.0210  177.2890  138.1230 C   0  0  0  0  0  2  0  0  0  0  0  0
  192.4550  176.0730  136.9930 C   0  0  1  0  0  3  0  0  0  0  0  0
  183.9150  178.8180  139.6030 O   0  0  0  0  0  0  0  0  0  0  0  0
  189.2070  172.8550  134.5760 C   0  0  0  0  0  3  0  0  0  0  0  0
  193.2610  176.5560  138.0130 F   0  0  0  0  0  0  0  0  0  0  0  0
  185.6520  178.9420  141.1940 N   0  0  0  0  0  0  0  0  0  0  0  0
  185.2060  176.8660  135.8130 C   0  0  0  0  0  2  0  0  0  0  0  0
  188.6470  177.9740  136.0590 C   0  0  0  0  0  1  0  0  0  0  0  0
  193.2900  175.4880  135.8430 C   0  0  1  0  0  3  0  0  0  0  0  0
  185.8900  176.5070  134.5110 C   0  0  0  0  0  2  0  0  0  0  0  0
  191.5500  174.9950  137.5640 C   0  0  0  0  0  2  0  0  0  0  0  0
  192.5430  175.5480  134.5060 C   0  0  0  0  0  2  0  0  0  0  0  0
  186.2440  178.5850  138.8900 C   0  0  1  0  0  3  0  0  0  0  0  0
  188.9900  174.2350  134.7030 C   0  0  0  0  0  0  0  0  0  0  0  0
  187.6290  174.7510  134.9460 C   0  0  0  0  0  0  0  0  0  0  0  0
  186.2810  177.5260  136.6470 C   0  0  2  0  0  3  0  0  0  0  0  0
  190.4560  176.1680  139.4800 C   0  0  0  0  0  2  0  0  0  0  0  0
  191.5890  173.2330  134.3470 C   0  0  0  0  0  3  0  0  0  0  0  0
  188.7940  178.0320  139.4380 C   0  0  0  0  0  2  0  0  0  0  0  0
  187.0180  178.7030  141.0870 C   0  0  1  0  0  3  0  0  0  0  0  0
  185.1420  178.7840  139.8820 C   0  0  0  0  0  0  0  0  0  0  0  0
  189.1290  176.6660  140.0210 C   0  0  0  0  0  2  0  0  0  0  0  0
  187.3430  176.2300  134.8700 C   0  0  2  0  0  3  0  0  0  0  0  0
  187.6390  178.2840  142.3600 C   0  0  0  0  0  2  0  0  0  0  0  0
  185.1500  178.4020  142.4370 C   0  0  0  0  0  2  0  0  0  0  0  0
  194.6140  176.1700  135.6970 C   0  0  0  0  0  0  0  0  0  0  0  0
  195.7340  175.4120  135.2270 N   0  0  0  0  0  2  0  0  0  0  0  0
  194.7230  177.4060  135.9330 O   0  0  0  0  0  0  0  0  0  0  0  0
  197.1050  175.8340  135.2700 C   0  0  0  0  0  0  0  0  0  0  0  0
  197.5100  176.7070  134.3600 C   0  0  0  0  0  2  0  0  0  0  0  0
  198.0890  175.1990  136.1840 C   0  0  0  0  0  0  0  0  0  0  0  0
  199.2930  175.1030  135.8310 O   0  0  0  0  0  0  0  0  0  0  0  0
  197.7150  174.7010  137.5490 C   0  0  0  0  0  3  0  0  0  0  0  0
  198.3040  175.4930  138.5350 O   0  0  0  0  0  1  0  0  0  0  0  0
  198.1080  173.3700  137.7110 O   0  0  0  0  0  1  0  0  0  0  0  0
  1 25  1  0  0  0  0
  2 20  1  0  0  0  0
  2  3  1  0  0  0  0
  3 22  2  0  0  0  0
  4 12  2  0  0  0  0
  5 16  1  6  0  0  0
  5 24  1  0  0  0  0
  6 27  1  1  0  0  0
  6 28  1  0  0  0  0
 10 19  1  0  0  0  0
 10 13  1  1  0  0  0
 11 29  2  0  0  0  0
 12 22  1  0  0  0  0
 14 33  1  0  0  0  0
 17 34  1  6  0  0  0
 17 10  1  0  0  0  0
 18 15  1  0  0  0  0
 19  1  1  0  0  0  0
 20 17  1  0  0  0  0
 21  9  1  1  0  0  0
 21  6  1  0  0  0  0
 21 29  1  0  0  0  0
 22 23  1  0  0  0  0
 23  7  2  0  0  0  0
 24 15  1  6  0  0  0
 24  9  1  0  0  0  0
 25 30  1  0  0  0  0
 26  4  1  0  0  0  0
 26  2  2  0  0  0  0
 27 30  1  0  0  0  0
 28 14  1  0  0  0  0
 28 32  1  1  0  0  0
 29 14  1  0  0  0  0
 31 18  1  1  0  0  0
 31 23  1  0  0  0  0
 31  5  1  0  0  0  0
 32  8  1  0  0  0  0
 33  8  1  0  0  0  0
 34 36  2  0  0  0  0
 35 37  1  0  0  0  0
 35 34  1  0  0  0  0
 37 39  1  0  0  0  0
 38 37  2  0  0  0  0
 39 41  1  0  0  0  0
 40 39  2  0  0  0  0
 41 43  1  0  0  0  0
 41 42  1  0  0  0  0
M  END
>  <MODEL>
1

>  <REMARK>
 VINA RESULT:      -7.4      0.000      0.000
  Name = 
  4 active torsions:
  status: ('A' for Active; 'I' for Inactive)
    1  A    between atoms: C_5  and  C_20
    2  A    between atoms: C_6  and  C_24
    3  A    between atoms: N_13  and  C_37
    4  A    between atoms: C_24  and  C_37
                            x       y       z     vdW  Elec       q    Type
                         _______ _______ _______ _____ _____    ______ ____

>  <TORSDO>
F 4

$$$$
=
 OpenBabel10222421363D

 43 47  0  0  1  0  0  0  0  0999 V2000
  184.7680  176.6200  136.5990 C   0  0  0  0  0  2  0  0  0  0  0  0
  181.0620  176.0560  137.7350 C   0  0  0  0  0  0  0  0  0  0  0  0
  181.7980  174.9390  137.3270 C   0  0  0  0  0  3  0  0  0  0  0  0
  179.9820  176.1310  135.5690 C   0  0  0  0  0  3  0  0  0  0  0  0
  184.6640  173.1160  136.7350 C   0  0  1  0  0  3  0  0  0  0  0  0
  188.4530  174.2160  136.5700 C   0  0  2  0  0  3  0  0  0  0  0  0
  182.5160  173.0050  134.3460 O   0  0  0  0  0  0  0  0  0  0  0  0
  191.2710  175.2560  134.5810 C   0  0  0  0  0  2  0  0  0  0  0  0
  186.7950  172.6810  135.4980 C   0  0  0  0  0  2  0  0  0  0  0  0
  183.6060  177.6340  138.5710 C   0  0  1  0  0  3  0  0  0  0  0  0
  189.3450  171.2050  134.9620 O   0  0  0  0  0  0  0  0  0  0  0  0
  180.7290  175.0220  135.1570 C   0  0  0  0  0  3  0  0  0  0  0  0
  184.4800  178.6040  139.0350 F   0  0  0  0  0  0  0  0  0  0  0  0
  190.2420  173.3240  135.4810 N   0  0  0  0  0  0  0  0  0  0  0  0
  184.9280  171.0390  135.5170 C   0  0  0  0  0  2  0  0  0  0  0  0
  184.8660  173.4800  138.1940 C   0  0  0  0  0  1  0  0  0  0  0  0
  182.1580  177.9310  138.9920 C   0  0  1  0  0  3  0  0  0  0  0  0
  183.5210  171.0600  136.0770 C   0  0  0  0  0  2  0  0  0  0  0  0
  183.6950  177.5910  137.0550 C   0  0  0  0  0  2  0  0  0  0  0  0
  181.3140  176.6540  139.0780 C   0  0  0  0  0  2  0  0  0  0  0  0
  188.0620  172.7730  136.3360 C   0  0  1  0  0  3  0  0  0  0  0  0
  181.6440  174.4180  136.0330 C   0  0  0  0  0  0  0  0  0  0  0  0
  182.4640  173.2790  135.5770 C   0  0  0  0  0  0  0  0  0  0  0  0
  185.6840  172.0650  136.3290 C   0  0  2  0  0  3  0  0  0  0  0  0
  186.1410  177.2600  136.6690 C   0  0  0  0  0  2  0  0  0  0  0  0
  180.1550  176.6520  136.8540 C   0  0  0  0  0  3  0  0  0  0  0  0
  187.5520  175.2580  137.1580 C   0  0  0  0  0  2  0  0  0  0  0  0
  189.6820  174.4350  136.1030 C   0  0  1  0  0  3  0  0  0  0  0  0
  189.2390  172.3250  135.5280 C   0  0  0  0  0  0  0  0  0  0  0  0
  187.1800  176.3030  136.1150 C   0  0  0  0  0  2  0  0  0  0  0  0
  183.2890  172.4850  136.5570 C   0  0  2  0  0  3  0  0  0  0  0  0
  190.3090  175.7090  135.6970 C   0  0  0  0  0  2  0  0  0  0  0  0
  191.0620  173.7410  134.3670 C   0  0  0  0  0  2  0  0  0  0  0  0
  182.0830  178.6580  140.2980 C   0  0  0  0  0  0  0  0  0  0  0  0
  182.7810  178.1230  141.4290 N   0  0  0  0  0  2  0  0  0  0  0  0
  181.4580  179.7520  140.3820 O   0  0  0  0  0  0  0  0  0  0  0  0
  182.6100  178.5430  142.7900 C   0  0  0  0  0  0  0  0  0  0  0  0
  181.3730  178.7220  143.2290 C   0  0  0  0  0  2  0  0  0  0  0  0
  183.7660  178.9350  143.6370 C   0  0  0  0  0  0  0  0  0  0  0  0
  183.5630  179.4130  144.7830 O   0  0  0  0  0  0  0  0  0  0  0  0
  185.1880  178.7390  143.1990 C   0  0  0  0  0  3  0  0  0  0  0  0
  186.0180  178.5570  144.3060 O   0  0  0  0  0  1  0  0  0  0  0  0
  185.6270  179.8340  142.4510 O   0  0  0  0  0  1  0  0  0  0  0  0
  1 25  1  0  0  0  0
  1 19  1  0  0  0  0
  2 20  1  0  0  0  0
  3  2  1  0  0  0  0
  4 26  1  0  0  0  0
  5 16  1  1  0  0  0
  6 27  1  6  0  0  0
  7 23  2  0  0  0  0
  8 32  1  0  0  0  0
 10 17  1  0  0  0  0
 10 13  1  6  0  0  0
 11 29  2  0  0  0  0
 12  4  2  0  0  0  0
 12 22  1  0  0  0  0
 14 29  1  0  0  0  0
 14 28  1  0  0  0  0
 15 18  1  0  0  0  0
 15 24  1  0  0  0  0
 17 20  1  0  0  0  0
 17 34  1  1  0  0  0
 19 10  1  0  0  0  0
 21  9  1  6  0  0  0
 21  6  1  0  0  0  0
 22  3  2  0  0  0  0
 23 22  1  0  0  0  0
 23 31  1  0  0  0  0
 24  9  1  6  0  0  0
 24  5  1  0  0  0  0
 26  2  2  0  0  0  0
 28 32  1  6  0  0  0
 28  6  1  0  0  0  0
 29 21  1  0  0  0  0
 30 25  1  0  0  0  0
 30 27  1  0  0  0  0
 31 18  1  6  0  0  0
 31  5  1  0  0  0  0
 33  8  1  0  0  0  0
 33 14  1  0  0  0  0
 34 36  2  0  0  0  0
 34 35  1  0  0  0  0
 35 37  1  0  0  0  0
 37 38  2  0  0  0  0
 37 39  1  0  0  0  0
 39 40  2  0  0  0  0
 41 39  1  0  0  0  0
 41 42  1  0  0  0  0
 43 41  1  0  0  0  0
M  END
>  <MODEL>
2

>  <REMARK>
 VINA RESULT:      -6.1      4.462     10.381
  Name = 
  4 active torsions:
  status: ('A' for Active; 'I' for Inactive)
    1  A    between atoms: C_5  and  C_20
    2  A    between atoms: C_6  and  C_24
    3  A    between atoms: N_13  and  C_37
    4  A    between atoms: C_24  and  C_37
                            x       y       z     vdW  Elec       q    Type
                         _______ _______ _______ _____ _____    ______ ____

>  <TORSDO>
F 4

$$$$
=
 OpenBabel10222421363D

 43 47  0  0  1  0  0  0  0  0999 V2000
  186.7430  174.0100  135.7830 C   0  0  0  0  0  2  0  0  0  0  0  0
  187.2070  177.7370  136.8960 C   0  0  0  0  0  0  0  0  0  0  0  0
  185.9020  177.2470  136.7790 C   0  0  0  0  0  3  0  0  0  0  0  0
  186.9910  178.8120  134.7350 C   0  0  0  0  0  3  0  0  0  0  0  0
  183.4580  174.8160  136.7160 C   0  0  1  0  0  3  0  0  0  0  0  0
  183.7140  170.8860  136.4270 C   0  0  2  0  0  3  0  0  0  0  0  0
  183.2280  176.9760  134.3470 O   0  0  0  0  0  0  0  0  0  0  0  0
  183.6830  167.9450  134.3470 C   0  0  0  0  0  2  0  0  0  0  0  0
  182.3330  172.8340  135.6830 C   0  0  0  0  0  2  0  0  0  0  0  0
  188.3960  174.9160  137.4300 C   0  0  1  0  0  3  0  0  0  0  0  0
  180.2970  170.6410  135.5840 O   0  0  0  0  0  0  0  0  0  0  0  0
  185.6920  178.3090  134.6150 C   0  0  0  0  0  3  0  0  0  0  0  0
  189.2540  173.8580  137.6870 F   0  0  0  0  0  0  0  0  0  0  0  0
  182.2560  169.3280  135.6320 N   0  0  0  0  0  0  0  0  0  0  0  0
  181.1460  174.9930  136.0170 C   0  0  0  0  0  2  0  0  0  0  0  0
  184.1020  174.5230  138.0580 C   0  0  0  0  0  1  0  0  0  0  0  0
  189.0650  176.2680  137.7240 C   0  0  1  0  0  3  0  0  0  0  0  0
  181.5760  176.3580  136.5100 C   0  0  0  0  0  2  0  0  0  0  0  0
  187.9870  174.8600  135.9680 C   0  0  0  0  0  2  0  0  0  0  0  0
  188.0370  177.3500  138.0730 C   0  0  0  0  0  2  0  0  0  0  0  0
  182.3630  171.5630  136.5190 C   0  0  1  0  0  3  0  0  0  0  0  0
  185.1380  177.5220  135.6350 C   0  0  0  0  0  0  0  0  0  0  0  0
  183.7840  176.9540  135.4800 C   0  0  0  0  0  0  0  0  0  0  0  0
  182.1610  174.0340  136.5960 C   0  0  2  0  0  3  0  0  0  0  0  0
  187.0950  172.5350  135.7490 C   0  0  0  0  0  2  0  0  0  0  0  0
  187.7510  178.5190  135.8720 C   0  0  0  0  0  3  0  0  0  0  0  0
  185.0210  171.5500  136.7310 C   0  0  0  0  0  2  0  0  0  0  0  0
  183.5690  169.6450  135.9630 C   0  0  1  0  0  3  0  0  0  0  0  0
  181.5150  170.5110  135.8740 C   0  0  0  0  0  0  0  0  0  0  0  0
  185.8490  171.7190  135.4640 C   0  0  0  0  0  2  0  0  0  0  0  0
  183.0900  176.2920  136.6430 C   0  0  2  0  0  3  0  0  0  0  0  0
  184.5640  168.7800  135.2970 C   0  0  0  0  0  2  0  0  0  0  0  0
  182.2310  168.4580  134.4790 C   0  0  0  0  0  2  0  0  0  0  0  0
  190.0750  176.1770  138.8250 C   0  0  0  0  0  0  0  0  0  0  0  0
  189.8140  176.8520  140.0600 N   0  0  0  0  0  2  0  0  0  0  0  0
  191.1110  175.4700  138.6800 O   0  0  0  0  0  0  0  0  0  0  0  0
  190.7690  177.0770  141.1060 C   0  0  0  0  0  0  0  0  0  0  0  0
  191.9460  177.5840  140.7670 C   0  0  0  0  0  2  0  0  0  0  0  0
  190.5330  176.6070  142.4950 C   0  0  0  0  0  0  0  0  0  0  0  0
  190.2620  175.3960  142.7040 O   0  0  0  0  0  0  0  0  0  0  0  0
  190.6520  177.5150  143.6840 C   0  0  0  0  0  3  0  0  0  0  0  0
  191.6990  177.1030  144.5090 O   0  0  0  0  0  1  0  0  0  0  0  0
  189.4570  177.5360  144.4070 O   0  0  0  0  0  1  0  0  0  0  0  0
  1 19  1  0  0  0  0
  2 20  1  0  0  0  0
  3  2  1  0  0  0  0
  4 26  1  0  0  0  0
  5 16  1  1  0  0  0
  6 21  1  0  0  0  0
  6 27  1  6  0  0  0
  7 23  2  0  0  0  0
  8 33  1  0  0  0  0
  8 32  1  0  0  0  0
 10 13  1  6  0  0  0
 10 17  1  0  0  0  0
 11 29  2  0  0  0  0
 12  4  2  0  0  0  0
 12 22  1  0  0  0  0
 14 29  1  0  0  0  0
 14 28  1  0  0  0  0
 15 18  1  0  0  0  0
 15 24  1  0  0  0  0
 17 20  1  0  0  0  0
 17 34  1  1  0  0  0
 19 10  1  0  0  0  0
 21  9  1  6  0  0  0
 22  3  2  0  0  0  0
 23 22  1  0  0  0  0
 23 31  1  0  0  0  0
 24  9  1  6  0  0  0
 24  5  1  0  0  0  0
 25  1  1  0  0  0  0
 26  2  2  0  0  0  0
 28 32  1  6  0  0  0
 28  6  1  0  0  0  0
 29 21  1  0  0  0  0
 30 25  1  0  0  0  0
 30 27  1  0  0  0  0
 31 18  1  6  0  0  0
 31  5  1  0  0  0  0
 33 14  1  0  0  0  0
 34 35  1  0  0  0  0
 35 37  1  0  0  0  0
 36 34  2  0  0  0  0
 37 39  1  0  0  0  0
 38 37  2  0  0  0  0
 39 40  2  0  0  0  0
 39 41  1  0  0  0  0
 41 43  1  0  0  0  0
 41 42  1  0  0  0  0
M  END
>  <MODEL>
3

>  <REMARK>
 VINA RESULT:      -6.0      4.829      7.884
  Name = 
  4 active torsions:
  status: ('A' for Active; 'I' for Inactive)
    1  A    between atoms: C_5  and  C_20
    2  A    between atoms: C_6  and  C_24
    3  A    between atoms: N_13  and  C_37
    4  A    between atoms: C_24  and  C_37
                            x       y       z     vdW  Elec       q    Type
                         _______ _______ _______ _____ _____    ______ ____

>  <TORSDO>
F 4

$$$$
=
 OpenBabel10222421363D

 43 47  0  0  1  0  0  0  0  0999 V2000
  192.6060  176.8740  139.2090 C   0  0  0  0  0  2  0  0  0  0  0  0
  188.7330  177.3640  138.8780 C   0  0  0  0  0  0  0  0  0  0  0  0
  189.3810  176.6000  137.9020 C   0  0  0  0  0  3  0  0  0  0  0  0
  188.7150  179.2620  137.3730 C   0  0  0  0  0  3  0  0  0  0  0  0
  191.8870  174.5960  136.6390 C   0  0  1  0  0  3  0  0  0  0  0  0
  195.5030  173.7900  138.0060 C   0  0  2  0  0  3  0  0  0  0  0  0
  190.9850  176.9730  134.6720 O   0  0  0  0  0  0  0  0  0  0  0  0
  199.0290  174.5290  138.0020 C   0  0  0  0  0  2  0  0  0  0  0  0
  194.2410  174.2040  135.8870 C   0  0  0  0  0  2  0  0  0  0  0  0
  190.8910  176.7510  141.0290 C   0  0  1  0  0  3  0  0  0  0  0  0
  196.4980  172.5210  134.8680 O   0  0  0  0  0  0  0  0  0  0  0  0
  189.3750  178.5000  136.4030 C   0  0  0  0  0  3  0  0  0  0  0  0
  191.6260  176.7000  142.2030 F   0  0  0  0  0  0  0  0  0  0  0  0
  197.4160  173.1570  136.9460 N   0  0  0  0  0  0  0  0  0  0  0  0
  192.3070  173.9400  134.3460 C   0  0  0  0  0  2  0  0  0  0  0  0
  191.5000  173.8060  137.8750 C   0  0  0  0  0  1  0  0  0  0  0  0
  189.4720  177.2870  141.2740 C   0  0  1  0  0  3  0  0  0  0  0  0
  190.8210  174.1930  134.4790 C   0  0  0  0  0  2  0  0  0  0  0  0
  191.6130  177.6580  140.0470 C   0  0  0  0  0  2  0  0  0  0  0  0
  188.4780  176.7760  140.2250 C   0  0  0  0  0  2  0  0  0  0  0  0
  195.0220  173.1860  136.7040 C   0  0  1  0  0  3  0  0  0  0  0  0
  189.7150  177.1640  136.6610 C   0  0  0  0  0  0  0  0  0  0  0  0
  190.4550  176.3800  135.6520 C   0  0  0  0  0  0  0  0  0  0  0  0
  192.7980  173.7510  135.7640 C   0  0  2  0  0  3  0  0  0  0  0  0
  193.9000  176.6530  139.9680 C   0  0  0  0  0  2  0  0  0  0  0  0
  188.4010  178.6960  138.6120 C   0  0  0  0  0  3  0  0  0  0  0  0
  194.6190  174.4610  139.0110 C   0  0  0  0  0  2  0  0  0  0  0  0
  196.8310  173.7060  138.0820 C   0  0  1  0  0  3  0  0  0  0  0  0
  196.3420  172.9170  136.0530 C   0  0  0  0  0  0  0  0  0  0  0  0
  194.9050  175.9550  139.0710 C   0  0  0  0  0  2  0  0  0  0  0  0
  190.6390  174.8930  135.8180 C   0  0  2  0  0  3  0  0  0  0  0  0
  197.7680  174.5120  138.8890 C   0  0  0  0  0  2  0  0  0  0  0  0
  198.6900  173.7890  136.6890 C   0  0  0  0  0  2  0  0  0  0  0  0
  188.9630  176.9450  142.6390 C   0  0  0  0  0  0  0  0  0  0  0  0
  188.9960  177.9470  143.6610 N   0  0  0  0  0  2  0  0  0  0  0  0
  188.4630  175.8080  142.8660 O   0  0  0  0  0  0  0  0  0  0  0  0
  188.7910  177.7180  145.0620 C   0  0  0  0  0  0  0  0  0  0  0  0
  187.5500  177.7900  145.5230 C   0  0  0  0  0  2  0  0  0  0  0  0
  189.9290  177.5760  146.0060 C   0  0  0  0  0  0  0  0  0  0  0  0
  189.7670  177.8520  147.2230 O   0  0  0  0  0  0  0  0  0  0  0  0
  191.2730  177.0650  145.5750 C   0  0  0  0  0  3  0  0  0  0  0  0
  192.0060  176.6290  146.6800 O   0  0  0  0  0  1  0  0  0  0  0  0
  191.9830  178.0600  144.8970 O   0  0  0  0  0  1  0  0  0  0  0  0
  1 25  1  0  0  0  0
  1 19  1  0  0  0  0
  2 20  1  0  0  0  0
  3  2  2  0  0  0  0
  4 26  2  0  0  0  0
  5 16  1  1  0  0  0
  6 28  1  0  0  0  0
  6 27  1  6  0  0  0
  7 23  2  0  0  0  0
  8 32  1  0  0  0  0
 10 17  1  0  0  0  0
 10 13  1  1  0  0  0
 11 29  2  0  0  0  0
 12 22  2  0  0  0  0
 12  4  1  0  0  0  0
 14 28  1  0  0  0  0
 15 18  1  0  0  0  0
 17 34  1  1  0  0  0
 19 10  1  0  0  0  0
 20 17  1  0  0  0  0
 21  9  1  6  0  0  0
 21  6  1  0  0  0  0
 22  3  1  0  0  0  0
 23 31  1  0  0  0  0
 23 22  1  0  0  0  0
 24 15  1  6  0  0  0
 24  9  1  0  0  0  0
 24  5  1  0  0  0  0
 26  2  1  0  0  0  0
 27 30  1  0  0  0  0
 28 32  1  6  0  0  0
 29 21  1  0  0  0  0
 29 14  1  0  0  0  0
 30 25  1  0  0  0  0
 31 18  1  6  0  0  0
 31  5  1  0  0  0  0
 33 14  1  0  0  0  0
 33  8  1  0  0  0  0
 34 36  2  0  0  0  0
 34 35  1  0  0  0  0
 35 37  1  0  0  0  0
 37 38  2  0  0  0  0
 37 39  1  0  0  0  0
 39 40  2  0  0  0  0
 41 39  1  0  0  0  0
 41 42  1  0  0  0  0
 43 41  1  0  0  0  0
M  END
>  <MODEL>
4

>  <REMARK>
 VINA RESULT:      -5.8      3.643      9.275
  Name = 
  4 active torsions:
  status: ('A' for Active; 'I' for Inactive)
    1  A    between atoms: C_5  and  C_20
    2  A    between atoms: C_6  and  C_24
    3  A    between atoms: N_13  and  C_37
    4  A    between atoms: C_24  and  C_37
                            x       y       z     vdW  Elec       q    Type
                         _______ _______ _______ _____ _____    ______ ____

>  <TORSDO>
F 4

$$$$
=
 OpenBabel10222421363D

 43 47  0  0  1  0  0  0  0  0999 V2000
  192.7190  176.8410  139.1740 C   0  0  0  0  0  2  0  0  0  0  0  0
  188.8470  177.4320  139.1890 C   0  0  0  0  0  0  0  0  0  0  0  0
  189.3850  176.6550  138.1590 C   0  0  0  0  0  3  0  0  0  0  0  0
  188.7440  179.3350  137.6930 C   0  0  0  0  0  3  0  0  0  0  0  0
  191.7160  174.5900  136.6760 C   0  0  1  0  0  3  0  0  0  0  0  0
  195.4160  173.6860  137.7160 C   0  0  2  0  0  3  0  0  0  0  0  0
  190.7060  176.9970  134.8000 O   0  0  0  0  0  0  0  0  0  0  0  0
  198.9460  174.3340  137.4010 C   0  0  0  0  0  2  0  0  0  0  0  0
  193.9830  174.1400  135.7180 C   0  0  0  0  0  2  0  0  0  0  0  0
  191.1690  176.7560  141.1390 C   0  0  1  0  0  3  0  0  0  0  0  0
  196.0950  172.4020  134.5020 O   0  0  0  0  0  0  0  0  0  0  0  0
  189.2960  178.5590  136.6680 C   0  0  0  0  0  3  0  0  0  0  0  0
  192.0040  176.6820  142.2430 F   0  0  0  0  0  0  0  0  0  0  0  0
  197.2110  173.0070  136.4900 N   0  0  0  0  0  0  0  0  0  0  0  0
  191.9140  173.9310  134.3540 C   0  0  0  0  0  2  0  0  0  0  0  0
  191.4190  173.8070  137.9410 C   0  0  0  0  0  1  0  0  0  0  0  0
  189.7920  177.3280  141.5100 C   0  0  1  0  0  3  0  0  0  0  0  0
  190.4520  174.2230  134.6190 C   0  0  0  0  0  2  0  0  0  0  0  0
  191.8260  177.6480  140.0980 C   0  0  0  0  0  2  0  0  0  0  0  0
  188.6960  176.8470  140.5520 C   0  0  0  0  0  2  0  0  0  0  0  0
  194.8060  173.0990  136.4620 C   0  0  1  0  0  3  0  0  0  0  0  0
  189.6220  177.2140  136.8930 C   0  0  0  0  0  0  0  0  0  0  0  0
  190.2490  176.4150  135.8220 C   0  0  0  0  0  0  0  0  0  0  0  0
  192.5230  173.7250  135.7230 C   0  0  2  0  0  3  0  0  0  0  0  0
  194.0690  176.5830  139.8160 C   0  0  0  0  0  2  0  0  0  0  0  0
  188.5270  178.7740  138.9550 C   0  0  0  0  0  3  0  0  0  0  0  0
  194.6430  174.3760  138.7970 C   0  0  0  0  0  2  0  0  0  0  0  0
  196.7430  173.5680  137.6740 C   0  0  1  0  0  3  0  0  0  0  0  0
  196.0560  172.7980  135.6960 C   0  0  0  0  0  0  0  0  0  0  0  0
  194.9720  175.8630  138.8330 C   0  0  0  0  0  2  0  0  0  0  0  0
  190.4090  174.9230  135.9700 C   0  0  2  0  0  3  0  0  0  0  0  0
  197.7690  174.3460  138.3960 C   0  0  0  0  0  2  0  0  0  0  0  0
  198.4730  173.6070  136.1230 C   0  0  0  0  0  2  0  0  0  0  0  0
  189.3970  176.9950  142.9150 C   0  0  0  0  0  0  0  0  0  0  0  0
  189.7060  177.9250  143.9590 N   0  0  0  0  0  2  0  0  0  0  0  0
  188.7550  175.9360  143.1610 O   0  0  0  0  0  0  0  0  0  0  0  0
  189.6300  177.6560  145.3660 C   0  0  0  0  0  0  0  0  0  0  0  0
  190.6920  177.1160  145.9480 C   0  0  0  0  0  2  0  0  0  0  0  0
  188.3620  177.8080  146.1240 C   0  0  0  0  0  0  0  0  0  0  0  0
  188.3670  177.6800  147.3760 O   0  0  0  0  0  0  0  0  0  0  0  0
  187.0640  178.1590  145.4580 C   0  0  0  0  0  3  0  0  0  0  0  0
  186.2520  178.8880  146.3280 O   0  0  0  0  0  1  0  0  0  0  0  0
  186.3970  177.0030  145.0430 O   0  0  0  0  0  1  0  0  0  0  0  0
  1 25  1  0  0  0  0
  1 19  1  0  0  0  0
  2 20  1  0  0  0  0
  3  2  2  0  0  0  0
  4 26  2  0  0  0  0
  5 16  1  1  0  0  0
  6 27  1  6  0  0  0
  7 23  2  0  0  0  0
  8 32  1  0  0  0  0
  9 24  1  0  0  0  0
 10 17  1  0  0  0  0
 10 13  1  1  0  0  0
 11 29  2  0  0  0  0
 12 22  2  0  0  0  0
 12  4  1  0  0  0  0
 14 28  1  0  0  0  0
 15 18  1  0  0  0  0
 17 34  1  1  0  0  0
 19 10  1  0  0  0  0
 20 17  1  0  0  0  0
 21  9  1  6  0  0  0
 21  6  1  0  0  0  0
 22  3  1  0  0  0  0
 23 31  1  0  0  0  0
 23 22  1  0  0  0  0
 24 15  1  6  0  0  0
 24  5  1  0  0  0  0
 26  2  1  0  0  0  0
 27 30  1  0  0  0  0
 28  6  1  0  0  0  0
 28 32  1  6  0  0  0
 29 21  1  0  0  0  0
 29 14  1  0  0  0  0
 30 25  1  0  0  0  0
 31 18  1  6  0  0  0
 31  5  1  0  0  0  0
 33 14  1  0  0  0  0
 33  8  1  0  0  0  0
 34 36  2  0  0  0  0
 34 35  1  0  0  0  0
 35 37  1  0  0  0  0
 37 38  2  0  0  0  0
 37 39  1  0  0  0  0
 39 40  2  0  0  0  0
 41 39  1  0  0  0  0
 41 42  1  0  0  0  0
 43 41  1  0  0  0  0
M  END
>  <MODEL>
5

>  <REMARK>
 VINA RESULT:      -5.8      3.299      9.637
  Name = 
  4 active torsions:
  status: ('A' for Active; 'I' for Inactive)
    1  A    between atoms: C_5  and  C_20
    2  A    between atoms: C_6  and  C_24
    3  A    between atoms: N_13  and  C_37
    4  A    between atoms: C_24  and  C_37
                            x       y       z     vdW  Elec       q    Type
                         _______ _______ _______ _____ _____    ______ ____

>  <TORSDO>
F 4

$$$$
=
 OpenBabel10222421363D

 43 47  0  0  1  0  0  0  0  0999 V2000
  192.6600  176.5300  138.2980 C   0  0  0  0  0  2  0  0  0  0  0  0
  188.9380  177.6680  138.7360 C   0  0  0  0  0  0  0  0  0  0  0  0
  189.2010  176.6210  137.8480 C   0  0  0  0  0  3  0  0  0  0  0  0
  188.7850  179.2060  136.8700 C   0  0  0  0  0  3  0  0  0  0  0  0
  190.9990  173.9730  136.5640 C   0  0  1  0  0  3  0  0  0  0  0  0
  194.7020  172.7810  137.2380 C   0  0  2  0  0  3  0  0  0  0  0  0
  189.9460  176.0480  134.3460 O   0  0  0  0  0  0  0  0  0  0  0  0
  198.1730  172.8260  136.2720 C   0  0  0  0  0  2  0  0  0  0  0  0
  193.0010  173.0050  135.4180 C   0  0  0  0  0  2  0  0  0  0  0  0
  191.4760  177.0900  140.4320 C   0  0  1  0  0  3  0  0  0  0  0  0
  194.6670  170.7600  134.3460 O   0  0  0  0  0  0  0  0  0  0  0  0
  189.0630  178.1590  135.9850 C   0  0  0  0  0  3  0  0  0  0  0  0
  192.4770  177.1300  141.3900 F   0  0  0  0  0  0  0  0  0  0  0  0
  196.1710  171.6040  135.9560 N   0  0  0  0  0  0  0  0  0  0  0  0
  190.7170  172.8150  134.4550 C   0  0  0  0  0  2  0  0  0  0  0  0
  190.8430  173.5260  138.0060 C   0  0  0  0  0  1  0  0  0  0  0  0
  190.2550  177.9210  140.8560 C   0  0  1  0  0  3  0  0  0  0  0  0
  189.3640  173.3660  134.8540 C   0  0  0  0  0  2  0  0  0  0  0  0
  192.0350  177.6360  139.1290 C   0  0  0  0  0  2  0  0  0  0  0  0
  188.9640  177.4130  140.2050 C   0  0  0  0  0  2  0  0  0  0  0  0
  193.8230  172.0360  136.2570 C   0  0  1  0  0  3  0  0  0  0  0  0
  189.2740  176.8590  136.4660 C   0  0  0  0  0  0  0  0  0  0  0  0
  189.6140  175.7690  135.5310 C   0  0  0  0  0  0  0  0  0  0  0  0
  191.5280  172.8170  135.7310 C   0  0  2  0  0  3  0  0  0  0  0  0
  194.0650  176.2210  138.7790 C   0  0  0  0  0  2  0  0  0  0  0  0
  188.7310  178.9620  138.2460 C   0  0  0  0  0  3  0  0  0  0  0  0
  194.2090  173.7890  138.2290 C   0  0  0  0  0  2  0  0  0  0  0  0
  195.9810  172.4640  137.0330 C   0  0  1  0  0  3  0  0  0  0  0  0
  194.8800  171.4020  135.4080 C   0  0  0  0  0  0  0  0  0  0  0  0
  194.6990  175.1850  137.8700 C   0  0  0  0  0  2  0  0  0  0  0  0
  189.6330  174.3340  135.9970 C   0  0  2  0  0  3  0  0  0  0  0  0
  197.1950  173.2200  137.3980 C   0  0  0  0  0  2  0  0  0  0  0  0
  197.4080  171.9220  135.2800 C   0  0  0  0  0  2  0  0  0  0  0  0
  190.0770  177.9540  142.3410 C   0  0  0  0  0  0  0  0  0  0  0  0
  189.3590  176.8890  142.9750 N   0  0  0  0  0  2  0  0  0  0  0  0
  190.5980  178.8780  143.0240 O   0  0  0  0  0  0  0  0  0  0  0  0
  188.8840  176.8930  144.3290 C   0  0  0  0  0  0  0  0  0  0  0  0
  187.5770  177.0000  144.5230 C   0  0  0  0  0  2  0  0  0  0  0  0
  189.8160  176.9490  145.4840 C   0  0  0  0  0  0  0  0  0  0  0  0
  189.3550  177.0380  146.6510 O   0  0  0  0  0  0  0  0  0  0  0  0
  191.3050  176.8560  145.3220 C   0  0  0  0  0  3  0  0  0  0  0  0
  191.6510  175.6680  144.6760 O   0  0  0  0  0  1  0  0  0  0  0  0
  191.9400  176.9240  146.5650 O   0  0  0  0  0  1  0  0  0  0  0  0
  1 25  1  0  0  0  0
  1 19  1  0  0  0  0
  2 20  1  0  0  0  0
  3  2  2  0  0  0  0
  4 26  2  0  0  0  0
  5 16  1  1  0  0  0
  6 27  1  6  0  0  0
  7 23  2  0  0  0  0
  8 32  1  0  0  0  0
  9 24  1  0  0  0  0
 10 17  1  0  0  0  0
 10 13  1  1  0  0  0
 11 29  2  0  0  0  0
 12 22  2  0  0  0  0
 12  4  1  0  0  0  0
 14 28  1  0  0  0  0
 15 18  1  0  0  0  0
 17 34  1  1  0  0  0
 19 10  1  0  0  0  0
 20 17  1  0  0  0  0
 21  9  1  6  0  0  0
 21  6  1  0  0  0  0
 22  3  1  0  0  0  0
 23 31  1  0  0  0  0
 23 22  1  0  0  0  0
 24 15  1  6  0  0  0
 24  5  1  0  0  0  0
 26  2  1  0  0  0  0
 28  6  1  0  0  0  0
 28 32  1  6  0  0  0
 29 14  1  0  0  0  0
 29 21  1  0  0  0  0
 30 27  1  0  0  0  0
 30 25  1  0  0  0  0
 31 18  1  6  0  0  0
 31  5  1  0  0  0  0
 33 14  1  0  0  0  0
 33  8  1  0  0  0  0
 34 35  1  0  0  0  0
 34 36  2  0  0  0  0
 35 37  1  0  0  0  0
 37 38  2  0  0  0  0
 37 39  1  0  0  0  0
 39 40  2  0  0  0  0
 41 39  1  0  0  0  0
 41 43  1  0  0  0  0
 42 41  1  0  0  0  0
M  END
>  <MODEL>
6

>  <REMARK>
 VINA RESULT:      -5.3      3.746      9.021
  Name = 
  4 active torsions:
  status: ('A' for Active; 'I' for Inactive)
    1  A    between atoms: C_5  and  C_20
    2  A    between atoms: C_6  and  C_24
    3  A    between atoms: N_13  and  C_37
    4  A    between atoms: C_24  and  C_37
                            x       y       z     vdW  Elec       q    Type
                         _______ _______ _______ _____ _____    ______ ____

>  <TORSDO>
F 4

$$$$
=
 OpenBabel10222421363D

 43 47  0  0  1  0  0  0  0  0999 V2000
  188.1980  173.9840  136.8530 C   0  0  0  0  0  2  0  0  0  0  0  0
  187.8040  177.8210  137.5320 C   0  0  0  0  0  0  0  0  0  0  0  0
  189.0840  177.3370  137.2450 C   0  0  0  0  0  3  0  0  0  0  0  0
  188.3500  177.8510  139.8920 C   0  0  0  0  0  3  0  0  0  0  0  0
  191.3780  175.1320  135.9160 C   0  0  1  0  0  3  0  0  0  0  0  0
  190.9440  171.4660  134.5130 C   0  0  2  0  0  3  0  0  0  0  0  0
  192.0250  176.0490  138.9280 O   0  0  0  0  0  0  0  0  0  0  0  0
  191.0760  167.9140  135.0960 C   0  0  0  0  0  2  0  0  0  0  0  0
  192.5130  172.9040  135.8270 C   0  0  0  0  0  2  0  0  0  0  0  0
  186.4020  175.5070  136.0030 C   0  0  1  0  0  3  0  0  0  0  0  0
  194.4220  170.8970  134.6890 O   0  0  0  0  0  0  0  0  0  0  0  0
  189.6240  177.3520  139.6040 C   0  0  0  0  0  3  0  0  0  0  0  0
  185.4620  174.6610  135.4350 F   0  0  0  0  0  0  0  0  0  0  0  0
  192.4030  169.7250  134.3500 N   0  0  0  0  0  0  0  0  0  0  0  0
  193.7660  175.0000  136.2960 C   0  0  0  0  0  2  0  0  0  0  0  0
  190.5540  175.4490  134.6820 C   0  0  0  0  0  1  0  0  0  0  0  0
  185.7780  176.8490  136.4160 C   0  0  1  0  0  3  0  0  0  0  0  0
  193.3540  176.4420  136.5050 C   0  0  0  0  0  2  0  0  0  0  0  0
  186.9900  174.8220  137.2260 C   0  0  0  0  0  2  0  0  0  0  0  0
  186.8120  177.9810  136.4300 C   0  0  0  0  0  2  0  0  0  0  0  0
  192.3080  172.1220  134.5380 C   0  0  1  0  0  3  0  0  0  0  0  0
  190.0010  177.0900  138.2780 C   0  0  0  0  0  0  0  0  0  0  0  0
  191.3300  176.5190  137.9850 C   0  0  0  0  0  0  0  0  0  0  0  0
  192.6350  174.3820  135.5060 C   0  0  2  0  0  3  0  0  0  0  0  0
  187.7720  172.6390  136.2960 C   0  0  0  0  0  2  0  0  0  0  0  0
  187.4370  178.0770  138.8570 C   0  0  0  0  0  3  0  0  0  0  0  0
  189.6480  172.1890  134.7090 C   0  0  0  0  0  2  0  0  0  0  0  0
  191.0770  170.1470  134.3730 C   0  0  1  0  0  3  0  0  0  0  0  0
  193.1710  170.9000  134.5420 C   0  0  0  0  0  0  0  0  0  0  0  0
  188.9980  171.7870  136.0260 C   0  0  0  0  0  2  0  0  0  0  0  0
  191.8330  176.4310  136.5670 C   0  0  2  0  0  3  0  0  0  0  0  0
  190.1290  169.0740  134.7310 C   0  0  0  0  0  2  0  0  0  0  0  0
  192.5250  168.4410  134.9990 C   0  0  0  0  0  2  0  0  0  0  0  0
  184.6340  177.2400  135.5340 C   0  0  0  0  0  0  0  0  0  0  0  0
  183.3090  177.2340  136.0780 N   0  0  0  0  0  2  0  0  0  0  0  0
  184.8450  177.6190  134.3490 O   0  0  0  0  0  0  0  0  0  0  0  0
  182.0950  177.3310  135.3190 C   0  0  0  0  0  0  0  0  0  0  0  0
  181.8200  176.3520  134.4690 C   0  0  0  0  0  2  0  0  0  0  0  0
  181.2540  178.5550  135.3420 C   0  0  0  0  0  0  0  0  0  0  0  0
  180.4880  178.8020  134.3750 O   0  0  0  0  0  0  0  0  0  0  0  0
  181.2430  179.5010  136.5080 C   0  0  0  0  0  3  0  0  0  0  0  0
  180.5090  178.9610  137.5660 O   0  0  0  0  0  1  0  0  0  0  0  0
  180.7000  180.7340  136.1350 O   0  0  0  0  0  1  0  0  0  0  0  0
  1 19  1  0  0  0  0
  2 26  1  0  0  0  0
  3  2  2  0  0  0  0
  3 22  1  0  0  0  0
  5 16  1  6  0  0  0
  5 31  1  0  0  0  0
  6 21  1  0  0  0  0
  6 27  1  1  0  0  0
 10 13  1  1  0  0  0
 10 17  1  0  0  0  0
 10 19  1  0  0  0  0
 12  4  1  0  0  0  0
 14 28  1  0  0  0  0
 14 29  1  0  0  0  0
 14 33  1  0  0  0  0
 15 18  1  0  0  0  0
 17 34  1  6  0  0  0
 17 20  1  0  0  0  0
 20  2  1  0  0  0  0
 21 29  1  0  0  0  0
 21  9  1  1  0  0  0
 22 12  2  0  0  0  0
 23 22  1  0  0  0  0
 23  7  2  0  0  0  0
 24  9  1  1  0  0  0
 24  5  1  0  0  0  0
 24 15  1  0  0  0  0
 25  1  1  0  0  0  0
 26  4  2  0  0  0  0
 27 30  1  0  0  0  0
 28  6  1  0  0  0  0
 28 32  1  1  0  0  0
 29 11  2  0  0  0  0
 30 25  1  0  0  0  0
 31 18  1  1  0  0  0
 31 23  1  0  0  0  0
 32  8  1  0  0  0  0
 33  8  1  0  0  0  0
 34 35  1  0  0  0  0
 36 34  2  0  0  0  0
 37 39  1  0  0  0  0
 37 35  1  0  0  0  0
 38 37  2  0  0  0  0
 39 41  1  0  0  0  0
 40 39  2  0  0  0  0
 41 42  1  0  0  0  0
 43 41  1  0  0  0  0
M  END
>  <MODEL>
7

>  <REMARK>
 VINA RESULT:      -5.2      3.325     10.643
  Name = 
  4 active torsions:
  status: ('A' for Active; 'I' for Inactive)
    1  A    between atoms: C_5  and  C_20
    2  A    between atoms: C_6  and  C_24
    3  A    between atoms: N_13  and  C_37
    4  A    between atoms: C_24  and  C_37
                            x       y       z     vdW  Elec       q    Type
                         _______ _______ _______ _____ _____    ______ ____

>  <TORSDO>
F 4

$$$$
