=
 OpenBabel10232411443D

 27 31  0  0  1  0  0  0  0  0999 V2000
  189.6680  177.5210  144.6030 C   0  0  2  0  0  3  0  0  0  0  0  0
  187.3740  176.4710  143.3380 S   0  0  0  0  0  0  0  0  0  0  0  0
  190.0480  176.4890  142.2480 C   0  0  2  0  0  3  0  0  0  0  0  0
  191.9940  176.6450  143.8960 C   0  0  1  0  0  3  0  0  0  0  0  0
  187.9590  178.7200  140.1160 N   0  0  0  0  0  0  0  0  0  0  0  0
  189.5530  178.8270  144.1240 O   0  0  0  0  0  1  0  0  0  0  0  0
  189.0420  178.4210  139.2440 C   0  0  0  0  0  0  0  0  0  0  0  0
  186.5230  178.8870  142.6140 O   0  0  0  0  0  0  0  0  0  0  0  0
  191.1220  177.2500  145.0100 C   0  0  0  0  0  2  0  0  0  0  0  0
  189.4290  177.2450  141.0930 C   0  0  0  0  0  0  0  0  0  0  0  0
  189.1960  176.5110  143.5510 C   0  0  1  0  0  3  0  0  0  0  0  0
  189.9360  177.4510  139.8760 C   0  0  0  0  0  0  0  0  0  0  0  0
  192.0630  175.2590  144.0450 O   0  0  0  0  0  1  0  0  0  0  0  0
  188.1980  178.0260  141.1810 C   0  0  2  0  0  3  0  0  0  0  0  0
  191.4780  177.0010  142.5020 C   0  0  0  0  0  2  0  0  0  0  0  0
  187.3070  177.9460  142.3280 C   0  0  0  0  0  0  0  0  0  0  0  0
  189.0920  178.8270  137.9820 C   0  0  0  0  0  1  0  0  0  0  0  0
  192.1970  173.7770  136.5820 C   0  0  0  0  0  3  0  0  0  0  0  0
  190.4010  174.9900  137.7730 C   0  0  0  0  0  3  0  0  0  0  0  0
  190.8850  173.9470  136.8410 C   0  0  0  0  0  3  0  0  0  0  0  0
  193.3720  176.5610  138.7720 N   0  0  0  0  0  0  0  0  0  0  0  0
  192.7100  175.6570  138.1260 C   0  0  0  0  0  0  0  0  0  0  0  0
  191.3010  175.7600  138.3770 C   0  0  0  0  0  0  0  0  0  0  0  0
  192.4050  177.3330  139.5020 C   0  0  0  0  0  3  0  0  0  0  0  0
  194.0520  175.2770  136.1520 N   0  0  0  0  0  1  0  0  0  0  0  0
  191.1680  176.8740  139.2980 C   0  0  0  0  0  0  0  0  0  0  0  0
  193.2920  174.6250  137.2050 C   0  0  2  0  0  3  0  0  0  0  0  0
  1  6  1  6  0  0  0
  1  9  1  0  0  0  0
  3 15  1  1  0  0  0
  3 11  1  0  0  0  0
  4 13  1  1  0  0  0
  4  9  1  0  0  0  0
  7 12  1  0  0  0  0
  7  5  2  0  0  0  0
 10 14  1  0  0  0  0
 10  3  1  0  0  0  0
 11  2  1  6  0  0  0
 11  1  1  0  0  0  0
 12 10  2  0  0  0  0
 14  5  1  6  0  0  0
 14 16  1  0  0  0  0
 15  4  1  0  0  0  0
 16  8  2  0  0  0  0
 16  2  1  0  0  0  0
 17  7  1  0  0  0  0
 18 20  2  0  0  0  0
 18 27  1  0  0  0  0
 19 23  2  0  0  0  0
 20 19  1  0  0  0  0
 21 24  1  0  0  0  0
 22 23  1  0  0  0  0
 22 21  2  0  0  0  0
 23 26  1  0  0  0  0
 26 24  2  0  0  0  0
 26 12  1  0  0  0  0
 27 25  1  6  0  0  0
 27 22  1  0  0  0  0
M  END
>  <MODEL>
1

>  <REMARK>
 VINA RESULT:      -7.7      0.000      0.000
  Name = 
  1 active torsions:
  status: ('A' for Active; 'I' for Inactive)
    1  A    between atoms: C_18  and  C_26
                            x       y       z     vdW  Elec       q    Type
                         _______ _______ _______ _____ _____    ______ ____

>  <TORSDO>
F 1

$$$$
=
 OpenBabel10232411443D

 27 31  0  0  1  0  0  0  0  0999 V2000
  181.1390  178.5730  139.1680 C   0  0  2  0  0  3  0  0  0  0  0  0
  182.8500  176.4040  138.5880 S   0  0  0  0  0  0  0  0  0  0  0  0
  182.7170  177.8300  141.0950 C   0  0  2  0  0  3  0  0  0  0  0  0
  180.5500  179.0720  141.6330 C   0  0  1  0  0  3  0  0  0  0  0  0
  186.0690  178.4970  139.6090 N   0  0  0  0  0  0  0  0  0  0  0  0
  181.9890  179.5910  138.7290 O   0  0  0  0  0  1  0  0  0  0  0  0
  186.2960  178.8030  140.9800 C   0  0  0  0  0  0  0  0  0  0  0  0
  184.5380  177.9470  137.2250 O   0  0  0  0  0  0  0  0  0  0  0  0
  180.1200  179.1480  140.1590 C   0  0  0  0  0  2  0  0  0  0  0  0
  184.1900  178.0890  140.8750 C   0  0  0  0  0  0  0  0  0  0  0  0
  181.9400  177.4330  139.8050 C   0  0  1  0  0  3  0  0  0  0  0  0
  185.0990  178.4930  141.7630 C   0  0  0  0  0  0  0  0  0  0  0  0
  179.9820  177.9510  142.2400 O   0  0  0  0  0  1  0  0  0  0  0  0
  184.8450  178.0810  139.5680 C   0  0  0  0  0  0  0  0  0  0  0  0
  182.0710  179.0430  141.7900 C   0  0  0  0  0  2  0  0  0  0  0  0
  184.1880  177.5710  138.3740 C   0  0  0  0  0  0  0  0  0  0  0  0
  187.4880  179.1260  141.4640 C   0  0  0  0  0  2  0  0  0  0  0  0
  187.0790  177.6730  146.7500 C   0  0  0  0  0  3  0  0  0  0  0  0
  186.9760  177.5810  144.2810 C   0  0  0  0  0  3  0  0  0  0  0  0
  187.6310  177.2990  145.5790 C   0  0  0  0  0  3  0  0  0  0  0  0
  184.0790  179.3050  145.2440 N   0  0  0  0  0  0  0  0  0  0  0  0
  185.1710  178.6610  145.4970 C   0  0  0  0  0  0  0  0  0  0  0  0
  185.8030  178.2050  144.2920 C   0  0  0  0  0  0  0  0  0  0  0  0
  183.9300  179.3120  143.8150 C   0  0  0  0  0  3  0  0  0  0  0  0
  185.9660  179.6770  147.5410 N   0  0  0  0  0  1  0  0  0  0  0  0
  184.9300  178.6570  143.2230 C   0  0  0  0  0  0  0  0  0  0  0  0
  185.7560  178.4130  146.8570 C   0  0  2  0  0  3  0  0  0  0  0  0
  1  6  1  1  0  0  0
  1 11  1  0  0  0  0
  1  9  1  0  0  0  0
  3 15  1  6  0  0  0
  4 15  1  0  0  0  0
  4 13  1  6  0  0  0
  5  7  1  0  0  0  0
  7 17  2  0  0  0  0
  7 12  1  0  0  0  0
  8 16  2  0  0  0  0
  9  4  1  0  0  0  0
 10  3  1  0  0  0  0
 10 12  2  0  0  0  0
 11  2  1  6  0  0  0
 11  3  1  0  0  0  0
 12 26  1  0  0  0  0
 14  5  2  0  0  0  0
 14 10  1  0  0  0  0
 16  2  1  0  0  0  0
 16 14  1  0  0  0  0
 18 27  1  0  0  0  0
 19 23  2  0  0  0  0
 19 20  1  0  0  0  0
 20 18  2  0  0  0  0
 21 22  2  0  0  0  0
 22 27  1  0  0  0  0
 23 22  1  0  0  0  0
 24 21  1  0  0  0  0
 26 24  2  0  0  0  0
 26 23  1  0  0  0  0
 27 25  1  6  0  0  0
M  END
>  <MODEL>
2

>  <REMARK>
 VINA RESULT:      -7.2      5.844      9.063
  Name = 
  1 active torsions:
  status: ('A' for Active; 'I' for Inactive)
    1  A    between atoms: C_18  and  C_26
                            x       y       z     vdW  Elec       q    Type
                         _______ _______ _______ _____ _____    ______ ____

>  <TORSDO>
F 1

$$$$
=
 OpenBabel10232411443D

 27 31  0  0  1  0  0  0  0  0999 V2000
  188.7760  177.3770  136.2720 C   0  0  2  0  0  3  0  0  0  0  0  0
  190.0390  175.1390  137.4400 S   0  0  0  0  0  0  0  0  0  0  0  0
  188.1380  176.8800  138.7420 C   0  0  2  0  0  3  0  0  0  0  0  0
  186.5320  178.1970  137.2550 C   0  0  1  0  0  3  0  0  0  0  0  0
  191.4160  177.3250  140.4590 N   0  0  0  0  0  0  0  0  0  0  0  0
  189.7470  178.3230  136.6070 O   0  0  0  0  0  1  0  0  0  0  0  0
  190.5090  177.8050  141.4430 C   0  0  0  0  0  0  0  0  0  0  0  0
  192.3030  176.4800  137.8460 O   0  0  0  0  0  0  0  0  0  0  0  0
  187.4380  178.0820  136.0180 C   0  0  0  0  0  2  0  0  0  0  0  0
  189.2350  177.0980  139.7600 C   0  0  0  0  0  0  0  0  0  0  0  0
  188.6390  176.3240  137.3770 C   0  0  1  0  0  3  0  0  0  0  0  0
  189.1320  177.6080  140.9880 C   0  0  0  0  0  0  0  0  0  0  0  0
  185.5890  177.1680  137.2520 O   0  0  0  0  0  1  0  0  0  0  0  0
  190.6600  176.9160  139.4920 C   0  0  0  0  0  0  0  0  0  0  0  0
  187.3290  178.1780  138.5590 C   0  0  0  0  0  2  0  0  0  0  0  0
  191.1460  176.2600  138.2880 C   0  0  0  0  0  0  0  0  0  0  0  0
  190.8860  178.1810  142.6590 C   0  0  0  0  0  2  0  0  0  0  0  0
  186.3140  177.4150  145.6240 C   0  0  0  0  0  3  0  0  0  0  0  0
  188.1860  177.0050  144.0610 C   0  0  0  0  0  3  0  0  0  0  0  0
  187.5300  176.8850  145.3820 C   0  0  0  0  0  3  0  0  0  0  0  0
  185.8620  178.8770  142.2200 N   0  0  0  0  0  0  0  0  0  0  0  0
  186.2540  178.2570  143.2840 C   0  0  1  0  0  3  0  0  0  0  0  0
  187.5360  177.6410  143.0910 C   0  0  0  0  0  0  0  0  0  0  0  0
  186.8970  178.7010  141.2390 C   0  0  0  0  0  3  0  0  0  0  0  0
  185.2390  179.5180  145.0790 N   0  0  0  0  0  1  0  0  0  0  0  0
  187.8980  177.9610  141.7220 C   0  0  0  0  0  0  0  0  0  0  0  0
  185.5100  178.1790  144.5860 C   0  0  0  0  0  0  0  0  0  0  0  0
  1  6  1  1  0  0  0
  1 11  1  0  0  0  0
  2 16  1  0  0  0  0
  3 15  1  6  0  0  0
  3 10  1  0  0  0  0
  4 13  1  1  0  0  0
  4 15  1  0  0  0  0
  5  7  1  0  0  0  0
  7 17  2  0  0  0  0
  8 16  2  0  0  0  0
  9  1  1  0  0  0  0
  9  4  1  0  0  0  0
 10 12  2  0  0  0  0
 11  2  1  1  0  0  0
 11  3  1  0  0  0  0
 12  7  1  0  0  0  0
 12 26  1  0  0  0  0
 14 10  1  0  0  0  0
 14  5  2  0  0  0  0
 16 14  1  0  0  0  0
 19 20  2  0  0  0  0
 20 18  1  0  0  0  0
 22 21  1  1  0  0  0
 22 27  1  0  0  0  0
 23 22  1  0  0  0  0
 23 19  1  0  0  0  0
 24 26  1  0  0  0  0
 24 21  2  0  0  0  0
 26 23  2  0  0  0  0
 27 25  1  0  0  0  0
 27 18  2  0  0  0  0
M  END
>  <MODEL>
3

>  <REMARK>
 VINA RESULT:      -6.9      3.226      7.441
  Name = 
  1 active torsions:
  status: ('A' for Active; 'I' for Inactive)
    1  A    between atoms: C_18  and  C_26
                            x       y       z     vdW  Elec       q    Type
                         _______ _______ _______ _____ _____    ______ ____

>  <TORSDO>
F 1

$$$$
=
 OpenBabel10232411443D

 27 31  0  0  1  0  0  0  0  0999 V2000
  189.6870  176.3010  137.2630 C   0  0  2  0  0  3  0  0  0  0  0  0
  188.6620  178.8880  136.7880 S   0  0  0  0  0  0  0  0  0  0  0  0
  189.6910  177.9110  139.3030 C   0  0  2  0  0  3  0  0  0  0  0  0
  191.3270  175.9500  139.2280 C   0  0  1  0  0  3  0  0  0  0  0  0
  186.0460  178.5410  139.7590 N   0  0  0  0  0  0  0  0  0  0  0  0
  188.4790  175.6940  137.6160 O   0  0  0  0  0  1  0  0  0  0  0  0
  186.5110  178.5590  141.1030 C   0  0  0  0  0  0  0  0  0  0  0  0
  186.1410  178.0410  136.9180 O   0  0  0  0  0  0  0  0  0  0  0  0
  190.8550  175.4910  137.8380 C   0  0  0  0  0  2  0  0  0  0  0  0
  188.3310  178.2800  139.8520 C   0  0  0  0  0  0  0  0  0  0  0  0
  189.7310  177.7510  137.7550 C   0  0  1  0  0  3  0  0  0  0  0  0
  187.9690  178.4330  141.1260 C   0  0  0  0  0  0  0  0  0  0  0  0
  192.4320  176.7930  139.1020 O   0  0  0  0  0  1  0  0  0  0  0  0
  187.1150  178.3830  139.0480 C   0  0  0  0  0  0  0  0  0  0  0  0
  190.2170  176.6490  140.0130 C   0  0  0  0  0  2  0  0  0  0  0  0
  187.1440  178.3880  137.5930 C   0  0  0  0  0  0  0  0  0  0  0  0
  185.7320  178.8490  142.1370 C   0  0  0  0  0  2  0  0  0  0  0  0
  188.5660  177.1680  146.3710 C   0  0  0  0  0  3  0  0  0  0  0  0
  187.4390  177.3910  144.1810 C   0  0  0  0  0  3  0  0  0  0  0  0
  187.4700  176.9910  145.6060 C   0  0  0  0  0  3  0  0  0  0  0  0
  190.6740  178.6420  143.6670 N   0  0  0  0  0  0  0  0  0  0  0  0
  189.7380  178.1450  144.4080 C   0  0  0  0  0  0  0  0  0  0  0  0
  188.5260  177.9550  143.6630 C   0  0  0  0  0  0  0  0  0  0  0  0
  190.1140  178.8060  142.3550 C   0  0  0  0  0  3  0  0  0  0  0  0
  190.9430  176.8300  146.0380 N   0  0  0  0  0  1  0  0  0  0  0  0
  188.8370  178.4200  142.3230 C   0  0  0  0  0  0  0  0  0  0  0  0
  189.8580  177.7790  145.8580 C   0  0  2  0  0  3  0  0  0  0  0  0
  1  6  1  1  0  0  0
  1 11  1  0  0  0  0
  1  9  1  0  0  0  0
  2 16  1  0  0  0  0
  3 10  1  0  0  0  0
  3 15  1  1  0  0  0
  4 13  1  6  0  0  0
  4 15  1  0  0  0  0
  5  7  1  0  0  0  0
  7 12  1  0  0  0  0
  7 17  2  0  0  0  0
  8 16  2  0  0  0  0
  9  4  1  0  0  0  0
 10 12  2  0  0  0  0
 11  2  1  6  0  0  0
 11  3  1  0  0  0  0
 12 26  1  0  0  0  0
 14  5  2  0  0  0  0
 14 10  1  0  0  0  0
 16 14  1  0  0  0  0
 19 20  1  0  0  0  0
 20 18  2  0  0  0  0
 21 22  2  0  0  0  0
 22 27  1  0  0  0  0
 23 19  2  0  0  0  0
 23 22  1  0  0  0  0
 24 21  1  0  0  0  0
 26 24  2  0  0  0  0
 26 23  1  0  0  0  0
 27 25  1  6  0  0  0
 27 18  1  0  0  0  0
M  END
>  <MODEL>
4

>  <REMARK>
 VINA RESULT:      -6.8      3.457      6.310
  Name = 
  1 active torsions:
  status: ('A' for Active; 'I' for Inactive)
    1  A    between atoms: C_18  and  C_26
                            x       y       z     vdW  Elec       q    Type
                         _______ _______ _______ _____ _____    ______ ____

>  <TORSDO>
F 1

$$$$
=
 OpenBabel10232411443D

 27 31  0  0  1  0  0  0  0  0999 V2000
  184.2140  179.5300  144.0260 C   0  0  2  0  0  3  0  0  0  0  0  0
  183.4360  177.8970  141.8590 S   0  0  0  0  0  0  0  0  0  0  0  0
  185.9480  177.7450  143.2760 C   0  0  2  0  0  3  0  0  0  0  0  0
  186.0150  178.6600  145.6600 C   0  0  1  0  0  3  0  0  0  0  0  0
  186.6940  178.8530  139.7960 N   0  0  0  0  0  0  0  0  0  0  0  0
  184.7930  180.5560  143.2760 O   0  0  0  0  0  1  0  0  0  0  0  0
  187.9570  178.3510  140.2150 C   0  0  0  0  0  0  0  0  0  0  0  0
  183.9820  179.7990  140.0770 O   0  0  0  0  0  0  0  0  0  0  0  0
  184.7810  179.5530  145.4510 C   0  0  0  0  0  2  0  0  0  0  0  0
  186.5750  177.9700  141.9180 C   0  0  0  0  0  0  0  0  0  0  0  0
  184.4520  178.1700  143.3630 C   0  0  1  0  0  3  0  0  0  0  0  0
  187.8390  177.7590  141.5480 C   0  0  0  0  0  0  0  0  0  0  0  0
  185.6310  177.4360  146.2100 O   0  0  0  0  0  1  0  0  0  0  0  0
  185.9050  178.6200  140.7940 C   0  0  2  0  0  3  0  0  0  0  0  0
  186.7930  178.4350  144.3630 C   0  0  0  0  0  2  0  0  0  0  0  0
  184.4750  178.8890  140.7930 C   0  0  0  0  0  0  0  0  0  0  0  0
  189.0090  178.2690  139.4110 C   0  0  0  0  0  1  0  0  0  0  0  0
  192.1840  178.3550  144.7470 C   0  0  0  0  0  3  0  0  0  0  0  0
  190.2740  179.0260  143.3260 C   0  0  0  0  0  3  0  0  0  0  0  0
  191.4360  179.3300  144.1920 C   0  0  0  0  0  3  0  0  0  0  0  0
  190.1980  175.5210  143.3490 N   0  0  0  0  0  0  0  0  0  0  0  0
  190.7150  176.6610  143.6700 C   0  0  0  0  0  0  0  0  0  0  0  0
  189.9850  177.7510  143.0870 C   0  0  0  0  0  0  0  0  0  0  0  0
  189.0630  175.8060  142.5160 C   0  0  0  0  0  3  0  0  0  0  0  0
  191.6870  176.2500  145.8440 N   0  0  0  0  0  1  0  0  0  0  0  0
  188.9180  177.1190  142.3310 C   0  0  0  0  0  0  0  0  0  0  0  0
  191.9110  176.8740  144.5510 C   0  0  2  0  0  3  0  0  0  0  0  0
  1  6  1  6  0  0  0
  1  9  1  0  0  0  0
  3 11  1  0  0  0  0
  3 15  1  1  0  0  0
  4 13  1  6  0  0  0
  5  7  2  0  0  0  0
  7 12  1  0  0  0  0
  8 16  2  0  0  0  0
  9  4  1  0  0  0  0
 10  3  1  0  0  0  0
 11  2  1  6  0  0  0
 11  1  1  0  0  0  0
 12 10  2  0  0  0  0
 12 26  1  0  0  0  0
 14  5  1  6  0  0  0
 14 10  1  0  0  0  0
 15  4  1  0  0  0  0
 16 14  1  0  0  0  0
 16  2  1  0  0  0  0
 17  7  1  0  0  0  0
 19 20  1  0  0  0  0
 20 18  2  0  0  0  0
 21 22  2  0  0  0  0
 22 27  1  0  0  0  0
 23 19  2  0  0  0  0
 23 22  1  0  0  0  0
 24 21  1  0  0  0  0
 26 24  2  0  0  0  0
 26 23  1  0  0  0  0
 27 18  1  0  0  0  0
 27 25  1  1  0  0  0
M  END
>  <MODEL>
5

>  <REMARK>
 VINA RESULT:      -6.5      3.790      5.636
  Name = 
  1 active torsions:
  status: ('A' for Active; 'I' for Inactive)
    1  A    between atoms: C_18  and  C_26
                            x       y       z     vdW  Elec       q    Type
                         _______ _______ _______ _____ _____    ______ ____

>  <TORSDO>
F 1

$$$$
=
 OpenBabel10232411443D

 27 31  0  0  1  0  0  0  0  0999 V2000
  188.1400  177.5440  143.8720 C   0  0  2  0  0  3  0  0  0  0  0  0
  190.5610  178.9880  143.7300 S   0  0  0  0  0  0  0  0  0  0  0  0
  188.7570  178.4900  141.5310 C   0  0  2  0  0  3  0  0  0  0  0  0
  186.3160  177.9890  142.0960 C   0  0  1  0  0  3  0  0  0  0  0  0
  191.9270  176.6690  140.8070 N   0  0  0  0  0  0  0  0  0  0  0  0
  188.6730  176.2790  143.6130 O   0  0  0  0  0  1  0  0  0  0  0  0
  191.3500  176.7690  139.5100 C   0  0  0  0  0  0  0  0  0  0  0  0
  192.0230  176.7630  143.6900 O   0  0  0  0  0  0  0  0  0  0  0  0
  186.6440  177.5500  143.5330 C   0  0  0  0  0  2  0  0  0  0  0  0
  189.9570  177.8580  140.8620 C   0  0  0  0  0  0  0  0  0  0  0  0
  188.8860  178.6210  143.0770 C   0  0  1  0  0  3  0  0  0  0  0  0
  190.1230  177.5640  139.5720 C   0  0  0  0  0  0  0  0  0  0  0  0
  185.9670  179.3400  142.0780 O   0  0  0  0  0  1  0  0  0  0  0  0
  191.1080  177.3100  141.5760 C   0  0  2  0  0  3  0  0  0  0  0  0
  187.4770  177.7310  141.1350 C   0  0  0  0  0  2  0  0  0  0  0  0
  191.3280  177.5480  142.9950 C   0  0  0  0  0  0  0  0  0  0  0  0
  191.9650  176.3610  138.4080 C   0  0  0  0  0  1  0  0  0  0  0  0
  186.8390  175.8520  135.6040 C   0  0  0  0  0  3  0  0  0  0  0  0
  188.3970  175.6940  137.5180 C   0  0  0  0  0  3  0  0  0  0  0  0
  187.5250  175.0950  136.4830 C   0  0  0  0  0  3  0  0  0  0  0  0
  188.0030  179.1320  136.9520 N   0  0  0  0  0  0  0  0  0  0  0  0
  187.7860  177.8890  136.6720 C   0  0  0  0  0  0  0  0  0  0  0  0
  188.5100  177.0180  137.5540 C   0  0  0  0  0  0  0  0  0  0  0  0
  188.9050  179.1480  138.0700 C   0  0  0  0  0  2  0  0  0  0  0  0
  185.5440  177.8950  135.7690 N   0  0  0  0  0  1  0  0  0  0  0  0
  189.2350  177.9100  138.4420 C   0  0  0  0  0  0  0  0  0  0  0  0
  186.8860  177.3700  135.5880 C   0  0  0  0  0  0  0  0  0  0  0  0
  1  6  1  6  0  0  0
  3 15  1  1  0  0  0
  3 11  1  0  0  0  0
  4 13  1  1  0  0  0
  4  9  1  0  0  0  0
  7 12  1  0  0  0  0
  7  5  2  0  0  0  0
  9  1  1  0  0  0  0
 10  3  1  0  0  0  0
 10 14  1  0  0  0  0
 11  2  1  6  0  0  0
 11  1  1  0  0  0  0
 12 10  2  0  0  0  0
 14  5  1  6  0  0  0
 14 16  1  0  0  0  0
 15  4  1  0  0  0  0
 16  8  2  0  0  0  0
 16  2  1  0  0  0  0
 17  7  1  0  0  0  0
 18 20  1  0  0  0  0
 19 23  1  0  0  0  0
 20 19  2  0  0  0  0
 21 24  1  0  0  0  0
 22 21  2  0  0  0  0
 22 23  1  0  0  0  0
 23 26  2  0  0  0  0
 24 26  1  0  0  0  0
 26 12  1  0  0  0  0
 27 18  2  0  0  0  0
 27 25  1  0  0  0  0
 27 22  1  0  0  0  0
M  END
>  <MODEL>
6

>  <REMARK>
 VINA RESULT:      -6.2      2.255      4.573
  Name = 
  1 active torsions:
  status: ('A' for Active; 'I' for Inactive)
    1  A    between atoms: C_18  and  C_26
                            x       y       z     vdW  Elec       q    Type
                         _______ _______ _______ _____ _____    ______ ____

>  <TORSDO>
F 1

$$$$
=
 OpenBabel10232411443D

 27 31  0  0  1  0  0  0  0  0999 V2000
  192.0030  177.2130  142.5610 C   0  0  2  0  0  3  0  0  0  0  0  0
  191.5230  175.2630  144.5450 S   0  0  0  0  0  0  0  0  0  0  0  0
  189.5050  176.6900  143.0520 C   0  0  2  0  0  3  0  0  0  0  0  0
  190.1790  177.6640  140.7880 C   0  0  1  0  0  3  0  0  0  0  0  0
  189.2120  177.7460  146.6140 N   0  0  0  0  0  0  0  0  0  0  0  0
  192.0420  178.3220  143.4090 O   0  0  0  0  0  1  0  0  0  0  0  0
  187.9300  178.0920  146.1050 C   0  0  0  0  0  0  0  0  0  0  0  0
  191.9950  176.9860  146.5200 O   0  0  0  0  0  0  0  0  0  0  0  0
  191.6770  177.6690  141.1340 C   0  0  0  0  0  2  0  0  0  0  0  0
  188.9970  177.1250  144.4090 C   0  0  0  0  0  0  0  0  0  0  0  0
  190.9780  176.1860  143.0560 C   0  0  1  0  0  3  0  0  0  0  0  0
  187.8090  177.6470  144.7170 C   0  0  0  0  0  0  0  0  0  0  0  0
  189.8490  176.4880  140.1120 O   0  0  0  0  0  1  0  0  0  0  0  0
  189.8150  177.1820  145.6180 C   0  0  0  0  0  0  0  0  0  0  0  0
  189.2990  177.8220  142.0290 C   0  0  0  0  0  2  0  0  0  0  0  0
  191.1390  176.5830  145.6900 C   0  0  0  0  0  0  0  0  0  0  0  0
  186.9500  178.5640  146.8650 C   0  0  0  0  0  2  0  0  0  0  0  0
  182.5490  178.8950  144.2350 C   0  0  0  0  0  3  0  0  0  0  0  0
  184.7180  178.5020  145.3560 C   0  0  0  0  0  3  0  0  0  0  0  0
  183.2840  178.8700  145.3650 C   0  0  0  0  0  3  0  0  0  0  0  0
  185.3370  177.9190  141.9550 N   0  0  0  0  0  0  0  0  0  0  0  0
  184.5620  178.2070  142.9490 C   0  0  1  0  0  3  0  0  0  0  0  0
  185.2750  178.1720  144.1950 C   0  0  0  0  0  0  0  0  0  0  0  0
  186.6400  177.6750  142.5070 C   0  0  0  0  0  3  0  0  0  0  0  0
  182.9270  179.6980  141.9800 N   0  0  0  0  0  1  0  0  0  0  0  0
  186.6330  177.8050  143.8350 C   0  0  0  0  0  0  0  0  0  0  0  0
  183.1060  178.5600  142.8630 C   0  0  0  0  0  0  0  0  0  0  0  0
  1 11  1  0  0  0  0
  1  6  1  1  0  0  0
  2 16  1  0  0  0  0
  3 15  1  6  0  0  0
  3 11  1  0  0  0  0
  3 10  1  0  0  0  0
  4 13  1  1  0  0  0
  4  9  1  0  0  0  0
  4 15  1  0  0  0  0
  7  5  1  0  0  0  0
  7 17  2  0  0  0  0
  9  1  1  0  0  0  0
 10 12  2  0  0  0  0
 10 14  1  0  0  0  0
 11  2  1  1  0  0  0
 12  7  1  0  0  0  0
 14 16  1  0  0  0  0
 14  5  2  0  0  0  0
 16  8  2  0  0  0  0
 18 20  1  0  0  0  0
 19 20  2  0  0  0  0
 21 24  2  0  0  0  0
 22 21  1  6  0  0  0
 22 23  1  0  0  0  0
 23 19  1  0  0  0  0
 24 26  1  0  0  0  0
 25 27  1  0  0  0  0
 26 23  2  0  0  0  0
 26 12  1  0  0  0  0
 27 22  1  0  0  0  0
 27 18  2  0  0  0  0
M  END
>  <MODEL>
7

>  <REMARK>
 VINA RESULT:      -6.2      3.987      7.479
  Name = 
  1 active torsions:
  status: ('A' for Active; 'I' for Inactive)
    1  A    between atoms: C_18  and  C_26
                            x       y       z     vdW  Elec       q    Type
                         _______ _______ _______ _____ _____    ______ ____

>  <TORSDO>
F 1

$$$$
=
 OpenBabel10232411443D

 27 31  0  0  1  0  0  0  0  0999 V2000
  189.4100  175.0640  135.6140 C   0  0  2  0  0  3  0  0  0  0  0  0
  188.9990  177.7990  135.0520 S   0  0  0  0  0  0  0  0  0  0  0  0
  190.0710  176.7190  137.5060 C   0  0  2  0  0  3  0  0  0  0  0  0
  191.1520  174.4060  137.4050 C   0  0  1  0  0  3  0  0  0  0  0  0
  186.7820  178.2730  138.3140 N   0  0  0  0  0  0  0  0  0  0  0  0
  188.1470  174.8010  136.1480 O   0  0  0  0  0  1  0  0  0  0  0  0
  187.4050  178.2390  139.5920 C   0  0  0  0  0  0  0  0  0  0  0  0
  186.3860  177.6260  135.5300 O   0  0  0  0  0  0  0  0  0  0  0  0
  190.4080  174.0140  136.1180 C   0  0  0  0  0  2  0  0  0  0  0  0
  188.9250  177.4470  138.1720 C   0  0  0  0  0  0  0  0  0  0  0  0
  189.8720  176.4780  135.9810 C   0  0  1  0  0  3  0  0  0  0  0  0
  188.7780  177.7490  139.4630 C   0  0  0  0  0  0  0  0  0  0  0  0
  192.4050  174.9350  137.0900 O   0  0  0  0  0  1  0  0  0  0  0  0
  187.6790  177.8150  137.5030 C   0  0  0  0  0  0  0  0  0  0  0  0
  190.3580  175.4020  138.2510 C   0  0  0  0  0  2  0  0  0  0  0  0
  187.5220  177.7410  136.0590 C   0  0  0  0  0  0  0  0  0  0  0  0
  186.8610  178.7670  140.6810 C   0  0  0  0  0  2  0  0  0  0  0  0
  189.7200  176.5610  144.6750 C   0  0  0  0  0  3  0  0  0  0  0  0
  188.4100  176.9640  142.6160 C   0  0  0  0  0  3  0  0  0  0  0  0
  188.5270  176.6170  144.0510 C   0  0  0  0  0  3  0  0  0  0  0  0
  191.7550  177.4100  141.6630 N   0  0  0  0  0  0  0  0  0  0  0  0
  190.8300  177.1710  142.5340 C   0  0  1  0  0  3  0  0  0  0  0  0
  189.5230  177.2420  141.9450 C   0  0  0  0  0  0  0  0  0  0  0  0
  191.0880  177.6560  140.4150 C   0  0  0  0  0  3  0  0  0  0  0  0
  191.8990  175.6680  144.0960 N   0  0  0  0  0  1  0  0  0  0  0  0
  189.7630  177.5760  140.5520 C   0  0  0  0  0  0  0  0  0  0  0  0
  191.0430  176.8370  143.9820 C   0  0  0  0  0  0  0  0  0  0  0  0
  1 11  1  0  0  0  0
  1  9  1  0  0  0  0
  1  6  1  1  0  0  0
  2 16  1  0  0  0  0
  3 10  1  0  0  0  0
  3 15  1  1  0  0  0
  4 13  1  6  0  0  0
  4 15  1  0  0  0  0
  5  7  1  0  0  0  0
  7 17  2  0  0  0  0
  8 16  2  0  0  0  0
  9  4  1  0  0  0  0
 10 12  2  0  0  0  0
 11  2  1  1  0  0  0
 11  3  1  0  0  0  0
 12  7  1  0  0  0  0
 12 26  1  0  0  0  0
 14 10  1  0  0  0  0
 14  5  2  0  0  0  0
 16 14  1  0  0  0  0
 19 20  2  0  0  0  0
 20 18  1  0  0  0  0
 22 21  1  6  0  0  0
 22 27  1  0  0  0  0
 23 22  1  0  0  0  0
 23 19  1  0  0  0  0
 24 26  1  0  0  0  0
 24 21  2  0  0  0  0
 26 23  2  0  0  0  0
 27 25  1  0  0  0  0
 27 18  2  0  0  0  0
M  END
>  <MODEL>
8

>  <REMARK>
 VINA RESULT:      -6.1      3.520      6.167
  Name = 
  1 active torsions:
  status: ('A' for Active; 'I' for Inactive)
    1  A    between atoms: C_18  and  C_26
                            x       y       z     vdW  Elec       q    Type
                         _______ _______ _______ _____ _____    ______ ____

>  <TORSDO>
F 1

$$$$
=
 OpenBabel10232411443D

 27 31  0  0  1  0  0  0  0  0999 V2000
  191.1090  177.3770  141.7740 C   0  0  2  0  0  3  0  0  0  0  0  0
  190.5400  175.4140  143.7210 S   0  0  0  0  0  0  0  0  0  0  0  0
  188.5890  176.9130  142.2100 C   0  0  2  0  0  3  0  0  0  0  0  0
  189.3320  177.8990  139.9730 C   0  0  1  0  0  3  0  0  0  0  0  0
  188.2560  177.9290  145.7810 N   0  0  0  0  0  0  0  0  0  0  0  0
  191.1610  178.4730  142.6370 O   0  0  0  0  0  1  0  0  0  0  0  0
  186.9930  178.3150  145.2530 C   0  0  0  0  0  0  0  0  0  0  0  0
  191.0190  177.0970  145.7280 O   0  0  0  0  0  0  0  0  0  0  0  0
  190.8230  177.8610  140.3470 C   0  0  0  0  0  2  0  0  0  0  0  0
  188.0670  177.3430  143.5630 C   0  0  0  0  0  0  0  0  0  0  0  0
  190.0490  176.3710  142.2350 C   0  0  1  0  0  3  0  0  0  0  0  0
  186.8880  177.8930  143.8560 C   0  0  0  0  0  0  0  0  0  0  0  0
  188.9840  176.7420  139.2740 O   0  0  0  0  0  1  0  0  0  0  0  0
  188.8630  177.3630  144.7880 C   0  0  0  0  0  0  0  0  0  0  0  0
  188.4330  178.0650  141.1990 C   0  0  0  0  0  2  0  0  0  0  0  0
  190.1690  176.7280  144.8770 C   0  0  0  0  0  0  0  0  0  0  0  0
  186.0120  178.8030  146.0010 C   0  0  0  0  0  2  0  0  0  0  0  0
  181.5830  178.9110  143.3250 C   0  0  0  0  0  3  0  0  0  0  0  0
  183.7340  178.5000  144.4730 C   0  0  0  0  0  3  0  0  0  0  0  0
  182.2820  178.7880  144.4710 C   0  0  0  0  0  3  0  0  0  0  0  0
  184.4930  178.3650  141.0530 N   0  0  0  0  0  0  0  0  0  0  0  0
  183.6720  178.4900  142.0440 C   0  0  1  0  0  3  0  0  0  0  0  0
  184.3450  178.3420  143.3040 C   0  0  0  0  0  0  0  0  0  0  0  0
  185.7900  178.1250  141.6220 C   0  0  0  0  0  3  0  0  0  0  0  0
  181.9860  179.9990  141.1970 N   0  0  0  0  0  1  0  0  0  0  0  0
  185.7330  178.0930  142.9550 C   0  0  0  0  0  0  0  0  0  0  0  0
  182.2020  178.7730  141.9450 C   0  0  0  0  0  0  0  0  0  0  0  0
  1 11  1  0  0  0  0
  1  6  1  1  0  0  0
  2 16  1  0  0  0  0
  3 15  1  6  0  0  0
  3 11  1  0  0  0  0
  3 10  1  0  0  0  0
  4 13  1  1  0  0  0
  4  9  1  0  0  0  0
  4 15  1  0  0  0  0
  7  5  1  0  0  0  0
  7 17  2  0  0  0  0
  9  1  1  0  0  0  0
 10 12  2  0  0  0  0
 10 14  1  0  0  0  0
 11  2  1  1  0  0  0
 12  7  1  0  0  0  0
 14 16  1  0  0  0  0
 14  5  2  0  0  0  0
 16  8  2  0  0  0  0
 18 20  1  0  0  0  0
 20 19  2  0  0  0  0
 21 24  2  0  0  0  0
 22 21  1  1  0  0  0
 22 23  1  0  0  0  0
 23 19  1  0  0  0  0
 24 26  1  0  0  0  0
 25 27  1  0  0  0  0
 26 23  2  0  0  0  0
 26 12  1  0  0  0  0
 27 22  1  0  0  0  0
 27 18  2  0  0  0  0
M  END
>  <MODEL>
9

>  <REMARK>
 VINA RESULT:      -5.7      3.890      7.528
  Name = 
  1 active torsions:
  status: ('A' for Active; 'I' for Inactive)
    1  A    between atoms: C_18  and  C_26
                            x       y       z     vdW  Elec       q    Type
                         _______ _______ _______ _____ _____    ______ ____

>  <TORSDO>
F 1

$$$$
