=
 OpenBabel10232412013D

 41 44  0  0  1  0  0  0  0  0999 V2000
  190.7550  177.0430  139.5680 C   0  0  0  0  0  0  0  0  0  0  0  0
  191.2460  178.3920  143.4900 O   0  0  0  0  0  1  0  0  0  0  0  0
  192.1740  177.4070  141.4700 C   0  0  0  0  0  3  0  0  0  0  0  0
  188.5520  178.5860  142.2110 C   0  0  0  0  0  3  0  0  0  0  0  0
  188.6120  177.5610  139.5070 C   0  0  0  0  0  0  0  0  0  0  0  0
  189.7180  177.5550  140.2780 C   0  0  2  0  0  3  0  0  0  0  0  0
  187.3540  178.1150  140.0190 C   0  0  0  0  0  3  0  0  0  0  0  0
  191.0700  177.9450  142.1860 C   0  0  0  0  0  0  0  0  0  0  0  0
  188.9060  177.0460  138.2890 N   0  0  0  0  0  0  0  0  0  0  0  0
  189.8060  178.0260  141.5670 C   0  0  0  0  0  0  0  0  0  0  0  0
  192.0270  176.9490  140.1370 C   0  0  0  0  0  3  0  0  0  0  0  0
  190.2360  176.7370  138.3170 C   0  0  0  0  0  0  0  0  0  0  0  0
  187.3280  178.6090  141.2790 C   0  0  0  0  0  0  0  0  0  0  0  0
  186.7510  176.4190  137.4810 O   0  0  0  0  0  0  0  0  0  0  0  0
  188.0080  176.9440  137.1410 C   0  0  2  0  0  0  0  0  0  0  0  0
  187.6110  175.5860  136.7280 C   0  0  0  0  0  2  0  0  0  0  0  0
  187.9410  178.0820  136.1370 C   0  0  0  0  0  2  0  0  0  0  0  0
  187.6620  179.2810  136.7920 O   0  0  0  0  0  1  0  0  0  0  0  0
  191.0000  176.1480  137.1780 C   0  0  0  0  0  2  0  0  0  0  0  0
  192.3950  174.1840  136.9720 C   0  0  0  0  0  0  0  0  0  0  0  0
  193.4810  173.6460  136.4830 C   0  0  0  0  0  3  0  0  0  0  0  0
  191.3150  174.7220  137.4620 C   0  0  0  0  0  3  0  0  0  0  0  0
  194.7680  174.2680  136.6060 N   0  0  0  0  0  0  0  0  0  0  0  0
  195.5680  174.2280  138.1410 S   0  0  0  0  0  0  0  0  0  0  0  0
  195.0710  175.3650  138.9900 O   0  0  0  0  0  0  0  0  0  0  0  0
  195.2720  172.9250  138.8310 O   0  0  0  0  0  0  0  0  0  0  0  0
  197.9790  174.9190  139.1640 C   0  0  0  0  0  1  0  0  0  0  0  0
  197.8690  173.1210  137.6150 O   0  0  0  0  0  1  0  0  0  0  0  0
  197.3300  174.3730  137.9090 C   0  0  1  0  0  3  0  0  0  0  0  0
  195.3610  175.0520  135.5270 C   0  0  0  0  0  2  0  0  0  0  0  0
  194.8400  176.4770  135.5650 C   0  0  0  0  0  1  0  0  0  0  0  0
  186.0520  179.1590  141.8170 C   0  0  0  0  0  2  0  0  0  0  0  0
  185.2770  178.0810  142.5610 C   0  0  0  0  0  2  0  0  0  0  0  0
  184.7290  179.3410  144.6450 C   0  0  0  0  0  1  0  0  0  0  0  0
  186.3520  177.4340  144.7470 C   0  0  0  0  0  0  0  0  0  0  0  0
  185.4370  178.2500  143.9980 N   0  0  0  0  0  0  0  0  0  0  0  0
  187.0360  176.5500  144.1590 O   0  0  0  0  0  0  0  0  0  0  0  0
  186.4870  177.6260  146.1600 N   0  0  0  0  0  0  0  0  0  0  0  0
  187.6360  177.8070  146.7260 C   0  0  0  0  0  3  0  0  0  0  0  0
  187.7150  178.0010  148.1980 C   0  0  0  0  0  2  0  0  0  0  0  0
  189.1560  178.2370  148.6000 C   0  0  0  0  0  1  0  0  0  0  0  0
  1 11  1  0  0  0  0
  1  6  1  0  0  0  0
  3  8  1  0  0  0  0
  5  7  2  0  0  0  0
  6  5  1  6  0  0  0
  6 10  1  0  0  0  0
  7 13  1  0  0  0  0
  8  2  1  0  0  0  0
  9 12  1  0  0  0  0
  9  5  1  0  0  0  0
 10  8  2  0  0  0  0
 10  4  1  0  0  0  0
 11  3  2  0  0  0  0
 12  1  2  0  0  0  0
 13 32  1  0  0  0  0
 13  4  2  0  0  0  0
 15 17  1  6  0  0  0
 15 14  1  0  0  0  0
 15  9  1  0  0  0  0
 16 15  1  0  0  0  0
 16 14  1  0  0  0  0
 17 18  1  0  0  0  0
 19 22  1  0  0  0  0
 19 12  1  0  0  0  0
 20 22  2  0  0  0  0
 21 23  1  0  0  0  0
 21 20  2  0  0  0  0
 23 24  1  0  0  0  0
 24 26  2  0  0  0  0
 24 25  2  0  0  0  0
 28 29  1  0  0  0  0
 29 24  1  0  0  0  0
 29 27  1  1  0  0  0
 30 31  1  0  0  0  0
 30 23  1  0  0  0  0
 32 33  1  0  0  0  0
 33 36  1  0  0  0  0
 35 38  1  0  0  0  0
 36 34  1  0  0  0  0
 36 35  1  0  0  0  0
 37 35  2  0  0  0  0
 38 39  2  0  0  0  0
 39 40  1  0  0  0  0
 40 41  1  0  0  0  0
M  END
>  <MODEL>
1

>  <REMARK>
 VINA RESULT:      -7.4      0.000      0.000
  Name = 
  13 active torsions:
  status: ('A' for Active; 'I' for Inactive)
    1  A    between atoms: C_6  and  C_31
    2  A    between atoms: S_8  and  C_23
    3  A    between atoms: S_8  and  N_24
    4  A    between atoms: C_9  and  C_29
    5  A    between atoms: C_9  and  N_34
    6  A    between atoms: C_13  and  C_36
    7  A    between atoms: C_13  and  C_41
    8  A    between atoms: N_14  and  C_16
    9  A    between atoms: C_18  and  N_24
   10  A    between atoms: C_21  and  C_25
   11  A    between atoms: N_24  and  C_38
   12  A    between atoms: C_25  and  N_27
   13  A    between atoms: C_29  and  C_40
                            x       y       z     vdW  Elec       q    Type
                         _______ _______ _______ _____ _____    ______ ____

>  <TORSDO>
F 13

$$$$
=
 OpenBabel10232412013D

 41 44  0  0  1  0  0  0  0  0999 V2000
  187.4340  177.9670  142.1050 C   0  0  0  0  0  0  0  0  0  0  0  0
  183.8980  178.8250  144.1550 O   0  0  0  0  0  1  0  0  0  0  0  0
  186.2480  178.2000  144.1780 C   0  0  0  0  0  3  0  0  0  0  0  0
  183.9160  178.9500  141.1680 C   0  0  0  0  0  2  0  0  0  0  0  0
  186.5310  178.2990  140.1200 C   0  0  0  0  0  0  0  0  0  0  0  0
  186.2920  178.2880  141.4460 C   0  0  0  0  0  0  0  0  0  0  0  0
  185.4700  178.6690  139.1770 C   0  0  0  0  0  3  0  0  0  0  0  0
  185.0680  178.5410  143.4620 C   0  0  0  0  0  0  0  0  0  0  0  0
  187.8270  177.9770  139.8910 N   0  0  0  0  0  0  0  0  0  0  0  0
  185.0960  178.5910  142.0530 C   0  0  0  0  0  0  0  0  0  0  0  0
  187.4570  177.9090  143.4990 C   0  0  0  0  0  3  0  0  0  0  0  0
  188.3940  177.7840  141.1180 C   0  0  0  0  0  0  0  0  0  0  0  0
  184.2500  178.9890  139.6680 C   0  0  0  0  0  0  0  0  0  0  0  0
  187.8520  177.1390  137.6570 O   0  0  0  0  0  0  0  0  0  0  0  0
  188.5080  177.9490  138.5980 C   0  0  2  0  0  0  0  0  0  0  0  0
  189.0750  176.6560  138.1750 C   0  0  0  0  0  2  0  0  0  0  0  0
  189.0620  179.2360  138.0130 C   0  0  0  0  0  2  0  0  0  0  0  0
  188.1740  179.7500  137.0670 O   0  0  0  0  0  1  0  0  0  0  0  0
  189.8230  177.4180  141.3510 C   0  0  0  0  0  2  0  0  0  0  0  0
  190.5510  176.1730  143.2910 C   0  0  0  0  0  0  0  0  0  0  0  0
  191.1990  176.1740  144.4260 C   0  0  0  0  0  3  0  0  0  0  0  0
  189.9020  176.1740  142.1620 C   0  0  0  0  0  3  0  0  0  0  0  0
  190.9850  177.1740  145.4320 N   0  0  0  0  0  0  0  0  0  0  0  0
  190.9180  176.6830  147.0910 S   0  0  0  0  0  0  0  0  0  0  0  0
  191.3300  175.2420  147.1990 O   0  0  0  0  0  0  0  0  0  0  0  0
  191.8520  177.5320  147.9080 O   0  0  0  0  0  0  0  0  0  0  0  0
  189.1180  178.2300  148.3980 C   0  0  0  0  0  1  0  0  0  0  0  0
  188.3490  176.8030  146.6600 O   0  0  0  0  0  1  0  0  0  0  0  0
  189.2590  176.8850  147.7130 C   0  0  1  0  0  3  0  0  0  0  0  0
  190.6830  178.5630  145.0990 C   0  0  0  0  0  2  0  0  0  0  0  0
  191.7530  179.1270  144.1820 C   0  0  0  0  0  1  0  0  0  0  0  0
  183.1590  179.3500  138.7190 C   0  0  0  0  0  2  0  0  0  0  0  0
  182.1190  178.2410  138.6530 C   0  0  0  0  0  2  0  0  0  0  0  0
  182.6510  177.3980  136.3650 C   0  0  0  0  0  1  0  0  0  0  0  0
  182.8860  175.8620  138.3310 C   0  0  0  0  0  0  0  0  0  0  0  0
  182.5900  177.1620  137.7970 N   0  0  0  0  0  0  0  0  0  0  0  0
  182.7370  175.6370  139.5650 O   0  0  0  0  0  0  0  0  0  0  0  0
  183.3470  174.8210  137.4610 N   0  0  0  0  0  0  0  0  0  0  0  0
  184.2990  174.0110  137.7950 C   0  0  0  0  0  3  0  0  0  0  0  0
  184.7350  172.9500  136.8510 C   0  0  0  0  0  2  0  0  0  0  0  0
  186.2270  172.7310  136.9910 C   0  0  0  0  0  1  0  0  0  0  0  0
  1 11  1  0  0  0  0
  4 10  1  0  0  0  0
  5  6  2  0  0  0  0
  6 10  1  0  0  0  0
  6  1  1  0  0  0  0
  7 13  2  0  0  0  0
  7  5  1  0  0  0  0
  8  2  1  0  0  0  0
  8  3  1  0  0  0  0
  9  5  1  0  0  0  0
  9 12  1  0  0  0  0
 10  8  2  0  0  0  0
 11  3  2  0  0  0  0
 12 19  1  0  0  0  0
 12  1  2  0  0  0  0
 13  4  1  0  0  0  0
 14 16  1  0  0  0  0
 14 15  1  0  0  0  0
 15 17  1  6  0  0  0
 15  9  1  0  0  0  0
 16 15  1  0  0  0  0
 18 17  1  0  0  0  0
 19 22  1  0  0  0  0
 20 21  2  0  0  0  0
 21 23  1  0  0  0  0
 22 20  2  0  0  0  0
 23 24  1  0  0  0  0
 24 25  2  0  0  0  0
 24 29  1  0  0  0  0
 24 26  2  0  0  0  0
 28 29  1  0  0  0  0
 29 27  1  6  0  0  0
 30 23  1  0  0  0  0
 31 30  1  0  0  0  0
 32 13  1  0  0  0  0
 33 32  1  0  0  0  0
 34 36  1  0  0  0  0
 35 37  2  0  0  0  0
 36 35  1  0  0  0  0
 36 33  1  0  0  0  0
 38 39  2  0  0  0  0
 38 35  1  0  0  0  0
 40 41  1  0  0  0  0
 40 39  1  0  0  0  0
M  END
>  <MODEL>
2

>  <REMARK>
 VINA RESULT:      -7.3      4.577      7.683
  Name = 
  13 active torsions:
  status: ('A' for Active; 'I' for Inactive)
    1  A    between atoms: C_6  and  C_31
    2  A    between atoms: S_8  and  C_23
    3  A    between atoms: S_8  and  N_24
    4  A    between atoms: C_9  and  C_29
    5  A    between atoms: C_9  and  N_34
    6  A    between atoms: C_13  and  C_36
    7  A    between atoms: C_13  and  C_41
    8  A    between atoms: N_14  and  C_16
    9  A    between atoms: C_18  and  N_24
   10  A    between atoms: C_21  and  C_25
   11  A    between atoms: N_24  and  C_38
   12  A    between atoms: C_25  and  N_27
   13  A    between atoms: C_29  and  C_40
                            x       y       z     vdW  Elec       q    Type
                         _______ _______ _______ _____ _____    ______ ____

>  <TORSDO>
F 13

$$$$
=
 OpenBabel10232412013D

 41 44  0  0  1  0  0  0  0  0999 V2000
  189.2150  177.0130  138.4090 C   0  0  0  0  0  0  0  0  0  0  0  0
  185.5960  178.1170  136.6420 O   0  0  0  0  0  1  0  0  0  0  0  0
  187.8200  177.1510  136.4620 C   0  0  0  0  0  3  0  0  0  0  0  0
  185.9970  178.6030  139.5640 C   0  0  0  0  0  3  0  0  0  0  0  0
  188.6110  177.7060  140.4150 C   0  0  0  0  0  0  0  0  0  0  0  0
  188.2240  177.5980  139.1280 C   0  0  2  0  0  3  0  0  0  0  0  0
  187.6980  178.2600  141.4210 C   0  0  0  0  0  3  0  0  0  0  0  0
  186.7960  177.7550  137.2410 C   0  0  0  0  0  0  0  0  0  0  0  0
  189.8610  177.2040  140.5550 N   0  0  0  0  0  0  0  0  0  0  0  0
  187.0050  177.9790  138.6180 C   0  0  0  0  0  0  0  0  0  0  0  0
  189.0520  176.7660  137.0450 C   0  0  0  0  0  3  0  0  0  0  0  0
  190.2350  176.7600  139.3190 C   0  0  0  0  0  0  0  0  0  0  0  0
  186.4690  178.6670  141.0260 C   0  0  0  0  0  0  0  0  0  0  0  0
  190.7660  178.2820  142.4820 O   0  0  0  0  0  0  0  0  0  0  0  0
  190.6150  177.0640  141.7990 C   0  0  2  0  0  0  0  0  0  0  0  0
  191.9200  177.7480  141.8640 C   0  0  0  0  0  2  0  0  0  0  0  0
  190.3430  175.8830  142.7140 C   0  0  0  0  0  2  0  0  0  0  0  0
  190.0200  176.3360  143.9930 O   0  0  0  0  0  1  0  0  0  0  0  0
  191.5440  176.1180  139.0010 C   0  0  0  0  0  2  0  0  0  0  0  0
  193.0960  176.0680  137.1480 C   0  0  0  0  0  0  0  0  0  0  0  0
  194.2830  175.7420  136.7080 C   0  0  0  0  0  3  0  0  0  0  0  0
  191.9120  176.3900  137.5860 C   0  0  0  0  0  3  0  0  0  0  0  0
  194.8500  174.4410  136.9210 N   0  0  0  0  0  0  0  0  0  0  0  0
  195.8130  174.1760  138.3360 S   0  0  0  0  0  0  0  0  0  0  0  0
  195.4180  175.1640  139.3980 O   0  0  0  0  0  0  0  0  0  0  0  0
  195.5890  172.7790  138.8460 O   0  0  0  0  0  0  0  0  0  0  0  0
  198.0620  173.1360  137.2410 C   0  0  0  0  0  1  0  0  0  0  0  0
  197.7030  175.4810  137.1010 O   0  0  0  0  0  1  0  0  0  0  0  0
  197.5390  174.3770  137.9370 C   0  0  1  0  0  3  0  0  0  0  0  0
  194.7610  173.3790  135.9240 C   0  0  0  0  0  2  0  0  0  0  0  0
  193.4600  172.6140  136.0870 C   0  0  0  0  0  1  0  0  0  0  0  0
  185.5390  179.2480  142.0350 C   0  0  0  0  0  2  0  0  0  0  0  0
  184.8780  178.1460  142.8510 C   0  0  0  0  0  2  0  0  0  0  0  0
  184.3630  179.3300  144.9870 C   0  0  0  0  0  1  0  0  0  0  0  0
  186.2290  177.6570  144.9210 C   0  0  0  0  0  0  0  0  0  0  0  0
  185.1480  178.3410  144.2680 N   0  0  0  0  0  0  0  0  0  0  0  0
  186.9670  176.8710  144.2650 O   0  0  0  0  0  0  0  0  0  0  0  0
  186.4680  177.8720  146.3180 N   0  0  0  0  0  0  0  0  0  0  0  0
  187.5800  177.5380  146.8880 C   0  0  0  0  0  3  0  0  0  0  0  0
  187.7720  177.7840  148.3410 C   0  0  0  0  0  2  0  0  0  0  0  0
  189.1710  178.3110  148.5840 C   0  0  0  0  0  1  0  0  0  0  0  0
  1 12  2  0  0  0  0
  2  8  1  0  0  0  0
  3 11  2  0  0  0  0
  3  8  1  0  0  0  0
  4 13  2  0  0  0  0
  5  9  1  0  0  0  0
  5  7  2  0  0  0  0
  6  1  1  1  0  0  0
  6  5  1  0  0  0  0
  8 10  2  0  0  0  0
  9 15  1  0  0  0  0
 10  6  1  0  0  0  0
 10  4  1  0  0  0  0
 11  1  1  0  0  0  0
 12  9  1  0  0  0  0
 13  7  1  0  0  0  0
 13 32  1  0  0  0  0
 15 16  1  0  0  0  0
 15 14  1  0  0  0  0
 15 17  1  1  0  0  0
 16 14  1  0  0  0  0
 17 18  1  0  0  0  0
 19 12  1  0  0  0  0
 20 22  2  0  0  0  0
 21 23  1  0  0  0  0
 21 20  2  0  0  0  0
 22 19  1  0  0  0  0
 23 24  1  0  0  0  0
 24 26  2  0  0  0  0
 24 25  2  0  0  0  0
 28 29  1  0  0  0  0
 29 27  1  6  0  0  0
 29 24  1  0  0  0  0
 30 31  1  0  0  0  0
 30 23  1  0  0  0  0
 32 33  1  0  0  0  0
 33 36  1  0  0  0  0
 35 38  1  0  0  0  0
 36 35  1  0  0  0  0
 36 34  1  0  0  0  0
 37 35  2  0  0  0  0
 38 39  2  0  0  0  0
 39 40  1  0  0  0  0
 40 41  1  0  0  0  0
M  END
>  <MODEL>
3

>  <REMARK>
 VINA RESULT:      -7.3      1.206      3.583
  Name = 
  13 active torsions:
  status: ('A' for Active; 'I' for Inactive)
    1  A    between atoms: C_6  and  C_31
    2  A    between atoms: S_8  and  C_23
    3  A    between atoms: S_8  and  N_24
    4  A    between atoms: C_9  and  C_29
    5  A    between atoms: C_9  and  N_34
    6  A    between atoms: C_13  and  C_36
    7  A    between atoms: C_13  and  C_41
    8  A    between atoms: N_14  and  C_16
    9  A    between atoms: C_18  and  N_24
   10  A    between atoms: C_21  and  C_25
   11  A    between atoms: N_24  and  C_38
   12  A    between atoms: C_25  and  N_27
   13  A    between atoms: C_29  and  C_40
                            x       y       z     vdW  Elec       q    Type
                         _______ _______ _______ _____ _____    ______ ____

>  <TORSDO>
F 13

$$$$
=
 OpenBabel10232412013D

 41 44  0  0  1  0  0  0  0  0999 V2000
  190.6350  177.3650  140.7560 C   0  0  0  0  0  0  0  0  0  0  0  0
  190.0500  178.2120  144.8030 O   0  0  0  0  0  1  0  0  0  0  0  0
  191.5150  177.5420  142.9810 C   0  0  0  0  0  3  0  0  0  0  0  0
  187.7420  178.4470  142.9190 C   0  0  0  0  0  3  0  0  0  0  0  0
  188.5380  177.7880  140.2180 C   0  0  0  0  0  0  0  0  0  0  0  0
  189.4200  177.7320  141.2360 C   0  0  2  0  0  3  0  0  0  0  0  0
  187.1540  178.2120  140.4580 C   0  0  0  0  0  3  0  0  0  0  0  0
  190.2320  177.9320  143.4540 C   0  0  0  0  0  0  0  0  0  0  0  0
  189.1580  177.4500  139.0620 N   0  0  0  0  0  0  0  0  0  0  0  0
  189.1550  178.0340  142.5510 C   0  0  0  0  0  0  0  0  0  0  0  0
  191.7330  177.2550  141.6110 C   0  0  0  0  0  3  0  0  0  0  0  0
  190.4610  177.2010  139.3880 C   0  0  0  0  0  0  0  0  0  0  0  0
  186.7850  178.5360  141.7190 C   0  0  0  0  0  0  0  0  0  0  0  0
  187.2420  177.0230  137.7060 O   0  0  0  0  0  0  0  0  0  0  0  0
  188.5770  177.4570  137.7210 C   0  0  2  0  0  0  0  0  0  0  0  0
  188.2060  176.1500  137.1520 C   0  0  0  0  0  2  0  0  0  0  0  0
  188.8480  178.6280  136.7920 C   0  0  0  0  0  2  0  0  0  0  0  0
  188.9700  179.8050  137.5320 O   0  0  0  0  0  1  0  0  0  0  0  0
  191.5220  176.8000  138.4170 C   0  0  0  0  0  2  0  0  0  0  0  0
  192.5260  174.7550  137.6100 C   0  0  0  0  0  0  0  0  0  0  0  0
  193.4550  174.1900  136.8840 C   0  0  0  0  0  3  0  0  0  0  0  0
  191.6030  175.3180  138.3370 C   0  0  0  0  0  3  0  0  0  0  0  0
  194.8370  174.5610  136.9810 N   0  0  0  0  0  0  0  0  0  0  0  0
  195.6820  174.2390  138.4580 S   0  0  0  0  0  0  0  0  0  0  0  0
  195.4340  175.3610  139.4270 O   0  0  0  0  0  0  0  0  0  0  0  0
  195.1870  172.9490  139.0520 O   0  0  0  0  0  0  0  0  0  0  0  0
  197.6690  173.1520  136.9720 C   0  0  0  0  0  1  0  0  0  0  0  0
  197.9560  175.3490  137.8310 O   0  0  0  0  0  1  0  0  0  0  0  0
  197.4300  174.0940  138.1350 C   0  0  1  0  0  3  0  0  0  0  0  0
  195.5150  175.3240  135.9380 C   0  0  0  0  0  2  0  0  0  0  0  0
  194.7070  176.5600  135.5830 C   0  0  0  0  0  1  0  0  0  0  0  0
  185.3770  178.9520  141.9780 C   0  0  0  0  0  2  0  0  0  0  0  0
  184.4070  178.0510  141.2280 C   0  0  0  0  0  2  0  0  0  0  0  0
  182.0350  178.8140  141.3730 C   0  0  0  0  0  1  0  0  0  0  0  0
  183.4480  179.5380  139.4340 C   0  0  0  0  0  0  0  0  0  0  0  0
  183.3120  178.8390  140.6810 N   0  0  0  0  0  0  0  0  0  0  0  0
  184.5320  179.4750  138.7900 O   0  0  0  0  0  0  0  0  0  0  0  0
  182.3500  180.3040  138.9220 N   0  0  0  0  0  0  0  0  0  0  0  0
  181.6970  179.9530  137.8620 C   0  0  0  0  0  3  0  0  0  0  0  0
  180.5670  180.7870  137.3770 C   0  0  0  0  0  2  0  0  0  0  0  0
  180.8960  182.2520  137.5800 C   0  0  0  0  0  1  0  0  0  0  0  0
  1  6  1  0  0  0  0
  1 11  1  0  0  0  0
  3  8  1  0  0  0  0
  5  7  2  0  0  0  0
  6  5  1  6  0  0  0
  6 10  1  0  0  0  0
  7 13  1  0  0  0  0
  8  2  1  0  0  0  0
  9 12  1  0  0  0  0
  9  5  1  0  0  0  0
 10  4  1  0  0  0  0
 10  8  2  0  0  0  0
 11  3  2  0  0  0  0
 12  1  2  0  0  0  0
 13 32  1  0  0  0  0
 13  4  2  0  0  0  0
 14 15  1  0  0  0  0
 15 17  1  6  0  0  0
 15  9  1  0  0  0  0
 16 14  1  0  0  0  0
 16 15  1  0  0  0  0
 17 18  1  0  0  0  0
 19 12  1  0  0  0  0
 20 22  2  0  0  0  0
 21 23  1  0  0  0  0
 21 20  2  0  0  0  0
 22 19  1  0  0  0  0
 23 24  1  0  0  0  0
 24 26  2  0  0  0  0
 24 25  2  0  0  0  0
 28 29  1  0  0  0  0
 29 27  1  6  0  0  0
 29 24  1  0  0  0  0
 30 23  1  0  0  0  0
 31 30  1  0  0  0  0
 33 32  1  0  0  0  0
 35 36  1  0  0  0  0
 36 33  1  0  0  0  0
 36 34  1  0  0  0  0
 37 35  2  0  0  0  0
 38 35  1  0  0  0  0
 39 38  2  0  0  0  0
 40 41  1  0  0  0  0
 40 39  1  0  0  0  0
M  END
>  <MODEL>
4

>  <REMARK>
 VINA RESULT:      -7.1      2.569      4.258
  Name = 
  13 active torsions:
  status: ('A' for Active; 'I' for Inactive)
    1  A    between atoms: C_6  and  C_31
    2  A    between atoms: S_8  and  C_23
    3  A    between atoms: S_8  and  N_24
    4  A    between atoms: C_9  and  C_29
    5  A    between atoms: C_9  and  N_34
    6  A    between atoms: C_13  and  C_36
    7  A    between atoms: C_13  and  C_41
    8  A    between atoms: N_14  and  C_16
    9  A    between atoms: C_18  and  N_24
   10  A    between atoms: C_21  and  C_25
   11  A    between atoms: N_24  and  C_38
   12  A    between atoms: C_25  and  N_27
   13  A    between atoms: C_29  and  C_40
                            x       y       z     vdW  Elec       q    Type
                         _______ _______ _______ _____ _____    ______ ____

>  <TORSDO>
F 13

$$$$
=
 OpenBabel10232412013D

 41 44  0  0  1  0  0  0  0  0999 V2000
  187.8590  177.8940  139.6470 C   0  0  0  0  0  0  0  0  0  0  0  0
  186.6480  177.4030  135.6810 O   0  0  0  0  0  1  0  0  0  0  0  0
  186.2380  178.2640  137.9170 C   0  0  0  0  0  3  0  0  0  0  0  0
  189.2700  176.2640  136.5540 C   0  0  0  0  0  2  0  0  0  0  0  0
  189.7570  176.8090  139.3510 C   0  0  0  0  0  0  0  0  0  0  0  0
  188.6220  177.2190  138.7510 C   0  0  0  0  0  0  0  0  0  0  0  0
  190.7860  176.0960  138.5870 C   0  0  0  0  0  3  0  0  0  0  0  0
  187.0610  177.5590  136.9980 C   0  0  0  0  0  0  0  0  0  0  0  0
  189.7500  177.2000  140.6480 N   0  0  0  0  0  0  0  0  0  0  0  0
  188.2930  177.0260  137.4300 C   0  0  0  0  0  0  0  0  0  0  0  0
  186.6340  178.4440  139.2660 C   0  0  0  0  0  3  0  0  0  0  0  0
  188.5820  177.8850  140.8330 C   0  0  0  0  0  0  0  0  0  0  0  0
  190.5660  175.8540  137.2730 C   0  0  0  0  0  0  0  0  0  0  0  0
  191.2480  178.2330  142.1910 O   0  0  0  0  0  0  0  0  0  0  0  0
  190.8220  177.0210  141.6240 C   0  0  2  0  0  0  0  0  0  0  0  0
  192.1320  177.6050  141.2850 C   0  0  0  0  0  2  0  0  0  0  0  0
  190.7480  175.8770  142.6200 C   0  0  0  0  0  2  0  0  0  0  0  0
  189.4160  175.5350  142.8560 O   0  0  0  0  0  1  0  0  0  0  0  0
  188.1530  178.5100  142.1190 C   0  0  0  0  0  2  0  0  0  0  0  0
  186.8240  177.4540  143.8400 C   0  0  0  0  0  0  0  0  0  0  0  0
  186.7400  177.0480  145.0790 C   0  0  0  0  0  3  0  0  0  0  0  0
  186.9060  177.8640  142.6060 C   0  0  0  0  0  3  0  0  0  0  0  0
  187.0970  177.8850  146.1880 N   0  0  0  0  0  0  0  0  0  0  0  0
  188.5070  177.4860  147.1110 S   0  0  0  0  0  0  0  0  0  0  0  0
  188.8430  178.6310  148.0250 O   0  0  0  0  0  0  0  0  0  0  0  0
  188.2410  176.2540  147.9310 O   0  0  0  0  0  0  0  0  0  0  0  0
  190.1800  178.3990  145.1860 C   0  0  0  0  0  1  0  0  0  0  0  0
  191.0030  176.8190  146.7580 O   0  0  0  0  0  1  0  0  0  0  0  0
  189.8760  177.1670  146.0140 C   0  0  1  0  0  3  0  0  0  0  0  0
  186.2410  178.9730  146.6500 C   0  0  0  0  0  2  0  0  0  0  0  0
  184.7990  178.5060  146.7340 C   0  0  0  0  0  1  0  0  0  0  0  0
  191.5960  175.1150  136.4900 C   0  0  0  0  0  2  0  0  0  0  0  0
  192.4200  174.2190  137.4020 C   0  0  0  0  0  2  0  0  0  0  0  0
  194.1240  173.3270  135.8110 C   0  0  0  0  0  1  0  0  0  0  0  0
  194.8440  174.8620  137.6570 C   0  0  0  0  0  0  0  0  0  0  0  0
  193.8030  174.1750  136.9460 N   0  0  0  0  0  0  0  0  0  0  0  0
  194.5690  175.5190  138.7000 O   0  0  0  0  0  0  0  0  0  0  0  0
  196.1940  174.7980  137.1820 N   0  0  0  0  0  0  0  0  0  0  0  0
  197.1460  174.2610  137.8750 C   0  0  0  0  0  3  0  0  0  0  0  0
  198.5280  174.2230  137.3310 C   0  0  0  0  0  2  0  0  0  0  0  0
  198.5180  174.6910  135.8910 C   0  0  0  0  0  1  0  0  0  0  0  0
  1 12  2  0  0  0  0
  2  8  1  0  0  0  0
  3 11  2  0  0  0  0
  4 13  1  0  0  0  0
  4 10  1  0  0  0  0
  5  9  1  0  0  0  0
  6  5  2  0  0  0  0
  6  1  1  0  0  0  0
  7  5  1  0  0  0  0
  8 10  2  0  0  0  0
  8  3  1  0  0  0  0
  9 12  1  0  0  0  0
  9 15  1  0  0  0  0
 10  6  1  0  0  0  0
 11  1  1  0  0  0  0
 12 19  1  0  0  0  0
 13  7  2  0  0  0  0
 15 14  1  0  0  0  0
 15 17  1  1  0  0  0
 16 15  1  0  0  0  0
 16 14  1  0  0  0  0
 17 18  1  0  0  0  0
 19 22  1  0  0  0  0
 20 21  2  0  0  0  0
 21 23  1  0  0  0  0
 22 20  2  0  0  0  0
 23 30  1  0  0  0  0
 23 24  1  0  0  0  0
 24 26  2  0  0  0  0
 24 25  2  0  0  0  0
 29 27  1  1  0  0  0
 29 28  1  0  0  0  0
 29 24  1  0  0  0  0
 30 31  1  0  0  0  0
 32 13  1  0  0  0  0
 32 33  1  0  0  0  0
 34 36  1  0  0  0  0
 35 37  2  0  0  0  0
 36 33  1  0  0  0  0
 36 35  1  0  0  0  0
 38 35  1  0  0  0  0
 38 39  2  0  0  0  0
 40 39  1  0  0  0  0
 41 40  1  0  0  0  0
M  END
>  <MODEL>
5

>  <REMARK>
 VINA RESULT:      -6.9      2.618      9.756
  Name = 
  13 active torsions:
  status: ('A' for Active; 'I' for Inactive)
    1  A    between atoms: C_6  and  C_31
    2  A    between atoms: S_8  and  C_23
    3  A    between atoms: S_8  and  N_24
    4  A    between atoms: C_9  and  C_29
    5  A    between atoms: C_9  and  N_34
    6  A    between atoms: C_13  and  C_36
    7  A    between atoms: C_13  and  C_41
    8  A    between atoms: N_14  and  C_16
    9  A    between atoms: C_18  and  N_24
   10  A    between atoms: C_21  and  C_25
   11  A    between atoms: N_24  and  C_38
   12  A    between atoms: C_25  and  N_27
   13  A    between atoms: C_29  and  C_40
                            x       y       z     vdW  Elec       q    Type
                         _______ _______ _______ _____ _____    ______ ____

>  <TORSDO>
F 13

$$$$
=
 OpenBabel10232412013D

 41 44  0  0  1  0  0  0  0  0999 V2000
  189.2750  177.0240  138.5540 C   0  0  0  0  0  0  0  0  0  0  0  0
  185.8370  178.0840  136.4350 O   0  0  0  0  0  1  0  0  0  0  0  0
  188.0760  177.1370  136.4790 C   0  0  0  0  0  3  0  0  0  0  0  0
  185.9470  178.5910  139.3780 C   0  0  0  0  0  3  0  0  0  0  0  0
  188.4720  177.7230  140.4860 C   0  0  0  0  0  0  0  0  0  0  0  0
  188.2140  177.6040  139.1690 C   0  0  2  0  0  3  0  0  0  0  0  0
  187.4610  178.2760  141.3940 C   0  0  0  0  0  3  0  0  0  0  0  0
  186.9760  177.7360  137.1500 C   0  0  0  0  0  0  0  0  0  0  0  0
  189.7070  177.2330  140.7520 N   0  0  0  0  0  0  0  0  0  0  0  0
  187.0480  177.9710  138.5390 C   0  0  0  0  0  0  0  0  0  0  0  0
  189.2490  176.7670  137.1830 C   0  0  0  0  0  3  0  0  0  0  0  0
  190.2030  176.7860  139.5600 C   0  0  0  0  0  0  0  0  0  0  0  0
  186.2730  178.6680  140.8790 C   0  0  0  0  0  0  0  0  0  0  0  0
  190.1160  178.2280  142.8810 O   0  0  0  0  0  0  0  0  0  0  0  0
  190.3380  177.1080  142.0640 C   0  0  2  0  0  0  0  0  0  0  0  0
  191.4230  178.0560  142.3720 C   0  0  0  0  0  2  0  0  0  0  0  0
  190.2640  175.7870  142.8090 C   0  0  0  0  0  2  0  0  0  0  0  0
  188.9310  175.4250  143.0070 O   0  0  0  0  0  1  0  0  0  0  0  0
  191.5430  176.1530  139.3760 C   0  0  0  0  0  2  0  0  0  0  0  0
  193.1460  176.5280  137.6060 C   0  0  0  0  0  0  0  0  0  0  0  0
  193.8780  176.0170  136.6510 C   0  0  0  0  0  3  0  0  0  0  0  0
  192.4130  177.0360  138.5550 C   0  0  0  0  0  3  0  0  0  0  0  0
  193.3410  175.1230  135.6660 N   0  0  0  0  0  0  0  0  0  0  0  0
  193.3960  173.4200  135.9720 S   0  0  0  0  0  0  0  0  0  0  0  0
  194.1890  172.7460  134.8880 O   0  0  0  0  0  0  0  0  0  0  0  0
  194.0520  173.1660  137.3010 O   0  0  0  0  0  0  0  0  0  0  0  0
  190.8350  173.6640  136.8220 C   0  0  0  0  0  1  0  0  0  0  0  0
  191.2460  172.6580  134.7090 O   0  0  0  0  0  1  0  0  0  0  0  0
  191.7400  172.7600  136.0090 C   0  0  1  0  0  3  0  0  0  0  0  0
  192.8820  175.5870  134.3610 C   0  0  0  0  0  2  0  0  0  0  0  0
  191.4730  176.1430  134.4680 C   0  0  0  0  0  1  0  0  0  0  0  0
  185.2440  179.2470  141.7880 C   0  0  0  0  0  2  0  0  0  0  0  0
  184.6700  178.1720  142.6990 C   0  0  0  0  0  2  0  0  0  0  0  0
  184.0560  179.4650  144.7440 C   0  0  0  0  0  1  0  0  0  0  0  0
  186.0790  177.9850  144.7800 C   0  0  0  0  0  0  0  0  0  0  0  0
  184.9300  178.5040  144.0930 N   0  0  0  0  0  0  0  0  0  0  0  0
  186.8870  177.2260  144.1750 O   0  0  0  0  0  0  0  0  0  0  0  0
  186.3070  178.3320  146.1520 N   0  0  0  0  0  0  0  0  0  0  0  0
  187.3360  177.9070  146.8100 C   0  0  0  0  0  3  0  0  0  0  0  0
  187.5200  178.3000  148.2320 C   0  0  0  0  0  2  0  0  0  0  0  0
  188.9790  178.1550  148.6110 C   0  0  0  0  0  1  0  0  0  0  0  0
  1  6  1  0  0  0  0
  1 12  2  0  0  0  0
  2  8  1  0  0  0  0
  3  8  1  0  0  0  0
  3 11  2  0  0  0  0
  4 13  2  0  0  0  0
  5  9  1  0  0  0  0
  5  7  2  0  0  0  0
  6 10  1  1  0  0  0
  6  5  1  0  0  0  0
  8 10  2  0  0  0  0
  9 15  1  0  0  0  0
 10  4  1  0  0  0  0
 11  1  1  0  0  0  0
 12  9  1  0  0  0  0
 13  7  1  0  0  0  0
 13 32  1  0  0  0  0
 15 16  1  0  0  0  0
 15 17  1  1  0  0  0
 15 14  1  0  0  0  0
 16 14  1  0  0  0  0
 17 18  1  0  0  0  0
 19 12  1  0  0  0  0
 20 22  2  0  0  0  0
 21 20  2  0  0  0  0
 22 19  1  0  0  0  0
 23 24  1  0  0  0  0
 23 21  1  0  0  0  0
 24 29  1  0  0  0  0
 24 26  2  0  0  0  0
 25 24  2  0  0  0  0
 28 29  1  0  0  0  0
 29 27  1  1  0  0  0
 30 31  1  0  0  0  0
 30 23  1  0  0  0  0
 32 33  1  0  0  0  0
 33 36  1  0  0  0  0
 35 38  1  0  0  0  0
 36 34  1  0  0  0  0
 36 35  1  0  0  0  0
 37 35  2  0  0  0  0
 38 39  2  0  0  0  0
 39 40  1  0  0  0  0
 40 41  1  0  0  0  0
M  END
>  <MODEL>
6

>  <REMARK>
 VINA RESULT:      -6.7      1.851      4.149
  Name = 
  13 active torsions:
  status: ('A' for Active; 'I' for Inactive)
    1  A    between atoms: C_6  and  C_31
    2  A    between atoms: S_8  and  C_23
    3  A    between atoms: S_8  and  N_24
    4  A    between atoms: C_9  and  C_29
    5  A    between atoms: C_9  and  N_34
    6  A    between atoms: C_13  and  C_36
    7  A    between atoms: C_13  and  C_41
    8  A    between atoms: N_14  and  C_16
    9  A    between atoms: C_18  and  N_24
   10  A    between atoms: C_21  and  C_25
   11  A    between atoms: N_24  and  C_38
   12  A    between atoms: C_25  and  N_27
   13  A    between atoms: C_29  and  C_40
                            x       y       z     vdW  Elec       q    Type
                         _______ _______ _______ _____ _____    ______ ____

>  <TORSDO>
F 13

$$$$
=
 OpenBabel10232412013D

 41 44  0  0  1  0  0  0  0  0999 V2000
  187.4600  174.9440  136.4310 C   0  0  0  0  0  0  0  0  0  0  0  0
  183.6330  173.2880  136.2080 O   0  0  0  0  0  1  0  0  0  0  0  0
  186.0220  173.1380  135.7780 C   0  0  0  0  0  3  0  0  0  0  0  0
  183.9830  175.9790  137.4600 C   0  0  0  0  0  3  0  0  0  0  0  0
  186.7610  176.7810  137.4330 C   0  0  0  0  0  0  0  0  0  0  0  0
  186.3720  175.6050  136.9020 C   0  0  2  0  0  3  0  0  0  0  0  0
  185.7800  177.6720  138.0620 C   0  0  0  0  0  3  0  0  0  0  0  0
  184.9010  173.8500  136.2870 C   0  0  0  0  0  0  0  0  0  0  0  0
  188.1040  176.9120  137.3080 N   0  0  0  0  0  0  0  0  0  0  0  0
  185.0860  175.1190  136.8710 C   0  0  0  0  0  0  0  0  0  0  0  0
  187.3280  173.6820  135.8490 C   0  0  0  0  0  3  0  0  0  0  0  0
  188.5430  175.7710  136.7010 C   0  0  0  0  0  0  0  0  0  0  0  0
  184.4820  177.2910  138.0880 C   0  0  0  0  0  0  0  0  0  0  0  0
  188.2870  179.2510  137.7410 O   0  0  0  0  0  0  0  0  0  0  0  0
  188.9290  178.0050  137.8190 C   0  0  2  0  0  0  0  0  0  0  0  0
  189.3570  179.0240  136.8450 C   0  0  0  0  0  2  0  0  0  0  0  0
  189.7260  177.8090  139.0970 C   0  0  0  0  0  2  0  0  0  0  0  0
  188.9550  177.1290  140.0410 O   0  0  0  0  0  1  0  0  0  0  0  0
  189.9680  175.4730  136.3710 C   0  0  0  0  0  2  0  0  0  0  0  0
  191.6970  173.9890  137.1790 C   0  0  0  0  0  0  0  0  0  0  0  0
  192.9700  173.6950  137.2250 C   0  0  0  0  0  3  0  0  0  0  0  0
  190.4290  174.2850  137.1380 C   0  0  0  0  0  3  0  0  0  0  0  0
  193.9720  174.6690  137.5490 N   0  0  0  0  0  0  0  0  0  0  0  0
  195.4260  174.1380  138.3260 S   0  0  0  0  0  0  0  0  0  0  0  0
  195.7410  175.0580  139.4720 O   0  0  0  0  0  0  0  0  0  0  0  0
  195.2390  172.7400  138.8460 O   0  0  0  0  0  0  0  0  0  0  0  0
  196.3140  173.5780  135.8280 C   0  0  0  0  0  1  0  0  0  0  0  0
  197.2250  175.4510  136.9710 O   0  0  0  0  0  1  0  0  0  0  0  0
  196.7720  174.1460  137.1570 C   0  0  1  0  0  3  0  0  0  0  0  0
  193.7510  176.1020  137.3780 C   0  0  0  0  0  2  0  0  0  0  0  0
  194.1010  176.5200  135.9610 C   0  0  0  0  0  1  0  0  0  0  0  0
  183.4730  178.1950  138.7090 C   0  0  0  0  0  2  0  0  0  0  0  0
  184.1540  179.2310  139.5920 C   0  0  0  0  0  2  0  0  0  0  0  0
  182.8940  178.4760  141.6100 C   0  0  0  0  0  1  0  0  0  0  0  0
  185.3840  178.7360  141.7360 C   0  0  0  0  0  0  0  0  0  0  0  0
  184.1660  178.7790  140.9760 N   0  0  0  0  0  0  0  0  0  0  0  0
  186.4720  179.0940  141.2050 O   0  0  0  0  0  0  0  0  0  0  0  0
  185.3600  178.2880  143.0970 N   0  0  0  0  0  0  0  0  0  0  0  0
  186.4410  178.0360  143.7600 C   0  0  0  0  0  3  0  0  0  0  0  0
  186.3550  177.5730  145.1700 C   0  0  0  0  0  2  0  0  0  0  0  0
  185.9690  178.7360  146.0610 C   0  0  0  0  0  1  0  0  0  0  0  0
  1 12  2  0  0  0  0
  2  8  1  0  0  0  0
  3 11  2  0  0  0  0
  3  8  1  0  0  0  0
  4 13  2  0  0  0  0
  5  7  2  0  0  0  0
  6  1  1  1  0  0  0
  6  5  1  0  0  0  0
  7 13  1  0  0  0  0
  8 10  2  0  0  0  0
  9  5  1  0  0  0  0
  9 15  1  0  0  0  0
 10  6  1  0  0  0  0
 10  4  1  0  0  0  0
 11  1  1  0  0  0  0
 12  9  1  0  0  0  0
 13 32  1  0  0  0  0
 14 15  1  0  0  0  0
 15 17  1  1  0  0  0
 16 14  1  0  0  0  0
 16 15  1  0  0  0  0
 17 18  1  0  0  0  0
 19 12  1  0  0  0  0
 19 22  1  0  0  0  0
 20 21  2  0  0  0  0
 21 23  1  0  0  0  0
 22 20  2  0  0  0  0
 23 24  1  0  0  0  0
 24 26  2  0  0  0  0
 24 25  2  0  0  0  0
 28 29  1  0  0  0  0
 29 27  1  6  0  0  0
 29 24  1  0  0  0  0
 30 23  1  0  0  0  0
 31 30  1  0  0  0  0
 32 33  1  0  0  0  0
 33 36  1  0  0  0  0
 35 38  1  0  0  0  0
 36 34  1  0  0  0  0
 36 35  1  0  0  0  0
 37 35  2  0  0  0  0
 38 39  2  0  0  0  0
 39 40  1  0  0  0  0
 40 41  1  0  0  0  0
M  END
>  <MODEL>
7

>  <REMARK>
 VINA RESULT:      -6.6      2.207      4.384
  Name = 
  13 active torsions:
  status: ('A' for Active; 'I' for Inactive)
    1  A    between atoms: C_6  and  C_31
    2  A    between atoms: S_8  and  C_23
    3  A    between atoms: S_8  and  N_24
    4  A    between atoms: C_9  and  C_29
    5  A    between atoms: C_9  and  N_34
    6  A    between atoms: C_13  and  C_36
    7  A    between atoms: C_13  and  C_41
    8  A    between atoms: N_14  and  C_16
    9  A    between atoms: C_18  and  N_24
   10  A    between atoms: C_21  and  C_25
   11  A    between atoms: N_24  and  C_38
   12  A    between atoms: C_25  and  N_27
   13  A    between atoms: C_29  and  C_40
                            x       y       z     vdW  Elec       q    Type
                         _______ _______ _______ _____ _____    ______ ____

>  <TORSDO>
F 13

$$$$
=
 OpenBabel10232412013D

 41 44  0  0  1  0  0  0  0  0999 V2000
  188.6260  177.9930  139.6540 C   0  0  0  0  0  0  0  0  0  0  0  0
  188.9840  177.4490  135.5300 O   0  0  0  0  0  1  0  0  0  0  0  0
  187.7040  178.2130  137.4500 C   0  0  0  0  0  3  0  0  0  0  0  0
  191.2280  176.5950  137.3110 C   0  0  0  0  0  2  0  0  0  0  0  0
  190.6130  177.1360  140.0840 C   0  0  0  0  0  0  0  0  0  0  0  0
  189.7310  177.4270  139.1070 C   0  0  0  0  0  0  0  0  0  0  0  0
  191.9210  176.5590  139.7560 C   0  0  0  0  0  3  0  0  0  0  0  0
  188.8760  177.6240  136.9040 C   0  0  0  0  0  0  0  0  0  0  0  0
  190.0960  177.4970  141.2830 N   0  0  0  0  0  0  0  0  0  0  0  0
  189.9220  177.2250  137.7610 C   0  0  0  0  0  0  0  0  0  0  0  0
  187.5670  178.4100  138.8470 C   0  0  0  0  0  3  0  0  0  0  0  0
  188.8710  178.0420  141.0210 C   0  0  0  0  0  0  0  0  0  0  0  0
  192.2160  176.3190  138.4570 C   0  0  0  0  0  0  0  0  0  0  0  0
  190.3420  178.4300  143.4650 O   0  0  0  0  0  0  0  0  0  0  0  0
  190.7590  177.4200  142.5830 C   0  0  2  0  0  0  0  0  0  0  0  0
  191.6500  178.5390  142.9400 C   0  0  0  0  0  2  0  0  0  0  0  0
  190.9490  176.0690  143.2500 C   0  0  0  0  0  2  0  0  0  0  0  0
  189.8610  175.2420  142.9700 O   0  0  0  0  0  1  0  0  0  0  0  0
  187.9410  178.5890  142.0530 C   0  0  0  0  0  2  0  0  0  0  0  0
  186.9980  177.1660  143.7650 C   0  0  0  0  0  0  0  0  0  0  0  0
  186.9840  176.8100  145.0220 C   0  0  0  0  0  3  0  0  0  0  0  0
  187.0100  177.5240  142.5130 C   0  0  0  0  0  3  0  0  0  0  0  0
  186.8990  177.7650  146.0900 N   0  0  0  0  0  0  0  0  0  0  0  0
  185.4700  178.7340  146.2240 S   0  0  0  0  0  0  0  0  0  0  0  0
  184.4810  178.0390  147.1170 O   0  0  0  0  0  0  0  0  0  0  0  0
  185.8210  180.0720  146.8150 O   0  0  0  0  0  0  0  0  0  0  0  0
  183.2530  178.7930  144.6690 C   0  0  0  0  0  1  0  0  0  0  0  0
  185.0410  180.2730  144.1640 O   0  0  0  0  0  1  0  0  0  0  0  0
  184.7550  178.9840  144.6100 C   0  0  1  0  0  3  0  0  0  0  0  0
  188.0230  178.0460  146.9760 C   0  0  0  0  0  2  0  0  0  0  0  0
  189.2330  177.2260  146.5640 C   0  0  0  0  0  1  0  0  0  0  0  0
  193.5350  175.7170  138.1120 C   0  0  0  0  0  2  0  0  0  0  0  0
  193.3610  174.2790  137.6460 C   0  0  0  0  0  2  0  0  0  0  0  0
  195.5560  174.0630  138.8140 C   0  0  0  0  0  1  0  0  0  0  0  0
  194.8850  172.3420  137.1200 C   0  0  0  0  0  0  0  0  0  0  0  0
  194.5860  173.5260  137.8750 N   0  0  0  0  0  0  0  0  0  0  0  0
  194.0780  171.9360  136.2370 O   0  0  0  0  0  0  0  0  0  0  0  0
  196.1000  171.6240  137.3690 N   0  0  0  0  0  0  0  0  0  0  0  0
  196.1350  170.3350  137.4610 C   0  0  0  0  0  3  0  0  0  0  0  0
  197.4250  169.6450  137.7210 C   0  0  0  0  0  2  0  0  0  0  0  0
  198.5720  170.5570  137.3420 C   0  0  0  0  0  1  0  0  0  0  0  0
  1 12  2  0  0  0  0
  2  8  1  0  0  0  0
  3 11  2  0  0  0  0
  4 10  1  0  0  0  0
  4 13  1  0  0  0  0
  5  9  1  0  0  0  0
  6  1  1  0  0  0  0
  6  5  2  0  0  0  0
  7  5  1  0  0  0  0
  8  3  1  0  0  0  0
  8 10  2  0  0  0  0
  9 15  1  0  0  0  0
 10  6  1  0  0  0  0
 11  1  1  0  0  0  0
 12  9  1  0  0  0  0
 12 19  1  0  0  0  0
 13  7  2  0  0  0  0
 15 16  1  0  0  0  0
 15 17  1  1  0  0  0
 15 14  1  0  0  0  0
 16 14  1  0  0  0  0
 18 17  1  0  0  0  0
 19 22  1  0  0  0  0
 20 21  2  0  0  0  0
 21 23  1  0  0  0  0
 22 20  2  0  0  0  0
 23 24  1  0  0  0  0
 23 30  1  0  0  0  0
 24 26  2  0  0  0  0
 24 25  2  0  0  0  0
 28 29  1  0  0  0  0
 29 27  1  1  0  0  0
 29 24  1  0  0  0  0
 31 30  1  0  0  0  0
 32 13  1  0  0  0  0
 33 36  1  0  0  0  0
 33 32  1  0  0  0  0
 35 38  1  0  0  0  0
 35 36  1  0  0  0  0
 36 34  1  0  0  0  0
 37 35  2  0  0  0  0
 38 39  2  0  0  0  0
 39 40  1  0  0  0  0
 41 40  1  0  0  0  0
M  END
>  <MODEL>
8

>  <REMARK>
 VINA RESULT:      -6.6      3.104     10.457
  Name = 
  13 active torsions:
  status: ('A' for Active; 'I' for Inactive)
    1  A    between atoms: C_6  and  C_31
    2  A    between atoms: S_8  and  C_23
    3  A    between atoms: S_8  and  N_24
    4  A    between atoms: C_9  and  C_29
    5  A    between atoms: C_9  and  N_34
    6  A    between atoms: C_13  and  C_36
    7  A    between atoms: C_13  and  C_41
    8  A    between atoms: N_14  and  C_16
    9  A    between atoms: C_18  and  N_24
   10  A    between atoms: C_21  and  C_25
   11  A    between atoms: N_24  and  C_38
   12  A    between atoms: C_25  and  N_27
   13  A    between atoms: C_29  and  C_40
                            x       y       z     vdW  Elec       q    Type
                         _______ _______ _______ _____ _____    ______ ____

>  <TORSDO>
F 13

$$$$
=
 OpenBabel10232412013D

 41 44  0  0  1  0  0  0  0  0999 V2000
  188.3960  177.1900  137.7400 C   0  0  0  0  0  0  0  0  0  0  0  0
  184.3760  178.0400  136.9920 O   0  0  0  0  0  1  0  0  0  0  0  0
  186.5340  177.2220  136.2260 C   0  0  0  0  0  3  0  0  0  0  0  0
  185.4940  178.5690  139.7130 C   0  0  0  0  0  3  0  0  0  0  0  0
  188.2920  177.8530  139.8410 C   0  0  0  0  0  0  0  0  0  0  0  0
  187.5900  177.7120  138.6990 C   0  0  2  0  0  3  0  0  0  0  0  0
  187.6400  178.3520  141.0570 C   0  0  0  0  0  3  0  0  0  0  0  0
  185.7130  177.7620  137.2520 C   0  0  0  0  0  0  0  0  0  0  0  0
  189.5660  177.4360  139.6450 N   0  0  0  0  0  0  0  0  0  0  0  0
  186.2590  178.0080  138.5290 C   0  0  0  0  0  0  0  0  0  0  0  0
  187.8990  176.9240  136.4630 C   0  0  0  0  0  3  0  0  0  0  0  0
  189.6320  177.0110  138.3480 C   0  0  0  0  0  0  0  0  0  0  0  0
  186.3260  178.6730  141.0020 C   0  0  0  0  0  0  0  0  0  0  0  0
  190.6850  176.1000  141.2740 O   0  0  0  0  0  0  0  0  0  0  0  0
  190.6260  177.3550  140.6460 C   0  0  2  0  0  0  0  0  0  0  0  0
  190.2040  177.1810  142.0470 C   0  0  0  0  0  2  0  0  0  0  0  0
  191.9910  177.9500  140.3450 C   0  0  0  0  0  2  0  0  0  0  0  0
  192.9600  176.9450  140.3480 O   0  0  0  0  0  1  0  0  0  0  0  0
  190.8520  176.4560  137.6920 C   0  0  0  0  0  2  0  0  0  0  0  0
  191.6700  174.2850  137.0100 C   0  0  0  0  0  0  0  0  0  0  0  0
  192.5520  173.5990  136.3320 C   0  0  0  0  0  3  0  0  0  0  0  0
  190.7940  174.9700  137.6890 C   0  0  0  0  0  3  0  0  0  0  0  0
  193.9620  173.8450  136.4370 N   0  0  0  0  0  0  0  0  0  0  0  0
  194.5570  175.4330  136.0880 S   0  0  0  0  0  0  0  0  0  0  0  0
  193.7320  176.0420  134.9890 O   0  0  0  0  0  0  0  0  0  0  0  0
  194.4590  176.2910  137.3190 O   0  0  0  0  0  0  0  0  0  0  0  0
  196.4900  176.1960  134.3500 C   0  0  0  0  0  1  0  0  0  0  0  0
  197.0860  175.7880  136.6140 O   0  0  0  0  0  1  0  0  0  0  0  0
  196.2640  175.3400  135.5810 C   0  0  1  0  0  3  0  0  0  0  0  0
  194.9230  172.7760  136.6890 C   0  0  0  0  0  2  0  0  0  0  0  0
  195.4740  172.8870  138.1000 C   0  0  0  0  0  1  0  0  0  0  0  0
  185.6560  179.1970  142.2250 C   0  0  0  0  0  2  0  0  0  0  0  0
  185.2070  178.0520  143.1210 C   0  0  0  0  0  2  0  0  0  0  0  0
  185.2830  179.1860  145.3430 C   0  0  0  0  0  1  0  0  0  0  0  0
  186.9710  177.4140  144.8050 C   0  0  0  0  0  0  0  0  0  0  0  0
  185.8130  178.1800  144.4390 N   0  0  0  0  0  0  0  0  0  0  0  0
  187.4840  176.6100  143.9760 O   0  0  0  0  0  0  0  0  0  0  0  0
  187.5440  177.5640  146.1100 N   0  0  0  0  0  0  0  0  0  0  0  0
  188.8050  177.3850  146.3360 C   0  0  0  0  0  3  0  0  0  0  0  0
  189.3430  177.5550  147.7110 C   0  0  0  0  0  2  0  0  0  0  0  0
  188.2400  178.0390  148.6290 C   0  0  0  0  0  1  0  0  0  0  0  0
  1 12  2  0  0  0  0
  2  8  1  0  0  0  0
  3 11  2  0  0  0  0
  3  8  1  0  0  0  0
  4 13  2  0  0  0  0
  5  7  2  0  0  0  0
  6  1  1  1  0  0  0
  6  5  1  0  0  0  0
  8 10  2  0  0  0  0
  9  5  1  0  0  0  0
  9 15  1  0  0  0  0
 10  6  1  0  0  0  0
 10  4  1  0  0  0  0
 11  1  1  0  0  0  0
 12  9  1  0  0  0  0
 13  7  1  0  0  0  0
 13 32  1  0  0  0  0
 14 16  1  0  0  0  0
 15 17  1  6  0  0  0
 15 14  1  0  0  0  0
 15 16  1  0  0  0  0
 17 18  1  0  0  0  0
 19 12  1  0  0  0  0
 20 22  2  0  0  0  0
 21 23  1  0  0  0  0
 21 20  2  0  0  0  0
 22 19  1  0  0  0  0
 23 30  1  0  0  0  0
 24 23  1  0  0  0  0
 24 26  2  0  0  0  0
 25 24  2  0  0  0  0
 29 27  1  6  0  0  0
 29 24  1  0  0  0  0
 29 28  1  0  0  0  0
 30 31  1  0  0  0  0
 32 33  1  0  0  0  0
 33 36  1  0  0  0  0
 35 38  1  0  0  0  0
 36 35  1  0  0  0  0
 36 34  1  0  0  0  0
 37 35  2  0  0  0  0
 38 39  2  0  0  0  0
 39 40  1  0  0  0  0
 40 41  1  0  0  0  0
M  END
>  <MODEL>
9

>  <REMARK>
 VINA RESULT:      -6.5      1.675      3.760
  Name = 
  13 active torsions:
  status: ('A' for Active; 'I' for Inactive)
    1  A    between atoms: C_6  and  C_31
    2  A    between atoms: S_8  and  C_23
    3  A    between atoms: S_8  and  N_24
    4  A    between atoms: C_9  and  C_29
    5  A    between atoms: C_9  and  N_34
    6  A    between atoms: C_13  and  C_36
    7  A    between atoms: C_13  and  C_41
    8  A    between atoms: N_14  and  C_16
    9  A    between atoms: C_18  and  N_24
   10  A    between atoms: C_21  and  C_25
   11  A    between atoms: N_24  and  C_38
   12  A    between atoms: C_25  and  N_27
   13  A    between atoms: C_29  and  C_40
                            x       y       z     vdW  Elec       q    Type
                         _______ _______ _______ _____ _____    ______ ____

>  <TORSDO>
F 13

$$$$
