=
 OpenBabel10222421293D

 34 39  0  0  0  0  0  0  0  0999 V2000
  189.4970  177.4780  144.9450 C   0  0  0  0  0  0  0  0  0  0  0  0
  191.7410  176.8830  142.0610 C   0  0  0  0  0  3  0  0  0  0  0  0
  191.9490  176.2910  144.2740 N   0  0  0  0  0  0  0  0  0  0  0  0
  188.0100  177.8960  146.7750 C   0  0  0  0  0  0  0  0  0  0  0  0
  188.2940  177.9280  145.4240 N   0  0  0  0  0  0  0  0  0  0  0  0
  190.1590  176.9160  147.1810 C   0  0  0  0  0  0  0  0  0  0  0  0
  191.2500  176.2220  147.7970 N   0  0  0  0  0  0  0  0  0  0  0  0
  188.9460  177.3610  147.7050 C   0  0  0  0  0  3  0  0  0  0  0  0
  191.5350  176.3950  145.5600 C   0  0  0  0  0  0  0  0  0  0  0  0
  190.3880  177.0010  145.8610 C   0  0  0  0  0  0  0  0  0  0  0  0
  192.1430  175.8870  146.7470 N   0  0  0  0  0  0  0  0  0  0  0  0
  191.2420  177.6780  140.9030 C   0  0  0  0  0  2  0  0  0  0  0  0
  189.9060  177.2340  140.4250 C   0  0  0  0  0  0  0  0  0  0  0  0
  188.8480  177.2910  141.2320 C   0  0  0  0  0  3  0  0  0  0  0  0
  191.1660  176.8130  143.2660 C   0  0  0  0  0  0  0  0  0  0  0  0
  188.8630  177.5620  142.6800 C   0  0  0  0  0  3  0  0  0  0  0  0
  189.8480  177.3520  143.5760 C   0  0  0  0  0  0  0  0  0  0  0  0
  189.7350  176.9030  139.0390 N   0  0  0  0  0  0  0  0  0  0  0  0
  189.1210  177.7920  138.1870 O   0  0  0  0  0  0  0  0  0  0  0  0
  190.1520  175.8160  138.5850 O   0  0  0  0  0  0  0  0  0  0  0  0
  186.7070  178.4240  147.2690 C   0  0  0  0  0  2  0  0  0  0  0  0
  183.5060  178.9030  145.4040 C   0  0  0  0  0  3  0  0  0  0  0  0
  186.1660  178.3310  144.8270 C   0  0  0  0  0  3  0  0  0  0  0  0
  183.3540  178.5830  141.7140 C   0  0  0  0  0  0  0  0  0  0  0  0
  182.9560  178.7870  143.0430 C   0  0  0  0  0  3  0  0  0  0  0  0
  183.8910  178.7050  144.0770 C   0  0  0  0  0  0  0  0  0  0  0  0
  185.6390  178.2100  142.4650 C   0  0  0  0  0  3  0  0  0  0  0  0
  185.2400  178.4150  143.7880 C   0  0  0  0  0  0  0  0  0  0  0  0
  184.6990  178.2940  141.4330 C   0  0  0  0  0  3  0  0  0  0  0  0
  185.7380  178.5420  146.1420 C   0  0  0  0  0  0  0  0  0  0  0  0
  184.4290  178.8140  146.3990 N   0  0  0  0  0  0  0  0  0  0  0  0
  182.3660  178.6680  140.6280 C   0  0  0  0  0  0  0  0  0  0  0  0
  181.2230  178.1520  140.7610 O   0  0  0  0  0  1  0  0  0  0  0  0
  182.6850  179.3190  139.4410 O   0  0  0  0  0  0  0  0  0  0  0  0
  1  5  2  0  0  0  0
  1 10  1  0  0  0  0
  2 15  2  0  0  0  0
  3  9  2  0  0  0  0
  4 21  1  0  0  0  0
  4  8  2  0  0  0  0
  5  4  1  0  0  0  0
  6  8  1  0  0  0  0
  6  7  1  0  0  0  0
  9 10  1  0  0  0  0
  9 11  1  0  0  0  0
 10  6  2  0  0  0  0
 11  7  2  0  0  0  0
 12  2  1  0  0  0  0
 13 12  1  0  0  0  0
 13 14  2  0  0  0  0
 14 16  1  0  0  0  0
 15 17  1  0  0  0  0
 15  3  1  0  0  0  0
 16 17  2  0  0  0  0
 17  1  1  0  0  0  0
 18 13  1  0  0  0  0
 19 18  2  0  0  0  0
 20 18  2  0  0  0  0
 22 31  1  0  0  0  0
 23 30  1  0  0  0  0
 24 25  2  0  0  0  0
 25 26  1  0  0  0  0
 26 22  2  0  0  0  0
 27 28  1  0  0  0  0
 28 26  1  0  0  0  0
 28 23  2  0  0  0  0
 29 24  1  0  0  0  0
 29 27  2  0  0  0  0
 30 31  2  0  0  0  0
 30 21  1  0  0  0  0
 32 33  1  0  0  0  0
 32 24  1  0  0  0  0
 34 32  2  0  0  0  0
M  END
>  <MODEL>
1

>  <REMARK>
 VINA RESULT:     -11.6      0.000      0.000
  Name = 
  4 active torsions:
  status: ('A' for Active; 'I' for Inactive)
    1  A    between atoms: N_3  and  C_25
    2  A    between atoms: C_7  and  C_11
    3  A    between atoms: C_8  and  C_18
    4  A    between atoms: C_18  and  C_30
                            x       y       z     vdW  Elec       q    Type
                         _______ _______ _______ _____ _____    ______ ____

>  <TORSDO>
F 4

$$$$
=
 OpenBabel10222421293D

 34 39  0  0  0  0  0  0  0  0999 V2000
  189.2860  177.6270  144.5760 C   0  0  0  0  0  0  0  0  0  0  0  0
  191.9170  177.0400  142.0390 C   0  0  0  0  0  3  0  0  0  0  0  0
  191.9180  176.6930  144.3120 N   0  0  0  0  0  0  0  0  0  0  0  0
  187.5500  178.0320  146.1750 C   0  0  0  0  0  0  0  0  0  0  0  0
  187.9910  177.9700  144.8680 N   0  0  0  0  0  0  0  0  0  0  0  0
  189.7290  177.3670  146.9190 C   0  0  0  0  0  0  0  0  0  0  0  0
  190.8060  176.8740  147.7230 N   0  0  0  0  0  0  0  0  0  0  0  0
  188.4190  177.7080  147.2550 C   0  0  0  0  0  3  0  0  0  0  0  0
  191.3410  176.8670  145.5250 C   0  0  0  0  0  0  0  0  0  0  0  0
  190.1050  177.3530  145.6310 C   0  0  0  0  0  0  0  0  0  0  0  0
  191.8520  176.5530  146.8210 N   0  0  0  0  0  0  0  0  0  0  0  0
  191.4780  177.6540  140.7530 C   0  0  0  0  0  2  0  0  0  0  0  0
  190.2680  177.0060  140.1820 C   0  0  0  0  0  0  0  0  0  0  0  0
  189.1200  177.0090  140.8560 C   0  0  0  0  0  3  0  0  0  0  0  0
  191.2100  177.0160  143.1730 C   0  0  0  0  0  0  0  0  0  0  0  0
  188.9280  177.4160  142.2600 C   0  0  0  0  0  3  0  0  0  0  0  0
  189.8130  177.4160  143.2750 C   0  0  0  0  0  0  0  0  0  0  0  0
  190.3050  176.5250  138.8300 N   0  0  0  0  0  0  0  0  0  0  0  0
  190.8650  175.3000  138.5480 O   0  0  0  0  0  0  0  0  0  0  0  0
  189.8190  177.2000  137.8980 O   0  0  0  0  0  0  0  0  0  0  0  0
  186.1460  178.4410  146.4620 C   0  0  0  0  0  2  0  0  0  0  0  0
  185.2730  178.2810  142.8330 C   0  0  0  0  0  3  0  0  0  0  0  0
  183.9700  178.7050  145.2540 C   0  0  0  0  0  3  0  0  0  0  0  0
  181.7980  178.8150  141.6590 C   0  0  0  0  0  0  0  0  0  0  0  0
  183.1770  178.5640  141.6420 C   0  0  0  0  0  3  0  0  0  0  0  0
  183.8990  178.5260  142.8370 C   0  0  0  0  0  0  0  0  0  0  0  0
  181.8670  178.9930  144.0840 C   0  0  0  0  0  3  0  0  0  0  0  0
  183.2410  178.7410  144.0660 C   0  0  0  0  0  0  0  0  0  0  0  0
  181.1490  179.0290  142.8850 C   0  0  0  0  0  3  0  0  0  0  0  0
  185.3440  178.4500  145.2040 C   0  0  0  0  0  0  0  0  0  0  0  0
  185.9600  178.2520  144.0060 N   0  0  0  0  0  0  0  0  0  0  0  0
  181.0420  178.8570  140.3970 C   0  0  0  0  0  0  0  0  0  0  0  0
  180.5120  177.8110  139.9340 O   0  0  0  0  0  1  0  0  0  0  0  0
  180.9070  180.0530  139.7010 O   0  0  0  0  0  0  0  0  0  0  0  0
  1  5  2  0  0  0  0
  1 10  1  0  0  0  0
  2 15  2  0  0  0  0
  3  9  2  0  0  0  0
  4 21  1  0  0  0  0
  4  8  2  0  0  0  0
  5  4  1  0  0  0  0
  6  8  1  0  0  0  0
  6  7  1  0  0  0  0
  9 10  1  0  0  0  0
  9 11  1  0  0  0  0
 10  6  2  0  0  0  0
 11  7  2  0  0  0  0
 12  2  1  0  0  0  0
 13 12  1  0  0  0  0
 13 14  2  0  0  0  0
 14 16  1  0  0  0  0
 15 17  1  0  0  0  0
 15  3  1  0  0  0  0
 16 17  2  0  0  0  0
 17  1  1  0  0  0  0
 18 13  1  0  0  0  0
 19 18  2  0  0  0  0
 20 18  2  0  0  0  0
 22 26  2  0  0  0  0
 22 31  1  0  0  0  0
 24 29  1  0  0  0  0
 25 24  2  0  0  0  0
 25 26  1  0  0  0  0
 26 28  1  0  0  0  0
 28 27  1  0  0  0  0
 28 23  2  0  0  0  0
 29 27  2  0  0  0  0
 30 23  1  0  0  0  0
 30 21  1  0  0  0  0
 31 30  2  0  0  0  0
 32 24  1  0  0  0  0
 33 32  1  0  0  0  0
 34 32  2  0  0  0  0
M  END
>  <MODEL>
2

>  <REMARK>
 VINA RESULT:     -11.3      0.967      1.655
  Name = 
  4 active torsions:
  status: ('A' for Active; 'I' for Inactive)
    1  A    between atoms: N_3  and  C_25
    2  A    between atoms: C_7  and  C_11
    3  A    between atoms: C_8  and  C_18
    4  A    between atoms: C_18  and  C_30
                            x       y       z     vdW  Elec       q    Type
                         _______ _______ _______ _____ _____    ______ ____

>  <TORSDO>
F 4

$$$$
=
 OpenBabel10222421293D

 34 39  0  0  0  0  0  0  0  0999 V2000
  184.2210  178.5330  141.6290 C   0  0  0  0  0  0  0  0  0  0  0  0
  185.2770  178.1120  138.1060 C   0  0  0  0  0  3  0  0  0  0  0  0
  183.2630  178.7670  139.0020 N   0  0  0  0  0  0  0  0  0  0  0  0
  183.5900  178.7840  143.9260 C   0  0  0  0  0  0  0  0  0  0  0  0
  184.5500  178.5530  142.9590 N   0  0  0  0  0  0  0  0  0  0  0  0
  181.9410  179.0090  142.2020 C   0  0  0  0  0  0  0  0  0  0  0  0
  180.7410  179.3400  141.4950 N   0  0  0  0  0  0  0  0  0  0  0  0
  182.2380  179.0410  143.5640 C   0  0  0  0  0  3  0  0  0  0  0  0
  182.4470  178.9090  140.0750 C   0  0  0  0  0  0  0  0  0  0  0  0
  182.9120  178.7510  141.3120 C   0  0  0  0  0  0  0  0  0  0  0  0
  181.0670  179.2720  140.1170 N   0  0  0  0  0  0  0  0  0  0  0  0
  186.6100  177.4450  138.0890 C   0  0  0  0  0  2  0  0  0  0  0  0
  187.6840  178.2750  138.6970 C   0  0  0  0  0  0  0  0  0  0  0  0
  187.6110  178.6410  139.9750 C   0  0  0  0  0  3  0  0  0  0  0  0
  184.5940  178.4640  139.2000 C   0  0  0  0  0  0  0  0  0  0  0  0
  186.4460  178.4930  140.8650 C   0  0  0  0  0  3  0  0  0  0  0  0
  185.1380  178.4270  140.5510 C   0  0  0  0  0  0  0  0  0  0  0  0
  188.8760  178.5370  137.9410 N   0  0  0  0  0  0  0  0  0  0  0  0
  189.8310  177.5570  137.7980 O   0  0  0  0  0  0  0  0  0  0  0  0
  189.0560  179.6450  137.3940 O   0  0  0  0  0  0  0  0  0  0  0  0
  183.9730  178.7660  145.3650 C   0  0  0  0  0  2  0  0  0  0  0  0
  187.3240  177.3170  144.5750 C   0  0  0  0  0  3  0  0  0  0  0  0
  186.0460  178.5060  146.7420 C   0  0  0  0  0  3  0  0  0  0  0  0
  190.0180  177.1840  147.1180 C   0  0  0  0  0  0  0  0  0  0  0  0
  189.3350  177.0290  145.9030 C   0  0  0  0  0  3  0  0  0  0  0  0
  188.0160  177.4700  145.7780 C   0  0  0  0  0  0  0  0  0  0  0  0
  188.0440  178.2260  148.0860 C   0  0  0  0  0  3  0  0  0  0  0  0
  187.3660  178.0720  146.8750 C   0  0  0  0  0  0  0  0  0  0  0  0
  189.3650  177.7840  148.2060 C   0  0  0  0  0  3  0  0  0  0  0  0
  185.3930  178.3380  145.5170 C   0  0  0  0  0  0  0  0  0  0  0  0
  186.0380  177.7480  144.4730 N   0  0  0  0  0  0  0  0  0  0  0  0
  191.4070  176.7160  147.2470 C   0  0  0  0  0  0  0  0  0  0  0  0
  192.1030  177.0460  148.2450 O   0  0  0  0  0  1  0  0  0  0  0  0
  191.9660  175.9060  146.2650 O   0  0  0  0  0  0  0  0  0  0  0  0
  1  5  1  0  0  0  0
  2 15  2  0  0  0  0
  3 15  1  0  0  0  0
  3  9  2  0  0  0  0
  4 21  1  0  0  0  0
  5  4  2  0  0  0  0
  6  8  2  0  0  0  0
  7  6  1  0  0  0  0
  8  4  1  0  0  0  0
  9 11  1  0  0  0  0
  9 10  1  0  0  0  0
 10  1  2  0  0  0  0
 10  6  1  0  0  0  0
 11  7  2  0  0  0  0
 12  2  1  0  0  0  0
 12 13  1  0  0  0  0
 13 14  2  0  0  0  0
 14 16  1  0  0  0  0
 15 17  1  0  0  0  0
 17 16  2  0  0  0  0
 17  1  1  0  0  0  0
 18 13  1  0  0  0  0
 19 18  2  0  0  0  0
 20 18  2  0  0  0  0
 21 30  1  0  0  0  0
 22 26  1  0  0  0  0
 23 28  1  0  0  0  0
 24 32  1  0  0  0  0
 24 29  1  0  0  0  0
 25 24  2  0  0  0  0
 26 25  1  0  0  0  0
 26 28  2  0  0  0  0
 27 29  2  0  0  0  0
 28 27  1  0  0  0  0
 30 23  2  0  0  0  0
 31 22  2  0  0  0  0
 31 30  1  0  0  0  0
 32 33  1  0  0  0  0
 34 32  2  0  0  0  0
M  END
>  <MODEL>
3

>  <REMARK>
 VINA RESULT:     -11.3      3.370      7.445
  Name = 
  4 active torsions:
  status: ('A' for Active; 'I' for Inactive)
    1  A    between atoms: N_3  and  C_25
    2  A    between atoms: C_7  and  C_11
    3  A    between atoms: C_8  and  C_18
    4  A    between atoms: C_18  and  C_30
                            x       y       z     vdW  Elec       q    Type
                         _______ _______ _______ _____ _____    ______ ____

>  <TORSDO>
F 4

$$$$
=
 OpenBabel10222421293D

 34 39  0  0  0  0  0  0  0  0999 V2000
  184.1210  178.5960  141.8210 C   0  0  0  0  0  0  0  0  0  0  0  0
  185.5080  178.1920  138.4130 C   0  0  0  0  0  3  0  0  0  0  0  0
  183.4100  178.8170  139.1160 N   0  0  0  0  0  0  0  0  0  0  0  0
  183.2740  178.8370  144.0490 C   0  0  0  0  0  0  0  0  0  0  0  0
  184.3240  178.6210  143.1760 N   0  0  0  0  0  0  0  0  0  0  0  0
  181.7900  179.0380  142.1770 C   0  0  0  0  0  0  0  0  0  0  0  0
  180.6570  179.3510  141.3610 N   0  0  0  0  0  0  0  0  0  0  0  0
  181.9580  179.0740  143.5610 C   0  0  0  0  0  3  0  0  0  0  0  0
  182.4950  178.9460  140.1070 C   0  0  0  0  0  0  0  0  0  0  0  0
  182.8450  178.7940  141.3830 C   0  0  0  0  0  0  0  0  0  0  0  0
  181.1120  179.2880  140.0190 N   0  0  0  0  0  0  0  0  0  0  0  0
  186.8470  177.5450  138.5220 C   0  0  0  0  0  2  0  0  0  0  0  0
  187.8470  178.3910  139.2260 C   0  0  0  0  0  0  0  0  0  0  0  0
  187.6500  178.7560  140.4910 C   0  0  0  0  0  3  0  0  0  0  0  0
  184.7210  178.5340  139.4380 C   0  0  0  0  0  0  0  0  0  0  0  0
  186.4090  178.5900  141.2690 C   0  0  0  0  0  3  0  0  0  0  0  0
  185.1360  178.5040  140.8340 C   0  0  0  0  0  0  0  0  0  0  0  0
  189.1000  178.6710  138.5850 N   0  0  0  0  0  0  0  0  0  0  0  0
  190.2370  177.9970  138.9690 O   0  0  0  0  0  0  0  0  0  0  0  0
  189.1750  179.5130  137.6660 O   0  0  0  0  0  0  0  0  0  0  0  0
  183.5210  178.8240  145.5180 C   0  0  0  0  0  2  0  0  0  0  0  0
  186.7690  178.4340  147.3210 C   0  0  0  0  0  3  0  0  0  0  0  0
  185.7370  177.9190  144.7900 C   0  0  0  0  0  3  0  0  0  0  0  0
  189.7580  177.0350  145.6330 C   0  0  0  0  0  0  0  0  0  0  0  0
  188.9340  177.5870  146.6250 C   0  0  0  0  0  3  0  0  0  0  0  0
  187.5980  177.8800  146.3440 C   0  0  0  0  0  0  0  0  0  0  0  0
  187.8920  177.0710  144.0730 C   0  0  0  0  0  3  0  0  0  0  0  0
  187.0720  177.6200  145.0620 C   0  0  0  0  0  0  0  0  0  0  0  0
  189.2290  176.7790  144.3580 C   0  0  0  0  0  3  0  0  0  0  0  0
  184.9410  178.4680  145.8000 C   0  0  0  0  0  0  0  0  0  0  0  0
  185.4710  178.7160  147.0290 N   0  0  0  0  0  0  0  0  0  0  0  0
  191.1660  176.7300  145.9320 C   0  0  0  0  0  0  0  0  0  0  0  0
  191.8820  176.1250  145.0900 O   0  0  0  0  0  0  0  0  0  0  0  0
  191.7200  177.1070  147.1500 O   0  0  0  0  0  1  0  0  0  0  0  0
  1  5  1  0  0  0  0
  2 12  1  0  0  0  0
  2 15  2  0  0  0  0
  3 15  1  0  0  0  0
  3  9  2  0  0  0  0
  4 21  1  0  0  0  0
  5  4  2  0  0  0  0
  6  8  2  0  0  0  0
  7  6  1  0  0  0  0
  8  4  1  0  0  0  0
  9 10  1  0  0  0  0
 10  1  2  0  0  0  0
 10  6  1  0  0  0  0
 11  9  1  0  0  0  0
 11  7  2  0  0  0  0
 12 13  1  0  0  0  0
 13 14  2  0  0  0  0
 14 16  1  0  0  0  0
 15 17  1  0  0  0  0
 17 16  2  0  0  0  0
 17  1  1  0  0  0  0
 18 19  2  0  0  0  0
 18 13  1  0  0  0  0
 20 18  2  0  0  0  0
 21 30  1  0  0  0  0
 23 28  2  0  0  0  0
 23 30  1  0  0  0  0
 24 32  1  0  0  0  0
 24 25  2  0  0  0  0
 26 25  1  0  0  0  0
 26 22  2  0  0  0  0
 27 29  2  0  0  0  0
 27 28  1  0  0  0  0
 28 26  1  0  0  0  0
 29 24  1  0  0  0  0
 30 31  2  0  0  0  0
 31 22  1  0  0  0  0
 32 34  1  0  0  0  0
 33 32  2  0  0  0  0
M  END
>  <MODEL>
4

>  <REMARK>
 VINA RESULT:     -11.3      3.169      7.099
  Name = 
  4 active torsions:
  status: ('A' for Active; 'I' for Inactive)
    1  A    between atoms: N_3  and  C_25
    2  A    between atoms: C_7  and  C_11
    3  A    between atoms: C_8  and  C_18
    4  A    between atoms: C_18  and  C_30
                            x       y       z     vdW  Elec       q    Type
                         _______ _______ _______ _____ _____    ______ ____

>  <TORSDO>
F 4

$$$$
=
 OpenBabel10222421293D

 34 39  0  0  0  0  0  0  0  0999 V2000
  187.3870  178.2020  144.7110 C   0  0  0  0  0  0  0  0  0  0  0  0
  189.1240  177.6000  147.9240 C   0  0  0  0  0  3  0  0  0  0  0  0
  186.8940  177.9080  147.4580 N   0  0  0  0  0  0  0  0  0  0  0  0
  186.3150  178.5940  142.6060 C   0  0  0  0  0  0  0  0  0  0  0  0
  187.4400  178.2830  143.3440 N   0  0  0  0  0  0  0  0  0  0  0  0
  185.0460  178.7200  144.6350 C   0  0  0  0  0  0  0  0  0  0  0  0
  183.9590  178.7500  145.5660 N   0  0  0  0  0  0  0  0  0  0  0  0
  185.0600  178.8070  143.2430 C   0  0  0  0  0  3  0  0  0  0  0  0
  185.9160  178.2650  146.5910 C   0  0  0  0  0  0  0  0  0  0  0  0
  186.1790  178.4420  145.2980 C   0  0  0  0  0  0  0  0  0  0  0  0
  184.5220  178.4590  146.8340 N   0  0  0  0  0  0  0  0  0  0  0  0
  190.5930  177.7050  147.6930 C   0  0  0  0  0  2  0  0  0  0  0  0
  191.1180  176.6470  146.7890 C   0  0  0  0  0  0  0  0  0  0  0  0
  190.6810  176.5540  145.5350 C   0  0  0  0  0  3  0  0  0  0  0  0
  188.1770  177.7180  146.9890 C   0  0  0  0  0  0  0  0  0  0  0  0
  189.5370  177.2750  144.9490 C   0  0  0  0  0  3  0  0  0  0  0  0
  188.4430  177.7740  145.5570 C   0  0  0  0  0  0  0  0  0  0  0  0
  192.2160  175.8340  147.2290 N   0  0  0  0  0  0  0  0  0  0  0  0
  192.8500  176.1150  148.4170 O   0  0  0  0  0  0  0  0  0  0  0  0
  192.6010  174.8580  146.5510 O   0  0  0  0  0  0  0  0  0  0  0  0
  186.4130  178.7080  141.1230 C   0  0  0  0  0  2  0  0  0  0  0  0
  189.9750  177.5810  141.1420 C   0  0  0  0  0  3  0  0  0  0  0  0
  187.9180  177.8960  139.2960 C   0  0  0  0  0  3  0  0  0  0  0  0
  191.6800  176.5200  138.0280 C   0  0  0  0  0  0  0  0  0  0  0  0
  191.4580  176.8190  139.3790 C   0  0  0  0  0  3  0  0  0  0  0  0
  190.2070  177.2750  139.8010 C   0  0  0  0  0  0  0  0  0  0  0  0
  189.3830  177.1390  137.5200 C   0  0  0  0  0  3  0  0  0  0  0  0
  189.1630  177.4360  138.8670 C   0  0  0  0  0  0  0  0  0  0  0  0
  190.6360  176.6820  137.1030 C   0  0  0  0  0  3  0  0  0  0  0  0
  187.7270  178.1840  140.6510 C   0  0  0  0  0  0  0  0  0  0  0  0
  188.7510  178.0280  141.5350 N   0  0  0  0  0  0  0  0  0  0  0  0
  193.0000  176.0420  137.5870 C   0  0  0  0  0  0  0  0  0  0  0  0
  193.8670  176.8550  137.1660 O   0  0  0  0  0  0  0  0  0  0  0  0
  193.3040  174.6860  137.6310 O   0  0  0  0  0  1  0  0  0  0  0  0
  1 10  1  0  0  0  0
  1 17  1  0  0  0  0
  4  8  2  0  0  0  0
  4  5  1  0  0  0  0
  5  1  2  0  0  0  0
  6 10  2  0  0  0  0
  6  7  1  0  0  0  0
  7 11  2  0  0  0  0
  8  6  1  0  0  0  0
  9 11  1  0  0  0  0
  9  3  2  0  0  0  0
 10  9  1  0  0  0  0
 12  2  1  0  0  0  0
 13 18  1  0  0  0  0
 13 12  1  0  0  0  0
 14 13  2  0  0  0  0
 15  3  1  0  0  0  0
 15  2  2  0  0  0  0
 16 14  1  0  0  0  0
 16 17  2  0  0  0  0
 17 15  1  0  0  0  0
 18 19  2  0  0  0  0
 20 18  2  0  0  0  0
 21  4  1  0  0  0  0
 22 31  1  0  0  0  0
 23 30  1  0  0  0  0
 24 25  2  0  0  0  0
 25 26  1  0  0  0  0
 26 22  2  0  0  0  0
 27 28  1  0  0  0  0
 28 23  2  0  0  0  0
 28 26  1  0  0  0  0
 29 27  2  0  0  0  0
 29 24  1  0  0  0  0
 30 21  1  0  0  0  0
 30 31  2  0  0  0  0
 32 34  1  0  0  0  0
 32 24  1  0  0  0  0
 33 32  2  0  0  0  0
M  END
>  <MODEL>
5

>  <REMARK>
 VINA RESULT:     -11.1      3.520      7.292
  Name = 
  4 active torsions:
  status: ('A' for Active; 'I' for Inactive)
    1  A    between atoms: N_3  and  C_25
    2  A    between atoms: C_7  and  C_11
    3  A    between atoms: C_8  and  C_18
    4  A    between atoms: C_18  and  C_30
                            x       y       z     vdW  Elec       q    Type
                         _______ _______ _______ _____ _____    ______ ____

>  <TORSDO>
F 4

$$$$
=
 OpenBabel10222421293D

 34 39  0  0  0  0  0  0  0  0999 V2000
  186.9630  178.1930  144.1840 C   0  0  0  0  0  0  0  0  0  0  0  0
  189.1280  177.2840  147.0470 C   0  0  0  0  0  3  0  0  0  0  0  0
  186.8720  177.7190  146.9480 N   0  0  0  0  0  0  0  0  0  0  0  0
  185.6110  178.7840  142.2980 C   0  0  0  0  0  0  0  0  0  0  0  0
  186.8160  178.3720  142.8330 N   0  0  0  0  0  0  0  0  0  0  0  0
  184.6670  178.8130  144.5010 C   0  0  0  0  0  0  0  0  0  0  0  0
  183.7350  178.8200  145.5870 N   0  0  0  0  0  0  0  0  0  0  0  0
  184.4780  179.0020  143.1320 C   0  0  0  0  0  3  0  0  0  0  0  0
  185.7950  178.1790  146.2670 C   0  0  0  0  0  0  0  0  0  0  0  0
  185.8710  178.4400  144.9630 C   0  0  0  0  0  0  0  0  0  0  0  0
  184.4660  178.4140  146.7330 N   0  0  0  0  0  0  0  0  0  0  0  0
  190.5490  177.3440  146.6010 C   0  0  0  0  0  2  0  0  0  0  0  0
  190.8760  176.3340  145.5590 C   0  0  0  0  0  0  0  0  0  0  0  0
  190.2520  176.3520  144.3830 C   0  0  0  0  0  3  0  0  0  0  0  0
  188.0580  177.5110  146.2770 C   0  0  0  0  0  0  0  0  0  0  0  0
  189.0720  177.1620  144.0280 C   0  0  0  0  0  3  0  0  0  0  0  0
  188.1100  177.6610  144.8280 C   0  0  0  0  0  0  0  0  0  0  0  0
  191.9840  175.4460  145.7710 N   0  0  0  0  0  0  0  0  0  0  0  0
  192.6390  175.4360  146.9810 O   0  0  0  0  0  0  0  0  0  0  0  0
  192.3570  174.6640  144.8710 O   0  0  0  0  0  0  0  0  0  0  0  0
  185.4920  179.0020  140.8290 C   0  0  0  0  0  2  0  0  0  0  0  0
  187.6510  177.5210  138.1650 C   0  0  0  0  0  3  0  0  0  0  0  0
  187.9030  178.3360  140.8130 C   0  0  0  0  0  3  0  0  0  0  0  0
  191.2110  176.7050  138.7980 C   0  0  0  0  0  0  0  0  0  0  0  0
  189.9800  176.8410  138.1390 C   0  0  0  0  0  3  0  0  0  0  0  0
  188.8820  177.3850  138.8080 C   0  0  0  0  0  0  0  0  0  0  0  0
  190.2320  177.6620  140.8090 C   0  0  0  0  0  3  0  0  0  0  0  0
  189.0070  177.7980  140.1510 C   0  0  0  0  0  0  0  0  0  0  0  0
  191.3290  177.1180  140.1340 C   0  0  0  0  0  3  0  0  0  0  0  0
  186.6900  178.4600  140.1280 C   0  0  0  0  0  0  0  0  0  0  0  0
  186.5900  178.0480  138.8340 N   0  0  0  0  0  0  0  0  0  0  0  0
  192.3650  176.1300  138.0890 C   0  0  0  0  0  0  0  0  0  0  0  0
  192.3540  174.9240  137.7220 O   0  0  0  0  0  0  0  0  0  0  0  0
  193.4820  176.9140  137.8190 O   0  0  0  0  0  1  0  0  0  0  0  0
  1 17  1  0  0  0  0
  1 10  1  0  0  0  0
  4  5  1  0  0  0  0
  4  8  2  0  0  0  0
  5  1  2  0  0  0  0
  6 10  2  0  0  0  0
  6  7  1  0  0  0  0
  7 11  2  0  0  0  0
  8  6  1  0  0  0  0
  9 11  1  0  0  0  0
  9  3  2  0  0  0  0
 10  9  1  0  0  0  0
 12  2  1  0  0  0  0
 13 18  1  0  0  0  0
 13 12  1  0  0  0  0
 14 13  2  0  0  0  0
 15  3  1  0  0  0  0
 15  2  2  0  0  0  0
 16 14  1  0  0  0  0
 16 17  2  0  0  0  0
 17 15  1  0  0  0  0
 18 19  2  0  0  0  0
 20 18  2  0  0  0  0
 21  4  1  0  0  0  0
 22 26  2  0  0  0  0
 22 31  1  0  0  0  0
 24 29  1  0  0  0  0
 25 24  2  0  0  0  0
 25 26  1  0  0  0  0
 26 28  1  0  0  0  0
 28 27  1  0  0  0  0
 28 23  2  0  0  0  0
 29 27  2  0  0  0  0
 30 23  1  0  0  0  0
 30 21  1  0  0  0  0
 31 30  2  0  0  0  0
 32 24  1  0  0  0  0
 33 32  2  0  0  0  0
 34 32  1  0  0  0  0
M  END
>  <MODEL>
6

>  <REMARK>
 VINA RESULT:     -11.0      3.205      6.861
  Name = 
  4 active torsions:
  status: ('A' for Active; 'I' for Inactive)
    1  A    between atoms: N_3  and  C_25
    2  A    between atoms: C_7  and  C_11
    3  A    between atoms: C_8  and  C_18
    4  A    between atoms: C_18  and  C_30
                            x       y       z     vdW  Elec       q    Type
                         _______ _______ _______ _____ _____    ______ ____

>  <TORSDO>
F 4

$$$$
=
 OpenBabel10222421293D

 34 39  0  0  0  0  0  0  0  0999 V2000
  188.3870  177.6800  141.2170 C   0  0  0  0  0  0  0  0  0  0  0  0
  188.0750  177.4810  144.9000 C   0  0  0  0  0  3  0  0  0  0  0  0
  189.9370  177.5690  143.5530 N   0  0  0  0  0  0  0  0  0  0  0  0
  188.5310  177.8020  138.8290 C   0  0  0  0  0  0  0  0  0  0  0  0
  187.7870  177.8240  139.9930 N   0  0  0  0  0  0  0  0  0  0  0  0
  190.5210  177.5130  140.1330 C   0  0  0  0  0  0  0  0  0  0  0  0
  191.8920  177.4770  140.5420 N   0  0  0  0  0  0  0  0  0  0  0  0
  189.9470  177.6620  138.8710 C   0  0  0  0  0  3  0  0  0  0  0  0
  190.4970  177.5040  142.3220 C   0  0  0  0  0  0  0  0  0  0  0  0
  189.7410  177.5140  141.2250 C   0  0  0  0  0  0  0  0  0  0  0  0
  191.8780  177.4680  141.9600 N   0  0  0  0  0  0  0  0  0  0  0  0
  186.6480  177.2130  145.2390 C   0  0  0  0  0  2  0  0  0  0  0  0
  185.7390  178.3250  144.8540 C   0  0  0  0  0  0  0  0  0  0  0  0
  185.6220  178.6890  143.5780 C   0  0  0  0  0  3  0  0  0  0  0  0
  188.5650  177.6560  143.6690 C   0  0  0  0  0  0  0  0  0  0  0  0
  186.4690  178.2440  142.4570 C   0  0  0  0  0  3  0  0  0  0  0  0
  187.7430  177.8070  142.4750 C   0  0  0  0  0  0  0  0  0  0  0  0
  184.8680  178.8910  145.8450 N   0  0  0  0  0  0  0  0  0  0  0  0
  183.5450  179.1250  145.5470 O   0  0  0  0  0  0  0  0  0  0  0  0
  185.2910  179.1630  146.9880 O   0  0  0  0  0  0  0  0  0  0  0  0
  187.8450  177.9290  137.5120 C   0  0  0  0  0  2  0  0  0  0  0  0
  184.5010  176.2740  137.3430 C   0  0  0  0  0  3  0  0  0  0  0  0
  187.1800  175.5360  137.2090 C   0  0  0  0  0  3  0  0  0  0  0  0
  184.1820  172.6060  136.9150 C   0  0  0  0  0  0  0  0  0  0  0  0
  183.8360  173.9540  137.0790 C   0  0  0  0  0  3  0  0  0  0  0  0
  184.8320  174.9290  137.1750 C   0  0  0  0  0  0  0  0  0  0  0  0
  186.5380  173.2140  136.9450 C   0  0  0  0  0  3  0  0  0  0  0  0
  186.1910  174.5570  137.1080 C   0  0  0  0  0  0  0  0  0  0  0  0
  185.5360  172.2430  136.8490 C   0  0  0  0  0  3  0  0  0  0  0  0
  186.8020  176.8730  137.3700 C   0  0  0  0  0  0  0  0  0  0  0  0
  185.4840  177.2080  137.4390 N   0  0  0  0  0  0  0  0  0  0  0  0
  183.1290  171.5830  136.8160 C   0  0  0  0  0  0  0  0  0  0  0  0
  181.9220  171.8850  137.0190 O   0  0  0  0  0  1  0  0  0  0  0  0
  183.4570  170.2690  136.5000 O   0  0  0  0  0  0  0  0  0  0  0  0
  1 10  1  0  0  0  0
  1 17  1  0  0  0  0
  2 12  1  0  0  0  0
  3 15  1  0  0  0  0
  4  8  2  0  0  0  0
  4  5  1  0  0  0  0
  5  1  2  0  0  0  0
  6  7  1  0  0  0  0
  6 10  2  0  0  0  0
  7 11  2  0  0  0  0
  8  6  1  0  0  0  0
  9  3  2  0  0  0  0
 10  9  1  0  0  0  0
 11  9  1  0  0  0  0
 13 12  1  0  0  0  0
 13 18  1  0  0  0  0
 14 13  2  0  0  0  0
 15  2  2  0  0  0  0
 16 17  2  0  0  0  0
 16 14  1  0  0  0  0
 17 15  1  0  0  0  0
 18 20  2  0  0  0  0
 19 18  2  0  0  0  0
 21  4  1  0  0  0  0
 22 31  1  0  0  0  0
 23 30  1  0  0  0  0
 24 25  2  0  0  0  0
 25 26  1  0  0  0  0
 26 22  2  0  0  0  0
 27 28  1  0  0  0  0
 28 26  1  0  0  0  0
 28 23  2  0  0  0  0
 29 24  1  0  0  0  0
 29 27  2  0  0  0  0
 30 31  2  0  0  0  0
 30 21  1  0  0  0  0
 32 24  1  0  0  0  0
 32 33  1  0  0  0  0
 34 32  2  0  0  0  0
M  END
>  <MODEL>
7

>  <REMARK>
 VINA RESULT:     -10.9      4.438      7.136
  Name = 
  4 active torsions:
  status: ('A' for Active; 'I' for Inactive)
    1  A    between atoms: N_3  and  C_25
    2  A    between atoms: C_7  and  C_11
    3  A    between atoms: C_8  and  C_18
    4  A    between atoms: C_18  and  C_30
                            x       y       z     vdW  Elec       q    Type
                         _______ _______ _______ _____ _____    ______ ____

>  <TORSDO>
F 4

$$$$
=
 OpenBabel10222421293D

 34 39  0  0  0  0  0  0  0  0999 V2000
  186.8350  178.1710  141.4380 C   0  0  0  0  0  0  0  0  0  0  0  0
  189.0930  177.4670  138.5900 C   0  0  0  0  0  3  0  0  0  0  0  0
  187.0270  178.4760  138.6560 N   0  0  0  0  0  0  0  0  0  0  0  0
  185.4110  178.5960  143.3170 C   0  0  0  0  0  0  0  0  0  0  0  0
  186.6190  178.1780  142.7920 N   0  0  0  0  0  0  0  0  0  0  0  0
  184.6240  179.0360  141.0960 C   0  0  0  0  0  0  0  0  0  0  0  0
  183.8660  179.5390  139.9900 N   0  0  0  0  0  0  0  0  0  0  0  0
  184.3680  179.0620  142.4670 C   0  0  0  0  0  3  0  0  0  0  0  0
  185.8940  178.7850  139.3310 C   0  0  0  0  0  0  0  0  0  0  0  0
  185.8080  178.5920  140.6460 C   0  0  0  0  0  0  0  0  0  0  0  0
  184.6870  179.3730  138.8460 N   0  0  0  0  0  0  0  0  0  0  0  0
  190.1970  176.5880  139.0700 C   0  0  0  0  0  2  0  0  0  0  0  0
  191.0710  177.2470  140.0760 C   0  0  0  0  0  0  0  0  0  0  0  0
  190.5690  177.6610  141.2370 C   0  0  0  0  0  3  0  0  0  0  0  0
  188.1060  177.9620  139.3450 C   0  0  0  0  0  0  0  0  0  0  0  0
  189.1420  177.7380  141.5990 C   0  0  0  0  0  3  0  0  0  0  0  0
  188.0670  177.8790  140.7990 C   0  0  0  0  0  0  0  0  0  0  0  0
  192.4890  177.2830  139.8530 N   0  0  0  0  0  0  0  0  0  0  0  0
  193.0050  176.9130  138.6320 O   0  0  0  0  0  0  0  0  0  0  0  0
  193.2680  177.6630  140.7520 O   0  0  0  0  0  0  0  0  0  0  0  0
  185.1950  178.5610  144.7900 C   0  0  0  0  0  2  0  0  0  0  0  0
  187.6000  177.6990  147.5160 C   0  0  0  0  0  3  0  0  0  0  0  0
  187.5510  177.7220  144.7340 C   0  0  0  0  0  3  0  0  0  0  0  0
  191.0340  176.5270  146.7600 C   0  0  0  0  0  0  0  0  0  0  0  0
  189.8950  176.9130  147.4820 C   0  0  0  0  0  3  0  0  0  0  0  0
  188.7370  177.3090  146.8080 C   0  0  0  0  0  0  0  0  0  0  0  0
  189.8440  176.9380  144.6780 C   0  0  0  0  0  3  0  0  0  0  0  0
  188.7100  177.3210  145.3990 C   0  0  0  0  0  0  0  0  0  0  0  0
  191.0010  176.5420  145.3570 C   0  0  0  0  0  3  0  0  0  0  0  0
  186.4320  178.0990  145.4830 C   0  0  0  0  0  0  0  0  0  0  0  0
  186.4820  178.0860  146.8430 N   0  0  0  0  0  0  0  0  0  0  0  0
  192.2520  176.1130  147.4740 C   0  0  0  0  0  0  0  0  0  0  0  0
  192.8990  175.0980  147.0990 O   0  0  0  0  0  0  0  0  0  0  0  0
  192.7010  176.8390  148.5720 O   0  0  0  0  0  1  0  0  0  0  0  0
  1  5  1  0  0  0  0
  2 12  1  0  0  0  0
  2 15  2  0  0  0  0
  3  9  2  0  0  0  0
  3 15  1  0  0  0  0
  4 21  1  0  0  0  0
  5  4  2  0  0  0  0
  6  8  2  0  0  0  0
  7  6  1  0  0  0  0
  8  4  1  0  0  0  0
  9 10  1  0  0  0  0
 10  6  1  0  0  0  0
 10  1  2  0  0  0  0
 11  9  1  0  0  0  0
 11  7  2  0  0  0  0
 12 13  1  0  0  0  0
 13 14  2  0  0  0  0
 14 16  1  0  0  0  0
 15 17  1  0  0  0  0
 17  1  1  0  0  0  0
 17 16  2  0  0  0  0
 18 13  1  0  0  0  0
 18 20  2  0  0  0  0
 19 18  2  0  0  0  0
 21 30  1  0  0  0  0
 23 28  2  0  0  0  0
 23 30  1  0  0  0  0
 24 32  1  0  0  0  0
 24 25  2  0  0  0  0
 26 25  1  0  0  0  0
 26 22  2  0  0  0  0
 27 29  2  0  0  0  0
 27 28  1  0  0  0  0
 28 26  1  0  0  0  0
 29 24  1  0  0  0  0
 30 31  2  0  0  0  0
 31 22  1  0  0  0  0
 32 34  1  0  0  0  0
 33 32  2  0  0  0  0
M  END
>  <MODEL>
8

>  <REMARK>
 VINA RESULT:     -10.9      3.522      6.826
  Name = 
  4 active torsions:
  status: ('A' for Active; 'I' for Inactive)
    1  A    between atoms: N_3  and  C_25
    2  A    between atoms: C_7  and  C_11
    3  A    between atoms: C_8  and  C_18
    4  A    between atoms: C_18  and  C_30
                            x       y       z     vdW  Elec       q    Type
                         _______ _______ _______ _____ _____    ______ ____

>  <TORSDO>
F 4

$$$$
=
 OpenBabel10222421293D

 34 39  0  0  0  0  0  0  0  0999 V2000
  188.8060  177.6770  143.0500 C   0  0  0  0  0  0  0  0  0  0  0  0
  190.1320  177.5660  139.5950 C   0  0  0  0  0  3  0  0  0  0  0  0
  190.9190  176.6190  141.5370 N   0  0  0  0  0  0  0  0  0  0  0  0
  187.9070  177.7880  145.2670 C   0  0  0  0  0  0  0  0  0  0  0  0
  187.8060  178.0430  143.9130 N   0  0  0  0  0  0  0  0  0  0  0  0
  190.0380  176.7560  144.8910 C   0  0  0  0  0  0  0  0  0  0  0  0
  191.2230  175.9710  145.0570 N   0  0  0  0  0  0  0  0  0  0  0  0
  189.0400  177.1090  145.7990 C   0  0  0  0  0  3  0  0  0  0  0  0
  190.8830  176.5100  142.8870 C   0  0  0  0  0  0  0  0  0  0  0  0
  189.8940  177.0570  143.5910 C   0  0  0  0  0  0  0  0  0  0  0  0
  191.7730  175.8140  143.7600 N   0  0  0  0  0  0  0  0  0  0  0  0
  189.3670  178.5400  138.7650 C   0  0  0  0  0  2  0  0  0  0  0  0
  187.9320  178.1810  138.6180 C   0  0  0  0  0  0  0  0  0  0  0  0
  187.1440  178.1030  139.6890 C   0  0  0  0  0  3  0  0  0  0  0  0
  189.9110  177.2990  140.8860 C   0  0  0  0  0  0  0  0  0  0  0  0
  187.5730  178.1320  141.0980 C   0  0  0  0  0  3  0  0  0  0  0  0
  188.7570  177.7790  141.6350 C   0  0  0  0  0  0  0  0  0  0  0  0
  187.3670  178.0820  137.3020 N   0  0  0  0  0  0  0  0  0  0  0  0
  187.0930  176.8470  136.7600 O   0  0  0  0  0  0  0  0  0  0  0  0
  187.1040  179.1070  136.6400 O   0  0  0  0  0  0  0  0  0  0  0  0
  186.8180  178.2270  146.1840 C   0  0  0  0  0  2  0  0  0  0  0  0
  183.2400  178.9810  145.4250 C   0  0  0  0  0  3  0  0  0  0  0  0
  185.5350  178.2460  144.0360 C   0  0  0  0  0  3  0  0  0  0  0  0
  181.9170  178.7860  141.9680 C   0  0  0  0  0  0  0  0  0  0  0  0
  181.9710  178.9770  143.3560 C   0  0  0  0  0  3  0  0  0  0  0  0
  183.1740  178.7990  144.0430 C   0  0  0  0  0  0  0  0  0  0  0  0
  184.2870  178.2340  141.9590 C   0  0  0  0  0  3  0  0  0  0  0  0
  184.3390  178.4260  143.3410 C   0  0  0  0  0  0  0  0  0  0  0  0
  183.0810  178.4140  141.2750 C   0  0  0  0  0  3  0  0  0  0  0  0
  185.5570  178.4460  145.4200 C   0  0  0  0  0  0  0  0  0  0  0  0
  184.4180  178.7990  146.0780 N   0  0  0  0  0  0  0  0  0  0  0  0
  180.6470  178.9720  141.2480 C   0  0  0  0  0  0  0  0  0  0  0  0
  179.9830  177.9760  140.8540 O   0  0  0  0  0  0  0  0  0  0  0  0
  180.1680  180.2530  140.9950 O   0  0  0  0  0  1  0  0  0  0  0  0
  1 10  2  0  0  0  0
  1  5  1  0  0  0  0
  2 15  2  0  0  0  0
  3  9  2  0  0  0  0
  4  8  1  0  0  0  0
  4 21  1  0  0  0  0
  5  4  2  0  0  0  0
  6  7  1  0  0  0  0
  6  8  2  0  0  0  0
  9 10  1  0  0  0  0
  9 11  1  0  0  0  0
 10  6  1  0  0  0  0
 11  7  2  0  0  0  0
 12  2  1  0  0  0  0
 13 12  1  0  0  0  0
 13 14  2  0  0  0  0
 14 16  1  0  0  0  0
 15  3  1  0  0  0  0
 15 17  1  0  0  0  0
 16 17  2  0  0  0  0
 17  1  1  0  0  0  0
 18 13  1  0  0  0  0
 19 18  2  0  0  0  0
 20 18  2  0  0  0  0
 22 31  1  0  0  0  0
 23 30  1  0  0  0  0
 24 25  2  0  0  0  0
 25 26  1  0  0  0  0
 26 22  2  0  0  0  0
 27 28  1  0  0  0  0
 28 23  2  0  0  0  0
 28 26  1  0  0  0  0
 29 27  2  0  0  0  0
 29 24  1  0  0  0  0
 30 31  2  0  0  0  0
 30 21  1  0  0  0  0
 32 24  1  0  0  0  0
 33 32  2  0  0  0  0
 34 32  1  0  0  0  0
M  END
>  <MODEL>
9

>  <REMARK>
 VINA RESULT:     -10.6      1.558      2.258
  Name = 
  4 active torsions:
  status: ('A' for Active; 'I' for Inactive)
    1  A    between atoms: N_3  and  C_25
    2  A    between atoms: C_7  and  C_11
    3  A    between atoms: C_8  and  C_18
    4  A    between atoms: C_18  and  C_30
                            x       y       z     vdW  Elec       q    Type
                         _______ _______ _______ _____ _____    ______ ____

>  <TORSDO>
F 4

$$$$
