=
 OpenBabel10222421313D

 34 40  0  0  1  0  0  0  0  0999 V2000
  187.8840  177.5260  141.7100 C   0  0  2  0  0  3  0  0  0  0  0  0
  187.6710  178.4710  136.6350 C   0  0  0  0  0  3  0  0  0  0  0  0
  189.0130  178.2050  136.9090 C   0  0  0  0  0  3  0  0  0  0  0  0
  187.1330  178.1460  138.9430 N   0  0  0  0  0  0  0  0  0  0  0  0
  188.8450  177.5950  140.5570 C   0  0  0  0  0  0  0  0  0  0  0  0
  188.4380  177.8870  139.2410 C   0  0  0  0  0  0  0  0  0  0  0  0
  186.7370  178.4380  137.6750 C   0  0  0  0  0  3  0  0  0  0  0  0
  189.4070  177.9130  138.2140 C   0  0  0  0  0  0  0  0  0  0  0  0
  191.1180  177.3700  139.7630 C   0  0  0  0  0  3  0  0  0  0  0  0
  190.7110  177.6550  138.4970 N   0  0  0  0  0  0  0  0  0  0  0  0
  190.1940  177.3370  140.8120 C   0  0  0  0  0  3  0  0  0  0  0  0
  186.7020  178.3410  141.4530 N   0  0  0  0  0  2  0  0  0  0  0  0
  185.4400  179.8430  142.9030 C   0  0  0  0  0  2  0  0  0  0  0  0
  185.9380  178.4160  142.6920 C   0  0  1  0  0  3  0  0  0  0  0  0
  184.4840  178.7700  142.4340 C   0  0  1  0  0  0  0  0  0  0  0  0
  183.6150  178.3220  143.4280 O   0  0  0  0  0  1  0  0  0  0  0  0
  183.9460  178.8560  141.0000 C   0  0  2  0  0  0  0  0  0  0  0  0
  183.7790  177.2920  138.9890 C   0  0  0  0  0  2  0  0  0  0  0  0
  182.4780  179.1900  138.1870 C   0  0  0  0  0  2  0  0  0  0  0  0
  181.8860  179.5050  139.5550 C   0  0  0  0  0  2  0  0  0  0  0  0
  182.4480  178.7100  140.7580 C   0  0  1  0  0  3  0  0  0  0  0  0
  183.4030  177.5310  140.4580 C   0  0  2  0  0  3  0  0  0  0  0  0
  184.6650  179.6420  140.0930 O   0  0  0  0  0  1  0  0  0  0  0  0
  182.6790  177.7050  138.0330 C   0  0  0  0  0  2  0  0  0  0  0  0
  188.5330  177.9640  142.9380 N   0  0  0  0  0  2  0  0  0  0  0  0
  190.9680  176.9970  145.2460 S   0  0  0  0  0  0  0  0  0  0  0  0
  187.0370  177.5440  145.7060 C   0  0  0  0  0  3  0  0  0  0  0  0
  190.0250  176.2650  143.8540 C   0  0  0  0  0  2  0  0  0  0  0  0
  189.4240  177.3870  146.0290 C   0  0  0  0  0  0  0  0  0  0  0  0
  189.2960  177.7840  147.3590 C   0  0  0  0  0  3  0  0  0  0  0  0
  188.3150  177.2650  145.2180 C   0  0  0  0  0  0  0  0  0  0  0  0
  188.0190  178.0700  147.8650 C   0  0  0  0  0  3  0  0  0  0  0  0
  186.8910  177.9500  147.0390 C   0  0  0  0  0  3  0  0  0  0  0  0
  188.5990  176.8210  143.8350 C   0  0  1  0  0  3  0  0  0  0  0  0
  1 12  1  6  0  0  0
  1 25  1  0  0  0  0
  2  3  2  0  0  0  0
  2  7  1  0  0  0  0
  3  8  1  0  0  0  0
  4  6  1  0  0  0  0
  5 11  1  0  0  0  0
  5  1  1  0  0  0  0
  6  5  2  0  0  0  0
  7  4  2  0  0  0  0
  8 10  2  0  0  0  0
  8  6  1  0  0  0  0
  9 11  2  0  0  0  0
 10  9  1  0  0  0  0
 14 12  1  6  0  0  0
 14 13  1  0  0  0  0
 15 14  1  0  0  0  0
 15 13  1  0  0  0  0
 15 16  1  1  0  0  0
 17 23  1  6  0  0  0
 17 15  1  0  0  0  0
 19 20  1  0  0  0  0
 21 20  1  6  0  0  0
 21 17  1  0  0  0  0
 22 18  1  6  0  0  0
 22 21  1  0  0  0  0
 22 17  1  0  0  0  0
 24 19  1  0  0  0  0
 24 18  1  0  0  0  0
 26 29  1  0  0  0  0
 27 33  1  0  0  0  0
 28 26  1  0  0  0  0
 29 30  2  0  0  0  0
 30 32  1  0  0  0  0
 31 27  2  0  0  0  0
 31 29  1  0  0  0  0
 33 32  2  0  0  0  0
 34 25  1  6  0  0  0
 34 28  1  0  0  0  0
 34 31  1  0  0  0  0
M  END
>  <MODEL>
1

>  <REMARK>
 VINA RESULT:      -9.1      0.000      0.000
  Name = 
  6 active torsions:
  status: ('A' for Active; 'I' for Inactive)
    1  A    between atoms: C_3  and  C_22
    2  A    between atoms: C_7  and  C_18
    3  A    between atoms: N_17  and  C_18
    4  A    between atoms: N_17  and  C_20
    5  A    between atoms: C_18  and  N_19
    6  A    between atoms: N_19  and  C_32
                            x       y       z     vdW  Elec       q    Type
                         _______ _______ _______ _____ _____    ______ ____

>  <TORSDO>
F 6

$$$$
=
 OpenBabel10222421313D

 34 40  0  0  1  0  0  0  0  0999 V2000
  186.2960  178.5990  142.2780 C   0  0  2  0  0  3  0  0  0  0  0  0
  187.5150  177.6380  147.2070 C   0  0  0  0  0  3  0  0  0  0  0  0
  186.1730  178.0200  147.2230 C   0  0  0  0  0  3  0  0  0  0  0  0
  187.5700  177.9190  144.8320 N   0  0  0  0  0  0  0  0  0  0  0  0
  185.6130  178.6470  143.6160 C   0  0  0  0  0  0  0  0  0  0  0  0
  186.2620  178.3010  144.8170 C   0  0  0  0  0  0  0  0  0  0  0  0
  188.2040  177.5940  145.9910 C   0  0  0  0  0  3  0  0  0  0  0  0
  185.5370  178.3560  146.0280 C   0  0  0  0  0  0  0  0  0  0  0  0
  183.5920  179.0690  144.8750 C   0  0  0  0  0  3  0  0  0  0  0  0
  184.2320  178.7340  146.0280 N   0  0  0  0  0  0  0  0  0  0  0  0
  184.2710  179.0320  143.6530 C   0  0  0  0  0  3  0  0  0  0  0  0
  185.3670  178.1780  141.2350 N   0  0  0  0  0  2  0  0  0  0  0  0
  185.2230  178.5300  138.8250 C   0  0  0  0  0  2  0  0  0  0  0  0
  185.3890  179.1930  140.1890 C   0  0  1  0  0  3  0  0  0  0  0  0
  184.0620  179.2680  139.4520 C   0  0  1  0  0  0  0  0  0  0  0  0
  183.8120  180.5120  138.8750 O   0  0  0  0  0  1  0  0  0  0  0  0
  182.8580  178.4490  139.9330 C   0  0  2  0  0  0  0  0  0  0  0  0
  181.3210  178.4380  141.9720 C   0  0  0  0  0  2  0  0  0  0  0  0
  180.1900  176.8110  140.5530 C   0  0  0  0  0  2  0  0  0  0  0  0
  180.5160  177.5470  139.2600 C   0  0  0  0  0  2  0  0  0  0  0  0
  181.4760  178.7550  139.3670 C   0  0  1  0  0  3  0  0  0  0  0  0
  181.8620  179.2440  140.7830 C   0  0  2  0  0  3  0  0  0  0  0  0
  183.1010  177.1330  140.3430 O   0  0  0  0  0  1  0  0  0  0  0  0
  179.9820  177.7930  141.6770 C   0  0  0  0  0  2  0  0  0  0  0  0
  187.4360  177.6950  142.3240 N   0  0  0  0  0  2  0  0  0  0  0  0
  190.8410  176.9230  142.4050 S   0  0  0  0  0  0  0  0  0  0  0  0
  188.4790  177.8910  139.3310 C   0  0  0  0  0  3  0  0  0  0  0  0
  189.7390  178.3260  142.8270 C   0  0  0  0  0  2  0  0  0  0  0  0
  190.2090  176.9820  140.7480 C   0  0  0  0  0  0  0  0  0  0  0  0
  190.7820  176.3170  139.6650 C   0  0  0  0  0  3  0  0  0  0  0  0
  189.0810  177.7590  140.5850 C   0  0  0  0  0  0  0  0  0  0  0  0
  190.1870  176.4380  138.4000 C   0  0  0  0  0  3  0  0  0  0  0  0
  189.0370  177.2240  138.2340 C   0  0  0  0  0  3  0  0  0  0  0  0
  188.5920  178.4180  141.8170 C   0  0  1  0  0  3  0  0  0  0  0  0
  1 12  1  6  0  0  0
  1 25  1  0  0  0  0
  1  5  1  0  0  0  0
  2  3  1  0  0  0  0
  4  7  1  0  0  0  0
  5 11  2  0  0  0  0
  5  6  1  0  0  0  0
  6  4  2  0  0  0  0
  6  8  1  0  0  0  0
  7  2  2  0  0  0  0
  8  3  2  0  0  0  0
  9 10  2  0  0  0  0
 10  8  1  0  0  0  0
 11  9  1  0  0  0  0
 13 15  1  0  0  0  0
 13 14  1  0  0  0  0
 14 12  1  1  0  0  0
 15 16  1  6  0  0  0
 15 17  1  0  0  0  0
 15 14  1  0  0  0  0
 17 23  1  1  0  0  0
 17 22  1  0  0  0  0
 19 24  1  0  0  0  0
 20 19  1  0  0  0  0
 21 20  1  1  0  0  0
 21 17  1  0  0  0  0
 21 22  1  0  0  0  0
 22 18  1  1  0  0  0
 24 18  1  0  0  0  0
 26 28  1  0  0  0  0
 27 31  1  0  0  0  0
 29 26  1  0  0  0  0
 30 29  1  0  0  0  0
 31 29  2  0  0  0  0
 31 34  1  0  0  0  0
 32 30  2  0  0  0  0
 33 32  1  0  0  0  0
 33 27  2  0  0  0  0
 34 25  1  1  0  0  0
 34 28  1  0  0  0  0
M  END
>  <MODEL>
2

>  <REMARK>
 VINA RESULT:      -8.7      1.870      5.947
  Name = 
  6 active torsions:
  status: ('A' for Active; 'I' for Inactive)
    1  A    between atoms: C_3  and  C_22
    2  A    between atoms: C_7  and  C_18
    3  A    between atoms: N_17  and  C_18
    4  A    between atoms: N_17  and  C_20
    5  A    between atoms: C_18  and  N_19
    6  A    between atoms: N_19  and  C_32
                            x       y       z     vdW  Elec       q    Type
                         _______ _______ _______ _____ _____    ______ ____

>  <TORSDO>
F 6

$$$$
=
 OpenBabel10222421313D

 34 40  0  0  1  0  0  0  0  0999 V2000
  188.7100  177.7010  141.5990 C   0  0  2  0  0  3  0  0  0  0  0  0
  186.4100  177.6630  146.2260 C   0  0  0  0  0  3  0  0  0  0  0  0
  185.4360  178.1020  145.3290 C   0  0  0  0  0  3  0  0  0  0  0  0
  187.9810  177.4740  144.4320 N   0  0  0  0  0  0  0  0  0  0  0  0
  187.3600  178.0390  142.1660 C   0  0  0  0  0  0  0  0  0  0  0  0
  187.0510  177.9050  143.5330 C   0  0  0  0  0  0  0  0  0  0  0  0
  187.6890  177.3530  145.7550 C   0  0  0  0  0  3  0  0  0  0  0  0
  185.7490  178.2280  143.9760 C   0  0  0  0  0  0  0  0  0  0  0  0
  185.0960  178.7890  141.7670 C   0  0  0  0  0  3  0  0  0  0  0  0
  184.8120  178.6560  143.0900 N   0  0  0  0  0  0  0  0  0  0  0  0
  186.3720  178.4840  141.2840 C   0  0  0  0  0  3  0  0  0  0  0  0
  188.6050  177.3260  140.1930 N   0  0  0  0  0  2  0  0  0  0  0  0
  190.1110  177.6770  138.3060 C   0  0  0  0  0  2  0  0  0  0  0  0
  189.2980  178.3430  139.4120 C   0  0  1  0  0  3  0  0  0  0  0  0
  188.8110  178.3740  137.9730 C   0  0  1  0  0  0  0  0  0  0  0  0
  188.9820  179.6100  137.3510 O   0  0  0  0  0  1  0  0  0  0  0  0
  187.6200  177.5140  137.5360 C   0  0  2  0  0  0  0  0  0  0  0  0
  186.1640  177.2880  135.4500 C   0  0  0  0  0  2  0  0  0  0  0  0
  185.3640  175.3940  136.7590 C   0  0  0  0  0  2  0  0  0  0  0  0
  186.7330  175.0780  137.3460 C   0  0  0  0  0  2  0  0  0  0  0  0
  187.8670  176.0890  137.0540 C   0  0  1  0  0  3  0  0  0  0  0  0
  187.5820  177.2160  136.0340 C   0  0  2  0  0  3  0  0  0  0  0  0
  186.3840  177.7760  138.1410 O   0  0  0  0  0  1  0  0  0  0  0  0
  185.5050  175.9270  135.3560 C   0  0  0  0  0  2  0  0  0  0  0  0
  189.3210  176.6190  142.3580 N   0  0  0  0  0  2  0  0  0  0  0  0
  190.9360  178.9660  144.3770 S   0  0  0  0  0  0  0  0  0  0  0  0
  191.5210  175.0310  144.0070 C   0  0  0  0  0  3  0  0  0  0  0  0
  190.9120  178.4510  142.6180 C   0  0  0  0  0  2  0  0  0  0  0  0
  191.3670  177.3020  144.8130 C   0  0  0  0  0  0  0  0  0  0  0  0
  191.8310  176.9140  146.0700 C   0  0  0  0  0  3  0  0  0  0  0  0
  191.2180  176.3790  143.7990 C   0  0  0  0  0  0  0  0  0  0  0  0
  192.1370  175.5630  146.2960 C   0  0  0  0  0  3  0  0  0  0  0  0
  191.9820  174.6230  145.2650 C   0  0  0  0  0  3  0  0  0  0  0  0
  190.7320  176.9340  142.5160 C   0  0  1  0  0  3  0  0  0  0  0  0
  1 12  1  6  0  0  0
  1  5  1  0  0  0  0
  1 25  1  0  0  0  0
  3  2  2  0  0  0  0
  4  7  2  0  0  0  0
  5  6  1  0  0  0  0
  6  8  2  0  0  0  0
  6  4  1  0  0  0  0
  7  2  1  0  0  0  0
  8  3  1  0  0  0  0
  9 10  2  0  0  0  0
 10  8  1  0  0  0  0
 11  9  1  0  0  0  0
 11  5  2  0  0  0  0
 13 14  1  0  0  0  0
 14 12  1  1  0  0  0
 15 16  1  6  0  0  0
 15 13  1  0  0  0  0
 15 14  1  0  0  0  0
 17 15  1  0  0  0  0
 17 23  1  1  0  0  0
 19 20  1  0  0  0  0
 21 20  1  1  0  0  0
 21 17  1  0  0  0  0
 22 18  1  1  0  0  0
 22 21  1  0  0  0  0
 22 17  1  0  0  0  0
 24 18  1  0  0  0  0
 24 19  1  0  0  0  0
 26 29  1  0  0  0  0
 27 33  1  0  0  0  0
 28 26  1  0  0  0  0
 29 30  2  0  0  0  0
 30 32  1  0  0  0  0
 31 27  2  0  0  0  0
 31 29  1  0  0  0  0
 33 32  2  0  0  0  0
 34 25  1  1  0  0  0
 34 28  1  0  0  0  0
 34 31  1  0  0  0  0
M  END
>  <MODEL>
3

>  <REMARK>
 VINA RESULT:      -8.7      2.354      5.483
  Name = 
  6 active torsions:
  status: ('A' for Active; 'I' for Inactive)
    1  A    between atoms: C_3  and  C_22
    2  A    between atoms: C_7  and  C_18
    3  A    between atoms: N_17  and  C_18
    4  A    between atoms: N_17  and  C_20
    5  A    between atoms: C_18  and  N_19
    6  A    between atoms: N_19  and  C_32
                            x       y       z     vdW  Elec       q    Type
                         _______ _______ _______ _____ _____    ______ ____

>  <TORSDO>
F 6

$$$$
=
 OpenBabel10222421313D

 34 40  0  0  1  0  0  0  0  0999 V2000
  187.5060  177.8170  139.8340 C   0  0  2  0  0  3  0  0  0  0  0  0
  186.0120  175.5470  135.4390 C   0  0  0  0  0  3  0  0  0  0  0  0
  187.0970  176.3530  135.0920 C   0  0  0  0  0  3  0  0  0  0  0  0
  186.2110  176.2550  137.7160 N   0  0  0  0  0  0  0  0  0  0  0  0
  187.9150  177.8300  138.3880 C   0  0  0  0  0  0  0  0  0  0  0  0
  187.2700  177.0550  137.4050 C   0  0  0  0  0  0  0  0  0  0  0  0
  185.5790  175.5110  136.7680 C   0  0  0  0  0  3  0  0  0  0  0  0
  187.7330  177.1140  136.0720 C   0  0  0  0  0  0  0  0  0  0  0  0
  189.4220  178.6590  136.6890 C   0  0  0  0  0  3  0  0  0  0  0  0
  188.7890  177.9060  135.7500 N   0  0  0  0  0  0  0  0  0  0  0  0
  188.9960  178.6350  138.0200 C   0  0  0  0  0  3  0  0  0  0  0  0
  186.3850  178.7200  140.0660 N   0  0  0  0  0  2  0  0  0  0  0  0
  185.3050  179.6650  142.0400 C   0  0  0  0  0  2  0  0  0  0  0  0
  185.8170  178.3940  141.3690 C   0  0  1  0  0  3  0  0  0  0  0  0
  184.3280  178.6910  141.4220 C   0  0  1  0  0  0  0  0  0  0  0  0
  183.6380  177.9220  142.3580 O   0  0  0  0  0  1  0  0  0  0  0  0
  183.5750  179.1240  140.1580 C   0  0  2  0  0  0  0  0  0  0  0  0
  183.0750  178.1190  137.8640 C   0  0  0  0  0  2  0  0  0  0  0  0
  181.6910  180.1230  137.7840 C   0  0  0  0  0  2  0  0  0  0  0  0
  181.3250  180.0640  139.2610 C   0  0  0  0  0  2  0  0  0  0  0  0
  182.0560  179.0060  140.1200 C   0  0  1  0  0  3  0  0  0  0  0  0
  182.9360  177.9660  139.3860 C   0  0  2  0  0  3  0  0  0  0  0  0
  184.1550  180.1340  139.3820 O   0  0  0  0  0  1  0  0  0  0  0  0
  181.8460  178.7320  137.2270 C   0  0  0  0  0  2  0  0  0  0  0  0
  188.6300  178.1900  140.6810 N   0  0  0  0  0  2  0  0  0  0  0  0
  191.5980  177.5270  142.3960 S   0  0  0  0  0  0  0  0  0  0  0  0
  187.7950  177.0580  143.5280 C   0  0  0  0  0  3  0  0  0  0  0  0
  190.5900  176.7870  141.0560 C   0  0  0  0  0  2  0  0  0  0  0  0
  190.1800  177.4310  143.4570 C   0  0  0  0  0  0  0  0  0  0  0  0
  190.2190  177.6030  144.8400 C   0  0  0  0  0  3  0  0  0  0  0  0
  188.9910  177.1590  142.8120 C   0  0  0  0  0  0  0  0  0  0  0  0
  189.0260  177.5070  145.5730 C   0  0  0  0  0  3  0  0  0  0  0  0
  187.8160  177.2340  144.9170 C   0  0  0  0  0  3  0  0  0  0  0  0
  189.1000  176.9850  141.3470 C   0  0  1  0  0  3  0  0  0  0  0  0
  1 12  1  6  0  0  0
  1 25  1  0  0  0  0
  2  7  1  0  0  0  0
  3  2  2  0  0  0  0
  3  8  1  0  0  0  0
  5  1  1  0  0  0  0
  6  4  1  0  0  0  0
  6  5  2  0  0  0  0
  7  4  2  0  0  0  0
  8  6  1  0  0  0  0
  9 11  2  0  0  0  0
 10  8  2  0  0  0  0
 10  9  1  0  0  0  0
 11  5  1  0  0  0  0
 14 12  1  6  0  0  0
 14 15  1  0  0  0  0
 14 13  1  0  0  0  0
 15 13  1  0  0  0  0
 15 16  1  1  0  0  0
 17 23  1  6  0  0  0
 17 15  1  0  0  0  0
 19 20  1  0  0  0  0
 21 20  1  6  0  0  0
 21 17  1  0  0  0  0
 22 18  1  6  0  0  0
 22 21  1  0  0  0  0
 22 17  1  0  0  0  0
 24 19  1  0  0  0  0
 24 18  1  0  0  0  0
 26 29  1  0  0  0  0
 27 33  1  0  0  0  0
 28 34  1  0  0  0  0
 28 26  1  0  0  0  0
 29 30  2  0  0  0  0
 30 32  1  0  0  0  0
 31 29  1  0  0  0  0
 31 27  2  0  0  0  0
 33 32  2  0  0  0  0
 34 25  1  6  0  0  0
 34 31  1  0  0  0  0
M  END
>  <MODEL>
4

>  <REMARK>
 VINA RESULT:      -8.7      1.639      2.331
  Name = 
  6 active torsions:
  status: ('A' for Active; 'I' for Inactive)
    1  A    between atoms: C_3  and  C_22
    2  A    between atoms: C_7  and  C_18
    3  A    between atoms: N_17  and  C_18
    4  A    between atoms: N_17  and  C_20
    5  A    between atoms: C_18  and  N_19
    6  A    between atoms: N_19  and  C_32
                            x       y       z     vdW  Elec       q    Type
                         _______ _______ _______ _____ _____    ______ ____

>  <TORSDO>
F 6

$$$$
=
 OpenBabel10222421313D

 34 40  0  0  1  0  0  0  0  0999 V2000
  187.0160  178.4060  142.8140 C   0  0  2  0  0  3  0  0  0  0  0  0
  183.5630  179.2860  139.0710 C   0  0  0  0  0  3  0  0  0  0  0  0
  182.8180  179.1640  140.2450 C   0  0  0  0  0  3  0  0  0  0  0  0
  185.5770  178.9190  140.3090 N   0  0  0  0  0  0  0  0  0  0  0  0
  185.5230  178.5330  142.6940 C   0  0  0  0  0  0  0  0  0  0  0  0
  184.8750  178.7900  141.4700 C   0  0  0  0  0  0  0  0  0  0  0  0
  184.9550  179.1590  139.1230 C   0  0  0  0  0  3  0  0  0  0  0  0
  183.4680  178.9130  141.4520 C   0  0  0  0  0  0  0  0  0  0  0  0
  183.3690  178.5410  143.7920 C   0  0  0  0  0  3  0  0  0  0  0  0
  182.7560  178.7880  142.6030 N   0  0  0  0  0  0  0  0  0  0  0  0
  184.7590  178.4090  143.8560 C   0  0  0  0  0  3  0  0  0  0  0  0
  187.5930  177.8690  141.5870 N   0  0  0  0  0  2  0  0  0  0  0  0
  189.4770  176.3480  141.2820 C   0  0  0  0  0  2  0  0  0  0  0  0
  189.0250  177.7090  141.8050 C   0  0  1  0  0  3  0  0  0  0  0  0
  189.7840  177.6010  140.4930 C   0  0  1  0  0  0  0  0  0  0  0  0
  191.1150  178.0060  140.5820 O   0  0  0  0  0  1  0  0  0  0  0  0
  189.0620  177.8120  139.1570 C   0  0  2  0  0  0  0  0  0  0  0  0
  189.7320  178.0120  136.7010 C   0  0  0  0  0  2  0  0  0  0  0  0
  187.3050  177.9390  136.4960 C   0  0  0  0  0  2  0  0  0  0  0  0
  187.1260  176.9580  137.6480 C   0  0  0  0  0  2  0  0  0  0  0  0
  188.3850  176.6240  138.4820 C   0  0  1  0  0  3  0  0  0  0  0  0
  189.7490  177.1400  137.9650 C   0  0  2  0  0  3  0  0  0  0  0  0
  188.5150  179.0780  138.9170 O   0  0  0  0  0  1  0  0  0  0  0  0
  188.5930  177.6600  135.7660 C   0  0  0  0  0  2  0  0  0  0  0  0
  187.3630  177.5540  143.9420 N   0  0  0  0  0  2  0  0  0  0  0  0
  187.6510  177.1360  147.3970 S   0  0  0  0  0  0  0  0  0  0  0  0
  190.4440  177.8780  144.6370 C   0  0  0  0  0  3  0  0  0  0  0  0
  187.0910  178.4150  146.2090 C   0  0  0  0  0  2  0  0  0  0  0  0
  189.2320  177.1420  146.5910 C   0  0  0  0  0  0  0  0  0  0  0  0
  190.3800  176.5460  147.1110 C   0  0  0  0  0  3  0  0  0  0  0  0
  189.2620  177.7990  145.3790 C   0  0  0  0  0  0  0  0  0  0  0  0
  191.5740  176.6150  146.3770 C   0  0  0  0  0  3  0  0  0  0  0  0
  191.6050  177.2790  145.1420 C   0  0  0  0  0  3  0  0  0  0  0  0
  187.9750  178.3950  144.9580 C   0  0  1  0  0  3  0  0  0  0  0  0
  1 12  1  6  0  0  0
  1 25  1  0  0  0  0
  2  7  2  0  0  0  0
  2  3  1  0  0  0  0
  3  8  2  0  0  0  0
  4  6  2  0  0  0  0
  5  1  1  0  0  0  0
  5 11  2  0  0  0  0
  6  5  1  0  0  0  0
  7  4  1  0  0  0  0
  8  6  1  0  0  0  0
  8 10  1  0  0  0  0
  9 11  1  0  0  0  0
 10  9  2  0  0  0  0
 13 14  1  0  0  0  0
 14 12  1  6  0  0  0
 15 16  1  1  0  0  0
 15 13  1  0  0  0  0
 15 14  1  0  0  0  0
 17 23  1  6  0  0  0
 17 15  1  0  0  0  0
 19 20  1  0  0  0  0
 21 20  1  6  0  0  0
 21 17  1  0  0  0  0
 22 18  1  6  0  0  0
 22 21  1  0  0  0  0
 22 17  1  0  0  0  0
 24 19  1  0  0  0  0
 24 18  1  0  0  0  0
 27 33  2  0  0  0  0
 27 31  1  0  0  0  0
 28 26  1  0  0  0  0
 29 30  1  0  0  0  0
 29 26  1  0  0  0  0
 31 29  2  0  0  0  0
 32 30  2  0  0  0  0
 33 32  1  0  0  0  0
 34 25  1  6  0  0  0
 34 31  1  0  0  0  0
 34 28  1  0  0  0  0
M  END
>  <MODEL>
5

>  <REMARK>
 VINA RESULT:      -8.3      2.088      5.132
  Name = 
  6 active torsions:
  status: ('A' for Active; 'I' for Inactive)
    1  A    between atoms: C_3  and  C_22
    2  A    between atoms: C_7  and  C_18
    3  A    between atoms: N_17  and  C_18
    4  A    between atoms: N_17  and  C_20
    5  A    between atoms: C_18  and  N_19
    6  A    between atoms: N_19  and  C_32
                            x       y       z     vdW  Elec       q    Type
                         _______ _______ _______ _____ _____    ______ ____

>  <TORSDO>
F 6

$$$$
=
 OpenBabel10222421313D

 34 40  0  0  1  0  0  0  0  0999 V2000
  186.3540  178.0730  142.6790 C   0  0  2  0  0  3  0  0  0  0  0  0
  189.7320  178.1520  138.7690 C   0  0  0  0  0  3  0  0  0  0  0  0
  190.2630  177.2610  139.7030 C   0  0  0  0  0  3  0  0  0  0  0  0
  187.8570  178.5410  140.2030 N   0  0  0  0  0  0  0  0  0  0  0  0
  187.6720  177.4340  142.3430 C   0  0  0  0  0  0  0  0  0  0  0  0
  188.3540  177.6800  141.1360 C   0  0  0  0  0  0  0  0  0  0  0  0
  188.5170  178.7890  139.0400 C   0  0  0  0  0  3  0  0  0  0  0  0
  189.5790  177.0200  140.8940 C   0  0  0  0  0  0  0  0  0  0  0  0
  189.4370  175.9100  142.9840 C   0  0  0  0  0  3  0  0  0  0  0  0
  190.0850  176.1580  141.8140 N   0  0  0  0  0  0  0  0  0  0  0  0
  188.2230  176.5430  143.2670 C   0  0  0  0  0  3  0  0  0  0  0  0
  185.9000  177.6640  144.0040 N   0  0  0  0  0  2  0  0  0  0  0  0
  184.5000  178.4130  145.8560 C   0  0  0  0  0  2  0  0  0  0  0  0
  185.3570  178.8420  144.6680 C   0  0  1  0  0  3  0  0  0  0  0  0
  185.8830  178.9790  146.0870 C   0  0  1  0  0  0  0  0  0  0  0  0
  185.8790  180.2900  146.5600 O   0  0  0  0  0  1  0  0  0  0  0  0
  186.9740  178.0350  146.6070 C   0  0  2  0  0  0  0  0  0  0  0  0
  189.4060  177.5170  146.0250 C   0  0  0  0  0  2  0  0  0  0  0  0
  189.1490  176.2160  148.0700 C   0  0  0  0  0  2  0  0  0  0  0  0
  188.2320  177.2340  148.7350 C   0  0  0  0  0  2  0  0  0  0  0  0
  187.7520  178.4170  147.8600 C   0  0  1  0  0  3  0  0  0  0  0  0
  188.3950  178.5860  146.4630 C   0  0  2  0  0  3  0  0  0  0  0  0
  186.8160  176.6690  146.3460 O   0  0  0  0  0  1  0  0  0  0  0  0
  190.1570  176.9130  147.1930 C   0  0  0  0  0  2  0  0  0  0  0  0
  185.3540  177.7260  141.6800 N   0  0  0  0  0  2  0  0  0  0  0  0
  183.2690  178.4550  138.9760 S   0  0  0  0  0  0  0  0  0  0  0  0
  182.6600  178.8810  142.9020 C   0  0  0  0  0  3  0  0  0  0  0  0
  184.7420  179.1630  139.8060 C   0  0  0  0  0  2  0  0  0  0  0  0
  182.4080  178.5430  140.5250 C   0  0  0  0  0  0  0  0  0  0  0  0
  181.0290  178.3890  140.6680 C   0  0  0  0  0  3  0  0  0  0  0  0
  183.2090  178.7890  141.6210 C   0  0  0  0  0  0  0  0  0  0  0  0
  180.4630  178.4760  141.9480 C   0  0  0  0  0  3  0  0  0  0  0  0
  181.2780  178.7220  143.0640 C   0  0  0  0  0  3  0  0  0  0  0  0
  184.6490  178.9460  141.3190 C   0  0  1  0  0  3  0  0  0  0  0  0
  1 25  1  6  0  0  0
  1 12  1  0  0  0  0
  2  7  2  0  0  0  0
  2  3  1  0  0  0  0
  3  8  2  0  0  0  0
  4  6  2  0  0  0  0
  5  1  1  0  0  0  0
  5 11  2  0  0  0  0
  6  5  1  0  0  0  0
  7  4  1  0  0  0  0
  8  6  1  0  0  0  0
  8 10  1  0  0  0  0
  9 11  1  0  0  0  0
 10  9  2  0  0  0  0
 13 15  1  0  0  0  0
 14 12  1  6  0  0  0
 14 13  1  0  0  0  0
 14 15  1  0  0  0  0
 15 16  1  1  0  0  0
 15 17  1  0  0  0  0
 17 23  1  6  0  0  0
 17 21  1  0  0  0  0
 18 24  1  0  0  0  0
 19 20  1  0  0  0  0
 21 20  1  1  0  0  0
 22 18  1  1  0  0  0
 22 17  1  0  0  0  0
 22 21  1  0  0  0  0
 24 19  1  0  0  0  0
 26 28  1  0  0  0  0
 26 29  1  0  0  0  0
 27 33  1  0  0  0  0
 28 34  1  0  0  0  0
 29 30  2  0  0  0  0
 29 31  1  0  0  0  0
 30 32  1  0  0  0  0
 31 27  2  0  0  0  0
 32 33  2  0  0  0  0
 34 31  1  0  0  0  0
 34 25  1  6  0  0  0
M  END
>  <MODEL>
6

>  <REMARK>
 VINA RESULT:      -8.2      2.662      6.591
  Name = 
  6 active torsions:
  status: ('A' for Active; 'I' for Inactive)
    1  A    between atoms: C_3  and  C_22
    2  A    between atoms: C_7  and  C_18
    3  A    between atoms: N_17  and  C_18
    4  A    between atoms: N_17  and  C_20
    5  A    between atoms: C_18  and  N_19
    6  A    between atoms: N_19  and  C_32
                            x       y       z     vdW  Elec       q    Type
                         _______ _______ _______ _____ _____    ______ ____

>  <TORSDO>
F 6

$$$$
=
 OpenBabel10222421313D

 34 40  0  0  1  0  0  0  0  0999 V2000
  183.2210  178.6930  139.0760 C   0  0  2  0  0  3  0  0  0  0  0  0
  181.9490  178.8200  144.0830 C   0  0  0  0  0  3  0  0  0  0  0  0
  183.3420  178.9070  144.0490 C   0  0  0  0  0  3  0  0  0  0  0  0
  181.8960  178.7140  141.6930 N   0  0  0  0  0  0  0  0  0  0  0  0
  183.9340  178.7750  140.3960 C   0  0  0  0  0  0  0  0  0  0  0  0
  183.2550  178.7930  141.6300 C   0  0  0  0  0  0  0  0  0  0  0  0
  181.2370  178.7220  142.8830 C   0  0  0  0  0  3  0  0  0  0  0  0
  184.0050  178.8930  142.8230 C   0  0  0  0  0  0  0  0  0  0  0  0
  186.0290  178.9590  141.5890 C   0  0  0  0  0  3  0  0  0  0  0  0
  185.3610  178.9740  142.7740 N   0  0  0  0  0  0  0  0  0  0  0  0
  185.3280  178.8590  140.3840 C   0  0  0  0  0  3  0  0  0  0  0  0
  184.0740  178.0830  138.0610 N   0  0  0  0  0  2  0  0  0  0  0  0
  183.3930  176.2850  136.5590 C   0  0  0  0  0  2  0  0  0  0  0  0
  183.7400  176.6660  137.9950 C   0  0  1  0  0  3  0  0  0  0  0  0
  184.7320  175.8940  137.1420 C   0  0  1  0  0  0  0  0  0  0  0  0
  184.8240  174.5440  137.4760 O   0  0  0  0  0  1  0  0  0  0  0  0
  185.9890  176.5830  136.5960 C   0  0  2  0  0  0  0  0  0  0  0  0
  187.6300  178.3600  137.4120 C   0  0  0  0  0  2  0  0  0  0  0  0
  188.7430  177.6300  135.3700 C   0  0  0  0  0  2  0  0  0  0  0  0
  188.3230  176.1740  135.5300 C   0  0  0  0  0  2  0  0  0  0  0  0
  187.3270  175.8560  136.6700 C   0  0  1  0  0  3  0  0  0  0  0  0
  186.9980  176.9860  137.6740 C   0  0  2  0  0  3  0  0  0  0  0  0
  185.8150  177.4930  135.5460 O   0  0  0  0  0  1  0  0  0  0  0  0
  188.9740  178.2590  136.7200 C   0  0  0  0  0  2  0  0  0  0  0  0
  182.8010  180.0180  138.6430 N   0  0  0  0  0  2  0  0  0  0  0  0
  180.4970  182.5700  138.0360 S   0  0  0  0  0  0  0  0  0  0  0  0
  181.2330  179.2100  136.0030 C   0  0  0  0  0  3  0  0  0  0  0  0
  180.6980  181.1390  139.1640 C   0  0  0  0  0  2  0  0  0  0  0  0
  180.6320  181.4530  136.6640 C   0  0  0  0  0  0  0  0  0  0  0  0
  180.3140  181.7840  135.3480 C   0  0  0  0  0  3  0  0  0  0  0  0
  181.0790  180.1890  136.9880 C   0  0  0  0  0  0  0  0  0  0  0  0
  180.4650  180.8120  134.3460 C   0  0  0  0  0  3  0  0  0  0  0  0
  180.9240  179.5280  134.6740 C   0  0  0  0  0  3  0  0  0  0  0  0
  181.3640  179.9750  138.4240 C   0  0  1  0  0  3  0  0  0  0  0  0
  1 12  1  6  0  0  0
  1  5  1  0  0  0  0
  3  2  1  0  0  0  0
  4  7  1  0  0  0  0
  5  6  1  0  0  0  0
  6  4  2  0  0  0  0
  6  8  1  0  0  0  0
  7  2  2  0  0  0  0
  8  3  2  0  0  0  0
  9 10  2  0  0  0  0
 10  8  1  0  0  0  0
 11  5  2  0  0  0  0
 11  9  1  0  0  0  0
 13 15  1  0  0  0  0
 13 14  1  0  0  0  0
 14 12  1  6  0  0  0
 15 16  1  1  0  0  0
 15 14  1  0  0  0  0
 17 23  1  6  0  0  0
 17 21  1  0  0  0  0
 17 15  1  0  0  0  0
 17 22  1  0  0  0  0
 19 20  1  0  0  0  0
 19 24  1  0  0  0  0
 21 20  1  6  0  0  0
 21 22  1  0  0  0  0
 22 18  1  6  0  0  0
 24 18  1  0  0  0  0
 25  1  1  0  0  0  0
 26 28  1  0  0  0  0
 27 31  1  0  0  0  0
 29 31  2  0  0  0  0
 29 26  1  0  0  0  0
 30 29  1  0  0  0  0
 31 34  1  0  0  0  0
 32 33  1  0  0  0  0
 32 30  2  0  0  0  0
 33 27  2  0  0  0  0
 34 25  1  6  0  0  0
 34 28  1  0  0  0  0
M  END
>  <MODEL>
7

>  <REMARK>
 VINA RESULT:      -8.1      4.327      8.746
  Name = 
  6 active torsions:
  status: ('A' for Active; 'I' for Inactive)
    1  A    between atoms: C_3  and  C_22
    2  A    between atoms: C_7  and  C_18
    3  A    between atoms: N_17  and  C_18
    4  A    between atoms: N_17  and  C_20
    5  A    between atoms: C_18  and  N_19
    6  A    between atoms: N_19  and  C_32
                            x       y       z     vdW  Elec       q    Type
                         _______ _______ _______ _____ _____    ______ ____

>  <TORSDO>
F 6

$$$$
=
 OpenBabel10222421313D

 34 40  0  0  1  0  0  0  0  0999 V2000
  184.4830  179.1160  139.8240 C   0  0  2  0  0  3  0  0  0  0  0  0
  180.5690  182.1370  138.3220 C   0  0  0  0  0  3  0  0  0  0  0  0
  179.9820  181.0960  139.0430 C   0  0  0  0  0  3  0  0  0  0  0  0
  182.7300  181.1810  138.6980 N   0  0  0  0  0  0  0  0  0  0  0  0
  182.9860  179.1310  139.9510 C   0  0  0  0  0  0  0  0  0  0  0  0
  182.1840  180.1500  139.4020 C   0  0  0  0  0  0  0  0  0  0  0  0
  181.9570  182.1620  138.1580 C   0  0  0  0  0  3  0  0  0  0  0  0
  180.7840  180.0950  139.5870 C   0  0  0  0  0  0  0  0  0  0  0  0
  180.9900  178.0830  140.8250 C   0  0  0  0  0  3  0  0  0  0  0  0
  180.2270  179.0730  140.2890 N   0  0  0  0  0  0  0  0  0  0  0  0
  182.3790  178.0950  140.6650 C   0  0  0  0  0  3  0  0  0  0  0  0
  184.8880  178.7120  138.4820 N   0  0  0  0  0  2  0  0  0  0  0  0
  183.8860  177.3900  136.6920 C   0  0  0  0  0  2  0  0  0  0  0  0
  184.2210  177.4520  138.1800 C   0  0  1  0  0  3  0  0  0  0  0  0
  185.0470  176.5910  137.2390 C   0  0  1  0  0  0  0  0  0  0  0  0
  184.7840  175.2270  137.3520 O   0  0  0  0  0  1  0  0  0  0  0  0
  186.4680  177.0140  136.8430 C   0  0  2  0  0  0  0  0  0  0  0  0
  188.3890  178.2970  137.9300 C   0  0  0  0  0  2  0  0  0  0  0  0
  189.4790  177.4950  135.9030 C   0  0  0  0  0  2  0  0  0  0  0  0
  188.7340  176.1660  135.8950 C   0  0  0  0  0  2  0  0  0  0  0  0
  187.5990  175.9970  136.9320 C   0  0  1  0  0  3  0  0  0  0  0  0
  187.4460  177.0880  138.0180 C   0  0  2  0  0  3  0  0  0  0  0  0
  186.5900  178.0200  135.8760 O   0  0  0  0  0  1  0  0  0  0  0  0
  189.7290  177.9460  137.3190 C   0  0  0  0  0  2  0  0  0  0  0  0
  185.0670  178.2190  140.8110 N   0  0  0  0  0  2  0  0  0  0  0  0
  185.2270  178.4070  144.2940 S   0  0  0  0  0  0  0  0  0  0  0  0
  188.1010  177.7250  141.6030 C   0  0  0  0  0  3  0  0  0  0  0  0
  185.0820  179.5410  142.8610 C   0  0  0  0  0  2  0  0  0  0  0  0
  186.7300  177.7800  143.5890 C   0  0  0  0  0  0  0  0  0  0  0  0
  187.6430  176.9780  144.2720 C   0  0  0  0  0  3  0  0  0  0  0  0
  186.9560  178.1510  142.2800 C   0  0  0  0  0  0  0  0  0  0  0  0
  188.7980  176.5400  143.6050 C   0  0  0  0  0  3  0  0  0  0  0  0
  189.0260  176.9140  142.2720 C   0  0  0  0  0  3  0  0  0  0  0  0
  185.9120  179.0150  141.6860 C   0  0  1  0  0  3  0  0  0  0  0  0
  1 12  1  6  0  0  0
  1  5  1  0  0  0  0
  1 25  1  0  0  0  0
  2  3  1  0  0  0  0
  3  8  2  0  0  0  0
  4  6  2  0  0  0  0
  5 11  2  0  0  0  0
  6  8  1  0  0  0  0
  6  5  1  0  0  0  0
  7  2  2  0  0  0  0
  7  4  1  0  0  0  0
  8 10  1  0  0  0  0
 10  9  2  0  0  0  0
 11  9  1  0  0  0  0
 13 15  1  0  0  0  0
 13 14  1  0  0  0  0
 14 12  1  6  0  0  0
 15 16  1  1  0  0  0
 15 14  1  0  0  0  0
 17 23  1  6  0  0  0
 17 21  1  0  0  0  0
 17 15  1  0  0  0  0
 17 22  1  0  0  0  0
 19 24  1  0  0  0  0
 20 19  1  0  0  0  0
 21 20  1  6  0  0  0
 21 22  1  0  0  0  0
 22 18  1  6  0  0  0
 24 18  1  0  0  0  0
 27 33  2  0  0  0  0
 27 31  1  0  0  0  0
 28 26  1  0  0  0  0
 29 30  1  0  0  0  0
 29 26  1  0  0  0  0
 31 29  2  0  0  0  0
 32 30  2  0  0  0  0
 33 32  1  0  0  0  0
 34 25  1  6  0  0  0
 34 31  1  0  0  0  0
 34 28  1  0  0  0  0
M  END
>  <MODEL>
8

>  <REMARK>
 VINA RESULT:      -8.1      2.718      6.384
  Name = 
  6 active torsions:
  status: ('A' for Active; 'I' for Inactive)
    1  A    between atoms: C_3  and  C_22
    2  A    between atoms: C_7  and  C_18
    3  A    between atoms: N_17  and  C_18
    4  A    between atoms: N_17  and  C_20
    5  A    between atoms: C_18  and  N_19
    6  A    between atoms: N_19  and  C_32
                            x       y       z     vdW  Elec       q    Type
                         _______ _______ _______ _____ _____    ______ ____

>  <TORSDO>
F 6

$$$$
=
 OpenBabel10222421313D

 34 40  0  0  1  0  0  0  0  0999 V2000
  189.7980  176.4600  140.2170 C   0  0  2  0  0  3  0  0  0  0  0  0
  192.5590  174.1510  136.5090 C   0  0  0  0  0  3  0  0  0  0  0  0
  193.4070  175.1100  137.0630 C   0  0  0  0  0  3  0  0  0  0  0  0
  190.8260  174.8050  138.0240 N   0  0  0  0  0  0  0  0  0  0  0  0
  191.1750  176.5780  139.6280 C   0  0  0  0  0  0  0  0  0  0  0  0
  191.6310  175.7530  138.5810 C   0  0  0  0  0  0  0  0  0  0  0  0
  191.2590  174.0120  137.0060 C   0  0  0  0  0  3  0  0  0  0  0  0
  192.9490  175.9190  138.1020 C   0  0  0  0  0  0  0  0  0  0  0  0
  193.3360  177.6620  139.6620 C   0  0  0  0  0  3  0  0  0  0  0  0
  193.7630  176.8600  138.6500 N   0  0  0  0  0  0  0  0  0  0  0  0
  192.0390  177.5350  140.1660 C   0  0  0  0  0  3  0  0  0  0  0  0
  188.7860  176.9070  139.2650 N   0  0  0  0  0  2  0  0  0  0  0  0
  189.7410  177.9520  137.2780 C   0  0  0  0  0  2  0  0  0  0  0  0
  189.2370  178.1730  138.7010 C   0  0  1  0  0  3  0  0  0  0  0  0
  188.3910  178.5910  137.5110 C   0  0  1  0  0  0  0  0  0  0  0  0
  188.3760  179.9670  137.2900 O   0  0  0  0  0  1  0  0  0  0  0  0
  187.1370  177.7930  137.1290 C   0  0  2  0  0  0  0  0  0  0  0  0
  185.5750  177.6510  135.1140 C   0  0  0  0  0  2  0  0  0  0  0  0
  184.7430  175.7940  136.4550 C   0  0  0  0  0  2  0  0  0  0  0  0
  186.1210  175.4070  136.9750 C   0  0  0  0  0  2  0  0  0  0  0  0
  187.2900  176.3600  136.6330 C   0  0  1  0  0  3  0  0  0  0  0  0
  187.0140  177.5060  135.6300 C   0  0  2  0  0  3  0  0  0  0  0  0
  185.9470  178.1140  137.7930 O   0  0  0  0  0  1  0  0  0  0  0  0
  184.8440  176.3260  135.0490 C   0  0  0  0  0  2  0  0  0  0  0  0
  189.7030  177.2370  141.4440 N   0  0  0  0  0  2  0  0  0  0  0  0
  191.1500  177.2250  144.6220 S   0  0  0  0  0  0  0  0  0  0  0  0
  187.3180  176.9610  143.5210 C   0  0  0  0  0  3  0  0  0  0  0  0
  190.9410  176.0840  143.2020 C   0  0  0  0  0  2  0  0  0  0  0  0
  189.3850  177.3900  144.6930 C   0  0  0  0  0  0  0  0  0  0  0  0
  188.6920  177.9630  145.7590 C   0  0  0  0  0  3  0  0  0  0  0  0
  188.7110  176.8940  143.5970 C   0  0  0  0  0  0  0  0  0  0  0  0
  187.2920  178.0400  145.6970 C   0  0  0  0  0  3  0  0  0  0  0  0
  186.6060  177.5400  144.5800 C   0  0  0  0  0  3  0  0  0  0  0  0
  189.5730  176.3010  142.5500 C   0  0  1  0  0  3  0  0  0  0  0  0
  1 12  1  6  0  0  0
  1 25  1  0  0  0  0
  2  7  2  0  0  0  0
  2  3  1  0  0  0  0
  3  8  2  0  0  0  0
  4  6  2  0  0  0  0
  5 11  2  0  0  0  0
  5  1  1  0  0  0  0
  6  5  1  0  0  0  0
  7  4  1  0  0  0  0
  8  6  1  0  0  0  0
  8 10  1  0  0  0  0
  9 11  1  0  0  0  0
 10  9  2  0  0  0  0
 13 15  1  0  0  0  0
 13 14  1  0  0  0  0
 14 12  1  6  0  0  0
 15 16  1  6  0  0  0
 15 14  1  0  0  0  0
 17 15  1  0  0  0  0
 17 23  1  1  0  0  0
 19 20  1  0  0  0  0
 21 20  1  1  0  0  0
 21 17  1  0  0  0  0
 22 18  1  1  0  0  0
 22 21  1  0  0  0  0
 22 17  1  0  0  0  0
 24 18  1  0  0  0  0
 24 19  1  0  0  0  0
 26 29  1  0  0  0  0
 27 31  2  0  0  0  0
 27 33  1  0  0  0  0
 28 26  1  0  0  0  0
 29 30  2  0  0  0  0
 31 29  1  0  0  0  0
 32 30  1  0  0  0  0
 33 32  2  0  0  0  0
 34 25  1  6  0  0  0
 34 28  1  0  0  0  0
 34 31  1  0  0  0  0
M  END
>  <MODEL>
9

>  <REMARK>
 VINA RESULT:      -8.1      2.799      4.348
  Name = 
  6 active torsions:
  status: ('A' for Active; 'I' for Inactive)
    1  A    between atoms: C_3  and  C_22
    2  A    between atoms: C_7  and  C_18
    3  A    between atoms: N_17  and  C_18
    4  A    between atoms: N_17  and  C_20
    5  A    between atoms: C_18  and  N_19
    6  A    between atoms: N_19  and  C_32
                            x       y       z     vdW  Elec       q    Type
                         _______ _______ _______ _____ _____    ______ ____

>  <TORSDO>
F 6

$$$$
