=
 OpenBabel10232410573D

 42 46  0  0  1  0  0  0  0  0999 V2000
  185.6250  178.5070  145.8320 C   0  0  0  0  0  0  0  0  0  0  0  0
  190.2900  177.4910  146.9200 C   0  0  0  0  0  2  0  0  0  0  0  0
  184.8540  178.4990  144.6720 C   0  0  0  0  0  0  0  0  0  0  0  0
  187.2190  177.8100  144.2770 C   0  0  0  0  0  0  0  0  0  0  0  0
  187.9560  178.0430  146.5840 C   0  0  0  0  0  3  0  0  0  0  0  0
  189.4920  177.3170  144.8340 C   0  0  0  0  0  0  0  0  0  0  0  0
  189.2240  177.6340  146.1570 C   0  0  0  0  0  0  0  0  0  0  0  0
  185.8130  178.0030  143.3690 S   0  0  0  0  0  0  0  0  0  0  0  0
  185.1240  178.8570  147.0810 O   0  0  0  0  0  1  0  0  0  0  0  0
  191.4150  177.0310  146.0390 C   0  0  2  0  0  3  0  0  0  0  0  0
  186.9510  178.1260  145.6110 C   0  0  0  0  0  0  0  0  0  0  0  0
  188.4880  177.3980  143.8410 C   0  0  0  0  0  0  0  0  0  0  0  0
  190.7560  176.9530  144.6920 C   0  0  0  0  0  2  0  0  0  0  0  0
  191.9230  175.6810  146.4600 C   0  0  0  0  0  0  0  0  0  0  0  0
  192.2330  174.8210  145.5920 O   0  0  0  0  0  0  0  0  0  0  0  0
  193.0490  175.9880  148.5740 N   0  0  0  0  0  1  0  0  0  0  0  0
  192.0850  175.3710  147.8090 O   0  0  0  0  0  0  0  0  0  0  0  0
  188.6980  177.0810  142.4570 N   0  0  0  0  0  2  0  0  0  0  0  0
  189.2000  178.0100  141.4540 C   0  0  0  0  0  2  0  0  0  0  0  0
  188.8170  177.5310  140.0660 C   0  0  0  0  0  2  0  0  0  0  0  0
  190.0190  177.5830  139.1360 C   0  0  0  0  0  2  0  0  0  0  0  0
  189.9960  176.4030  138.1800 C   0  0  0  0  0  2  0  0  0  0  0  0
  190.2470  176.8700  136.7580 C   0  0  0  0  0  2  0  0  0  0  0  0
  189.0950  177.7450  136.3030 C   0  0  0  0  0  2  0  0  0  0  0  0
  186.7000  177.4460  136.8880 C   0  0  0  0  0  0  0  0  0  0  0  0
  186.7010  178.7050  137.4830 O   0  0  0  0  0  1  0  0  0  0  0  0
  187.8170  176.9720  136.3310 C   0  0  0  0  0  3  0  0  0  0  0  0
  185.4590  176.6440  136.8790 C   0  0  0  0  0  0  0  0  0  0  0  0
  183.0570  175.2420  137.5130 C   0  0  0  0  0  2  0  0  0  0  0  0
  183.0100  176.4440  136.5660 C   0  0  0  0  0  2  0  0  0  0  0  0
  184.3620  174.5070  137.3670 C   0  0  0  0  0  3  0  0  0  0  0  0
  185.4900  175.1790  137.1100 C   0  0  0  0  0  3  0  0  0  0  0  0
  184.2800  177.2470  136.6670 C   0  0  0  0  0  3  0  0  0  0  0  0
  183.4000  178.8240  144.5920 C   0  0  0  0  0  2  0  0  0  0  0  0
  182.9520  178.9390  143.1440 C   0  0  0  0  0  2  0  0  0  0  0  0
  181.4350  178.9070  143.0630 C   0  0  0  0  0  2  0  0  0  0  0  0
  180.9810  178.4580  141.6820 C   0  0  0  0  0  2  0  0  0  0  0  0
  181.2880  179.5070  140.6180 C   0  0  0  0  0  2  0  0  0  0  0  0
  182.9050  177.9450  139.8930 O   0  0  0  0  0  0  0  0  0  0  0  0
  183.3240  179.3090  139.4380 C   0  0  0  0  0  0  0  0  0  0  0  0
  184.2060  180.1810  139.2300 O   0  0  0  0  0  0  0  0  0  0  0  0
  182.0150  178.8810  139.4390 C   0  0  2  0  0  3  0  0  0  0  0  0
  1  9  1  0  0  0  0
  3  1  2  0  0  0  0
  4 11  1  0  0  0  0
  6  7  2  0  0  0  0
  7  5  1  0  0  0  0
  7  2  1  0  0  0  0
  8  4  1  0  0  0  0
  8  3  1  0  0  0  0
 10 14  1  1  0  0  0
 10  2  1  0  0  0  0
 11  1  1  0  0  0  0
 11  5  2  0  0  0  0
 12  4  2  0  0  0  0
 12  6  1  0  0  0  0
 13  6  1  0  0  0  0
 13 10  1  0  0  0  0
 14 17  1  0  0  0  0
 15 14  2  0  0  0  0
 17 16  1  0  0  0  0
 18 12  1  0  0  0  0
 19 18  1  0  0  0  0
 20 19  1  0  0  0  0
 21 20  1  0  0  0  0
 22 21  1  0  0  0  0
 23 22  1  0  0  0  0
 24 27  1  0  0  0  0
 24 23  1  0  0  0  0
 25 26  1  0  0  0  0
 27 25  2  0  0  0  0
 28 25  1  0  0  0  0
 28 32  1  0  0  0  0
 30 33  1  0  0  0  0
 30 29  1  0  0  0  0
 31 29  1  0  0  0  0
 32 31  2  0  0  0  0
 33 28  2  0  0  0  0
 34  3  1  0  0  0  0
 35 34  1  0  0  0  0
 36 35  1  0  0  0  0
 37 36  1  0  0  0  0
 38 37  1  0  0  0  0
 40 42  1  0  0  0  0
 40 39  1  0  0  0  0
 41 40  2  0  0  0  0
 42 39  1  0  0  0  0
 42 38  1  1  0  0  0
M  END
>  <MODEL>
1

>  <REMARK>
 VINA RESULT:      -8.0      0.000      0.000
  Name = 
  17 active torsions:
  status: ('A' for Active; 'I' for Inactive)
    1  A    between atoms: C_1  and  C_5
    2  A    between atoms: C_1  and  C_33
    3  A    between atoms: C_4  and  C_7
    4  A    between atoms: C_5  and  C_6
    5  A    between atoms: C_6  and  C_21
    6  A    between atoms: C_8  and  C_33
    7  A    between atoms: C_8  and  C_41
    8  A    between atoms: C_14  and  C_24
    9  A    between atoms: C_16  and  C_36
   10  A    between atoms: C_16  and  O_37
   11  A    between atoms: C_17  and  C_24
   12  A    between atoms: C_17  and  C_38
   13  A    between atoms: C_21  and  N_28
   14  A    between atoms: C_22  and  C_27
   15  A    between atoms: C_27  and  C_31
   16  A    between atoms: N_28  and  C_40
   17  A    between atoms: C_31  and  C_38
                            x       y       z     vdW  Elec       q    Type
                         _______ _______ _______ _____ _____    ______ ____

>  <TORSDO>
F 17

$$$$
=
 OpenBabel10232410573D

 42 46  0  0  1  0  0  0  0  0999 V2000
  190.4820  177.4180  141.4770 C   0  0  0  0  0  0  0  0  0  0  0  0
  191.9050  175.9560  145.9280 C   0  0  0  0  0  2  0  0  0  0  0  0
  189.3530  178.0460  140.9540 C   0  0  0  0  0  0  0  0  0  0  0  0
  189.2130  177.6800  143.4170 C   0  0  0  0  0  0  0  0  0  0  0  0
  191.3810  176.6000  143.6530 C   0  0  0  0  0  3  0  0  0  0  0  0
  189.9320  176.9580  145.5810 C   0  0  0  0  0  0  0  0  0  0  0  0
  191.1100  176.4890  145.0210 C   0  0  0  0  0  0  0  0  0  0  0  0
  188.2580  178.3570  142.2060 S   0  0  0  0  0  0  0  0  0  0  0  0
  191.5750  177.0420  140.7040 O   0  0  0  0  0  1  0  0  0  0  0  0
  191.2080  176.0610  147.2540 C   0  0  2  0  0  3  0  0  0  0  0  0
  190.4020  177.2080  142.8560 C   0  0  0  0  0  0  0  0  0  0  0  0
  188.9340  177.5730  144.7890 C   0  0  0  0  0  0  0  0  0  0  0  0
  189.9220  176.7430  146.8870 C   0  0  0  0  0  2  0  0  0  0  0  0
  191.9950  176.8980  148.2200 C   0  0  0  0  0  0  0  0  0  0  0  0
  191.5610  178.0230  148.5850 O   0  0  0  0  0  0  0  0  0  0  0  0
  193.8830  177.1480  149.7060 N   0  0  0  0  0  1  0  0  0  0  0  0
  193.1980  176.4330  148.7490 O   0  0  0  0  0  0  0  0  0  0  0  0
  187.6960  178.0820  145.3060 N   0  0  0  0  0  2  0  0  0  0  0  0
  186.8050  177.3600  146.2040 C   0  0  0  0  0  2  0  0  0  0  0  0
  185.4820  178.0950  146.3230 C   0  0  0  0  0  2  0  0  0  0  0  0
  185.1620  178.8230  145.0280 C   0  0  0  0  0  2  0  0  0  0  0  0
  183.6770  179.1390  144.9560 C   0  0  0  0  0  2  0  0  0  0  0  0
  183.1100  178.7070  143.6170 C   0  0  0  0  0  2  0  0  0  0  0  0
  184.2010  178.7570  142.5650 C   0  0  0  0  0  2  0  0  0  0  0  0
  184.1820  178.6250  140.0850 C   0  0  0  0  0  0  0  0  0  0  0  0
  185.2100  179.5630  140.0390 O   0  0  0  0  0  1  0  0  0  0  0  0
  183.6880  178.2350  141.2630 C   0  0  0  0  0  3  0  0  0  0  0  0
  183.6450  178.0690  138.8250 C   0  0  0  0  0  0  0  0  0  0  0  0
  182.9740  177.4800  136.1170 C   0  0  0  0  0  2  0  0  0  0  0  0
  183.7530  176.4580  136.9480 C   0  0  0  0  0  2  0  0  0  0  0  0
  182.0300  178.2610  136.9910 C   0  0  0  0  0  3  0  0  0  0  0  0
  182.3720  178.5670  138.2470 C   0  0  0  0  0  3  0  0  0  0  0  0
  184.3190  177.1020  138.1850 C   0  0  0  0  0  3  0  0  0  0  0  0
  189.1570  178.4330  139.5270 C   0  0  0  0  0  2  0  0  0  0  0  0
  188.0950  177.5650  138.8740 C   0  0  0  0  0  2  0  0  0  0  0  0
  187.7560  178.1040  137.4930 C   0  0  0  0  0  2  0  0  0  0  0  0
  188.9480  177.9670  136.5560 C   0  0  0  0  0  2  0  0  0  0  0  0
  188.9330  176.6360  135.8140 C   0  0  0  0  0  2  0  0  0  0  0  0
  190.1660  174.6260  135.6610 O   0  0  0  0  0  0  0  0  0  0  0  0
  190.3890  175.2200  137.0190 C   0  0  0  0  0  0  0  0  0  0  0  0
  190.5340  175.1070  138.2620 O   0  0  0  0  0  0  0  0  0  0  0  0
  190.2990  175.9730  135.8690 C   0  0  2  0  0  3  0  0  0  0  0  0
  1 11  1  0  0  0  0
  2 10  1  0  0  0  0
  3  1  2  0  0  0  0
  3  8  1  0  0  0  0
  4 12  1  0  0  0  0
  5  7  2  0  0  0  0
  6 13  1  0  0  0  0
  7  6  1  0  0  0  0
  7  2  1  0  0  0  0
  8  4  1  0  0  0  0
  9  1  1  0  0  0  0
 10 14  1  1  0  0  0
 11  4  2  0  0  0  0
 11  5  1  0  0  0  0
 12 18  1  0  0  0  0
 12  6  2  0  0  0  0
 13 10  1  0  0  0  0
 14 15  2  0  0  0  0
 14 17  1  0  0  0  0
 17 16  1  0  0  0  0
 18 19  1  0  0  0  0
 19 20  1  0  0  0  0
 21 20  1  0  0  0  0
 22 21  1  0  0  0  0
 23 22  1  0  0  0  0
 24 23  1  0  0  0  0
 25 27  2  0  0  0  0
 26 25  1  0  0  0  0
 27 24  1  0  0  0  0
 28 25  1  0  0  0  0
 29 30  1  0  0  0  0
 29 31  1  0  0  0  0
 30 33  1  0  0  0  0
 31 32  2  0  0  0  0
 32 28  1  0  0  0  0
 33 28  2  0  0  0  0
 34  3  1  0  0  0  0
 35 34  1  0  0  0  0
 36 35  1  0  0  0  0
 37 36  1  0  0  0  0
 38 37  1  0  0  0  0
 39 42  1  0  0  0  0
 39 40  1  0  0  0  0
 40 41  2  0  0  0  0
 42 38  1  1  0  0  0
 42 40  1  0  0  0  0
M  END
>  <MODEL>
2

>  <REMARK>
 VINA RESULT:      -7.7      2.038      5.934
  Name = 
  17 active torsions:
  status: ('A' for Active; 'I' for Inactive)
    1  A    between atoms: C_1  and  C_5
    2  A    between atoms: C_1  and  C_33
    3  A    between atoms: C_4  and  C_7
    4  A    between atoms: C_5  and  C_6
    5  A    between atoms: C_6  and  C_21
    6  A    between atoms: C_8  and  C_33
    7  A    between atoms: C_8  and  C_41
    8  A    between atoms: C_14  and  C_24
    9  A    between atoms: C_16  and  C_36
   10  A    between atoms: C_16  and  O_37
   11  A    between atoms: C_17  and  C_24
   12  A    between atoms: C_17  and  C_38
   13  A    between atoms: C_21  and  N_28
   14  A    between atoms: C_22  and  C_27
   15  A    between atoms: C_27  and  C_31
   16  A    between atoms: N_28  and  C_40
   17  A    between atoms: C_31  and  C_38
                            x       y       z     vdW  Elec       q    Type
                         _______ _______ _______ _____ _____    ______ ____

>  <TORSDO>
F 17

$$$$
=
 OpenBabel10232410573D

 42 46  0  0  1  0  0  0  0  0999 V2000
  185.4480  178.4380  145.6650 C   0  0  0  0  0  0  0  0  0  0  0  0
  190.1050  177.5450  146.8870 C   0  0  0  0  0  2  0  0  0  0  0  0
  184.7230  178.4630  144.4760 C   0  0  0  0  0  0  0  0  0  0  0  0
  187.1280  177.8900  144.1420 C   0  0  0  0  0  0  0  0  0  0  0  0
  187.7650  178.0240  146.4860 C   0  0  0  0  0  3  0  0  0  0  0  0
  189.3960  177.4560  144.7640 C   0  0  0  0  0  0  0  0  0  0  0  0
  189.0650  177.6880  146.0890 C   0  0  0  0  0  0  0  0  0  0  0  0
  185.7510  178.0780  143.1890 S   0  0  0  0  0  0  0  0  0  0  0  0
  184.8850  178.6980  146.9100 O   0  0  0  0  0  1  0  0  0  0  0  0
  191.2820  177.1780  146.0280 C   0  0  2  0  0  3  0  0  0  0  0  0
  186.7960  178.1210  145.4790 C   0  0  0  0  0  0  0  0  0  0  0  0
  188.4280  177.5530  143.7360 C   0  0  0  0  0  0  0  0  0  0  0  0
  190.6790  177.1490  144.6540 C   0  0  0  0  0  2  0  0  0  0  0  0
  191.8280  175.8290  146.3960 C   0  0  0  0  0  0  0  0  0  0  0  0
  192.0920  174.9850  145.4980 O   0  0  0  0  0  0  0  0  0  0  0  0
  193.2890  175.7800  148.3190 N   0  0  0  0  0  1  0  0  0  0  0  0
  192.0770  175.5010  147.7280 O   0  0  0  0  0  0  0  0  0  0  0  0
  188.7050  177.3210  142.3470 N   0  0  0  0  0  2  0  0  0  0  0  0
  189.0210  178.3580  141.3730 C   0  0  0  0  0  2  0  0  0  0  0  0
  188.2030  178.1510  140.1120 C   0  0  0  0  0  2  0  0  0  0  0  0
  188.9780  178.6250  138.8930 C   0  0  0  0  0  2  0  0  0  0  0  0
  188.7450  177.6850  137.7230 C   0  0  0  0  0  2  0  0  0  0  0  0
  189.4770  176.3740  137.9450 C   0  0  0  0  0  2  0  0  0  0  0  0
  190.9360  176.6560  138.2480 C   0  0  0  0  0  2  0  0  0  0  0  0
  193.0280  175.4560  137.6530 C   0  0  0  0  0  0  0  0  0  0  0  0
  193.6440  176.6800  137.4000 O   0  0  0  0  0  1  0  0  0  0  0  0
  191.7530  175.4210  138.0470 C   0  0  0  0  0  3  0  0  0  0  0  0
  193.7950  174.2050  137.4790 C   0  0  0  0  0  0  0  0  0  0  0  0
  195.5910  172.1410  136.6750 C   0  0  0  0  0  2  0  0  0  0  0  0
  195.6700  172.7090  138.0940 C   0  0  0  0  0  2  0  0  0  0  0  0
  194.1720  172.1630  136.1760 C   0  0  0  0  0  3  0  0  0  0  0  0
  193.3490  173.1570  136.5270 C   0  0  0  0  0  3  0  0  0  0  0  0
  194.9170  174.0100  138.1860 C   0  0  0  0  0  3  0  0  0  0  0  0
  183.2610  178.7350  144.3550 C   0  0  0  0  0  2  0  0  0  0  0  0
  182.8150  178.6450  142.9050 C   0  0  0  0  0  2  0  0  0  0  0  0
  181.3680  179.0940  142.7750 C   0  0  0  0  0  2  0  0  0  0  0  0
  180.8050  178.7000  141.4180 C   0  0  0  0  0  2  0  0  0  0  0  0
  181.0010  179.8030  140.3830 C   0  0  0  0  0  2  0  0  0  0  0  0
  182.3930  178.1340  139.4570 O   0  0  0  0  0  0  0  0  0  0  0  0
  183.0370  179.4680  139.2330 C   0  0  0  0  0  0  0  0  0  0  0  0
  184.0500  180.2110  139.1860 O   0  0  0  0  0  0  0  0  0  0  0  0
  181.6780  179.2570  139.1370 C   0  0  2  0  0  3  0  0  0  0  0  0
  1  9  1  0  0  0  0
  3  1  2  0  0  0  0
  4 11  1  0  0  0  0
  6  7  2  0  0  0  0
  7  5  1  0  0  0  0
  7  2  1  0  0  0  0
  8  4  1  0  0  0  0
  8  3  1  0  0  0  0
 10 14  1  1  0  0  0
 10  2  1  0  0  0  0
 11  1  1  0  0  0  0
 11  5  2  0  0  0  0
 12  4  2  0  0  0  0
 12  6  1  0  0  0  0
 13  6  1  0  0  0  0
 13 10  1  0  0  0  0
 14 17  1  0  0  0  0
 15 14  2  0  0  0  0
 17 16  1  0  0  0  0
 18 12  1  0  0  0  0
 19 18  1  0  0  0  0
 20 19  1  0  0  0  0
 21 20  1  0  0  0  0
 22 23  1  0  0  0  0
 22 21  1  0  0  0  0
 23 24  1  0  0  0  0
 25 27  2  0  0  0  0
 26 25  1  0  0  0  0
 27 24  1  0  0  0  0
 28 25  1  0  0  0  0
 28 33  2  0  0  0  0
 29 30  1  0  0  0  0
 30 33  1  0  0  0  0
 31 32  2  0  0  0  0
 31 29  1  0  0  0  0
 32 28  1  0  0  0  0
 34  3  1  0  0  0  0
 35 34  1  0  0  0  0
 36 35  1  0  0  0  0
 37 36  1  0  0  0  0
 38 37  1  0  0  0  0
 40 39  1  0  0  0  0
 41 40  2  0  0  0  0
 42 40  1  0  0  0  0
 42 39  1  0  0  0  0
 42 38  1  1  0  0  0
M  END
>  <MODEL>
3

>  <REMARK>
 VINA RESULT:      -7.6      2.600      4.506
  Name = 
  17 active torsions:
  status: ('A' for Active; 'I' for Inactive)
    1  A    between atoms: C_1  and  C_5
    2  A    between atoms: C_1  and  C_33
    3  A    between atoms: C_4  and  C_7
    4  A    between atoms: C_5  and  C_6
    5  A    between atoms: C_6  and  C_21
    6  A    between atoms: C_8  and  C_33
    7  A    between atoms: C_8  and  C_41
    8  A    between atoms: C_14  and  C_24
    9  A    between atoms: C_16  and  C_36
   10  A    between atoms: C_16  and  O_37
   11  A    between atoms: C_17  and  C_24
   12  A    between atoms: C_17  and  C_38
   13  A    between atoms: C_21  and  N_28
   14  A    between atoms: C_22  and  C_27
   15  A    between atoms: C_27  and  C_31
   16  A    between atoms: N_28  and  C_40
   17  A    between atoms: C_31  and  C_38
                            x       y       z     vdW  Elec       q    Type
                         _______ _______ _______ _____ _____    ______ ____

>  <TORSDO>
F 17

$$$$
=
 OpenBabel10232410573D

 42 46  0  0  1  0  0  0  0  0999 V2000
  190.8590  177.3280  141.3560 C   0  0  0  0  0  0  0  0  0  0  0  0
  193.1930  176.1090  137.2280 C   0  0  0  0  0  2  0  0  0  0  0  0
  189.5490  177.6600  141.6920 C   0  0  0  0  0  0  0  0  0  0  0  0
  189.8380  177.1640  139.2650 C   0  0  0  0  0  0  0  0  0  0  0  0
  192.2240  176.6970  139.3680 C   0  0  0  0  0  3  0  0  0  0  0  0
  191.0000  176.5650  137.2620 C   0  0  0  0  0  0  0  0  0  0  0  0
  192.1760  176.4590  137.9900 C   0  0  0  0  0  0  0  0  0  0  0  0
  188.5850  177.6000  140.3030 S   0  0  0  0  0  0  0  0  0  0  0  0
  191.8960  177.2730  142.2820 O   0  0  0  0  0  1  0  0  0  0  0  0
  192.6740  175.9580  135.8260 C   0  0  2  0  0  3  0  0  0  0  0  0
  191.0240  177.0550  139.9960 C   0  0  0  0  0  0  0  0  0  0  0  0
  189.7820  176.9270  137.8830 C   0  0  0  0  0  0  0  0  0  0  0  0
  191.2170  176.2820  135.9880 C   0  0  0  0  0  2  0  0  0  0  0  0
  192.8530  174.5540  135.3250 C   0  0  0  0  0  0  0  0  0  0  0  0
  192.1760  174.1390  134.3470 O   0  0  0  0  0  0  0  0  0  0  0  0
  193.4270  172.4570  136.3790 N   0  0  0  0  0  1  0  0  0  0  0  0
  193.7870  173.7020  135.9130 O   0  0  0  0  0  0  0  0  0  0  0  0
  188.5310  177.0490  137.1890 N   0  0  0  0  0  2  0  0  0  0  0  0
  187.5570  175.9790  137.0260 C   0  0  0  0  0  2  0  0  0  0  0  0
  186.1500  176.5460  137.0730 C   0  0  0  0  0  2  0  0  0  0  0  0
  186.1830  178.0120  137.4740 C   0  0  0  0  0  2  0  0  0  0  0  0
  184.9960  178.3410  138.3640 C   0  0  0  0  0  2  0  0  0  0  0  0
  183.7280  177.7280  137.7990 C   0  0  0  0  0  2  0  0  0  0  0  0
  182.8550  177.2340  138.9370 C   0  0  0  0  0  2  0  0  0  0  0  0
  182.7290  178.3250  141.1650 C   0  0  0  0  0  0  0  0  0  0  0  0
  181.4040  178.6700  140.9070 O   0  0  0  0  0  1  0  0  0  0  0  0
  183.4320  177.6540  140.2490 C   0  0  0  0  0  3  0  0  0  0  0  0
  183.3440  178.7070  142.4530 C   0  0  0  0  0  0  0  0  0  0  0  0
  184.5000  178.7910  145.0580 C   0  0  0  0  0  2  0  0  0  0  0  0
  185.3330  179.2020  143.8420 C   0  0  0  0  0  2  0  0  0  0  0  0
  183.0520  179.1400  144.8480 C   0  0  0  0  0  3  0  0  0  0  0  0
  182.5090  179.0580  143.6280 C   0  0  0  0  0  3  0  0  0  0  0  0
  184.6800  178.7330  142.5700 C   0  0  0  0  0  3  0  0  0  0  0  0
  189.0550  177.9680  143.0660 C   0  0  0  0  0  2  0  0  0  0  0  0
  188.1530  176.8570  143.5760 C   0  0  0  0  0  2  0  0  0  0  0  0
  187.9760  176.9780  145.0820 C   0  0  0  0  0  2  0  0  0  0  0  0
  189.0620  177.8620  145.6790 C   0  0  0  0  0  2  0  0  0  0  0  0
  189.8680  177.1250  146.7430 C   0  0  0  0  0  2  0  0  0  0  0  0
  191.6810  176.2750  145.4880 O   0  0  0  0  0  0  0  0  0  0  0  0
  191.9780  176.0820  146.9430 C   0  0  0  0  0  0  0  0  0  0  0  0
  192.4370  175.4020  147.8960 O   0  0  0  0  0  0  0  0  0  0  0  0
  191.3560  177.2040  146.4400 C   0  0  2  0  0  3  0  0  0  0  0  0
  1  3  2  0  0  0  0
  1  9  1  0  0  0  0
  2  7  1  0  0  0  0
  3 34  1  0  0  0  0
  4 11  1  0  0  0  0
  4  8  1  0  0  0  0
  5 11  2  0  0  0  0
  6 12  1  0  0  0  0
  6  7  2  0  0  0  0
  7  5  1  0  0  0  0
  8  3  1  0  0  0  0
 10 14  1  1  0  0  0
 10 13  1  0  0  0  0
 10  2  1  0  0  0  0
 11  1  1  0  0  0  0
 12  4  2  0  0  0  0
 13  6  1  0  0  0  0
 14 17  1  0  0  0  0
 15 14  2  0  0  0  0
 17 16  1  0  0  0  0
 18 12  1  0  0  0  0
 19 20  1  0  0  0  0
 19 18  1  0  0  0  0
 20 21  1  0  0  0  0
 21 22  1  0  0  0  0
 23 22  1  0  0  0  0
 23 24  1  0  0  0  0
 24 27  1  0  0  0  0
 25 28  1  0  0  0  0
 26 25  1  0  0  0  0
 27 25  2  0  0  0  0
 28 33  2  0  0  0  0
 28 32  1  0  0  0  0
 30 29  1  0  0  0  0
 31 29  1  0  0  0  0
 32 31  2  0  0  0  0
 33 30  1  0  0  0  0
 34 35  1  0  0  0  0
 35 36  1  0  0  0  0
 36 37  1  0  0  0  0
 37 38  1  0  0  0  0
 39 42  1  0  0  0  0
 39 40  1  0  0  0  0
 40 41  2  0  0  0  0
 42 38  1  1  0  0  0
 42 40  1  0  0  0  0
M  END
>  <MODEL>
4

>  <REMARK>
 VINA RESULT:      -7.6      2.971      8.306
  Name = 
  17 active torsions:
  status: ('A' for Active; 'I' for Inactive)
    1  A    between atoms: C_1  and  C_5
    2  A    between atoms: C_1  and  C_33
    3  A    between atoms: C_4  and  C_7
    4  A    between atoms: C_5  and  C_6
    5  A    between atoms: C_6  and  C_21
    6  A    between atoms: C_8  and  C_33
    7  A    between atoms: C_8  and  C_41
    8  A    between atoms: C_14  and  C_24
    9  A    between atoms: C_16  and  C_36
   10  A    between atoms: C_16  and  O_37
   11  A    between atoms: C_17  and  C_24
   12  A    between atoms: C_17  and  C_38
   13  A    between atoms: C_21  and  N_28
   14  A    between atoms: C_22  and  C_27
   15  A    between atoms: C_27  and  C_31
   16  A    between atoms: N_28  and  C_40
   17  A    between atoms: C_31  and  C_38
                            x       y       z     vdW  Elec       q    Type
                         _______ _______ _______ _____ _____    ______ ____

>  <TORSDO>
F 17

$$$$
=
 OpenBabel10232410573D

 42 46  0  0  1  0  0  0  0  0999 V2000
  186.7960  175.9390  136.4730 C   0  0  0  0  0  0  0  0  0  0  0  0
  191.4480  174.5760  137.1670 C   0  0  0  0  0  2  0  0  0  0  0  0
  185.9710  176.9400  136.9800 C   0  0  0  0  0  0  0  0  0  0  0  0
  188.2760  177.0000  137.9310 C   0  0  0  0  0  0  0  0  0  0  0  0
  189.1290  175.0890  136.6910 C   0  0  0  0  0  3  0  0  0  0  0  0
  190.5450  176.3160  138.2510 C   0  0  0  0  0  0  0  0  0  0  0  0
  190.3530  175.2920  137.3370 C   0  0  0  0  0  0  0  0  0  0  0  0
  186.8460  177.8760  138.0860 S   0  0  0  0  0  0  0  0  0  0  0  0
  186.3770  175.0090  135.5280 O   0  0  0  0  0  1  0  0  0  0  0  0
  192.5080  175.1590  138.0560 C   0  0  2  0  0  3  0  0  0  0  0  0
  188.0860  175.9690  137.0080 C   0  0  0  0  0  0  0  0  0  0  0  0
  189.5010  177.2110  138.5830 C   0  0  0  0  0  0  0  0  0  0  0  0
  191.7860  176.3000  138.7110 C   0  0  0  0  0  2  0  0  0  0  0  0
  193.6770  175.6600  137.2570 C   0  0  0  0  0  0  0  0  0  0  0  0
  193.7300  176.8680  136.9000 O   0  0  0  0  0  0  0  0  0  0  0  0
  194.7530  174.1330  135.7260 N   0  0  0  0  0  1  0  0  0  0  0  0
  194.7300  174.8090  136.9250 O   0  0  0  0  0  0  0  0  0  0  0  0
  189.6350  178.2920  139.5170 N   0  0  0  0  0  2  0  0  0  0  0  0
  189.2050  178.2530  140.9090 C   0  0  0  0  0  2  0  0  0  0  0  0
  189.3070  176.8360  141.4420 C   0  0  0  0  0  2  0  0  0  0  0  0
  190.6730  176.6010  142.0680 C   0  0  0  0  0  2  0  0  0  0  0  0
  190.5360  175.7670  143.3300 C   0  0  0  0  0  2  0  0  0  0  0  0
  191.7300  175.9880  144.2400 C   0  0  0  0  0  2  0  0  0  0  0  0
  191.3370  176.9190  145.3720 C   0  0  0  0  0  2  0  0  0  0  0  0
  189.0040  177.1990  146.1780 C   0  0  0  0  0  0  0  0  0  0  0  0
  189.3640  176.6050  147.3860 O   0  0  0  0  0  1  0  0  0  0  0  0
  189.9160  177.3510  145.2140 C   0  0  0  0  0  3  0  0  0  0  0  0
  187.6140  177.6540  145.9750 C   0  0  0  0  0  0  0  0  0  0  0  0
  185.2160  179.1310  145.5230 C   0  0  0  0  0  2  0  0  0  0  0  0
  185.6630  178.0770  144.5080 C   0  0  0  0  0  2  0  0  0  0  0  0
  185.6200  178.7280  146.9160 C   0  0  0  0  0  3  0  0  0  0  0  0
  186.7680  178.0710  147.1210 C   0  0  0  0  0  3  0  0  0  0  0  0
  187.1040  177.7010  144.7360 C   0  0  0  0  0  3  0  0  0  0  0  0
  184.5550  177.1870  136.5790 C   0  0  0  0  0  2  0  0  0  0  0  0
  183.6290  176.1610  137.2110 C   0  0  0  0  0  2  0  0  0  0  0  0
  182.9760  176.7440  138.4540 C   0  0  0  0  0  2  0  0  0  0  0  0
  182.6350  178.2120  138.2430 C   0  0  0  0  0  2  0  0  0  0  0  0
  182.9710  179.0530  139.4690 C   0  0  0  0  0  2  0  0  0  0  0  0
  183.3650  178.6550  141.7640 O   0  0  0  0  0  0  0  0  0  0  0  0
  184.6700  178.9930  141.1090 C   0  0  0  0  0  0  0  0  0  0  0  0
  185.7900  179.5640  141.1090 O   0  0  0  0  0  0  0  0  0  0  0  0
  183.7000  178.2190  140.5100 C   0  0  2  0  0  3  0  0  0  0  0  0
  1  3  2  0  0  0  0
  1 11  1  0  0  0  0
  2  7  1  0  0  0  0
  2 10  1  0  0  0  0
  3  8  1  0  0  0  0
  4  8  1  0  0  0  0
  4 12  1  0  0  0  0
  5 11  1  0  0  0  0
  5  7  2  0  0  0  0
  6 12  2  0  0  0  0
  6 13  1  0  0  0  0
  7  6  1  0  0  0  0
  9  1  1  0  0  0  0
 10 14  1  6  0  0  0
 10 13  1  0  0  0  0
 11  4  2  0  0  0  0
 12 18  1  0  0  0  0
 15 14  2  0  0  0  0
 16 17  1  0  0  0  0
 17 14  1  0  0  0  0
 18 19  1  0  0  0  0
 19 20  1  0  0  0  0
 20 21  1  0  0  0  0
 21 22  1  0  0  0  0
 22 23  1  0  0  0  0
 23 24  1  0  0  0  0
 25 26  1  0  0  0  0
 27 24  1  0  0  0  0
 27 25  2  0  0  0  0
 28 25  1  0  0  0  0
 28 32  1  0  0  0  0
 29 31  1  0  0  0  0
 30 33  1  0  0  0  0
 30 29  1  0  0  0  0
 31 32  2  0  0  0  0
 33 28  2  0  0  0  0
 34  3  1  0  0  0  0
 34 35  1  0  0  0  0
 35 36  1  0  0  0  0
 37 36  1  0  0  0  0
 37 38  1  0  0  0  0
 40 39  1  0  0  0  0
 41 40  2  0  0  0  0
 42 38  1  6  0  0  0
 42 40  1  0  0  0  0
 42 39  1  0  0  0  0
M  END
>  <MODEL>
5

>  <REMARK>
 VINA RESULT:      -7.6      3.002      7.874
  Name = 
  17 active torsions:
  status: ('A' for Active; 'I' for Inactive)
    1  A    between atoms: C_1  and  C_5
    2  A    between atoms: C_1  and  C_33
    3  A    between atoms: C_4  and  C_7
    4  A    between atoms: C_5  and  C_6
    5  A    between atoms: C_6  and  C_21
    6  A    between atoms: C_8  and  C_33
    7  A    between atoms: C_8  and  C_41
    8  A    between atoms: C_14  and  C_24
    9  A    between atoms: C_16  and  C_36
   10  A    between atoms: C_16  and  O_37
   11  A    between atoms: C_17  and  C_24
   12  A    between atoms: C_17  and  C_38
   13  A    between atoms: C_21  and  N_28
   14  A    between atoms: C_22  and  C_27
   15  A    between atoms: C_27  and  C_31
   16  A    between atoms: N_28  and  C_40
   17  A    between atoms: C_31  and  C_38
                            x       y       z     vdW  Elec       q    Type
                         _______ _______ _______ _____ _____    ______ ____

>  <TORSDO>
F 17

$$$$
=
 OpenBabel10232410573D

 42 46  0  0  1  0  0  0  0  0999 V2000
  187.2700  176.8640  136.9160 C   0  0  0  0  0  0  0  0  0  0  0  0
  182.4030  177.3090  137.2210 C   0  0  0  0  0  2  0  0  0  0  0  0
  188.3570  177.3620  137.6310 C   0  0  0  0  0  0  0  0  0  0  0  0
  186.1620  178.1380  138.5260 C   0  0  0  0  0  0  0  0  0  0  0  0
  184.7800  176.9690  136.9010 C   0  0  0  0  0  3  0  0  0  0  0  0
  183.7820  178.3380  138.6560 C   0  0  0  0  0  0  0  0  0  0  0  0
  183.6640  177.5090  137.5500 C   0  0  0  0  0  0  0  0  0  0  0  0
  187.7940  178.3360  138.8950 S   0  0  0  0  0  0  0  0  0  0  0  0
  187.3990  176.0160  135.8220 O   0  0  0  0  0  1  0  0  0  0  0  0
  181.5570  178.0780  138.1940 C   0  0  2  0  0  3  0  0  0  0  0  0
  186.0400  177.3020  137.4140 C   0  0  0  0  0  0  0  0  0  0  0  0
  185.0480  178.6840  139.1830 C   0  0  0  0  0  0  0  0  0  0  0  0
  182.5870  178.7070  139.0870 C   0  0  0  0  0  2  0  0  0  0  0  0
  180.6600  177.1650  138.9800 C   0  0  0  0  0  0  0  0  0  0  0  0
  180.2370  177.5140  140.1140 O   0  0  0  0  0  0  0  0  0  0  0  0
  180.1960  174.8090  139.2440 N   0  0  0  0  0  1  0  0  0  0  0  0
  180.2610  175.9370  138.4560 O   0  0  0  0  0  0  0  0  0  0  0  0
  185.2390  179.5320  140.3260 N   0  0  0  0  0  2  0  0  0  0  0  0
  185.6090  179.0700  141.6570 C   0  0  0  0  0  2  0  0  0  0  0  0
  184.5280  178.1570  142.2070 C   0  0  0  0  0  2  0  0  0  0  0  0
  183.7420  178.8630  143.3000 C   0  0  0  0  0  2  0  0  0  0  0  0
  184.6680  179.2710  144.4330 C   0  0  0  0  0  2  0  0  0  0  0  0
  184.3430  178.4840  145.6890 C   0  0  0  0  0  2  0  0  0  0  0  0
  185.4350  178.7020  146.7190 C   0  0  0  0  0  2  0  0  0  0  0  0
  187.7580  177.8760  147.0240 C   0  0  0  0  0  0  0  0  0  0  0  0
  187.6440  178.1000  148.3950 O   0  0  0  0  0  1  0  0  0  0  0  0
  186.7330  178.1580  146.2170 C   0  0  0  0  0  3  0  0  0  0  0  0
  189.0170  177.3290  146.4780 C   0  0  0  0  0  0  0  0  0  0  0  0
  191.6220  176.9140  145.3950 C   0  0  0  0  0  2  0  0  0  0  0  0
  191.2830  176.3790  146.7880 C   0  0  0  0  0  2  0  0  0  0  0  0
  190.4070  176.8850  144.5080 C   0  0  0  0  0  3  0  0  0  0  0  0
  189.1940  177.1210  145.0190 C   0  0  0  0  0  3  0  0  0  0  0  0
  190.0230  177.0190  147.3080 C   0  0  0  0  0  3  0  0  0  0  0  0
  189.7910  177.0490  137.3640 C   0  0  0  0  0  2  0  0  0  0  0  0
  190.4180  176.3390  138.5520 C   0  0  0  0  0  2  0  0  0  0  0  0
  191.9320  176.3180  138.4080 C   0  0  0  0  0  2  0  0  0  0  0  0
  192.3340  175.7480  137.0560 C   0  0  0  0  0  2  0  0  0  0  0  0
  193.3150  174.5910  137.2000 C   0  0  0  0  0  2  0  0  0  0  0  0
  195.6200  174.9710  137.5560 O   0  0  0  0  0  0  0  0  0  0  0  0
  195.1900  173.8190  138.4120 C   0  0  0  0  0  0  0  0  0  0  0  0
  195.3910  172.6880  138.9220 O   0  0  0  0  0  0  0  0  0  0  0  0
  194.4100  174.9340  138.1970 C   0  0  2  0  0  3  0  0  0  0  0  0
  1 11  1  0  0  0  0
  1  3  2  0  0  0  0
  2  7  1  0  0  0  0
  2 10  1  0  0  0  0
  3  8  1  0  0  0  0
  4  8  1  0  0  0  0
  4 12  1  0  0  0  0
  5 11  1  0  0  0  0
  5  7  2  0  0  0  0
  6 13  1  0  0  0  0
  6 12  2  0  0  0  0
  7  6  1  0  0  0  0
  9  1  1  0  0  0  0
 10 14  1  1  0  0  0
 10 13  1  0  0  0  0
 11  4  2  0  0  0  0
 12 18  1  0  0  0  0
 14 15  2  0  0  0  0
 17 14  1  0  0  0  0
 17 16  1  0  0  0  0
 18 19  1  0  0  0  0
 19 20  1  0  0  0  0
 20 21  1  0  0  0  0
 21 22  1  0  0  0  0
 22 23  1  0  0  0  0
 23 24  1  0  0  0  0
 25 26  1  0  0  0  0
 27 24  1  0  0  0  0
 27 25  2  0  0  0  0
 28 25  1  0  0  0  0
 28 33  2  0  0  0  0
 29 30  1  0  0  0  0
 30 33  1  0  0  0  0
 31 32  2  0  0  0  0
 31 29  1  0  0  0  0
 32 28  1  0  0  0  0
 34  3  1  0  0  0  0
 34 35  1  0  0  0  0
 36 35  1  0  0  0  0
 37 38  1  0  0  0  0
 37 36  1  0  0  0  0
 39 42  1  0  0  0  0
 39 40  1  0  0  0  0
 40 41  2  0  0  0  0
 42 38  1  6  0  0  0
 42 40  1  0  0  0  0
M  END
>  <MODEL>
6

>  <REMARK>
 VINA RESULT:      -7.6      3.210     10.744
  Name = 
  17 active torsions:
  status: ('A' for Active; 'I' for Inactive)
    1  A    between atoms: C_1  and  C_5
    2  A    between atoms: C_1  and  C_33
    3  A    between atoms: C_4  and  C_7
    4  A    between atoms: C_5  and  C_6
    5  A    between atoms: C_6  and  C_21
    6  A    between atoms: C_8  and  C_33
    7  A    between atoms: C_8  and  C_41
    8  A    between atoms: C_14  and  C_24
    9  A    between atoms: C_16  and  C_36
   10  A    between atoms: C_16  and  O_37
   11  A    between atoms: C_17  and  C_24
   12  A    between atoms: C_17  and  C_38
   13  A    between atoms: C_21  and  N_28
   14  A    between atoms: C_22  and  C_27
   15  A    between atoms: C_27  and  C_31
   16  A    between atoms: N_28  and  C_40
   17  A    between atoms: C_31  and  C_38
                            x       y       z     vdW  Elec       q    Type
                         _______ _______ _______ _____ _____    ______ ____

>  <TORSDO>
F 17

$$$$
=
 OpenBabel10232410573D

 42 46  0  0  1  0  0  0  0  0999 V2000
  189.6950  175.6090  136.6370 C   0  0  0  0  0  0  0  0  0  0  0  0
  184.9540  176.7080  136.0910 C   0  0  0  0  0  2  0  0  0  0  0  0
  190.7080  176.0010  137.5090 C   0  0  0  0  0  0  0  0  0  0  0  0
  188.5250  177.1080  137.9900 C   0  0  0  0  0  0  0  0  0  0  0  0
  187.2800  176.0400  136.1940 C   0  0  0  0  0  3  0  0  0  0  0  0
  186.2080  177.6270  137.7040 C   0  0  0  0  0  0  0  0  0  0  0  0
  186.1590  176.7590  136.6240 C   0  0  0  0  0  0  0  0  0  0  0  0
  190.0860  177.1110  138.6240 S   0  0  0  0  0  0  0  0  0  0  0  0
  189.8820  174.6910  135.6100 O   0  0  0  0  0  1  0  0  0  0  0  0
  184.0750  177.6370  136.8790 C   0  0  2  0  0  3  0  0  0  0  0  0
  188.4720  176.2330  136.9020 C   0  0  0  0  0  0  0  0  0  0  0  0
  187.4060  177.8330  138.4280 C   0  0  0  0  0  0  0  0  0  0  0  0
  185.0210  178.1740  137.9120 C   0  0  0  0  0  2  0  0  0  0  0  0
  182.9430  176.8960  137.5310 C   0  0  0  0  0  0  0  0  0  0  0  0
  181.7490  177.1940  137.2580 O   0  0  0  0  0  0  0  0  0  0  0  0
  182.5660  175.7880  139.6440 N   0  0  0  0  0  1  0  0  0  0  0  0
  183.1940  175.8520  138.4210 O   0  0  0  0  0  0  0  0  0  0  0  0
  187.5230  178.7130  139.5560 N   0  0  0  0  0  2  0  0  0  0  0  0
  187.7000  178.2830  140.9360 C   0  0  0  0  0  2  0  0  0  0  0  0
  186.7710  179.0650  141.8470 C   0  0  0  0  0  2  0  0  0  0  0  0
  185.3310  178.9320  141.3760 C   0  0  0  0  0  2  0  0  0  0  0  0
  184.5470  178.0440  142.3280 C   0  0  0  0  0  2  0  0  0  0  0  0
  183.4510  178.8410  143.0100 C   0  0  0  0  0  2  0  0  0  0  0  0
  183.7520  178.9460  144.4930 C   0  0  0  0  0  2  0  0  0  0  0  0
  185.6170  178.2980  146.0000 C   0  0  0  0  0  0  0  0  0  0  0  0
  184.7770  178.4770  147.0970 O   0  0  0  0  0  1  0  0  0  0  0  0
  185.1570  178.5180  144.7670 C   0  0  0  0  0  3  0  0  0  0  0  0
  187.0130  177.8640  146.2150 C   0  0  0  0  0  0  0  0  0  0  0  0
  189.8460  177.6590  146.4690 C   0  0  0  0  0  2  0  0  0  0  0  0
  188.9560  177.4690  147.6990 C   0  0  0  0  0  2  0  0  0  0  0  0
  189.1480  177.1670  145.2310 C   0  0  0  0  0  3  0  0  0  0  0  0
  187.8230  177.3050  145.1040 C   0  0  0  0  0  3  0  0  0  0  0  0
  187.5660  177.9820  147.4310 C   0  0  0  0  0  3  0  0  0  0  0  0
  192.1080  175.4860  137.5010 C   0  0  0  0  0  2  0  0  0  0  0  0
  192.8370  175.9260  136.2430 C   0  0  0  0  0  2  0  0  0  0  0  0
  194.3380  175.7720  136.4280 C   0  0  0  0  0  2  0  0  0  0  0  0
  194.6790  174.3650  136.8960 C   0  0  0  0  0  2  0  0  0  0  0  0
  196.1820  174.1140  136.8830 C   0  0  0  0  0  2  0  0  0  0  0  0
  195.6030  172.9250  138.8410 O   0  0  0  0  0  0  0  0  0  0  0  0
  196.0740  174.2910  139.2360 C   0  0  0  0  0  0  0  0  0  0  0  0
  195.9930  175.3230  139.9490 O   0  0  0  0  0  0  0  0  0  0  0  0
  196.6460  173.5570  138.2200 C   0  0  2  0  0  3  0  0  0  0  0  0
  1 11  1  0  0  0  0
  1  3  2  0  0  0  0
  2  7  1  0  0  0  0
  2 10  1  0  0  0  0
  3  8  1  0  0  0  0
  4 12  1  0  0  0  0
  4  8  1  0  0  0  0
  5  7  2  0  0  0  0
  5 11  1  0  0  0  0
  6 13  1  0  0  0  0
  6 12  2  0  0  0  0
  7  6  1  0  0  0  0
  9  1  1  0  0  0  0
 10 14  1  1  0  0  0
 10 13  1  0  0  0  0
 11  4  2  0  0  0  0
 12 18  1  0  0  0  0
 14 17  1  0  0  0  0
 15 14  2  0  0  0  0
 17 16  1  0  0  0  0
 18 19  1  0  0  0  0
 19 20  1  0  0  0  0
 21 20  1  0  0  0  0
 21 22  1  0  0  0  0
 22 23  1  0  0  0  0
 23 24  1  0  0  0  0
 24 27  1  0  0  0  0
 25 28  1  0  0  0  0
 25 26  1  0  0  0  0
 27 25  2  0  0  0  0
 28 33  2  0  0  0  0
 29 30  1  0  0  0  0
 31 29  1  0  0  0  0
 32 31  2  0  0  0  0
 32 28  1  0  0  0  0
 33 30  1  0  0  0  0
 34  3  1  0  0  0  0
 35 36  1  0  0  0  0
 35 34  1  0  0  0  0
 36 37  1  0  0  0  0
 38 37  1  0  0  0  0
 39 40  1  0  0  0  0
 40 41  2  0  0  0  0
 42 38  1  6  0  0  0
 42 39  1  0  0  0  0
 42 40  1  0  0  0  0
M  END
>  <MODEL>
7

>  <REMARK>
 VINA RESULT:      -7.3      3.432     10.831
  Name = 
  17 active torsions:
  status: ('A' for Active; 'I' for Inactive)
    1  A    between atoms: C_1  and  C_5
    2  A    between atoms: C_1  and  C_33
    3  A    between atoms: C_4  and  C_7
    4  A    between atoms: C_5  and  C_6
    5  A    between atoms: C_6  and  C_21
    6  A    between atoms: C_8  and  C_33
    7  A    between atoms: C_8  and  C_41
    8  A    between atoms: C_14  and  C_24
    9  A    between atoms: C_16  and  C_36
   10  A    between atoms: C_16  and  O_37
   11  A    between atoms: C_17  and  C_24
   12  A    between atoms: C_17  and  C_38
   13  A    between atoms: C_21  and  N_28
   14  A    between atoms: C_22  and  C_27
   15  A    between atoms: C_27  and  C_31
   16  A    between atoms: N_28  and  C_40
   17  A    between atoms: C_31  and  C_38
                            x       y       z     vdW  Elec       q    Type
                         _______ _______ _______ _____ _____    ______ ____

>  <TORSDO>
F 17

$$$$
=
 OpenBabel10232410573D

 42 46  0  0  1  0  0  0  0  0999 V2000
  185.4340  178.5100  145.5300 C   0  0  0  0  0  0  0  0  0  0  0  0
  190.1150  177.5470  146.5990 C   0  0  0  0  0  2  0  0  0  0  0  0
  184.6530  178.4720  144.3770 C   0  0  0  0  0  0  0  0  0  0  0  0
  187.0190  177.7900  143.9770 C   0  0  0  0  0  0  0  0  0  0  0  0
  187.7740  178.0780  146.2720 C   0  0  0  0  0  3  0  0  0  0  0  0
  189.3000  177.3240  144.5250 C   0  0  0  0  0  0  0  0  0  0  0  0
  189.0420  177.6670  145.8430 C   0  0  0  0  0  0  0  0  0  0  0  0
  185.6050  177.9540  143.0770 S   0  0  0  0  0  0  0  0  0  0  0  0
  184.9410  178.8840  146.7760 O   0  0  0  0  0  1  0  0  0  0  0  0
  191.2360  177.0760  145.7180 C   0  0  2  0  0  3  0  0  0  0  0  0
  186.7610  178.1330  145.3070 C   0  0  0  0  0  0  0  0  0  0  0  0
  188.2870  177.3770  143.5390 C   0  0  0  0  0  0  0  0  0  0  0  0
  190.5650  176.9650  144.3790 C   0  0  0  0  0  2  0  0  0  0  0  0
  191.7560  175.7390  146.1630 C   0  0  0  0  0  0  0  0  0  0  0  0
  192.1580  174.9000  145.3130 O   0  0  0  0  0  0  0  0  0  0  0  0
  192.9470  175.7170  148.2640 N   0  0  0  0  0  1  0  0  0  0  0  0
  191.8290  175.4190  147.5180 O   0  0  0  0  0  0  0  0  0  0  0  0
  188.4870  177.0320  142.1600 N   0  0  0  0  0  2  0  0  0  0  0  0
  189.4060  177.7090  141.2540 C   0  0  0  0  0  2  0  0  0  0  0  0
  188.6260  178.4520  140.1850 C   0  0  0  0  0  2  0  0  0  0  0  0
  188.4980  177.5990  138.9320 C   0  0  0  0  0  2  0  0  0  0  0  0
  187.1250  177.7830  138.3090 C   0  0  0  0  0  2  0  0  0  0  0  0
  187.0090  176.9630  137.0370 C   0  0  0  0  0  2  0  0  0  0  0  0
  187.6870  175.6210  137.2380 C   0  0  0  0  0  2  0  0  0  0  0  0
  186.6750  173.5920  136.2240 C   0  0  0  0  0  0  0  0  0  0  0  0
  187.6330  173.6350  135.2130 O   0  0  0  0  0  1  0  0  0  0  0  0
  186.6790  174.5200  137.1840 C   0  0  0  0  0  3  0  0  0  0  0  0
  185.6620  172.5170  136.2220 C   0  0  0  0  0  0  0  0  0  0  0  0
  183.4070  170.8300  135.7690 C   0  0  0  0  0  2  0  0  0  0  0  0
  184.8090  170.3430  135.3980 C   0  0  0  0  0  2  0  0  0  0  0  0
  183.4630  171.7330  136.9720 C   0  0  0  0  0  3  0  0  0  0  0  0
  184.5070  172.5500  137.1540 C   0  0  0  0  0  3  0  0  0  0  0  0
  185.7790  171.4940  135.3630 C   0  0  0  0  0  3  0  0  0  0  0  0
  183.1970  178.7850  144.3030 C   0  0  0  0  0  2  0  0  0  0  0  0
  182.6830  178.6280  142.8820 C   0  0  0  0  0  2  0  0  0  0  0  0
  181.2540  179.1390  142.7840 C   0  0  0  0  0  2  0  0  0  0  0  0
  180.7470  179.0390  141.3530 C   0  0  0  0  0  2  0  0  0  0  0  0
  180.3140  177.6200  141.0040 C   0  0  0  0  0  2  0  0  0  0  0  0
  181.0020  175.8960  139.5430 O   0  0  0  0  0  0  0  0  0  0  0  0
  182.1090  176.9010  139.6470 C   0  0  0  0  0  0  0  0  0  0  0  0
  183.3280  177.1950  139.7270 O   0  0  0  0  0  0  0  0  0  0  0  0
  180.7750  177.2450  139.6050 C   0  0  2  0  0  3  0  0  0  0  0  0
  1  9  1  0  0  0  0
  3  1  2  0  0  0  0
  4 11  1  0  0  0  0
  6  7  2  0  0  0  0
  7  5  1  0  0  0  0
  7  2  1  0  0  0  0
  8  4  1  0  0  0  0
  8  3  1  0  0  0  0
 10 14  1  1  0  0  0
 10  2  1  0  0  0  0
 11  1  1  0  0  0  0
 11  5  2  0  0  0  0
 12  4  2  0  0  0  0
 12  6  1  0  0  0  0
 13  6  1  0  0  0  0
 13 10  1  0  0  0  0
 14 17  1  0  0  0  0
 15 14  2  0  0  0  0
 17 16  1  0  0  0  0
 18 12  1  0  0  0  0
 19 18  1  0  0  0  0
 20 19  1  0  0  0  0
 21 20  1  0  0  0  0
 22 21  1  0  0  0  0
 23 24  1  0  0  0  0
 23 22  1  0  0  0  0
 25 27  2  0  0  0  0
 26 25  1  0  0  0  0
 27 24  1  0  0  0  0
 28 25  1  0  0  0  0
 28 32  1  0  0  0  0
 29 31  1  0  0  0  0
 30 29  1  0  0  0  0
 31 32  2  0  0  0  0
 33 30  1  0  0  0  0
 33 28  2  0  0  0  0
 34  3  1  0  0  0  0
 35 34  1  0  0  0  0
 36 35  1  0  0  0  0
 37 36  1  0  0  0  0
 38 37  1  0  0  0  0
 39 42  1  0  0  0  0
 39 40  1  0  0  0  0
 40 41  2  0  0  0  0
 42 40  1  0  0  0  0
 42 38  1  1  0  0  0
M  END
>  <MODEL>
8

>  <REMARK>
 VINA RESULT:      -7.3      1.833      2.486
  Name = 
  17 active torsions:
  status: ('A' for Active; 'I' for Inactive)
    1  A    between atoms: C_1  and  C_5
    2  A    between atoms: C_1  and  C_33
    3  A    between atoms: C_4  and  C_7
    4  A    between atoms: C_5  and  C_6
    5  A    between atoms: C_6  and  C_21
    6  A    between atoms: C_8  and  C_33
    7  A    between atoms: C_8  and  C_41
    8  A    between atoms: C_14  and  C_24
    9  A    between atoms: C_16  and  C_36
   10  A    between atoms: C_16  and  O_37
   11  A    between atoms: C_17  and  C_24
   12  A    between atoms: C_17  and  C_38
   13  A    between atoms: C_21  and  N_28
   14  A    between atoms: C_22  and  C_27
   15  A    between atoms: C_27  and  C_31
   16  A    between atoms: N_28  and  C_40
   17  A    between atoms: C_31  and  C_38
                            x       y       z     vdW  Elec       q    Type
                         _______ _______ _______ _____ _____    ______ ____

>  <TORSDO>
F 17

$$$$
=
 OpenBabel10232410573D

 42 46  0  0  1  0  0  0  0  0999 V2000
  187.9110  177.5390  136.5220 C   0  0  0  0  0  0  0  0  0  0  0  0
  192.2520  175.5860  135.3760 C   0  0  0  0  0  2  0  0  0  0  0  0
  187.2570  177.8750  137.7050 C   0  0  0  0  0  0  0  0  0  0  0  0
  189.5210  176.9000  138.0840 C   0  0  0  0  0  0  0  0  0  0  0  0
  190.0620  176.5560  135.7370 C   0  0  0  0  0  3  0  0  0  0  0  0
  191.6360  175.9490  137.4990 C   0  0  0  0  0  0  0  0  0  0  0  0
  191.2920  176.0360  136.1590 C   0  0  0  0  0  0  0  0  0  0  0  0
  188.2560  177.5030  139.0190 S   0  0  0  0  0  0  0  0  0  0  0  0
  187.3590  177.7360  135.2610 O   0  0  0  0  0  1  0  0  0  0  0  0
  193.3790  175.1360  136.2610 C   0  0  2  0  0  3  0  0  0  0  0  0
  189.1770  176.9880  136.7330 C   0  0  0  0  0  0  0  0  0  0  0  0
  190.7520  176.3810  138.5150 C   0  0  0  0  0  0  0  0  0  0  0  0
  192.8480  175.4340  137.6330 C   0  0  0  0  0  2  0  0  0  0  0  0
  194.6300  175.9240  135.9950 C   0  0  0  0  0  0  0  0  0  0  0  0
  194.5920  176.9470  135.2600 O   0  0  0  0  0  0  0  0  0  0  0  0
  197.0230  176.1630  136.2210 N   0  0  0  0  0  1  0  0  0  0  0  0
  195.8410  175.5550  136.5790 O   0  0  0  0  0  0  0  0  0  0  0  0
  191.0490  176.3220  139.9180 N   0  0  0  0  0  2  0  0  0  0  0  0
  191.6250  177.4100  140.6970 C   0  0  0  0  0  2  0  0  0  0  0  0
  190.7790  177.6690  141.9300 C   0  0  0  0  0  2  0  0  0  0  0  0
  191.6080  177.4820  143.1910 C   0  0  0  0  0  2  0  0  0  0  0  0
  190.9070  176.5290  144.1440 C   0  0  0  0  0  2  0  0  0  0  0  0
  191.4960  176.6480  145.5370 C   0  0  0  0  0  2  0  0  0  0  0  0
  190.4160  177.0880  146.5070 C   0  0  0  0  0  2  0  0  0  0  0  0
  187.9920  177.6180  146.3940 C   0  0  0  0  0  0  0  0  0  0  0  0
  187.9350  177.5980  147.7860 O   0  0  0  0  0  1  0  0  0  0  0  0
  189.1480  177.3750  145.7710 C   0  0  0  0  0  3  0  0  0  0  0  0
  186.7680  177.9070  145.6180 C   0  0  0  0  0  0  0  0  0  0  0  0
  184.6430  179.0860  144.1260 C   0  0  0  0  0  2  0  0  0  0  0  0
  185.5420  178.0360  143.4700 C   0  0  0  0  0  2  0  0  0  0  0  0
  184.4860  178.8040  145.5960 C   0  0  0  0  0  3  0  0  0  0  0  0
  185.5030  178.2880  146.2950 C   0  0  0  0  0  3  0  0  0  0  0  0
  186.7950  177.8320  144.2800 C   0  0  0  0  0  3  0  0  0  0  0  0
  185.9110  178.5110  137.8040 C   0  0  0  0  0  2  0  0  0  0  0  0
  185.1700  178.0170  139.0350 C   0  0  0  0  0  2  0  0  0  0  0  0
  183.7050  177.7820  138.7040 C   0  0  0  0  0  2  0  0  0  0  0  0
  183.0250  176.9940  139.8140 C   0  0  0  0  0  2  0  0  0  0  0  0
  181.5310  177.2910  139.8850 C   0  0  0  0  0  2  0  0  0  0  0  0
  182.2680  178.8750  141.4750 O   0  0  0  0  0  0  0  0  0  0  0  0
  180.8980  178.4110  141.8650 C   0  0  0  0  0  0  0  0  0  0  0  0
  180.0530  178.0700  142.7310 O   0  0  0  0  0  0  0  0  0  0  0  0
  181.2800  178.6290  140.5600 C   0  0  2  0  0  3  0  0  0  0  0  0
  1 11  1  0  0  0  0
  1  3  2  0  0  0  0
  2  7  1  0  0  0  0
  2 10  1  0  0  0  0
  3 34  1  0  0  0  0
  3  8  1  0  0  0  0
  4 12  1  0  0  0  0
  4  8  1  0  0  0  0
  5  7  2  0  0  0  0
  5 11  1  0  0  0  0
  6 13  1  0  0  0  0
  6 12  2  0  0  0  0
  7  6  1  0  0  0  0
  9  1  1  0  0  0  0
 10 14  1  6  0  0  0
 10 13  1  0  0  0  0
 11  4  2  0  0  0  0
 12 18  1  0  0  0  0
 14 17  1  0  0  0  0
 15 14  2  0  0  0  0
 16 17  1  0  0  0  0
 18 19  1  0  0  0  0
 19 20  1  0  0  0  0
 20 21  1  0  0  0  0
 21 22  1  0  0  0  0
 22 23  1  0  0  0  0
 23 24  1  0  0  0  0
 25 26  1  0  0  0  0
 27 25  2  0  0  0  0
 27 24  1  0  0  0  0
 28 32  1  0  0  0  0
 28 25  1  0  0  0  0
 29 31  1  0  0  0  0
 30 29  1  0  0  0  0
 30 33  1  0  0  0  0
 31 32  2  0  0  0  0
 33 28  2  0  0  0  0
 34 35  1  0  0  0  0
 36 35  1  0  0  0  0
 36 37  1  0  0  0  0
 37 38  1  0  0  0  0
 39 40  1  0  0  0  0
 40 41  2  0  0  0  0
 42 38  1  6  0  0  0
 42 39  1  0  0  0  0
 42 40  1  0  0  0  0
M  END
>  <MODEL>
9

>  <REMARK>
 VINA RESULT:      -7.3      3.255      8.145
  Name = 
  17 active torsions:
  status: ('A' for Active; 'I' for Inactive)
    1  A    between atoms: C_1  and  C_5
    2  A    between atoms: C_1  and  C_33
    3  A    between atoms: C_4  and  C_7
    4  A    between atoms: C_5  and  C_6
    5  A    between atoms: C_6  and  C_21
    6  A    between atoms: C_8  and  C_33
    7  A    between atoms: C_8  and  C_41
    8  A    between atoms: C_14  and  C_24
    9  A    between atoms: C_16  and  C_36
   10  A    between atoms: C_16  and  O_37
   11  A    between atoms: C_17  and  C_24
   12  A    between atoms: C_17  and  C_38
   13  A    between atoms: C_21  and  N_28
   14  A    between atoms: C_22  and  C_27
   15  A    between atoms: C_27  and  C_31
   16  A    between atoms: N_28  and  C_40
   17  A    between atoms: C_31  and  C_38
                            x       y       z     vdW  Elec       q    Type
                         _______ _______ _______ _____ _____    ______ ____

>  <TORSDO>
F 17

$$$$
