=
 OpenBabel10232408193D

 32 37  0  0  1  0  0  0  0  0999 V2000
  192.3470  176.0400  137.9630 N   0  0  0  0  0  0  0  0  0  0  0  0
  187.3820  178.5850  139.5920 O   0  0  0  0  0  0  0  0  0  0  0  0
  188.9440  176.0740  135.3250 C   0  0  0  0  0  2  0  0  0  0  0  0
  186.9220  177.3510  135.0170 O   0  0  0  0  0  1  0  0  0  0  0  0
  190.6340  177.2840  140.6140 C   0  0  2  0  0  3  0  0  0  0  0  0
  188.3160  177.5820  141.5190 C   0  0  1  0  0  3  0  0  0  0  0  0
  187.0930  175.9510  136.9020 N   0  0  0  0  0  2  0  0  0  0  0  0
  188.4470  177.2870  142.8380 C   0  0  2  0  0  3  0  0  0  0  0  0
  190.9540  173.9290  135.9880 C   0  0  0  0  0  1  0  0  0  0  0  0
  187.8200  176.0380  138.1730 C   0  0  0  0  0  2  0  0  0  0  0  0
  190.1140  176.2320  136.1980 N   0  0  2  0  0  0  0  0  0  0  0  0
  191.2460  175.1060  138.1690 C   0  0  0  0  0  2  0  0  0  0  0  0
  188.4680  177.8670  136.7880 C   0  0  1  0  0  0  0  0  0  0  0  0
  188.3090  179.3700  136.5890 C   0  0  0  0  0  1  0  0  0  0  0  0
  189.7380  177.8040  144.8780 O   0  0  0  0  0  1  0  0  0  0  0  0
  187.0510  178.0210  140.8480 C   0  0  1  0  0  3  0  0  0  0  0  0
  187.2240  177.0970  143.6790 C   0  0  0  0  0  1  0  0  0  0  0  0
  188.7440  177.2590  138.1300 C   0  0  1  0  0  0  0  0  0  0  0  0
  187.7960  176.8240  135.9680 C   0  0  1  0  0  0  0  0  0  0  0  0
  190.9040  176.9560  143.0540 C   0  0  0  0  0  3  0  0  0  0  0  0
  192.6600  176.6290  139.2580 C   0  0  0  0  0  2  0  0  0  0  0  0
  189.7380  177.3370  143.5690 C   0  0  0  0  0  0  0  0  0  0  0  0
  188.7270  178.2650  139.2920 C   0  0  2  0  0  3  0  0  0  0  0  0
  190.3560  174.9680  136.9230 C   0  0  2  0  0  3  0  0  0  0  0  0
  191.6680  177.7340  139.6170 C   0  0  0  0  0  2  0  0  0  0  0  0
  191.0470  176.3480  141.7070 C   0  0  0  0  0  2  0  0  0  0  0  0
  189.8690  177.4060  137.0680 C   0  0  1  0  0  3  0  0  0  0  0  0
  189.3590  177.7040  140.5200 C   0  0  2  0  0  3  0  0  0  0  0  0
  185.1730  179.4780  141.2670 N   0  0  0  0  0  2  0  0  0  0  0  0
  186.3250  179.0650  141.6430 C   0  0  0  0  0  3  0  0  0  0  0  0
  193.5120  175.2590  137.5820 C   0  0  0  0  0  2  0  0  0  0  0  0
  194.5630  175.5320  138.4570 O   0  0  0  0  0  1  0  0  0  0  0  0
  1 12  1  0  0  0  0
  1 21  1  0  0  0  0
  2 16  1  0  0  0  0
  3 19  1  0  0  0  0
  3 11  1  0  0  0  0
  4 19  1  0  0  0  0
  5 25  1  6  0  0  0
  5 26  1  0  0  0  0
  6  8  1  0  0  0  0
  7 10  1  0  0  0  0
  8 22  1  0  0  0  0
  8 17  1  0  0  0  0
  9 24  1  0  0  0  0
 11 24  1  0  0  0  0
 11 27  1  0  0  0  0
 13 27  1  0  0  0  0
 13 18  1  0  0  0  0
 14 13  1  0  0  0  0
 16  6  1  0  0  0  0
 16 30  1  0  0  0  0
 18 10  1  0  0  0  0
 18 23  1  0  0  0  0
 19 13  1  0  0  0  0
 19  7  1  0  0  0  0
 20 22  2  0  0  0  0
 21 25  1  0  0  0  0
 22 15  1  0  0  0  0
 23  2  1  0  0  0  0
 23 28  1  0  0  0  0
 24 12  1  0  0  0  0
 26 20  1  0  0  0  0
 27 18  1  0  0  0  0
 28  5  1  0  0  0  0
 28  6  1  0  0  0  0
 29 30  2  0  0  0  0
 31  1  1  0  0  0  0
 31 32  1  0  0  0  0
M  END
>  <MODEL>
1

>  <REMARK>
 VINA RESULT:      -6.9      0.000      0.000
  Name = 
  2 active torsions:
  status: ('A' for Active; 'I' for Inactive)
    1  A    between atoms: N_2  and  C_14
    2  A    between atoms: C_18  and  C_20
                            x       y       z     vdW  Elec       q    Type
                         _______ _______ _______ _____ _____    ______ ____

>  <TORSDO>
F 2

$$$$
=
 OpenBabel10232408193D

 32 37  0  0  1  0  0  0  0  0999 V2000
  186.4880  178.6610  143.0300 N   0  0  0  0  0  0  0  0  0  0  0  0
  191.8620  177.4700  141.1630 O   0  0  0  0  0  0  0  0  0  0  0  0
  189.5040  177.2980  145.7850 C   0  0  0  0  0  2  0  0  0  0  0  0
  191.9100  177.2110  145.9160 O   0  0  0  0  0  1  0  0  0  0  0  0
  188.3780  178.0910  140.2720 C   0  0  2  0  0  3  0  0  0  0  0  0
  190.3660  176.8010  139.4570 C   0  0  1  0  0  3  0  0  0  0  0  0
  190.8150  175.7990  144.3830 N   0  0  0  0  0  2  0  0  0  0  0  0
  189.9820  176.3610  138.2310 C   0  0  2  0  0  3  0  0  0  0  0  0
  186.5820  176.6160  145.5010 C   0  0  0  0  0  1  0  0  0  0  0  0
  190.1660  176.0140  143.0850 C   0  0  0  0  0  2  0  0  0  0  0  0
  188.5660  177.9070  144.8330 N   0  0  2  0  0  0  0  0  0  0  0  0
  186.8370  177.2460  143.1010 C   0  0  0  0  0  2  0  0  0  0  0  0
  190.7960  178.1270  143.9890 C   0  0  1  0  0  0  0  0  0  0  0  0
  191.8020  179.2650  143.8580 C   0  0  0  0  0  1  0  0  0  0  0  0
  189.0540  177.0740  136.0560 O   0  0  0  0  0  1  0  0  0  0  0  0
  191.7060  176.5650  140.0840 C   0  0  1  0  0  3  0  0  0  0  0  0
  190.8020  175.3280  137.5250 C   0  0  0  0  0  1  0  0  0  0  0  0
  190.1120  177.5180  142.8020 C   0  0  1  0  0  0  0  0  0  0  0  0
  190.8160  177.0920  145.0580 C   0  0  1  0  0  0  0  0  0  0  0  0
  187.7690  177.4650  137.9540 C   0  0  0  0  0  3  0  0  0  0  0  0
  186.4620  179.0280  141.6210 C   0  0  0  0  0  2  0  0  0  0  0  0
  188.8960  176.9850  137.4350 C   0  0  0  0  0  0  0  0  0  0  0  0
  190.6050  178.0540  141.4490 C   0  0  2  0  0  3  0  0  0  0  0  0
  187.5870  176.8930  144.3940 C   0  0  2  0  0  3  0  0  0  0  0  0
  187.8740  179.2540  141.0820 C   0  0  0  0  0  2  0  0  0  0  0  0
  187.4160  177.3550  139.3920 C   0  0  0  0  0  2  0  0  0  0  0  0
  189.3660  178.5070  143.7390 C   0  0  1  0  0  3  0  0  0  0  0  0
  189.6670  177.7100  140.3420 C   0  0  2  0  0  3  0  0  0  0  0  0
  194.0430  176.8000  139.5280 N   0  0  0  0  0  2  0  0  0  0  0  0
  192.8290  176.8030  139.1200 C   0  0  0  0  0  3  0  0  0  0  0  0
  185.1220  178.7940  143.5080 C   0  0  0  0  0  2  0  0  0  0  0  0
  184.2480  178.2040  142.5960 O   0  0  0  0  0  1  0  0  0  0  0  0
  1 12  1  0  0  0  0
  1 31  1  0  0  0  0
  2 23  1  0  0  0  0
  5 26  1  1  0  0  0
  5 28  1  0  0  0  0
  5 25  1  0  0  0  0
  6 16  1  0  0  0  0
  6 28  1  0  0  0  0
  7 19  1  0  0  0  0
  8  6  1  0  0  0  0
 10  7  1  0  0  0  0
 11  3  1  0  0  0  0
 12 24  1  0  0  0  0
 13 19  1  0  0  0  0
 14 13  1  0  0  0  0
 15 22  1  0  0  0  0
 16  2  1  0  0  0  0
 17  8  1  0  0  0  0
 18 10  1  0  0  0  0
 18 27  1  0  0  0  0
 18 13  1  0  0  0  0
 19  3  1  0  0  0  0
 19  4  1  0  0  0  0
 20 26  1  0  0  0  0
 21  1  1  0  0  0  0
 22 20  2  0  0  0  0
 22  8  1  0  0  0  0
 23 18  1  0  0  0  0
 24 11  1  0  0  0  0
 24  9  1  0  0  0  0
 25 21  1  0  0  0  0
 27 13  1  0  0  0  0
 27 11  1  0  0  0  0
 28 23  1  0  0  0  0
 30 29  2  0  0  0  0
 30 16  1  0  0  0  0
 32 31  1  0  0  0  0
M  END
>  <MODEL>
2

>  <REMARK>
 VINA RESULT:      -6.8      2.356      7.500
  Name = 
  2 active torsions:
  status: ('A' for Active; 'I' for Inactive)
    1  A    between atoms: N_2  and  C_14
    2  A    between atoms: C_18  and  C_20
                            x       y       z     vdW  Elec       q    Type
                         _______ _______ _______ _____ _____    ______ ____

>  <TORSDO>
F 2

$$$$
=
 OpenBabel10232408193D

 32 37  0  0  1  0  0  0  0  0999 V2000
  187.3930  177.3650  137.0420 N   0  0  0  0  0  0  0  0  0  0  0  0
  184.3910  179.2320  141.6550 O   0  0  0  0  0  0  0  0  0  0  0  0
  183.0880  177.3810  136.9830 C   0  0  0  0  0  2  0  0  0  0  0  0
  181.2790  178.4900  138.1290 O   0  0  0  0  0  1  0  0  0  0  0  0
  187.6120  178.1320  140.3390 C   0  0  2  0  0  3  0  0  0  0  0  0
  186.3020  178.1070  142.4750 C   0  0  1  0  0  3  0  0  0  0  0  0
  182.5570  176.9060  139.3120 N   0  0  0  0  0  2  0  0  0  0  0  0
  187.2020  177.6780  143.3970 C   0  0  2  0  0  3  0  0  0  0  0  0
  185.1050  175.3710  135.9970 C   0  0  0  0  0  1  0  0  0  0  0  0
  183.9030  176.9160  139.8970 C   0  0  0  0  0  2  0  0  0  0  0  0
  184.5460  177.5460  137.0010 N   0  0  2  0  0  0  0  0  0  0  0  0
  186.6420  176.3140  137.7210 C   0  0  0  0  0  2  0  0  0  0  0  0
  183.5760  178.9430  138.6870 C   0  0  1  0  0  0  0  0  0  0  0  0
  183.3200  180.4370  138.8460 C   0  0  0  0  0  1  0  0  0  0  0  0
  189.4580  178.0770  144.3190 O   0  0  0  0  0  1  0  0  0  0  0  0
  184.8850  178.5000  142.7620 C   0  0  1  0  0  3  0  0  0  0  0  0
  186.7320  177.2790  144.7610 C   0  0  0  0  0  1  0  0  0  0  0  0
  184.6080  178.2150  139.4940 C   0  0  1  0  0  0  0  0  0  0  0  0
  182.5520  177.9410  138.2840 C   0  0  1  0  0  0  0  0  0  0  0  0
  189.2970  177.5560  142.0590 C   0  0  0  0  0  3  0  0  0  0  0  0
  188.4180  177.8280  137.9660 C   0  0  0  0  0  2  0  0  0  0  0  0
  188.6730  177.7640  143.2160 C   0  0  0  0  0  0  0  0  0  0  0  0
  185.2870  179.0750  140.5710 C   0  0  2  0  0  3  0  0  0  0  0  0
  185.1840  176.2370  137.2450 C   0  0  2  0  0  3  0  0  0  0  0  0
  187.8350  178.7880  139.0030 C   0  0  0  0  0  2  0  0  0  0  0  0
  188.6040  177.1210  140.8200 C   0  0  0  0  0  2  0  0  0  0  0  0
  184.8660  178.5860  138.0080 C   0  0  1  0  0  3  0  0  0  0  0  0
  186.5340  178.4390  141.0850 C   0  0  2  0  0  3  0  0  0  0  0  0
  183.7190  179.3520  144.6960 N   0  0  0  0  0  2  0  0  0  0  0  0
  184.7770  179.3740  143.9760 C   0  0  0  0  0  3  0  0  0  0  0  0
  188.0990  176.7440  135.9330 C   0  0  0  0  0  2  0  0  0  0  0  0
  189.3470  177.3460  135.7800 O   0  0  0  0  0  1  0  0  0  0  0  0
  1 12  1  0  0  0  0
  1 21  1  0  0  0  0
  2 16  1  0  0  0  0
  3 11  1  0  0  0  0
  3 19  1  0  0  0  0
  4 19  1  0  0  0  0
  5 25  1  6  0  0  0
  5 26  1  0  0  0  0
  5 28  1  0  0  0  0
  6 16  1  0  0  0  0
  6  8  1  0  0  0  0
  7 10  1  0  0  0  0
  8 17  1  0  0  0  0
  9 24  1  0  0  0  0
 11 24  1  0  0  0  0
 11 27  1  0  0  0  0
 13 14  1  0  0  0  0
 13 18  1  0  0  0  0
 16 30  1  0  0  0  0
 18 10  1  0  0  0  0
 18 23  1  0  0  0  0
 19 13  1  0  0  0  0
 19  7  1  0  0  0  0
 20 22  2  0  0  0  0
 21 25  1  0  0  0  0
 22  8  1  0  0  0  0
 22 15  1  0  0  0  0
 23 28  1  0  0  0  0
 23  2  1  0  0  0  0
 24 12  1  0  0  0  0
 26 20  1  0  0  0  0
 27 13  1  0  0  0  0
 27 18  1  0  0  0  0
 28  6  1  0  0  0  0
 30 29  2  0  0  0  0
 31  1  1  0  0  0  0
 32 31  1  0  0  0  0
M  END
>  <MODEL>
3

>  <REMARK>
 VINA RESULT:      -5.8      2.862      4.420
  Name = 
  2 active torsions:
  status: ('A' for Active; 'I' for Inactive)
    1  A    between atoms: N_2  and  C_14
    2  A    between atoms: C_18  and  C_20
                            x       y       z     vdW  Elec       q    Type
                         _______ _______ _______ _____ _____    ______ ____

>  <TORSDO>
F 2

$$$$
=
 OpenBabel10232408193D

 32 37  0  0  1  0  0  0  0  0999 V2000
  187.0240  172.1640  134.7310 N   0  0  0  0  0  0  0  0  0  0  0  0
  187.2940  177.5560  136.8840 O   0  0  0  0  0  0  0  0  0  0  0  0
  183.4190  174.3220  135.6700 C   0  0  0  0  0  2  0  0  0  0  0  0
  182.7190  176.6120  135.9640 O   0  0  0  0  0  1  0  0  0  0  0  0
  189.0790  174.4590  136.1520 C   0  0  2  0  0  3  0  0  0  0  0  0
  189.1100  176.3490  137.7980 C   0  0  1  0  0  3  0  0  0  0  0  0
  184.1170  175.6430  137.5930 N   0  0  0  0  0  2  0  0  0  0  0  0
  190.2650  176.1560  138.4860 C   0  0  2  0  0  3  0  0  0  0  0  0
  184.2120  171.4480  136.1020 C   0  0  0  0  0  1  0  0  0  0  0  0
  185.5440  175.3080  137.6410 C   0  0  0  0  0  2  0  0  0  0  0  0
  184.6710  173.6990  135.2220 N   0  0  2  0  0  0  0  0  0  0  0  0
  186.5680  172.2710  136.1130 C   0  0  0  0  0  2  0  0  0  0  0  0
  185.0040  176.0600  135.4440 C   0  0  1  0  0  0  0  0  0  0  0  0
  185.1460  177.2330  134.4820 C   0  0  0  0  0  1  0  0  0  0  0  0
  192.6970  175.8020  138.2420 O   0  0  0  0  0  1  0  0  0  0  0  0
  188.1550  177.4830  138.0060 C   0  0  1  0  0  3  0  0  0  0  0  0
  190.5190  176.9330  139.7390 C   0  0  0  0  0  1  0  0  0  0  0  0
  186.1540  175.5430  136.2550 C   0  0  1  0  0  0  0  0  0  0  0  0
  183.7600  175.7070  136.1800 C   0  0  1  0  0  0  0  0  0  0  0  0
  191.2800  174.2380  137.2670 C   0  0  0  0  0  3  0  0  0  0  0  0
  188.4460  172.4770  134.7230 C   0  0  0  0  0  2  0  0  0  0  0  0
  191.4070  175.3590  137.9720 C   0  0  0  0  0  0  0  0  0  0  0  0
  187.4400  176.3720  136.1230 C   0  0  2  0  0  3  0  0  0  0  0  0
  185.0910  172.6840  136.2090 C   0  0  2  0  0  3  0  0  0  0  0  0
  188.6810  173.9870  134.7800 C   0  0  0  0  0  2  0  0  0  0  0  0
  189.9730  173.5920  136.9820 C   0  0  0  0  0  2  0  0  0  0  0  0
  185.6540  174.7840  134.9950 C   0  0  1  0  0  3  0  0  0  0  0  0
  188.6310  175.6340  136.6320 C   0  0  2  0  0  3  0  0  0  0  0  0
  188.9600  179.5780  137.1170 N   0  0  0  0  0  2  0  0  0  0  0  0
  188.8620  178.8000  138.1290 C   0  0  0  0  0  3  0  0  0  0  0  0
  186.9160  170.7670  134.3460 C   0  0  0  0  0  2  0  0  0  0  0  0
  187.6070  169.9750  135.2630 O   0  0  0  0  0  1  0  0  0  0  0  0
  1 12  1  0  0  0  0
  2 16  1  0  0  0  0
  3 19  1  0  0  0  0
  4 19  1  0  0  0  0
  5 25  1  1  0  0  0
  5 28  1  0  0  0  0
  5 26  1  0  0  0  0
  6 16  1  0  0  0  0
  6  8  1  0  0  0  0
  7 10  1  0  0  0  0
  8 17  1  0  0  0  0
  9 24  1  0  0  0  0
 11  3  1  0  0  0  0
 11 24  1  0  0  0  0
 12 24  1  0  0  0  0
 13 19  1  0  0  0  0
 13 18  1  0  0  0  0
 14 13  1  0  0  0  0
 16 30  1  0  0  0  0
 18 10  1  0  0  0  0
 19  7  1  0  0  0  0
 20 22  2  0  0  0  0
 21  1  1  0  0  0  0
 21 25  1  0  0  0  0
 22 15  1  0  0  0  0
 22  8  1  0  0  0  0
 23 18  1  0  0  0  0
 23 28  1  0  0  0  0
 23  2  1  0  0  0  0
 26 20  1  0  0  0  0
 27 11  1  0  0  0  0
 27 13  1  0  0  0  0
 27 18  1  0  0  0  0
 28  6  1  0  0  0  0
 29 30  2  0  0  0  0
 31  1  1  0  0  0  0
 31 32  1  0  0  0  0
M  END
>  <MODEL>
4

>  <REMARK>
 VINA RESULT:      -5.3      3.343      5.608
  Name = 
  2 active torsions:
  status: ('A' for Active; 'I' for Inactive)
    1  A    between atoms: N_2  and  C_14
    2  A    between atoms: C_18  and  C_20
                            x       y       z     vdW  Elec       q    Type
                         _______ _______ _______ _____ _____    ______ ____

>  <TORSDO>
F 2

$$$$
=
 OpenBabel10232408193D

 32 37  0  0  1  0  0  0  0  0999 V2000
  186.0570  177.4110  136.9980 N   0  0  0  0  0  0  0  0  0  0  0  0
  181.0980  178.6640  139.7570 O   0  0  0  0  0  0  0  0  0  0  0  0
  182.3440  175.6460  135.7210 C   0  0  0  0  0  2  0  0  0  0  0  0
  179.9820  176.0980  135.9050 O   0  0  0  0  0  1  0  0  0  0  0  0
  184.7450  178.7710  139.8150 C   0  0  2  0  0  3  0  0  0  0  0  0
  182.8050  178.5890  141.3910 C   0  0  1  0  0  3  0  0  0  0  0  0
  181.1510  175.4160  137.8310 N   0  0  0  0  0  2  0  0  0  0  0  0
  183.3720  178.7370  142.6160 C   0  0  2  0  0  3  0  0  0  0  0  0
  185.1160  174.5040  136.0190 C   0  0  0  0  0  1  0  0  0  0  0  0
  182.0920  176.0810  138.7410 C   0  0  0  0  0  2  0  0  0  0  0  0
  183.5480  176.3970  136.0990 N   0  0  2  0  0  0  0  0  0  0  0  0
  185.4880  176.2840  137.7280 C   0  0  0  0  0  2  0  0  0  0  0  0
  181.6140  177.5460  136.9220 C   0  0  1  0  0  0  0  0  0  0  0  0
  180.8490  178.8050  136.5310 C   0  0  0  0  0  1  0  0  0  0  0  0
  184.8480  180.1840  143.9690 O   0  0  0  0  0  1  0  0  0  0  0  0
  181.3410  178.4080  141.1280 C   0  0  1  0  0  3  0  0  0  0  0  0
  182.5750  178.4290  143.8440 C   0  0  0  0  0  1  0  0  0  0  0  0
  182.4360  177.4610  138.1730 C   0  0  1  0  0  0  0  0  0  0  0  0
  181.2040  176.1580  136.5770 C   0  0  1  0  0  0  0  0  0  0  0  0
  185.7360  179.2520  142.0330 C   0  0  0  0  0  3  0  0  0  0  0  0
  186.4440  178.4110  137.9840 C   0  0  0  0  0  2  0  0  0  0  0  0
  184.6880  179.3860  142.8410 C   0  0  0  0  0  0  0  0  0  0  0  0
  182.3370  178.7000  139.0750 C   0  0  2  0  0  3  0  0  0  0  0  0
  184.4300  175.5310  136.9060 C   0  0  2  0  0  3  0  0  0  0  0  0
  185.2340  179.2130  138.4630 C   0  0  0  0  0  2  0  0  0  0  0  0
  185.7480  178.3590  140.8460 C   0  0  0  0  0  2  0  0  0  0  0  0
  183.1060  177.6360  136.7820 C   0  0  1  0  0  3  0  0  0  0  0  0
  183.4280  178.7350  140.0920 C   0  0  2  0  0  3  0  0  0  0  0  0
  180.1350  180.4780  141.4240 N   0  0  0  0  0  2  0  0  0  0  0  0
  180.5040  179.3600  141.9290 C   0  0  0  0  0  3  0  0  0  0  0  0
  187.2920  176.9510  136.3840 C   0  0  0  0  0  2  0  0  0  0  0  0
  188.0840  176.3230  137.3440 O   0  0  0  0  0  1  0  0  0  0  0  0
  1 12  1  0  0  0  0
  1 21  1  0  0  0  0
  2 16  1  0  0  0  0
  3 11  1  0  0  0  0
  3 19  1  0  0  0  0
  4 19  1  0  0  0  0
  5 25  1  6  0  0  0
  5 28  1  0  0  0  0
  5 26  1  0  0  0  0
  6  8  1  0  0  0  0
  7 10  1  0  0  0  0
  8 22  1  0  0  0  0
  8 17  1  0  0  0  0
  9 24  1  0  0  0  0
 11 27  1  0  0  0  0
 11 24  1  0  0  0  0
 13 18  1  0  0  0  0
 14 13  1  0  0  0  0
 16  6  1  0  0  0  0
 16 30  1  0  0  0  0
 18 10  1  0  0  0  0
 18 23  1  0  0  0  0
 19 13  1  0  0  0  0
 19  7  1  0  0  0  0
 20 22  2  0  0  0  0
 21 25  1  0  0  0  0
 22 15  1  0  0  0  0
 23  2  1  0  0  0  0
 23 28  1  0  0  0  0
 24 12  1  0  0  0  0
 26 20  1  0  0  0  0
 27 13  1  0  0  0  0
 27 18  1  0  0  0  0
 28  6  1  0  0  0  0
 29 30  2  0  0  0  0
 31  1  1  0  0  0  0
 31 32  1  0  0  0  0
M  END
>  <MODEL>
5

>  <REMARK>
 VINA RESULT:      -5.3      4.518      6.173
  Name = 
  2 active torsions:
  status: ('A' for Active; 'I' for Inactive)
    1  A    between atoms: N_2  and  C_14
    2  A    between atoms: C_18  and  C_20
                            x       y       z     vdW  Elec       q    Type
                         _______ _______ _______ _____ _____    ______ ____

>  <TORSDO>
F 2

$$$$
=
 OpenBabel10232408193D

 32 37  0  0  1  0  0  0  0  0999 V2000
  189.2700  177.5250  138.8050 N   0  0  0  0  0  0  0  0  0  0  0  0
  190.4940  172.7630  135.7060 O   0  0  0  0  0  0  0  0  0  0  0  0
  186.3390  175.8470  136.1340 C   0  0  0  0  0  2  0  0  0  0  0  0
  185.8740  173.7290  135.0780 O   0  0  0  0  0  1  0  0  0  0  0  0
  191.7790  175.5050  137.7430 C   0  0  2  0  0  3  0  0  0  0  0  0
  192.4780  174.0440  135.8300 C   0  0  1  0  0  3  0  0  0  0  0  0
  187.7420  174.9640  134.3500 N   0  0  0  0  0  2  0  0  0  0  0  0
  193.7980  174.3240  135.6790 C   0  0  2  0  0  3  0  0  0  0  0  0
  187.1410  178.6940  136.7080 C   0  0  0  0  0  1  0  0  0  0  0  0
  189.0740  175.2210  134.9080 C   0  0  0  0  0  2  0  0  0  0  0  0
  187.3160  176.2800  137.1420 N   0  0  2  0  0  0  0  0  0  0  0  0
  189.3600  177.7640  137.3690 C   0  0  0  0  0  2  0  0  0  0  0  0
  187.7850  174.0170  136.5130 C   0  0  1  0  0  0  0  0  0  0  0  0
  187.6000  172.6490  137.1570 C   0  0  0  0  0  1  0  0  0  0  0  0
  195.9550  174.4740  136.8720 O   0  0  0  0  0  1  0  0  0  0  0  0
  191.7050  173.0430  135.0280 C   0  0  1  0  0  3  0  0  0  0  0  0
  194.5230  173.8410  134.4620 C   0  0  0  0  0  1  0  0  0  0  0  0
  189.1360  174.6410  136.3250 C   0  0  1  0  0  0  0  0  0  0  0  0
  186.8900  174.5990  135.4760 C   0  0  1  0  0  0  0  0  0  0  0  0
  194.2270  175.8500  137.5970 C   0  0  0  0  0  3  0  0  0  0  0  0
  190.5970  177.1390  139.2610 C   0  0  0  0  0  2  0  0  0  0  0  0
  194.6420  174.9150  136.7470 C   0  0  0  0  0  0  0  0  0  0  0  0
  190.3090  173.7310  136.7210 C   0  0  2  0  0  3  0  0  0  0  0  0
  188.0370  177.4680  136.6440 C   0  0  2  0  0  3  0  0  0  0  0  0
  190.8870  175.6720  138.9420 C   0  0  0  0  0  2  0  0  0  0  0  0
  192.8870  176.4870  137.5260 C   0  0  0  0  0  2  0  0  0  0  0  0
  188.1810  175.1180  137.4540 C   0  0  1  0  0  3  0  0  0  0  0  0
  191.5790  174.4980  136.8710 C   0  0  2  0  0  3  0  0  0  0  0  0
  191.8140  170.6580  134.6740 N   0  0  0  0  0  2  0  0  0  0  0  0
  192.4510  171.7510  134.8680 C   0  0  0  0  0  3  0  0  0  0  0  0
  188.9800  178.8010  139.4390 C   0  0  0  0  0  2  0  0  0  0  0  0
  187.7870  178.7070  140.1540 O   0  0  0  0  0  1  0  0  0  0  0  0
  1 21  1  0  0  0  0
  1 31  1  0  0  0  0
  2 23  1  0  0  0  0
  3 11  1  0  0  0  0
  4 19  1  0  0  0  0
  5 26  1  6  0  0  0
  5 25  1  0  0  0  0
  6 28  1  0  0  0  0
  7 10  1  0  0  0  0
  7 19  1  0  0  0  0
  8  6  1  0  0  0  0
  8 22  1  0  0  0  0
 10 18  1  0  0  0  0
 11 27  1  0  0  0  0
 12  1  1  0  0  0  0
 13 14  1  0  0  0  0
 13 27  1  0  0  0  0
 16  2  1  0  0  0  0
 16  6  1  0  0  0  0
 17  8  1  0  0  0  0
 18 13  1  0  0  0  0
 18 23  1  0  0  0  0
 18 27  1  0  0  0  0
 19  3  1  0  0  0  0
 19 13  1  0  0  0  0
 22 15  1  0  0  0  0
 22 20  2  0  0  0  0
 23 28  1  0  0  0  0
 24  9  1  0  0  0  0
 24 11  1  0  0  0  0
 24 12  1  0  0  0  0
 25 21  1  0  0  0  0
 26 20  1  0  0  0  0
 28  5  1  0  0  0  0
 29 30  2  0  0  0  0
 30 16  1  0  0  0  0
 31 32  1  0  0  0  0
M  END
>  <MODEL>
6

>  <REMARK>
 VINA RESULT:      -5.2      2.617      6.568
  Name = 
  2 active torsions:
  status: ('A' for Active; 'I' for Inactive)
    1  A    between atoms: N_2  and  C_14
    2  A    between atoms: C_18  and  C_20
                            x       y       z     vdW  Elec       q    Type
                         _______ _______ _______ _____ _____    ______ ____

>  <TORSDO>
F 2

$$$$
=
 OpenBabel10232408193D

 32 37  0  0  1  0  0  0  0  0999 V2000
  187.7580  174.9250  134.9020 N   0  0  0  0  0  0  0  0  0  0  0  0
  182.3840  175.1040  137.1070 O   0  0  0  0  0  0  0  0  0  0  0  0
  185.3890  171.3400  135.1720 C   0  0  0  0  0  2  0  0  0  0  0  0
  183.0620  170.7320  135.3480 O   0  0  0  0  0  1  0  0  0  0  0  0
  185.5830  176.8100  136.6960 C   0  0  2  0  0  3  0  0  0  0  0  0
  183.6920  176.6460  138.3330 C   0  0  1  0  0  3  0  0  0  0  0  0
  184.1050  171.7450  137.2000 N   0  0  0  0  0  2  0  0  0  0  0  0
  183.9500  177.6390  139.2210 C   0  0  2  0  0  3  0  0  0  0  0  0
  188.3040  171.8710  135.7220 C   0  0  0  0  0  1  0  0  0  0  0  0
  184.5230  173.1170  137.5100 C   0  0  0  0  0  2  0  0  0  0  0  0
  186.0870  172.6140  134.9600 N   0  0  2  0  0  0  0  0  0  0  0  0
  187.6200  174.2270  136.1750 C   0  0  0  0  0  2  0  0  0  0  0  0
  183.7490  173.0370  135.2570 C   0  0  1  0  0  0  0  0  0  0  0  0
  182.5890  173.4230  134.3460 C   0  0  0  0  0  1  0  0  0  0  0  0
  184.4470  180.0500  139.4300 O   0  0  0  0  0  1  0  0  0  0  0  0
  182.5030  175.7360  138.3690 C   0  0  1  0  0  3  0  0  0  0  0  0
  183.1850  177.7020  140.5060 C   0  0  0  0  0  1  0  0  0  0  0  0
  184.3290  173.9850  136.2630 C   0  0  1  0  0  0  0  0  0  0  0  0
  184.0250  171.6600  135.7470 C   0  0  1  0  0  0  0  0  0  0  0  0
  185.9280  178.7500  138.1970 C   0  0  0  0  0  3  0  0  0  0  0  0
  187.5290  176.3390  135.1590 C   0  0  0  0  0  2  0  0  0  0  0  0
  184.8140  178.8090  138.9220 C   0  0  0  0  0  0  0  0  0  0  0  0
  183.5770  175.3200  136.3770 C   0  0  2  0  0  3  0  0  0  0  0  0
  187.1210  172.7840  136.0000 C   0  0  2  0  0  3  0  0  0  0  0  0
  186.0360  176.6470  135.2710 C   0  0  0  0  0  2  0  0  0  0  0  0
  186.4980  177.4830  137.6710 C   0  0  0  0  0  2  0  0  0  0  0  0
  185.0620  173.6850  134.9260 C   0  0  1  0  0  3  0  0  0  0  0  0
  184.3820  176.3510  137.0940 C   0  0  2  0  0  3  0  0  0  0  0  0
  180.6880  177.1820  137.7040 N   0  0  0  0  0  2  0  0  0  0  0  0
  181.2290  176.4830  138.6300 C   0  0  0  0  0  3  0  0  0  0  0  0
  189.1480  174.8080  134.4930 C   0  0  0  0  0  2  0  0  0  0  0  0
  189.8610  175.9190  134.9420 O   0  0  0  0  0  1  0  0  0  0  0  0
  1 21  1  0  0  0  0
  1 12  1  0  0  0  0
  2 16  1  0  0  0  0
  3 19  1  0  0  0  0
  4 19  1  0  0  0  0
  5 25  1  1  0  0  0
  5 28  1  0  0  0  0
  5 26  1  0  0  0  0
  6 16  1  0  0  0  0
  6  8  1  0  0  0  0
  7 10  1  0  0  0  0
  8 17  1  0  0  0  0
  9 24  1  0  0  0  0
 11  3  1  0  0  0  0
 11 24  1  0  0  0  0
 13 19  1  0  0  0  0
 13 18  1  0  0  0  0
 14 13  1  0  0  0  0
 16 30  1  0  0  0  0
 18 23  1  0  0  0  0
 18 10  1  0  0  0  0
 19  7  1  0  0  0  0
 20 22  2  0  0  0  0
 21 25  1  0  0  0  0
 22  8  1  0  0  0  0
 22 15  1  0  0  0  0
 23 28  1  0  0  0  0
 23  2  1  0  0  0  0
 24 12  1  0  0  0  0
 26 20  1  0  0  0  0
 27 11  1  0  0  0  0
 27 13  1  0  0  0  0
 27 18  1  0  0  0  0
 28  6  1  0  0  0  0
 29 30  2  0  0  0  0
 31  1  1  0  0  0  0
 31 32  1  0  0  0  0
M  END
>  <MODEL>
7

>  <REMARK>
 VINA RESULT:      -5.1      4.486      6.163
  Name = 
  2 active torsions:
  status: ('A' for Active; 'I' for Inactive)
    1  A    between atoms: N_2  and  C_14
    2  A    between atoms: C_18  and  C_20
                            x       y       z     vdW  Elec       q    Type
                         _______ _______ _______ _____ _____    ______ ____

>  <TORSDO>
F 2

$$$$
=
 OpenBabel10232408193D

 32 37  0  0  1  0  0  0  0  0999 V2000
  184.0210  172.4770  135.3560 N   0  0  0  0  0  0  0  0  0  0  0  0
  186.5920  177.6220  136.1920 O   0  0  0  0  0  0  0  0  0  0  0  0
  181.6890  175.9320  136.4330 C   0  0  0  0  0  2  0  0  0  0  0  0
  181.8870  178.3340  136.3410 O   0  0  0  0  0  1  0  0  0  0  0  0
  187.0050  174.0130  135.8460 C   0  0  2  0  0  3  0  0  0  0  0  0
  188.0690  175.9640  137.0050 C   0  0  1  0  0  3  0  0  0  0  0  0
  183.2390  177.1510  137.8620 N   0  0  0  0  0  2  0  0  0  0  0  0
  189.2250  175.4520  137.4990 C   0  0  2  0  0  3  0  0  0  0  0  0
  181.5610  173.0600  137.3330 C   0  0  0  0  0  1  0  0  0  0  0  0
  184.4380  176.3170  137.7250 C   0  0  0  0  0  2  0  0  0  0  0  0
  182.5110  174.8310  135.9150 N   0  0  2  0  0  0  0  0  0  0  0  0
  183.9820  172.9380  136.7390 C   0  0  0  0  0  2  0  0  0  0  0  0
  183.6540  176.9030  135.5510 C   0  0  1  0  0  0  0  0  0  0  0  0
  183.9360  177.7930  134.3460 C   0  0  0  0  0  1  0  0  0  0  0  0
  191.2610  174.1860  136.9050 O   0  0  0  0  0  1  0  0  0  0  0  0
  187.6280  177.3900  137.1290 C   0  0  1  0  0  3  0  0  0  0  0  0
  190.0250  176.2440  138.4850 C   0  0  0  0  0  1  0  0  0  0  0  0
  184.7290  176.1130  136.2350 C   0  0  1  0  0  0  0  0  0  0  0  0
  182.5860  177.1460  136.5580 C   0  0  1  0  0  0  0  0  0  0  0  0
  189.2100  173.1450  136.5670 C   0  0  0  0  0  3  0  0  0  0  0  0
  185.4170  172.2320  135.0230 C   0  0  0  0  0  2  0  0  0  0  0  0
  189.8730  174.2240  136.9740 C   0  0  0  0  0  0  0  0  0  0  0  0
  186.1430  176.3760  135.6950 C   0  0  2  0  0  3  0  0  0  0  0  0
  182.7990  173.8810  137.0080 C   0  0  2  0  0  3  0  0  0  0  0  0
  186.1470  173.5370  134.7060 C   0  0  0  0  0  2  0  0  0  0  0  0
  187.7350  172.9990  136.6710 C   0  0  0  0  0  2  0  0  0  0  0  0
  183.7110  175.4270  135.2820 C   0  0  1  0  0  3  0  0  0  0  0  0
  187.1070  175.3250  136.1300 C   0  0  2  0  0  3  0  0  0  0  0  0
  188.7350  179.5240  137.3460 N   0  0  0  0  0  2  0  0  0  0  0  0
  188.7400  178.3520  136.8310 C   0  0  0  0  0  3  0  0  0  0  0  0
  183.3620  171.1820  135.3120 C   0  0  0  0  0  2  0  0  0  0  0  0
  183.7070  170.4450  136.4440 O   0  0  0  0  0  1  0  0  0  0  0  0
  1 12  1  0  0  0  0
  2 16  1  0  0  0  0
  3 19  1  0  0  0  0
  4 19  1  0  0  0  0
  5 25  1  1  0  0  0
  5 28  1  0  0  0  0
  5 26  1  0  0  0  0
  6 16  1  0  0  0  0
  6  8  1  0  0  0  0
  8 17  1  0  0  0  0
 10  7  1  0  0  0  0
 11  3  1  0  0  0  0
 11 24  1  0  0  0  0
 12 24  1  0  0  0  0
 13 18  1  0  0  0  0
 13 19  1  0  0  0  0
 14 13  1  0  0  0  0
 15 22  1  0  0  0  0
 18 10  1  0  0  0  0
 19  7  1  0  0  0  0
 20 26  1  0  0  0  0
 20 22  2  0  0  0  0
 21  1  1  0  0  0  0
 22  8  1  0  0  0  0
 23 28  1  0  0  0  0
 23  2  1  0  0  0  0
 23 18  1  0  0  0  0
 24  9  1  0  0  0  0
 25 21  1  0  0  0  0
 27 13  1  0  0  0  0
 27 11  1  0  0  0  0
 27 18  1  0  0  0  0
 28  6  1  0  0  0  0
 30 16  1  0  0  0  0
 30 29  2  0  0  0  0
 31  1  1  0  0  0  0
 31 32  1  0  0  0  0
M  END
>  <MODEL>
8

>  <REMARK>
 VINA RESULT:      -5.0      4.194      6.991
  Name = 
  2 active torsions:
  status: ('A' for Active; 'I' for Inactive)
    1  A    between atoms: N_2  and  C_14
    2  A    between atoms: C_18  and  C_20
                            x       y       z     vdW  Elec       q    Type
                         _______ _______ _______ _____ _____    ______ ____

>  <TORSDO>
F 2

$$$$
=
 OpenBabel10232408193D

 32 37  0  0  1  0  0  0  0  0999 V2000
  185.8770  178.8330  145.2080 N   0  0  0  0  0  0  0  0  0  0  0  0
  189.3020  178.3410  140.5380 O   0  0  0  0  0  0  0  0  0  0  0  0
  189.7500  176.9790  145.5280 C   0  0  0  0  0  2  0  0  0  0  0  0
  191.8400  176.9630  144.3240 O   0  0  0  0  0  1  0  0  0  0  0  0
  185.9530  179.0130  141.8220 C   0  0  2  0  0  3  0  0  0  0  0  0
  187.0750  178.0360  139.8050 C   0  0  1  0  0  3  0  0  0  0  0  0
  189.9710  175.9120  143.3510 N   0  0  0  0  0  2  0  0  0  0  0  0
  186.0610  177.8850  138.9160 C   0  0  2  0  0  3  0  0  0  0  0  0
  187.0740  176.2650  146.7150 C   0  0  0  0  0  1  0  0  0  0  0  0
  188.7560  176.4020  142.6910 C   0  0  0  0  0  2  0  0  0  0  0  0
  188.5130  177.7590  145.3920 N   0  0  2  0  0  0  0  0  0  0  0  0
  186.0750  177.4570  144.7640 C   0  0  0  0  0  2  0  0  0  0  0  0
  189.9660  178.2640  143.5570 C   0  0  1  0  0  0  0  0  0  0  0  0
  190.8500  179.4410  143.1630 C   0  0  0  0  0  1  0  0  0  0  0  0
  184.1920  179.0550  137.8020 O   0  0  0  0  0  1  0  0  0  0  0  0
  188.5140  177.7130  139.5440 C   0  0  1  0  0  3  0  0  0  0  0  0
  186.2800  177.0830  137.6710 C   0  0  0  0  0  1  0  0  0  0  0  0
  188.7020  177.9270  142.8230 C   0  0  1  0  0  0  0  0  0  0  0  0
  190.4510  177.0070  144.1860 C   0  0  1  0  0  0  0  0  0  0  0  0
  184.1530  178.9310  140.1230 C   0  0  0  0  0  3  0  0  0  0  0  0
  185.1420  179.5230  144.1570 C   0  0  0  0  0  2  0  0  0  0  0  0
  184.7820  178.6350  138.9890 C   0  0  0  0  0  0  0  0  0  0  0  0
  188.4510  178.7890  141.5760 C   0  0  2  0  0  3  0  0  0  0  0  0
  187.3590  176.8380  145.3360 C   0  0  2  0  0  3  0  0  0  0  0  0
  186.0680  179.9280  143.0100 C   0  0  0  0  0  2  0  0  0  0  0  0
  184.6070  178.4680  141.4590 C   0  0  0  0  0  2  0  0  0  0  0  0
  188.6630  178.6340  144.2060 C   0  0  1  0  0  3  0  0  0  0  0  0
  187.0410  178.6800  141.1020 C   0  0  2  0  0  3  0  0  0  0  0  0
  188.9800  179.4750  137.9610 N   0  0  0  0  0  2  0  0  0  0  0  0
  188.9720  178.2190  138.2080 C   0  0  0  0  0  3  0  0  0  0  0  0
  184.9920  178.7930  146.3600 C   0  0  0  0  0  2  0  0  0  0  0  0
  185.6070  179.4190  147.4430 O   0  0  0  0  0  1  0  0  0  0  0  0
  1 31  1  0  0  0  0
  2 23  1  0  0  0  0
  5 26  1  1  0  0  0
  5 25  1  0  0  0  0
  6 28  1  0  0  0  0
  7 19  1  0  0  0  0
  8 22  1  0  0  0  0
  8  6  1  0  0  0  0
 10 18  1  0  0  0  0
 10  7  1  0  0  0  0
 11  3  1  0  0  0  0
 12  1  1  0  0  0  0
 12 24  1  0  0  0  0
 13 19  1  0  0  0  0
 13 27  1  0  0  0  0
 14 13  1  0  0  0  0
 15 22  1  0  0  0  0
 16  6  1  0  0  0  0
 16  2  1  0  0  0  0
 17  8  1  0  0  0  0
 18 13  1  0  0  0  0
 18 27  1  0  0  0  0
 19  4  1  0  0  0  0
 19  3  1  0  0  0  0
 20 26  1  0  0  0  0
 21  1  1  0  0  0  0
 22 20  2  0  0  0  0
 23 18  1  0  0  0  0
 24 11  1  0  0  0  0
 24  9  1  0  0  0  0
 25 21  1  0  0  0  0
 27 11  1  0  0  0  0
 28 23  1  0  0  0  0
 28  5  1  0  0  0  0
 29 30  2  0  0  0  0
 30 16  1  0  0  0  0
 31 32  1  0  0  0  0
M  END
>  <MODEL>
9

>  <REMARK>
 VINA RESULT:      -5.0      3.095      7.678
  Name = 
  2 active torsions:
  status: ('A' for Active; 'I' for Inactive)
    1  A    between atoms: N_2  and  C_14
    2  A    between atoms: C_18  and  C_20
                            x       y       z     vdW  Elec       q    Type
                         _______ _______ _______ _____ _____    ______ ____

>  <TORSDO>
F 2

$$$$
