=
 OpenBabel10232409343D

 33 36  0  0  1  0  0  0  0  0999 V2000
  187.3150  178.2610  147.4420 C   0  0  0  0  0  0  0  0  0  0  0  0
  186.3350  177.5770  142.8100 C   0  0  0  0  0  2  0  0  0  0  0  0
  185.2540  178.7290  146.2310 C   0  0  0  0  0  3  0  0  0  0  0  0
  187.4990  177.3770  143.7300 C   0  0  0  0  0  0  0  0  0  0  0  0
  188.0410  178.2600  148.6360 C   0  0  0  0  0  3  0  0  0  0  0  0
  185.2380  178.1890  143.7020 C   0  0  1  0  0  3  0  0  0  0  0  0
  189.9580  177.3290  147.4770 C   0  0  0  0  0  0  0  0  0  0  0  0
  189.3600  177.7940  148.6530 C   0  0  0  0  0  3  0  0  0  0  0  0
  191.6080  176.7490  147.5060 Cl  0  0  0  0  0  0  0  0  0  0  0  0
  185.9890  178.7260  147.4260 C   0  0  0  0  0  3  0  0  0  0  0  0
  187.1580  177.8050  145.0700 C   0  0  0  0  0  0  0  0  0  0  0  0
  188.6490  176.8850  143.3900 N   0  0  0  0  0  0  0  0  0  0  0  0
  185.8630  178.2680  145.0620 C   0  0  0  0  0  0  0  0  0  0  0  0
  187.9190  177.7890  146.2480 C   0  0  0  0  0  0  0  0  0  0  0  0
  189.2400  177.3250  146.2780 C   0  0  0  0  0  3  0  0  0  0  0  0
  184.9180  179.5230  143.2220 N   0  0  0  0  0  2  0  0  0  0  0  0
  183.4900  178.6980  140.9780 O   0  0  0  0  0  0  0  0  0  0  0  0
  185.4150  179.6180  141.9150 N   0  0  0  0  0  2  0  0  0  0  0  0
  184.6420  179.1800  140.8010 C   0  0  0  0  0  0  0  0  0  0  0  0
  185.1840  179.2880  139.4860 N   0  0  0  0  0  2  0  0  0  0  0  0
  184.4440  178.8610  138.3080 C   0  0  0  0  0  2  0  0  0  0  0  0
  184.3860  177.2400  136.5010 N   0  0  0  0  0  1  0  0  0  0  0  0
  185.0510  177.5880  137.7440 C   0  0  1  0  0  3  0  0  0  0  0  0
  187.0000  178.9420  136.9800 O   0  0  0  0  0  0  0  0  0  0  0  0
  186.5190  177.7520  137.5080 C   0  0  0  0  0  0  0  0  0  0  0  0
  187.3210  176.8160  137.7720 O   0  0  0  0  0  1  0  0  0  0  0  0
  188.9590  176.4590  142.0330 C   0  0  0  0  0  2  0  0  0  0  0  0
  191.3980  177.1660  141.8000 C   0  0  0  0  0  2  0  0  0  0  0  0
  192.0000  176.9430  139.3700 C   0  0  0  0  0  2  0  0  0  0  0  0
  192.3480  177.6200  140.6990 C   0  0  0  0  0  2  0  0  0  0  0  0
  189.7280  177.5350  139.9730 O   0  0  0  0  0  0  0  0  0  0  0  0
  189.9400  177.4250  141.3750 C   0  0  1  0  0  3  0  0  0  0  0  0
  190.5140  176.5780  139.2960 C   0  0  0  0  0  2  0  0  0  0  0  0
  1  5  1  0  0  0  0
  2  6  1  0  0  0  0
  2  4  1  0  0  0  0
  3 10  1  0  0  0  0
  4 11  1  0  0  0  0
  5  8  2  0  0  0  0
  6 16  1  6  0  0  0
  6 13  1  0  0  0  0
  7  9  1  0  0  0  0
  7  8  1  0  0  0  0
 10  1  2  0  0  0  0
 11 14  2  0  0  0  0
 12  4  2  0  0  0  0
 13 11  1  0  0  0  0
 13  3  2  0  0  0  0
 14 15  1  0  0  0  0
 14  1  1  0  0  0  0
 15  7  2  0  0  0  0
 18 16  1  0  0  0  0
 19 17  2  0  0  0  0
 19 18  1  0  0  0  0
 20 19  1  0  0  0  0
 21 20  1  0  0  0  0
 23 22  1  6  0  0  0
 23 21  1  0  0  0  0
 24 25  2  0  0  0  0
 25 23  1  0  0  0  0
 25 26  1  0  0  0  0
 27 12  1  0  0  0  0
 29 30  1  0  0  0  0
 30 28  1  0  0  0  0
 31 32  1  0  0  0  0
 32 28  1  0  0  0  0
 32 27  1  6  0  0  0
 33 29  1  0  0  0  0
 33 31  1  0  0  0  0
M  END
>  <MODEL>
1

>  <REMARK>
 VINA RESULT:      -9.8      0.000      0.000
  Name = 
  7 active torsions:
  status: ('A' for Active; 'I' for Inactive)
    1  A    between atoms: C_10  and  N_24
    2  A    between atoms: C_11  and  CA_30
    3  A    between atoms: N_20  and  N_24
    4  A    between atoms: N_21  and  C_25
    5  A    between atoms: C_23  and  C_25
    6  A    between atoms: CA_30  and  C_32
    7  A    between atoms: N_31  and  C_32
                            x       y       z     vdW  Elec       q    Type
                         _______ _______ _______ _____ _____    ______ ____

>  <TORSDO>
F 7

$$$$
=
 OpenBabel10232409343D

 33 36  0  0  1  0  0  0  0  0999 V2000
  187.2490  178.2890  147.2780 C   0  0  0  0  0  0  0  0  0  0  0  0
  186.4920  177.5210  142.6170 C   0  0  0  0  0  2  0  0  0  0  0  0
  185.2560  178.7530  145.9570 C   0  0  0  0  0  3  0  0  0  0  0  0
  187.6070  177.3290  143.5970 C   0  0  0  0  0  0  0  0  0  0  0  0
  187.9160  178.3050  148.5060 C   0  0  0  0  0  3  0  0  0  0  0  0
  185.3580  178.1620  143.4420 C   0  0  1  0  0  3  0  0  0  0  0  0
  189.8770  177.3320  147.4610 C   0  0  0  0  0  0  0  0  0  0  0  0
  189.2270  177.8270  148.5970 C   0  0  0  0  0  3  0  0  0  0  0  0
  191.5170  176.7360  147.5830 Cl  0  0  0  0  0  0  0  0  0  0  0  0
  185.9310  178.7660  147.1870 C   0  0  0  0  0  3  0  0  0  0  0  0
  187.2050  177.7870  144.9100 C   0  0  0  0  0  0  0  0  0  0  0  0
  188.7660  176.8180  143.3240 N   0  0  0  0  0  0  0  0  0  0  0  0
  185.9170  178.2620  144.8280 C   0  0  0  0  0  0  0  0  0  0  0  0
  187.9070  177.7870  146.1250 C   0  0  0  0  0  0  0  0  0  0  0  0
  189.2190  177.3110  146.2290 C   0  0  0  0  0  3  0  0  0  0  0  0
  185.0770  179.4900  142.9200 N   0  0  0  0  0  2  0  0  0  0  0  0
  183.0550  178.6010  141.2220 O   0  0  0  0  0  0  0  0  0  0  0  0
  185.2160  179.4200  141.5270 N   0  0  0  0  0  2  0  0  0  0  0  0
  184.1490  178.9570  140.7040 C   0  0  0  0  0  0  0  0  0  0  0  0
  184.3310  178.8960  139.2900 N   0  0  0  0  0  2  0  0  0  0  0  0
  183.2790  178.4350  138.3960 C   0  0  0  0  0  2  0  0  0  0  0  0
  185.1830  177.1950  137.5380 N   0  0  0  0  0  1  0  0  0  0  0  0
  183.7360  177.1910  137.6530 C   0  0  1  0  0  3  0  0  0  0  0  0
  183.7600  174.7150  137.9380 O   0  0  0  0  0  0  0  0  0  0  0  0
  183.2850  175.9500  138.3550 C   0  0  0  0  0  0  0  0  0  0  0  0
  182.4690  176.0150  139.3140 O   0  0  0  0  0  1  0  0  0  0  0  0
  189.1380  176.3620  141.9930 C   0  0  0  0  0  2  0  0  0  0  0  0
  191.5460  177.1560  141.7140 C   0  0  0  0  0  2  0  0  0  0  0  0
  192.1060  176.9640  139.2720 C   0  0  0  0  0  2  0  0  0  0  0  0
  192.4570  177.6470  140.5970 C   0  0  0  0  0  2  0  0  0  0  0  0
  189.8280  177.4730  139.9230 O   0  0  0  0  0  0  0  0  0  0  0  0
  190.0710  177.3650  141.3200 C   0  0  1  0  0  3  0  0  0  0  0  0
  190.6330  176.5470  139.2260 C   0  0  0  0  0  2  0  0  0  0  0  0
  1  5  1  0  0  0  0
  2  6  1  0  0  0  0
  2  4  1  0  0  0  0
  3 10  1  0  0  0  0
  4 11  1  0  0  0  0
  5  8  2  0  0  0  0
  6 16  1  6  0  0  0
  6 13  1  0  0  0  0
  7  9  1  0  0  0  0
  7  8  1  0  0  0  0
 10  1  2  0  0  0  0
 11 14  2  0  0  0  0
 12  4  2  0  0  0  0
 13 11  1  0  0  0  0
 13  3  2  0  0  0  0
 14 15  1  0  0  0  0
 14  1  1  0  0  0  0
 15  7  2  0  0  0  0
 18 16  1  0  0  0  0
 19 17  2  0  0  0  0
 19 18  1  0  0  0  0
 20 19  1  0  0  0  0
 21 20  1  0  0  0  0
 23 22  1  1  0  0  0
 23 25  1  0  0  0  0
 23 21  1  0  0  0  0
 24 25  2  0  0  0  0
 25 26  1  0  0  0  0
 27 12  1  0  0  0  0
 29 30  1  0  0  0  0
 30 28  1  0  0  0  0
 31 32  1  0  0  0  0
 32 28  1  0  0  0  0
 32 27  1  6  0  0  0
 33 29  1  0  0  0  0
 33 31  1  0  0  0  0
M  END
>  <MODEL>
2

>  <REMARK>
 VINA RESULT:      -9.7      1.180      1.537
  Name = 
  7 active torsions:
  status: ('A' for Active; 'I' for Inactive)
    1  A    between atoms: C_10  and  N_24
    2  A    between atoms: C_11  and  CA_30
    3  A    between atoms: N_20  and  N_24
    4  A    between atoms: N_21  and  C_25
    5  A    between atoms: C_23  and  C_25
    6  A    between atoms: CA_30  and  C_32
    7  A    between atoms: N_31  and  C_32
                            x       y       z     vdW  Elec       q    Type
                         _______ _______ _______ _____ _____    ______ ____

>  <TORSDO>
F 7

$$$$
=
 OpenBabel10232409343D

 33 36  0  0  1  0  0  0  0  0999 V2000
  190.5840  177.2540  144.6040 C   0  0  0  0  0  0  0  0  0  0  0  0
  188.4500  177.9970  140.3880 C   0  0  0  0  0  2  0  0  0  0  0  0
  191.5530  177.1970  142.3710 C   0  0  0  0  0  3  0  0  0  0  0  0
  188.0550  177.9720  141.8320 C   0  0  0  0  0  0  0  0  0  0  0  0
  190.7310  177.1350  145.9890 C   0  0  0  0  0  3  0  0  0  0  0  0
  189.9530  177.6570  140.3920 C   0  0  1  0  0  3  0  0  0  0  0  0
  188.3700  177.6060  146.2870 C   0  0  0  0  0  0  0  0  0  0  0  0
  189.6260  177.3110  146.8290 C   0  0  0  0  0  3  0  0  0  0  0  0
  186.9930  177.8250  147.3440 Cl  0  0  0  0  0  0  0  0  0  0  0  0
  191.6940  177.0800  143.7610 C   0  0  0  0  0  3  0  0  0  0  0  0
  189.2020  177.6640  142.6600 C   0  0  0  0  0  0  0  0  0  0  0  0
  186.8640  178.2010  142.2890 N   0  0  0  0  0  0  0  0  0  0  0  0
  190.2930  177.4860  141.8410 C   0  0  0  0  0  0  0  0  0  0  0  0
  189.3100  177.5530  144.0540 C   0  0  0  0  0  0  0  0  0  0  0  0
  188.2120  177.7280  144.9040 C   0  0  0  0  0  3  0  0  0  0  0  0
  190.1640  176.4070  139.6790 N   0  0  0  0  0  2  0  0  0  0  0  0
  191.1810  174.4330  137.9990 O   0  0  0  0  0  0  0  0  0  0  0  0
  191.4130  176.4990  139.0520 N   0  0  0  0  0  2  0  0  0  0  0  0
  191.8870  175.4580  138.2010 C   0  0  0  0  0  0  0  0  0  0  0  0
  193.1680  175.5870  137.5840 N   0  0  0  0  0  2  0  0  0  0  0  0
  193.7060  174.5610  136.7040 C   0  0  0  0  0  2  0  0  0  0  0  0
  195.8660  175.6530  136.5090 N   0  0  0  0  0  1  0  0  0  0  0  0
  195.2040  174.4260  136.9150 C   0  0  1  0  0  3  0  0  0  0  0  0
  195.1650  172.8970  138.8840 O   0  0  0  0  0  0  0  0  0  0  0  0
  195.5200  174.1260  138.3460 C   0  0  0  0  0  0  0  0  0  0  0  0
  196.0950  174.9830  139.0690 O   0  0  0  0  0  1  0  0  0  0  0  0
  185.7320  178.5130  141.4290 C   0  0  0  0  0  2  0  0  0  0  0  0
  183.2980  178.6320  142.1820 C   0  0  0  0  0  2  0  0  0  0  0  0
  183.3090  178.7240  144.6930 C   0  0  0  0  0  2  0  0  0  0  0  0
  182.5130  179.0360  143.4230 C   0  0  0  0  0  2  0  0  0  0  0  0
  185.1410  179.7310  143.4690 O   0  0  0  0  0  0  0  0  0  0  0  0
  184.6800  179.3140  142.1900 C   0  0  1  0  0  3  0  0  0  0  0  0
  184.8190  178.7550  144.4340 C   0  0  0  0  0  2  0  0  0  0  0  0
  1  5  1  0  0  0  0
  2  6  1  0  0  0  0
  2  4  1  0  0  0  0
  3 10  1  0  0  0  0
  4 12  2  0  0  0  0
  4 11  1  0  0  0  0
  5  8  2  0  0  0  0
  6 16  1  6  0  0  0
  6 13  1  0  0  0  0
  7  8  1  0  0  0  0
  7  9  1  0  0  0  0
 10  1  2  0  0  0  0
 11 14  2  0  0  0  0
 13  3  2  0  0  0  0
 13 11  1  0  0  0  0
 14  1  1  0  0  0  0
 14 15  1  0  0  0  0
 15  7  2  0  0  0  0
 17 19  2  0  0  0  0
 18 16  1  0  0  0  0
 19 18  1  0  0  0  0
 20 19  1  0  0  0  0
 21 23  1  0  0  0  0
 21 20  1  0  0  0  0
 23 22  1  1  0  0  0
 23 25  1  0  0  0  0
 25 24  2  0  0  0  0
 25 26  1  0  0  0  0
 27 12  1  0  0  0  0
 28 32  1  0  0  0  0
 28 30  1  0  0  0  0
 30 29  1  0  0  0  0
 31 33  1  0  0  0  0
 32 27  1  1  0  0  0
 32 31  1  0  0  0  0
 33 29  1  0  0  0  0
M  END
>  <MODEL>
3

>  <REMARK>
 VINA RESULT:      -9.5      3.750      7.153
  Name = 
  7 active torsions:
  status: ('A' for Active; 'I' for Inactive)
    1  A    between atoms: C_10  and  N_24
    2  A    between atoms: C_11  and  CA_30
    3  A    between atoms: N_20  and  N_24
    4  A    between atoms: N_21  and  C_25
    5  A    between atoms: C_23  and  C_25
    6  A    between atoms: CA_30  and  C_32
    7  A    between atoms: N_31  and  C_32
                            x       y       z     vdW  Elec       q    Type
                         _______ _______ _______ _____ _____    ______ ____

>  <TORSDO>
F 7

$$$$
=
 OpenBabel10232409343D

 33 36  0  0  1  0  0  0  0  0999 V2000
  190.6980  177.1470  144.1520 C   0  0  0  0  0  0  0  0  0  0  0  0
  188.1810  178.2940  140.2490 C   0  0  0  0  0  2  0  0  0  0  0  0
  191.4330  177.2340  141.8310 C   0  0  0  0  0  3  0  0  0  0  0  0
  187.9340  178.1680  141.7200 C   0  0  0  0  0  0  0  0  0  0  0  0
  190.9800  176.9140  145.5010 C   0  0  0  0  0  3  0  0  0  0  0  0
  189.6600  177.9030  140.0710 C   0  0  1  0  0  3  0  0  0  0  0  0
  188.6840  177.4400  146.0790 C   0  0  0  0  0  0  0  0  0  0  0  0
  189.9750  177.0610  146.4620 C   0  0  0  0  0  3  0  0  0  0  0  0
  187.4320  177.6220  147.2870 Cl  0  0  0  0  0  0  0  0  0  0  0  0
  191.7090  177.0020  143.1870 C   0  0  0  0  0  3  0  0  0  0  0  0
  189.1450  177.7570  142.3980 C   0  0  0  0  0  0  0  0  0  0  0  0
  186.8060  178.4000  142.3150 N   0  0  0  0  0  0  0  0  0  0  0  0
  190.1380  177.6070  141.4590 C   0  0  0  0  0  0  0  0  0  0  0  0
  189.3900  177.5320  143.7610 C   0  0  0  0  0  0  0  0  0  0  0  0
  188.3920  177.6760  144.7330 C   0  0  0  0  0  3  0  0  0  0  0  0
  189.7450  176.7070  139.2480 N   0  0  0  0  0  2  0  0  0  0  0  0
  190.8710  174.4440  138.0790 O   0  0  0  0  0  0  0  0  0  0  0  0
  191.0260  176.6900  138.6800 N   0  0  0  0  0  2  0  0  0  0  0  0
  191.5550  175.5030  138.0950 C   0  0  0  0  0  0  0  0  0  0  0  0
  192.8660  175.5250  137.5310 N   0  0  0  0  0  2  0  0  0  0  0  0
  193.4610  174.3480  136.9170 C   0  0  0  0  0  2  0  0  0  0  0  0
  195.4810  175.6810  136.7250 N   0  0  0  0  0  1  0  0  0  0  0  0
  194.9690  174.3730  137.0940 C   0  0  1  0  0  3  0  0  0  0  0  0
  195.3830  172.7360  138.9270 O   0  0  0  0  0  0  0  0  0  0  0  0
  195.3500  174.0570  138.5050 C   0  0  0  0  0  0  0  0  0  0  0  0
  195.6310  174.9810  139.3160 O   0  0  0  0  0  1  0  0  0  0  0  0
  185.6070  178.8180  141.6040 C   0  0  0  0  0  2  0  0  0  0  0  0
  183.7440  179.0610  143.3290 C   0  0  0  0  0  2  0  0  0  0  0  0
  181.5670  178.9900  142.0750 C   0  0  0  0  0  2  0  0  0  0  0  0
  182.2490  178.7870  143.4310 C   0  0  0  0  0  2  0  0  0  0  0  0
  183.4510  177.7160  141.2400 O   0  0  0  0  0  0  0  0  0  0  0  0
  184.3640  178.1850  142.2230 C   0  0  1  0  0  3  0  0  0  0  0  0
  182.5340  178.7370  140.9140 C   0  0  0  0  0  2  0  0  0  0  0  0
  1  5  1  0  0  0  0
  2  4  1  0  0  0  0
  3 10  1  0  0  0  0
  4 12  2  0  0  0  0
  4 11  1  0  0  0  0
  5  8  2  0  0  0  0
  6 16  1  6  0  0  0
  6  2  1  0  0  0  0
  6 13  1  0  0  0  0
  7  8  1  0  0  0  0
  7  9  1  0  0  0  0
 10  1  2  0  0  0  0
 11 14  2  0  0  0  0
 13  3  2  0  0  0  0
 13 11  1  0  0  0  0
 14  1  1  0  0  0  0
 14 15  1  0  0  0  0
 15  7  2  0  0  0  0
 17 19  2  0  0  0  0
 18 16  1  0  0  0  0
 19 18  1  0  0  0  0
 20 19  1  0  0  0  0
 21 23  1  0  0  0  0
 21 20  1  0  0  0  0
 23 22  1  1  0  0  0
 23 25  1  0  0  0  0
 25 24  2  0  0  0  0
 25 26  1  0  0  0  0
 27 12  1  0  0  0  0
 28 30  1  0  0  0  0
 29 30  1  0  0  0  0
 31 32  1  0  0  0  0
 32 27  1  6  0  0  0
 32 28  1  0  0  0  0
 33 31  1  0  0  0  0
 33 29  1  0  0  0  0
M  END
>  <MODEL>
4

>  <REMARK>
 VINA RESULT:      -9.5      3.699      7.164
  Name = 
  7 active torsions:
  status: ('A' for Active; 'I' for Inactive)
    1  A    between atoms: C_10  and  N_24
    2  A    between atoms: C_11  and  CA_30
    3  A    between atoms: N_20  and  N_24
    4  A    between atoms: N_21  and  C_25
    5  A    between atoms: C_23  and  C_25
    6  A    between atoms: CA_30  and  C_32
    7  A    between atoms: N_31  and  C_32
                            x       y       z     vdW  Elec       q    Type
                         _______ _______ _______ _____ _____    ______ ____

>  <TORSDO>
F 7

$$$$
=
 OpenBabel10232409343D

 33 36  0  0  1  0  0  0  0  0999 V2000
  189.1480  177.4820  145.5230 C   0  0  0  0  0  0  0  0  0  0  0  0
  188.3540  178.2730  140.8720 C   0  0  0  0  0  2  0  0  0  0  0  0
  190.7330  177.4420  143.6750 C   0  0  0  0  0  3  0  0  0  0  0  0
  187.5510  178.2360  142.1350 C   0  0  0  0  0  0  0  0  0  0  0  0
  188.8790  177.3510  146.8880 C   0  0  0  0  0  3  0  0  0  0  0  0
  189.7880  177.9260  141.3160 C   0  0  1  0  0  3  0  0  0  0  0  0
  186.5360  177.8290  146.4810 C   0  0  0  0  0  0  0  0  0  0  0  0
  187.5770  177.5240  147.3660 C   0  0  0  0  0  3  0  0  0  0  0  0
  184.9090  178.0440  147.0860 Cl  0  0  0  0  0  0  0  0  0  0  0  0
  190.4570  177.3110  145.0430 C   0  0  0  0  0  3  0  0  0  0  0  0
  188.4020  177.9160  143.2610 C   0  0  0  0  0  0  0  0  0  0  0  0
  186.2780  178.4650  142.2220 N   0  0  0  0  0  0  0  0  0  0  0  0
  189.6850  177.7410  142.7990 C   0  0  0  0  0  0  0  0  0  0  0  0
  188.0940  177.7920  144.6240 C   0  0  0  0  0  0  0  0  0  0  0  0
  186.7940  177.9630  145.1140 C   0  0  0  0  0  3  0  0  0  0  0  0
  190.1990  176.6820  140.6850 N   0  0  0  0  0  2  0  0  0  0  0  0
  190.6650  175.0910  138.4470 O   0  0  0  0  0  0  0  0  0  0  0  0
  191.1180  177.0160  139.6810 N   0  0  0  0  0  2  0  0  0  0  0  0
  191.3190  176.1640  138.5560 C   0  0  0  0  0  0  0  0  0  0  0  0
  192.2680  176.5360  137.5570 N   0  0  0  0  0  2  0  0  0  0  0  0
  192.5160  175.7120  136.3850 C   0  0  0  0  0  2  0  0  0  0  0  0
  194.6070  176.9200  136.1220 N   0  0  0  0  0  1  0  0  0  0  0  0
  194.0100  175.5960  136.1350 C   0  0  1  0  0  3  0  0  0  0  0  0
  193.9860  173.6640  137.7110 O   0  0  0  0  0  1  0  0  0  0  0  0
  194.6650  174.7530  137.1830 C   0  0  0  0  0  0  0  0  0  0  0  0
  195.8230  175.0290  137.5970 O   0  0  0  0  0  0  0  0  0  0  0  0
  185.4510  178.7900  141.0700 C   0  0  0  0  0  2  0  0  0  0  0  0
  183.2060  178.7890  142.2800 C   0  0  0  0  0  2  0  0  0  0  0  0
  181.4330  179.1740  140.5410 C   0  0  0  0  0  2  0  0  0  0  0  0
  181.7310  178.6190  141.9360 C   0  0  0  0  0  2  0  0  0  0  0  0
  183.4460  177.9730  139.9260 O   0  0  0  0  0  0  0  0  0  0  0  0
  184.0770  178.1360  141.1900 C   0  0  1  0  0  3  0  0  0  0  0  0
  182.6650  179.1120  139.6340 C   0  0  0  0  0  2  0  0  0  0  0  0
  1  5  1  0  0  0  0
  2  6  1  0  0  0  0
  2  4  1  0  0  0  0
  3 10  1  0  0  0  0
  4 12  2  0  0  0  0
  4 11  1  0  0  0  0
  5  8  2  0  0  0  0
  6 16  1  6  0  0  0
  6 13  1  0  0  0  0
  7  9  1  0  0  0  0
  7  8  1  0  0  0  0
 10  1  2  0  0  0  0
 11 14  2  0  0  0  0
 13 11  1  0  0  0  0
 13  3  2  0  0  0  0
 14 15  1  0  0  0  0
 14  1  1  0  0  0  0
 15  7  2  0  0  0  0
 17 19  2  0  0  0  0
 18 16  1  0  0  0  0
 19 18  1  0  0  0  0
 20 19  1  0  0  0  0
 21 20  1  0  0  0  0
 23 22  1  1  0  0  0
 23 21  1  0  0  0  0
 23 25  1  0  0  0  0
 25 26  2  0  0  0  0
 25 24  1  0  0  0  0
 27 12  1  0  0  0  0
 29 30  1  0  0  0  0
 30 28  1  0  0  0  0
 31 32  1  0  0  0  0
 32 27  1  6  0  0  0
 32 28  1  0  0  0  0
 33 31  1  0  0  0  0
 33 29  1  0  0  0  0
M  END
>  <MODEL>
5

>  <REMARK>
 VINA RESULT:      -9.2      3.529      6.666
  Name = 
  7 active torsions:
  status: ('A' for Active; 'I' for Inactive)
    1  A    between atoms: C_10  and  N_24
    2  A    between atoms: C_11  and  CA_30
    3  A    between atoms: N_20  and  N_24
    4  A    between atoms: N_21  and  C_25
    5  A    between atoms: C_23  and  C_25
    6  A    between atoms: CA_30  and  C_32
    7  A    between atoms: N_31  and  C_32
                            x       y       z     vdW  Elec       q    Type
                         _______ _______ _______ _____ _____    ______ ____

>  <TORSDO>
F 7

$$$$
=
 OpenBabel10232409343D

 33 36  0  0  1  0  0  0  0  0999 V2000
  184.7380  178.5130  145.1400 C   0  0  0  0  0  0  0  0  0  0  0  0
  186.6610  178.1940  140.7710 C   0  0  0  0  0  2  0  0  0  0  0  0
  183.6530  178.7490  142.9720 C   0  0  0  0  0  3  0  0  0  0  0  0
  187.1300  178.0980  142.1900 C   0  0  0  0  0  0  0  0  0  0  0  0
  184.6610  178.5040  146.5350 C   0  0  0  0  0  3  0  0  0  0  0  0
  185.1550  178.5010  140.8820 C   0  0  1  0  0  3  0  0  0  0  0  0
  187.0420  178.0570  146.6710 C   0  0  0  0  0  0  0  0  0  0  0  0
  185.8110  178.2760  147.2990 C   0  0  0  0  0  3  0  0  0  0  0  0
  188.4750  177.7740  147.6320 Cl  0  0  0  0  0  0  0  0  0  0  0  0
  183.5830  178.7380  144.3730 C   0  0  0  0  0  3  0  0  0  0  0  0
  186.0230  178.3070  143.0990 C   0  0  0  0  0  0  0  0  0  0  0  0
  188.3470  177.8550  142.5640 N   0  0  0  0  0  0  0  0  0  0  0  0
  184.8890  178.5350  142.3560 C   0  0  0  0  0  0  0  0  0  0  0  0
  185.9860  178.2910  144.5010 C   0  0  0  0  0  0  0  0  0  0  0  0
  187.1290  178.0640  145.2760 C   0  0  0  0  0  3  0  0  0  0  0  0
  184.8870  179.8050  140.2970 N   0  0  0  0  0  2  0  0  0  0  0  0
  182.1470  179.4470  139.9480 O   0  0  0  0  0  0  0  0  0  0  0  0
  184.2930  179.5790  139.0480 N   0  0  0  0  0  2  0  0  0  0  0  0
  182.8840  179.4010  138.9250 C   0  0  0  0  0  0  0  0  0  0  0  0
  182.3170  179.1690  137.6370 N   0  0  0  0  0  2  0  0  0  0  0  0
  180.8870  178.9820  137.4460 C   0  0  0  0  0  2  0  0  0  0  0  0
  181.6640  177.1510  136.0530 N   0  0  0  0  0  1  0  0  0  0  0  0
  180.6060  177.5730  136.9540 C   0  0  1  0  0  3  0  0  0  0  0  0
  180.9660  175.3170  137.9520 O   0  0  0  0  0  0  0  0  0  0  0  0
  180.5000  176.6160  138.0980 C   0  0  0  0  0  0  0  0  0  0  0  0
  179.9820  176.9750  139.1900 O   0  0  0  0  0  1  0  0  0  0  0  0
  189.4380  177.6450  141.6230 C   0  0  0  0  0  2  0  0  0  0  0  0
  190.7280  178.7430  143.5290 C   0  0  0  0  0  2  0  0  0  0  0  0
  191.6560  176.8920  144.9530 C   0  0  0  0  0  2  0  0  0  0  0  0
  191.7970  178.3610  144.5440 C   0  0  0  0  0  2  0  0  0  0  0  0
  191.4030  176.5330  142.5700 O   0  0  0  0  0  0  0  0  0  0  0  0
  190.7880  177.7900  142.3200 C   0  0  1  0  0  3  0  0  0  0  0  0
  191.0160  176.0560  143.8390 C   0  0  0  0  0  2  0  0  0  0  0  0
  1  5  1  0  0  0  0
  2  6  1  0  0  0  0
  2  4  1  0  0  0  0
  3 10  1  0  0  0  0
  4 12  2  0  0  0  0
  4 11  1  0  0  0  0
  5  8  2  0  0  0  0
  6 16  1  1  0  0  0
  6 13  1  0  0  0  0
  7  8  1  0  0  0  0
  7  9  1  0  0  0  0
 10  1  2  0  0  0  0
 11 14  2  0  0  0  0
 13  3  2  0  0  0  0
 13 11  1  0  0  0  0
 14  1  1  0  0  0  0
 14 15  1  0  0  0  0
 15  7  2  0  0  0  0
 18 16  1  0  0  0  0
 19 18  1  0  0  0  0
 19 17  2  0  0  0  0
 20 19  1  0  0  0  0
 21 20  1  0  0  0  0
 23 22  1  6  0  0  0
 23 21  1  0  0  0  0
 23 25  1  0  0  0  0
 24 25  2  0  0  0  0
 25 26  1  0  0  0  0
 27 12  1  0  0  0  0
 28 30  1  0  0  0  0
 30 29  1  0  0  0  0
 31 33  1  0  0  0  0
 32 27  1  1  0  0  0
 32 31  1  0  0  0  0
 32 28  1  0  0  0  0
 33 29  1  0  0  0  0
M  END
>  <MODEL>
6

>  <REMARK>
 VINA RESULT:      -9.0      2.496      3.690
  Name = 
  7 active torsions:
  status: ('A' for Active; 'I' for Inactive)
    1  A    between atoms: C_10  and  N_24
    2  A    between atoms: C_11  and  CA_30
    3  A    between atoms: N_20  and  N_24
    4  A    between atoms: N_21  and  C_25
    5  A    between atoms: C_23  and  C_25
    6  A    between atoms: CA_30  and  C_32
    7  A    between atoms: N_31  and  C_32
                            x       y       z     vdW  Elec       q    Type
                         _______ _______ _______ _____ _____    ______ ____

>  <TORSDO>
F 7

$$$$
=
 OpenBabel10232409343D

 33 36  0  0  1  0  0  0  0  0999 V2000
  184.5880  178.5800  145.0160 C   0  0  0  0  0  0  0  0  0  0  0  0
  186.5340  178.2570  140.6570 C   0  0  0  0  0  2  0  0  0  0  0  0
  183.5230  178.8560  142.8430 C   0  0  0  0  0  3  0  0  0  0  0  0
  186.9910  178.1390  142.0790 C   0  0  0  0  0  0  0  0  0  0  0  0
  184.5020  178.5610  146.4110 C   0  0  0  0  0  3  0  0  0  0  0  0
  185.0340  178.5940  140.7610 C   0  0  1  0  0  3  0  0  0  0  0  0
  186.8710  178.0640  146.5580 C   0  0  0  0  0  0  0  0  0  0  0  0
  185.6410  178.3030  147.1800 C   0  0  0  0  0  3  0  0  0  0  0  0
  188.2920  177.7430  147.5270 Cl  0  0  0  0  0  0  0  0  0  0  0  0
  183.4430  178.8360  144.2430 C   0  0  0  0  0  3  0  0  0  0  0  0
  185.8820  178.3640  142.9820 C   0  0  0  0  0  0  0  0  0  0  0  0
  188.2000  177.8680  142.4590 N   0  0  0  0  0  0  0  0  0  0  0  0
  184.7580  178.6210  142.2330 C   0  0  0  0  0  0  0  0  0  0  0  0
  185.8350  178.3370  144.3840 C   0  0  0  0  0  0  0  0  0  0  0  0
  186.9680  178.0800  145.1640 C   0  0  0  0  0  3  0  0  0  0  0  0
  184.7970  179.9080  140.1850 N   0  0  0  0  0  2  0  0  0  0  0  0
  182.0340  179.7610  139.8690 O   0  0  0  0  0  0  0  0  0  0  0  0
  184.1740  179.7060  138.9460 N   0  0  0  0  0  2  0  0  0  0  0  0
  182.7540  179.6370  138.8400 C   0  0  0  0  0  0  0  0  0  0  0  0
  182.1560  179.4250  137.5620 N   0  0  0  0  0  2  0  0  0  0  0  0
  180.7140  179.3490  137.3890 C   0  0  0  0  0  2  0  0  0  0  0  0
  180.6320  181.7750  137.3110 N   0  0  0  0  0  1  0  0  0  0  0  0
  180.2150  180.5640  136.6250 C   0  0  1  0  0  3  0  0  0  0  0  0
  180.8340  179.3740  134.5250 O   0  0  0  0  0  0  0  0  0  0  0  0
  180.7360  180.5680  135.2240 C   0  0  0  0  0  0  0  0  0  0  0  0
  181.0960  181.6450  134.6750 O   0  0  0  0  0  1  0  0  0  0  0  0
  189.2920  177.6430  141.5230 C   0  0  0  0  0  2  0  0  0  0  0  0
  190.5400  178.5990  143.5320 C   0  0  0  0  0  2  0  0  0  0  0  0
  191.6040  176.6610  144.7280 C   0  0  0  0  0  2  0  0  0  0  0  0
  191.6470  178.1730  144.4890 C   0  0  0  0  0  2  0  0  0  0  0  0
  191.3380  176.5590  142.3210 O   0  0  0  0  0  0  0  0  0  0  0  0
  190.6410  177.7950  142.2220 C   0  0  1  0  0  3  0  0  0  0  0  0
  191.0010  175.9180  143.5320 C   0  0  0  0  0  2  0  0  0  0  0  0
  1  5  1  0  0  0  0
  2  6  1  0  0  0  0
  2  4  1  0  0  0  0
  3 10  1  0  0  0  0
  4 12  2  0  0  0  0
  4 11  1  0  0  0  0
  5  8  2  0  0  0  0
  6 16  1  1  0  0  0
  6 13  1  0  0  0  0
  7  8  1  0  0  0  0
  7  9  1  0  0  0  0
 10  1  2  0  0  0  0
 11 14  2  0  0  0  0
 13  3  2  0  0  0  0
 13 11  1  0  0  0  0
 14  1  1  0  0  0  0
 14 15  1  0  0  0  0
 15  7  2  0  0  0  0
 18 16  1  0  0  0  0
 19 18  1  0  0  0  0
 19 17  2  0  0  0  0
 20 19  1  0  0  0  0
 21 20  1  0  0  0  0
 23 22  1  1  0  0  0
 23 21  1  0  0  0  0
 24 25  2  0  0  0  0
 25 23  1  0  0  0  0
 26 25  1  0  0  0  0
 27 12  1  0  0  0  0
 28 30  1  0  0  0  0
 30 29  1  0  0  0  0
 31 33  1  0  0  0  0
 32 27  1  1  0  0  0
 32 31  1  0  0  0  0
 32 28  1  0  0  0  0
 33 29  1  0  0  0  0
M  END
>  <MODEL>
7

>  <REMARK>
 VINA RESULT:      -9.0      2.931      3.982
  Name = 
  7 active torsions:
  status: ('A' for Active; 'I' for Inactive)
    1  A    between atoms: C_10  and  N_24
    2  A    between atoms: C_11  and  CA_30
    3  A    between atoms: N_20  and  N_24
    4  A    between atoms: N_21  and  C_25
    5  A    between atoms: C_23  and  C_25
    6  A    between atoms: CA_30  and  C_32
    7  A    between atoms: N_31  and  C_32
                            x       y       z     vdW  Elec       q    Type
                         _______ _______ _______ _____ _____    ______ ____

>  <TORSDO>
F 7

$$$$
=
 OpenBabel10232409343D

 33 36  0  0  1  0  0  0  0  0999 V2000
  184.6500  178.8410  142.5160 C   0  0  0  0  0  0  0  0  0  0  0  0
  189.0840  177.6110  141.2080 C   0  0  0  0  0  2  0  0  0  0  0  0
  185.5960  178.6910  140.2770 C   0  0  0  0  0  3  0  0  0  0  0  0
  188.3180  177.7750  142.4840 C   0  0  0  0  0  0  0  0  0  0  0  0
  183.5630  179.1060  143.3540 C   0  0  0  0  0  3  0  0  0  0  0  0
  188.0790  177.9880  140.1030 C   0  0  1  0  0  3  0  0  0  0  0  0
  184.9290  178.6080  145.2950 C   0  0  0  0  0  0  0  0  0  0  0  0
  183.7020  178.9890  144.7400 C   0  0  0  0  0  3  0  0  0  0  0  0
  185.0950  178.4640  147.0310 Cl  0  0  0  0  0  0  0  0  0  0  0  0
  184.5090  178.9550  141.1230 C   0  0  0  0  0  3  0  0  0  0  0  0
  186.9620  178.1960  142.2050 C   0  0  0  0  0  0  0  0  0  0  0  0
  188.7880  177.5640  143.6740 N   0  0  0  0  0  0  0  0  0  0  0  0
  186.8170  178.3170  140.8430 C   0  0  0  0  0  0  0  0  0  0  0  0
  185.8940  178.4540  143.0770 C   0  0  0  0  0  0  0  0  0  0  0  0
  186.0210  178.3400  144.4670 C   0  0  0  0  0  3  0  0  0  0  0  0
  188.5620  179.1630  139.3950 N   0  0  0  0  0  2  0  0  0  0  0  0
  187.1390  178.5810  137.0730 O   0  0  0  0  0  0  0  0  0  0  0  0
  189.1660  178.7090  138.2150 N   0  0  0  0  0  2  0  0  0  0  0  0
  188.3900  178.4250  137.0540 C   0  0  0  0  0  0  0  0  0  0  0  0
  189.0420  177.9610  135.8720 N   0  0  0  0  0  2  0  0  0  0  0  0
  188.3050  177.6570  134.6550 C   0  0  0  0  0  2  0  0  0  0  0  0
  189.4860  175.5550  134.9490 N   0  0  0  0  0  1  0  0  0  0  0  0
  188.2710  176.1550  134.4280 C   0  0  1  0  0  3  0  0  0  0  0  0
  185.8630  176.2120  135.0710 O   0  0  0  0  0  0  0  0  0  0  0  0
  187.0770  175.5400  135.0850 C   0  0  0  0  0  0  0  0  0  0  0  0
  187.1660  174.4220  135.6620 O   0  0  0  0  0  1  0  0  0  0  0  0
  190.1570  177.1360  143.9210 C   0  0  0  0  0  2  0  0  0  0  0  0
  189.6420  177.4070  146.4050 C   0  0  0  0  0  2  0  0  0  0  0  0
  191.4580  176.2130  147.6670 C   0  0  0  0  0  2  0  0  0  0  0  0
  190.3760  177.2950  147.7350 C   0  0  0  0  0  2  0  0  0  0  0  0
  191.9870  177.2550  145.5440 O   0  0  0  0  0  0  0  0  0  0  0  0
  190.6510  177.6580  145.2680 C   0  0  1  0  0  3  0  0  0  0  0  0
  191.9800  176.0280  146.2390 C   0  0  0  0  0  2  0  0  0  0  0  0
  1 14  1  0  0  0  0
  1  5  1  0  0  0  0
  2  4  1  0  0  0  0
  3 13  2  0  0  0  0
  3 10  1  0  0  0  0
  4 12  2  0  0  0  0
  5  8  2  0  0  0  0
  6 16  1  1  0  0  0
  6 13  1  0  0  0  0
  6  2  1  0  0  0  0
  7  9  1  0  0  0  0
  8  7  1  0  0  0  0
 10  1  2  0  0  0  0
 11  4  1  0  0  0  0
 11 14  2  0  0  0  0
 12 27  1  0  0  0  0
 13 11  1  0  0  0  0
 14 15  1  0  0  0  0
 15  7  2  0  0  0  0
 18 16  1  0  0  0  0
 19 17  2  0  0  0  0
 19 18  1  0  0  0  0
 20 19  1  0  0  0  0
 21 20  1  0  0  0  0
 23 21  1  0  0  0  0
 23 22  1  1  0  0  0
 23 25  1  0  0  0  0
 24 25  2  0  0  0  0
 25 26  1  0  0  0  0
 28 30  1  0  0  0  0
 29 30  1  0  0  0  0
 31 33  1  0  0  0  0
 32 27  1  6  0  0  0
 32 31  1  0  0  0  0
 32 28  1  0  0  0  0
 33 29  1  0  0  0  0
M  END
>  <MODEL>
8

>  <REMARK>
 VINA RESULT:      -9.0      2.889      5.198
  Name = 
  7 active torsions:
  status: ('A' for Active; 'I' for Inactive)
    1  A    between atoms: C_10  and  N_24
    2  A    between atoms: C_11  and  CA_30
    3  A    between atoms: N_20  and  N_24
    4  A    between atoms: N_21  and  C_25
    5  A    between atoms: C_23  and  C_25
    6  A    between atoms: CA_30  and  C_32
    7  A    between atoms: N_31  and  C_32
                            x       y       z     vdW  Elec       q    Type
                         _______ _______ _______ _____ _____    ______ ____

>  <TORSDO>
F 7

$$$$
=
 OpenBabel10232409343D

 33 36  0  0  1  0  0  0  0  0999 V2000
  184.5780  178.7870  142.6840 C   0  0  0  0  0  0  0  0  0  0  0  0
  188.9690  177.5540  141.2410 C   0  0  0  0  0  2  0  0  0  0  0  0
  185.4530  178.6300  140.4170 C   0  0  0  0  0  3  0  0  0  0  0  0
  188.2440  177.7220  142.5400 C   0  0  0  0  0  0  0  0  0  0  0  0
  183.5180  179.0550  143.5550 C   0  0  0  0  0  3  0  0  0  0  0  0
  187.9290  177.9270  140.1670 C   0  0  1  0  0  3  0  0  0  0  0  0
  184.9450  178.5640  145.4540 C   0  0  0  0  0  0  0  0  0  0  0  0
  183.7010  178.9430  144.9370 C   0  0  0  0  0  3  0  0  0  0  0  0
  185.1660  178.4260  147.1840 Cl  0  0  0  0  0  0  0  0  0  0  0  0
  184.3930  178.8970  141.2960 C   0  0  0  0  0  3  0  0  0  0  0  0
  186.8800  178.1420  142.3020 C   0  0  0  0  0  0  0  0  0  0  0  0
  188.7510  177.5160  143.7150 N   0  0  0  0  0  0  0  0  0  0  0  0
  186.6920  178.2580  140.9450 C   0  0  0  0  0  0  0  0  0  0  0  0
  185.8400  178.4030  143.2070 C   0  0  0  0  0  0  0  0  0  0  0  0
  186.0110  178.2930  144.5930 C   0  0  0  0  0  3  0  0  0  0  0  0
  188.3900  179.1000  139.4400 N   0  0  0  0  0  2  0  0  0  0  0  0
  190.2150  177.4520  138.1320 O   0  0  0  0  0  0  0  0  0  0  0  0
  188.3090  178.7930  138.0750 N   0  0  0  0  0  2  0  0  0  0  0  0
  189.2710  177.9440  137.4540 C   0  0  0  0  0  0  0  0  0  0  0  0
  189.1580  177.6590  136.0610 N   0  0  0  0  0  2  0  0  0  0  0  0
  190.1060  176.7980  135.3710 C   0  0  0  0  0  2  0  0  0  0  0  0
  189.5880  174.6580  134.3460 N   0  0  0  0  0  1  0  0  0  0  0  0
  189.7610  175.3390  135.6170 C   0  0  1  0  0  3  0  0  0  0  0  0
  192.1610  174.8360  136.0660 O   0  0  0  0  0  0  0  0  0  0  0  0
  190.8290  174.6630  136.4160 C   0  0  0  0  0  0  0  0  0  0  0  0
  190.5310  173.9280  137.3960 O   0  0  0  0  0  1  0  0  0  0  0  0
  190.1270  177.0890  143.9200 C   0  0  0  0  0  2  0  0  0  0  0  0
  189.6520  177.3530  146.4130 C   0  0  0  0  0  2  0  0  0  0  0  0
  191.4530  176.1030  147.6410 C   0  0  0  0  0  2  0  0  0  0  0  0
  190.4010  177.2110  147.7320 C   0  0  0  0  0  2  0  0  0  0  0  0
  191.9810  177.1480  145.5190 O   0  0  0  0  0  0  0  0  0  0  0  0
  190.6530  177.5870  145.2640 C   0  0  1  0  0  3  0  0  0  0  0  0
  191.9520  175.9150  146.2050 C   0  0  0  0  0  2  0  0  0  0  0  0
  1 14  1  0  0  0  0
  1  5  1  0  0  0  0
  2  4  1  0  0  0  0
  3 13  2  0  0  0  0
  3 10  1  0  0  0  0
  4 12  2  0  0  0  0
  5  8  2  0  0  0  0
  6 16  1  1  0  0  0
  6 13  1  0  0  0  0
  6  2  1  0  0  0  0
  7  9  1  0  0  0  0
  8  7  1  0  0  0  0
 10  1  2  0  0  0  0
 11  4  1  0  0  0  0
 11 14  2  0  0  0  0
 12 27  1  0  0  0  0
 13 11  1  0  0  0  0
 14 15  1  0  0  0  0
 15  7  2  0  0  0  0
 18 16  1  0  0  0  0
 19 18  1  0  0  0  0
 19 17  2  0  0  0  0
 20 19  1  0  0  0  0
 21 23  1  0  0  0  0
 21 20  1  0  0  0  0
 23 22  1  6  0  0  0
 23 25  1  0  0  0  0
 24 25  2  0  0  0  0
 25 26  1  0  0  0  0
 28 30  1  0  0  0  0
 29 30  1  0  0  0  0
 31 33  1  0  0  0  0
 32 27  1  6  0  0  0
 32 31  1  0  0  0  0
 32 28  1  0  0  0  0
 33 29  1  0  0  0  0
M  END
>  <MODEL>
9

>  <REMARK>
 VINA RESULT:      -8.9      3.078      5.479
  Name = 
  7 active torsions:
  status: ('A' for Active; 'I' for Inactive)
    1  A    between atoms: C_10  and  N_24
    2  A    between atoms: C_11  and  CA_30
    3  A    between atoms: N_20  and  N_24
    4  A    between atoms: N_21  and  C_25
    5  A    between atoms: C_23  and  C_25
    6  A    between atoms: CA_30  and  C_32
    7  A    between atoms: N_31  and  C_32
                            x       y       z     vdW  Elec       q    Type
                         _______ _______ _______ _____ _____    ______ ____

>  <TORSDO>
F 7

$$$$
