=
 OpenBabel10232412293D

 29 31  0  0  1  0  0  0  0  0999 V2000
  184.4800  178.6920  144.3750 C   0  0  0  0  0  0  0  0  0  0  0  0
  185.1160  178.6300  143.0770 C   0  0  0  0  0  0  0  0  0  0  0  0
  186.4990  178.0840  144.6610 C   0  0  0  0  0  0  0  0  0  0  0  0
  183.2940  179.0320  144.6230 O   0  0  0  0  0  0  0  0  0  0  0  0
  185.4290  178.3230  145.3570 N   0  0  0  0  0  0  0  0  0  0  0  0
  186.3440  178.2730  143.2440 N   0  0  0  0  0  0  0  0  0  0  0  0
  188.8550  177.3060  144.4630 C   0  0  0  0  0  3  0  0  0  0  0  0
  190.2110  176.8820  146.4330 C   0  0  0  0  0  0  0  0  0  0  0  0
  187.7730  177.6710  145.2730 C   0  0  0  0  0  0  0  0  0  0  0  0
  190.0670  176.9140  145.0380 C   0  0  0  0  0  3  0  0  0  0  0  0
  189.1270  177.2470  147.2430 C   0  0  0  0  0  3  0  0  0  0  0  0
  187.9160  177.6390  146.6680 C   0  0  0  0  0  3  0  0  0  0  0  0
  191.9750  177.1400  148.1600 O   0  0  0  0  0  1  0  0  0  0  0  0
  192.1430  175.5100  146.5630 O   0  0  0  0  0  0  0  0  0  0  0  0
  191.4850  176.4710  147.0440 C   0  0  0  0  0  0  0  0  0  0  0  0
  184.5450  179.0010  141.7420 C   0  0  1  0  0  3  0  0  0  0  0  0
  185.5610  178.8660  140.6180 C   0  0  0  0  0  1  0  0  0  0  0  0
  180.8830  178.0820  141.8490 C   0  0  0  0  0  2  0  0  0  0  0  0
  181.4510  177.3180  138.4990 C   0  0  0  0  0  2  0  0  0  0  0  0
  181.7430  179.6230  140.2900 N   0  0  0  0  0  0  0  0  0  0  0  0
  183.3200  178.2660  141.4310 N   0  0  0  0  0  2  0  0  0  0  0  0
  182.7030  178.2050  138.5510 C   0  0  0  0  0  2  0  0  0  0  0  0
  181.2140  176.5440  139.8060 C   0  0  1  0  0  3  0  0  0  0  0  0
  182.0240  178.8660  141.3070 C   0  0  0  0  0  0  0  0  0  0  0  0
  182.3960  179.4970  139.0810 O   0  0  0  0  0  0  0  0  0  0  0  0
  180.2130  177.2660  140.7270 C   0  0  0  0  0  2  0  0  0  0  0  0
  180.9570  174.6610  138.3730 O   0  0  0  0  0  0  0  0  0  0  0  0
  179.9820  174.4310  140.4670 N   0  0  0  0  0  1  0  0  0  0  0  0
  180.7200  175.1710  139.4990 C   0  0  0  0  0  0  0  0  0  0  0  0
  1  4  2  0  0  0  0
  1  5  1  0  0  0  0
  2  6  2  0  0  0  0
  2  1  1  0  0  0  0
  3  9  1  0  0  0  0
  3  5  2  0  0  0  0
  6  3  1  0  0  0  0
  7 10  2  0  0  0  0
  7  9  1  0  0  0  0
  8 15  1  0  0  0  0
  8 11  2  0  0  0  0
  9 12  2  0  0  0  0
 10  8  1  0  0  0  0
 12 11  1  0  0  0  0
 14 15  2  0  0  0  0
 15 13  1  0  0  0  0
 16 17  1  6  0  0  0
 16  2  1  0  0  0  0
 19 22  1  0  0  0  0
 19 23  1  0  0  0  0
 20 24  2  0  0  0  0
 21 16  1  0  0  0  0
 22 25  1  0  0  0  0
 23 29  1  6  0  0  0
 23 26  1  0  0  0  0
 24 21  1  0  0  0  0
 24 18  1  0  0  0  0
 25 20  1  0  0  0  0
 26 18  1  0  0  0  0
 27 29  2  0  0  0  0
 29 28  1  0  0  0  0
M  END
>  <MODEL>
1

>  <REMARK>
 VINA RESULT:      -8.3      0.000      0.000
  Name = 
  5 active torsions:
  status: ('A' for Active; 'I' for Inactive)
    1  A    between atoms: C_7  and  C_23
    2  A    between atoms: N_8  and  C_13
    3  A    between atoms: C_12  and  C_13
    4  A    between atoms: C_14  and  C_16
    5  A    between atoms: C_18  and  C_24
                            x       y       z     vdW  Elec       q    Type
                         _______ _______ _______ _____ _____    ______ ____

>  <TORSDO>
F 5

$$$$
=
 OpenBabel10232412293D

 29 31  0  0  1  0  0  0  0  0999 V2000
  186.0050  178.0600  143.8470 C   0  0  0  0  0  0  0  0  0  0  0  0
  186.9260  178.2300  142.7450 C   0  0  0  0  0  0  0  0  0  0  0  0
  187.9670  177.6480  144.5610 C   0  0  0  0  0  0  0  0  0  0  0  0
  184.7580  178.2320  143.8270 O   0  0  0  0  0  0  0  0  0  0  0  0
  186.7420  177.6790  144.9930 N   0  0  0  0  0  0  0  0  0  0  0  0
  188.1190  177.9940  143.1740 N   0  0  0  0  0  0  0  0  0  0  0  0
  188.9570  177.3020  146.8180 C   0  0  0  0  0  3  0  0  0  0  0  0
  191.2820  176.6540  147.0880 C   0  0  0  0  0  0  0  0  0  0  0  0
  189.1080  177.3070  145.4260 C   0  0  0  0  0  0  0  0  0  0  0  0
  190.0360  176.9770  147.6440 C   0  0  0  0  0  3  0  0  0  0  0  0
  191.4330  176.6600  145.6940 C   0  0  0  0  0  3  0  0  0  0  0  0
  190.3540  176.9840  144.8680 C   0  0  0  0  0  3  0  0  0  0  0  0
  192.7660  177.1360  149.0180 O   0  0  0  0  0  1  0  0  0  0  0  0
  193.0950  175.2680  147.7380 O   0  0  0  0  0  0  0  0  0  0  0  0
  192.4220  176.3110  147.9530 C   0  0  0  0  0  0  0  0  0  0  0  0
  186.6350  178.6990  141.3510 C   0  0  1  0  0  3  0  0  0  0  0  0
  187.7460  178.3450  140.3750 C   0  0  0  0  0  1  0  0  0  0  0  0
  182.8940  178.6420  140.8320 C   0  0  0  0  0  2  0  0  0  0  0  0
  183.8120  177.4470  137.6920 C   0  0  0  0  0  2  0  0  0  0  0  0
  184.3440  179.7900  139.3750 N   0  0  0  0  0  0  0  0  0  0  0  0
  185.3390  178.2310  140.8610 N   0  0  0  0  0  2  0  0  0  0  0  0
  185.2130  178.0290  137.9250 C   0  0  0  0  0  2  0  0  0  0  0  0
  183.1840  176.8770  138.9740 C   0  0  1  0  0  3  0  0  0  0  0  0
  184.2640  179.0930  140.4670 C   0  0  0  0  0  0  0  0  0  0  0  0
  185.1400  179.4030  138.3160 O   0  0  0  0  0  0  0  0  0  0  0  0
  182.2450  177.8920  139.6530 C   0  0  0  0  0  2  0  0  0  0  0  0
  181.3620  175.3740  139.2670 O   0  0  0  0  0  0  0  0  0  0  0  0
  182.9210  174.7160  137.6780 N   0  0  0  0  0  1  0  0  0  0  0  0
  182.4340  175.6270  138.6590 C   0  0  0  0  0  0  0  0  0  0  0  0
  1  5  1  0  0  0  0
  2  6  2  0  0  0  0
  2  1  1  0  0  0  0
  3  5  2  0  0  0  0
  3  9  1  0  0  0  0
  4  1  2  0  0  0  0
  6  3  1  0  0  0  0
  7 10  1  0  0  0  0
  8 10  2  0  0  0  0
  8 15  1  0  0  0  0
  9  7  2  0  0  0  0
 11  8  1  0  0  0  0
 12  9  1  0  0  0  0
 12 11  2  0  0  0  0
 14 15  2  0  0  0  0
 15 13  1  0  0  0  0
 16 17  1  6  0  0  0
 16  2  1  0  0  0  0
 19 22  1  0  0  0  0
 19 23  1  0  0  0  0
 20 24  2  0  0  0  0
 21 16  1  0  0  0  0
 22 25  1  0  0  0  0
 23 29  1  6  0  0  0
 23 26  1  0  0  0  0
 24 18  1  0  0  0  0
 24 21  1  0  0  0  0
 25 20  1  0  0  0  0
 26 18  1  0  0  0  0
 28 29  1  0  0  0  0
 29 27  2  0  0  0  0
M  END
>  <MODEL>
2

>  <REMARK>
 VINA RESULT:      -8.3      1.741      2.221
  Name = 
  5 active torsions:
  status: ('A' for Active; 'I' for Inactive)
    1  A    between atoms: C_7  and  C_23
    2  A    between atoms: N_8  and  C_13
    3  A    between atoms: C_12  and  C_13
    4  A    between atoms: C_14  and  C_16
    5  A    between atoms: C_18  and  C_24
                            x       y       z     vdW  Elec       q    Type
                         _______ _______ _______ _____ _____    ______ ____

>  <TORSDO>
F 5

$$$$
=
 OpenBabel10232412293D

 29 31  0  0  1  0  0  0  0  0999 V2000
  186.3490  178.5810  141.5620 C   0  0  0  0  0  0  0  0  0  0  0  0
  185.3800  178.2640  142.5890 C   0  0  0  0  0  0  0  0  0  0  0  0
  187.4100  177.9360  143.2900 C   0  0  0  0  0  0  0  0  0  0  0  0
  186.1120  178.9780  140.3920 O   0  0  0  0  0  0  0  0  0  0  0  0
  187.6450  178.3520  142.0820 N   0  0  0  0  0  0  0  0  0  0  0  0
  186.0170  177.8600  143.6350 N   0  0  0  0  0  0  0  0  0  0  0  0
  189.7490  177.2090  143.7350 C   0  0  0  0  0  3  0  0  0  0  0  0
  190.5410  176.8260  145.9980 C   0  0  0  0  0  0  0  0  0  0  0  0
  188.4830  177.5550  144.2240 C   0  0  0  0  0  0  0  0  0  0  0  0
  190.7710  176.8480  144.6160 C   0  0  0  0  0  3  0  0  0  0  0  0
  189.2730  177.1720  146.4880 C   0  0  0  0  0  3  0  0  0  0  0  0
  188.2510  177.5330  145.6060 C   0  0  0  0  0  3  0  0  0  0  0  0
  192.4000  175.3290  146.6760 O   0  0  0  0  0  0  0  0  0  0  0  0
  191.8320  177.1310  147.9660 O   0  0  0  0  0  1  0  0  0  0  0  0
  191.6140  176.4470  146.9310 C   0  0  0  0  0  0  0  0  0  0  0  0
  183.8850  178.2750  142.4930 C   0  0  1  0  0  3  0  0  0  0  0  0
  183.2380  179.0940  143.6000 C   0  0  0  0  0  1  0  0  0  0  0  0
  183.1330  178.0720  138.7970 C   0  0  0  0  0  2  0  0  0  0  0  0
  180.3600  179.9630  139.7270 C   0  0  0  0  0  2  0  0  0  0  0  0
  181.5800  177.3900  140.4310 N   0  0  0  0  0  0  0  0  0  0  0  0
  183.4090  178.7040  141.1790 N   0  0  0  0  0  2  0  0  0  0  0  0
  180.5690  179.4850  141.1710 C   0  0  0  0  0  2  0  0  0  0  0  0
  181.6830  180.1970  138.9800 C   0  0  1  0  0  3  0  0  0  0  0  0
  182.7810  177.8400  140.2240 C   0  0  0  0  0  0  0  0  0  0  0  0
  180.6750  178.0600  141.2290 O   0  0  0  0  0  0  0  0  0  0  0  0
  182.0840  178.9790  138.1270 C   0  0  0  0  0  2  0  0  0  0  0  0
  182.1890  182.4560  138.4290 O   0  0  0  0  0  0  0  0  0  0  0  0
  180.7700  181.3850  136.9370 N   0  0  0  0  0  1  0  0  0  0  0  0
  181.5710  181.4060  138.1150 C   0  0  0  0  0  0  0  0  0  0  0  0
  1  5  1  0  0  0  0
  1  2  1  0  0  0  0
  2  6  2  0  0  0  0
  3  6  1  0  0  0  0
  3  9  1  0  0  0  0
  4  1  2  0  0  0  0
  5  3  2  0  0  0  0
  7  9  2  0  0  0  0
  7 10  1  0  0  0  0
  8 11  1  0  0  0  0
  8 15  1  0  0  0  0
  9 12  1  0  0  0  0
 10  8  2  0  0  0  0
 12 11  2  0  0  0  0
 13 15  2  0  0  0  0
 15 14  1  0  0  0  0
 16  2  1  0  0  0  0
 16 17  1  1  0  0  0
 18 24  1  0  0  0  0
 19 22  1  0  0  0  0
 20 25  1  0  0  0  0
 21 16  1  0  0  0  0
 22 25  1  0  0  0  0
 23 29  1  6  0  0  0
 23 19  1  0  0  0  0
 24 20  2  0  0  0  0
 24 21  1  0  0  0  0
 26 18  1  0  0  0  0
 26 23  1  0  0  0  0
 28 29  1  0  0  0  0
 29 27  2  0  0  0  0
M  END
>  <MODEL>
3

>  <REMARK>
 VINA RESULT:      -8.2      1.953      3.404
  Name = 
  5 active torsions:
  status: ('A' for Active; 'I' for Inactive)
    1  A    between atoms: C_7  and  C_23
    2  A    between atoms: N_8  and  C_13
    3  A    between atoms: C_12  and  C_13
    4  A    between atoms: C_14  and  C_16
    5  A    between atoms: C_18  and  C_24
                            x       y       z     vdW  Elec       q    Type
                         _______ _______ _______ _____ _____    ______ ____

>  <TORSDO>
F 5

$$$$
=
 OpenBabel10232412293D

 29 31  0  0  1  0  0  0  0  0999 V2000
  191.5640  177.3340  140.7250 C   0  0  0  0  0  0  0  0  0  0  0  0
  190.2650  177.2290  140.0960 C   0  0  0  0  0  0  0  0  0  0  0  0
  190.0850  177.4290  142.2520 C   0  0  0  0  0  0  0  0  0  0  0  0
  192.6870  177.2990  140.1570 O   0  0  0  0  0  0  0  0  0  0  0  0
  191.3770  177.4660  142.1210 N   0  0  0  0  0  0  0  0  0  0  0  0
  189.3650  177.2730  141.0180 N   0  0  0  0  0  0  0  0  0  0  0  0
  188.0160  177.5500  143.6290 C   0  0  0  0  0  3  0  0  0  0  0  0
  188.1210  177.6910  146.0520 C   0  0  0  0  0  0  0  0  0  0  0  0
  189.4140  177.5200  143.5590 C   0  0  0  0  0  0  0  0  0  0  0  0
  187.3730  177.6350  144.8670 C   0  0  0  0  0  3  0  0  0  0  0  0
  189.5210  177.6610  145.9810 C   0  0  0  0  0  3  0  0  0  0  0  0
  190.1630  177.5760  144.7430 C   0  0  0  0  0  3  0  0  0  0  0  0
  186.2150  178.4100  147.4690 O   0  0  0  0  0  0  0  0  0  0  0  0
  187.9840  177.2860  148.3860 O   0  0  0  0  0  1  0  0  0  0  0  0
  187.4490  177.7800  147.3580 C   0  0  0  0  0  0  0  0  0  0  0  0
  189.9470  177.0000  138.6490 C   0  0  1  0  0  3  0  0  0  0  0  0
  190.6180  175.7520  138.0970 C   0  0  0  0  0  1  0  0  0  0  0  0
  186.3640  178.1990  138.6500 C   0  0  0  0  0  2  0  0  0  0  0  0
  186.3210  176.6190  135.5460 C   0  0  0  0  0  2  0  0  0  0  0  0
  187.8590  178.7160  136.9050 N   0  0  0  0  0  0  0  0  0  0  0  0
  188.5090  176.9810  138.3870 N   0  0  0  0  0  2  0  0  0  0  0  0
  187.8540  176.6990  135.5290 C   0  0  0  0  0  2  0  0  0  0  0  0
  185.7540  176.3580  136.9510 C   0  0  1  0  0  3  0  0  0  0  0  0
  187.7290  178.1390  138.0600 C   0  0  0  0  0  0  0  0  0  0  0  0
  188.3010  178.0320  135.7900 O   0  0  0  0  0  0  0  0  0  0  0  0
  185.3250  177.6610  137.6490 C   0  0  0  0  0  2  0  0  0  0  0  0
  184.3820  174.7930  135.7960 O   0  0  0  0  0  0  0  0  0  0  0  0
  183.7220  175.2430  137.9760 N   0  0  0  0  0  1  0  0  0  0  0  0
  184.5940  175.4250  136.8630 C   0  0  0  0  0  0  0  0  0  0  0  0
  1  5  1  0  0  0  0
  2  1  1  0  0  0  0
  2  6  2  0  0  0  0
  3  9  1  0  0  0  0
  4  1  2  0  0  0  0
  5  3  2  0  0  0  0
  6  3  1  0  0  0  0
  7 10  1  0  0  0  0
  8 15  1  0  0  0  0
  9  7  2  0  0  0  0
  9 12  1  0  0  0  0
 10  8  2  0  0  0  0
 11  8  1  0  0  0  0
 12 11  2  0  0  0  0
 15 13  2  0  0  0  0
 15 14  1  0  0  0  0
 16 17  1  1  0  0  0
 16  2  1  0  0  0  0
 19 23  1  0  0  0  0
 20 24  2  0  0  0  0
 21 16  1  0  0  0  0
 22 19  1  0  0  0  0
 22 25  1  0  0  0  0
 23 29  1  6  0  0  0
 23 26  1  0  0  0  0
 24 21  1  0  0  0  0
 24 18  1  0  0  0  0
 25 20  1  0  0  0  0
 26 18  1  0  0  0  0
 27 29  2  0  0  0  0
 29 28  1  0  0  0  0
M  END
>  <MODEL>
4

>  <REMARK>
 VINA RESULT:      -8.0      4.216      5.580
  Name = 
  5 active torsions:
  status: ('A' for Active; 'I' for Inactive)
    1  A    between atoms: C_7  and  C_23
    2  A    between atoms: N_8  and  C_13
    3  A    between atoms: C_12  and  C_13
    4  A    between atoms: C_14  and  C_16
    5  A    between atoms: C_18  and  C_24
                            x       y       z     vdW  Elec       q    Type
                         _______ _______ _______ _____ _____    ______ ____

>  <TORSDO>
F 5

$$$$
=
 OpenBabel10232412293D

 29 31  0  0  1  0  0  0  0  0999 V2000
  182.7260  178.8240  142.7480 C   0  0  0  0  0  0  0  0  0  0  0  0
  183.7280  178.5540  141.7390 C   0  0  0  0  0  0  0  0  0  0  0  0
  184.5630  178.4140  143.7400 C   0  0  0  0  0  0  0  0  0  0  0  0
  181.5190  179.1270  142.5560 O   0  0  0  0  0  0  0  0  0  0  0  0
  183.3300  178.7130  144.0220 N   0  0  0  0  0  0  0  0  0  0  0  0
  184.8470  178.3170  142.3340 N   0  0  0  0  0  0  0  0  0  0  0  0
  185.3740  178.6760  146.0790 C   0  0  0  0  0  3  0  0  0  0  0  0
  187.5450  177.8270  146.7610 C   0  0  0  0  0  0  0  0  0  0  0  0
  185.5900  178.2110  144.7750 C   0  0  0  0  0  0  0  0  0  0  0  0
  186.3450  178.4850  147.0650 C   0  0  0  0  0  3  0  0  0  0  0  0
  187.7600  177.3610  145.4570 C   0  0  0  0  0  3  0  0  0  0  0  0
  186.7900  177.5520  144.4700 C   0  0  0  0  0  3  0  0  0  0  0  0
  189.7600  176.9750  147.4870 O   0  0  0  0  0  0  0  0  0  0  0  0
  188.3790  178.0320  148.9730 O   0  0  0  0  0  1  0  0  0  0  0  0
  188.5700  177.6220  147.7970 C   0  0  0  0  0  0  0  0  0  0  0  0
  183.5910  178.6230  140.2490 C   0  0  1  0  0  3  0  0  0  0  0  0
  184.8450  179.1570  139.5740 C   0  0  0  0  0  1  0  0  0  0  0  0
  181.3460  175.7000  139.4190 C   0  0  0  0  0  2  0  0  0  0  0  0
  183.0700  175.8290  136.3950 C   0  0  0  0  0  2  0  0  0  0  0  0
  181.4540  177.6220  138.0620 N   0  0  0  0  0  0  0  0  0  0  0  0
  183.1850  177.3460  139.6620 N   0  0  0  0  0  2  0  0  0  0  0  0
  183.4700  177.2720  136.7320 C   0  0  0  0  0  2  0  0  0  0  0  0
  183.0330  174.9180  137.6330 C   0  0  1  0  0  3  0  0  0  0  0  0
  181.8710  177.0680  139.1600 C   0  0  0  0  0  0  0  0  0  0  0  0
  182.3250  178.0540  137.0830 O   0  0  0  0  0  0  0  0  0  0  0  0
  181.6110  174.7860  138.2070 C   0  0  0  0  0  2  0  0  0  0  0  0
  182.8610  172.7790  136.6030 O   0  0  0  0  0  0  0  0  0  0  0  0
  184.8600  173.1640  137.7170 N   0  0  0  0  0  1  0  0  0  0  0  0
  183.5650  173.5680  137.2850 C   0  0  0  0  0  0  0  0  0  0  0  0
  1  5  1  0  0  0  0
  2  6  2  0  0  0  0
  2  1  1  0  0  0  0
  3  5  2  0  0  0  0
  3  9  1  0  0  0  0
  4  1  2  0  0  0  0
  6  3  1  0  0  0  0
  7 10  1  0  0  0  0
  8 10  2  0  0  0  0
  8 15  1  0  0  0  0
  9  7  2  0  0  0  0
 11  8  1  0  0  0  0
 12  9  1  0  0  0  0
 12 11  2  0  0  0  0
 13 15  2  0  0  0  0
 15 14  1  0  0  0  0
 16 17  1  6  0  0  0
 16  2  1  0  0  0  0
 19 22  1  0  0  0  0
 19 23  1  0  0  0  0
 20 24  2  0  0  0  0
 21 16  1  0  0  0  0
 22 25  1  0  0  0  0
 23 29  1  6  0  0  0
 23 26  1  0  0  0  0
 24 18  1  0  0  0  0
 24 21  1  0  0  0  0
 25 20  1  0  0  0  0
 26 18  1  0  0  0  0
 27 29  2  0  0  0  0
 29 28  1  0  0  0  0
M  END
>  <MODEL>
5

>  <REMARK>
 VINA RESULT:      -8.0      2.346      3.088
  Name = 
  5 active torsions:
  status: ('A' for Active; 'I' for Inactive)
    1  A    between atoms: C_7  and  C_23
    2  A    between atoms: N_8  and  C_13
    3  A    between atoms: C_12  and  C_13
    4  A    between atoms: C_14  and  C_16
    5  A    between atoms: C_18  and  C_24
                            x       y       z     vdW  Elec       q    Type
                         _______ _______ _______ _____ _____    ______ ____

>  <TORSDO>
F 5

$$$$
=
 OpenBabel10232412293D

 29 31  0  0  1  0  0  0  0  0999 V2000
  191.9090  177.3780  140.6840 C   0  0  0  0  0  0  0  0  0  0  0  0
  190.6920  176.9850  140.0070 C   0  0  0  0  0  0  0  0  0  0  0  0
  190.3370  177.3540  142.1180 C   0  0  0  0  0  0  0  0  0  0  0  0
  193.0570  177.4890  140.1780 O   0  0  0  0  0  0  0  0  0  0  0  0
  191.6100  177.6070  142.0480 N   0  0  0  0  0  0  0  0  0  0  0  0
  189.7380  176.9560  140.8740 N   0  0  0  0  0  0  0  0  0  0  0  0
  190.2020  177.8950  144.5440 C   0  0  0  0  0  3  0  0  0  0  0  0
  188.1270  177.6340  145.7790 C   0  0  0  0  0  0  0  0  0  0  0  0
  189.5750  177.4480  143.3740 C   0  0  0  0  0  0  0  0  0  0  0  0
  189.4840  177.9870  145.7380 C   0  0  0  0  0  3  0  0  0  0  0  0
  187.5000  177.1870  144.6080 C   0  0  0  0  0  3  0  0  0  0  0  0
  188.2190  177.0940  143.4130 C   0  0  0  0  0  3  0  0  0  0  0  0
  187.9150  177.2640  148.2240 O   0  0  0  0  0  1  0  0  0  0  0  0
  186.2120  178.2360  147.0440 O   0  0  0  0  0  0  0  0  0  0  0  0
  187.3660  177.7310  147.0350 C   0  0  0  0  0  0  0  0  0  0  0  0
  190.5150  176.5670  138.5790 C   0  0  1  0  0  3  0  0  0  0  0  0
  189.7280  177.5860  137.7680 C   0  0  0  0  0  1  0  0  0  0  0  0
  193.6580  174.6280  137.7840 C   0  0  0  0  0  2  0  0  0  0  0  0
  193.0170  175.8040  134.5680 C   0  0  0  0  0  2  0  0  0  0  0  0
  191.6330  174.2560  136.6410 N   0  0  0  0  0  0  0  0  0  0  0  0
  191.7820  176.2450  137.9260 N   0  0  0  0  0  2  0  0  0  0  0  0
  191.5640  176.0570  134.9940 C   0  0  0  0  0  2  0  0  0  0  0  0
  194.0250  176.0920  135.6920 C   0  0  1  0  0  3  0  0  0  0  0  0
  192.2100  174.9170  137.5970 C   0  0  0  0  0  0  0  0  0  0  0  0
  190.9940  174.8900  135.5940 O   0  0  0  0  0  0  0  0  0  0  0  0
  194.4160  174.8130  136.4550 C   0  0  0  0  0  2  0  0  0  0  0  0
  196.0680  176.0430  134.4720 O   0  0  0  0  0  0  0  0  0  0  0  0
  195.4890  178.1260  135.3190 N   0  0  0  0  0  1  0  0  0  0  0  0
  195.2460  176.7360  135.1260 C   0  0  0  0  0  0  0  0  0  0  0  0
  1  5  1  0  0  0  0
  2  1  1  0  0  0  0
  2  6  2  0  0  0  0
  3  9  1  0  0  0  0
  4  1  2  0  0  0  0
  5  3  2  0  0  0  0
  6  3  1  0  0  0  0
  7 10  1  0  0  0  0
  8 15  1  0  0  0  0
  9 12  1  0  0  0  0
  9  7  2  0  0  0  0
 10  8  2  0  0  0  0
 11  8  1  0  0  0  0
 12 11  2  0  0  0  0
 15 14  2  0  0  0  0
 15 13  1  0  0  0  0
 16 17  1  6  0  0  0
 16  2  1  0  0  0  0
 19 22  1  0  0  0  0
 19 23  1  0  0  0  0
 20 24  2  0  0  0  0
 21 16  1  0  0  0  0
 22 25  1  0  0  0  0
 23 29  1  6  0  0  0
 23 26  1  0  0  0  0
 24 18  1  0  0  0  0
 24 21  1  0  0  0  0
 25 20  1  0  0  0  0
 26 18  1  0  0  0  0
 27 29  2  0  0  0  0
 29 28  1  0  0  0  0
M  END
>  <MODEL>
6

>  <REMARK>
 VINA RESULT:      -8.0      7.074      9.447
  Name = 
  5 active torsions:
  status: ('A' for Active; 'I' for Inactive)
    1  A    between atoms: C_7  and  C_23
    2  A    between atoms: N_8  and  C_13
    3  A    between atoms: C_12  and  C_13
    4  A    between atoms: C_14  and  C_16
    5  A    between atoms: C_18  and  C_24
                            x       y       z     vdW  Elec       q    Type
                         _______ _______ _______ _____ _____    ______ ____

>  <TORSDO>
F 5

$$$$
=
 OpenBabel10232412293D

 29 31  0  0  1  0  0  0  0  0999 V2000
  184.8000  179.1630  140.5820 C   0  0  0  0  0  0  0  0  0  0  0  0
  183.7270  178.3240  141.0700 C   0  0  0  0  0  0  0  0  0  0  0  0
  185.3640  178.4210  142.4950 C   0  0  0  0  0  0  0  0  0  0  0  0
  184.8500  179.7660  139.4780 O   0  0  0  0  0  0  0  0  0  0  0  0
  185.8280  179.1870  141.5540 N   0  0  0  0  0  0  0  0  0  0  0  0
  184.0680  177.8610  142.2240 N   0  0  0  0  0  0  0  0  0  0  0  0
  187.3990  177.5860  143.6590 C   0  0  0  0  0  3  0  0  0  0  0  0
  187.5520  177.5830  146.0830 C   0  0  0  0  0  0  0  0  0  0  0  0
  186.1120  178.1340  143.7300 C   0  0  0  0  0  0  0  0  0  0  0  0
  188.1150  177.3120  144.8280 C   0  0  0  0  0  3  0  0  0  0  0  0
  186.2640  178.1320  146.1530 C   0  0  0  0  0  3  0  0  0  0  0  0
  185.5480  178.4050  144.9850 C   0  0  0  0  0  3  0  0  0  0  0  0
  187.8670  177.8080  148.5350 O   0  0  0  0  0  1  0  0  0  0  0  0
  189.3420  176.5880  147.2820 O   0  0  0  0  0  0  0  0  0  0  0  0
  188.3020  177.2970  147.3170 C   0  0  0  0  0  0  0  0  0  0  0  0
  182.4620  177.9300  140.3700 C   0  0  1  0  0  3  0  0  0  0  0  0
  181.8690  179.0700  139.5570 C   0  0  0  0  0  1  0  0  0  0  0  0
  181.5150  175.1590  137.9840 C   0  0  0  0  0  2  0  0  0  0  0  0
  184.8100  175.5650  136.9320 C   0  0  0  0  0  2  0  0  0  0  0  0
  182.3990  177.2090  137.2360 N   0  0  0  0  0  0  0  0  0  0  0  0
  182.6230  176.7310  139.5500 N   0  0  0  0  0  2  0  0  0  0  0  0
  184.8020  176.9570  137.5800 C   0  0  0  0  0  2  0  0  0  0  0  0
  184.0030  174.5310  137.7340 C   0  0  1  0  0  3  0  0  0  0  0  0
  182.0030  176.5340  138.2720 C   0  0  0  0  0  0  0  0  0  0  0  0
  183.6770  177.7220  137.1410 O   0  0  0  0  0  0  0  0  0  0  0  0
  182.5720  174.3710  137.1880 C   0  0  0  0  0  2  0  0  0  0  0  0
  185.9110  173.1460  138.0600 O   0  0  0  0  0  0  0  0  0  0  0  0
  184.0200  172.0340  137.3000 N   0  0  0  0  0  1  0  0  0  0  0  0
  184.7040  173.2140  137.7120 C   0  0  0  0  0  0  0  0  0  0  0  0
  1  2  1  0  0  0  0
  1  5  1  0  0  0  0
  2  6  2  0  0  0  0
  3  9  1  0  0  0  0
  4  1  2  0  0  0  0
  5  3  2  0  0  0  0
  6  3  1  0  0  0  0
  7  9  2  0  0  0  0
  7 10  1  0  0  0  0
  8 11  1  0  0  0  0
  8 15  1  0  0  0  0
  9 12  1  0  0  0  0
 10  8  2  0  0  0  0
 12 11  2  0  0  0  0
 14 15  2  0  0  0  0
 15 13  1  0  0  0  0
 16 17  1  6  0  0  0
 16  2  1  0  0  0  0
 18 24  1  0  0  0  0
 19 22  1  0  0  0  0
 19 23  1  0  0  0  0
 20 24  2  0  0  0  0
 21 16  1  0  0  0  0
 23 29  1  6  0  0  0
 24 21  1  0  0  0  0
 25 20  1  0  0  0  0
 25 22  1  0  0  0  0
 26 23  1  0  0  0  0
 26 18  1  0  0  0  0
 28 29  1  0  0  0  0
 29 27  2  0  0  0  0
M  END
>  <MODEL>
7

>  <REMARK>
 VINA RESULT:      -7.9      2.711      3.688
  Name = 
  5 active torsions:
  status: ('A' for Active; 'I' for Inactive)
    1  A    between atoms: C_7  and  C_23
    2  A    between atoms: N_8  and  C_13
    3  A    between atoms: C_12  and  C_13
    4  A    between atoms: C_14  and  C_16
    5  A    between atoms: C_18  and  C_24
                            x       y       z     vdW  Elec       q    Type
                         _______ _______ _______ _____ _____    ______ ____

>  <TORSDO>
F 5

$$$$
=
 OpenBabel10232412293D

 29 31  0  0  1  0  0  0  0  0999 V2000
  187.5840  178.2740  140.3230 C   0  0  0  0  0  0  0  0  0  0  0  0
  188.7220  177.7610  139.5910 C   0  0  0  0  0  0  0  0  0  0  0  0
  189.0240  177.5970  141.7360 C   0  0  0  0  0  0  0  0  0  0  0  0
  186.5370  178.7800  139.8410 O   0  0  0  0  0  0  0  0  0  0  0  0
  187.8420  178.1340  141.7070 N   0  0  0  0  0  0  0  0  0  0  0  0
  189.6040  177.3610  140.4420 N   0  0  0  0  0  0  0  0  0  0  0  0
  190.9420  176.5870  142.9590 C   0  0  0  0  0  3  0  0  0  0  0  0
  191.0660  176.6530  145.3830 C   0  0  0  0  0  0  0  0  0  0  0  0
  189.7220  177.2740  142.9910 C   0  0  0  0  0  0  0  0  0  0  0  0
  191.6100  176.2790  144.1470 C   0  0  0  0  0  3  0  0  0  0  0  0
  189.8450  177.3410  145.4150 C   0  0  0  0  0  3  0  0  0  0  0  0
  189.1770  177.6490  144.2270 C   0  0  0  0  0  3  0  0  0  0  0  0
  191.6740  177.1870  147.7300 O   0  0  0  0  0  1  0  0  0  0  0  0
  192.4520  175.2800  146.7340 O   0  0  0  0  0  0  0  0  0  0  0  0
  191.7660  176.3320  146.6370 C   0  0  0  0  0  0  0  0  0  0  0  0
  188.9520  177.7610  138.1100 C   0  0  1  0  0  3  0  0  0  0  0  0
  188.9440  179.1630  137.5200 C   0  0  0  0  0  1  0  0  0  0  0  0
  191.4920  174.9650  138.0320 C   0  0  0  0  0  2  0  0  0  0  0  0
  191.7770  175.9400  134.7000 C   0  0  0  0  0  2  0  0  0  0  0  0
  189.6730  175.0480  136.5390 N   0  0  0  0  0  0  0  0  0  0  0  0
  190.1660  177.0400  137.7310 N   0  0  0  0  0  2  0  0  0  0  0  0
  190.4080  176.6220  134.8250 C   0  0  0  0  0  2  0  0  0  0  0  0
  192.6170  176.0530  135.9820 C   0  0  1  0  0  3  0  0  0  0  0  0
  190.2430  175.6190  137.5560 C   0  0  0  0  0  0  0  0  0  0  0  0
  189.4330  175.7230  135.3590 O   0  0  0  0  0  0  0  0  0  0  0  0
  192.4860  174.8000  136.8680 C   0  0  0  0  0  2  0  0  0  0  0  0
  194.9520  175.8730  136.4110 O   0  0  0  0  0  0  0  0  0  0  0  0
  194.4060  176.9450  134.4250 N   0  0  0  0  0  1  0  0  0  0  0  0
  194.0500  176.2770  135.6320 C   0  0  0  0  0  0  0  0  0  0  0  0
  1  5  1  0  0  0  0
  2  1  1  0  0  0  0
  2  6  2  0  0  0  0
  3  9  1  0  0  0  0
  4  1  2  0  0  0  0
  5  3  2  0  0  0  0
  6  3  1  0  0  0  0
  7  9  2  0  0  0  0
  7 10  1  0  0  0  0
  8 11  1  0  0  0  0
  8 15  1  0  0  0  0
  9 12  1  0  0  0  0
 10  8  2  0  0  0  0
 12 11  2  0  0  0  0
 15 14  2  0  0  0  0
 15 13  1  0  0  0  0
 16 17  1  1  0  0  0
 16  2  1  0  0  0  0
 19 22  1  0  0  0  0
 19 23  1  0  0  0  0
 20 24  2  0  0  0  0
 21 16  1  0  0  0  0
 22 25  1  0  0  0  0
 23 29  1  6  0  0  0
 23 26  1  0  0  0  0
 24 21  1  0  0  0  0
 24 18  1  0  0  0  0
 25 20  1  0  0  0  0
 26 18  1  0  0  0  0
 28 29  1  0  0  0  0
 29 27  2  0  0  0  0
M  END
>  <MODEL>
8

>  <REMARK>
 VINA RESULT:      -7.9      6.066      8.000
  Name = 
  5 active torsions:
  status: ('A' for Active; 'I' for Inactive)
    1  A    between atoms: C_7  and  C_23
    2  A    between atoms: N_8  and  C_13
    3  A    between atoms: C_12  and  C_13
    4  A    between atoms: C_14  and  C_16
    5  A    between atoms: C_18  and  C_24
                            x       y       z     vdW  Elec       q    Type
                         _______ _______ _______ _____ _____    ______ ____

>  <TORSDO>
F 5

$$$$
=
 OpenBabel10232412293D

 29 31  0  0  1  0  0  0  0  0999 V2000
  190.8060  177.3500  141.1830 C   0  0  0  0  0  0  0  0  0  0  0  0
  189.7520  177.2900  140.1940 C   0  0  0  0  0  0  0  0  0  0  0  0
  188.9500  177.6380  142.1830 C   0  0  0  0  0  0  0  0  0  0  0  0
  192.0410  177.2060  140.9850 O   0  0  0  0  0  0  0  0  0  0  0  0
  190.2210  177.5820  142.4500 N   0  0  0  0  0  0  0  0  0  0  0  0
  188.6230  177.4510  140.7960 N   0  0  0  0  0  0  0  0  0  0  0  0
  188.2530  177.6880  144.5720 C   0  0  0  0  0  3  0  0  0  0  0  0
  185.9820  178.2690  145.2090 C   0  0  0  0  0  0  0  0  0  0  0  0
  187.9280  177.8550  143.2200 C   0  0  0  0  0  0  0  0  0  0  0  0
  187.2870  177.8940  145.5600 C   0  0  0  0  0  3  0  0  0  0  0  0
  185.6570  178.4350  143.8550 C   0  0  0  0  0  3  0  0  0  0  0  0
  186.6230  178.2290  142.8670 C   0  0  0  0  0  3  0  0  0  0  0  0
  183.6510  178.7820  145.8880 O   0  0  0  0  0  0  0  0  0  0  0  0
  185.2640  178.4080  147.4660 O   0  0  0  0  0  1  0  0  0  0  0  0
  184.9620  178.4870  146.2460 C   0  0  0  0  0  0  0  0  0  0  0  0
  189.8640  176.9910  138.7300 C   0  0  1  0  0  3  0  0  0  0  0  0
  190.7470  175.7850  138.4490 C   0  0  0  0  0  1  0  0  0  0  0  0
  186.5030  178.0190  137.3460 C   0  0  0  0  0  2  0  0  0  0  0  0
  187.2500  175.5790  134.9750 C   0  0  0  0  0  2  0  0  0  0  0  0
  188.4570  178.0350  136.0320 N   0  0  0  0  0  0  0  0  0  0  0  0
  188.5610  176.8470  138.0840 N   0  0  0  0  0  2  0  0  0  0  0  0
  188.7270  175.6990  135.3760 C   0  0  0  0  0  2  0  0  0  0  0  0
  186.2950  175.7330  136.1690 C   0  0  1  0  0  3  0  0  0  0  0  0
  187.9730  177.8280  137.2190 C   0  0  0  0  0  0  0  0  0  0  0  0
  189.1570  177.0630  135.3470 O   0  0  0  0  0  0  0  0  0  0  0  0
  185.7600  177.1720  136.2950 C   0  0  0  0  0  2  0  0  0  0  0  0
  184.0810  175.0020  136.6510 O   0  0  0  0  0  0  0  0  0  0  0  0
  185.2720  173.6210  135.2140 N   0  0  0  0  0  1  0  0  0  0  0  0
  185.1550  174.7800  136.0340 C   0  0  0  0  0  0  0  0  0  0  0  0
  1  5  1  0  0  0  0
  2  6  2  0  0  0  0
  2  1  1  0  0  0  0
  3  5  2  0  0  0  0
  3  9  1  0  0  0  0
  4  1  2  0  0  0  0
  6  3  1  0  0  0  0
  7 10  1  0  0  0  0
  8 10  2  0  0  0  0
  8 15  1  0  0  0  0
  9  7  2  0  0  0  0
 11  8  1  0  0  0  0
 12  9  1  0  0  0  0
 12 11  2  0  0  0  0
 13 15  2  0  0  0  0
 15 14  1  0  0  0  0
 16 17  1  1  0  0  0
 16  2  1  0  0  0  0
 19 22  1  0  0  0  0
 19 23  1  0  0  0  0
 20 24  2  0  0  0  0
 21 16  1  0  0  0  0
 23 29  1  6  0  0  0
 23 26  1  0  0  0  0
 24 18  1  0  0  0  0
 24 21  1  0  0  0  0
 25 22  1  0  0  0  0
 25 20  1  0  0  0  0
 26 18  1  0  0  0  0
 28 29  1  0  0  0  0
 29 27  2  0  0  0  0
M  END
>  <MODEL>
9

>  <REMARK>
 VINA RESULT:      -7.6      4.548      6.277
  Name = 
  5 active torsions:
  status: ('A' for Active; 'I' for Inactive)
    1  A    between atoms: C_7  and  C_23
    2  A    between atoms: N_8  and  C_13
    3  A    between atoms: C_12  and  C_13
    4  A    between atoms: C_14  and  C_16
    5  A    between atoms: C_18  and  C_24
                            x       y       z     vdW  Elec       q    Type
                         _______ _______ _______ _____ _____    ______ ____

>  <TORSDO>
F 5

$$$$
