=
 OpenBabel10232409523D

 59 66  0  0  1  0  0  0  0  0999 V2000
  183.9450  173.4180  135.5000 C   0  0  1  0  0  3  0  0  0  0  0  0
  183.3960  174.8080  135.8060 C   0  0  0  0  0  2  0  0  0  0  0  0
  183.7910  179.6870  138.8930 O   0  0  0  0  0  0  0  0  0  0  0  0
  184.3710  178.4040  139.0940 C   0  0  0  0  0  2  0  0  0  0  0  0
  185.2190  172.8510  136.0590 C   0  0  1  0  0  3  0  0  0  0  0  0
  184.3510  177.5440  137.8770 C   0  0  0  0  0  0  0  0  0  0  0  0
  191.2100  173.1310  134.9370 C   0  0  2  0  0  3  0  0  0  0  0  0
  184.5740  170.2300  135.1800 C   0  0  0  0  0  2  0  0  0  0  0  0
  186.2960  172.7940  134.9200 C   0  0  1  0  0  3  0  0  0  0  0  0
  181.3450  179.0270  137.2280 C   0  0  0  0  0  2  0  0  0  0  0  0
  188.2780  170.9190  135.2100 N   0  0  0  0  0  2  0  0  0  0  0  0
  186.4750  175.0470  136.3960 C   0  0  0  0  0  0  0  0  0  0  0  0
  189.4980  173.1580  134.3470 S   0  0  0  0  0  0  0  0  0  0  0  0
  181.2290  179.8800  138.5700 C   0  0  1  0  0  3  0  0  0  0  0  0
  183.2440  172.4970  134.8260 C   0  0  0  0  0  2  0  0  0  0  0  0
  181.5630  174.9740  136.1560 S   0  0  0  0  0  0  0  0  0  0  0  0
  182.4960  179.8510  139.4500 C   0  0  0  0  0  0  0  0  0  0  0  0
  186.0450  170.2550  134.8740 N   0  0  0  0  0  0  0  0  0  0  0  0
  183.3890  177.6510  136.9880 N   0  0  0  0  0  0  0  0  0  0  0  0
  185.6090  177.0820  137.4810 N   0  0  0  0  0  2  0  0  0  0  0  0
  182.3650  179.5450  140.6520 O   0  0  0  0  0  0  0  0  0  0  0  0
  187.5610  175.6000  135.8880 C   0  0  0  0  0  2  0  0  0  0  0  0
  181.3290  176.8010  136.1880 C   0  0  0  0  0  2  0  0  0  0  0  0
  181.9600  177.6260  137.2830 C   0  0  2  0  0  3  0  0  0  0  0  0
  186.5530  173.5140  136.2510 C   0  0  1  0  0  3  0  0  0  0  0  0
  186.8490  171.2450  134.9820 C   0  0  0  0  0  0  0  0  0  0  0  0
  190.6050  170.8690  134.9890 N   0  0  0  0  0  0  0  0  0  0  0  0
  191.7880  171.7200  134.9110 C   0  0  0  0  0  2  0  0  0  0  0  0
  185.7640  175.6660  137.5440 C   0  0  0  0  0  2  0  0  0  0  0  0
  189.4600  171.5040  134.8050 C   0  0  0  0  0  0  0  0  0  0  0  0
  183.6890  171.2090  134.3460 C   0  0  0  0  0  2  0  0  0  0  0  0
  193.0260  175.0720  134.5510 C   0  0  0  0  0  2  0  0  0  0  0  0
  191.1350  175.2460  136.2640 N   0  0  0  0  0  0  0  0  0  0  0  0
  193.3170  176.1390  136.9200 C   0  0  0  0  0  2  0  0  0  0  0  0
  191.8090  175.9740  137.0510 C   0  0  0  0  0  0  0  0  0  0  0  0
  193.7130  176.2540  135.3800 C   0  0  0  0  0  2  0  0  0  0  0  0
  191.9650  174.3640  135.5140 C   0  0  1  0  0  3  0  0  0  0  0  0
  191.0970  176.4720  138.1100 O   0  0  0  0  0  0  0  0  0  0  0  0
  190.1280  177.4610  138.0090 C   0  0  0  0  0  2  0  0  0  0  0  0
  189.1780  177.0930  139.1180 C   0  0  0  0  0  2  0  0  0  0  0  0
  189.1170  178.0790  140.2440 C   0  0  1  0  0  3  0  0  0  0  0  0
  188.3220  179.1460  139.8010 O   0  0  0  0  0  1  0  0  0  0  0  0
  192.1720  176.5550  143.6550 O   0  0  0  0  0  0  0  0  0  0  0  0
  187.4980  177.0450  141.7930 O   0  0  0  0  0  0  0  0  0  0  0  0
  189.0200  177.4560  144.9840 N   0  0  0  0  0  0  0  0  0  0  0  0
  187.5940  177.5830  145.3980 C   0  0  0  0  0  0  0  0  0  0  0  0
  189.6280  176.5750  143.9130 C   0  0  1  0  0  3  0  0  0  0  0  0
  189.6570  177.2300  142.5610 N   0  0  0  0  0  0  0  0  0  0  0  0
  192.0330  176.1850  146.7260 O   0  0  0  0  0  1  0  0  0  0  0  0
  188.6740  177.5060  141.6040 C   0  0  0  0  0  0  0  0  0  0  0  0
  190.9180  176.8600  141.8550 C   0  0  0  0  0  2  0  0  0  0  0  0
  191.9580  177.2820  142.6010 O   0  0  0  0  0  0  0  0  0  0  0  0
  191.0730  176.4720  144.5150 C   0  0  2  0  0  3  0  0  0  0  0  0
  191.3760  177.1550  145.8790 C   0  0  1  0  0  3  0  0  0  0  0  0
  186.6720  177.0630  144.7810 O   0  0  0  0  0  0  0  0  0  0  0  0
  187.3220  178.3810  146.6120 C   0  0  0  0  0  1  0  0  0  0  0  0
  189.8440  177.1810  146.2120 C   0  0  0  0  0  2  0  0  0  0  0  0
  181.4420  182.2690  138.3050 C   0  0  0  0  0  1  0  0  0  0  0  0
  180.4880  181.2010  138.7710 C   0  0  0  0  0  2  0  0  0  0  0  0
  1 15  1  1  0  0  0
  1  2  1  0  0  0  0
  1  5  1  0  0  0  0
  2 16  1  0  0  0  0
  3  4  1  0  0  0  0
  3 17  1  0  0  0  0
  5 25  1  0  0  0  0
  6  4  1  0  0  0  0
  7 37  1  0  0  0  0
  9 26  1  0  0  0  0
  9  5  1  0  0  0  0
  9 25  1  0  0  0  0
 10 24  1  0  0  0  0
 10 14  1  0  0  0  0
 12 29  1  0  0  0  0
 13 30  1  0  0  0  0
 13  7  1  0  0  0  0
 14 59  1  0  0  0  0
 14 17  1  0  0  0  0
 16 23  1  0  0  0  0
 17 21  2  0  0  0  0
 18 26  2  0  0  0  0
 18  8  1  0  0  0  0
 19 24  1  0  0  0  0
 19  6  2  0  0  0  0
 20 29  1  0  0  0  0
 20  6  1  0  0  0  0
 22 12  2  0  0  0  0
 23 24  1  0  0  0  0
 25 12  1  0  0  0  0
 26 11  1  0  0  0  0
 28  7  1  0  0  0  0
 28 27  1  0  0  0  0
 30 27  2  0  0  0  0
 30 11  1  0  0  0  0
 31 15  1  0  0  0  0
 31  8  1  0  0  0  0
 32 36  1  0  0  0  0
 32 37  1  0  0  0  0
 33 35  2  0  0  0  0
 34 35  1  0  0  0  0
 35 38  1  0  0  0  0
 36 34  1  0  0  0  0
 37 33  1  0  0  0  0
 39 38  1  0  0  0  0
 39 40  1  0  0  0  0
 40 41  1  0  0  0  0
 41 50  1  0  0  0  0
 42 41  1  0  0  0  0
 43 53  1  0  0  0  0
 45 46  1  0  0  0  0
 45 57  1  0  0  0  0
 46 56  1  0  0  0  0
 47 53  1  0  0  0  0
 47 45  1  0  0  0  0
 48 47  1  0  0  0  0
 50 44  2  0  0  0  0
 50 48  1  0  0  0  0
 51 48  1  0  0  0  0
 51 52  1  0  0  0  0
 52 43  1  0  0  0  0
 53 54  1  0  0  0  0
 54 57  1  0  0  0  0
 54 49  1  0  0  0  0
 55 46  2  0  0  0  0
 58 59  1  0  0  0  0
M  END
>  <MODEL>
1

>  <REMARK>
 VINA RESULT:      -8.4      0.000      0.000
  Name = 
  7 active torsions:
  status: ('A' for Active; 'I' for Inactive)
    1  A    between atoms: C_11  and  C_28
    2  A    between atoms: C_11  and  C_33
    3  A    between atoms: C_12  and  C_57
    4  A    between atoms: C_21  and  O_26
    5  A    between atoms: O_26  and  C_32
    6  A    between atoms: C_28  and  C_32
    7  A    between atoms: C_30  and  C_44
                            x       y       z     vdW  Elec       q    Type
                         _______ _______ _______ _____ _____    ______ ____

>  <TORSDO>
F 7

$$$$
=
 OpenBabel10232409523D

 59 66  0  0  1  0  0  0  0  0999 V2000
  184.8280  172.9750  135.4060 C   0  0  1  0  0  3  0  0  0  0  0  0
  184.1870  174.3410  135.6350 C   0  0  0  0  0  2  0  0  0  0  0  0
  184.2200  179.3790  138.4790 O   0  0  0  0  0  0  0  0  0  0  0  0
  184.8770  178.1480  138.7530 C   0  0  0  0  0  2  0  0  0  0  0  0
  186.1250  172.5180  136.0100 C   0  0  1  0  0  3  0  0  0  0  0  0
  184.9320  177.2300  137.5800 C   0  0  0  0  0  0  0  0  0  0  0  0
  192.1050  173.1250  134.9610 C   0  0  2  0  0  3  0  0  0  0  0  0
  185.6620  169.8220  135.2550 C   0  0  0  0  0  2  0  0  0  0  0  0
  187.2230  172.4750  134.8910 C   0  0  1  0  0  3  0  0  0  0  0  0
  181.8500  178.4840  136.8160 C   0  0  0  0  0  2  0  0  0  0  0  0
  189.3140  170.7470  135.3020 N   0  0  0  0  0  2  0  0  0  0  0  0
  187.2340  174.8040  136.2550 C   0  0  0  0  0  0  0  0  0  0  0  0
  190.4050  173.0130  134.3460 S   0  0  0  0  0  0  0  0  0  0  0  0
  181.6570  179.3920  138.1120 C   0  0  1  0  0  3  0  0  0  0  0  0
  184.1970  171.9790  134.7690 C   0  0  0  0  0  2  0  0  0  0  0  0
  182.3420  174.4060  135.9500 S   0  0  0  0  0  0  0  0  0  0  0  0
  182.9080  179.4880  139.0090 C   0  0  0  0  0  0  0  0  0  0  0  0
  187.1340  169.9260  134.9690 N   0  0  0  0  0  0  0  0  0  0  0  0
  183.9800  177.2310  136.6730 N   0  0  0  0  0  0  0  0  0  0  0  0
  186.2230  176.8300  137.2250 N   0  0  0  0  0  2  0  0  0  0  0  0
  182.7760  179.2330  140.2230 O   0  0  0  0  0  0  0  0  0  0  0  0
  188.2920  175.4000  135.7360 C   0  0  0  0  0  2  0  0  0  0  0  0
  181.9920  176.2130  135.8880 C   0  0  0  0  0  2  0  0  0  0  0  0
  182.5510  177.1290  136.9490 C   0  0  2  0  0  3  0  0  0  0  0  0
  187.4120  173.2740  136.1880 C   0  0  1  0  0  3  0  0  0  0  0  0
  187.8710  170.9690  135.0390 C   0  0  0  0  0  0  0  0  0  0  0  0
  191.6430  170.8340  135.1170 N   0  0  0  0  0  0  0  0  0  0  0  0
  192.7710  171.7540  135.0130 C   0  0  0  0  0  2  0  0  0  0  0  0
  186.4660  175.4310  137.3610 C   0  0  0  0  0  2  0  0  0  0  0  0
  190.4640  171.3850  134.8850 C   0  0  0  0  0  0  0  0  0  0  0  0
  184.7310  170.7000  134.3610 C   0  0  0  0  0  2  0  0  0  0  0  0
  193.5820  175.3020  134.4200 C   0  0  0  0  0  2  0  0  0  0  0  0
  191.9520  175.1710  136.3860 N   0  0  0  0  0  0  0  0  0  0  0  0
  194.0720  176.3280  136.7750 C   0  0  0  0  0  2  0  0  0  0  0  0
  192.6330  175.9590  137.1060 C   0  0  0  0  0  0  0  0  0  0  0  0
  194.2240  176.5410  135.2020 C   0  0  0  0  0  2  0  0  0  0  0  0
  192.7710  174.4300  135.4860 C   0  0  1  0  0  3  0  0  0  0  0  0
  192.0230  176.3260  138.2760 O   0  0  0  0  0  0  0  0  0  0  0  0
  190.9060  177.1460  138.3570 C   0  0  0  0  0  2  0  0  0  0  0  0
  191.0320  177.7240  139.7410 C   0  0  0  0  0  2  0  0  0  0  0  0
  190.0870  177.1450  140.7490 C   0  0  1  0  0  3  0  0  0  0  0  0
  190.0740  175.7590  140.5380 O   0  0  0  0  0  1  0  0  0  0  0  0
  186.6210  178.0550  143.9830 O   0  0  0  0  0  0  0  0  0  0  0  0
  191.4810  178.0160  142.5900 O   0  0  0  0  0  0  0  0  0  0  0  0
  189.6650  177.1030  145.5130 N   0  0  0  0  0  0  0  0  0  0  0  0
  191.0460  176.9760  146.0580 C   0  0  0  0  0  0  0  0  0  0  0  0
  189.1230  178.1000  144.5100 C   0  0  1  0  0  3  0  0  0  0  0  0
  189.2670  177.6400  143.0870 N   0  0  0  0  0  0  0  0  0  0  0  0
  186.4260  177.9970  147.0710 O   0  0  0  0  0  1  0  0  0  0  0  0
  190.3570  177.5400  142.2140 C   0  0  0  0  0  0  0  0  0  0  0  0
  188.0680  178.0550  142.3050 C   0  0  0  0  0  2  0  0  0  0  0  0
  186.9810  177.4910  142.8690 O   0  0  0  0  0  0  0  0  0  0  0  0
  187.6210  178.0600  144.9600 C   0  0  2  0  0  3  0  0  0  0  0  0
  187.2170  177.1820  146.1780 C   0  0  1  0  0  3  0  0  0  0  0  0
  191.9970  177.6140  145.6210 O   0  0  0  0  0  0  0  0  0  0  0  0
  191.2360  176.0280  147.1760 C   0  0  0  0  0  1  0  0  0  0  0  0
  188.7070  177.1710  146.6690 C   0  0  0  0  0  2  0  0  0  0  0  0
  180.7760  181.2490  136.8460 C   0  0  0  0  0  1  0  0  0  0  0  0
  180.8310  180.6720  138.2350 C   0  0  0  0  0  2  0  0  0  0  0  0
  1 15  1  1  0  0  0
  1  2  1  0  0  0  0
  1  5  1  0  0  0  0
  2 16  1  0  0  0  0
  3  4  1  0  0  0  0
  3 17  1  0  0  0  0
  5 25  1  0  0  0  0
  6  4  1  0  0  0  0
  7 28  1  0  0  0  0
  7 37  1  0  0  0  0
  9 26  1  0  0  0  0
  9  5  1  0  0  0  0
  9 25  1  0  0  0  0
 10 24  1  0  0  0  0
 10 14  1  0  0  0  0
 12 29  1  0  0  0  0
 13 30  1  0  0  0  0
 13  7  1  0  0  0  0
 14 59  1  0  0  0  0
 14 17  1  0  0  0  0
 17 21  2  0  0  0  0
 18 26  2  0  0  0  0
 18  8  1  0  0  0  0
 19 24  1  0  0  0  0
 19  6  2  0  0  0  0
 20 29  1  0  0  0  0
 20  6  1  0  0  0  0
 22 12  2  0  0  0  0
 23 16  1  0  0  0  0
 23 24  1  0  0  0  0
 25 12  1  0  0  0  0
 26 11  1  0  0  0  0
 28 27  1  0  0  0  0
 30 27  2  0  0  0  0
 30 11  1  0  0  0  0
 31 15  1  0  0  0  0
 31  8  1  0  0  0  0
 32 36  1  0  0  0  0
 32 37  1  0  0  0  0
 33 35  2  0  0  0  0
 34 35  1  0  0  0  0
 35 38  1  0  0  0  0
 36 34  1  0  0  0  0
 37 33  1  0  0  0  0
 38 39  1  0  0  0  0
 39 40  1  0  0  0  0
 40 41  1  0  0  0  0
 41 50  1  0  0  0  0
 42 41  1  0  0  0  0
 43 53  1  0  0  0  0
 45 46  1  0  0  0  0
 45 57  1  0  0  0  0
 46 56  1  0  0  0  0
 47 53  1  0  0  0  0
 47 45  1  0  0  0  0
 48 47  1  0  0  0  0
 50 44  2  0  0  0  0
 50 48  1  0  0  0  0
 51 52  1  0  0  0  0
 51 48  1  0  0  0  0
 52 43  1  0  0  0  0
 53 54  1  0  0  0  0
 54 57  1  0  0  0  0
 54 49  1  0  0  0  0
 55 46  2  0  0  0  0
 58 59  1  0  0  0  0
M  END
>  <MODEL>
2

>  <REMARK>
 VINA RESULT:      -8.0      1.141      2.183
  Name = 
  7 active torsions:
  status: ('A' for Active; 'I' for Inactive)
    1  A    between atoms: C_11  and  C_28
    2  A    between atoms: C_11  and  C_33
    3  A    between atoms: C_12  and  C_57
    4  A    between atoms: C_21  and  O_26
    5  A    between atoms: O_26  and  C_32
    6  A    between atoms: C_28  and  C_32
    7  A    between atoms: C_30  and  C_44
                            x       y       z     vdW  Elec       q    Type
                         _______ _______ _______ _____ _____    ______ ____

>  <TORSDO>
F 7

$$$$
=
 OpenBabel10232409523D

 59 66  0  0  1  0  0  0  0  0999 V2000
  187.4170  171.8390  135.5820 C   0  0  1  0  0  3  0  0  0  0  0  0
  188.8420  172.2870  135.8950 C   0  0  0  0  0  2  0  0  0  0  0  0
  192.6710  176.6090  136.2790 O   0  0  0  0  0  0  0  0  0  0  0  0
  191.3990  176.5400  135.6450 C   0  0  0  0  0  2  0  0  0  0  0  0
  186.2650  172.7600  135.3030 C   0  0  1  0  0  3  0  0  0  0  0  0
  190.5630  175.3980  136.1110 C   0  0  0  0  0  0  0  0  0  0  0  0
  182.2430  176.1070  138.4440 C   0  0  2  0  0  3  0  0  0  0  0  0
  184.6460  170.6350  134.3460 C   0  0  0  0  0  2  0  0  0  0  0  0
  185.2860  172.7400  136.5290 C   0  0  1  0  0  3  0  0  0  0  0  0
  193.5160  173.6980  136.3320 C   0  0  0  0  0  2  0  0  0  0  0  0
  182.6680  173.3760  136.0090 N   0  0  0  0  0  2  0  0  0  0  0  0
  187.0660  174.7640  136.6670 C   0  0  0  0  0  0  0  0  0  0  0  0
  183.2950  174.6390  138.3020 S   0  0  0  0  0  0  0  0  0  0  0  0
  194.4620  174.8250  135.7180 C   0  0  1  0  0  3  0  0  0  0  0  0
  187.0970  170.5580  135.3560 C   0  0  0  0  0  2  0  0  0  0  0  0
  190.2540  171.3800  135.0640 S   0  0  0  0  0  0  0  0  0  0  0  0
  193.7610  176.1790  135.4800 C   0  0  0  0  0  0  0  0  0  0  0  0
  183.6210  171.4180  135.1170 N   0  0  0  0  0  0  0  0  0  0  0  0
  191.1140  174.2730  136.5070 N   0  0  0  0  0  0  0  0  0  0  0  0
  189.3140  175.7700  136.6150 N   0  0  0  0  0  2  0  0  0  0  0  0
  193.8580  176.6940  134.3480 O   0  0  0  0  0  0  0  0  0  0  0  0
  186.6400  175.4080  137.7380 C   0  0  0  0  0  2  0  0  0  0  0  0
  191.7290  172.0590  135.9330 C   0  0  0  0  0  2  0  0  0  0  0  0
  192.1080  173.5100  135.7600 C   0  0  2  0  0  3  0  0  0  0  0  0
  185.8850  174.0440  135.9860 C   0  0  1  0  0  3  0  0  0  0  0  0
  183.8150  172.4490  135.8490 C   0  0  0  0  0  0  0  0  0  0  0  0
  181.0330  174.7370  136.9790 N   0  0  0  0  0  0  0  0  0  0  0  0
  180.8380  175.8400  137.9150 C   0  0  0  0  0  2  0  0  0  0  0  0
  188.2050  175.2800  135.8640 C   0  0  0  0  0  2  0  0  0  0  0  0
  182.2200  174.1600  137.0530 C   0  0  0  0  0  0  0  0  0  0  0  0
  185.7820  169.9810  135.1940 C   0  0  0  0  0  2  0  0  0  0  0  0
  182.4250  178.7450  137.9750 C   0  0  0  0  0  2  0  0  0  0  0  0
  182.5250  177.7320  140.3210 N   0  0  0  0  0  0  0  0  0  0  0  0
  184.0240  179.6070  139.8550 C   0  0  0  0  0  2  0  0  0  0  0  0
  183.2810  178.6430  140.7690 C   0  0  0  0  0  0  0  0  0  0  0  0
  183.0790  180.0410  138.6460 C   0  0  0  0  0  2  0  0  0  0  0  0
  182.7340  177.5020  138.9300 C   0  0  1  0  0  3  0  0  0  0  0  0
  183.4910  178.5910  142.1210 O   0  0  0  0  0  0  0  0  0  0  0  0
  182.5240  178.8700  143.0770 C   0  0  0  0  0  2  0  0  0  0  0  0
  183.3420  178.9860  144.3360 C   0  0  0  0  0  2  0  0  0  0  0  0
  184.8120  179.1710  144.1120 C   0  0  1  0  0  3  0  0  0  0  0  0
  185.0520  180.5530  144.1410 O   0  0  0  0  0  1  0  0  0  0  0  0
  188.9500  177.1090  142.7270 O   0  0  0  0  0  0  0  0  0  0  0  0
  185.3100  177.8730  146.1510 O   0  0  0  0  0  0  0  0  0  0  0  0
  188.8670  177.7410  146.2060 N   0  0  0  0  0  0  0  0  0  0  0  0
  188.6210  177.7840  147.6750 C   0  0  0  0  0  0  0  0  0  0  0  0
  188.0550  177.0630  145.1220 C   0  0  1  0  0  3  0  0  0  0  0  0
  186.9710  177.9410  144.5630 N   0  0  0  0  0  0  0  0  0  0  0  0
  191.5470  176.2160  144.1540 O   0  0  0  0  0  1  0  0  0  0  0  0
  185.7320  178.3690  145.0530 C   0  0  0  0  0  0  0  0  0  0  0  0
  186.8490  177.7080  143.0950 C   0  0  0  0  0  2  0  0  0  0  0  0
  188.0320  178.0040  142.5220 O   0  0  0  0  0  0  0  0  0  0  0  0
  189.2110  176.8700  144.0790 C   0  0  2  0  0  3  0  0  0  0  0  0
  190.6540  177.3110  144.4570 C   0  0  1  0  0  3  0  0  0  0  0  0
  187.5890  177.3700  148.1910 O   0  0  0  0  0  0  0  0  0  0  0  0
  189.6940  178.3590  148.5130 C   0  0  0  0  0  1  0  0  0  0  0  0
  190.2740  177.2660  145.9780 C   0  0  0  0  0  2  0  0  0  0  0  0
  196.6730  173.9870  135.2340 C   0  0  0  0  0  1  0  0  0  0  0  0
  195.9450  175.0530  136.0080 C   0  0  0  0  0  2  0  0  0  0  0  0
  1 15  1  6  0  0  0
  1  2  1  0  0  0  0
  4  6  1  0  0  0  0
  4  3  1  0  0  0  0
  5  1  1  0  0  0  0
  5 25  1  0  0  0  0
  5  9  1  0  0  0  0
  6 19  2  0  0  0  0
  6 20  1  0  0  0  0
  7 37  1  0  0  0  0
  8 18  1  0  0  0  0
  8 31  1  0  0  0  0
 11 30  1  0  0  0  0
 12 22  2  0  0  0  0
 13  7  1  0  0  0  0
 14 59  1  0  0  0  0
 14 10  1  0  0  0  0
 16  2  1  0  0  0  0
 16 23  1  0  0  0  0
 17 14  1  0  0  0  0
 17  3  1  0  0  0  0
 18 26  2  0  0  0  0
 21 17  2  0  0  0  0
 24 23  1  0  0  0  0
 24 10  1  0  0  0  0
 24 19  1  0  0  0  0
 25  9  1  0  0  0  0
 25 12  1  0  0  0  0
 26 11  1  0  0  0  0
 26  9  1  0  0  0  0
 27 30  2  0  0  0  0
 27 28  1  0  0  0  0
 28  7  1  0  0  0  0
 29 20  1  0  0  0  0
 29 12  1  0  0  0  0
 30 13  1  0  0  0  0
 31 15  1  0  0  0  0
 32 36  1  0  0  0  0
 32 37  1  0  0  0  0
 33 35  2  0  0  0  0
 34 35  1  0  0  0  0
 35 38  1  0  0  0  0
 36 34  1  0  0  0  0
 37 33  1  0  0  0  0
 38 39  1  0  0  0  0
 39 40  1  0  0  0  0
 41 42  1  0  0  0  0
 41 40  1  0  0  0  0
 41 50  1  0  0  0  0
 43 53  1  0  0  0  0
 45 46  1  0  0  0  0
 46 55  2  0  0  0  0
 46 56  1  0  0  0  0
 47 45  1  0  0  0  0
 48 50  1  0  0  0  0
 48 47  1  0  0  0  0
 49 54  1  0  0  0  0
 50 44  2  0  0  0  0
 51 48  1  0  0  0  0
 52 43  1  0  0  0  0
 52 51  1  0  0  0  0
 53 54  1  0  0  0  0
 53 47  1  0  0  0  0
 54 57  1  0  0  0  0
 57 45  1  0  0  0  0
 58 59  1  0  0  0  0
M  END
>  <MODEL>
3

>  <REMARK>
 VINA RESULT:      -7.8      2.188      7.931
  Name = 
  7 active torsions:
  status: ('A' for Active; 'I' for Inactive)
    1  A    between atoms: C_11  and  C_28
    2  A    between atoms: C_11  and  C_33
    3  A    between atoms: C_12  and  C_57
    4  A    between atoms: C_21  and  O_26
    5  A    between atoms: O_26  and  C_32
    6  A    between atoms: C_28  and  C_32
    7  A    between atoms: C_30  and  C_44
                            x       y       z     vdW  Elec       q    Type
                         _______ _______ _______ _____ _____    ______ ____

>  <TORSDO>
F 7

$$$$
=
 OpenBabel10232409523D

 59 66  0  0  1  0  0  0  0  0999 V2000
  185.3980  178.5810  144.9430 C   0  0  1  0  0  3  0  0  0  0  0  0
  186.7590  178.5490  145.6320 C   0  0  0  0  0  2  0  0  0  0  0  0
  192.0550  176.2420  145.9650 O   0  0  0  0  0  0  0  0  0  0  0  0
  190.8780  175.7880  145.3090 C   0  0  0  0  0  2  0  0  0  0  0  0
  185.0440  177.8220  143.6960 C   0  0  1  0  0  3  0  0  0  0  0  0
  189.8500  176.8520  145.1280 C   0  0  0  0  0  0  0  0  0  0  0  0
  185.7290  178.4040  137.6600 C   0  0  2  0  0  3  0  0  0  0  0  0
  182.2740  178.3360  144.0290 C   0  0  0  0  0  2  0  0  0  0  0  0
  184.9240  178.8310  142.5010 C   0  0  1  0  0  3  0  0  0  0  0  0
  190.9260  178.0050  148.1570 C   0  0  0  0  0  2  0  0  0  0  0  0
  183.3110  178.0660  140.4180 N   0  0  0  0  0  2  0  0  0  0  0  0
  187.3770  177.7170  142.6640 C   0  0  0  0  0  0  0  0  0  0  0  0
  185.5040  179.1500  139.2960 S   0  0  0  0  0  0  0  0  0  0  0  0
  191.9520  176.8300  148.4850 C   0  0  1  0  0  3  0  0  0  0  0  0
  184.3240  179.1650  145.4920 C   0  0  0  0  0  2  0  0  0  0  0  0
  186.7980  178.4030  147.4990 S   0  0  0  0  0  0  0  0  0  0  0  0
  192.1760  175.8420  147.3210 C   0  0  0  0  0  0  0  0  0  0  0  0
  182.3940  178.5020  142.5410 N   0  0  0  0  0  0  0  0  0  0  0  0
  189.7320  177.8330  145.9950 N   0  0  0  0  0  0  0  0  0  0  0  0
  189.4570  177.0500  143.8030 N   0  0  0  0  0  2  0  0  0  0  0  0
  192.0390  174.6240  147.5560 O   0  0  0  0  0  0  0  0  0  0  0  0
  187.9500  178.2000  141.5770 C   0  0  0  0  0  2  0  0  0  0  0  0
  188.5790  178.6800  147.8820 C   0  0  0  0  0  2  0  0  0  0  0  0
  189.6130  177.6740  147.4400 C   0  0  2  0  0  3  0  0  0  0  0  0
  185.8540  177.6120  142.4470 C   0  0  1  0  0  3  0  0  0  0  0  0
  183.4610  178.4750  141.8360 C   0  0  0  0  0  0  0  0  0  0  0  0
  183.4520  178.0560  138.0840 N   0  0  0  0  0  0  0  0  0  0  0  0
  184.3910  178.1540  136.9720 C   0  0  0  0  0  2  0  0  0  0  0  0
  188.0870  176.7510  143.5420 C   0  0  0  0  0  2  0  0  0  0  0  0
  183.9400  178.4440  139.2490 C   0  0  0  0  0  0  0  0  0  0  0  0
  183.0280  179.3930  144.8960 C   0  0  0  0  0  2  0  0  0  0  0  0
  188.4060  178.4130  137.8750 C   0  0  0  0  0  2  0  0  0  0  0  0
  187.1120  176.6180  136.5930 N   0  0  0  0  0  0  0  0  0  0  0  0
  189.2190  177.3810  135.6150 C   0  0  0  0  0  2  0  0  0  0  0  0
  188.0500  176.4190  135.7670 C   0  0  0  0  0  0  0  0  0  0  0  0
  189.6770  177.9030  137.0500 C   0  0  0  0  0  2  0  0  0  0  0  0
  187.1000  177.9600  137.0730 C   0  0  1  0  0  3  0  0  0  0  0  0
  187.8460  175.3590  134.9250 O   0  0  0  0  0  0  0  0  0  0  0  0
  187.8580  174.0280  135.3200 C   0  0  0  0  0  2  0  0  0  0  0  0
  189.2890  173.6330  135.0740 C   0  0  0  0  0  2  0  0  0  0  0  0
  190.1840  173.7440  136.2710 C   0  0  1  0  0  3  0  0  0  0  0  0
  189.4900  173.1700  137.3460 O   0  0  0  0  0  1  0  0  0  0  0  0
  194.1600  175.8470  138.0190 O   0  0  0  0  0  0  0  0  0  0  0  0
  191.8900  172.3430  135.1690 O   0  0  0  0  0  0  0  0  0  0  0  0
  194.6100  172.3830  137.4650 N   0  0  0  0  0  0  0  0  0  0  0  0
  194.7850  171.0010  136.9350 C   0  0  0  0  0  0  0  0  0  0  0  0
  194.1520  173.6320  136.7420 C   0  0  1  0  0  3  0  0  0  0  0  0
  192.6600  173.8100  136.7630 N   0  0  0  0  0  0  0  0  0  0  0  0
  197.0040  174.8870  138.7770 O   0  0  0  0  0  1  0  0  0  0  0  0
  191.6070  173.1820  136.0890 C   0  0  0  0  0  0  0  0  0  0  0  0
  192.3330  175.2570  136.9140 C   0  0  0  0  0  2  0  0  0  0  0  0
  192.8710  175.6920  138.0700 O   0  0  0  0  0  0  0  0  0  0  0  0
  194.8530  174.6850  137.6700 C   0  0  2  0  0  3  0  0  0  0  0  0
  195.7410  174.1870  138.8460 C   0  0  1  0  0  3  0  0  0  0  0  0
  194.4160  170.6650  135.8150 O   0  0  0  0  0  0  0  0  0  0  0  0
  195.4360  170.0220  137.8300 C   0  0  0  0  0  1  0  0  0  0  0  0
  195.8850  172.7890  138.1510 C   0  0  0  0  0  2  0  0  0  0  0  0
  193.1030  178.2110  150.0960 C   0  0  0  0  0  1  0  0  0  0  0  0
  193.2120  176.9100  149.3460 C   0  0  0  0  0  2  0  0  0  0  0  0
  1 15  1  1  0  0  0
  1  2  1  0  0  0  0
  2 16  1  0  0  0  0
  3 17  1  0  0  0  0
  4  3  1  0  0  0  0
  5  1  1  0  0  0  0
  6  4  1  0  0  0  0
  6 19  2  0  0  0  0
  7 13  1  0  0  0  0
  8 31  1  0  0  0  0
  9  5  1  0  0  0  0
 10 14  1  0  0  0  0
 11 26  1  0  0  0  0
 12 29  1  0  0  0  0
 14 59  1  0  0  0  0
 16 23  1  0  0  0  0
 17 21  2  0  0  0  0
 17 14  1  0  0  0  0
 18  8  1  0  0  0  0
 19 24  1  0  0  0  0
 20  6  1  0  0  0  0
 22 12  2  0  0  0  0
 24 23  1  0  0  0  0
 24 10  1  0  0  0  0
 25  9  1  0  0  0  0
 25 12  1  0  0  0  0
 25  5  1  0  0  0  0
 26  9  1  0  0  0  0
 26 18  2  0  0  0  0
 27 30  2  0  0  0  0
 28  7  1  0  0  0  0
 28 27  1  0  0  0  0
 29 20  1  0  0  0  0
 30 13  1  0  0  0  0
 30 11  1  0  0  0  0
 31 15  1  0  0  0  0
 33 37  1  0  0  0  0
 34 35  1  0  0  0  0
 34 36  1  0  0  0  0
 35 33  2  0  0  0  0
 36 32  1  0  0  0  0
 37  7  1  0  0  0  0
 37 32  1  0  0  0  0
 38 39  1  0  0  0  0
 38 35  1  0  0  0  0
 40 39  1  0  0  0  0
 40 41  1  0  0  0  0
 41 42  1  0  0  0  0
 43 52  1  0  0  0  0
 44 50  2  0  0  0  0
 45 57  1  0  0  0  0
 46 45  1  0  0  0  0
 46 56  1  0  0  0  0
 47 48  1  0  0  0  0
 47 45  1  0  0  0  0
 47 53  1  0  0  0  0
 48 51  1  0  0  0  0
 49 54  1  0  0  0  0
 50 41  1  0  0  0  0
 50 48  1  0  0  0  0
 51 52  1  0  0  0  0
 53 43  1  0  0  0  0
 53 54  1  0  0  0  0
 55 46  2  0  0  0  0
 57 54  1  0  0  0  0
 59 58  1  0  0  0  0
M  END
>  <MODEL>
4

>  <REMARK>
 VINA RESULT:      -7.6      3.596     10.049
  Name = 
  7 active torsions:
  status: ('A' for Active; 'I' for Inactive)
    1  A    between atoms: C_11  and  C_28
    2  A    between atoms: C_11  and  C_33
    3  A    between atoms: C_12  and  C_57
    4  A    between atoms: C_21  and  O_26
    5  A    between atoms: O_26  and  C_32
    6  A    between atoms: C_28  and  C_32
    7  A    between atoms: C_30  and  C_44
                            x       y       z     vdW  Elec       q    Type
                         _______ _______ _______ _____ _____    ______ ____

>  <TORSDO>
F 7

$$$$
=
 OpenBabel10232409523D

 59 66  0  0  1  0  0  0  0  0999 V2000
  185.3820  178.5830  144.9100 C   0  0  1  0  0  3  0  0  0  0  0  0
  186.7410  178.5510  145.6040 C   0  0  0  0  0  2  0  0  0  0  0  0
  192.0320  176.2350  145.9640 O   0  0  0  0  0  0  0  0  0  0  0  0
  190.8560  175.7810  145.3050 C   0  0  0  0  0  2  0  0  0  0  0  0
  185.0310  177.8200  143.6640 C   0  0  1  0  0  3  0  0  0  0  0  0
  189.8300  176.8460  145.1170 C   0  0  0  0  0  0  0  0  0  0  0  0
  185.7380  178.3770  137.6290 C   0  0  2  0  0  3  0  0  0  0  0  0
  182.2610  178.3400  143.9860 C   0  0  0  0  0  2  0  0  0  0  0  0
  184.9170  178.8250  142.4650 C   0  0  1  0  0  3  0  0  0  0  0  0
  190.8980  178.0090  148.1440 C   0  0  0  0  0  2  0  0  0  0  0  0
  183.3100  178.0540  140.3790 N   0  0  0  0  0  2  0  0  0  0  0  0
  187.3670  177.7060  142.6410 C   0  0  0  0  0  0  0  0  0  0  0  0
  185.5080  179.1300  139.2600 S   0  0  0  0  0  0  0  0  0  0  0  0
  191.9210  176.8330  148.4800 C   0  0  1  0  0  3  0  0  0  0  0  0
  184.3080  179.1710  145.4520 C   0  0  0  0  0  2  0  0  0  0  0  0
  186.7740  178.4120  147.4710 S   0  0  0  0  0  0  0  0  0  0  0  0
  192.1470  175.8400  147.3220 C   0  0  0  0  0  0  0  0  0  0  0  0
  182.3860  178.5000  142.4970 N   0  0  0  0  0  0  0  0  0  0  0  0
  189.7110  177.8310  145.9790 N   0  0  0  0  0  0  0  0  0  0  0  0
  189.4420  177.0400  143.7890 N   0  0  0  0  0  2  0  0  0  0  0  0
  192.0070  174.6240  147.5610 O   0  0  0  0  0  0  0  0  0  0  0  0
  187.9450  178.1840  141.5540 C   0  0  0  0  0  2  0  0  0  0  0  0
  188.5540  178.6870  147.8590 C   0  0  0  0  0  2  0  0  0  0  0  0
  189.5870  177.6770  147.4250 C   0  0  2  0  0  3  0  0  0  0  0  0
  185.8450  177.6030  142.4190 C   0  0  1  0  0  3  0  0  0  0  0  0
  183.4560  178.4690  141.7960 C   0  0  0  0  0  0  0  0  0  0  0  0
  183.4590  178.0350  138.0460 N   0  0  0  0  0  0  0  0  0  0  0  0
  184.4020  178.1270  136.9370 C   0  0  0  0  0  2  0  0  0  0  0  0
  188.0730  176.7430  143.5250 C   0  0  0  0  0  2  0  0  0  0  0  0
  183.9440  178.4270  139.2110 C   0  0  0  0  0  0  0  0  0  0  0  0
  183.0150  179.3990  144.8510 C   0  0  0  0  0  2  0  0  0  0  0  0
  187.2920  178.0390  135.4640 C   0  0  0  0  0  2  0  0  0  0  0  0
  188.2280  178.3510  137.8240 N   0  0  0  0  0  0  0  0  0  0  0  0
  189.3660  176.7370  136.3790 C   0  0  0  0  0  2  0  0  0  0  0  0
  189.2560  177.6480  137.5940 C   0  0  0  0  0  0  0  0  0  0  0  0
  188.7390  177.4610  135.1050 C   0  0  0  0  0  2  0  0  0  0  0  0
  187.1100  177.9280  137.0480 C   0  0  1  0  0  3  0  0  0  0  0  0
  190.1860  177.6600  138.5990 O   0  0  0  0  0  0  0  0  0  0  0  0
  190.8710  176.5400  139.0510 C   0  0  0  0  0  2  0  0  0  0  0  0
  192.2890  176.8500  138.6550 C   0  0  0  0  0  2  0  0  0  0  0  0
  192.9000  175.8720  137.6990 C   0  0  1  0  0  3  0  0  0  0  0  0
  193.0370  176.5400  136.4730 O   0  0  0  0  0  1  0  0  0  0  0  0
  194.1950  171.3660  136.5510 O   0  0  0  0  0  0  0  0  0  0  0  0
  194.8460  175.6240  139.1970 O   0  0  0  0  0  0  0  0  0  0  0  0
  196.9700  173.3720  137.4390 N   0  0  0  0  0  0  0  0  0  0  0  0
  198.0180  174.2020  138.0960 C   0  0  0  0  0  0  0  0  0  0  0  0
  195.6160  172.9500  137.9700 C   0  0  1  0  0  3  0  0  0  0  0  0
  194.5290  173.9410  137.6630 N   0  0  0  0  0  0  0  0  0  0  0  0
  196.8710  169.8180  136.4000 O   0  0  0  0  0  1  0  0  0  0  0  0
  194.2020  175.2000  138.1800 C   0  0  0  0  0  0  0  0  0  0  0  0
  193.2660  173.2140  137.3460 C   0  0  0  0  0  2  0  0  0  0  0  0
  193.4920  172.4240  136.2780 O   0  0  0  0  0  0  0  0  0  0  0  0
  195.4450  171.6500  137.1090 C   0  0  2  0  0  3  0  0  0  0  0  0
  196.5950  171.2160  136.1550 C   0  0  1  0  0  3  0  0  0  0  0  0
  197.8330  174.7970  139.1520 O   0  0  0  0  0  0  0  0  0  0  0  0
  199.3260  174.2880  137.4130 C   0  0  0  0  0  1  0  0  0  0  0  0
  197.6070  172.0950  136.9690 C   0  0  0  0  0  2  0  0  0  0  0  0
  193.0640  178.2130  150.0980 C   0  0  0  0  0  1  0  0  0  0  0  0
  193.1780  176.9140  149.3460 C   0  0  0  0  0  2  0  0  0  0  0  0
  1 15  1  1  0  0  0
  1  2  1  0  0  0  0
  2 16  1  0  0  0  0
  3 17  1  0  0  0  0
  4  3  1  0  0  0  0
  5  1  1  0  0  0  0
  6  4  1  0  0  0  0
  6 19  2  0  0  0  0
  7 13  1  0  0  0  0
  8 31  1  0  0  0  0
  9  5  1  0  0  0  0
 10 14  1  0  0  0  0
 11 26  1  0  0  0  0
 12 29  1  0  0  0  0
 14 59  1  0  0  0  0
 16 23  1  0  0  0  0
 17 21  2  0  0  0  0
 17 14  1  0  0  0  0
 18  8  1  0  0  0  0
 19 24  1  0  0  0  0
 20  6  1  0  0  0  0
 22 12  2  0  0  0  0
 24 23  1  0  0  0  0
 24 10  1  0  0  0  0
 25  9  1  0  0  0  0
 25 12  1  0  0  0  0
 25  5  1  0  0  0  0
 26  9  1  0  0  0  0
 26 18  2  0  0  0  0
 27 30  2  0  0  0  0
 28  7  1  0  0  0  0
 28 27  1  0  0  0  0
 29 20  1  0  0  0  0
 30 13  1  0  0  0  0
 30 11  1  0  0  0  0
 31 15  1  0  0  0  0
 32 37  1  0  0  0  0
 34 35  1  0  0  0  0
 35 33  2  0  0  0  0
 35 38  1  0  0  0  0
 36 32  1  0  0  0  0
 36 34  1  0  0  0  0
 37  7  1  0  0  0  0
 37 33  1  0  0  0  0
 38 39  1  0  0  0  0
 40 39  1  0  0  0  0
 41 50  1  0  0  0  0
 41 40  1  0  0  0  0
 42 41  1  0  0  0  0
 43 53  1  0  0  0  0
 45 47  1  0  0  0  0
 45 46  1  0  0  0  0
 46 55  2  0  0  0  0
 48 47  1  0  0  0  0
 48 50  1  0  0  0  0
 50 44  2  0  0  0  0
 51 48  1  0  0  0  0
 52 43  1  0  0  0  0
 52 51  1  0  0  0  0
 53 47  1  0  0  0  0
 54 49  1  0  0  0  0
 54 57  1  0  0  0  0
 54 53  1  0  0  0  0
 56 46  1  0  0  0  0
 57 45  1  0  0  0  0
 59 58  1  0  0  0  0
M  END
>  <MODEL>
5

>  <REMARK>
 VINA RESULT:      -7.2      4.135     10.268
  Name = 
  7 active torsions:
  status: ('A' for Active; 'I' for Inactive)
    1  A    between atoms: C_11  and  C_28
    2  A    between atoms: C_11  and  C_33
    3  A    between atoms: C_12  and  C_57
    4  A    between atoms: C_21  and  O_26
    5  A    between atoms: O_26  and  C_32
    6  A    between atoms: C_28  and  C_32
    7  A    between atoms: C_30  and  C_44
                            x       y       z     vdW  Elec       q    Type
                         _______ _______ _______ _____ _____    ______ ____

>  <TORSDO>
F 7

$$$$
=
 OpenBabel10232409523D

 59 66  0  0  1  0  0  0  0  0999 V2000
  190.6870  177.6470  143.1630 C   0  0  1  0  0  3  0  0  0  0  0  0
  191.2870  177.5910  141.7610 C   0  0  0  0  0  2  0  0  0  0  0  0
  190.8710  175.7270  136.2990 O   0  0  0  0  0  0  0  0  0  0  0  0
  190.1920  175.3180  137.4800 C   0  0  0  0  0  2  0  0  0  0  0  0
  189.3270  177.1330  143.5400 C   0  0  1  0  0  3  0  0  0  0  0  0
  190.2890  176.3040  138.5930 C   0  0  0  0  0  0  0  0  0  0  0  0
  183.5210  178.9960  143.2960 C   0  0  2  0  0  3  0  0  0  0  0  0
  189.8950  177.3280  146.3140 C   0  0  0  0  0  2  0  0  0  0  0  0
  188.3770  178.3510  143.8120 C   0  0  1  0  0  3  0  0  0  0  0  0
  193.4360  176.9000  137.4100 C   0  0  0  0  0  2  0  0  0  0  0  0
  186.2610  177.8940  145.4970 N   0  0  0  0  0  2  0  0  0  0  0  0
  188.1840  177.4410  141.2790 C   0  0  0  0  0  0  0  0  0  0  0  0
  185.2860  179.3690  143.4690 S   0  0  0  0  0  0  0  0  0  0  0  0
  193.4600  175.7750  136.2800 C   0  0  1  0  0  3  0  0  0  0  0  0
  191.3970  178.0120  144.2380 C   0  0  0  0  0  2  0  0  0  0  0  0
  193.0770  177.0700  141.5890 S   0  0  0  0  0  0  0  0  0  0  0  0
  192.1060  175.0690  136.0610 C   0  0  0  0  0  0  0  0  0  0  0  0
  188.4700  177.8060  146.3040 N   0  0  0  0  0  0  0  0  0  0  0  0
  191.3460  177.0730  138.7260 N   0  0  0  0  0  0  0  0  0  0  0  0
  189.0550  176.7360  139.0850 N   0  0  0  0  0  2  0  0  0  0  0  0
  192.0860  173.8220  136.0920 O   0  0  0  0  0  0  0  0  0  0  0  0
  187.1960  178.1840  140.8150 C   0  0  0  0  0  2  0  0  0  0  0  0
  193.4230  177.4140  139.8120 C   0  0  0  0  0  2  0  0  0  0  0  0
  192.7300  176.6120  138.7380 C   0  0  2  0  0  3  0  0  0  0  0  0
  188.0240  177.2530  142.8010 C   0  0  1  0  0  3  0  0  0  0  0  0
  187.7240  178.0150  145.2860 C   0  0  0  0  0  0  0  0  0  0  0  0
  183.9730  178.3750  145.5090 N   0  0  0  0  0  0  0  0  0  0  0  0
  182.8620  178.7790  144.6540 C   0  0  0  0  0  2  0  0  0  0  0  0
  188.8040  176.3810  140.4430 C   0  0  0  0  0  2  0  0  0  0  0  0
  185.1690  178.5560  144.9750 C   0  0  0  0  0  0  0  0  0  0  0  0
  190.9260  178.2450  145.5840 C   0  0  0  0  0  2  0  0  0  0  0  0
  181.3910  179.5560  141.7590 C   0  0  0  0  0  2  0  0  0  0  0  0
  183.6540  178.8400  140.8060 N   0  0  0  0  0  0  0  0  0  0  0  0
  181.6550  177.9490  139.7130 C   0  0  0  0  0  2  0  0  0  0  0  0
  183.1400  178.2750  139.7970 C   0  0  0  0  0  0  0  0  0  0  0  0
  180.8050  179.1500  140.3270 C   0  0  0  0  0  2  0  0  0  0  0  0
  182.7880  178.8010  141.9370 C   0  0  1  0  0  3  0  0  0  0  0  0
  184.0470  177.8500  138.8630 O   0  0  0  0  0  0  0  0  0  0  0  0
  185.0760  178.6320  138.3550 C   0  0  0  0  0  2  0  0  0  0  0  0
  185.7910  177.6680  137.4450 C   0  0  0  0  0  2  0  0  0  0  0  0
  184.9320  176.5690  136.8990 C   0  0  1  0  0  3  0  0  0  0  0  0
  184.5450  176.9640  135.6110 O   0  0  0  0  0  1  0  0  0  0  0  0
  182.3510  172.4900  136.9170 O   0  0  0  0  0  0  0  0  0  0  0  0
  186.7430  174.9560  137.3580 O   0  0  0  0  0  0  0  0  0  0  0  0
  185.6450  171.9870  135.7300 N   0  0  0  0  0  0  0  0  0  0  0  0
  187.1120  171.8270  135.5230 C   0  0  0  0  0  0  0  0  0  0  0  0
  184.9080  172.5710  136.9170 C   0  0  1  0  0  3  0  0  0  0  0  0
  184.7000  174.0550  136.8070 N   0  0  0  0  0  0  0  0  0  0  0  0
  182.8890  169.5450  136.1320 O   0  0  0  0  0  1  0  0  0  0  0  0
  185.5510  175.1580  136.9490 C   0  0  0  0  0  0  0  0  0  0  0  0
  183.3610  174.4130  137.3560 C   0  0  0  0  0  2  0  0  0  0  0  0
  182.4250  173.7580  136.6420 O   0  0  0  0  0  0  0  0  0  0  0  0
  183.5530  171.8030  136.7260 C   0  0  2  0  0  3  0  0  0  0  0  0
  183.4270  170.7650  135.5740 C   0  0  1  0  0  3  0  0  0  0  0  0
  187.9490  172.3140  136.2750 O   0  0  0  0  0  0  0  0  0  0  0  0
  187.5370  171.0400  134.3460 C   0  0  0  0  0  1  0  0  0  0  0  0
  184.9890  170.6550  135.4950 C   0  0  0  0  0  2  0  0  0  0  0  0
  195.2320  176.9220  135.1110 C   0  0  0  0  0  1  0  0  0  0  0  0
  194.2560  175.7840  134.9760 C   0  0  0  0  0  2  0  0  0  0  0  0
  1  2  1  1  0  0  0
  1  5  1  0  0  0  0
  1 15  1  0  0  0  0
  3  4  1  0  0  0  0
  4  6  1  0  0  0  0
  5  9  1  0  0  0  0
  6 19  2  0  0  0  0
  6 20  1  0  0  0  0
  7 13  1  0  0  0  0
  7 28  1  0  0  0  0
  9 26  1  0  0  0  0
 10 24  1  0  0  0  0
 12 25  1  0  0  0  0
 13 30  1  0  0  0  0
 14 10  1  0  0  0  0
 15 31  1  0  0  0  0
 16  2  1  0  0  0  0
 17 21  2  0  0  0  0
 17 14  1  0  0  0  0
 17  3  1  0  0  0  0
 18  8  1  0  0  0  0
 19 24  1  0  0  0  0
 20 29  1  0  0  0  0
 22 12  2  0  0  0  0
 23 16  1  0  0  0  0
 24 23  1  0  0  0  0
 25  5  1  0  0  0  0
 25  9  1  0  0  0  0
 26 11  1  0  0  0  0
 26 18  2  0  0  0  0
 28 27  1  0  0  0  0
 29 12  1  0  0  0  0
 30 11  1  0  0  0  0
 30 27  2  0  0  0  0
 31  8  1  0  0  0  0
 32 37  1  0  0  0  0
 33 37  1  0  0  0  0
 34 35  1  0  0  0  0
 34 36  1  0  0  0  0
 35 33  2  0  0  0  0
 36 32  1  0  0  0  0
 37  7  1  0  0  0  0
 38 35  1  0  0  0  0
 39 38  1  0  0  0  0
 40 39  1  0  0  0  0
 41 50  1  0  0  0  0
 41 40  1  0  0  0  0
 42 41  1  0  0  0  0
 45 47  1  0  0  0  0
 46 45  1  0  0  0  0
 46 55  2  0  0  0  0
 48 47  1  0  0  0  0
 48 50  1  0  0  0  0
 48 51  1  0  0  0  0
 50 44  2  0  0  0  0
 52 43  1  0  0  0  0
 52 51  1  0  0  0  0
 53 43  1  0  0  0  0
 53 47  1  0  0  0  0
 54 49  1  0  0  0  0
 54 53  1  0  0  0  0
 56 46  1  0  0  0  0
 57 54  1  0  0  0  0
 57 45  1  0  0  0  0
 59 58  1  0  0  0  0
 59 14  1  0  0  0  0
M  END
>  <MODEL>
6

>  <REMARK>
 VINA RESULT:      -7.2      3.422     11.131
  Name = 
  7 active torsions:
  status: ('A' for Active; 'I' for Inactive)
    1  A    between atoms: C_11  and  C_28
    2  A    between atoms: C_11  and  C_33
    3  A    between atoms: C_12  and  C_57
    4  A    between atoms: C_21  and  O_26
    5  A    between atoms: O_26  and  C_32
    6  A    between atoms: C_28  and  C_32
    7  A    between atoms: C_30  and  C_44
                            x       y       z     vdW  Elec       q    Type
                         _______ _______ _______ _____ _____    ______ ____

>  <TORSDO>
F 7

$$$$
=
 OpenBabel10232409523D

 59 66  0  0  1  0  0  0  0  0999 V2000
  188.5130  171.5760  135.6050 C   0  0  1  0  0  3  0  0  0  0  0  0
  189.9120  172.0880  135.9380 C   0  0  0  0  0  2  0  0  0  0  0  0
  193.5760  176.5560  136.2470 O   0  0  0  0  0  0  0  0  0  0  0  0
  192.3260  176.4170  135.5820 C   0  0  0  0  0  2  0  0  0  0  0  0
  187.3370  172.4440  135.2580 C   0  0  1  0  0  3  0  0  0  0  0  0
  191.5170  175.2650  136.0720 C   0  0  0  0  0  0  0  0  0  0  0  0
  183.1150  175.7670  138.1500 C   0  0  2  0  0  3  0  0  0  0  0  0
  185.8210  170.2250  134.3460 C   0  0  0  0  0  2  0  0  0  0  0  0
  186.3260  172.4380  136.4570 C   0  0  1  0  0  3  0  0  0  0  0  0
  194.5200  173.6820  136.4410 C   0  0  0  0  0  2  0  0  0  0  0  0
  183.7030  172.9580  135.8420 N   0  0  0  0  0  2  0  0  0  0  0  0
  188.0300  174.5280  136.5590 C   0  0  0  0  0  0  0  0  0  0  0  0
  184.2210  174.3340  138.0960 S   0  0  0  0  0  0  0  0  0  0  0  0
  195.4430  174.8170  135.8070 C   0  0  1  0  0  3  0  0  0  0  0  0
  188.2440  170.2770  135.4240 C   0  0  0  0  0  2  0  0  0  0  0  0
  191.3770  171.1990  135.1820 S   0  0  0  0  0  0  0  0  0  0  0  0
  194.7030  176.1340  135.4950 C   0  0  0  0  0  0  0  0  0  0  0  0
  184.7490  171.0010  135.0570 N   0  0  0  0  0  0  0  0  0  0  0  0
  192.0960  174.1760  136.5290 N   0  0  0  0  0  0  0  0  0  0  0  0
  190.2420  175.6110  136.5260 N   0  0  0  0  0  2  0  0  0  0  0  0
  194.8130  176.6070  134.3460 O   0  0  0  0  0  0  0  0  0  0  0  0
  187.5510  175.1990  137.5910 C   0  0  0  0  0  2  0  0  0  0  0  0
  192.8030  171.9660  136.0620 C   0  0  0  0  0  2  0  0  0  0  0  0
  193.1360  173.4210  135.8400 C   0  0  2  0  0  3  0  0  0  0  0  0
  186.8940  173.7400  135.8770 C   0  0  1  0  0  3  0  0  0  0  0  0
  184.8860  172.0670  135.7510 C   0  0  0  0  0  0  0  0  0  0  0  0
  181.9950  174.2970  136.7110 N   0  0  0  0  0  0  0  0  0  0  0  0
  181.7360  175.4290  137.5950 C   0  0  0  0  0  2  0  0  0  0  0  0
  189.1720  175.0520  135.7670 C   0  0  0  0  0  2  0  0  0  0  0  0
  183.1990  173.7670  136.8400 C   0  0  0  0  0  0  0  0  0  0  0  0
  186.9550  169.6470  135.2500 C   0  0  0  0  0  2  0  0  0  0  0  0
  182.7150  177.8580  139.7880 C   0  0  0  0  0  2  0  0  0  0  0  0
  184.9540  177.3830  138.6480 N   0  0  0  0  0  0  0  0  0  0  0  0
  184.2640  179.7240  138.8130 C   0  0  0  0  0  2  0  0  0  0  0  0
  185.2730  178.6070  138.5880 C   0  0  0  0  0  0  0  0  0  0  0  0
  183.2870  179.3340  140.0110 C   0  0  0  0  0  2  0  0  0  0  0  0
  183.5420  177.1970  138.5920 C   0  0  1  0  0  3  0  0  0  0  0  0
  186.5530  178.8370  138.1580 O   0  0  0  0  0  0  0  0  0  0  0  0
  187.6320  178.0040  138.4210 C   0  0  0  0  0  2  0  0  0  0  0  0
  188.0100  178.4020  139.8230 C   0  0  0  0  0  2  0  0  0  0  0  0
  188.5720  177.2920  140.6590 C   0  0  1  0  0  3  0  0  0  0  0  0
  189.4040  176.5390  139.8190 O   0  0  0  0  0  1  0  0  0  0  0  0
  186.2420  177.9370  144.8360 O   0  0  0  0  0  0  0  0  0  0  0  0
  190.3940  178.3100  141.9760 O   0  0  0  0  0  0  0  0  0  0  0  0
  189.6850  177.2820  145.3100 N   0  0  0  0  0  0  0  0  0  0  0  0
  191.1730  177.2860  145.3880 C   0  0  0  0  0  0  0  0  0  0  0  0
  188.7670  178.2120  144.5450 C   0  0  1  0  0  3  0  0  0  0  0  0
  188.4940  177.7460  143.1420 N   0  0  0  0  0  0  0  0  0  0  0  0
  187.0400  177.9060  147.8260 O   0  0  0  0  0  1  0  0  0  0  0  0
  189.2560  177.7310  141.9680 C   0  0  0  0  0  0  0  0  0  0  0  0
  187.0770  178.0410  142.7860 C   0  0  0  0  0  2  0  0  0  0  0  0
  186.2790  177.3920  143.6570 O   0  0  0  0  0  0  0  0  0  0  0  0
  187.4940  178.0450  145.4460 C   0  0  2  0  0  3  0  0  0  0  0  0
  187.5770  177.1520  146.7170 C   0  0  1  0  0  3  0  0  0  0  0  0
  191.8760  177.9990  144.6810 O   0  0  0  0  0  0  0  0  0  0  0  0
  191.7910  176.3740  146.3740 C   0  0  0  0  0  1  0  0  0  0  0  0
  189.1400  177.2800  146.7110 C   0  0  0  0  0  2  0  0  0  0  0  0
  197.1940  174.3720  137.4080 C   0  0  0  0  0  1  0  0  0  0  0  0
  196.9080  175.1090  136.1270 C   0  0  0  0  0  2  0  0  0  0  0  0
  1 15  1  6  0  0  0
  1  2  1  0  0  0  0
  4  6  1  0  0  0  0
  4  3  1  0  0  0  0
  5  1  1  0  0  0  0
  5 25  1  0  0  0  0
  5  9  1  0  0  0  0
  6 20  1  0  0  0  0
  6 19  2  0  0  0  0
  7 37  1  0  0  0  0
  8 18  1  0  0  0  0
  8 31  1  0  0  0  0
 11 30  1  0  0  0  0
 12 22  2  0  0  0  0
 13  7  1  0  0  0  0
 14 59  1  0  0  0  0
 14 10  1  0  0  0  0
 16  2  1  0  0  0  0
 16 23  1  0  0  0  0
 17 14  1  0  0  0  0
 17  3  1  0  0  0  0
 18 26  2  0  0  0  0
 21 17  2  0  0  0  0
 24 23  1  0  0  0  0
 24 10  1  0  0  0  0
 24 19  1  0  0  0  0
 25  9  1  0  0  0  0
 25 12  1  0  0  0  0
 26 11  1  0  0  0  0
 26  9  1  0  0  0  0
 27 30  2  0  0  0  0
 27 28  1  0  0  0  0
 28  7  1  0  0  0  0
 29 20  1  0  0  0  0
 29 12  1  0  0  0  0
 30 13  1  0  0  0  0
 31 15  1  0  0  0  0
 32 36  1  0  0  0  0
 34 36  1  0  0  0  0
 35 33  2  0  0  0  0
 35 34  1  0  0  0  0
 37 33  1  0  0  0  0
 37 32  1  0  0  0  0
 38 39  1  0  0  0  0
 38 35  1  0  0  0  0
 39 40  1  0  0  0  0
 40 41  1  0  0  0  0
 41 50  1  0  0  0  0
 42 41  1  0  0  0  0
 43 53  1  0  0  0  0
 45 46  1  0  0  0  0
 45 57  1  0  0  0  0
 46 56  1  0  0  0  0
 47 45  1  0  0  0  0
 47 53  1  0  0  0  0
 48 47  1  0  0  0  0
 50 44  2  0  0  0  0
 50 48  1  0  0  0  0
 51 48  1  0  0  0  0
 51 52  1  0  0  0  0
 52 43  1  0  0  0  0
 53 54  1  0  0  0  0
 54 49  1  0  0  0  0
 55 46  2  0  0  0  0
 57 54  1  0  0  0  0
 59 58  1  0  0  0  0
M  END
>  <MODEL>
7

>  <REMARK>
 VINA RESULT:      -6.9      2.053      7.849
  Name = 
  7 active torsions:
  status: ('A' for Active; 'I' for Inactive)
    1  A    between atoms: C_11  and  C_28
    2  A    between atoms: C_11  and  C_33
    3  A    between atoms: C_12  and  C_57
    4  A    between atoms: C_21  and  O_26
    5  A    between atoms: O_26  and  C_32
    6  A    between atoms: C_28  and  C_32
    7  A    between atoms: C_30  and  C_44
                            x       y       z     vdW  Elec       q    Type
                         _______ _______ _______ _____ _____    ______ ____

>  <TORSDO>
F 7

$$$$
=
 OpenBabel10232409523D

 59 66  0  0  1  0  0  0  0  0999 V2000
  190.8870  177.4750  142.4920 C   0  0  1  0  0  3  0  0  0  0  0  0
  191.5370  177.4520  141.1120 C   0  0  0  0  0  2  0  0  0  0  0  0
  191.2610  175.8250  135.5660 O   0  0  0  0  0  0  0  0  0  0  0  0
  190.5220  175.3960  136.7040 C   0  0  0  0  0  2  0  0  0  0  0  0
  189.4960  176.9990  142.7990 C   0  0  1  0  0  3  0  0  0  0  0  0
  190.6130  176.3320  137.8600 C   0  0  0  0  0  0  0  0  0  0  0  0
  183.7770  179.0930  142.4200 C   0  0  2  0  0  3  0  0  0  0  0  0
  189.9650  177.0610  145.5960 C   0  0  0  0  0  2  0  0  0  0  0  0
  188.5820  178.2410  143.0860 C   0  0  1  0  0  3  0  0  0  0  0  0
  193.8230  176.8530  136.8170 C   0  0  0  0  0  2  0  0  0  0  0  0
  186.3880  177.7990  144.6720 N   0  0  0  0  0  2  0  0  0  0  0  0
  188.4510  177.4410  140.5110 C   0  0  0  0  0  0  0  0  0  0  0  0
  185.5460  179.3900  142.6720 S   0  0  0  0  0  0  0  0  0  0  0  0
  193.8480  175.7740  135.6440 C   0  0  1  0  0  3  0  0  0  0  0  0
  191.5690  177.7690  143.6070 C   0  0  0  0  0  2  0  0  0  0  0  0
  193.3130  176.8690  140.9840 S   0  0  0  0  0  0  0  0  0  0  0  0
  192.4780  175.1300  135.3470 C   0  0  0  0  0  0  0  0  0  0  0  0
  188.5600  177.5930  145.5540 N   0  0  0  0  0  0  0  0  0  0  0  0
  191.6930  177.0540  138.0630 N   0  0  0  0  0  0  0  0  0  0  0  0
  189.3780  176.7910  138.3240 N   0  0  0  0  0  2  0  0  0  0  0  0
  192.4110  173.8840  135.3250 O   0  0  0  0  0  0  0  0  0  0  0  0
  187.5100  178.2400  140.0430 C   0  0  0  0  0  2  0  0  0  0  0  0
  193.7380  177.2700  139.2370 C   0  0  0  0  0  2  0  0  0  0  0  0
  193.0570  176.5390  138.1060 C   0  0  2  0  0  3  0  0  0  0  0  0
  188.2270  177.1980  142.0180 C   0  0  1  0  0  3  0  0  0  0  0  0
  187.8620  177.8720  144.5190 C   0  0  0  0  0  0  0  0  0  0  0  0
  184.1210  178.3670  144.6200 N   0  0  0  0  0  0  0  0  0  0  0  0
  183.0580  178.8480  143.7430 C   0  0  0  0  0  2  0  0  0  0  0  0
  189.0630  176.3920  139.6560 C   0  0  0  0  0  2  0  0  0  0  0  0
  185.3410  178.5230  144.1380 C   0  0  0  0  0  0  0  0  0  0  0  0
  191.0560  177.9660  144.9430 C   0  0  0  0  0  2  0  0  0  0  0  0
  183.9080  179.5380  139.7750 C   0  0  0  0  0  2  0  0  0  0  0  0
  182.4170  177.7410  140.8180 N   0  0  0  0  0  0  0  0  0  0  0  0
  181.4970  178.9890  138.9260 C   0  0  0  0  0  2  0  0  0  0  0  0
  181.5420  177.8260  139.9070 C   0  0  0  0  0  0  0  0  0  0  0  0
  182.9780  179.3780  138.4830 C   0  0  0  0  0  2  0  0  0  0  0  0
  183.0890  178.9800  141.0280 C   0  0  1  0  0  3  0  0  0  0  0  0
  180.5600  176.8740  139.9770 O   0  0  0  0  0  0  0  0  0  0  0  0
  180.7810  175.5080  139.8680 C   0  0  0  0  0  2  0  0  0  0  0  0
  181.7800  175.4330  138.7440 C   0  0  0  0  0  2  0  0  0  0  0  0
  181.4720  174.4040  137.7000 C   0  0  1  0  0  3  0  0  0  0  0  0
  180.4830  174.9550  136.8720 O   0  0  0  0  0  1  0  0  0  0  0  0
  184.6120  177.1890  135.3170 O   0  0  0  0  0  0  0  0  0  0  0  0
  182.7600  172.6470  136.5400 O   0  0  0  0  0  0  0  0  0  0  0  0
  186.0090  174.0680  136.2220 N   0  0  0  0  0  0  0  0  0  0  0  0
  186.4040  172.6410  136.3910 C   0  0  0  0  0  0  0  0  0  0  0  0
  184.8060  174.6460  135.5060 C   0  0  1  0  0  3  0  0  0  0  0  0
  183.6020  174.7820  136.3950 N   0  0  0  0  0  0  0  0  0  0  0  0
  187.5540  176.8980  134.4000 O   0  0  0  0  0  1  0  0  0  0  0  0
  182.6900  173.8620  136.9250 C   0  0  0  0  0  0  0  0  0  0  0  0
  182.8700  176.0360  136.0550 C   0  0  0  0  0  2  0  0  0  0  0  0
  183.7070  177.0750  136.2420 O   0  0  0  0  0  0  0  0  0  0  0  0
  185.4130  176.0540  135.1710 C   0  0  2  0  0  3  0  0  0  0  0  0
  186.8880  176.3550  135.5620 C   0  0  1  0  0  3  0  0  0  0  0  0
  185.6770  171.7060  136.0750 O   0  0  0  0  0  0  0  0  0  0  0  0
  187.7380  172.3840  136.9720 C   0  0  0  0  0  1  0  0  0  0  0  0
  187.1820  174.8170  135.6560 C   0  0  0  0  0  2  0  0  0  0  0  0
  195.5050  177.0690  134.4590 C   0  0  0  0  0  1  0  0  0  0  0  0
  194.6940  175.8040  134.3720 C   0  0  0  0  0  2  0  0  0  0  0  0
  1  2  1  1  0  0  0
  1  5  1  0  0  0  0
  1 15  1  0  0  0  0
  3  4  1  0  0  0  0
  4  6  1  0  0  0  0
  5  9  1  0  0  0  0
  6 19  2  0  0  0  0
  6 20  1  0  0  0  0
  7 13  1  0  0  0  0
  7 28  1  0  0  0  0
  9 26  1  0  0  0  0
 10 24  1  0  0  0  0
 12 25  1  0  0  0  0
 13 30  1  0  0  0  0
 14 10  1  0  0  0  0
 15 31  1  0  0  0  0
 16  2  1  0  0  0  0
 17  3  1  0  0  0  0
 17 14  1  0  0  0  0
 18  8  1  0  0  0  0
 19 24  1  0  0  0  0
 20 29  1  0  0  0  0
 21 17  2  0  0  0  0
 22 12  2  0  0  0  0
 23 16  1  0  0  0  0
 24 23  1  0  0  0  0
 25  5  1  0  0  0  0
 25  9  1  0  0  0  0
 26 11  1  0  0  0  0
 26 18  2  0  0  0  0
 28 27  1  0  0  0  0
 29 12  1  0  0  0  0
 30 27  2  0  0  0  0
 30 11  1  0  0  0  0
 31  8  1  0  0  0  0
 32 37  1  0  0  0  0
 33 37  1  0  0  0  0
 34 35  1  0  0  0  0
 35 38  1  0  0  0  0
 35 33  2  0  0  0  0
 36 34  1  0  0  0  0
 36 32  1  0  0  0  0
 37  7  1  0  0  0  0
 39 38  1  0  0  0  0
 40 39  1  0  0  0  0
 41 40  1  0  0  0  0
 42 41  1  0  0  0  0
 43 52  1  0  0  0  0
 44 50  2  0  0  0  0
 45 46  1  0  0  0  0
 46 56  1  0  0  0  0
 47 45  1  0  0  0  0
 47 48  1  0  0  0  0
 48 50  1  0  0  0  0
 49 54  1  0  0  0  0
 50 41  1  0  0  0  0
 51 52  1  0  0  0  0
 51 48  1  0  0  0  0
 53 43  1  0  0  0  0
 53 47  1  0  0  0  0
 53 54  1  0  0  0  0
 54 57  1  0  0  0  0
 55 46  2  0  0  0  0
 57 45  1  0  0  0  0
 59 58  1  0  0  0  0
 59 14  1  0  0  0  0
M  END
>  <MODEL>
8

>  <REMARK>
 VINA RESULT:      -6.8      3.693     10.923
  Name = 
  7 active torsions:
  status: ('A' for Active; 'I' for Inactive)
    1  A    between atoms: C_11  and  C_28
    2  A    between atoms: C_11  and  C_33
    3  A    between atoms: C_12  and  C_57
    4  A    between atoms: C_21  and  O_26
    5  A    between atoms: O_26  and  C_32
    6  A    between atoms: C_28  and  C_32
    7  A    between atoms: C_30  and  C_44
                            x       y       z     vdW  Elec       q    Type
                         _______ _______ _______ _____ _____    ______ ____

>  <TORSDO>
F 7

$$$$
=
 OpenBabel10232409523D

 59 66  0  0  1  0  0  0  0  0999 V2000
  190.9260  177.6090  142.4580 C   0  0  1  0  0  3  0  0  0  0  0  0
  191.5290  177.5060  141.0600 C   0  0  0  0  0  2  0  0  0  0  0  0
  191.1280  175.4500  135.6660 O   0  0  0  0  0  0  0  0  0  0  0  0
  190.4480  175.0820  136.8590 C   0  0  0  0  0  2  0  0  0  0  0  0
  189.5660  177.1060  142.8510 C   0  0  1  0  0  3  0  0  0  0  0  0
  190.5400  176.1070  137.9370 C   0  0  0  0  0  0  0  0  0  0  0  0
  183.7570  178.9470  142.5300 C   0  0  2  0  0  3  0  0  0  0  0  0
  190.1280  177.4000  145.6160 C   0  0  0  0  0  2  0  0  0  0  0  0
  188.6130  178.3310  143.0780 C   0  0  1  0  0  3  0  0  0  0  0  0
  193.6880  176.6680  136.7400 C   0  0  0  0  0  2  0  0  0  0  0  0
  186.4950  177.9280  144.7740 N   0  0  0  0  0  2  0  0  0  0  0  0
  188.4270  177.3320  140.5770 C   0  0  0  0  0  0  0  0  0  0  0  0
  185.5200  179.3290  142.6920 S   0  0  0  0  0  0  0  0  0  0  0  0
  193.7170  175.5040  135.6500 C   0  0  1  0  0  3  0  0  0  0  0  0
  191.6330  178.0140  143.5210 C   0  0  0  0  0  2  0  0  0  0  0  0
  193.3210  176.9830  140.9100 S   0  0  0  0  0  0  0  0  0  0  0  0
  192.3650  174.7870  135.4540 C   0  0  0  0  0  0  0  0  0  0  0  0
  188.7020  177.8730  145.5870 N   0  0  0  0  0  0  0  0  0  0  0  0
  191.5960  176.8820  138.0460 N   0  0  0  0  0  0  0  0  0  0  0  0
  189.3040  176.5520  138.4120 N   0  0  0  0  0  2  0  0  0  0  0  0
  192.3480  173.5420  135.5280 O   0  0  0  0  0  0  0  0  0  0  0  0
  187.4380  178.0560  140.0860 C   0  0  0  0  0  2  0  0  0  0  0  0
  193.6690  177.2650  139.1230 C   0  0  0  0  0  2  0  0  0  0  0  0
  192.9810  176.4240  138.0760 C   0  0  2  0  0  3  0  0  0  0  0  0
  188.2650  177.1970  142.1050 C   0  0  1  0  0  3  0  0  0  0  0  0
  187.9580  178.0460  144.5610 C   0  0  0  0  0  0  0  0  0  0  0  0
  184.2060  178.4040  144.7640 N   0  0  0  0  0  0  0  0  0  0  0  0
  183.0950  178.7760  143.8930 C   0  0  0  0  0  2  0  0  0  0  0  0
  189.0510  176.2450  139.7810 C   0  0  0  0  0  2  0  0  0  0  0  0
  185.4020  178.5690  144.2260 C   0  0  0  0  0  0  0  0  0  0  0  0
  191.1580  178.2930  144.8570 C   0  0  0  0  0  2  0  0  0  0  0  0
  181.5040  179.1740  141.0870 C   0  0  0  0  0  2  0  0  0  0  0  0
  183.8270  178.9890  140.0330 N   0  0  0  0  0  0  0  0  0  0  0  0
  182.0030  177.7950  138.9230 C   0  0  0  0  0  2  0  0  0  0  0  0
  183.3960  178.4030  138.9960 C   0  0  0  0  0  0  0  0  0  0  0  0
  180.9560  178.7580  139.6430 C   0  0  0  0  0  2  0  0  0  0  0  0
  183.0270  178.7010  141.1770 C   0  0  1  0  0  3  0  0  0  0  0  0
  184.3340  178.2310  138.0140 O   0  0  0  0  0  0  0  0  0  0  0  0
  185.0460  177.0580  137.8040 C   0  0  0  0  0  2  0  0  0  0  0  0
  185.9290  177.4230  136.6400 C   0  0  0  0  0  2  0  0  0  0  0  0
  185.2820  177.2850  135.2960 C   0  0  1  0  0  3  0  0  0  0  0  0
  186.2430  177.6600  134.3470 O   0  0  0  0  0  1  0  0  0  0  0  0
  187.7900  173.2610  134.3960 O   0  0  0  0  0  0  0  0  0  0  0  0
  183.4270  175.8040  134.6210 O   0  0  0  0  0  0  0  0  0  0  0  0
  184.5400  172.5710  135.6100 N   0  0  0  0  0  0  0  0  0  0  0  0
  183.0810  172.3870  135.8470 C   0  0  0  0  0  0  0  0  0  0  0  0
  185.2380  173.3620  134.5240 C   0  0  1  0  0  3  0  0  0  0  0  0
  185.4750  174.7970  134.9020 N   0  0  0  0  0  0  0  0  0  0  0  0
  187.2360  170.2250  134.6340 O   0  0  0  0  0  1  0  0  0  0  0  0
  184.6380  175.9150  135.0080 C   0  0  0  0  0  0  0  0  0  0  0  0
  186.7960  175.2410  134.3730 C   0  0  0  0  0  2  0  0  0  0  0  0
  187.7500  174.4540  134.9090 O   0  0  0  0  0  0  0  0  0  0  0  0
  186.5860  172.5600  134.5070 C   0  0  2  0  0  3  0  0  0  0  0  0
  186.7420  171.3220  135.4360 C   0  0  1  0  0  3  0  0  0  0  0  0
  182.2220  173.0150  135.2380 O   0  0  0  0  0  0  0  0  0  0  0  0
  182.6920  171.3960  136.8720 C   0  0  0  0  0  1  0  0  0  0  0  0
  185.1830  171.2130  135.5600 C   0  0  0  0  0  2  0  0  0  0  0  0
  195.9550  175.6440  134.7570 C   0  0  0  0  0  1  0  0  0  0  0  0
  194.5160  175.4690  134.3490 C   0  0  0  0  0  2  0  0  0  0  0  0
  1  2  1  1  0  0  0
  1  5  1  0  0  0  0
  1 15  1  0  0  0  0
  3  4  1  0  0  0  0
  4  6  1  0  0  0  0
  5  9  1  0  0  0  0
  6 19  2  0  0  0  0
  6 20  1  0  0  0  0
  7 13  1  0  0  0  0
  7 28  1  0  0  0  0
  9 26  1  0  0  0  0
 10 24  1  0  0  0  0
 12 25  1  0  0  0  0
 13 30  1  0  0  0  0
 14 10  1  0  0  0  0
 15 31  1  0  0  0  0
 16  2  1  0  0  0  0
 17 21  2  0  0  0  0
 17 14  1  0  0  0  0
 17  3  1  0  0  0  0
 18  8  1  0  0  0  0
 19 24  1  0  0  0  0
 20 29  1  0  0  0  0
 22 12  2  0  0  0  0
 23 16  1  0  0  0  0
 24 23  1  0  0  0  0
 25  5  1  0  0  0  0
 25  9  1  0  0  0  0
 26 11  1  0  0  0  0
 26 18  2  0  0  0  0
 28 27  1  0  0  0  0
 29 12  1  0  0  0  0
 30 27  2  0  0  0  0
 30 11  1  0  0  0  0
 31  8  1  0  0  0  0
 32 37  1  0  0  0  0
 33 37  1  0  0  0  0
 34 35  1  0  0  0  0
 34 36  1  0  0  0  0
 35 33  2  0  0  0  0
 36 32  1  0  0  0  0
 37  7  1  0  0  0  0
 38 35  1  0  0  0  0
 39 38  1  0  0  0  0
 40 39  1  0  0  0  0
 41 40  1  0  0  0  0
 42 41  1  0  0  0  0
 43 53  1  0  0  0  0
 43 52  1  0  0  0  0
 44 50  2  0  0  0  0
 45 46  1  0  0  0  0
 46 56  1  0  0  0  0
 47 48  1  0  0  0  0
 47 45  1  0  0  0  0
 48 50  1  0  0  0  0
 49 54  1  0  0  0  0
 50 41  1  0  0  0  0
 51 48  1  0  0  0  0
 51 52  1  0  0  0  0
 53 47  1  0  0  0  0
 53 54  1  0  0  0  0
 54 57  1  0  0  0  0
 55 46  2  0  0  0  0
 57 45  1  0  0  0  0
 59 58  1  0  0  0  0
 59 14  1  0  0  0  0
M  END
>  <MODEL>
9

>  <REMARK>
 VINA RESULT:      -6.5      3.534     10.954
  Name = 
  7 active torsions:
  status: ('A' for Active; 'I' for Inactive)
    1  A    between atoms: C_11  and  C_28
    2  A    between atoms: C_11  and  C_33
    3  A    between atoms: C_12  and  C_57
    4  A    between atoms: C_21  and  O_26
    5  A    between atoms: O_26  and  C_32
    6  A    between atoms: C_28  and  C_32
    7  A    between atoms: C_30  and  C_44
                            x       y       z     vdW  Elec       q    Type
                         _______ _______ _______ _____ _____    ______ ____

>  <TORSDO>
F 7

$$$$
