=
 OpenBabel10232408193D

 32 36  0  0  1  0  0  0  0  0999 V2000
  185.7130  178.5410  141.1130 N   0  0  0  0  0  0  0  0  0  0  0  0
  180.3160  177.4890  140.8150 N   0  0  0  0  0  1  0  0  0  0  0  0
  188.1920  178.7390  138.2880 C   0  0  0  0  0  0  0  0  0  0  0  0
  184.4360  178.4130  140.8740 C   0  0  0  0  0  0  0  0  0  0  0  0
  188.3310  177.4040  142.2540 C   0  0  2  0  0  3  0  0  0  0  0  0
  181.7040  177.8110  140.7980 C   0  0  0  0  0  0  0  0  0  0  0  0
  189.7370  177.2620  142.4020 O   0  0  0  0  0  0  0  0  0  0  0  0
  188.1240  178.2570  141.0260 C   0  0  2  0  0  3  0  0  0  0  0  0
  189.3530  178.4850  139.0290 O   0  0  0  0  0  0  0  0  0  0  0  0
  183.5560  178.7860  141.9140 C   0  0  0  0  0  0  0  0  0  0  0  0
  186.8730  178.4160  138.9090 C   0  0  0  0  0  0  0  0  0  0  0  0
  188.2760  179.2100  137.1230 O   0  0  0  0  0  0  0  0  0  0  0  0
  190.3150  177.6320  141.1620 C   0  0  0  0  0  2  0  0  0  0  0  0
  183.8770  177.8340  139.6970 C   0  0  0  0  0  0  0  0  0  0  0  0
  186.8260  178.1770  140.3360 N   0  0  0  0  0  0  0  0  0  0  0  0
  182.5080  177.4660  139.7060 C   0  0  0  0  0  0  0  0  0  0  0  0
  189.1880  177.6780  140.1800 C   0  0  1  0  0  3  0  0  0  0  0  0
  182.2390  178.4760  141.8470 N   0  0  0  0  0  0  0  0  0  0  0  0
  181.8750  176.7510  138.5430 C   0  0  0  0  0  1  0  0  0  0  0  0
  184.5090  177.7390  138.5170 C   0  0  0  0  0  3  0  0  0  0  0  0
  185.8470  178.1600  138.1160 C   0  0  0  0  0  3  0  0  0  0  0  0
  187.7310  178.0620  143.4990 C   0  0  2  0  0  3  0  0  0  0  0  0
  188.3340  177.6170  144.8440 C   0  0  1  0  0  3  0  0  0  0  0  0
  187.0490  177.0000  144.3360 C   0  0  0  0  0  2  0  0  0  0  0  0
  190.5550  176.8130  145.3500 N   0  0  0  0  0  0  0  0  0  0  0  0
  189.4310  176.6100  144.7410 C   0  0  0  0  0  3  0  0  0  0  0  0
  192.0010  175.4180  144.1460 O   0  0  0  0  0  0  0  0  0  0  0  0
  191.6450  175.8950  145.2600 C   0  0  0  0  0  0  0  0  0  0  0  0
  192.3600  175.4820  146.4990 C   0  0  0  0  0  2  0  0  0  0  0  0
  191.8200  176.2590  147.6880 C   0  0  0  0  0  1  0  0  0  0  0  0
  184.4290  180.0530  144.0700 C   0  0  0  0  0  3  0  0  0  0  0  0
  184.0300  179.4780  143.0890 C   0  0  0  0  0  0  0  0  0  0  0  0
  3 11  1  0  0  0  0
  3  9  1  0  0  0  0
  4  1  2  0  0  0  0
  4 10  1  0  0  0  0
  5  7  1  1  0  0  0
  5 22  1  0  0  0  0
  6  2  1  0  0  0  0
  6 18  1  0  0  0  0
  8 15  1  6  0  0  0
  8  5  1  0  0  0  0
  9 17  1  0  0  0  0
 10 32  1  0  0  0  0
 11 15  1  0  0  0  0
 12  3  2  0  0  0  0
 13  7  1  0  0  0  0
 14 16  1  0  0  0  0
 14  4  1  0  0  0  0
 15  1  1  0  0  0  0
 16  6  2  0  0  0  0
 17  8  1  0  0  0  0
 17 13  1  1  0  0  0
 18 10  2  0  0  0  0
 19 16  1  0  0  0  0
 20 14  2  0  0  0  0
 21 20  1  0  0  0  0
 21 11  2  0  0  0  0
 22 24  1  1  0  0  0
 22 23  1  0  0  0  0
 23 26  1  6  0  0  0
 24 23  1  0  0  0  0
 26 25  2  0  0  0  0
 27 28  2  0  0  0  0
 28 25  1  0  0  0  0
 28 29  1  0  0  0  0
 29 30  1  0  0  0  0
 32 31  3  0  0  0  0
M  END
>  <MODEL>
1

>  <REMARK>
 VINA RESULT:      -7.6      0.000      0.000
  Name = 
  5 active torsions:
  status: ('A' for Active; 'I' for Inactive)
    1  A    between atoms: C_4  and  C_6
    2  A    between atoms: C_9  and  C_30
    3  A    between atoms: C_10  and  C_26
    4  A    between atoms: N_11  and  C_30
    5  A    between atoms: C_14  and  C_29
                            x       y       z     vdW  Elec       q    Type
                         _______ _______ _______ _____ _____    ______ ____

>  <TORSDO>
F 5

$$$$
=
 OpenBabel10232408193D

 32 36  0  0  1  0  0  0  0  0999 V2000
  185.4870  178.0070  138.5460 N   0  0  0  0  0  0  0  0  0  0  0  0
  181.5060  175.4020  135.7720 N   0  0  0  0  0  1  0  0  0  0  0  0
  189.2090  177.7180  138.0710 C   0  0  0  0  0  0  0  0  0  0  0  0
  184.6600  177.4230  137.7200 C   0  0  0  0  0  0  0  0  0  0  0  0
  186.6830  178.2700  141.3650 C   0  0  2  0  0  3  0  0  0  0  0  0
  182.5930  176.0760  136.3990 C   0  0  0  0  0  0  0  0  0  0  0  0
  187.6520  178.6200  142.3440 O   0  0  0  0  0  0  0  0  0  0  0  0
  187.3650  178.4300  140.0270 C   0  0  2  0  0  3  0  0  0  0  0  0
  189.6020  178.1490  139.3450 O   0  0  0  0  0  0  0  0  0  0  0  0
  183.3390  177.9230  137.6880 C   0  0  0  0  0  0  0  0  0  0  0  0
  187.7850  177.3150  137.8700 C   0  0  0  0  0  0  0  0  0  0  0  0
  190.0500  177.6600  137.1350 O   0  0  0  0  0  0  0  0  0  0  0  0
  188.9120  178.5880  141.6970 C   0  0  0  0  0  2  0  0  0  0  0  0
  184.9610  176.2700  136.9390 C   0  0  0  0  0  0  0  0  0  0  0  0
  186.8160  177.6930  138.8770 N   0  0  0  0  0  0  0  0  0  0  0  0
  183.8910  175.5570  136.3400 C   0  0  0  0  0  0  0  0  0  0  0  0
  188.6890  177.8880  140.3950 C   0  0  1  0  0  3  0  0  0  0  0  0
  182.3610  177.2450  137.0420 N   0  0  0  0  0  0  0  0  0  0  0  0
  184.1200  174.2720  135.5930 C   0  0  0  0  0  1  0  0  0  0  0  0
  186.1990  175.8790  136.5970 C   0  0  0  0  0  3  0  0  0  0  0  0
  187.5000  176.4640  136.9000 C   0  0  0  0  0  3  0  0  0  0  0  0
  185.4600  179.1820  141.4810 C   0  0  2  0  0  3  0  0  0  0  0  0
  184.8110  179.2530  142.8750 C   0  0  1  0  0  3  0  0  0  0  0  0
  184.2470  178.3370  141.8100 C   0  0  0  0  0  2  0  0  0  0  0  0
  185.6520  178.9070  145.1120 N   0  0  0  0  0  0  0  0  0  0  0  0
  185.4780  178.4260  143.9250 C   0  0  0  0  0  3  0  0  0  0  0  0
  186.0420  178.3710  147.3600 O   0  0  0  0  0  0  0  0  0  0  0  0
  186.3110  178.1680  146.1430 C   0  0  0  0  0  0  0  0  0  0  0  0
  187.3410  177.1570  145.7760 C   0  0  0  0  0  2  0  0  0  0  0  0
  188.7190  177.7980  145.7940 C   0  0  0  0  0  1  0  0  0  0  0  0
  182.6780  180.1710  138.9210 C   0  0  0  0  0  3  0  0  0  0  0  0
  182.9810  179.1480  138.3620 C   0  0  0  0  0  0  0  0  0  0  0  0
  1 15  1  0  0  0  0
  2  6  1  0  0  0  0
  3  9  1  0  0  0  0
  4  1  2  0  0  0  0
  5 22  1  0  0  0  0
  5  7  1  1  0  0  0
  6 18  1  0  0  0  0
  8 15  1  6  0  0  0
  8 17  1  0  0  0  0
  8  5  1  0  0  0  0
  9 17  1  0  0  0  0
 10  4  1  0  0  0  0
 10 32  1  0  0  0  0
 11  3  1  0  0  0  0
 11 15  1  0  0  0  0
 12  3  2  0  0  0  0
 13  7  1  0  0  0  0
 14  4  1  0  0  0  0
 16  6  2  0  0  0  0
 16 14  1  0  0  0  0
 17 13  1  1  0  0  0
 18 10  2  0  0  0  0
 19 16  1  0  0  0  0
 20 21  1  0  0  0  0
 20 14  2  0  0  0  0
 21 11  2  0  0  0  0
 22 24  1  6  0  0  0
 22 23  1  0  0  0  0
 23 26  1  1  0  0  0
 24 23  1  0  0  0  0
 25 28  1  0  0  0  0
 26 25  2  0  0  0  0
 28 27  2  0  0  0  0
 29 30  1  0  0  0  0
 29 28  1  0  0  0  0
 32 31  3  0  0  0  0
M  END
>  <MODEL>
2

>  <REMARK>
 VINA RESULT:      -7.4      2.618      3.911
  Name = 
  5 active torsions:
  status: ('A' for Active; 'I' for Inactive)
    1  A    between atoms: C_4  and  C_6
    2  A    between atoms: C_9  and  C_30
    3  A    between atoms: C_10  and  C_26
    4  A    between atoms: N_11  and  C_30
    5  A    between atoms: C_14  and  C_29
                            x       y       z     vdW  Elec       q    Type
                         _______ _______ _______ _____ _____    ______ ____

>  <TORSDO>
F 5

$$$$
=
 OpenBabel10232408193D

 32 36  0  0  1  0  0  0  0  0999 V2000
  189.4080  175.9500  137.5800 N   0  0  0  0  0  0  0  0  0  0  0  0
  185.2360  172.5970  136.2870 N   0  0  0  0  0  1  0  0  0  0  0  0
  193.0490  175.5540  136.7150 C   0  0  0  0  0  0  0  0  0  0  0  0
  188.5110  175.1370  137.0880 C   0  0  0  0  0  0  0  0  0  0  0  0
  190.9390  177.0700  139.9980 C   0  0  2  0  0  3  0  0  0  0  0  0
  186.3600  173.4370  136.5280 C   0  0  0  0  0  0  0  0  0  0  0  0
  192.0060  177.7080  140.6860 O   0  0  0  0  0  0  0  0  0  0  0  0
  191.4370  176.8180  138.5960 C   0  0  2  0  0  3  0  0  0  0  0  0
  193.5800  176.3560  137.7340 O   0  0  0  0  0  0  0  0  0  0  0  0
  187.1750  175.5940  137.0860 C   0  0  0  0  0  0  0  0  0  0  0  0
  191.6320  175.1000  136.8400 C   0  0  0  0  0  0  0  0  0  0  0  0
  193.7670  175.2190  135.7350 O   0  0  0  0  0  0  0  0  0  0  0  0
  193.1740  177.4890  139.9140 C   0  0  0  0  0  2  0  0  0  0  0  0
  188.7660  173.8020  136.6580 C   0  0  0  0  0  0  0  0  0  0  0  0
  190.7820  175.7620  137.8070 N   0  0  0  0  0  0  0  0  0  0  0  0
  187.6630  172.9340  136.4530 C   0  0  0  0  0  0  0  0  0  0  0  0
  192.8210  176.4230  138.9270 C   0  0  1  0  0  3  0  0  0  0  0  0
  186.1560  174.7450  136.8130 N   0  0  0  0  0  0  0  0  0  0  0  0
  187.8560  171.4830  136.1050 C   0  0  0  0  0  1  0  0  0  0  0  0
  189.9670  173.3330  136.2870 C   0  0  0  0  0  3  0  0  0  0  0  0
  191.2670  173.9910  136.2190 C   0  0  0  0  0  3  0  0  0  0  0  0
  189.6980  177.9650  139.9980 C   0  0  2  0  0  3  0  0  0  0  0  0
  189.1010  178.2770  141.3830 C   0  0  1  0  0  3  0  0  0  0  0  0
  188.5200  177.1730  140.5260 C   0  0  0  0  0  2  0  0  0  0  0  0
  189.7030  178.1740  143.7190 N   0  0  0  0  0  0  0  0  0  0  0  0
  189.8280  177.6680  142.5360 C   0  0  0  0  0  3  0  0  0  0  0  0
  191.6580  177.5470  144.8470 O   0  0  0  0  0  0  0  0  0  0  0  0
  190.4000  177.6460  144.8490 C   0  0  0  0  0  0  0  0  0  0  0  0
  189.6280  177.1890  146.0390 C   0  0  0  0  0  2  0  0  0  0  0  0
  188.1680  177.5850  145.8880 C   0  0  0  0  0  1  0  0  0  0  0  0
  186.5780  178.1080  137.6660 C   0  0  0  0  0  3  0  0  0  0  0  0
  186.8470  176.9640  137.4000 C   0  0  0  0  0  0  0  0  0  0  0  0
  1 15  1  0  0  0  0
  2  6  1  0  0  0  0
  3 11  1  0  0  0  0
  3  9  1  0  0  0  0
  4  1  2  0  0  0  0
  5  7  1  1  0  0  0
  6 18  1  0  0  0  0
  8 15  1  1  0  0  0
  8 17  1  0  0  0  0
  8  5  1  0  0  0  0
  9 17  1  0  0  0  0
 10  4  1  0  0  0  0
 10 32  1  0  0  0  0
 11 15  1  0  0  0  0
 12  3  2  0  0  0  0
 13  7  1  0  0  0  0
 14  4  1  0  0  0  0
 16  6  2  0  0  0  0
 16 14  1  0  0  0  0
 17 13  1  1  0  0  0
 18 10  2  0  0  0  0
 19 16  1  0  0  0  0
 20 14  2  0  0  0  0
 21 20  1  0  0  0  0
 21 11  2  0  0  0  0
 22  5  1  0  0  0  0
 22 24  1  6  0  0  0
 22 23  1  0  0  0  0
 23 26  1  1  0  0  0
 24 23  1  0  0  0  0
 25 28  1  0  0  0  0
 26 25  2  0  0  0  0
 27 28  2  0  0  0  0
 28 29  1  0  0  0  0
 30 29  1  0  0  0  0
 32 31  3  0  0  0  0
M  END
>  <MODEL>
3

>  <REMARK>
 VINA RESULT:      -7.3      4.099      5.635
  Name = 
  5 active torsions:
  status: ('A' for Active; 'I' for Inactive)
    1  A    between atoms: C_4  and  C_6
    2  A    between atoms: C_9  and  C_30
    3  A    between atoms: C_10  and  C_26
    4  A    between atoms: N_11  and  C_30
    5  A    between atoms: C_14  and  C_29
                            x       y       z     vdW  Elec       q    Type
                         _______ _______ _______ _____ _____    ______ ____

>  <TORSDO>
F 5

$$$$
=
 OpenBabel10232408193D

 32 36  0  0  1  0  0  0  0  0999 V2000
  188.2690  178.3490  142.2820 N   0  0  0  0  0  0  0  0  0  0  0  0
  188.3760  177.0090  147.6220 N   0  0  0  0  0  1  0  0  0  0  0  0
  185.2770  179.2310  140.1760 C   0  0  0  0  0  0  0  0  0  0  0  0
  188.1530  178.1810  143.5720 C   0  0  0  0  0  0  0  0  0  0  0  0
  188.8740  177.1980  139.4960 C   0  0  2  0  0  3  0  0  0  0  0  0
  188.2660  177.4210  146.2630 C   0  0  0  0  0  0  0  0  0  0  0  0
  188.8350  177.1250  138.0780 O   0  0  0  0  0  0  0  0  0  0  0  0
  187.8620  178.2480  139.8890 C   0  0  2  0  0  3  0  0  0  0  0  0
  185.8220  178.9230  138.9230 O   0  0  0  0  0  0  0  0  0  0  0  0
  189.3360  178.2950  144.3340 C   0  0  0  0  0  0  0  0  0  0  0  0
  185.9670  178.7110  141.3940 C   0  0  0  0  0  0  0  0  0  0  0  0
  184.2220  179.9150  140.2560 O   0  0  0  0  0  0  0  0  0  0  0  0
  187.6320  177.7570  137.6720 C   0  0  0  0  0  2  0  0  0  0  0  0
  186.9570  177.7930  144.2420 C   0  0  0  0  0  0  0  0  0  0  0  0
  187.3180  178.2100  141.2560 N   0  0  0  0  0  0  0  0  0  0  0  0
  187.0460  177.3390  145.5830 C   0  0  0  0  0  0  0  0  0  0  0  0
  186.8090  177.9080  138.9110 C   0  0  1  0  0  3  0  0  0  0  0  0
  189.3580  177.9160  145.6340 N   0  0  0  0  0  0  0  0  0  0  0  0
  185.8450  176.8110  146.3200 C   0  0  0  0  0  1  0  0  0  0  0  0
  185.7170  177.9610  143.7550 C   0  0  0  0  0  3  0  0  0  0  0  0
  185.2580  178.5380  142.4970 C   0  0  0  0  0  3  0  0  0  0  0  0
  190.2800  177.5720  139.9690 C   0  0  2  0  0  3  0  0  0  0  0  0
  191.4180  176.6750  139.4500 C   0  0  1  0  0  3  0  0  0  0  0  0
  190.8260  176.4490  140.8250 C   0  0  0  0  0  2  0  0  0  0  0  0
  191.8720  174.8740  137.9060 N   0  0  0  0  0  0  0  0  0  0  0  0
  190.9880  175.5680  138.5460 C   0  0  0  0  0  3  0  0  0  0  0  0
  190.3040  173.4780  136.8670 O   0  0  0  0  0  0  0  0  0  0  0  0
  191.5100  173.8250  137.0070 C   0  0  0  0  0  0  0  0  0  0  0  0
  192.5730  173.1170  136.2400 C   0  0  0  0  0  2  0  0  0  0  0  0
  193.9420  173.5330  136.7540 C   0  0  0  0  0  1  0  0  0  0  0  0
  191.5830  179.2010  143.2630 C   0  0  0  0  0  3  0  0  0  0  0  0
  190.5620  178.7890  143.7530 C   0  0  0  0  0  0  0  0  0  0  0  0
  1  4  2  0  0  0  0
  3 12  2  0  0  0  0
  3 11  1  0  0  0  0
  4 14  1  0  0  0  0
  4 10  1  0  0  0  0
  5  7  1  6  0  0  0
  5  8  1  0  0  0  0
  5 22  1  0  0  0  0
  6  2  1  0  0  0  0
  8 15  1  1  0  0  0
  9  3  1  0  0  0  0
 10 18  2  0  0  0  0
 11 21  2  0  0  0  0
 13  7  1  0  0  0  0
 14 16  1  0  0  0  0
 15 11  1  0  0  0  0
 15  1  1  0  0  0  0
 16  6  2  0  0  0  0
 16 19  1  0  0  0  0
 17 13  1  6  0  0  0
 17  9  1  0  0  0  0
 17  8  1  0  0  0  0
 18  6  1  0  0  0  0
 20 14  2  0  0  0  0
 21 20  1  0  0  0  0
 22 24  1  1  0  0  0
 23 26  1  6  0  0  0
 23 22  1  0  0  0  0
 23 24  1  0  0  0  0
 25 26  2  0  0  0  0
 27 28  2  0  0  0  0
 28 25  1  0  0  0  0
 29 30  1  0  0  0  0
 29 28  1  0  0  0  0
 31 32  3  0  0  0  0
 32 10  1  0  0  0  0
M  END
>  <MODEL>
4

>  <REMARK>
 VINA RESULT:      -7.3      3.159      6.381
  Name = 
  5 active torsions:
  status: ('A' for Active; 'I' for Inactive)
    1  A    between atoms: C_4  and  C_6
    2  A    between atoms: C_9  and  C_30
    3  A    between atoms: C_10  and  C_26
    4  A    between atoms: N_11  and  C_30
    5  A    between atoms: C_14  and  C_29
                            x       y       z     vdW  Elec       q    Type
                         _______ _______ _______ _____ _____    ______ ____

>  <TORSDO>
F 5

$$$$
=
 OpenBabel10232408193D

 32 36  0  0  1  0  0  0  0  0999 V2000
  186.8270  177.5870  141.7410 N   0  0  0  0  0  0  0  0  0  0  0  0
  183.1030  179.4510  145.3440 N   0  0  0  0  0  1  0  0  0  0  0  0
  190.1010  175.8790  142.4710 C   0  0  0  0  0  0  0  0  0  0  0  0
  185.9840  177.8560  142.7020 C   0  0  0  0  0  0  0  0  0  0  0  0
  188.7500  178.5530  139.5460 C   0  0  2  0  0  3  0  0  0  0  0  0
  184.0880  178.8900  144.4810 C   0  0  0  0  0  0  0  0  0  0  0  0
  189.8380  178.4730  138.6370 O   0  0  0  0  0  0  0  0  0  0  0  0
  188.8770  177.3570  140.4580 C   0  0  2  0  0  3  0  0  0  0  0  0
  190.7460  176.1680  141.2610 O   0  0  0  0  0  0  0  0  0  0  0  0
  184.6410  178.0740  142.3240 C   0  0  0  0  0  0  0  0  0  0  0  0
  188.8730  176.6550  142.8200 C   0  0  0  0  0  0  0  0  0  0  0  0
  190.5670  174.9980  143.2420 O   0  0  0  0  0  0  0  0  0  0  0  0
  190.7690  177.5620  139.1970 C   0  0  0  0  0  2  0  0  0  0  0  0
  186.3360  178.0450  144.0700 C   0  0  0  0  0  0  0  0  0  0  0  0
  188.2220  177.4160  141.7740 N   0  0  0  0  0  0  0  0  0  0  0  0
  185.3870  178.6410  144.9390 C   0  0  0  0  0  0  0  0  0  0  0  0
  190.3460  177.3640  140.6180 C   0  0  1  0  0  3  0  0  0  0  0  0
  183.7490  178.5790  143.2080 N   0  0  0  0  0  0  0  0  0  0  0  0
  185.7220  178.9720  146.3670 C   0  0  0  0  0  1  0  0  0  0  0  0
  187.4500  177.5690  144.6470 C   0  0  0  0  0  3  0  0  0  0  0  0
  188.5480  176.7830  144.0950 C   0  0  0  0  0  3  0  0  0  0  0  0
  187.4220  178.5370  138.7850 C   0  0  2  0  0  3  0  0  0  0  0  0
  187.1530  177.2780  137.9410 C   0  0  1  0  0  3  0  0  0  0  0  0
  187.7080  178.5310  137.2980 C   0  0  0  0  0  2  0  0  0  0  0  0
  188.6690  175.7130  136.8990 N   0  0  0  0  0  0  0  0  0  0  0  0
  188.2260  176.2410  137.9930 C   0  0  0  0  0  3  0  0  0  0  0  0
  189.4280  173.5430  137.3460 O   0  0  0  0  0  0  0  0  0  0  0  0
  189.6730  174.6970  136.8970 C   0  0  0  0  0  0  0  0  0  0  0  0
  191.0330  175.0110  136.3760 C   0  0  0  0  0  2  0  0  0  0  0  0
  192.0840  174.5630  137.3790 C   0  0  0  0  0  1  0  0  0  0  0  0
  183.7950  177.5690  139.8650 C   0  0  0  0  0  3  0  0  0  0  0  0
  184.1820  177.7970  140.9830 C   0  0  0  0  0  0  0  0  0  0  0  0
  1 15  1  0  0  0  0
  1  4  2  0  0  0  0
  3 11  1  0  0  0  0
  3 12  2  0  0  0  0
  4 14  1  0  0  0  0
  5  7  1  6  0  0  0
  5  8  1  0  0  0  0
  6 16  2  0  0  0  0
  6  2  1  0  0  0  0
  7 13  1  0  0  0  0
  8 17  1  0  0  0  0
  8 15  1  1  0  0  0
  9  3  1  0  0  0  0
 10  4  1  0  0  0  0
 10 18  2  0  0  0  0
 11 21  2  0  0  0  0
 14 20  2  0  0  0  0
 14 16  1  0  0  0  0
 15 11  1  0  0  0  0
 16 19  1  0  0  0  0
 17 13  1  6  0  0  0
 17  9  1  0  0  0  0
 18  6  1  0  0  0  0
 21 20  1  0  0  0  0
 22 24  1  6  0  0  0
 22  5  1  0  0  0  0
 23 26  1  1  0  0  0
 23 22  1  0  0  0  0
 24 23  1  0  0  0  0
 25 26  2  0  0  0  0
 28 25  1  0  0  0  0
 28 27  2  0  0  0  0
 29 28  1  0  0  0  0
 29 30  1  0  0  0  0
 31 32  3  0  0  0  0
 32 10  1  0  0  0  0
M  END
>  <MODEL>
5

>  <REMARK>
 VINA RESULT:      -7.2      2.475      5.827
  Name = 
  5 active torsions:
  status: ('A' for Active; 'I' for Inactive)
    1  A    between atoms: C_4  and  C_6
    2  A    between atoms: C_9  and  C_30
    3  A    between atoms: C_10  and  C_26
    4  A    between atoms: N_11  and  C_30
    5  A    between atoms: C_14  and  C_29
                            x       y       z     vdW  Elec       q    Type
                         _______ _______ _______ _____ _____    ______ ____

>  <TORSDO>
F 5

$$$$
=
 OpenBabel10232408193D

 32 36  0  0  1  0  0  0  0  0999 V2000
  187.9790  175.2630  136.8020 N   0  0  0  0  0  0  0  0  0  0  0  0
  182.5810  174.5150  137.5940 N   0  0  0  0  0  1  0  0  0  0  0  0
  190.4750  172.8140  135.4120 C   0  0  0  0  0  0  0  0  0  0  0  0
  186.7020  174.9860  136.8080 C   0  0  0  0  0  0  0  0  0  0  0  0
  190.5860  175.8100  138.3350 C   0  0  2  0  0  3  0  0  0  0  0  0
  183.9690  174.6450  137.3030 C   0  0  0  0  0  0  0  0  0  0  0  0
  191.9910  175.8870  138.5350 O   0  0  0  0  0  0  0  0  0  0  0  0
  190.3890  175.0720  137.0330 C   0  0  2  0  0  3  0  0  0  0  0  0
  191.6320  173.3760  135.9690 O   0  0  0  0  0  0  0  0  0  0  0  0
  185.8170  176.0810  136.9180 C   0  0  0  0  0  0  0  0  0  0  0  0
  189.1520  173.2280  135.9660 C   0  0  0  0  0  0  0  0  0  0  0  0
  190.5680  171.9680  134.4830 O   0  0  0  0  0  0  0  0  0  0  0  0
  192.5780  174.9330  137.6670 C   0  0  0  0  0  2  0  0  0  0  0  0
  186.1500  173.6730  136.8170 C   0  0  0  0  0  0  0  0  0  0  0  0
  189.0960  174.4100  136.8000 N   0  0  0  0  0  0  0  0  0  0  0  0
  184.7790  173.5150  137.1450 C   0  0  0  0  0  0  0  0  0  0  0  0
  191.4570  174.0630  137.1940 C   0  0  1  0  0  3  0  0  0  0  0  0
  184.5000  175.8820  137.1610 N   0  0  0  0  0  0  0  0  0  0  0  0
  184.1510  172.1540  137.2810 C   0  0  0  0  0  1  0  0  0  0  0  0
  186.7880  172.5710  136.3940 C   0  0  0  0  0  3  0  0  0  0  0  0
  188.1300  172.3970  135.8470 C   0  0  0  0  0  3  0  0  0  0  0  0
  189.9800  177.2140  138.2790 C   0  0  2  0  0  3  0  0  0  0  0  0
  189.8810  177.9510  139.6270 C   0  0  1  0  0  3  0  0  0  0  0  0
  188.6830  177.2210  139.0600 C   0  0  0  0  0  2  0  0  0  0  0  0
  189.6480  177.0000  141.8340 N   0  0  0  0  0  0  0  0  0  0  0  0
  190.4030  177.1920  140.8020 C   0  0  0  0  0  3  0  0  0  0  0  0
  190.4930  175.1050  142.9220 O   0  0  0  0  0  0  0  0  0  0  0  0
  190.1090  176.3060  142.9950 C   0  0  0  0  0  0  0  0  0  0  0  0
  190.1190  177.0030  144.3110 C   0  0  0  0  0  2  0  0  0  0  0  0
  188.7070  177.4300  144.6770 C   0  0  0  0  0  1  0  0  0  0  0  0
  186.6740  178.5780  136.7080 C   0  0  0  0  0  3  0  0  0  0  0  0
  186.2860  177.4420  136.8050 C   0  0  0  0  0  0  0  0  0  0  0  0
  1  4  2  0  0  0  0
  3 11  1  0  0  0  0
  3  9  1  0  0  0  0
  4 14  1  0  0  0  0
  4 10  1  0  0  0  0
  5  7  1  6  0  0  0
  6  2  1  0  0  0  0
  8 15  1  1  0  0  0
  8 17  1  0  0  0  0
  8  5  1  0  0  0  0
  9 17  1  0  0  0  0
 10 18  2  0  0  0  0
 11 15  1  0  0  0  0
 12  3  2  0  0  0  0
 13  7  1  0  0  0  0
 14 16  1  0  0  0  0
 15  1  1  0  0  0  0
 16 19  1  0  0  0  0
 16  6  2  0  0  0  0
 17 13  1  6  0  0  0
 18  6  1  0  0  0  0
 20 14  2  0  0  0  0
 21 11  2  0  0  0  0
 21 20  1  0  0  0  0
 22  5  1  0  0  0  0
 22 24  1  1  0  0  0
 22 23  1  0  0  0  0
 23 26  1  1  0  0  0
 24 23  1  0  0  0  0
 25 28  1  0  0  0  0
 26 25  2  0  0  0  0
 27 28  2  0  0  0  0
 28 29  1  0  0  0  0
 29 30  1  0  0  0  0
 31 32  3  0  0  0  0
 32 10  1  0  0  0  0
M  END
>  <MODEL>
6

>  <REMARK>
 VINA RESULT:      -7.0      4.300      5.558
  Name = 
  5 active torsions:
  status: ('A' for Active; 'I' for Inactive)
    1  A    between atoms: C_4  and  C_6
    2  A    between atoms: C_9  and  C_30
    3  A    between atoms: C_10  and  C_26
    4  A    between atoms: N_11  and  C_30
    5  A    between atoms: C_14  and  C_29
                            x       y       z     vdW  Elec       q    Type
                         _______ _______ _______ _____ _____    ______ ____

>  <TORSDO>
F 5

$$$$
=
 OpenBabel10232408193D

 32 36  0  0  1  0  0  0  0  0999 V2000
  186.9400  178.4110  140.1860 N   0  0  0  0  0  0  0  0  0  0  0  0
  192.0400  176.6290  141.2540 N   0  0  0  0  0  1  0  0  0  0  0  0
  184.1900  179.1630  142.6430 C   0  0  0  0  0  0  0  0  0  0  0  0
  188.1450  178.1200  140.6000 C   0  0  0  0  0  0  0  0  0  0  0  0
  184.3430  177.5750  138.7720 C   0  0  2  0  0  3  0  0  0  0  0  0
  190.7250  177.1450  141.0700 C   0  0  0  0  0  0  0  0  0  0  0  0
  182.9610  177.6220  138.4460 O   0  0  0  0  0  0  0  0  0  0  0  0
  184.5220  178.4780  139.9680 C   0  0  2  0  0  3  0  0  0  0  0  0
  183.1040  179.0220  141.7690 O   0  0  0  0  0  0  0  0  0  0  0  0
  189.1920  178.2890  139.6670 C   0  0  0  0  0  0  0  0  0  0  0  0
  185.5120  178.6120  142.2200 C   0  0  0  0  0  0  0  0  0  0  0  0
  184.0350  179.7250  143.7600 O   0  0  0  0  0  0  0  0  0  0  0  0
  182.2960  178.1600  139.5770 C   0  0  0  0  0  2  0  0  0  0  0  0
  188.4610  177.5560  141.8700 C   0  0  0  0  0  0  0  0  0  0  0  0
  185.6980  178.2650  140.8270 N   0  0  0  0  0  0  0  0  0  0  0  0
  189.7500  176.9980  142.0630 C   0  0  0  0  0  0  0  0  0  0  0  0
  183.2870  178.1180  140.6950 C   0  0  1  0  0  3  0  0  0  0  0  0
  190.4290  177.8010  139.9240 N   0  0  0  0  0  0  0  0  0  0  0  0
  190.1210  176.2880  143.3360 C   0  0  0  0  0  1  0  0  0  0  0  0
  187.6810  177.6380  142.9590 C   0  0  0  0  0  3  0  0  0  0  0  0
  186.3830  178.2720  143.1560 C   0  0  0  0  0  3  0  0  0  0  0  0
  185.1830  178.0480  137.5840 C   0  0  2  0  0  3  0  0  0  0  0  0
  185.0830  177.1880  136.3110 C   0  0  1  0  0  3  0  0  0  0  0  0
  186.2340  177.0020  137.2760 C   0  0  0  0  0  2  0  0  0  0  0  0
  184.6050  174.8260  136.1450 N   0  0  0  0  0  0  0  0  0  0  0  0
  184.1670  176.0130  136.4140 C   0  0  0  0  0  3  0  0  0  0  0  0
  182.7210  173.5980  135.4890 O   0  0  0  0  0  0  0  0  0  0  0  0
  183.7610  173.6740  136.2000 C   0  0  0  0  0  0  0  0  0  0  0  0
  184.1050  172.5570  137.1230 C   0  0  0  0  0  2  0  0  0  0  0  0
  185.4830  172.7890  137.7210 C   0  0  0  0  0  1  0  0  0  0  0  0
  188.8000  179.5080  137.3490 C   0  0  0  0  0  3  0  0  0  0  0  0
  188.9760  178.9530  138.4040 C   0  0  0  0  0  0  0  0  0  0  0  0
  1  4  2  0  0  0  0
  1 15  1  0  0  0  0
  3 12  2  0  0  0  0
  4 14  1  0  0  0  0
  5  7  1  6  0  0  0
  5  8  1  0  0  0  0
  6  2  1  0  0  0  0
  6 16  2  0  0  0  0
  7 13  1  0  0  0  0
  8 17  1  0  0  0  0
  8 15  1  1  0  0  0
  9  3  1  0  0  0  0
 10 18  2  0  0  0  0
 10  4  1  0  0  0  0
 11  3  1  0  0  0  0
 11 21  2  0  0  0  0
 14 16  1  0  0  0  0
 14 20  2  0  0  0  0
 15 11  1  0  0  0  0
 16 19  1  0  0  0  0
 17 13  1  6  0  0  0
 17  9  1  0  0  0  0
 18  6  1  0  0  0  0
 20 21  1  0  0  0  0
 22 24  1  1  0  0  0
 22  5  1  0  0  0  0
 23 26  1  1  0  0  0
 23 24  1  0  0  0  0
 23 22  1  0  0  0  0
 25 28  1  0  0  0  0
 25 26  2  0  0  0  0
 27 28  2  0  0  0  0
 28 29  1  0  0  0  0
 29 30  1  0  0  0  0
 31 32  3  0  0  0  0
 32 10  1  0  0  0  0
M  END
>  <MODEL>
7

>  <REMARK>
 VINA RESULT:      -7.0      3.318      8.060
  Name = 
  5 active torsions:
  status: ('A' for Active; 'I' for Inactive)
    1  A    between atoms: C_4  and  C_6
    2  A    between atoms: C_9  and  C_30
    3  A    between atoms: C_10  and  C_26
    4  A    between atoms: N_11  and  C_30
    5  A    between atoms: C_14  and  C_29
                            x       y       z     vdW  Elec       q    Type
                         _______ _______ _______ _____ _____    ______ ____

>  <TORSDO>
F 5

$$$$
=
 OpenBabel10232408193D

 32 36  0  0  1  0  0  0  0  0999 V2000
  186.0090  178.3900  139.4050 N   0  0  0  0  0  0  0  0  0  0  0  0
  189.0130  177.7460  143.9750 N   0  0  0  0  0  1  0  0  0  0  0  0
  182.4260  179.5080  139.1290 C   0  0  0  0  0  0  0  0  0  0  0  0
  186.6300  178.4120  140.5540 C   0  0  0  0  0  0  0  0  0  0  0  0
  184.8490  176.8060  137.0410 C   0  0  2  0  0  3  0  0  0  0  0  0
  188.1860  177.9940  142.8420 C   0  0  0  0  0  0  0  0  0  0  0  0
  184.0110  176.5600  135.9200 O   0  0  0  0  0  0  0  0  0  0  0  0
  184.3170  178.0580  137.6950 C   0  0  2  0  0  3  0  0  0  0  0  0
  182.1440  178.9510  137.8750 O   0  0  0  0  0  0  0  0  0  0  0  0
  188.0420  178.4130  140.5120 C   0  0  0  0  0  0  0  0  0  0  0  0
  183.6430  179.0340  139.8550 C   0  0  0  0  0  0  0  0  0  0  0  0
  181.6540  180.3700  139.6270 O   0  0  0  0  0  0  0  0  0  0  0  0
  182.8400  177.3350  136.1120 C   0  0  0  0  0  2  0  0  0  0  0  0
  185.9960  178.3290  141.8280 C   0  0  0  0  0  0  0  0  0  0  0  0
  184.6390  178.2900  139.1120 N   0  0  0  0  0  0  0  0  0  0  0  0
  186.7930  178.0400  142.9650 C   0  0  0  0  0  0  0  0  0  0  0  0
  182.8730  177.7860  137.5370 C   0  0  1  0  0  3  0  0  0  0  0  0
  188.7660  178.2050  141.6370 N   0  0  0  0  0  0  0  0  0  0  0  0
  186.1830  177.8300  144.3240 C   0  0  0  0  0  1  0  0  0  0  0  0
  184.7150  178.6470  142.0680 C   0  0  0  0  0  3  0  0  0  0  0  0
  183.6700  179.1300  141.1730 C   0  0  0  0  0  3  0  0  0  0  0  0
  186.3000  176.9850  136.5880 C   0  0  2  0  0  3  0  0  0  0  0  0
  186.9280  175.7760  135.8710 C   0  0  1  0  0  3  0  0  0  0  0  0
  187.1750  176.0080  137.3460 C   0  0  0  0  0  2  0  0  0  0  0  0
  186.2470  173.5160  136.3780 N   0  0  0  0  0  0  0  0  0  0  0  0
  186.0250  174.5990  135.7070 C   0  0  0  0  0  3  0  0  0  0  0  0
  185.7810  171.4010  135.4840 O   0  0  0  0  0  0  0  0  0  0  0  0
  185.4300  172.3520  136.2360 C   0  0  0  0  0  0  0  0  0  0  0  0
  184.1370  172.2700  136.9710 C   0  0  0  0  0  2  0  0  0  0  0  0
  183.4130  170.9870  136.5960 C   0  0  0  0  0  1  0  0  0  0  0  0
  189.3570  178.7700  138.2410 C   0  0  0  0  0  3  0  0  0  0  0  0
  188.7570  178.6060  139.2730 C   0  0  0  0  0  0  0  0  0  0  0  0
  1  4  2  0  0  0  0
  3 12  2  0  0  0  0
  3 11  1  0  0  0  0
  4 14  1  0  0  0  0
  5  7  1  6  0  0  0
  5  8  1  0  0  0  0
  6 16  2  0  0  0  0
  6  2  1  0  0  0  0
  7 13  1  0  0  0  0
  8 15  1  1  0  0  0
  9  3  1  0  0  0  0
 10  4  1  0  0  0  0
 10 18  2  0  0  0  0
 11 21  2  0  0  0  0
 14 20  2  0  0  0  0
 14 16  1  0  0  0  0
 15  1  1  0  0  0  0
 15 11  1  0  0  0  0
 16 19  1  0  0  0  0
 17 13  1  6  0  0  0
 17  8  1  0  0  0  0
 17  9  1  0  0  0  0
 18  6  1  0  0  0  0
 21 20  1  0  0  0  0
 22  5  1  0  0  0  0
 22 24  1  1  0  0  0
 23 26  1  1  0  0  0
 23 22  1  0  0  0  0
 23 24  1  0  0  0  0
 26 25  2  0  0  0  0
 27 28  2  0  0  0  0
 28 25  1  0  0  0  0
 28 29  1  0  0  0  0
 30 29  1  0  0  0  0
 31 32  3  0  0  0  0
 32 10  1  0  0  0  0
M  END
>  <MODEL>
8

>  <REMARK>
 VINA RESULT:      -7.0      3.841      7.697
  Name = 
  5 active torsions:
  status: ('A' for Active; 'I' for Inactive)
    1  A    between atoms: C_4  and  C_6
    2  A    between atoms: C_9  and  C_30
    3  A    between atoms: C_10  and  C_26
    4  A    between atoms: N_11  and  C_30
    5  A    between atoms: C_14  and  C_29
                            x       y       z     vdW  Elec       q    Type
                         _______ _______ _______ _____ _____    ______ ____

>  <TORSDO>
F 5

$$$$
=
 OpenBabel10232408193D

 32 36  0  0  1  0  0  0  0  0999 V2000
  184.9120  175.8840  136.7720 N   0  0  0  0  0  0  0  0  0  0  0  0
  180.8020  172.2190  136.7200 N   0  0  0  0  0  1  0  0  0  0  0  0
  188.5560  175.2840  136.0500 C   0  0  0  0  0  0  0  0  0  0  0  0
  184.0300  174.9370  136.5910 C   0  0  0  0  0  0  0  0  0  0  0  0
  186.4310  177.7730  138.6610 C   0  0  2  0  0  3  0  0  0  0  0  0
  181.9100  173.1110  136.6540 C   0  0  0  0  0  0  0  0  0  0  0  0
  187.4890  178.6230  139.0840 O   0  0  0  0  0  0  0  0  0  0  0  0
  186.9280  177.0760  137.4180 C   0  0  2  0  0  3  0  0  0  0  0  0
  189.0760  176.3900  136.7360 O   0  0  0  0  0  0  0  0  0  0  0  0
  182.6850  175.3440  136.4500 C   0  0  0  0  0  0  0  0  0  0  0  0
  187.1490  174.8730  136.3350 C   0  0  0  0  0  0  0  0  0  0  0  0
  189.2760  174.6530  135.2300 O   0  0  0  0  0  0  0  0  0  0  0  0
  188.6580  178.1790  138.4170 C   0  0  0  0  0  2  0  0  0  0  0  0
  184.3090  173.5400  136.6290 C   0  0  0  0  0  0  0  0  0  0  0  0
  186.2900  175.8050  137.0340 N   0  0  0  0  0  0  0  0  0  0  0  0
  183.2230  172.6340  136.7380 C   0  0  0  0  0  0  0  0  0  0  0  0
  188.3220  176.8380  137.8460 C   0  0  1  0  0  3  0  0  0  0  0  0
  181.6820  174.4350  136.4890 N   0  0  0  0  0  0  0  0  0  0  0  0
  183.4430  171.1540  136.8920 C   0  0  0  0  0  1  0  0  0  0  0  0
  185.5170  172.9950  136.4220 C   0  0  0  0  0  3  0  0  0  0  0  0
  186.8040  173.6150  136.1240 C   0  0  0  0  0  3  0  0  0  0  0  0
  185.1730  178.5960  138.3750 C   0  0  2  0  0  3  0  0  0  0  0  0
  184.5130  179.2530  139.6020 C   0  0  1  0  0  3  0  0  0  0  0  0
  183.9910  177.9400  139.0590 C   0  0  0  0  0  2  0  0  0  0  0  0
  184.5180  178.6780  141.9470 N   0  0  0  0  0  0  0  0  0  0  0  0
  185.2050  179.0020  140.9010 C   0  0  0  0  0  3  0  0  0  0  0  0
  186.2040  177.8010  143.3170 O   0  0  0  0  0  0  0  0  0  0  0  0
  185.1290  178.4560  143.2200 C   0  0  0  0  0  0  0  0  0  0  0  0
  184.4790  178.9890  144.4490 C   0  0  0  0  0  2  0  0  0  0  0  0
  182.9700  178.8340  144.3410 C   0  0  0  0  0  1  0  0  0  0  0  0
  182.0400  177.8960  136.1580 C   0  0  0  0  0  3  0  0  0  0  0  0
  182.3310  176.7350  136.2930 C   0  0  0  0  0  0  0  0  0  0  0  0
  1 15  1  0  0  0  0
  3 11  1  0  0  0  0
  3  9  1  0  0  0  0
  4 14  1  0  0  0  0
  4  1  2  0  0  0  0
  5  7  1  6  0  0  0
  6  2  1  0  0  0  0
  6 16  2  0  0  0  0
  8 15  1  1  0  0  0
  8 17  1  0  0  0  0
  8  5  1  0  0  0  0
  9 17  1  0  0  0  0
 10 18  2  0  0  0  0
 10  4  1  0  0  0  0
 11 15  1  0  0  0  0
 12  3  2  0  0  0  0
 13  7  1  0  0  0  0
 14 16  1  0  0  0  0
 16 19  1  0  0  0  0
 17 13  1  6  0  0  0
 18  6  1  0  0  0  0
 20 14  2  0  0  0  0
 21 11  2  0  0  0  0
 21 20  1  0  0  0  0
 22  5  1  0  0  0  0
 22 24  1  1  0  0  0
 22 23  1  0  0  0  0
 23 26  1  1  0  0  0
 24 23  1  0  0  0  0
 25 28  1  0  0  0  0
 26 25  2  0  0  0  0
 28 27  2  0  0  0  0
 28 29  1  0  0  0  0
 30 29  1  0  0  0  0
 31 32  3  0  0  0  0
 32 10  1  0  0  0  0
M  END
>  <MODEL>
9

>  <REMARK>
 VINA RESULT:      -6.9      3.779      5.966
  Name = 
  5 active torsions:
  status: ('A' for Active; 'I' for Inactive)
    1  A    between atoms: C_4  and  C_6
    2  A    between atoms: C_9  and  C_30
    3  A    between atoms: C_10  and  C_26
    4  A    between atoms: N_11  and  C_30
    5  A    between atoms: C_14  and  C_29
                            x       y       z     vdW  Elec       q    Type
                         _______ _______ _______ _____ _____    ______ ____

>  <TORSDO>
F 5

$$$$
