=
 OpenBabel10232409573D

 34 39  0  0  1  0  0  0  0  0999 V2000
  186.0960  176.9940  136.6350 N   0  0  2  0  0  0  0  0  0  0  0  0
  186.7750  178.1680  134.5860 C   0  0  0  0  0  2  0  0  0  0  0  0
  188.1010  177.4540  134.3480 C   0  0  0  0  0  2  0  0  0  0  0  0
  185.7610  177.2310  135.2340 C   0  0  0  0  0  2  0  0  0  0  0  0
  187.1660  176.0020  136.7410 C   0  0  0  0  0  2  0  0  0  0  0  0
  188.9100  177.3510  135.6090 C   0  0  0  0  0  3  0  0  0  0  0  0
  188.5000  176.6830  136.7020 C   0  0  0  0  0  0  0  0  0  0  0  0
  180.4260  177.8240  136.7730 C   0  0  0  0  0  3  0  0  0  0  0  0
  182.9150  177.7900  137.9420 C   0  0  0  0  0  0  0  0  0  0  0  0
  184.2980  177.5940  138.4450 C   0  0  1  0  0  3  0  0  0  0  0  0
  182.6790  177.0190  136.8410 C   0  0  0  0  0  0  0  0  0  0  0  0
  181.9410  178.5610  138.4930 N   0  0  0  0  0  0  0  0  0  0  0  0
  180.7020  178.5940  137.9210 C   0  0  0  0  0  3  0  0  0  0  0  0
  181.4320  177.0160  136.2220 C   0  0  0  0  0  3  0  0  0  0  0  0
  183.8090  176.2660  136.4530 N   0  0  0  0  0  2  0  0  0  0  0  0
  184.8930  176.5920  137.3850 C   0  0  1  0  0  3  0  0  0  0  0  0
  184.9890  178.9130  138.6250 C   0  0  0  0  0  3  0  0  0  0  0  0
  185.0950  179.4070  139.7350 O   0  0  0  0  0  0  0  0  0  0  0  0
  189.3660  176.6130  137.9280 C   0  0  1  0  0  3  0  0  0  0  0  0
  188.5150  178.5530  139.4350 C   0  0  1  0  0  3  0  0  0  0  0  0
  189.2180  179.2820  138.4700 O   0  0  0  0  0  1  0  0  0  0  0  0
  188.5840  177.0290  139.1960 C   0  0  2  0  0  3  0  0  0  0  0  0
  190.8210  177.8280  139.9600 O   0  0  0  0  0  1  0  0  0  0  0  0
  189.4600  177.6890  140.2550 C   0  0  1  0  0  0  0  0  0  0  0  0
  189.0800  177.4570  141.6810 C   0  0  0  0  0  0  0  0  0  0  0  0
  188.4060  177.0950  144.3760 C   0  0  0  0  0  0  0  0  0  0  0  0
  187.8570  177.9320  142.1710 C   0  0  0  0  0  3  0  0  0  0  0  0
  189.9740  176.8210  142.5540 C   0  0  0  0  0  3  0  0  0  0  0  0
  187.5180  177.7470  143.5160 C   0  0  0  0  0  3  0  0  0  0  0  0
  189.6350  176.6350  143.8960 C   0  0  0  0  0  3  0  0  0  0  0  0
  188.0680  176.9090  145.7100 O   0  0  0  0  0  1  0  0  0  0  0  0
  190.5950  174.8560  136.6580 N   0  0  0  0  0  2  0  0  0  0  0  0
  190.1070  175.2580  137.9860 C   0  0  1  0  0  3  0  0  0  0  0  0
  191.5330  175.3570  137.6760 C   0  0  0  0  0  2  0  0  0  0  0  0
  1  4  1  6  0  0  0
  1  5  1  0  0  0  0
  1 16  1  0  0  0  0
  2  4  1  0  0  0  0
  3  2  1  0  0  0  0
  3  6  1  0  0  0  0
  6  7  2  0  0  0  0
  7  5  1  0  0  0  0
  8 13  1  0  0  0  0
  9 10  1  0  0  0  0
  9 12  1  0  0  0  0
 10 17  1  6  0  0  0
 11  9  2  0  0  0  0
 13 12  2  0  0  0  0
 14  8  2  0  0  0  0
 14 11  1  0  0  0  0
 15 11  1  0  0  0  0
 16 15  1  6  0  0  0
 16 10  1  0  0  0  0
 17 18  2  0  0  0  0
 19  7  1  6  0  0  0
 20 21  1  6  0  0  0
 20 24  1  0  0  0  0
 22 19  1  6  0  0  0
 22 20  1  0  0  0  0
 22 24  1  0  0  0  0
 24 23  1  6  0  0  0
 24 25  1  0  0  0  0
 25 27  2  0  0  0  0
 25 28  1  0  0  0  0
 26 31  1  0  0  0  0
 27 29  1  0  0  0  0
 28 30  2  0  0  0  0
 29 26  2  0  0  0  0
 30 26  1  0  0  0  0
 32 34  1  0  0  0  0
 32 33  1  0  0  0  0
 33 19  1  6  0  0  0
 34 33  1  0  0  0  0
M  END
>  <MODEL>
1

>  <REMARK>
 VINA RESULT:      -6.6      0.000      0.000
  Name = 
  6 active torsions:
  status: ('A' for Active; 'I' for Inactive)
    1  A    between atoms: C_1  and  C_32
    2  A    between atoms: N_2  and  C_33
    3  A    between atoms: C_9  and  C_19
    4  A    between atoms: C_10  and  C_29
    5  A    between atoms: C_26  and  C_29
    6  A    between atoms: C_29  and  C_34
                            x       y       z     vdW  Elec       q    Type
                         _______ _______ _______ _____ _____    ______ ____

>  <TORSDO>
F 6

$$$$
=
 OpenBabel10232409573D

 34 39  0  0  1  0  0  0  0  0999 V2000
  188.9650  176.7580  141.9760 N   0  0  2  0  0  0  0  0  0  0  0  0
  190.3930  176.5430  139.9880 C   0  0  0  0  0  2  0  0  0  0  0  0
  190.1770  177.9360  139.4050 C   0  0  0  0  0  2  0  0  0  0  0  0
  190.3370  176.5760  141.5120 C   0  0  0  0  0  2  0  0  0  0  0  0
  188.5760  178.1650  141.8750 C   0  0  0  0  0  2  0  0  0  0  0  0
  188.7250  178.3180  139.4050 C   0  0  0  0  0  3  0  0  0  0  0  0
  187.9880  178.4360  140.5230 C   0  0  0  0  0  0  0  0  0  0  0  0
  186.6610  178.1200  147.0450 C   0  0  0  0  0  3  0  0  0  0  0  0
  188.7660  177.3590  145.4480 C   0  0  0  0  0  0  0  0  0  0  0  0
  189.7530  176.8300  144.4740 C   0  0  1  0  0  3  0  0  0  0  0  0
  187.4890  177.0960  145.0470 C   0  0  0  0  0  0  0  0  0  0  0  0
  189.0280  177.9710  146.6330 N   0  0  0  0  0  0  0  0  0  0  0  0
  187.9930  178.3600  147.4340 C   0  0  0  0  0  3  0  0  0  0  0  0
  186.4010  177.4710  145.8280 C   0  0  0  0  0  3  0  0  0  0  0  0
  187.4390  176.4220  143.8070 N   0  0  0  0  0  2  0  0  0  0  0  0
  188.8200  176.2420  143.3480 C   0  0  1  0  0  3  0  0  0  0  0  0
  190.7360  177.8930  144.0820 C   0  0  0  0  0  3  0  0  0  0  0  0
  191.8150  177.9720  144.6440 O   0  0  0  0  0  0  0  0  0  0  0  0
  186.5400  178.8310  140.4490 C   0  0  1  0  0  3  0  0  0  0  0  0
  185.8460  178.0400  138.0720 C   0  0  1  0  0  3  0  0  0  0  0  0
  186.6480  179.1380  137.7410 O   0  0  0  0  0  1  0  0  0  0  0  0
  185.7250  177.8310  139.5970 C   0  0  2  0  0  3  0  0  0  0  0  0
  184.4380  179.8710  138.9580 O   0  0  0  0  0  1  0  0  0  0  0  0
  184.5950  178.4880  138.8120 C   0  0  1  0  0  0  0  0  0  0  0  0
  183.3640  177.6700  138.5930 C   0  0  0  0  0  0  0  0  0  0  0  0
  181.1050  176.0690  138.1650 C   0  0  0  0  0  0  0  0  0  0  0  0
  182.7730  176.9860  139.6630 C   0  0  0  0  0  3  0  0  0  0  0  0
  182.8320  177.5290  137.3030 C   0  0  0  0  0  3  0  0  0  0  0  0
  181.6420  176.1910  139.4500 C   0  0  0  0  0  3  0  0  0  0  0  0
  181.7020  176.7350  137.0910 C   0  0  0  0  0  3  0  0  0  0  0  0
  179.9820  175.2820  137.9550 O   0  0  0  0  0  1  0  0  0  0  0  0
  184.5630  179.4800  141.8200 N   0  0  0  0  0  2  0  0  0  0  0  0
  185.9950  179.1410  141.8610 C   0  0  1  0  0  3  0  0  0  0  0  0
  185.0050  178.1730  142.3320 C   0  0  0  0  0  2  0  0  0  0  0  0
  1  4  1  1  0  0  0
  1 16  1  0  0  0  0
  2  4  1  0  0  0  0
  3  2  1  0  0  0  0
  5  1  1  0  0  0  0
  6  3  1  0  0  0  0
  6  7  2  0  0  0  0
  7  5  1  0  0  0  0
  8 13  1  0  0  0  0
  9 12  1  0  0  0  0
 10 17  1  6  0  0  0
 10  9  1  0  0  0  0
 11  9  2  0  0  0  0
 11 14  1  0  0  0  0
 12 13  2  0  0  0  0
 14  8  2  0  0  0  0
 15 11  1  0  0  0  0
 16 15  1  1  0  0  0
 16 10  1  0  0  0  0
 17 18  2  0  0  0  0
 19  7  1  1  0  0  0
 20 21  1  1  0  0  0
 20 24  1  0  0  0  0
 20 22  1  0  0  0  0
 22 19  1  1  0  0  0
 24 23  1  1  0  0  0
 24 22  1  0  0  0  0
 25 24  1  0  0  0  0
 25 27  1  0  0  0  0
 26 29  1  0  0  0  0
 28 25  2  0  0  0  0
 29 27  2  0  0  0  0
 30 28  1  0  0  0  0
 30 26  2  0  0  0  0
 31 26  1  0  0  0  0
 32 33  1  0  0  0  0
 32 34  1  0  0  0  0
 33 19  1  6  0  0  0
 33 34  1  0  0  0  0
M  END
>  <MODEL>
2

>  <REMARK>
 VINA RESULT:      -6.3      3.295      7.899
  Name = 
  6 active torsions:
  status: ('A' for Active; 'I' for Inactive)
    1  A    between atoms: C_1  and  C_32
    2  A    between atoms: N_2  and  C_33
    3  A    between atoms: C_9  and  C_19
    4  A    between atoms: C_10  and  C_29
    5  A    between atoms: C_26  and  C_29
    6  A    between atoms: C_29  and  C_34
                            x       y       z     vdW  Elec       q    Type
                         _______ _______ _______ _____ _____    ______ ____

>  <TORSDO>
F 6

$$$$
=
 OpenBabel10232409573D

 34 39  0  0  1  0  0  0  0  0999 V2000
  190.8390  176.9110  138.2190 N   0  0  2  0  0  0  0  0  0  0  0  0
  193.1120  177.6640  138.7690 C   0  0  0  0  0  2  0  0  0  0  0  0
  193.1840  177.1370  140.1980 C   0  0  0  0  0  2  0  0  0  0  0  0
  192.2540  176.7550  137.8950 C   0  0  0  0  0  2  0  0  0  0  0  0
  190.5080  176.1570  139.4280 C   0  0  0  0  0  2  0  0  0  0  0  0
  191.9400  177.4650  140.9730 C   0  0  0  0  0  3  0  0  0  0  0  0
  190.7170  177.0150  140.6390 C   0  0  0  0  0  0  0  0  0  0  0  0
  186.0570  174.0110  136.9620 C   0  0  0  0  0  3  0  0  0  0  0  0
  188.7400  174.5350  136.6680 C   0  0  0  0  0  0  0  0  0  0  0  0
  190.1330  175.0310  136.5360 C   0  0  1  0  0  3  0  0  0  0  0  0
  187.9100  175.5160  137.1240 C   0  0  0  0  0  0  0  0  0  0  0  0
  188.2700  173.3060  136.3310 N   0  0  0  0  0  0  0  0  0  0  0  0
  186.9410  173.0270  136.4780 C   0  0  0  0  0  3  0  0  0  0  0  0
  186.5480  175.2840  137.2900 C   0  0  0  0  0  3  0  0  0  0  0  0
  188.5910  176.7280  137.3790 N   0  0  0  0  0  2  0  0  0  0  0  0
  190.0070  176.5070  137.0720 C   0  0  1  0  0  3  0  0  0  0  0  0
  191.0920  174.1130  137.2350 C   0  0  0  0  0  3  0  0  0  0  0  0
  191.8270  173.3840  136.5910 O   0  0  0  0  0  0  0  0  0  0  0  0
  189.5160  177.3760  141.4660 C   0  0  1  0  0  3  0  0  0  0  0  0
  190.3020  176.0800  143.5790 C   0  0  1  0  0  3  0  0  0  0  0  0
  190.2620  175.0350  142.6490 O   0  0  0  0  0  1  0  0  0  0  0  0
  189.8630  177.4300  142.9720 C   0  0  2  0  0  3  0  0  0  0  0  0
  187.8620  175.9560  143.1900 O   0  0  0  0  0  1  0  0  0  0  0  0
  188.9060  176.6220  143.8410 C   0  0  1  0  0  0  0  0  0  0  0  0
  188.6430  177.1440  145.2170 C   0  0  0  0  0  0  0  0  0  0  0  0
  188.1250  178.0450  147.8180 C   0  0  0  0  0  0  0  0  0  0  0  0
  189.6590  177.1320  146.1810 C   0  0  0  0  0  3  0  0  0  0  0  0
  187.3600  177.5880  145.5690 C   0  0  0  0  0  3  0  0  0  0  0  0
  189.4010  177.5860  147.4790 C   0  0  0  0  0  3  0  0  0  0  0  0
  187.1050  178.0420  146.8650 C   0  0  0  0  0  3  0  0  0  0  0  0
  187.8720  178.4980  149.1060 O   0  0  0  0  0  1  0  0  0  0  0  0
  187.6650  178.2310  140.0330 N   0  0  0  0  0  2  0  0  0  0  0  0
  188.8090  178.6160  140.8750 C   0  0  1  0  0  3  0  0  0  0  0  0
  187.4450  178.8050  141.3700 C   0  0  0  0  0  2  0  0  0  0  0  0
  1  4  1  6  0  0  0
  1  5  1  0  0  0  0
  2  3  1  0  0  0  0
  3  6  1  0  0  0  0
  4  2  1  0  0  0  0
  5  7  1  0  0  0  0
  7  6  2  0  0  0  0
  8 14  1  0  0  0  0
  9 11  1  0  0  0  0
 10  9  1  0  0  0  0
 10 16  1  0  0  0  0
 10 17  1  1  0  0  0
 11 14  2  0  0  0  0
 11 15  1  0  0  0  0
 12 13  1  0  0  0  0
 12  9  2  0  0  0  0
 13  8  2  0  0  0  0
 16 15  1  1  0  0  0
 16  1  1  0  0  0  0
 18 17  2  0  0  0  0
 19  7  1  6  0  0  0
 20 21  1  6  0  0  0
 20 24  1  0  0  0  0
 22 19  1  6  0  0  0
 22 20  1  0  0  0  0
 22 24  1  0  0  0  0
 24 23  1  6  0  0  0
 24 25  1  0  0  0  0
 25 28  2  0  0  0  0
 25 27  1  0  0  0  0
 26 31  1  0  0  0  0
 27 29  2  0  0  0  0
 28 30  1  0  0  0  0
 29 26  1  0  0  0  0
 30 26  2  0  0  0  0
 32 33  1  0  0  0  0
 32 34  1  0  0  0  0
 33 34  1  0  0  0  0
 33 19  1  1  0  0  0
M  END
>  <MODEL>
3

>  <REMARK>
 VINA RESULT:      -6.3      3.482      5.819
  Name = 
  6 active torsions:
  status: ('A' for Active; 'I' for Inactive)
    1  A    between atoms: C_1  and  C_32
    2  A    between atoms: N_2  and  C_33
    3  A    between atoms: C_9  and  C_19
    4  A    between atoms: C_10  and  C_29
    5  A    between atoms: C_26  and  C_29
    6  A    between atoms: C_29  and  C_34
                            x       y       z     vdW  Elec       q    Type
                         _______ _______ _______ _____ _____    ______ ____

>  <TORSDO>
F 6

$$$$
=
 OpenBabel10232409573D

 34 39  0  0  1  0  0  0  0  0999 V2000
  189.5080  177.8700  142.1080 N   0  0  2  0  0  0  0  0  0  0  0  0
  190.4540  176.3280  140.4450 C   0  0  0  0  0  2  0  0  0  0  0  0
  189.9610  177.0280  139.1840 C   0  0  0  0  0  2  0  0  0  0  0  0
  190.7480  177.3390  141.5490 C   0  0  0  0  0  2  0  0  0  0  0  0
  188.9570  178.9030  141.2300 C   0  0  0  0  0  2  0  0  0  0  0  0
  188.5150  177.4180  139.2960 C   0  0  0  0  0  3  0  0  0  0  0  0
  188.0470  178.2790  140.2160 C   0  0  0  0  0  0  0  0  0  0  0  0
  191.4820  176.1840  147.2190 C   0  0  0  0  0  3  0  0  0  0  0  0
  189.5680  177.3010  145.5910 C   0  0  0  0  0  0  0  0  0  0  0  0
  188.7050  177.9910  144.6000 C   0  0  1  0  0  3  0  0  0  0  0  0
  190.8740  177.3110  145.1970 C   0  0  0  0  0  0  0  0  0  0  0  0
  189.1880  176.7720  146.7830 N   0  0  0  0  0  0  0  0  0  0  0  0
  190.1260  176.2070  147.6000 C   0  0  0  0  0  3  0  0  0  0  0  0
  191.8680  176.7510  145.9940 C   0  0  0  0  0  3  0  0  0  0  0  0
  191.0590  177.9430  143.9470 N   0  0  0  0  0  2  0  0  0  0  0  0
  189.7400  178.3720  143.4730 C   0  0  1  0  0  3  0  0  0  0  0  0
  187.5410  177.1270  144.2160 C   0  0  0  0  0  3  0  0  0  0  0  0
  186.5070  177.1640  144.8600 O   0  0  0  0  0  0  0  0  0  0  0  0
  186.5870  178.6320  140.2650 C   0  0  1  0  0  3  0  0  0  0  0  0
  185.8960  178.1210  137.8110 C   0  0  1  0  0  3  0  0  0  0  0  0
  186.7190  179.2330  137.6080 O   0  0  0  0  0  1  0  0  0  0  0  0
  185.7610  177.7460  139.3030 C   0  0  2  0  0  3  0  0  0  0  0  0
  184.5140  179.8670  138.8870 O   0  0  0  0  0  1  0  0  0  0  0  0
  184.6480  178.5070  138.5890 C   0  0  1  0  0  0  0  0  0  0  0  0
  183.4040  177.7400  138.2750 C   0  0  0  0  0  0  0  0  0  0  0  0
  181.1200  176.2320  137.6800 C   0  0  0  0  0  0  0  0  0  0  0  0
  182.6450  177.1750  139.3080 C   0  0  0  0  0  3  0  0  0  0  0  0
  183.0270  177.5260  136.9420 C   0  0  0  0  0  3  0  0  0  0  0  0
  181.5020  176.4260  139.0110 C   0  0  0  0  0  3  0  0  0  0  0  0
  181.8840  176.7790  136.6460 C   0  0  0  0  0  3  0  0  0  0  0  0
  179.9830  175.4910  137.3860 O   0  0  0  0  0  1  0  0  0  0  0  0
  184.9580  179.6200  141.8700 N   0  0  0  0  0  2  0  0  0  0  0  0
  186.1000  178.7030  141.7290 C   0  0  1  0  0  3  0  0  0  0  0  0
  184.7540  178.1630  141.9250 C   0  0  0  0  0  2  0  0  0  0  0  0
  1  5  1  6  0  0  0
  1 16  1  0  0  0  0
  2  4  1  0  0  0  0
  3  6  1  0  0  0  0
  3  2  1  0  0  0  0
  4  1  1  0  0  0  0
  6  7  2  0  0  0  0
  7  5  1  0  0  0  0
  8 13  1  0  0  0  0
  9 12  1  0  0  0  0
 10 17  1  6  0  0  0
 10  9  1  0  0  0  0
 11  9  2  0  0  0  0
 11 14  1  0  0  0  0
 12 13  2  0  0  0  0
 14  8  2  0  0  0  0
 15 11  1  0  0  0  0
 16 15  1  1  0  0  0
 16 10  1  0  0  0  0
 17 18  2  0  0  0  0
 19  7  1  1  0  0  0
 20 21  1  1  0  0  0
 20 24  1  0  0  0  0
 20 22  1  0  0  0  0
 22 19  1  1  0  0  0
 24 23  1  1  0  0  0
 24 22  1  0  0  0  0
 25 24  1  0  0  0  0
 25 27  1  0  0  0  0
 26 29  1  0  0  0  0
 28 25  2  0  0  0  0
 29 27  2  0  0  0  0
 30 28  1  0  0  0  0
 30 26  2  0  0  0  0
 31 26  1  0  0  0  0
 32 34  1  0  0  0  0
 33 19  1  6  0  0  0
 33 32  1  0  0  0  0
 33 34  1  0  0  0  0
M  END
>  <MODEL>
4

>  <REMARK>
 VINA RESULT:      -6.2      3.365      8.437
  Name = 
  6 active torsions:
  status: ('A' for Active; 'I' for Inactive)
    1  A    between atoms: C_1  and  C_32
    2  A    between atoms: N_2  and  C_33
    3  A    between atoms: C_9  and  C_19
    4  A    between atoms: C_10  and  C_29
    5  A    between atoms: C_26  and  C_29
    6  A    between atoms: C_29  and  C_34
                            x       y       z     vdW  Elec       q    Type
                         _______ _______ _______ _____ _____    ______ ____

>  <TORSDO>
F 6

$$$$
=
 OpenBabel10232409573D

 34 39  0  0  1  0  0  0  0  0999 V2000
  186.7680  174.7800  136.5190 N   0  0  2  0  0  0  0  0  0  0  0  0
  186.1830  176.4170  134.7830 C   0  0  0  0  0  2  0  0  0  0  0  0
  187.5930  176.8530  134.4010 C   0  0  0  0  0  2  0  0  0  0  0  0
  186.1600  174.9510  135.2020 C   0  0  0  0  0  2  0  0  0  0  0  0
  188.2270  174.7850  136.4100 C   0  0  0  0  0  2  0  0  0  0  0  0
  188.4380  177.1230  135.6130 C   0  0  0  0  0  3  0  0  0  0  0  0
  188.7430  176.1870  136.5290 C   0  0  0  0  0  0  0  0  0  0  0  0
  183.3780  170.2750  135.4830 C   0  0  0  0  0  3  0  0  0  0  0  0
  184.1690  172.4370  136.9870 C   0  0  0  0  0  0  0  0  0  0  0  0
  184.8040  173.5480  137.7400 C   0  0  1  0  0  3  0  0  0  0  0  0
  185.0660  171.8310  136.1570 C   0  0  0  0  0  0  0  0  0  0  0  0
  182.8940  171.9850  137.1080 N   0  0  0  0  0  0  0  0  0  0  0  0
  182.4830  170.9160  136.3640 C   0  0  0  0  0  3  0  0  0  0  0  0
  184.6980  170.7370  135.3790 C   0  0  0  0  0  3  0  0  0  0  0  0
  186.3440  172.4310  136.2080 N   0  0  0  0  0  2  0  0  0  0  0  0
  186.2660  173.5480  137.1530 C   0  0  1  0  0  3  0  0  0  0  0  0
  183.9970  174.8060  137.6100 C   0  0  0  0  0  3  0  0  0  0  0  0
  183.2510  175.1560  138.5080 O   0  0  0  0  0  0  0  0  0  0  0  0
  189.6010  176.5260  137.7150 C   0  0  1  0  0  3  0  0  0  0  0  0
  188.4340  178.3400  139.1650 C   0  0  1  0  0  3  0  0  0  0  0  0
  189.0330  179.1500  138.1940 O   0  0  0  0  0  1  0  0  0  0  0  0
  188.7430  176.8420  138.9620 C   0  0  2  0  0  3  0  0  0  0  0  0
  190.8150  177.9930  139.7390 O   0  0  0  0  0  1  0  0  0  0  0  0
  189.4870  177.6510  140.0180 C   0  0  1  0  0  0  0  0  0  0  0  0
  189.1230  177.3910  141.4440 C   0  0  0  0  0  0  0  0  0  0  0  0
  188.4840  176.9750  144.1390 C   0  0  0  0  0  0  0  0  0  0  0  0
  187.9430  177.9240  141.9780 C   0  0  0  0  0  3  0  0  0  0  0  0
  189.9930  176.6690  142.2730 C   0  0  0  0  0  3  0  0  0  0  0  0
  187.6220  177.7120  143.3230 C   0  0  0  0  0  3  0  0  0  0  0  0
  189.6710  176.4570  143.6150 C   0  0  0  0  0  3  0  0  0  0  0  0
  188.1630  176.7630  145.4730 O   0  0  0  0  0  1  0  0  0  0  0  0
  191.5170  175.3250  136.6670 N   0  0  0  0  0  2  0  0  0  0  0  0
  190.7150  175.4690  137.8920 C   0  0  1  0  0  3  0  0  0  0  0  0
  192.0660  176.0270  137.8380 C   0  0  0  0  0  2  0  0  0  0  0  0
  1  4  1  6  0  0  0
  1 16  1  0  0  0  0
  2  4  1  0  0  0  0
  3  2  1  0  0  0  0
  3  6  1  0  0  0  0
  5  1  1  0  0  0  0
  5  7  1  0  0  0  0
  6  7  2  0  0  0  0
  8 13  1  0  0  0  0
  9 12  1  0  0  0  0
  9 10  1  0  0  0  0
 10 17  1  6  0  0  0
 11 15  1  0  0  0  0
 11  9  2  0  0  0  0
 13 12  2  0  0  0  0
 14  8  2  0  0  0  0
 14 11  1  0  0  0  0
 16 15  1  6  0  0  0
 16 10  1  0  0  0  0
 17 18  2  0  0  0  0
 19  7  1  6  0  0  0
 20 21  1  6  0  0  0
 20 24  1  0  0  0  0
 22 19  1  6  0  0  0
 22 20  1  0  0  0  0
 22 24  1  0  0  0  0
 24 23  1  6  0  0  0
 24 25  1  0  0  0  0
 25 27  2  0  0  0  0
 25 28  1  0  0  0  0
 26 31  1  0  0  0  0
 27 29  1  0  0  0  0
 28 30  2  0  0  0  0
 29 26  2  0  0  0  0
 30 26  1  0  0  0  0
 32 34  1  0  0  0  0
 32 33  1  0  0  0  0
 33 19  1  6  0  0  0
 34 33  1  0  0  0  0
M  END
>  <MODEL>
5

>  <REMARK>
 VINA RESULT:      -6.2      2.773      3.455
  Name = 
  6 active torsions:
  status: ('A' for Active; 'I' for Inactive)
    1  A    between atoms: C_1  and  C_32
    2  A    between atoms: N_2  and  C_33
    3  A    between atoms: C_9  and  C_19
    4  A    between atoms: C_10  and  C_29
    5  A    between atoms: C_26  and  C_29
    6  A    between atoms: C_29  and  C_34
                            x       y       z     vdW  Elec       q    Type
                         _______ _______ _______ _____ _____    ______ ____

>  <TORSDO>
F 6

$$$$
=
 OpenBabel10232409573D

 34 39  0  0  1  0  0  0  0  0999 V2000
  183.0400  178.8070  138.0390 N   0  0  2  0  0  0  0  0  0  0  0  0
  181.4510  178.8930  136.1680 C   0  0  0  0  0  2  0  0  0  0  0  0
  181.3660  177.3980  135.8760 C   0  0  0  0  0  2  0  0  0  0  0  0
  181.6730  179.1460  137.6550 C   0  0  0  0  0  2  0  0  0  0  0  0
  183.1770  177.3600  138.2070 C   0  0  0  0  0  2  0  0  0  0  0  0
  182.7260  176.7620  135.8440 C   0  0  0  0  0  3  0  0  0  0  0  0
  183.5560  176.7280  136.9020 C   0  0  0  0  0  0  0  0  0  0  0  0
  186.3630  178.3410  142.6870 C   0  0  0  0  0  3  0  0  0  0  0  0
  183.9480  178.7840  141.4500 C   0  0  0  0  0  0  0  0  0  0  0  0
  182.7620  179.1260  140.6250 C   0  0  1  0  0  3  0  0  0  0  0  0
  185.1050  179.0070  140.7630 C   0  0  0  0  0  0  0  0  0  0  0  0
  183.9570  178.3690  142.7440 N   0  0  0  0  0  0  0  0  0  0  0  0
  185.1480  178.1380  143.3700 C   0  0  0  0  0  3  0  0  0  0  0  0
  186.3440  178.7880  141.3570 C   0  0  0  0  0  3  0  0  0  0  0  0
  184.8750  179.4710  139.4490 N   0  0  0  0  0  2  0  0  0  0  0  0
  183.4230  179.5420  139.2570 C   0  0  1  0  0  3  0  0  0  0  0  0
  181.7800  177.9910  140.6100 C   0  0  0  0  0  3  0  0  0  0  0  0
  180.6880  178.1140  141.1380 O   0  0  0  0  0  0  0  0  0  0  0  0
  184.9010  176.0660  136.8000 C   0  0  1  0  0  3  0  0  0  0  0  0
  186.7090  177.8710  136.3170 C   0  0  1  0  0  3  0  0  0  0  0  0
  186.2140  177.6660  135.0240 O   0  0  0  0  0  1  0  0  0  0  0  0
  186.0200  176.9720  137.3660 C   0  0  2  0  0  3  0  0  0  0  0  0
  187.4910  175.5560  135.9310 O   0  0  0  0  0  1  0  0  0  0  0  0
  187.4050  176.6220  136.8340 C   0  0  1  0  0  0  0  0  0  0  0  0
  188.5560  176.8390  137.7620 C   0  0  0  0  0  0  0  0  0  0  0  0
  190.6760  177.1940  139.5590 C   0  0  0  0  0  0  0  0  0  0  0  0
  189.6650  175.9830  137.7210 C   0  0  0  0  0  3  0  0  0  0  0  0
  188.5040  177.8580  138.7230 C   0  0  0  0  0  3  0  0  0  0  0  0
  190.7250  176.1640  138.6150 C   0  0  0  0  0  3  0  0  0  0  0  0
  189.5640  178.0390  139.6150 C   0  0  0  0  0  3  0  0  0  0  0  0
  191.7300  177.3740  140.4440 O   0  0  0  0  0  1  0  0  0  0  0  0
  183.5240  174.0090  137.0850 N   0  0  0  0  0  2  0  0  0  0  0  0
  184.8330  174.6250  137.3520 C   0  0  1  0  0  3  0  0  0  0  0  0
  184.7090  173.6040  136.3120 C   0  0  0  0  0  2  0  0  0  0  0  0
  1  4  1  1  0  0  0
  1  5  1  0  0  0  0
  1 16  1  0  0  0  0
  2  4  1  0  0  0  0
  3  2  1  0  0  0  0
  6  3  1  0  0  0  0
  6  7  2  0  0  0  0
  7  5  1  0  0  0  0
  8 13  1  0  0  0  0
  9 12  1  0  0  0  0
 10 17  1  6  0  0  0
 10  9  1  0  0  0  0
 11 14  1  0  0  0  0
 11  9  2  0  0  0  0
 12 13  2  0  0  0  0
 14  8  2  0  0  0  0
 15 11  1  0  0  0  0
 16 15  1  1  0  0  0
 16 10  1  0  0  0  0
 17 18  2  0  0  0  0
 19  7  1  1  0  0  0
 20 21  1  6  0  0  0
 20 24  1  0  0  0  0
 20 22  1  0  0  0  0
 22 19  1  6  0  0  0
 24 23  1  6  0  0  0
 24 22  1  0  0  0  0
 24 25  1  0  0  0  0
 25 28  1  0  0  0  0
 26 30  1  0  0  0  0
 26 31  1  0  0  0  0
 27 25  2  0  0  0  0
 27 29  1  0  0  0  0
 28 30  2  0  0  0  0
 29 26  2  0  0  0  0
 32 33  1  0  0  0  0
 33 19  1  6  0  0  0
 34 32  1  0  0  0  0
 34 33  1  0  0  0  0
M  END
>  <MODEL>
6

>  <REMARK>
 VINA RESULT:      -6.1      2.592      5.307
  Name = 
  6 active torsions:
  status: ('A' for Active; 'I' for Inactive)
    1  A    between atoms: C_1  and  C_32
    2  A    between atoms: N_2  and  C_33
    3  A    between atoms: C_9  and  C_19
    4  A    between atoms: C_10  and  C_29
    5  A    between atoms: C_26  and  C_29
    6  A    between atoms: C_29  and  C_34
                            x       y       z     vdW  Elec       q    Type
                         _______ _______ _______ _____ _____    ______ ____

>  <TORSDO>
F 6

$$$$
=
 OpenBabel10232409573D

 34 39  0  0  1  0  0  0  0  0999 V2000
  183.1780  176.9290  137.8240 N   0  0  2  0  0  0  0  0  0  0  0  0
  182.1270  178.0250  135.8920 C   0  0  0  0  0  2  0  0  0  0  0  0
  182.7320  177.1630  134.7890 C   0  0  0  0  0  2  0  0  0  0  0  0
  181.9070  177.2090  137.1610 C   0  0  0  0  0  2  0  0  0  0  0  0
  183.8630  175.8190  137.1610 C   0  0  0  0  0  2  0  0  0  0  0  0
  184.2070  176.9620  134.9880 C   0  0  0  0  0  3  0  0  0  0  0  0
  184.7330  176.3410  136.0590 C   0  0  0  0  0  0  0  0  0  0  0  0
  179.9910  178.6770  142.2550 C   0  0  0  0  0  3  0  0  0  0  0  0
  182.4000  178.1190  141.0550 C   0  0  0  0  0  0  0  0  0  0  0  0
  183.5940  177.6490  140.3090 C   0  0  1  0  0  3  0  0  0  0  0  0
  181.2670  177.5050  140.6060 C   0  0  0  0  0  0  0  0  0  0  0  0
  182.3730  178.9860  142.1000 N   0  0  0  0  0  0  0  0  0  0  0  0
  181.1830  179.2790  142.7030 C   0  0  0  0  0  3  0  0  0  0  0  0
  180.0310  177.7680  141.1880 C   0  0  0  0  0  3  0  0  0  0  0  0
  181.5200  176.6130  139.5400 N   0  0  0  0  0  2  0  0  0  0  0  0
  182.9570  176.6640  139.2560 C   0  0  1  0  0  3  0  0  0  0  0  0
  184.3870  178.8110  139.7880 C   0  0  0  0  0  3  0  0  0  0  0  0
  185.0210  179.5170  140.5540 O   0  0  0  0  0  0  0  0  0  0  0  0
  186.2200  176.1670  136.1890 C   0  0  1  0  0  3  0  0  0  0  0  0
  187.2270  178.3530  137.1720 C   0  0  1  0  0  3  0  0  0  0  0  0
  187.1010  178.7230  135.8290 O   0  0  0  0  0  1  0  0  0  0  0  0
  186.7680  176.9020  137.4350 C   0  0  2  0  0  3  0  0  0  0  0  0
  188.9140  176.8500  136.1630 O   0  0  0  0  0  1  0  0  0  0  0  0
  188.2510  177.2400  137.3320 C   0  0  1  0  0  0  0  0  0  0  0  0
  189.0320  177.2330  138.6060 C   0  0  0  0  0  0  0  0  0  0  0  0
  190.5200  177.2990  140.9790 C   0  0  0  0  0  0  0  0  0  0  0  0
  188.4290  177.6370  139.8040 C   0  0  0  0  0  3  0  0  0  0  0  0
  190.3900  176.8850  138.5980 C   0  0  0  0  0  3  0  0  0  0  0  0
  189.1710  177.6650  140.9900 C   0  0  0  0  0  3  0  0  0  0  0  0
  191.1300  176.9130  139.7830 C   0  0  0  0  0  3  0  0  0  0  0  0
  191.2550  177.3250  142.1560 O   0  0  0  0  0  1  0  0  0  0  0  0
  185.6870  173.9760  135.1290 N   0  0  0  0  0  2  0  0  0  0  0  0
  186.6010  174.6760  136.0440 C   0  0  1  0  0  3  0  0  0  0  0  0
  187.0530  174.3160  134.7000 C   0  0  0  0  0  2  0  0  0  0  0  0
  1  4  1  6  0  0  0
  1 16  1  0  0  0  0
  2  4  1  0  0  0  0
  3  6  1  0  0  0  0
  3  2  1  0  0  0  0
  5  1  1  0  0  0  0
  6  7  2  0  0  0  0
  7  5  1  0  0  0  0
  8 13  1  0  0  0  0
  9 12  1  0  0  0  0
 10 17  1  6  0  0  0
 10  9  1  0  0  0  0
 11  9  2  0  0  0  0
 11 14  1  0  0  0  0
 12 13  2  0  0  0  0
 14  8  2  0  0  0  0
 15 11  1  0  0  0  0
 16 15  1  6  0  0  0
 16 10  1  0  0  0  0
 17 18  2  0  0  0  0
 19  7  1  1  0  0  0
 20 21  1  6  0  0  0
 20 24  1  0  0  0  0
 20 22  1  0  0  0  0
 22 19  1  6  0  0  0
 24 23  1  6  0  0  0
 24 22  1  0  0  0  0
 24 25  1  0  0  0  0
 25 27  1  0  0  0  0
 26 29  1  0  0  0  0
 26 31  1  0  0  0  0
 27 29  2  0  0  0  0
 28 25  2  0  0  0  0
 28 30  1  0  0  0  0
 30 26  2  0  0  0  0
 32 33  1  0  0  0  0
 33 19  1  6  0  0  0
 34 32  1  0  0  0  0
 34 33  1  0  0  0  0
M  END
>  <MODEL>
7

>  <REMARK>
 VINA RESULT:      -6.0      2.311      3.908
  Name = 
  6 active torsions:
  status: ('A' for Active; 'I' for Inactive)
    1  A    between atoms: C_1  and  C_32
    2  A    between atoms: N_2  and  C_33
    3  A    between atoms: C_9  and  C_19
    4  A    between atoms: C_10  and  C_29
    5  A    between atoms: C_26  and  C_29
    6  A    between atoms: C_29  and  C_34
                            x       y       z     vdW  Elec       q    Type
                         _______ _______ _______ _____ _____    ______ ____

>  <TORSDO>
F 6

$$$$
=
 OpenBabel10232409573D

 34 39  0  0  1  0  0  0  0  0999 V2000
  188.4750  178.1890  143.6560 N   0  0  2  0  0  0  0  0  0  0  0  0
  188.4950  177.9010  146.0950 C   0  0  0  0  0  2  0  0  0  0  0  0
  187.2210  177.0740  146.2340 C   0  0  0  0  0  2  0  0  0  0  0  0
  189.2000  177.5990  144.7770 C   0  0  0  0  0  2  0  0  0  0  0  0
  187.3270  177.3570  143.2970 C   0  0  0  0  0  2  0  0  0  0  0  0
  186.0940  177.6530  145.4280 C   0  0  0  0  0  3  0  0  0  0  0  0
  186.1250  177.7760  144.0890 C   0  0  0  0  0  0  0  0  0  0  0  0
  188.9100  177.1430  138.0370 C   0  0  0  0  0  3  0  0  0  0  0  0
  189.8550  177.0400  140.6160 C   0  0  0  0  0  0  0  0  0  0  0  0
  190.2720  177.1850  142.0340 C   0  0  1  0  0  3  0  0  0  0  0  0
  188.9500  178.0000  140.2700 C   0  0  0  0  0  0  0  0  0  0  0  0
  190.3210  176.1420  139.7100 N   0  0  0  0  0  0  0  0  0  0  0  0
  189.8570  176.1750  138.4260 C   0  0  0  0  0  3  0  0  0  0  0  0
  188.4470  178.0780  138.9750 C   0  0  0  0  0  3  0  0  0  0  0  0
  188.6270  178.8550  141.3470 N   0  0  0  0  0  2  0  0  0  0  0  0
  189.3840  178.3950  142.5150 C   0  0  1  0  0  3  0  0  0  0  0  0
  190.1320  175.8820  142.7640 C   0  0  0  0  0  3  0  0  0  0  0  0
  191.1130  175.3300  143.2330 O   0  0  0  0  0  0  0  0  0  0  0  0
  184.9560  178.3580  143.3450 C   0  0  1  0  0  3  0  0  0  0  0  0
  185.1480  178.5770  140.7620 C   0  0  1  0  0  3  0  0  0  0  0  0
  185.5470  179.8610  141.1480 O   0  0  0  0  0  1  0  0  0  0  0  0
  184.7740  177.6850  141.9650 C   0  0  2  0  0  3  0  0  0  0  0  0
  183.0090  179.4240  141.6730 O   0  0  0  0  0  1  0  0  0  0  0  0
  183.6890  178.3350  141.1150 C   0  0  1  0  0  0  0  0  0  0  0  0
  182.9220  177.4370  140.1990 C   0  0  0  0  0  0  0  0  0  0  0  0
  181.5050  175.6870  138.5330 C   0  0  0  0  0  0  0  0  0  0  0  0
  181.5520  177.2280  140.4000 C   0  0  0  0  0  3  0  0  0  0  0  0
  183.5840  176.7460  139.1740 C   0  0  0  0  0  3  0  0  0  0  0  0
  180.8440  176.3580  139.5650 C   0  0  0  0  0  3  0  0  0  0  0  0
  182.8760  175.8780  138.3390 C   0  0  0  0  0  3  0  0  0  0  0  0
  180.8010  174.8260  137.7030 O   0  0  0  0  0  1  0  0  0  0  0  0
  183.9520  179.2430  145.4470 N   0  0  0  0  0  2  0  0  0  0  0  0
  183.7110  178.4100  144.2580 C   0  0  1  0  0  3  0  0  0  0  0  0
  183.1070  179.7400  144.3490 C   0  0  0  0  0  2  0  0  0  0  0  0
  1  5  1  6  0  0  0
  1  4  1  0  0  0  0
  2  3  1  0  0  0  0
  4  2  1  0  0  0  0
  5  7  1  0  0  0  0
  6  3  1  0  0  0  0
  7  6  2  0  0  0  0
  8 13  2  0  0  0  0
  8 14  1  0  0  0  0
  9 10  1  0  0  0  0
 10 16  1  0  0  0  0
 10 17  1  1  0  0  0
 11  9  1  0  0  0  0
 11 15  1  0  0  0  0
 12  9  2  0  0  0  0
 13 12  1  0  0  0  0
 14 11  2  0  0  0  0
 16 15  1  6  0  0  0
 16  1  1  0  0  0  0
 17 18  2  0  0  0  0
 19  7  1  1  0  0  0
 20 24  1  0  0  0  0
 20 21  1  1  0  0  0
 20 22  1  0  0  0  0
 22 19  1  1  0  0  0
 24 23  1  1  0  0  0
 24 22  1  0  0  0  0
 25 27  1  0  0  0  0
 25 24  1  0  0  0  0
 26 29  1  0  0  0  0
 28 25  2  0  0  0  0
 29 27  2  0  0  0  0
 30 26  2  0  0  0  0
 30 28  1  0  0  0  0
 31 26  1  0  0  0  0
 33 19  1  6  0  0  0
 33 34  1  0  0  0  0
 33 32  1  0  0  0  0
 34 32  1  0  0  0  0
M  END
>  <MODEL>
8

>  <REMARK>
 VINA RESULT:      -6.0      3.200      8.367
  Name = 
  6 active torsions:
  status: ('A' for Active; 'I' for Inactive)
    1  A    between atoms: C_1  and  C_32
    2  A    between atoms: N_2  and  C_33
    3  A    between atoms: C_9  and  C_19
    4  A    between atoms: C_10  and  C_29
    5  A    between atoms: C_26  and  C_29
    6  A    between atoms: C_29  and  C_34
                            x       y       z     vdW  Elec       q    Type
                         _______ _______ _______ _____ _____    ______ ____

>  <TORSDO>
F 6

$$$$
=
 OpenBabel10232409573D

 34 39  0  0  1  0  0  0  0  0999 V2000
  189.6830  177.0810  140.3470 N   0  0  2  0  0  0  0  0  0  0  0  0
  191.7820  178.0220  141.2090 C   0  0  0  0  0  2  0  0  0  0  0  0
  191.5970  177.6720  142.6810 C   0  0  0  0  0  2  0  0  0  0  0  0
  191.1380  176.9690  140.3130 C   0  0  0  0  0  2  0  0  0  0  0  0
  189.1530  176.4560  141.5590 C   0  0  0  0  0  2  0  0  0  0  0  0
  190.2180  178.0160  143.1640 C   0  0  0  0  0  3  0  0  0  0  0  0
  189.0970  177.4610  142.6690 C   0  0  0  0  0  0  0  0  0  0  0  0
  191.1240  175.4320  135.0490 C   0  0  0  0  0  3  0  0  0  0  0  0
  189.5860  176.8610  136.8250 C   0  0  0  0  0  0  0  0  0  0  0  0
  188.7760  177.4560  137.9170 C   0  0  1  0  0  3  0  0  0  0  0  0
  190.2260  175.7330  137.2470 C   0  0  0  0  0  0  0  0  0  0  0  0
  189.6710  177.2880  135.5380 N   0  0  0  0  0  0  0  0  0  0  0  0
  190.4360  176.5930  134.6450 C   0  0  0  0  0  3  0  0  0  0  0  0
  191.0160  174.9880  136.3760 C   0  0  0  0  0  3  0  0  0  0  0  0
  189.9770  175.4430  138.6070 N   0  0  0  0  0  2  0  0  0  0  0  0
  189.1000  176.4980  139.1260 C   0  0  1  0  0  3  0  0  0  0  0  0
  189.0890  178.9140  138.0770 C   0  0  0  0  0  3  0  0  0  0  0  0
  188.5600  179.7410  137.3540 O   0  0  0  0  0  0  0  0  0  0  0  0
  187.7480  177.8470  143.2070 C   0  0  1  0  0  3  0  0  0  0  0  0
  186.7140  178.7820  141.0120 C   0  0  1  0  0  3  0  0  0  0  0  0
  187.7410  179.7100  141.2140 O   0  0  0  0  0  1  0  0  0  0  0  0
  186.6510  177.7140  142.1250 C   0  0  2  0  0  3  0  0  0  0  0  0
  185.8760  179.8950  143.0560 O   0  0  0  0  0  1  0  0  0  0  0  0
  185.6700  178.8820  142.1140 C   0  0  1  0  0  0  0  0  0  0  0  0
  184.2610  178.5730  141.7250 C   0  0  0  0  0  0  0  0  0  0  0  0
  181.6090  178.0740  140.9710 C   0  0  0  0  0  0  0  0  0  0  0  0
  183.9690  178.1250  140.4290 C   0  0  0  0  0  3  0  0  0  0  0  0
  183.2160  178.7910  142.6330 C   0  0  0  0  0  3  0  0  0  0  0  0
  182.6460  177.8720  140.0550 C   0  0  0  0  0  3  0  0  0  0  0  0
  181.8940  178.5370  142.2580 C   0  0  0  0  0  3  0  0  0  0  0  0
  180.2960  177.8190  140.5990 O   0  0  0  0  0  1  0  0  0  0  0  0
  187.7080  178.0420  145.6900 N   0  0  0  0  0  2  0  0  0  0  0  0
  187.4820  177.1370  144.5520 C   0  0  1  0  0  3  0  0  0  0  0  0
  186.3400  177.6810  145.2860 C   0  0  0  0  0  2  0  0  0  0  0  0
  1  4  1  6  0  0  0
  1  5  1  0  0  0  0
  2  3  1  0  0  0  0
  3  6  1  0  0  0  0
  4  2  1  0  0  0  0
  5  7  1  0  0  0  0
  7  6  2  0  0  0  0
  8 14  1  0  0  0  0
  9 11  1  0  0  0  0
  9 10  1  0  0  0  0
 10 17  1  1  0  0  0
 10 16  1  0  0  0  0
 11 15  1  0  0  0  0
 12  9  2  0  0  0  0
 13  8  2  0  0  0  0
 13 12  1  0  0  0  0
 14 11  2  0  0  0  0
 16 15  1  6  0  0  0
 16  1  1  0  0  0  0
 18 17  2  0  0  0  0
 19  7  1  6  0  0  0
 20 21  1  1  0  0  0
 20 24  1  0  0  0  0
 20 22  1  0  0  0  0
 22 19  1  1  0  0  0
 24 22  1  0  0  0  0
 24 23  1  1  0  0  0
 25 24  1  0  0  0  0
 25 28  1  0  0  0  0
 26 30  1  0  0  0  0
 27 25  2  0  0  0  0
 29 27  1  0  0  0  0
 29 26  2  0  0  0  0
 30 28  2  0  0  0  0
 31 26  1  0  0  0  0
 33 19  1  6  0  0  0
 33 34  1  0  0  0  0
 33 32  1  0  0  0  0
 34 32  1  0  0  0  0
M  END
>  <MODEL>
9

>  <REMARK>
 VINA RESULT:      -5.8      3.014      7.031
  Name = 
  6 active torsions:
  status: ('A' for Active; 'I' for Inactive)
    1  A    between atoms: C_1  and  C_32
    2  A    between atoms: N_2  and  C_33
    3  A    between atoms: C_9  and  C_19
    4  A    between atoms: C_10  and  C_29
    5  A    between atoms: C_26  and  C_29
    6  A    between atoms: C_29  and  C_34
                            x       y       z     vdW  Elec       q    Type
                         _______ _______ _______ _____ _____    ______ ____

>  <TORSDO>
F 6

$$$$
