=
 OpenBabel10232408043D

 46 48  0  0  1  0  0  0  0  0999 V2000
  184.2270  178.3950  140.7200 C   0  0  0  0  0  0  0  0  0  0  0  0
  188.2940  174.0660  135.7280 C   0  0  2  0  0  3  0  0  0  0  0  0
  183.7250  175.8720  135.9500 C   0  0  0  0  0  2  0  0  0  0  0  0
  186.4730  172.5830  135.2890 O   0  0  0  0  0  0  0  0  0  0  0  0
  185.8920  174.7890  135.7940 N   0  0  0  0  0  2  0  0  0  0  0  0
  184.8650  178.0540  141.9160 O   0  0  0  0  0  0  0  0  0  0  0  0
  183.3570  178.0710  137.5180 S   0  0  0  0  0  0  0  0  0  0  0  0
  184.4570  174.5570  135.7480 C   0  0  0  0  0  2  0  0  0  0  0  0
  187.1840  178.5240  140.2770 N   0  0  0  0  0  0  0  0  0  0  0  0
  183.2490  177.4980  140.1800 N   0  0  0  0  0  2  0  0  0  0  0  0
  184.4690  179.4960  140.1490 O   0  0  0  0  0  0  0  0  0  0  0  0
  182.3780  177.7960  139.0410 C   0  0  1  0  0  3  0  0  0  0  0  0
  190.2130  177.0830  139.1580 C   0  0  2  0  0  3  0  0  0  0  0  0
  191.0630  173.4680  135.8610 N   0  0  0  0  0  0  0  0  0  0  0  0
  186.0340  178.6590  142.4000 C   0  0  0  0  0  2  0  0  0  0  0  0
  186.8460  173.7510  135.5800 C   0  0  0  0  0  0  0  0  0  0  0  0
  188.3650  178.5420  139.6130 O   0  0  0  0  0  0  0  0  0  0  0  0
  183.8480  176.3280  137.3920 C   0  0  0  0  0  2  0  0  0  0  0  0
  188.7500  177.2010  139.5550 C   0  0  0  0  0  2  0  0  0  0  0  0
  190.3580  173.8350  137.0990 C   0  0  2  0  0  3  0  0  0  0  0  0
  190.4990  175.7070  138.7830 N   0  0  0  0  0  2  0  0  0  0  0  0
  190.4720  173.3620  134.7060 C   0  0  0  0  0  3  0  0  0  0  0  0
  189.0610  173.5800  134.5840 N   0  0  0  0  0  2  0  0  0  0  0  0
  187.1190  178.8890  141.6560 C   0  0  0  0  0  3  0  0  0  0  0  0
  188.8640  173.4890  137.0180 C   0  0  0  0  0  2  0  0  0  0  0  0
  190.5360  175.2890  137.4190 C   0  0  0  0  0  0  0  0  0  0  0  0
  190.6450  176.1420  136.4950 O   0  0  0  0  0  0  0  0  0  0  0  0
  181.4210  178.9250  139.3480 C   0  0  0  0  0  0  0  0  0  0  0  0
  180.4560  179.0950  141.7010 O   0  0  0  0  0  0  0  0  0  0  0  0
  180.9250  179.0120  140.5560 C   0  0  0  0  0  0  0  0  0  0  0  0
  180.6600  179.5890  138.2320 C   0  0  0  0  0  2  0  0  0  0  0  0
  179.9820  181.8660  139.0750 C   0  0  0  0  0  1  0  0  0  0  0  0
  180.6390  181.5900  136.7010 C   0  0  0  0  0  1  0  0  0  0  0  0
  182.1990  181.3710  138.4470 F   0  0  0  0  0  0  0  0  0  0  0  0
  180.8830  181.1030  138.1180 C   0  0  0  0  0  0  0  0  0  0  0  0
  191.3190  177.6170  140.5130 S   0  0  0  0  0  0  0  0  0  0  0  0
  190.4910  177.2420  143.0840 C   0  0  0  0  0  3  0  0  0  0  0  0
  190.3950  176.8110  141.8280 C   0  0  0  0  0  3  0  0  0  0  0  0
  189.7180  176.5820  144.1850 C   0  0  1  0  0  3  0  0  0  0  0  0
  191.6950  177.6220  145.4270 C   0  0  0  0  0  2  0  0  0  0  0  0
  190.4540  176.7540  145.5340 C   0  0  0  0  0  3  0  0  0  0  0  0
  191.8310  176.1130  145.5470 C   0  0  0  0  0  2  0  0  0  0  0  0
  188.2540  177.0380  144.1600 C   0  0  0  0  0  2  0  0  0  0  0  0
  187.8330  177.6420  145.4910 C   0  0  0  0  0  2  0  0  0  0  0  0
  186.4830  177.3930  145.7300 O   0  0  0  0  0  0  0  0  0  0  0  0
  185.9790  178.6200  146.1670 C   0  0  0  0  0  1  0  0  0  0  0  0
  1  6  1  0  0  0  0
  2 25  1  1  0  0  0
  3 18  1  0  0  0  0
  4 16  2  0  0  0  0
  6 15  1  0  0  0  0
  7 12  1  0  0  0  0
  8  5  1  0  0  0  0
  8  3  1  0  0  0  0
  9 24  2  0  0  0  0
 10  1  1  0  0  0  0
 11  1  2  0  0  0  0
 12 28  1  1  0  0  0
 12 10  1  0  0  0  0
 13 19  1  0  0  0  0
 13 36  1  1  0  0  0
 14 20  1  0  0  0  0
 16  2  1  0  0  0  0
 16  5  1  0  0  0  0
 17  9  1  0  0  0  0
 18  7  1  0  0  0  0
 19 17  1  0  0  0  0
 20 25  1  6  0  0  0
 20 26  1  0  0  0  0
 21 13  1  0  0  0  0
 22 14  2  0  0  0  0
 23 22  1  0  0  0  0
 23  2  1  0  0  0  0
 24 15  1  0  0  0  0
 26 21  1  0  0  0  0
 27 26  2  0  0  0  0
 28 30  2  0  0  0  0
 30 29  2  0  0  0  0
 31 28  1  0  0  0  0
 33 35  1  0  0  0  0
 35 31  1  0  0  0  0
 35 34  1  0  0  0  0
 35 32  1  0  0  0  0
 36 38  1  0  0  0  0
 38 37  2  0  0  0  0
 39 37  1  6  0  0  0
 39 41  1  0  0  0  0
 40 41  1  0  0  0  0
 40 42  1  0  0  0  0
 41 42  1  0  0  0  0
 43 39  1  0  0  0  0
 43 44  1  0  0  0  0
 44 45  1  0  0  0  0
 45 46  1  0  0  0  0
M  END
>  <MODEL>
1

>  <REMARK>
 VINA RESULT:      -8.0      0.000      0.000
  Name = 
  10 active torsions:
  status: ('A' for Active; 'I' for Inactive)
    1  A    between atoms: C_4  and  C_32
    2  A    between atoms: O_11  and  C_26
    3  A    between atoms: C_13  and  C_32
    4  A    between atoms: C_14  and  S_16
    5  A    between atoms: S_16  and  C_23
    6  A    between atoms: C_19  and  C_20
    7  A    between atoms: C_19  and  C_25
    8  A    between atoms: C_25  and  C_38
    9  A    between atoms: C_26  and  C_36
   10  A    between atoms: C_32  and  C_36
                            x       y       z     vdW  Elec       q    Type
                         _______ _______ _______ _____ _____    ______ ____

>  <TORSDO>
F 10

$$$$
=
 OpenBabel10232408043D

 46 48  0  0  1  0  0  0  0  0999 V2000
  188.5930  176.8590  143.5010 C   0  0  0  0  0  0  0  0  0  0  0  0
  184.0200  177.2910  137.2480 C   0  0  2  0  0  3  0  0  0  0  0  0
  183.5870  178.3330  142.0350 C   0  0  0  0  0  2  0  0  0  0  0  0
  182.0940  176.4830  138.4070 O   0  0  0  0  0  0  0  0  0  0  0  0
  183.6150  177.7110  139.6880 N   0  0  0  0  0  2  0  0  0  0  0  0
  189.4230  175.8000  143.1240 O   0  0  0  0  0  0  0  0  0  0  0  0
  185.9010  178.8230  143.3900 S   0  0  0  0  0  0  0  0  0  0  0  0
  182.8930  177.5420  140.9400 C   0  0  0  0  0  2  0  0  0  0  0  0
  189.4950  177.3280  140.6860 N   0  0  0  0  0  0  0  0  0  0  0  0
  187.2900  176.5630  144.0180 N   0  0  0  0  0  2  0  0  0  0  0  0
  188.9990  178.0530  143.4350 O   0  0  0  0  0  0  0  0  0  0  0  0
  186.3820  177.5470  144.6120 C   0  0  1  0  0  3  0  0  0  0  0  0
  188.9720  177.1350  137.1940 C   0  0  2  0  0  3  0  0  0  0  0  0
  184.7770  176.8330  134.5530 N   0  0  0  0  0  0  0  0  0  0  0  0
  190.5750  175.9280  142.3350 C   0  0  0  0  0  2  0  0  0  0  0  0
  183.1730  177.1330  138.4620 C   0  0  0  0  0  0  0  0  0  0  0  0
  189.5060  177.8280  139.4270 O   0  0  0  0  0  0  0  0  0  0  0  0
  184.8950  177.6650  142.4190 C   0  0  0  0  0  2  0  0  0  0  0  0
  188.7610  176.9110  138.6830 C   0  0  0  0  0  2  0  0  0  0  0  0
  185.5770  176.2240  135.6270 C   0  0  2  0  0  3  0  0  0  0  0  0
  187.9540  176.4090  136.4500 N   0  0  0  0  0  2  0  0  0  0  0  0
  183.7080  177.5430  134.7730 C   0  0  0  0  0  3  0  0  0  0  0  0
  183.2310  177.7520  136.1080 N   0  0  0  0  0  2  0  0  0  0  0  0
  190.6310  176.6340  141.2030 C   0  0  0  0  0  3  0  0  0  0  0  0
  184.7390  175.9950  136.8920 C   0  0  0  0  0  2  0  0  0  0  0  0
  186.7830  177.0540  135.9480 C   0  0  0  0  0  0  0  0  0  0  0  0
  186.7430  178.3120  135.8470 O   0  0  0  0  0  0  0  0  0  0  0  0
  186.9440  178.1250  145.8910 C   0  0  0  0  0  0  0  0  0  0  0  0
  185.4920  179.7240  147.2440 O   0  0  0  0  0  0  0  0  0  0  0  0
  186.1990  178.9470  146.5860 C   0  0  0  0  0  0  0  0  0  0  0  0
  188.4340  178.1960  146.0900 C   0  0  0  0  0  2  0  0  0  0  0  0
  189.1180  178.3400  148.5130 C   0  0  0  0  0  1  0  0  0  0  0  0
  190.2780  176.7450  147.0110 C   0  0  0  0  0  1  0  0  0  0  0  0
  188.0280  176.4480  147.6290 F   0  0  0  0  0  0  0  0  0  0  0  0
  188.9530  177.4240  147.3120 C   0  0  0  0  0  0  0  0  0  0  0  0
  190.6420  176.6070  136.6680 S   0  0  0  0  0  0  0  0  0  0  0  0
  190.6750  174.4130  135.0500 C   0  0  0  0  0  3  0  0  0  0  0  0
  190.1540  174.9570  136.1480 C   0  0  0  0  0  3  0  0  0  0  0  0
  190.2800  173.0350  134.6130 C   0  0  1  0  0  3  0  0  0  0  0  0
  192.4700  172.1450  135.5850 C   0  0  0  0  0  2  0  0  0  0  0  0
  191.5360  172.1630  134.3870 C   0  0  0  0  0  3  0  0  0  0  0  0
  192.8230  172.9700  134.3580 C   0  0  0  0  0  2  0  0  0  0  0  0
  189.2250  172.4530  135.5620 C   0  0  0  0  0  2  0  0  0  0  0  0
  187.8790  172.2920  134.8730 C   0  0  0  0  0  2  0  0  0  0  0  0
  186.8950  173.0020  135.5590 O   0  0  0  0  0  0  0  0  0  0  0  0
  187.2020  172.8020  136.9060 C   0  0  0  0  0  1  0  0  0  0  0  0
  1 10  1  0  0  0  0
  2 25  1  6  0  0  0
  2 16  1  0  0  0  0
  3 18  1  0  0  0  0
  4 16  2  0  0  0  0
  5  8  1  0  0  0  0
  6  1  1  0  0  0  0
  7 12  1  0  0  0  0
  8  3  1  0  0  0  0
  9 24  2  0  0  0  0
 10 12  1  0  0  0  0
 11  1  2  0  0  0  0
 12 28  1  1  0  0  0
 13 36  1  6  0  0  0
 13 19  1  0  0  0  0
 14 22  2  0  0  0  0
 14 20  1  0  0  0  0
 15  6  1  0  0  0  0
 16  5  1  0  0  0  0
 17  9  1  0  0  0  0
 18  7  1  0  0  0  0
 19 17  1  0  0  0  0
 20 26  1  0  0  0  0
 20 25  1  1  0  0  0
 21 13  1  0  0  0  0
 22 23  1  0  0  0  0
 23  2  1  0  0  0  0
 24 15  1  0  0  0  0
 26 21  1  0  0  0  0
 27 26  2  0  0  0  0
 28 31  1  0  0  0  0
 28 30  2  0  0  0  0
 30 29  2  0  0  0  0
 31 35  1  0  0  0  0
 33 35  1  0  0  0  0
 35 34  1  0  0  0  0
 35 32  1  0  0  0  0
 37 38  2  0  0  0  0
 38 36  1  0  0  0  0
 39 37  1  1  0  0  0
 39 43  1  0  0  0  0
 41 39  1  0  0  0  0
 41 40  1  0  0  0  0
 42 41  1  0  0  0  0
 42 40  1  0  0  0  0
 44 45  1  0  0  0  0
 44 43  1  0  0  0  0
 45 46  1  0  0  0  0
M  END
>  <MODEL>
2

>  <REMARK>
 VINA RESULT:      -6.7      3.284      8.003
  Name = 
  10 active torsions:
  status: ('A' for Active; 'I' for Inactive)
    1  A    between atoms: C_4  and  C_32
    2  A    between atoms: O_11  and  C_26
    3  A    between atoms: C_13  and  C_32
    4  A    between atoms: C_14  and  S_16
    5  A    between atoms: S_16  and  C_23
    6  A    between atoms: C_19  and  C_20
    7  A    between atoms: C_19  and  C_25
    8  A    between atoms: C_25  and  C_38
    9  A    between atoms: C_26  and  C_36
   10  A    between atoms: C_32  and  C_36
                            x       y       z     vdW  Elec       q    Type
                         _______ _______ _______ _____ _____    ______ ____

>  <TORSDO>
F 10

$$$$
=
 OpenBabel10232408043D

 46 48  0  0  1  0  0  0  0  0999 V2000
  188.7960  176.4440  137.7860 C   0  0  0  0  0  0  0  0  0  0  0  0
  187.1920  178.1320  145.1870 C   0  0  2  0  0  3  0  0  0  0  0  0
  191.2450  177.2010  142.5610 C   0  0  0  0  0  2  0  0  0  0  0  0
  188.7540  176.5450  146.0500 O   0  0  0  0  0  0  0  0  0  0  0  0
  189.3150  177.5150  144.0000 N   0  0  0  0  0  2  0  0  0  0  0  0
  187.6050  175.8130  137.4150 O   0  0  0  0  0  0  0  0  0  0  0  0
  191.0910  177.6560  139.8780 S   0  0  0  0  0  0  0  0  0  0  0  0
  190.5320  176.7390  143.8200 C   0  0  0  0  0  2  0  0  0  0  0  0
  186.5090  178.1110  138.7580 N   0  0  0  0  0  2  0  0  0  0  0  0
  189.7730  175.6950  138.5190 N   0  0  0  0  0  2  0  0  0  0  0  0
  189.0320  177.6360  137.4390 O   0  0  0  0  0  0  0  0  0  0  0  0
  191.1290  176.1600  138.8230 C   0  0  1  0  0  3  0  0  0  0  0  0
  184.2720  179.1140  141.3060 C   0  0  2  0  0  3  0  0  0  0  0  0
  184.6730  178.8860  146.2510 N   0  0  0  0  0  0  0  0  0  0  0  0
  186.4520  176.4780  136.9750 C   0  0  0  0  0  3  0  0  0  0  0  0
  188.4580  177.3500  145.1280 C   0  0  0  0  0  0  0  0  0  0  0  0
  185.8330  179.0310  139.4880 O   0  0  0  0  0  0  0  0  0  0  0  0
  190.4850  176.7470  141.3280 C   0  0  0  0  0  2  0  0  0  0  0  0
  185.3410  178.3140  140.5800 C   0  0  0  0  0  2  0  0  0  0  0  0
  184.7110  178.1170  144.9970 C   0  0  2  0  0  3  0  0  0  0  0  0
  184.0170  178.5090  142.6040 N   0  0  0  0  0  2  0  0  0  0  0  0
  185.7400  179.2070  146.9250 C   0  0  0  0  0  3  0  0  0  0  0  0
  187.0380  178.7940  146.4800 N   0  0  0  0  0  2  0  0  0  0  0  0
  185.9280  177.5470  137.5810 C   0  0  0  0  0  3  0  0  0  0  0  0
  185.9780  177.2550  144.9040 C   0  0  0  0  0  2  0  0  0  0  0  0
  184.6070  179.0150  143.8010 C   0  0  0  0  0  0  0  0  0  0  0  0
  185.0980  180.1780  143.8270 O   0  0  0  0  0  0  0  0  0  0  0  0
  191.9540  176.3330  137.5690 C   0  0  0  0  0  0  0  0  0  0  0  0
  190.9040  175.7280  135.3270 O   0  0  0  0  0  0  0  0  0  0  0  0
  191.4160  176.0220  136.4180 C   0  0  0  0  0  0  0  0  0  0  0  0
  193.4570  176.3420  137.6560 C   0  0  0  0  0  2  0  0  0  0  0  0
  195.0970  174.7720  138.7520 C   0  0  0  0  0  1  0  0  0  0  0  0
  194.8180  174.7190  136.2900 C   0  0  0  0  0  1  0  0  0  0  0  0
  193.1120  174.0050  137.7420 F   0  0  0  0  0  0  0  0  0  0  0  0
  194.1090  174.9520  137.6120 C   0  0  0  0  0  0  0  0  0  0  0  0
  182.7270  179.2060  140.3320 S   0  0  0  0  0  0  0  0  0  0  0  0
  181.9260  177.0010  138.9420 C   0  0  0  0  0  3  0  0  0  0  0  0
  182.6320  177.4450  139.9800 C   0  0  0  0  0  3  0  0  0  0  0  0
  181.8480  175.5360  138.6360 C   0  0  1  0  0  3  0  0  0  0  0  0
  180.2220  173.5950  138.2900 C   0  0  0  0  0  2  0  0  0  0  0  0
  180.3720  175.0840  138.5490 C   0  0  0  0  0  3  0  0  0  0  0  0
  179.9820  174.5890  137.1660 C   0  0  0  0  0  2  0  0  0  0  0  0
  182.7240  175.1950  137.4240 C   0  0  0  0  0  2  0  0  0  0  0  0
  183.7940  174.1730  137.7750 C   0  0  0  0  0  2  0  0  0  0  0  0
  183.5990  172.9980  137.0530 O   0  0  0  0  0  0  0  0  0  0  0  0
  184.4930  173.0980  135.9850 C   0  0  0  0  0  1  0  0  0  0  0  0
  1 10  1  0  0  0  0
  2 25  1  1  0  0  0
  2 23  1  0  0  0  0
  3  8  1  0  0  0  0
  5 16  1  0  0  0  0
  6  1  1  0  0  0  0
  7 18  1  0  0  0  0
  8  5  1  0  0  0  0
  9 17  1  0  0  0  0
 10 12  1  0  0  0  0
 11  1  2  0  0  0  0
 12 28  1  6  0  0  0
 12  7  1  0  0  0  0
 13 36  1  6  0  0  0
 13 21  1  0  0  0  0
 14 22  2  0  0  0  0
 15  6  1  0  0  0  0
 15 24  2  0  0  0  0
 16  2  1  0  0  0  0
 16  4  2  0  0  0  0
 17 19  1  0  0  0  0
 18  3  1  0  0  0  0
 19 13  1  0  0  0  0
 20 25  1  6  0  0  0
 20 14  1  0  0  0  0
 21 26  1  0  0  0  0
 23 22  1  0  0  0  0
 24  9  1  0  0  0  0
 26 27  2  0  0  0  0
 26 20  1  0  0  0  0
 28 31  1  0  0  0  0
 29 30  2  0  0  0  0
 30 28  2  0  0  0  0
 33 35  1  0  0  0  0
 35 31  1  0  0  0  0
 35 34  1  0  0  0  0
 35 32  1  0  0  0  0
 37 38  2  0  0  0  0
 38 36  1  0  0  0  0
 39 43  1  6  0  0  0
 39 37  1  0  0  0  0
 40 41  1  0  0  0  0
 41 39  1  0  0  0  0
 42 40  1  0  0  0  0
 42 41  1  0  0  0  0
 43 44  1  0  0  0  0
 45 44  1  0  0  0  0
 46 45  1  0  0  0  0
M  END
>  <MODEL>
3

>  <REMARK>
 VINA RESULT:      -6.7      3.339     10.354
  Name = 
  10 active torsions:
  status: ('A' for Active; 'I' for Inactive)
    1  A    between atoms: C_4  and  C_32
    2  A    between atoms: O_11  and  C_26
    3  A    between atoms: C_13  and  C_32
    4  A    between atoms: C_14  and  S_16
    5  A    between atoms: S_16  and  C_23
    6  A    between atoms: C_19  and  C_20
    7  A    between atoms: C_19  and  C_25
    8  A    between atoms: C_25  and  C_38
    9  A    between atoms: C_26  and  C_36
   10  A    between atoms: C_32  and  C_36
                            x       y       z     vdW  Elec       q    Type
                         _______ _______ _______ _____ _____    ______ ____

>  <TORSDO>
F 10

$$$$
=
 OpenBabel10232408043D

 46 48  0  0  1  0  0  0  0  0999 V2000
  186.3530  178.4900  144.8530 C   0  0  0  0  0  0  0  0  0  0  0  0
  187.7880  177.1980  137.3390 C   0  0  2  0  0  3  0  0  0  0  0  0
  190.1540  176.4350  141.5820 C   0  0  0  0  0  2  0  0  0  0  0  0
  190.0700  177.8850  137.4960 O   0  0  0  0  0  0  0  0  0  0  0  0
  189.1680  176.9010  139.4130 N   0  0  0  0  0  2  0  0  0  0  0  0
  185.5080  179.6000  144.7540 O   0  0  0  0  0  0  0  0  0  0  0  0
  188.6130  176.2660  143.8250 S   0  0  0  0  0  0  0  0  0  0  0  0
  190.3630  177.0790  140.2230 C   0  0  0  0  0  2  0  0  0  0  0  0
  184.3100  177.9300  142.7390 N   0  0  0  0  0  0  0  0  0  0  0  0
  187.7670  178.6880  144.7440 N   0  0  0  0  0  2  0  0  0  0  0  0
  185.8850  177.3400  145.0850 O   0  0  0  0  0  0  0  0  0  0  0  0
  188.7790  177.6610  144.9990 C   0  0  1  0  0  3  0  0  0  0  0  0
  183.3060  177.8410  139.3500 C   0  0  2  0  0  3  0  0  0  0  0  0
  185.9850  177.5520  135.1780 N   0  0  0  0  0  0  0  0  0  0  0  0
  184.1250  179.5340  144.5380 C   0  0  0  0  0  2  0  0  0  0  0  0
  189.0800  177.3510  138.0630 C   0  0  0  0  0  0  0  0  0  0  0  0
  183.7320  177.3510  141.6590 O   0  0  0  0  0  0  0  0  0  0  0  0
  189.1790  177.2530  142.4090 C   0  0  0  0  0  2  0  0  0  0  0  0
  184.1450  178.1390  140.5820 C   0  0  0  0  0  2  0  0  0  0  0  0
  185.7580  178.3060  136.4210 C   0  0  2  0  0  3  0  0  0  0  0  0
  183.9520  178.4110  138.1790 N   0  0  0  0  0  2  0  0  0  0  0  0
  186.9990  176.7550  135.0010 C   0  0  0  0  0  3  0  0  0  0  0  0
  187.9860  176.5880  136.0260 N   0  0  0  0  0  2  0  0  0  0  0  0
  183.5480  178.7650  143.6120 C   0  0  0  0  0  3  0  0  0  0  0  0
  187.0680  178.5330  137.1880 C   0  0  0  0  0  2  0  0  0  0  0  0
  184.7550  177.6220  137.3010 C   0  0  0  0  0  0  0  0  0  0  0  0
  184.6690  176.3630  137.3190 O   0  0  0  0  0  0  0  0  0  0  0  0
  188.7810  177.2260  146.4470 C   0  0  0  0  0  0  0  0  0  0  0  0
  187.8350  178.8190  148.1970 O   0  0  0  0  0  0  0  0  0  0  0  0
  188.2960  178.0440  147.3460 C   0  0  0  0  0  0  0  0  0  0  0  0
  189.7510  176.1730  146.9130 C   0  0  0  0  0  2  0  0  0  0  0  0
  191.7560  176.3530  145.3940 C   0  0  0  0  0  1  0  0  0  0  0  0
  192.0840  175.7930  147.7870 C   0  0  0  0  0  1  0  0  0  0  0  0
  191.3370  177.9160  147.1070 F   0  0  0  0  0  0  0  0  0  0  0  0
  191.2300  176.5720  146.8030 C   0  0  0  0  0  0  0  0  0  0  0  0
  181.6070  178.4960  139.5220 S   0  0  0  0  0  0  0  0  0  0  0  0
  180.8010  180.5040  137.8640 C   0  0  0  0  0  3  0  0  0  0  0  0
  181.8460  179.9040  138.4300 C   0  0  0  0  0  3  0  0  0  0  0  0
  180.9900  181.6840  136.9590 C   0  0  1  0  0  3  0  0  0  0  0  0
  180.1720  180.0640  135.1590 C   0  0  0  0  0  2  0  0  0  0  0  0
  180.1750  181.4980  135.6580 C   0  0  0  0  0  3  0  0  0  0  0  0
  181.0340  181.1080  134.4680 C   0  0  0  0  0  2  0  0  0  0  0  0
  180.7410  182.9900  137.7220 C   0  0  0  0  0  2  0  0  0  0  0  0
  181.7600  184.0580  137.3530 C   0  0  0  0  0  2  0  0  0  0  0  0
  181.1720  185.0340  136.5510 O   0  0  0  0  0  0  0  0  0  0  0  0
  179.9930  185.3660  137.2230 C   0  0  0  0  0  1  0  0  0  0  0  0
  1 11  2  0  0  0  0
  2 25  1  6  0  0  0
  2 16  1  0  0  0  0
  3 18  1  0  0  0  0
  4 16  2  0  0  0  0
  5  8  1  0  0  0  0
  6  1  1  0  0  0  0
  7 12  1  0  0  0  0
  8  3  1  0  0  0  0
  9 24  2  0  0  0  0
 10  1  1  0  0  0  0
 10 12  1  0  0  0  0
 12 28  1  1  0  0  0
 13 36  1  1  0  0  0
 13 19  1  0  0  0  0
 14 20  1  0  0  0  0
 15  6  1  0  0  0  0
 16  5  1  0  0  0  0
 17  9  1  0  0  0  0
 18  7  1  0  0  0  0
 19 17  1  0  0  0  0
 20 25  1  1  0  0  0
 20 26  1  0  0  0  0
 21 13  1  0  0  0  0
 22 14  2  0  0  0  0
 22 23  1  0  0  0  0
 23  2  1  0  0  0  0
 24 15  1  0  0  0  0
 26 27  2  0  0  0  0
 26 21  1  0  0  0  0
 28 31  1  0  0  0  0
 28 30  2  0  0  0  0
 30 29  2  0  0  0  0
 32 35  1  0  0  0  0
 35 31  1  0  0  0  0
 35 34  1  0  0  0  0
 35 33  1  0  0  0  0
 37 38  2  0  0  0  0
 38 36  1  0  0  0  0
 39 43  1  1  0  0  0
 39 37  1  0  0  0  0
 40 41  1  0  0  0  0
 41 39  1  0  0  0  0
 42 40  1  0  0  0  0
 42 41  1  0  0  0  0
 44 43  1  0  0  0  0
 45 46  1  0  0  0  0
 45 44  1  0  0  0  0
M  END
>  <MODEL>
4

>  <REMARK>
 VINA RESULT:      -6.6      3.173      9.478
  Name = 
  10 active torsions:
  status: ('A' for Active; 'I' for Inactive)
    1  A    between atoms: C_4  and  C_32
    2  A    between atoms: O_11  and  C_26
    3  A    between atoms: C_13  and  C_32
    4  A    between atoms: C_14  and  S_16
    5  A    between atoms: S_16  and  C_23
    6  A    between atoms: C_19  and  C_20
    7  A    between atoms: C_19  and  C_25
    8  A    between atoms: C_25  and  C_38
    9  A    between atoms: C_26  and  C_36
   10  A    between atoms: C_32  and  C_36
                            x       y       z     vdW  Elec       q    Type
                         _______ _______ _______ _____ _____    ______ ____

>  <TORSDO>
F 10

$$$$
=
 OpenBabel10232408043D

 46 48  0  0  1  0  0  0  0  0999 V2000
  188.7230  176.8540  144.0720 C   0  0  0  0  0  0  0  0  0  0  0  0
  182.0260  179.1930  140.9300 C   0  0  2  0  0  3  0  0  0  0  0  0
  183.9170  178.9380  145.4620 C   0  0  0  0  0  2  0  0  0  0  0  0
  180.6940  178.2110  142.6530 O   0  0  0  0  0  0  0  0  0  0  0  0
  182.8080  178.9660  143.3030 N   0  0  0  0  0  2  0  0  0  0  0  0
  189.1090  175.8900  143.1360 O   0  0  0  0  0  0  0  0  0  0  0  0
  186.6370  178.9200  145.6500 S   0  0  0  0  0  0  0  0  0  0  0  0
  182.6890  178.5080  144.6790 C   0  0  0  0  0  2  0  0  0  0  0  0
  188.3680  178.0080  141.3340 N   0  0  0  0  0  0  0  0  0  0  0  0
  187.7480  176.5020  145.0610 N   0  0  0  0  0  2  0  0  0  0  0  0
  189.2580  177.9980  144.0800 O   0  0  0  0  0  0  0  0  0  0  0  0
  187.3760  177.3390  146.2040 C   0  0  1  0  0  3  0  0  0  0  0  0
  186.3470  178.7850  138.5390 C   0  0  2  0  0  3  0  0  0  0  0  0
  181.4360  179.4310  138.1660 N   0  0  0  0  0  0  0  0  0  0  0  0
  189.8030  176.1620  141.9480 C   0  0  0  0  0  2  0  0  0  0  0  0
  181.7820  178.7620  142.3340 C   0  0  0  0  0  0  0  0  0  0  0  0
  187.9140  178.8260  140.3540 O   0  0  0  0  0  0  0  0  0  0  0  0
  185.1240  178.1210  145.0400 C   0  0  0  0  0  2  0  0  0  0  0  0
  186.7730  178.1840  139.8680 C   0  0  0  0  0  2  0  0  0  0  0  0
  182.5080  178.5140  138.5850 C   0  0  2  0  0  3  0  0  0  0  0  0
  184.9980  178.3420  138.2220 N   0  0  0  0  0  2  0  0  0  0  0  0
  180.7120  180.1150  139.0040 C   0  0  0  0  0  3  0  0  0  0  0  0
  180.9100  179.9840  140.4170 N   0  0  0  0  0  2  0  0  0  0  0  0
  189.4790  177.1410  141.1000 C   0  0  0  0  0  3  0  0  0  0  0  0
  182.2820  178.0020  140.0140 C   0  0  0  0  0  2  0  0  0  0  0  0
  183.8560  179.1610  138.4740 C   0  0  0  0  0  0  0  0  0  0  0  0
  183.9920  180.4000  138.6720 O   0  0  0  0  0  0  0  0  0  0  0  0
  188.5310  177.5230  147.1620 C   0  0  0  0  0  0  0  0  0  0  0  0
  188.0430  178.4160  149.4990 O   0  0  0  0  0  0  0  0  0  0  0  0
  188.2810  177.9820  148.3620 C   0  0  0  0  0  0  0  0  0  0  0  0
  189.9290  177.6890  146.6290 C   0  0  0  0  0  2  0  0  0  0  0  0
  191.7900  177.0400  148.2020 C   0  0  0  0  0  1  0  0  0  0  0  0
  191.7840  176.1530  145.8880 C   0  0  0  0  0  1  0  0  0  0  0  0
  190.1730  175.4920  147.4680 F   0  0  0  0  0  0  0  0  0  0  0  0
  190.9090  176.5840  147.0510 C   0  0  0  0  0  0  0  0  0  0  0  0
  187.5000  178.3270  137.1960 S   0  0  0  0  0  0  0  0  0  0  0  0
  187.4090  175.6120  136.9670 C   0  0  0  0  0  3  0  0  0  0  0  0
  186.7270  176.7470  136.8270 C   0  0  0  0  0  3  0  0  0  0  0  0
  186.7700  174.2900  136.6690 C   0  0  1  0  0  3  0  0  0  0  0  0
  189.1980  173.5500  136.9710 C   0  0  0  0  0  2  0  0  0  0  0  0
  187.7380  173.1350  137.0190 C   0  0  0  0  0  3  0  0  0  0  0  0
  188.6080  172.7120  135.8480 C   0  0  0  0  0  2  0  0  0  0  0  0
  185.3780  174.2110  137.3080 C   0  0  0  0  0  2  0  0  0  0  0  0
  185.0310  172.7890  137.7210 C   0  0  0  0  0  2  0  0  0  0  0  0
  183.8570  172.3740  137.0940 O   0  0  0  0  0  0  0  0  0  0  0  0
  184.2780  171.3990  136.1870 C   0  0  0  0  0  1  0  0  0  0  0  0
  1 11  2  0  0  0  0
  1 10  1  0  0  0  0
  2 25  1  6  0  0  0
  2 16  1  0  0  0  0
  5  8  1  0  0  0  0
  6  1  1  0  0  0  0
  7 12  1  0  0  0  0
  8  3  1  0  0  0  0
 10 12  1  0  0  0  0
 12 28  1  6  0  0  0
 13 36  1  6  0  0  0
 13 19  1  0  0  0  0
 14 20  1  0  0  0  0
 14 22  2  0  0  0  0
 15  6  1  0  0  0  0
 16  4  2  0  0  0  0
 16  5  1  0  0  0  0
 17  9  1  0  0  0  0
 18  3  1  0  0  0  0
 18  7  1  0  0  0  0
 19 17  1  0  0  0  0
 20 25  1  1  0  0  0
 21 26  1  0  0  0  0
 21 13  1  0  0  0  0
 22 23  1  0  0  0  0
 23  2  1  0  0  0  0
 24  9  2  0  0  0  0
 24 15  1  0  0  0  0
 26 20  1  0  0  0  0
 26 27  2  0  0  0  0
 28 30  2  0  0  0  0
 30 29  2  0  0  0  0
 31 35  1  0  0  0  0
 31 28  1  0  0  0  0
 33 35  1  0  0  0  0
 35 34  1  0  0  0  0
 35 32  1  0  0  0  0
 38 37  2  0  0  0  0
 38 36  1  0  0  0  0
 39 37  1  1  0  0  0
 39 41  1  0  0  0  0
 39 43  1  0  0  0  0
 40 41  1  0  0  0  0
 42 40  1  0  0  0  0
 42 41  1  0  0  0  0
 43 44  1  0  0  0  0
 45 44  1  0  0  0  0
 46 45  1  0  0  0  0
M  END
>  <MODEL>
5

>  <REMARK>
 VINA RESULT:      -6.5      3.407      9.375
  Name = 
  10 active torsions:
  status: ('A' for Active; 'I' for Inactive)
    1  A    between atoms: C_4  and  C_32
    2  A    between atoms: O_11  and  C_26
    3  A    between atoms: C_13  and  C_32
    4  A    between atoms: C_14  and  S_16
    5  A    between atoms: S_16  and  C_23
    6  A    between atoms: C_19  and  C_20
    7  A    between atoms: C_19  and  C_25
    8  A    between atoms: C_25  and  C_38
    9  A    between atoms: C_26  and  C_36
   10  A    between atoms: C_32  and  C_36
                            x       y       z     vdW  Elec       q    Type
                         _______ _______ _______ _____ _____    ______ ____

>  <TORSDO>
F 10

$$$$
=
 OpenBabel10232408043D

 46 48  0  0  1  0  0  0  0  0999 V2000
  188.5600  176.8860  144.0210 C   0  0  0  0  0  0  0  0  0  0  0  0
  181.9140  179.1670  140.7320 C   0  0  2  0  0  3  0  0  0  0  0  0
  183.7280  178.9820  145.2990 C   0  0  0  0  0  2  0  0  0  0  0  0
  180.5540  178.2080  142.4470 O   0  0  0  0  0  0  0  0  0  0  0  0
  182.6560  178.9760  143.1210 N   0  0  0  0  0  2  0  0  0  0  0  0
  188.9630  175.9090  143.1060 O   0  0  0  0  0  0  0  0  0  0  0  0
  186.4450  178.9710  145.5330 S   0  0  0  0  0  0  0  0  0  0  0  0
  182.5150  178.5390  144.5010 C   0  0  0  0  0  2  0  0  0  0  0  0
  188.2500  177.9990  141.2600 N   0  0  0  0  0  0  0  0  0  0  0  0
  187.5690  176.5470  144.9990 N   0  0  0  0  0  2  0  0  0  0  0  0
  189.0930  178.0310  144.0210 O   0  0  0  0  0  0  0  0  0  0  0  0
  187.1770  177.4010  146.1230 C   0  0  1  0  0  3  0  0  0  0  0  0
  186.2750  178.7310  138.4210 C   0  0  2  0  0  3  0  0  0  0  0  0
  181.3710  179.3630  137.9550 N   0  0  0  0  0  0  0  0  0  0  0  0
  189.6770  176.1640  141.9260 C   0  0  0  0  0  2  0  0  0  0  0  0
  181.6460  178.7560  142.1380 C   0  0  0  0  0  0  0  0  0  0  0  0
  187.8110  178.8020  140.2610 O   0  0  0  0  0  0  0  0  0  0  0  0
  184.9440  178.1610  144.9100 C   0  0  0  0  0  2  0  0  0  0  0  0
  186.6790  178.1500  139.7660 C   0  0  0  0  0  2  0  0  0  0  0  0
  182.4360  178.4540  138.4060 C   0  0  2  0  0  3  0  0  0  0  0  0
  184.9320  178.2810  138.0870 N   0  0  0  0  0  2  0  0  0  0  0  0
  180.6310  180.0580  138.7710 C   0  0  0  0  0  3  0  0  0  0  0  0
  180.8050  179.9490  140.1890 N   0  0  0  0  0  2  0  0  0  0  0  0
  189.3660  177.1300  141.0580 C   0  0  0  0  0  3  0  0  0  0  0  0
  182.1870  177.9630  139.8380 C   0  0  0  0  0  2  0  0  0  0  0  0
  183.7850  179.1020  138.3080 C   0  0  0  0  0  0  0  0  0  0  0  0
  183.9160  180.3440  138.4900 O   0  0  0  0  0  0  0  0  0  0  0  0
  188.3150  177.6000  147.0970 C   0  0  0  0  0  0  0  0  0  0  0  0
  187.7730  178.4130  149.4510 O   0  0  0  0  0  0  0  0  0  0  0  0
  188.0370  178.0180  148.3050 C   0  0  0  0  0  0  0  0  0  0  0  0
  189.7110  177.8300  146.5830 C   0  0  0  0  0  2  0  0  0  0  0  0
  191.6040  177.2870  148.1580 C   0  0  0  0  0  1  0  0  0  0  0  0
  191.6210  176.3520  145.8620 C   0  0  0  0  0  1  0  0  0  0  0  0
  190.0450  175.6620  147.4650 F   0  0  0  0  0  0  0  0  0  0  0  0
  190.7350  176.7740  147.0210 C   0  0  0  0  0  0  0  0  0  0  0  0
  187.4510  178.2550  137.1040 S   0  0  0  0  0  0  0  0  0  0  0  0
  187.7020  175.5910  136.5820 C   0  0  0  0  0  3  0  0  0  0  0  0
  187.4940  176.5080  137.5240 C   0  0  0  0  0  3  0  0  0  0  0  0
  187.7470  174.1330  136.9240 C   0  0  1  0  0  3  0  0  0  0  0  0
  185.1930  174.2290  136.9530 C   0  0  0  0  0  2  0  0  0  0  0  0
  186.4220  173.4460  136.5230 C   0  0  0  0  0  3  0  0  0  0  0  0
  185.6060  172.9810  137.7180 C   0  0  0  0  0  2  0  0  0  0  0  0
  189.0260  173.4920  136.3710 C   0  0  0  0  0  2  0  0  0  0  0  0
  190.2160  174.4320  136.4790 C   0  0  0  0  0  2  0  0  0  0  0  0
  190.8340  174.2920  137.7200 O   0  0  0  0  0  0  0  0  0  0  0  0
  191.7610  175.3350  137.7620 C   0  0  0  0  0  1  0  0  0  0  0  0
  1 11  2  0  0  0  0
  1 10  1  0  0  0  0
  2 25  1  6  0  0  0
  2 16  1  0  0  0  0
  5  8  1  0  0  0  0
  6  1  1  0  0  0  0
  7 12  1  0  0  0  0
  8  3  1  0  0  0  0
 10 12  1  0  0  0  0
 12 28  1  6  0  0  0
 13 36  1  6  0  0  0
 13 19  1  0  0  0  0
 14 20  1  0  0  0  0
 14 22  2  0  0  0  0
 15  6  1  0  0  0  0
 16  4  2  0  0  0  0
 16  5  1  0  0  0  0
 17  9  1  0  0  0  0
 18  3  1  0  0  0  0
 18  7  1  0  0  0  0
 19 17  1  0  0  0  0
 20 25  1  1  0  0  0
 21 26  1  0  0  0  0
 21 13  1  0  0  0  0
 22 23  1  0  0  0  0
 23  2  1  0  0  0  0
 24  9  2  0  0  0  0
 24 15  1  0  0  0  0
 26 20  1  0  0  0  0
 26 27  2  0  0  0  0
 28 30  2  0  0  0  0
 30 29  2  0  0  0  0
 31 35  1  0  0  0  0
 31 28  1  0  0  0  0
 33 35  1  0  0  0  0
 35 34  1  0  0  0  0
 35 32  1  0  0  0  0
 36 38  1  0  0  0  0
 37 39  1  0  0  0  0
 37 38  2  0  0  0  0
 39 43  1  6  0  0  0
 40 42  1  0  0  0  0
 41 39  1  0  0  0  0
 41 40  1  0  0  0  0
 41 42  1  0  0  0  0
 43 44  1  0  0  0  0
 44 45  1  0  0  0  0
 45 46  1  0  0  0  0
M  END
>  <MODEL>
6

>  <REMARK>
 VINA RESULT:      -6.4      3.334      9.277
  Name = 
  10 active torsions:
  status: ('A' for Active; 'I' for Inactive)
    1  A    between atoms: C_4  and  C_32
    2  A    between atoms: O_11  and  C_26
    3  A    between atoms: C_13  and  C_32
    4  A    between atoms: C_14  and  S_16
    5  A    between atoms: S_16  and  C_23
    6  A    between atoms: C_19  and  C_20
    7  A    between atoms: C_19  and  C_25
    8  A    between atoms: C_25  and  C_38
    9  A    between atoms: C_26  and  C_36
   10  A    between atoms: C_32  and  C_36
                            x       y       z     vdW  Elec       q    Type
                         _______ _______ _______ _____ _____    ______ ____

>  <TORSDO>
F 10

$$$$
=
 OpenBabel10232408043D

 46 48  0  0  1  0  0  0  0  0999 V2000
  189.7310  176.5050  136.2530 C   0  0  0  0  0  0  0  0  0  0  0  0
  182.6920  173.2680  136.6650 C   0  0  2  0  0  3  0  0  0  0  0  0
  187.2900  171.6760  135.9490 C   0  0  0  0  0  2  0  0  0  0  0  0
  183.0980  171.7790  134.8410 O   0  0  0  0  0  0  0  0  0  0  0  0
  184.9630  172.3460  136.1290 N   0  0  0  0  0  2  0  0  0  0  0  0
  189.3880  177.7770  135.7860 O   0  0  0  0  0  0  0  0  0  0  0  0
  189.2920  173.2640  136.8980 S   0  0  0  0  0  0  0  0  0  0  0  0
  185.9120  171.6010  135.3160 C   0  0  0  0  0  2  0  0  0  0  0  0
  187.4200  177.5090  137.8690 N   0  0  0  0  0  2  0  0  0  0  0  0
  189.8040  175.4240  135.3170 N   0  0  0  0  0  2  0  0  0  0  0  0
  190.0200  176.3190  137.4680 O   0  0  0  0  0  0  0  0  0  0  0  0
  190.3160  174.0850  135.6220 C   0  0  1  0  0  3  0  0  0  0  0  0
  183.9530  177.6760  138.5430 C   0  0  2  0  0  3  0  0  0  0  0  0
  180.2680  174.5530  137.3850 N   0  0  0  0  0  0  0  0  0  0  0  0
  188.9840  178.8460  136.5990 C   0  0  0  0  0  3  0  0  0  0  0  0
  183.5720  172.4140  135.8210 C   0  0  0  0  0  0  0  0  0  0  0  0
  186.3390  177.4800  138.6850 O   0  0  0  0  0  0  0  0  0  0  0  0
  187.8720  173.0670  135.7840 C   0  0  0  0  0  2  0  0  0  0  0  0
  185.2520  177.3660  137.8160 C   0  0  0  0  0  2  0  0  0  0  0  0
  181.3740  175.3690  136.8580 C   0  0  2  0  0  3  0  0  0  0  0  0
  182.8310  177.2350  137.7290 N   0  0  0  0  0  2  0  0  0  0  0  0
  180.3290  173.2580  137.5020 C   0  0  0  0  0  3  0  0  0  0  0  0
  181.4980  172.5400  137.0880 N   0  0  0  0  0  2  0  0  0  0  0  0
  188.0760  178.7420  137.5730 C   0  0  0  0  0  3  0  0  0  0  0  0
  182.2910  174.5480  135.9420 C   0  0  0  0  0  2  0  0  0  0  0  0
  182.1710  175.9910  137.9650 C   0  0  0  0  0  0  0  0  0  0  0  0
  182.3170  175.3920  139.0670 O   0  0  0  0  0  0  0  0  0  0  0  0
  191.7880  174.1140  135.9630 C   0  0  0  0  0  0  0  0  0  0  0  0
  193.4330  173.0290  134.3470 O   0  0  0  0  0  0  0  0  0  0  0  0
  192.6330  173.5560  135.1340 C   0  0  0  0  0  0  0  0  0  0  0  0
  192.2230  174.2820  137.3940 C   0  0  0  0  0  2  0  0  0  0  0  0
  193.5350  176.1720  136.3630 C   0  0  0  0  0  1  0  0  0  0  0  0
  194.6400  174.6680  137.9950 C   0  0  0  0  0  1  0  0  0  0  0  0
  192.9390  176.1580  138.6420 F   0  0  0  0  0  0  0  0  0  0  0  0
  193.3270  175.3270  137.6080 C   0  0  0  0  0  0  0  0  0  0  0  0
  183.8050  179.4590  138.9190 S   0  0  0  0  0  0  0  0  0  0  0  0
  184.4410  178.9530  141.5210 C   0  0  0  0  0  3  0  0  0  0  0  0
  184.8810  179.4290  140.3580 C   0  0  0  0  0  3  0  0  0  0  0  0
  185.3330  178.9170  142.7240 C   0  0  1  0  0  3  0  0  0  0  0  0
  183.3430  179.0540  144.3230 C   0  0  0  0  0  2  0  0  0  0  0  0
  184.5900  178.2840  143.9240 C   0  0  0  0  0  3  0  0  0  0  0  0
  184.6050  179.1630  145.1630 C   0  0  0  0  0  2  0  0  0  0  0  0
  186.6860  178.2870  142.3700 C   0  0  0  0  0  2  0  0  0  0  0  0
  187.1070  177.2490  143.3980 C   0  0  0  0  0  2  0  0  0  0  0  0
  188.4690  177.3630  143.6720 O   0  0  0  0  0  0  0  0  0  0  0  0
  188.5200  177.7080  145.0240 C   0  0  0  0  0  1  0  0  0  0  0  0
  1 11  2  0  0  0  0
  2 25  1  6  0  0  0
  2 23  1  0  0  0  0
  4 16  2  0  0  0  0
  6  1  1  0  0  0  0
  6 15  1  0  0  0  0
  8  3  1  0  0  0  0
  8  5  1  0  0  0  0
  9 17  1  0  0  0  0
 10 12  1  0  0  0  0
 10  1  1  0  0  0  0
 12 28  1  1  0  0  0
 12  7  1  0  0  0  0
 13 36  1  6  0  0  0
 14 22  2  0  0  0  0
 15 24  2  0  0  0  0
 16  5  1  0  0  0  0
 16  2  1  0  0  0  0
 18  3  1  0  0  0  0
 18  7  1  0  0  0  0
 19 13  1  0  0  0  0
 19 17  1  0  0  0  0
 20 25  1  1  0  0  0
 20 14  1  0  0  0  0
 20 26  1  0  0  0  0
 21 26  1  0  0  0  0
 21 13  1  0  0  0  0
 23 22  1  0  0  0  0
 24  9  1  0  0  0  0
 26 27  2  0  0  0  0
 28 31  1  0  0  0  0
 29 30  2  0  0  0  0
 30 28  2  0  0  0  0
 31 35  1  0  0  0  0
 32 35  1  0  0  0  0
 35 33  1  0  0  0  0
 35 34  1  0  0  0  0
 36 38  1  0  0  0  0
 38 37  2  0  0  0  0
 39 37  1  6  0  0  0
 39 41  1  0  0  0  0
 40 42  1  0  0  0  0
 41 40  1  0  0  0  0
 41 42  1  0  0  0  0
 43 39  1  0  0  0  0
 43 44  1  0  0  0  0
 44 45  1  0  0  0  0
 45 46  1  0  0  0  0
M  END
>  <MODEL>
7

>  <REMARK>
 VINA RESULT:      -6.2      3.374      8.352
  Name = 
  10 active torsions:
  status: ('A' for Active; 'I' for Inactive)
    1  A    between atoms: C_4  and  C_32
    2  A    between atoms: O_11  and  C_26
    3  A    between atoms: C_13  and  C_32
    4  A    between atoms: C_14  and  S_16
    5  A    between atoms: S_16  and  C_23
    6  A    between atoms: C_19  and  C_20
    7  A    between atoms: C_19  and  C_25
    8  A    between atoms: C_25  and  C_38
    9  A    between atoms: C_26  and  C_36
   10  A    between atoms: C_32  and  C_36
                            x       y       z     vdW  Elec       q    Type
                         _______ _______ _______ _____ _____    ______ ____

>  <TORSDO>
F 10

$$$$
=
 OpenBabel10232408043D

 46 48  0  0  1  0  0  0  0  0999 V2000
  186.3340  178.5110  145.0160 C   0  0  0  0  0  0  0  0  0  0  0  0
  187.8160  177.2450  137.5070 C   0  0  2  0  0  3  0  0  0  0  0  0
  190.1360  176.4260  141.7650 C   0  0  0  0  0  2  0  0  0  0  0  0
  190.1050  177.9020  137.6870 O   0  0  0  0  0  0  0  0  0  0  0  0
  189.1740  176.9180  139.5910 N   0  0  0  0  0  2  0  0  0  0  0  0
  185.5050  179.6320  144.9170 O   0  0  0  0  0  0  0  0  0  0  0  0
  188.5740  176.2640  143.9940 S   0  0  0  0  0  0  0  0  0  0  0  0
  190.3650  177.0760  140.4120 C   0  0  0  0  0  2  0  0  0  0  0  0
  184.3020  177.9900  142.8820 N   0  0  0  0  0  0  0  0  0  0  0  0
  187.7520  178.6920  144.9200 N   0  0  0  0  0  2  0  0  0  0  0  0
  185.8490  177.3660  145.2380 O   0  0  0  0  0  0  0  0  0  0  0  0
  188.7480  177.6490  145.1780 C   0  0  1  0  0  3  0  0  0  0  0  0
  183.3250  177.9340  139.4840 C   0  0  2  0  0  3  0  0  0  0  0  0
  186.0360  177.6350  135.3330 N   0  0  0  0  0  0  0  0  0  0  0  0
  184.1220  179.5860  144.6890 C   0  0  0  0  0  2  0  0  0  0  0  0
  189.1030  177.3780  138.2420 C   0  0  0  0  0  0  0  0  0  0  0  0
  183.7260  177.4250  141.7930 O   0  0  0  0  0  0  0  0  0  0  0  0
  189.1650  177.2520  142.5890 C   0  0  0  0  0  2  0  0  0  0  0  0
  184.1580  178.2140  140.7250 C   0  0  0  0  0  2  0  0  0  0  0  0
  185.8080  178.3850  136.5780 C   0  0  2  0  0  3  0  0  0  0  0  0
  183.9890  178.5030  138.3220 N   0  0  0  0  0  2  0  0  0  0  0  0
  187.0410  176.8260  135.1590 C   0  0  0  0  0  3  0  0  0  0  0  0
  188.0170  176.6410  136.1920 N   0  0  0  0  0  2  0  0  0  0  0  0
  183.5430  178.8290  143.7530 C   0  0  0  0  0  3  0  0  0  0  0  0
  187.1150  178.5900  137.3580 C   0  0  0  0  0  2  0  0  0  0  0  0
  184.7890  177.7090  137.4460 C   0  0  0  0  0  0  0  0  0  0  0  0
  184.6870  176.4510  137.4560 O   0  0  0  0  0  0  0  0  0  0  0  0
  188.7320  177.2060  146.6230 C   0  0  0  0  0  0  0  0  0  0  0  0
  187.7710  178.7920  148.3720 O   0  0  0  0  0  0  0  0  0  0  0  0
  188.2390  178.0200  147.5210 C   0  0  0  0  0  0  0  0  0  0  0  0
  189.6930  176.1480  147.0930 C   0  0  0  0  0  2  0  0  0  0  0  0
  191.6220  177.1140  145.7880 C   0  0  0  0  0  1  0  0  0  0  0  0
  192.0680  175.4540  147.5750 C   0  0  0  0  0  1  0  0  0  0  0  0
  191.2740  177.6130  148.0650 F   0  0  0  0  0  0  0  0  0  0  0  0
  191.1620  176.5920  147.1400 C   0  0  0  0  0  0  0  0  0  0  0  0
  181.6340  178.6100  139.6460 S   0  0  0  0  0  0  0  0  0  0  0  0
  180.4670  179.5360  137.3620 C   0  0  0  0  0  3  0  0  0  0  0  0
  181.6080  179.4150  138.0390 C   0  0  0  0  0  3  0  0  0  0  0  0
  180.4340  180.2130  136.0260 C   0  0  1  0  0  3  0  0  0  0  0  0
  180.1530  182.6370  136.7850 C   0  0  0  0  0  2  0  0  0  0  0  0
  181.0660  181.6210  136.1210 C   0  0  0  0  0  3  0  0  0  0  0  0
  180.3430  182.6560  135.2770 C   0  0  0  0  0  2  0  0  0  0  0  0
  181.0150  179.2930  134.9450 C   0  0  0  0  0  2  0  0  0  0  0  0
  180.5530  177.8550  135.1250 C   0  0  0  0  0  2  0  0  0  0  0  0
  181.6450  176.9900  135.1180 O   0  0  0  0  0  0  0  0  0  0  0  0
  182.6170  177.6690  134.3790 C   0  0  0  0  0  1  0  0  0  0  0  0
  1 11  2  0  0  0  0
  2 25  1  6  0  0  0
  2 16  1  0  0  0  0
  3 18  1  0  0  0  0
  4 16  2  0  0  0  0
  5  8  1  0  0  0  0
  6  1  1  0  0  0  0
  7 12  1  0  0  0  0
  8  3  1  0  0  0  0
  9 24  2  0  0  0  0
 10  1  1  0  0  0  0
 10 12  1  0  0  0  0
 12 28  1  1  0  0  0
 13 36  1  1  0  0  0
 13 19  1  0  0  0  0
 14 20  1  0  0  0  0
 15  6  1  0  0  0  0
 16  5  1  0  0  0  0
 17  9  1  0  0  0  0
 18  7  1  0  0  0  0
 19 17  1  0  0  0  0
 20 25  1  1  0  0  0
 20 26  1  0  0  0  0
 21 13  1  0  0  0  0
 22 14  2  0  0  0  0
 22 23  1  0  0  0  0
 23  2  1  0  0  0  0
 24 15  1  0  0  0  0
 26 27  2  0  0  0  0
 26 21  1  0  0  0  0
 28 31  1  0  0  0  0
 28 30  2  0  0  0  0
 30 29  2  0  0  0  0
 31 35  1  0  0  0  0
 32 35  1  0  0  0  0
 35 33  1  0  0  0  0
 35 34  1  0  0  0  0
 37 38  2  0  0  0  0
 38 36  1  0  0  0  0
 39 43  1  6  0  0  0
 39 41  1  0  0  0  0
 39 37  1  0  0  0  0
 41 40  1  0  0  0  0
 42 41  1  0  0  0  0
 42 40  1  0  0  0  0
 43 44  1  0  0  0  0
 45 44  1  0  0  0  0
 46 45  1  0  0  0  0
M  END
>  <MODEL>
8

>  <REMARK>
 VINA RESULT:      -6.1      3.252      9.511
  Name = 
  10 active torsions:
  status: ('A' for Active; 'I' for Inactive)
    1  A    between atoms: C_4  and  C_32
    2  A    between atoms: O_11  and  C_26
    3  A    between atoms: C_13  and  C_32
    4  A    between atoms: C_14  and  S_16
    5  A    between atoms: S_16  and  C_23
    6  A    between atoms: C_19  and  C_20
    7  A    between atoms: C_19  and  C_25
    8  A    between atoms: C_25  and  C_38
    9  A    between atoms: C_26  and  C_36
   10  A    between atoms: C_32  and  C_36
                            x       y       z     vdW  Elec       q    Type
                         _______ _______ _______ _____ _____    ______ ____

>  <TORSDO>
F 10

$$$$
=
 OpenBabel10232408043D

 46 48  0  0  1  0  0  0  0  0999 V2000
  185.1180  178.7030  141.7070 C   0  0  0  0  0  0  0  0  0  0  0  0
  190.7830  175.9740  137.1630 C   0  0  2  0  0  3  0  0  0  0  0  0
  190.0210  176.4140  142.0010 C   0  0  0  0  0  2  0  0  0  0  0  0
  192.5230  176.9240  138.4960 O   0  0  0  0  0  0  0  0  0  0  0  0
  190.5900  176.2870  139.6450 N   0  0  0  0  0  2  0  0  0  0  0  0
  184.5640  179.6650  140.8580 O   0  0  0  0  0  0  0  0  0  0  0  0
  187.4250  176.5690  142.8190 S   0  0  0  0  0  0  0  0  0  0  0  0
  191.0480  176.7670  140.9400 C   0  0  0  0  0  2  0  0  0  0  0  0
  184.7690  177.4770  139.0000 N   0  0  0  0  0  0  0  0  0  0  0  0
  186.3110  179.0260  142.4300 N   0  0  0  0  0  2  0  0  0  0  0  0
  184.5500  177.5870  141.8760 O   0  0  0  0  0  0  0  0  0  0  0  0
  186.9050  178.1950  143.4800 C   0  0  1  0  0  3  0  0  0  0  0  0
  186.0430  176.5450  135.8360 C   0  0  2  0  0  3  0  0  0  0  0  0
  190.6960  175.6500  134.3460 N   0  0  0  0  0  0  0  0  0  0  0  0
  183.6000  179.4040  139.8740 C   0  0  0  0  0  2  0  0  0  0  0  0
  191.3680  176.4210  138.4570 C   0  0  0  0  0  0  0  0  0  0  0  0
  184.9460  176.6180  137.9670 O   0  0  0  0  0  0  0  0  0  0  0  0
  188.7850  177.2800  141.8480 C   0  0  0  0  0  2  0  0  0  0  0  0
  185.9680  177.1930  137.2080 C   0  0  0  0  0  2  0  0  0  0  0  0
  189.7930  176.6270  134.9750 C   0  0  2  0  0  3  0  0  0  0  0  0
  187.2980  176.9140  135.1980 N   0  0  0  0  0  2  0  0  0  0  0  0
  191.5680  174.9500  135.0130 C   0  0  0  0  0  3  0  0  0  0  0  0
  191.7120  175.1180  136.4290 N   0  0  0  0  0  2  0  0  0  0  0  0
  183.6740  178.3930  139.0050 C   0  0  0  0  0  3  0  0  0  0  0  0
  190.3700  177.1570  136.2960 C   0  0  0  0  0  2  0  0  0  0  0  0
  188.4310  176.0460  135.2030 C   0  0  0  0  0  0  0  0  0  0  0  0
  188.2910  174.8190  135.4660 O   0  0  0  0  0  0  0  0  0  0  0  0
  186.0010  178.0880  144.6870 C   0  0  0  0  0  0  0  0  0  0  0  0
  184.2460  179.9000  145.0570 O   0  0  0  0  0  0  0  0  0  0  0  0
  185.1010  179.0180  144.8770 C   0  0  0  0  0  0  0  0  0  0  0  0
  186.4370  177.2840  145.8820 C   0  0  0  0  0  2  0  0  0  0  0  0
  188.8490  178.0160  145.8800 C   0  0  0  0  0  1  0  0  0  0  0  0
  187.8470  177.1240  147.9650 C   0  0  0  0  0  1  0  0  0  0  0  0
  187.1840  179.1920  147.0620 F   0  0  0  0  0  0  0  0  0  0  0  0
  187.5730  177.9160  146.6990 C   0  0  0  0  0  0  0  0  0  0  0  0
  184.6280  177.0310  134.7860 S   0  0  0  0  0  0  0  0  0  0  0  0
  183.5170  174.6590  135.5410 C   0  0  0  0  0  3  0  0  0  0  0  0
  184.0140  175.3620  134.5250 C   0  0  0  0  0  3  0  0  0  0  0  0
  182.9960  173.2690  135.3320 C   0  0  1  0  0  3  0  0  0  0  0  0
  183.4520  171.4130  137.0280 C   0  0  0  0  0  2  0  0  0  0  0  0
  184.0050  172.2310  135.8740 C   0  0  0  0  0  3  0  0  0  0  0  0
  184.4550  172.5240  137.2950 C   0  0  0  0  0  2  0  0  0  0  0  0
  181.5630  173.1490  135.8640 C   0  0  0  0  0  2  0  0  0  0  0  0
  181.1130  174.4250  136.5580 C   0  0  0  0  0  2  0  0  0  0  0  0
  180.8600  174.1810  137.9060 O   0  0  0  0  0  0  0  0  0  0  0  0
  181.4500  175.2600  138.5680 C   0  0  0  0  0  1  0  0  0  0  0  0
  1 11  2  0  0  0  0
  1 10  1  0  0  0  0
  2 25  1  6  0  0  0
  2 16  1  0  0  0  0
  5  8  1  0  0  0  0
  6  1  1  0  0  0  0
  7 12  1  0  0  0  0
  8  3  1  0  0  0  0
  9 24  2  0  0  0  0
 10 12  1  0  0  0  0
 12 28  1  1  0  0  0
 13 36  1  6  0  0  0
 13 19  1  0  0  0  0
 14 20  1  0  0  0  0
 14 22  2  0  0  0  0
 15  6  1  0  0  0  0
 16  4  2  0  0  0  0
 16  5  1  0  0  0  0
 17  9  1  0  0  0  0
 18  3  1  0  0  0  0
 18  7  1  0  0  0  0
 19 17  1  0  0  0  0
 20 26  1  0  0  0  0
 20 25  1  1  0  0  0
 21 26  1  0  0  0  0
 21 13  1  0  0  0  0
 22 23  1  0  0  0  0
 23  2  1  0  0  0  0
 24 15  1  0  0  0  0
 26 27  2  0  0  0  0
 28 30  2  0  0  0  0
 28 31  1  0  0  0  0
 30 29  2  0  0  0  0
 31 35  1  0  0  0  0
 32 35  1  0  0  0  0
 35 34  1  0  0  0  0
 35 33  1  0  0  0  0
 38 36  1  0  0  0  0
 38 37  2  0  0  0  0
 39 37  1  1  0  0  0
 39 43  1  0  0  0  0
 39 41  1  0  0  0  0
 40 42  1  0  0  0  0
 41 40  1  0  0  0  0
 41 42  1  0  0  0  0
 43 44  1  0  0  0  0
 44 45  1  0  0  0  0
 45 46  1  0  0  0  0
M  END
>  <MODEL>
9

>  <REMARK>
 VINA RESULT:      -6.0      2.963      7.785
  Name = 
  10 active torsions:
  status: ('A' for Active; 'I' for Inactive)
    1  A    between atoms: C_4  and  C_32
    2  A    between atoms: O_11  and  C_26
    3  A    between atoms: C_13  and  C_32
    4  A    between atoms: C_14  and  S_16
    5  A    between atoms: S_16  and  C_23
    6  A    between atoms: C_19  and  C_20
    7  A    between atoms: C_19  and  C_25
    8  A    between atoms: C_25  and  C_38
    9  A    between atoms: C_26  and  C_36
   10  A    between atoms: C_32  and  C_36
                            x       y       z     vdW  Elec       q    Type
                         _______ _______ _______ _____ _____    ______ ____

>  <TORSDO>
F 10

$$$$
