=
 OpenBabel10232410143D

 66 75  0  0  1  0  0  0  0  0999 V2000
  185.3900  178.4130  141.1450 C   0  0  0  0  0  0  0  0  0  0  0  0
  187.5770  178.2400  142.1910 C   0  0  0  0  0  0  0  0  0  0  0  0
  189.0960  177.7440  144.5190 C   0  0  0  0  0  0  0  0  0  0  0  0
  186.8030  178.4790  141.0400 C   0  0  0  0  0  0  0  0  0  0  0  0
  189.7260  178.0700  143.3060 C   0  0  0  0  0  3  0  0  0  0  0  0
  186.9360  177.9010  143.4030 C   0  0  0  0  0  0  0  0  0  0  0  0
  185.5810  177.8210  143.4590 N   0  0  0  0  0  0  0  0  0  0  0  0
  188.9760  178.3150  142.1540 C   0  0  0  0  0  3  0  0  0  0  0  0
  187.6940  177.6520  144.5500 C   0  0  0  0  0  3  0  0  0  0  0  0
  184.8090  178.0750  142.3730 C   0  0  0  0  0  3  0  0  0  0  0  0
  191.2810  176.9680  148.1420 C   0  0  0  0  0  3  0  0  0  0  0  0
  190.0440  177.6100  148.1770 C   0  0  0  0  0  3  0  0  0  0  0  0
  189.3550  177.8550  146.9890 C   0  0  0  0  0  3  0  0  0  0  0  0
  191.1490  176.8190  145.7160 C   0  0  0  0  0  0  0  0  0  0  0  0
  191.8300  176.5780  146.9220 C   0  0  0  0  0  3  0  0  0  0  0  0
  189.8860  177.4630  145.7480 C   0  0  0  0  0  0  0  0  0  0  0  0
  191.7240  176.4440  144.4940 O   0  0  0  0  0  0  0  0  0  0  0  0
  191.9430  175.0900  144.1240 C   0  0  0  0  0  1  0  0  0  0  0  0
  187.4750  178.7880  139.8070 N   0  0  0  0  0  2  0  0  0  0  0  0
  189.9620  177.6990  138.2850 C   0  0  0  0  0  2  0  0  0  0  0  0
  187.8820  177.8150  138.8040 C   0  0  2  0  0  3  0  0  0  0  0  0
  189.0740  177.0290  139.3190 C   0  0  0  0  0  2  0  0  0  0  0  0
  188.7710  178.4830  137.7680 C   0  0  2  0  0  3  0  0  0  0  0  0
  188.4240  178.0300  136.3830 C   0  0  0  0  0  0  0  0  0  0  0  0
  187.2190  178.0690  136.0090 O   0  0  0  0  0  0  0  0  0  0  0  0
  189.4260  177.6020  135.5070 O   0  0  0  0  0  0  0  0  0  0  0  0
  191.2510  176.0760  135.8150 C   0  0  1  0  0  3  0  0  0  0  0  0
  190.8890  176.1170  134.3480 C   0  0  0  0  0  2  0  0  0  0  0  0
  189.8040  176.2380  135.3960 C   0  0  2  0  0  3  0  0  0  0  0  0
  191.5260  174.6280  136.1980 C   0  0  0  0  0  2  0  0  0  0  0  0
  194.1570  172.2790  135.4040 C   0  0  0  0  0  2  0  0  0  0  0  0
  192.9890  174.3450  136.5400 C   0  0  2  0  0  0  0  0  0  0  0  0
  194.8550  174.5910  138.2490 C   0  0  0  0  0  2  0  0  0  0  0  0
  195.3830  174.8760  135.8440 C   0  0  0  0  0  2  0  0  0  0  0  0
  193.3610  174.8790  137.9400 C   0  0  0  0  0  2  0  0  0  0  0  0
  195.5420  173.9190  137.0410 C   0  0  2  0  0  3  0  0  0  0  0  0
  193.8840  175.1050  135.5320 C   0  0  0  0  0  2  0  0  0  0  0  0
  194.7890  172.5950  136.7520 C   0  0  2  0  0  0  0  0  0  0  0  0
  195.0530  171.5000  137.5720 O   0  0  0  0  0  1  0  0  0  0  0  0
  193.2820  172.8110  136.5440 C   0  0  2  0  0  3  0  0  0  0  0  0
  184.4830  178.7820  140.0140 C   0  0  0  0  0  2  0  0  0  0  0  0
  183.0390  178.8760  140.4820 C   0  0  0  0  0  2  0  0  0  0  0  0
  182.1370  178.4730  139.4120 N   0  0  0  0  0  0  0  0  0  0  0  0
  180.9600  180.4820  138.8160 C   0  0  0  0  0  0  0  0  0  0  0  0
  180.9430  179.2130  139.1230 C   0  0  0  0  0  3  0  0  0  0  0  0
  180.9570  181.7510  138.5070 C   0  0  0  0  0  3  0  0  0  0  0  0
  180.8240  182.2090  137.1200 C   0  0  0  0  0  0  0  0  0  0  0  0
  180.6220  181.4110  136.1210 N   0  0  0  0  0  0  0  0  0  0  0  0
  180.8830  183.5830  136.7630 N   0  0  0  0  0  0  0  0  0  0  0  0
  180.7100  183.5910  135.4870 C   0  0  0  0  0  0  0  0  0  0  0  0
  180.5280  182.2270  134.9230 C   0  0  0  0  0  2  0  0  0  0  0  0
  180.6860  184.7890  134.7220 N   0  0  0  0  0  1  0  0  0  0  0  0
  182.5570  177.4890  138.5040 N   0  0  0  0  0  2  0  0  0  0  0  0
  181.4030  176.9070  137.9590 N   0  0  0  0  0  2  0  0  0  0  0  0
  181.4250  175.5040  138.3250 C   0  0  0  0  0  2  0  0  0  0  0  0
  180.6160  174.7440  137.3830 N   0  0  0  0  0  2  0  0  0  0  0  0
  181.4800  173.7210  136.8210 C   0  0  1  0  0  3  0  0  0  0  0  0
  180.9420  171.4810  136.1890 O   0  0  0  0  0  1  0  0  0  0  0  0
  180.6870  172.8190  135.8870 C   0  0  0  0  0  2  0  0  0  0  0  0
  182.6750  174.3630  136.1170 C   0  0  0  0  0  2  0  0  0  0  0  0
  183.9890  173.6830  136.4710 C   0  0  2  0  0  3  0  0  0  0  0  0
  185.0370  174.3500  135.8130 O   0  0  0  0  0  0  0  0  0  0  0  0
  184.6130  173.1330  135.2450 C   0  0  1  0  0  3  0  0  0  0  0  0
  186.6370  172.3260  136.5240 N   0  0  0  0  0  1  0  0  0  0  0  0
  185.5960  172.0640  135.5880 C   0  0  0  0  0  0  0  0  0  0  0  0
  185.5240  170.9370  135.0310 O   0  0  0  0  0  0  0  0  0  0  0  0
  1 10  1  0  0  0  0
  2  6  1  0  0  0  0
  3  9  1  0  0  0  0
  3 16  1  0  0  0  0
  4  1  2  0  0  0  0
  4  2  1  0  0  0  0
  5  3  2  0  0  0  0
  6  7  1  0  0  0  0
  6  9  2  0  0  0  0
  8  2  2  0  0  0  0
  8  5  1  0  0  0  0
 10  7  2  0  0  0  0
 11 12  1  0  0  0  0
 13 12  2  0  0  0  0
 14 16  2  0  0  0  0
 14 15  1  0  0  0  0
 15 11  2  0  0  0  0
 16 13  1  0  0  0  0
 17 14  1  0  0  0  0
 18 17  1  0  0  0  0
 19  4  1  0  0  0  0
 20 22  1  0  0  0  0
 21 22  1  0  0  0  0
 21 19  1  1  0  0  0
 23 24  1  6  0  0  0
 23 20  1  0  0  0  0
 23 21  1  0  0  0  0
 25 24  2  0  0  0  0
 26 24  1  0  0  0  0
 27 30  1  6  0  0  0
 28 29  1  0  0  0  0
 28 27  1  0  0  0  0
 29 26  1  1  0  0  0
 29 27  1  0  0  0  0
 31 38  1  0  0  0  0
 32 30  1  6  0  0  0
 32 40  1  0  0  0  0
 32 35  1  0  0  0  0
 35 33  1  0  0  0  0
 36 34  1  6  0  0  0
 36 33  1  0  0  0  0
 37 34  1  0  0  0  0
 37 32  1  0  0  0  0
 38 36  1  0  0  0  0
 38 39  1  1  0  0  0
 40 31  1  6  0  0  0
 40 38  1  0  0  0  0
 41 42  1  0  0  0  0
 41  1  1  0  0  0  0
 43 42  1  0  0  0  0
 44 45  2  0  0  0  0
 45 43  1  0  0  0  0
 46 44  2  0  0  0  0
 47 46  1  0  0  0  0
 48 47  2  0  0  0  0
 49 47  1  0  0  0  0
 50 49  2  0  0  0  0
 51 50  1  0  0  0  0
 51 48  1  0  0  0  0
 52 50  1  0  0  0  0
 53 43  1  0  0  0  0
 54 55  1  0  0  0  0
 54 53  1  0  0  0  0
 56 55  1  0  0  0  0
 57 59  1  6  0  0  0
 57 56  1  0  0  0  0
 59 58  1  0  0  0  0
 60 57  1  0  0  0  0
 61 60  1  6  0  0  0
 62 61  1  0  0  0  0
 63 65  1  1  0  0  0
 63 62  1  0  0  0  0
 63 61  1  0  0  0  0
 65 64  1  0  0  0  0
 66 65  2  0  0  0  0
M  END
>  <MODEL>
1

>  <REMARK>
 VINA RESULT:      -7.1      0.000      0.000
  Name = 
  23 active torsions:
  status: ('A' for Active; 'I' for Inactive)
    1  A    between atoms: C_1  and  C_19
    2  A    between atoms: C_3  and  C_45
    3  A    between atoms: C_4  and  C_45
    4  A    between atoms: C_5  and  C_6
    5  A    between atoms: C_6  and  CA_58
    6  A    between atoms: C_8  and  O_18
    7  A    between atoms: C_8  and  C_62
    8  A    between atoms: C_11  and  C_53
    9  A    between atoms: C_12  and  N_61
   10  A    between atoms: C_14  and  N_33
   11  A    between atoms: C_15  and  C_43
   12  A    between atoms: O_18  and  C_28
   13  A    between atoms: C_19  and  C_22
   14  A    between atoms: C_22  and  N_33
   15  A    between atoms: C_24  and  N_61
   16  A    between atoms: C_25  and  C_60
   17  A    between atoms: C_30  and  N_31
   18  A    between atoms: C_30  and  N_39
   19  A    between atoms: N_31  and  CA_58
   20  A    between atoms: N_33  and  N_57
   21  A    between atoms: O_36  and  C_42
   22  A    between atoms: N_39  and  N_57
   23  A    between atoms: C_54  and  CA_58
                            x       y       z     vdW  Elec       q    Type
                         _______ _______ _______ _____ _____    ______ ____

>  <TORSDO>
F 23

$$$$
=
 OpenBabel10232410143D

 66 75  0  0  1  0  0  0  0  0999 V2000
  190.8500  174.3800  135.9670 C   0  0  0  0  0  0  0  0  0  0  0  0
  188.5610  173.5870  136.1630 C   0  0  0  0  0  0  0  0  0  0  0  0
  186.6530  171.5840  135.5930 C   0  0  0  0  0  0  0  0  0  0  0  0
  189.5280  174.5710  136.4420 C   0  0  0  0  0  0  0  0  0  0  0  0
  186.2900  172.7420  136.3020 C   0  0  0  0  0  3  0  0  0  0  0  0
  188.9380  172.4210  135.4590 C   0  0  0  0  0  0  0  0  0  0  0  0
  190.2200  172.2600  135.0430 N   0  0  0  0  0  0  0  0  0  0  0  0
  187.2330  173.7330  136.5840 C   0  0  0  0  0  3  0  0  0  0  0  0
  187.9890  171.4320  135.1850 C   0  0  0  0  0  3  0  0  0  0  0  0
  191.1650  173.2060  135.2730 C   0  0  0  0  0  3  0  0  0  0  0  0
  183.6930  168.5780  134.7540 C   0  0  0  0  0  3  0  0  0  0  0  0
  183.3170  169.8750  135.1000 C   0  0  0  0  0  3  0  0  0  0  0  0
  184.2940  170.8330  135.3720 C   0  0  0  0  0  3  0  0  0  0  0  0
  186.0410  169.1920  134.9600 C   0  0  0  0  0  0  0  0  0  0  0  0
  185.0430  168.2390  134.6870 C   0  0  0  0  0  3  0  0  0  0  0  0
  185.6620  170.5150  135.3020 C   0  0  0  0  0  0  0  0  0  0  0  0
  187.3930  168.8310  134.9120 O   0  0  0  0  0  0  0  0  0  0  0  0
  187.9840  167.9150  135.8250 C   0  0  0  0  0  1  0  0  0  0  0  0
  189.1330  175.7350  137.1890 N   0  0  0  0  0  2  0  0  0  0  0  0
  188.8200  178.8060  137.5800 C   0  0  0  0  0  2  0  0  0  0  0  0
  188.4810  176.9100  136.6310 C   0  0  2  0  0  3  0  0  0  0  0  0
  189.5000  178.0240  136.4710 C   0  0  0  0  0  2  0  0  0  0  0  0
  187.7990  177.6960  137.7400 C   0  0  2  0  0  3  0  0  0  0  0  0
  186.4480  178.1790  137.3100 C   0  0  0  0  0  0  0  0  0  0  0  0
  186.0060  177.8370  136.1780 O   0  0  0  0  0  0  0  0  0  0  0  0
  185.6730  178.9680  138.1650 O   0  0  0  0  0  0  0  0  0  0  0  0
  183.3410  178.4360  138.3450 C   0  0  1  0  0  3  0  0  0  0  0  0
  183.6850  179.4860  139.3770 C   0  0  0  0  0  2  0  0  0  0  0  0
  184.6930  178.4120  139.0290 C   0  0  2  0  0  3  0  0  0  0  0  0
  182.4090  177.4200  138.9910 C   0  0  0  0  0  2  0  0  0  0  0  0
  183.2450  174.1540  137.6860 C   0  0  0  0  0  2  0  0  0  0  0  0
  181.8680  176.3710  138.0200 C   0  0  2  0  0  0  0  0  0  0  0  0
  180.4420  175.9160  135.9660 C   0  0  0  0  0  2  0  0  0  0  0  0
  180.3510  174.3280  137.8660 C   0  0  0  0  0  2  0  0  0  0  0  0
  180.9880  177.0090  136.9230 C   0  0  0  0  0  2  0  0  0  0  0  0
  180.8820  174.5120  136.4310 C   0  0  2  0  0  3  0  0  0  0  0  0
  180.9510  175.4020  138.8050 C   0  0  0  0  0  2  0  0  0  0  0  0
  182.4320  174.4890  136.4430 C   0  0  2  0  0  0  0  0  0  0  0  0
  183.0930  174.3440  135.2250 O   0  0  0  0  0  1  0  0  0  0  0  0
  183.0290  175.6190  137.2940 C   0  0  2  0  0  3  0  0  0  0  0  0
  191.9090  175.4280  136.0960 C   0  0  0  0  0  2  0  0  0  0  0  0
  192.1070  175.8260  137.5500 C   0  0  0  0  0  2  0  0  0  0  0  0
  193.4970  175.6280  137.9410 N   0  0  0  0  0  0  0  0  0  0  0  0
  195.2200  174.0070  137.5110 C   0  0  0  0  0  0  0  0  0  0  0  0
  194.4260  174.9520  137.0820 C   0  0  0  0  0  3  0  0  0  0  0  0
  196.0210  173.0610  137.9220 C   0  0  0  0  0  3  0  0  0  0  0  0
  195.7320  171.6440  137.6780 C   0  0  0  0  0  0  0  0  0  0  0  0
  196.1010  171.0150  136.6090 N   0  0  0  0  0  0  0  0  0  0  0  0
  195.0370  170.8360  138.6190 N   0  0  0  0  0  0  0  0  0  0  0  0
  194.9940  169.6720  138.0700 C   0  0  0  0  0  0  0  0  0  0  0  0
  195.6520  169.6380  136.7380 C   0  0  0  0  0  2  0  0  0  0  0  0
  194.3860  168.5500  138.6970 N   0  0  0  0  0  1  0  0  0  0  0  0
  193.9900  176.3090  139.0640 N   0  0  0  0  0  2  0  0  0  0  0  0
  193.1720  177.4310  139.2630 N   0  0  0  0  0  2  0  0  0  0  0  0
  192.7350  177.3950  140.6450 C   0  0  0  0  0  2  0  0  0  0  0  0
  191.3670  176.9020  140.7090 N   0  0  0  0  0  2  0  0  0  0  0  0
  190.7710  177.4770  141.9020 C   0  0  1  0  0  3  0  0  0  0  0  0
  188.4940  177.5440  141.1820 O   0  0  0  0  0  1  0  0  0  0  0  0
  189.3600  176.9400  142.0940 C   0  0  0  0  0  2  0  0  0  0  0  0
  191.6550  177.2100  143.1190 C   0  0  0  0  0  2  0  0  0  0  0  0
  190.8430  176.8710  144.3610 C   0  0  2  0  0  3  0  0  0  0  0  0
  190.4920  178.0650  145.0130 O   0  0  0  0  0  0  0  0  0  0  0  0
  191.5610  177.3360  145.5700 C   0  0  1  0  0  3  0  0  0  0  0  0
  189.8550  176.9880  147.4000 N   0  0  0  0  0  1  0  0  0  0  0  0
  191.0800  176.6100  146.7800 C   0  0  0  0  0  0  0  0  0  0  0  0
  191.7700  175.6780  147.2740 O   0  0  0  0  0  0  0  0  0  0  0  0
  1 41  1  0  0  0  0
  1  4  1  0  0  0  0
  2  4  2  0  0  0  0
  2  8  1  0  0  0  0
  3  5  1  0  0  0  0
  4 19  1  0  0  0  0
  5  8  2  0  0  0  0
  6  2  1  0  0  0  0
  7 10  1  0  0  0  0
  7  6  2  0  0  0  0
  9  6  1  0  0  0  0
  9  3  2  0  0  0  0
 10  1  2  0  0  0  0
 11 12  1  0  0  0  0
 12 13  2  0  0  0  0
 14 16  2  0  0  0  0
 15 11  2  0  0  0  0
 15 14  1  0  0  0  0
 16 13  1  0  0  0  0
 16  3  1  0  0  0  0
 17 14  1  0  0  0  0
 17 18  1  0  0  0  0
 20 23  1  0  0  0  0
 21 19  1  1  0  0  0
 21 23  1  0  0  0  0
 22 21  1  0  0  0  0
 22 20  1  0  0  0  0
 23 24  1  6  0  0  0
 24 26  1  0  0  0  0
 25 24  2  0  0  0  0
 27 30  1  1  0  0  0
 27 29  1  0  0  0  0
 27 28  1  0  0  0  0
 29 26  1  6  0  0  0
 29 28  1  0  0  0  0
 32 37  1  0  0  0  0
 32 30  1  1  0  0  0
 33 35  1  0  0  0  0
 34 37  1  0  0  0  0
 35 32  1  0  0  0  0
 36 33  1  1  0  0  0
 36 38  1  0  0  0  0
 36 34  1  0  0  0  0
 38 39  1  6  0  0  0
 38 40  1  0  0  0  0
 38 31  1  0  0  0  0
 40 31  1  1  0  0  0
 40 32  1  0  0  0  0
 41 42  1  0  0  0  0
 42 43  1  0  0  0  0
 43 53  1  0  0  0  0
 44 46  2  0  0  0  0
 45 44  2  0  0  0  0
 45 43  1  0  0  0  0
 47 46  1  0  0  0  0
 47 49  1  0  0  0  0
 48 51  1  0  0  0  0
 48 47  2  0  0  0  0
 50 49  2  0  0  0  0
 50 52  1  0  0  0  0
 51 50  1  0  0  0  0
 53 54  1  0  0  0  0
 54 55  1  0  0  0  0
 55 56  1  0  0  0  0
 56 57  1  0  0  0  0
 57 59  1  1  0  0  0
 57 60  1  0  0  0  0
 58 59  1  0  0  0  0
 61 60  1  6  0  0  0
 61 62  1  0  0  0  0
 61 63  1  0  0  0  0
 62 63  1  0  0  0  0
 63 65  1  1  0  0  0
 65 66  2  0  0  0  0
 65 64  1  0  0  0  0
M  END
>  <MODEL>
2

>  <REMARK>
 VINA RESULT:      -6.6      4.053     12.369
  Name = 
  23 active torsions:
  status: ('A' for Active; 'I' for Inactive)
    1  A    between atoms: C_1  and  C_19
    2  A    between atoms: C_3  and  C_45
    3  A    between atoms: C_4  and  C_45
    4  A    between atoms: C_5  and  C_6
    5  A    between atoms: C_6  and  CA_58
    6  A    between atoms: C_8  and  O_18
    7  A    between atoms: C_8  and  C_62
    8  A    between atoms: C_11  and  C_53
    9  A    between atoms: C_12  and  N_61
   10  A    between atoms: C_14  and  N_33
   11  A    between atoms: C_15  and  C_43
   12  A    between atoms: O_18  and  C_28
   13  A    between atoms: C_19  and  C_22
   14  A    between atoms: C_22  and  N_33
   15  A    between atoms: C_24  and  N_61
   16  A    between atoms: C_25  and  C_60
   17  A    between atoms: C_30  and  N_31
   18  A    between atoms: C_30  and  N_39
   19  A    between atoms: N_31  and  CA_58
   20  A    between atoms: N_33  and  N_57
   21  A    between atoms: O_36  and  C_42
   22  A    between atoms: N_39  and  N_57
   23  A    between atoms: C_54  and  CA_58
                            x       y       z     vdW  Elec       q    Type
                         _______ _______ _______ _____ _____    ______ ____

>  <TORSDO>
F 23

$$$$
=
 OpenBabel10232410143D

 66 75  0  0  1  0  0  0  0  0999 V2000
  189.3050  177.1470  139.1020 C   0  0  0  0  0  0  0  0  0  0  0  0
  190.8580  176.5680  137.3250 C   0  0  0  0  0  0  0  0  0  0  0  0
  193.2400  175.2680  136.5420 C   0  0  0  0  0  0  0  0  0  0  0  0
  189.6720  177.2060  137.7340 C   0  0  0  0  0  0  0  0  0  0  0  0
  192.4630  175.9710  135.6050 C   0  0  0  0  0  3  0  0  0  0  0  0
  191.6270  175.8550  138.2720 C   0  0  0  0  0  0  0  0  0  0  0  0
  191.2300  175.7970  139.5690 N   0  0  0  0  0  0  0  0  0  0  0  0
  191.2850  176.6140  135.9910 C   0  0  0  0  0  3  0  0  0  0  0  0
  192.8020  175.2100  137.8760 C   0  0  0  0  0  3  0  0  0  0  0  0
  190.1070  176.4270  139.9960 C   0  0  0  0  0  3  0  0  0  0  0  0
  196.9100  173.3050  135.4560 C   0  0  0  0  0  3  0  0  0  0  0  0
  196.9180  174.4350  136.2720 C   0  0  0  0  0  3  0  0  0  0  0  0
  195.7160  175.0580  136.6080 C   0  0  0  0  0  3  0  0  0  0  0  0
  194.4830  173.4210  135.2990 C   0  0  0  0  0  0  0  0  0  0  0  0
  195.7030  172.8040  134.9710 C   0  0  0  0  0  3  0  0  0  0  0  0
  194.4860  174.5650  136.1380 C   0  0  0  0  0  0  0  0  0  0  0  0
  193.2790  172.9210  134.7860 O   0  0  0  0  0  0  0  0  0  0  0  0
  192.2580  172.3660  135.6040 C   0  0  0  0  0  1  0  0  0  0  0  0
  188.8850  177.8980  136.7500 N   0  0  0  0  0  2  0  0  0  0  0  0
  185.9500  177.0390  136.1700 C   0  0  0  0  0  2  0  0  0  0  0  0
  188.0440  177.2620  135.7470 C   0  0  2  0  0  3  0  0  0  0  0  0
  186.8060  178.1100  135.5160 C   0  0  0  0  0  2  0  0  0  0  0  0
  187.1850  176.1900  136.4000 C   0  0  2  0  0  3  0  0  0  0  0  0
  187.1220  174.9570  135.5510 C   0  0  0  0  0  0  0  0  0  0  0  0
  186.7590  175.0590  134.3460 O   0  0  0  0  0  0  0  0  0  0  0  0
  187.4930  173.7160  136.0780 O   0  0  0  0  0  0  0  0  0  0  0  0
  185.2630  173.0860  136.6990 C   0  0  1  0  0  3  0  0  0  0  0  0
  186.2450  172.3600  137.5910 C   0  0  0  0  0  2  0  0  0  0  0  0
  186.5930  172.6200  136.1420 C   0  0  2  0  0  3  0  0  0  0  0  0
  184.1610  172.1110  136.3090 C   0  0  0  0  0  2  0  0  0  0  0  0
  180.9890  172.1090  134.5750 C   0  0  0  0  0  2  0  0  0  0  0  0
  182.7510  172.6850  136.4420 C   0  0  2  0  0  0  0  0  0  0  0  0
  181.2980  174.5460  137.3840 C   0  0  0  0  0  2  0  0  0  0  0  0
  180.4460  172.2190  137.4270 C   0  0  0  0  0  2  0  0  0  0  0  0
  182.7440  174.0000  137.2530 C   0  0  0  0  0  2  0  0  0  0  0  0
  180.2880  173.5820  136.7260 C   0  0  2  0  0  3  0  0  0  0  0  0
  181.8840  171.6790  137.2380 C   0  0  0  0  0  2  0  0  0  0  0  0
  180.6770  173.4460  135.2310 C   0  0  2  0  0  0  0  0  0  0  0  0
  180.3240  174.4810  134.3680 O   0  0  0  0  0  1  0  0  0  0  0  0
  182.1370  173.0090  135.0430 C   0  0  2  0  0  3  0  0  0  0  0  0
  188.1390  177.9030  139.6540 C   0  0  0  0  0  2  0  0  0  0  0  0
  188.5600  178.7770  140.8250 C   0  0  0  0  0  2  0  0  0  0  0  0
  188.3610  178.0650  142.0800 N   0  0  0  0  0  0  0  0  0  0  0  0
  185.9890  178.3290  142.3670 C   0  0  0  0  0  0  0  0  0  0  0  0
  187.0650  177.5970  142.4770 C   0  0  0  0  0  3  0  0  0  0  0  0
  184.9030  179.0470  142.2650 C   0  0  0  0  0  3  0  0  0  0  0  0
  183.9460  178.8480  141.1710 C   0  0  0  0  0  0  0  0  0  0  0  0
  182.6620  178.8440  141.3390 N   0  0  0  0  0  0  0  0  0  0  0  0
  184.3580  178.6670  139.8240 N   0  0  0  0  0  0  0  0  0  0  0  0
  183.2570  178.5460  139.1660 C   0  0  0  0  0  0  0  0  0  0  0  0
  182.0540  178.6390  140.0350 C   0  0  0  0  0  2  0  0  0  0  0  0
  183.2210  178.3580  137.7560 N   0  0  0  0  0  1  0  0  0  0  0  0
  189.4850  177.6280  142.7990 N   0  0  0  0  0  2  0  0  0  0  0  0
  190.0400  178.7530  143.4280 N   0  0  0  0  0  2  0  0  0  0  0  0
  190.4610  178.3320  144.7500 C   0  0  0  0  0  2  0  0  0  0  0  0
  189.9220  177.0100  145.0330 N   0  0  0  0  0  2  0  0  0  0  0  0
  189.7650  176.9220  146.4740 C   0  0  1  0  0  3  0  0  0  0  0  0
  191.3310  175.5370  147.6310 O   0  0  0  0  0  1  0  0  0  0  0  0
  191.1280  176.8290  147.1450 C   0  0  0  0  0  2  0  0  0  0  0  0
  188.9520  178.1070  146.9940 C   0  0  0  0  0  2  0  0  0  0  0  0
  187.4740  177.7750  147.1380 C   0  0  2  0  0  3  0  0  0  0  0  0
  187.0620  177.0410  146.0130 O   0  0  0  0  0  0  0  0  0  0  0  0
  186.7110  178.4040  146.0360 C   0  0  1  0  0  3  0  0  0  0  0  0
  184.3740  179.2180  145.5310 N   0  0  0  0  0  1  0  0  0  0  0  0
  185.2700  178.5330  146.3990 C   0  0  0  0  0  0  0  0  0  0  0  0
  184.8480  178.0600  147.4880 O   0  0  0  0  0  0  0  0  0  0  0  0
  1 41  1  0  0  0  0
  1 10  1  0  0  0  0
  2  4  1  0  0  0  0
  2  6  1  0  0  0  0
  3  9  1  0  0  0  0
  4  1  2  0  0  0  0
  5  8  1  0  0  0  0
  5  3  2  0  0  0  0
  6  7  1  0  0  0  0
  7 10  2  0  0  0  0
  8  2  2  0  0  0  0
  9  6  2  0  0  0  0
 11 12  1  0  0  0  0
 12 13  2  0  0  0  0
 14 16  2  0  0  0  0
 15 14  1  0  0  0  0
 15 11  2  0  0  0  0
 16  3  1  0  0  0  0
 16 13  1  0  0  0  0
 17 14  1  0  0  0  0
 17 18  1  0  0  0  0
 19  4  1  0  0  0  0
 20 23  1  0  0  0  0
 21 23  1  0  0  0  0
 21 19  1  1  0  0  0
 22 21  1  0  0  0  0
 22 20  1  0  0  0  0
 23 24  1  6  0  0  0
 24 26  1  0  0  0  0
 25 24  2  0  0  0  0
 27 30  1  6  0  0  0
 27 28  1  0  0  0  0
 29 26  1  1  0  0  0
 29 27  1  0  0  0  0
 29 28  1  0  0  0  0
 31 38  1  0  0  0  0
 32 30  1  6  0  0  0
 32 37  1  0  0  0  0
 32 35  1  0  0  0  0
 35 33  1  0  0  0  0
 36 33  1  1  0  0  0
 36 34  1  0  0  0  0
 37 34  1  0  0  0  0
 38 39  1  6  0  0  0
 38 36  1  0  0  0  0
 40 31  1  6  0  0  0
 40 38  1  0  0  0  0
 40 32  1  0  0  0  0
 41 42  1  0  0  0  0
 42 43  1  0  0  0  0
 43 45  1  0  0  0  0
 43 53  1  0  0  0  0
 44 45  2  0  0  0  0
 46 44  2  0  0  0  0
 47 48  2  0  0  0  0
 47 46  1  0  0  0  0
 49 47  1  0  0  0  0
 50 49  2  0  0  0  0
 50 51  1  0  0  0  0
 51 48  1  0  0  0  0
 52 50  1  0  0  0  0
 53 54  1  0  0  0  0
 54 55  1  0  0  0  0
 55 56  1  0  0  0  0
 56 57  1  0  0  0  0
 57 60  1  1  0  0  0
 57 59  1  0  0  0  0
 59 58  1  0  0  0  0
 61 60  1  6  0  0  0
 62 63  1  0  0  0  0
 62 61  1  0  0  0  0
 63 65  1  1  0  0  0
 63 61  1  0  0  0  0
 64 65  1  0  0  0  0
 65 66  2  0  0  0  0
M  END
>  <MODEL>
3

>  <REMARK>
 VINA RESULT:      -6.5      2.705      9.875
  Name = 
  23 active torsions:
  status: ('A' for Active; 'I' for Inactive)
    1  A    between atoms: C_1  and  C_19
    2  A    between atoms: C_3  and  C_45
    3  A    between atoms: C_4  and  C_45
    4  A    between atoms: C_5  and  C_6
    5  A    between atoms: C_6  and  CA_58
    6  A    between atoms: C_8  and  O_18
    7  A    between atoms: C_8  and  C_62
    8  A    between atoms: C_11  and  C_53
    9  A    between atoms: C_12  and  N_61
   10  A    between atoms: C_14  and  N_33
   11  A    between atoms: C_15  and  C_43
   12  A    between atoms: O_18  and  C_28
   13  A    between atoms: C_19  and  C_22
   14  A    between atoms: C_22  and  N_33
   15  A    between atoms: C_24  and  N_61
   16  A    between atoms: C_25  and  C_60
   17  A    between atoms: C_30  and  N_31
   18  A    between atoms: C_30  and  N_39
   19  A    between atoms: N_31  and  CA_58
   20  A    between atoms: N_33  and  N_57
   21  A    between atoms: O_36  and  C_42
   22  A    between atoms: N_39  and  N_57
   23  A    between atoms: C_54  and  CA_58
                            x       y       z     vdW  Elec       q    Type
                         _______ _______ _______ _____ _____    ______ ____

>  <TORSDO>
F 23

$$$$
=
 OpenBabel10232410143D

 66 75  0  0  1  0  0  0  0  0999 V2000
  191.6240  176.8790  138.6140 C   0  0  0  0  0  0  0  0  0  0  0  0
  189.9580  176.8760  140.3830 C   0  0  0  0  0  0  0  0  0  0  0  0
  189.3630  177.1860  143.1260 C   0  0  0  0  0  0  0  0  0  0  0  0
  190.2740  176.7300  139.0190 C   0  0  0  0  0  0  0  0  0  0  0  0
  188.3520  176.8690  142.2030 C   0  0  0  0  0  3  0  0  0  0  0  0
  190.9790  177.2060  141.3020 C   0  0  0  0  0  0  0  0  0  0  0  0
  192.2570  177.3670  140.8730 N   0  0  0  0  0  0  0  0  0  0  0  0
  188.6450  176.7160  140.8460 C   0  0  0  0  0  3  0  0  0  0  0  0
  190.6760  177.3620  142.6570 C   0  0  0  0  0  3  0  0  0  0  0  0
  192.5940  177.2040  139.5690 C   0  0  0  0  0  3  0  0  0  0  0  0
  188.6070  177.7010  147.3290 C   0  0  0  0  0  3  0  0  0  0  0  0
  189.8590  177.2910  146.8720 C   0  0  0  0  0  3  0  0  0  0  0  0
  190.0800  177.1260  145.5050 C   0  0  0  0  0  3  0  0  0  0  0  0
  187.7840  177.7760  145.0380 C   0  0  0  0  0  0  0  0  0  0  0  0
  187.5780  177.9390  146.4200 C   0  0  0  0  0  3  0  0  0  0  0  0
  189.0590  177.3690  144.5700 C   0  0  0  0  0  0  0  0  0  0  0  0
  186.7330  177.9950  144.1380 O   0  0  0  0  0  0  0  0  0  0  0  0
  185.4060  178.2920  144.5510 C   0  0  0  0  0  1  0  0  0  0  0  0
  189.2150  176.4280  138.0930 N   0  0  0  0  0  2  0  0  0  0  0  0
  186.4980  177.1270  136.7460 C   0  0  0  0  0  2  0  0  0  0  0  0
  187.7930  176.5710  138.3670 C   0  0  2  0  0  3  0  0  0  0  0  0
  187.0000  175.8120  137.3180 C   0  0  0  0  0  2  0  0  0  0  0  0
  187.2880  177.8870  137.7950 C   0  0  2  0  0  3  0  0  0  0  0  0
  186.3520  178.5670  138.7460 C   0  0  0  0  0  0  0  0  0  0  0  0
  186.7930  178.9680  139.8590 O   0  0  0  0  0  0  0  0  0  0  0  0
  185.0180  178.7850  138.3910 O   0  0  0  0  0  0  0  0  0  0  0  0
  182.9180  177.8290  137.7340 C   0  0  1  0  0  3  0  0  0  0  0  0
  182.6940  178.7340  138.9250 C   0  0  0  0  0  2  0  0  0  0  0  0
  183.9700  177.9280  138.8200 C   0  0  2  0  0  3  0  0  0  0  0  0
  182.0820  176.5700  137.9280 C   0  0  0  0  0  2  0  0  0  0  0  0
  180.8340  174.5490  135.2030 C   0  0  0  0  0  2  0  0  0  0  0  0
  182.5100  175.4000  137.0430 C   0  0  2  0  0  0  0  0  0  0  0  0
  183.9640  173.3260  136.8250 C   0  0  0  0  0  2  0  0  0  0  0  0
  183.7060  174.8230  134.8670 C   0  0  0  0  0  2  0  0  0  0  0  0
  183.5370  174.4930  137.7550 C   0  0  0  0  0  2  0  0  0  0  0  0
  183.2900  173.4550  135.4430 C   0  0  2  0  0  3  0  0  0  0  0  0
  183.2250  175.9670  135.7920 C   0  0  0  0  0  2  0  0  0  0  0  0
  181.7560  173.4300  135.6660 C   0  0  2  0  0  0  0  0  0  0  0  0
  181.1500  172.1970  135.8990 O   0  0  0  0  0  1  0  0  0  0  0  0
  181.2910  174.5010  136.6650 C   0  0  2  0  0  3  0  0  0  0  0  0
  192.0770  176.6110  137.2140 C   0  0  0  0  0  2  0  0  0  0  0  0
  193.0240  175.4220  137.1650 C   0  0  0  0  0  2  0  0  0  0  0  0
  192.3700  174.2850  136.5320 N   0  0  0  0  0  0  0  0  0  0  0  0
  190.1080  173.4910  136.3540 C   0  0  0  0  0  0  0  0  0  0  0  0
  191.1740  173.7110  137.0760 C   0  0  0  0  0  3  0  0  0  0  0  0
  189.0330  173.2630  135.6480 C   0  0  0  0  0  3  0  0  0  0  0  0
  188.7010  171.9220  135.1560 C   0  0  0  0  0  0  0  0  0  0  0  0
  189.5850  171.0800  134.7270 N   0  0  0  0  0  0  0  0  0  0  0  0
  187.3680  171.4280  135.1350 N   0  0  0  0  0  0  0  0  0  0  0  0
  187.4770  170.2340  134.6650 C   0  0  0  0  0  0  0  0  0  0  0  0
  188.8820  169.8660  134.3470 C   0  0  0  0  0  2  0  0  0  0  0  0
  186.3590  169.3720  134.4900 N   0  0  0  0  0  1  0  0  0  0  0  0
  192.7810  173.8930  135.2480 N   0  0  0  0  0  2  0  0  0  0  0  0
  193.6100  172.7710  135.4010 N   0  0  0  0  0  2  0  0  0  0  0  0
  194.7860  173.0010  134.5850 C   0  0  0  0  0  2  0  0  0  0  0  0
  195.6290  171.8150  134.6050 N   0  0  0  0  0  2  0  0  0  0  0  0
  195.4800  171.2180  135.9200 C   0  0  1  0  0  3  0  0  0  0  0  0
  195.0570  169.3890  134.4420 O   0  0  0  0  0  1  0  0  0  0  0  0
  195.1310  169.7420  135.7890 C   0  0  0  0  0  2  0  0  0  0  0  0
  196.7450  171.4350  136.7490 C   0  0  0  0  0  2  0  0  0  0  0  0
  197.4260  172.7580  136.4300 C   0  0  2  0  0  3  0  0  0  0  0  0
  198.7260  172.4980  135.9640 O   0  0  0  0  0  0  0  0  0  0  0  0
  198.6130  172.9320  137.2980 C   0  0  1  0  0  3  0  0  0  0  0  0
  200.2320  174.8100  136.8180 N   0  0  0  0  0  1  0  0  0  0  0  0
  199.0000  174.3700  137.3800 C   0  0  0  0  0  0  0  0  0  0  0  0
  198.2520  175.1930  137.9720 O   0  0  0  0  0  0  0  0  0  0  0  0
  1  4  2  0  0  0  0
  1 10  1  0  0  0  0
  2  8  2  0  0  0  0
  2  6  1  0  0  0  0
  3 16  1  0  0  0  0
  4  2  1  0  0  0  0
  5  3  2  0  0  0  0
  6  9  2  0  0  0  0
  7  6  1  0  0  0  0
  8  5  1  0  0  0  0
  9  3  1  0  0  0  0
 10  7  2  0  0  0  0
 12 11  1  0  0  0  0
 13 12  2  0  0  0  0
 14 15  1  0  0  0  0
 15 11  2  0  0  0  0
 16 14  2  0  0  0  0
 16 13  1  0  0  0  0
 17 18  1  0  0  0  0
 17 14  1  0  0  0  0
 19  4  1  0  0  0  0
 20 22  1  0  0  0  0
 20 23  1  0  0  0  0
 21 19  1  6  0  0  0
 22 21  1  0  0  0  0
 23 21  1  0  0  0  0
 23 24  1  1  0  0  0
 24 25  2  0  0  0  0
 26 24  1  0  0  0  0
 27 30  1  1  0  0  0
 27 29  1  0  0  0  0
 27 28  1  0  0  0  0
 29 26  1  6  0  0  0
 29 28  1  0  0  0  0
 31 38  1  0  0  0  0
 32 35  1  0  0  0  0
 32 30  1  1  0  0  0
 33 35  1  0  0  0  0
 34 37  1  0  0  0  0
 36 34  1  1  0  0  0
 36 38  1  0  0  0  0
 36 33  1  0  0  0  0
 37 32  1  0  0  0  0
 38 39  1  1  0  0  0
 38 40  1  0  0  0  0
 40 31  1  6  0  0  0
 40 32  1  0  0  0  0
 41  1  1  0  0  0  0
 42 41  1  0  0  0  0
 43 45  1  0  0  0  0
 43 42  1  0  0  0  0
 44 45  2  0  0  0  0
 46 44  2  0  0  0  0
 47 46  1  0  0  0  0
 48 47  2  0  0  0  0
 49 47  1  0  0  0  0
 50 49  2  0  0  0  0
 51 50  1  0  0  0  0
 51 48  1  0  0  0  0
 52 50  1  0  0  0  0
 53 54  1  0  0  0  0
 53 43  1  0  0  0  0
 55 56  1  0  0  0  0
 55 54  1  0  0  0  0
 56 57  1  0  0  0  0
 57 59  1  6  0  0  0
 57 60  1  0  0  0  0
 58 59  1  0  0  0  0
 61 60  1  1  0  0  0
 61 63  1  0  0  0  0
 62 61  1  0  0  0  0
 62 63  1  0  0  0  0
 63 65  1  6  0  0  0
 64 65  1  0  0  0  0
 65 66  2  0  0  0  0
M  END
>  <MODEL>
4

>  <REMARK>
 VINA RESULT:      -6.3      3.950     10.262
  Name = 
  23 active torsions:
  status: ('A' for Active; 'I' for Inactive)
    1  A    between atoms: C_1  and  C_19
    2  A    between atoms: C_3  and  C_45
    3  A    between atoms: C_4  and  C_45
    4  A    between atoms: C_5  and  C_6
    5  A    between atoms: C_6  and  CA_58
    6  A    between atoms: C_8  and  O_18
    7  A    between atoms: C_8  and  C_62
    8  A    between atoms: C_11  and  C_53
    9  A    between atoms: C_12  and  N_61
   10  A    between atoms: C_14  and  N_33
   11  A    between atoms: C_15  and  C_43
   12  A    between atoms: O_18  and  C_28
   13  A    between atoms: C_19  and  C_22
   14  A    between atoms: C_22  and  N_33
   15  A    between atoms: C_24  and  N_61
   16  A    between atoms: C_25  and  C_60
   17  A    between atoms: C_30  and  N_31
   18  A    between atoms: C_30  and  N_39
   19  A    between atoms: N_31  and  CA_58
   20  A    between atoms: N_33  and  N_57
   21  A    between atoms: O_36  and  C_42
   22  A    between atoms: N_39  and  N_57
   23  A    between atoms: C_54  and  CA_58
                            x       y       z     vdW  Elec       q    Type
                         _______ _______ _______ _____ _____    ______ ____

>  <TORSDO>
F 23

$$$$
=
 OpenBabel10232410143D

 66 75  0  0  1  0  0  0  0  0999 V2000
  185.8270  178.2950  141.6100 C   0  0  0  0  0  0  0  0  0  0  0  0
  188.0490  178.0100  142.5520 C   0  0  0  0  0  0  0  0  0  0  0  0
  189.6480  177.3560  144.7860 C   0  0  0  0  0  0  0  0  0  0  0  0
  187.2360  178.3280  141.4490 C   0  0  0  0  0  0  0  0  0  0  0  0
  190.2370  177.7270  143.5650 C   0  0  0  0  0  3  0  0  0  0  0  0
  187.4490  177.6280  143.7720 C   0  0  0  0  0  0  0  0  0  0  0  0
  186.0960  177.5810  143.8820 N   0  0  0  0  0  0  0  0  0  0  0  0
  189.4470  178.0500  142.4600 C   0  0  0  0  0  3  0  0  0  0  0  0
  188.2470  177.3010  144.8720 C   0  0  0  0  0  3  0  0  0  0  0  0
  185.2880  177.9110  142.8440 C   0  0  0  0  0  3  0  0  0  0  0  0
  192.1330  176.2430  148.1160 C   0  0  0  0  0  3  0  0  0  0  0  0
  192.3710  175.7280  146.8430 C   0  0  0  0  0  3  0  0  0  0  0  0
  191.5500  176.0990  145.7780 C   0  0  0  0  0  3  0  0  0  0  0  0
  190.2340  177.5060  147.2630 C   0  0  0  0  0  0  0  0  0  0  0  0
  191.0720  177.1230  148.3250 C   0  0  0  0  0  3  0  0  0  0  0  0
  190.4790  176.9910  145.9640 C   0  0  0  0  0  0  0  0  0  0  0  0
  189.1560  178.3710  147.4920 O   0  0  0  0  0  0  0  0  0  0  0  0
  187.8670  177.9180  147.8840 C   0  0  0  0  0  1  0  0  0  0  0  0
  187.8650  178.6820  140.2050 N   0  0  0  0  0  2  0  0  0  0  0  0
  189.6540  178.0720  137.7320 C   0  0  0  0  0  2  0  0  0  0  0  0
  187.9690  177.8170  139.0400 C   0  0  2  0  0  3  0  0  0  0  0  0
  189.3700  177.2350  138.9680 C   0  0  0  0  0  2  0  0  0  0  0  0
  188.2540  178.6520  137.8010 C   0  0  2  0  0  3  0  0  0  0  0  0
  187.4470  178.1790  136.6320 C   0  0  0  0  0  0  0  0  0  0  0  0
  186.1880  178.1540  136.7250 O   0  0  0  0  0  0  0  0  0  0  0  0
  188.0780  177.8020  135.4420 O   0  0  0  0  0  0  0  0  0  0  0  0
  189.8660  176.2650  135.8850 C   0  0  1  0  0  3  0  0  0  0  0  0
  189.8020  176.5280  134.3970 C   0  0  0  0  0  2  0  0  0  0  0  0
  188.5260  176.4760  135.2090 C   0  0  2  0  0  3  0  0  0  0  0  0
  190.1190  174.7790  136.0970 C   0  0  0  0  0  2  0  0  0  0  0  0
  193.3800  176.3360  136.1520 C   0  0  0  0  0  2  0  0  0  0  0  0
  191.5990  174.4010  136.1330 C   0  0  2  0  0  0  0  0  0  0  0  0
  193.3560  172.6500  135.5770 C   0  0  0  0  0  2  0  0  0  0  0  0
  193.5330  173.8920  137.7140 C   0  0  0  0  0  2  0  0  0  0  0  0
  191.8470  173.0100  135.5090 C   0  0  0  0  0  2  0  0  0  0  0  0
  194.1490  173.7530  136.3080 C   0  0  2  0  0  3  0  0  0  0  0  0
  192.0430  174.2990  137.6130 C   0  0  0  0  0  2  0  0  0  0  0  0
  193.9480  175.0730  135.5200 C   0  0  2  0  0  0  0  0  0  0  0  0
  194.6830  175.2540  134.3500 O   0  0  0  0  0  1  0  0  0  0  0  0
  192.4640  175.4240  135.3310 C   0  0  2  0  0  3  0  0  0  0  0  0
  184.8860  178.7450  140.5390 C   0  0  0  0  0  2  0  0  0  0  0  0
  183.4460  178.7080  141.0280 C   0  0  0  0  0  2  0  0  0  0  0  0
  182.5470  178.4140  139.9200 N   0  0  0  0  0  0  0  0  0  0  0  0
  181.1650  180.3370  139.5090 C   0  0  0  0  0  0  0  0  0  0  0  0
  181.2770  179.0670  139.7940 C   0  0  0  0  0  3  0  0  0  0  0  0
  181.0330  181.6050  139.2250 C   0  0  0  0  0  3  0  0  0  0  0  0
  180.6940  182.0630  137.8730 C   0  0  0  0  0  0  0  0  0  0  0  0
  180.1460  183.2090  137.6240 N   0  0  0  0  0  0  0  0  0  0  0  0
  180.9660  181.2840  136.7160 N   0  0  0  0  0  0  0  0  0  0  0  0
  180.5530  182.0110  135.7370 C   0  0  0  0  0  0  0  0  0  0  0  0
  179.9820  183.3090  136.1830 C   0  0  0  0  0  2  0  0  0  0  0  0
  180.6530  181.6000  134.3780 N   0  0  0  0  0  1  0  0  0  0  0  0
  183.0260  177.6580  138.8390 N   0  0  0  0  0  2  0  0  0  0  0  0
  182.0390  176.7120  138.5230 N   0  0  0  0  0  2  0  0  0  0  0  0
  182.7090  175.4340  138.3810 C   0  0  0  0  0  2  0  0  0  0  0  0
  181.9640  174.5960  137.4530 N   0  0  0  0  0  2  0  0  0  0  0  0
  182.6050  174.7350  136.1570 C   0  0  1  0  0  3  0  0  0  0  0  0
  180.4500  175.6090  135.6110 O   0  0  0  0  0  1  0  0  0  0  0  0
  181.8010  175.6760  135.2720 C   0  0  0  0  0  2  0  0  0  0  0  0
  184.0500  175.2040  136.3270 C   0  0  0  0  0  2  0  0  0  0  0  0
  184.9540  174.1070  136.8690 C   0  0  2  0  0  3  0  0  0  0  0  0
  186.2940  174.4950  136.6920 O   0  0  0  0  0  0  0  0  0  0  0  0
  185.7850  173.5570  135.7740 C   0  0  1  0  0  3  0  0  0  0  0  0
  187.6210  172.0390  136.6120 N   0  0  0  0  0  1  0  0  0  0  0  0
  186.2920  172.1990  136.1280 C   0  0  0  0  0  0  0  0  0  0  0  0
  185.5570  171.1890  135.9720 O   0  0  0  0  0  0  0  0  0  0  0  0
  1 10  1  0  0  0  0
  2  6  1  0  0  0  0
  3  9  1  0  0  0  0
  3 16  1  0  0  0  0
  4  1  2  0  0  0  0
  4  2  1  0  0  0  0
  5  3  2  0  0  0  0
  6  7  1  0  0  0  0
  6  9  2  0  0  0  0
  8  2  2  0  0  0  0
  8  5  1  0  0  0  0
 10  7  2  0  0  0  0
 11 15  1  0  0  0  0
 12 11  2  0  0  0  0
 13 16  2  0  0  0  0
 13 12  1  0  0  0  0
 14 17  1  0  0  0  0
 14 15  2  0  0  0  0
 16 14  1  0  0  0  0
 17 18  1  0  0  0  0
 19  4  1  0  0  0  0
 20 23  1  0  0  0  0
 20 22  1  0  0  0  0
 21 19  1  1  0  0  0
 22 21  1  0  0  0  0
 23 24  1  6  0  0  0
 23 21  1  0  0  0  0
 24 25  2  0  0  0  0
 26 24  1  0  0  0  0
 27 30  1  6  0  0  0
 28 29  1  0  0  0  0
 28 27  1  0  0  0  0
 29 26  1  1  0  0  0
 29 27  1  0  0  0  0
 32 30  1  6  0  0  0
 32 37  1  0  0  0  0
 35 33  1  0  0  0  0
 35 32  1  0  0  0  0
 36 33  1  6  0  0  0
 36 34  1  0  0  0  0
 37 34  1  0  0  0  0
 38 39  1  6  0  0  0
 38 31  1  0  0  0  0
 38 36  1  0  0  0  0
 40 38  1  0  0  0  0
 40 32  1  0  0  0  0
 40 31  1  1  0  0  0
 41 42  1  0  0  0  0
 41  1  1  0  0  0  0
 43 42  1  0  0  0  0
 44 45  2  0  0  0  0
 45 43  1  0  0  0  0
 46 44  2  0  0  0  0
 47 46  1  0  0  0  0
 48 47  2  0  0  0  0
 49 47  1  0  0  0  0
 50 51  1  0  0  0  0
 50 49  2  0  0  0  0
 51 48  1  0  0  0  0
 52 50  1  0  0  0  0
 53 43  1  0  0  0  0
 54 53  1  0  0  0  0
 55 54  1  0  0  0  0
 56 55  1  0  0  0  0
 57 59  1  6  0  0  0
 57 60  1  0  0  0  0
 57 56  1  0  0  0  0
 59 58  1  0  0  0  0
 61 60  1  6  0  0  0
 62 61  1  0  0  0  0
 63 65  1  1  0  0  0
 63 62  1  0  0  0  0
 63 61  1  0  0  0  0
 65 64  1  0  0  0  0
 66 65  2  0  0  0  0
M  END
>  <MODEL>
5

>  <REMARK>
 VINA RESULT:      -6.1      1.445      2.080
  Name = 
  23 active torsions:
  status: ('A' for Active; 'I' for Inactive)
    1  A    between atoms: C_1  and  C_19
    2  A    between atoms: C_3  and  C_45
    3  A    between atoms: C_4  and  C_45
    4  A    between atoms: C_5  and  C_6
    5  A    between atoms: C_6  and  CA_58
    6  A    between atoms: C_8  and  O_18
    7  A    between atoms: C_8  and  C_62
    8  A    between atoms: C_11  and  C_53
    9  A    between atoms: C_12  and  N_61
   10  A    between atoms: C_14  and  N_33
   11  A    between atoms: C_15  and  C_43
   12  A    between atoms: O_18  and  C_28
   13  A    between atoms: C_19  and  C_22
   14  A    between atoms: C_22  and  N_33
   15  A    between atoms: C_24  and  N_61
   16  A    between atoms: C_25  and  C_60
   17  A    between atoms: C_30  and  N_31
   18  A    between atoms: C_30  and  N_39
   19  A    between atoms: N_31  and  CA_58
   20  A    between atoms: N_33  and  N_57
   21  A    between atoms: O_36  and  C_42
   22  A    between atoms: N_39  and  N_57
   23  A    between atoms: C_54  and  CA_58
                            x       y       z     vdW  Elec       q    Type
                         _______ _______ _______ _____ _____    ______ ____

>  <TORSDO>
F 23

$$$$
=
 OpenBabel10232410143D

 66 75  0  0  1  0  0  0  0  0999 V2000
  190.2820  175.1940  136.4030 C   0  0  0  0  0  0  0  0  0  0  0  0
  192.5350  174.3320  136.7000 C   0  0  0  0  0  0  0  0  0  0  0  0
  194.3200  172.1530  136.5080 C   0  0  0  0  0  0  0  0  0  0  0  0
  191.6310  175.4080  136.7840 C   0  0  0  0  0  0  0  0  0  0  0  0
  194.7560  173.3990  136.9900 C   0  0  0  0  0  3  0  0  0  0  0  0
  192.0900  173.0870  136.2030 C   0  0  0  0  0  0  0  0  0  0  0  0
  190.7970  172.9260  135.8230 N   0  0  0  0  0  0  0  0  0  0  0  0
  193.8740  174.4770  137.0850 C   0  0  0  0  0  3  0  0  0  0  0  0
  192.9810  172.0140  136.1070 C   0  0  0  0  0  3  0  0  0  0  0  0
  189.8970  173.9370  135.9210 C   0  0  0  0  0  3  0  0  0  0  0  0
  197.0670  168.8750  136.0450 C   0  0  0  0  0  3  0  0  0  0  0  0
  196.8640  169.7900  135.0120 C   0  0  0  0  0  3  0  0  0  0  0  0
  195.9650  170.8430  135.1830 C   0  0  0  0  0  3  0  0  0  0  0  0
  195.4560  170.0640  137.4300 C   0  0  0  0  0  0  0  0  0  0  0  0
  196.3660  169.0100  137.2420 C   0  0  0  0  0  3  0  0  0  0  0  0
  195.2550  171.0030  136.3860 C   0  0  0  0  0  0  0  0  0  0  0  0
  194.7410  170.1740  138.6300 O   0  0  0  0  0  0  0  0  0  0  0  0
  194.7400  169.1620  139.6270 C   0  0  0  0  0  1  0  0  0  0  0  0
  192.1100  176.6780  137.2590 N   0  0  0  0  0  2  0  0  0  0  0  0
  192.7950  176.5930  140.2940 C   0  0  0  0  0  2  0  0  0  0  0  0
  191.7660  177.2800  138.5390 C   0  0  2  0  0  3  0  0  0  0  0  0
  193.0380  177.6820  139.2640 C   0  0  0  0  0  2  0  0  0  0  0  0
  191.5230  176.1910  139.5720 C   0  0  2  0  0  3  0  0  0  0  0  0
  190.3310  176.5090  140.4220 C   0  0  0  0  0  0  0  0  0  0  0  0
  189.2940  176.9770  139.8750 O   0  0  0  0  0  0  0  0  0  0  0  0
  190.3570  176.2580  141.7980 O   0  0  0  0  0  0  0  0  0  0  0  0
  189.6100  177.6020  143.6390 C   0  0  1  0  0  3  0  0  0  0  0  0
  189.9940  178.5100  142.4930 C   0  0  0  0  0  2  0  0  0  0  0  0
  190.7720  177.2360  142.7390 C   0  0  2  0  0  3  0  0  0  0  0  0
  190.1230  178.2220  144.9320 C   0  0  0  0  0  2  0  0  0  0  0  0
  186.7180  177.3040  145.7240 C   0  0  0  0  0  2  0  0  0  0  0  0
  189.2320  177.9540  146.1440 C   0  0  2  0  0  0  0  0  0  0  0  0
  188.8100  178.4100  148.6090 C   0  0  0  0  0  2  0  0  0  0  0  0
  188.4510  176.1200  147.7320 C   0  0  0  0  0  2  0  0  0  0  0  0
  189.7250  178.7170  147.3940 C   0  0  0  0  0  2  0  0  0  0  0  0
  187.7220  177.3840  148.2290 C   0  0  2  0  0  3  0  0  0  0  0  0
  189.3170  176.4480  146.4920 C   0  0  0  0  0  2  0  0  0  0  0  0
  186.8900  177.9920  147.0710 C   0  0  2  0  0  0  0  0  0  0  0  0
  185.9360  178.9570  147.3890 O   0  0  0  0  0  1  0  0  0  0  0  0
  187.7630  178.4130  145.8790 C   0  0  2  0  0  3  0  0  0  0  0  0
  189.2220  176.2340  136.5840 C   0  0  0  0  0  2  0  0  0  0  0  0
  187.9000  175.6000  136.9860 C   0  0  0  0  0  2  0  0  0  0  0  0
  186.7960  176.4970  136.6710 N   0  0  0  0  0  0  0  0  0  0  0  0
  185.7820  178.2900  137.9100 C   0  0  0  0  0  0  0  0  0  0  0  0
  186.7590  177.8410  137.1680 C   0  0  0  0  0  3  0  0  0  0  0  0
  184.8130  178.7560  138.6520 C   0  0  0  0  0  3  0  0  0  0  0  0
  184.9500  178.8900  140.1060 C   0  0  0  0  0  0  0  0  0  0  0  0
  185.8110  179.6730  140.6720 N   0  0  0  0  0  0  0  0  0  0  0  0
  184.1220  178.1810  141.0170 N   0  0  0  0  0  0  0  0  0  0  0  0
  184.5200  178.5660  142.1790 C   0  0  0  0  0  0  0  0  0  0  0  0
  185.6340  179.5480  142.1090 C   0  0  0  0  0  2  0  0  0  0  0  0
  183.9350  178.0970  143.3870 N   0  0  0  0  0  1  0  0  0  0  0  0
  185.8760  176.1190  135.6800 N   0  0  0  0  0  2  0  0  0  0  0  0
  184.6630  175.8370  136.3260 N   0  0  0  0  0  2  0  0  0  0  0  0
  184.3640  174.4410  136.0700 C   0  0  0  0  0  2  0  0  0  0  0  0
  182.9210  174.2550  136.0230 N   0  0  0  0  0  2  0  0  0  0  0  0
  182.5360  173.6550  137.2880 C   0  0  1  0  0  3  0  0  0  0  0  0
  180.4770  173.7760  138.4940 O   0  0  0  0  0  1  0  0  0  0  0  0
  181.5340  174.5460  138.0080 C   0  0  0  0  0  2  0  0  0  0  0  0
  181.9900  172.2450  137.0630 C   0  0  0  0  0  2  0  0  0  0  0  0
  182.5520  171.6010  135.8050 C   0  0  2  0  0  3  0  0  0  0  0  0
  182.0900  170.2750  135.7290 O   0  0  0  0  0  0  0  0  0  0  0  0
  183.4150  170.4550  136.1720 C   0  0  1  0  0  3  0  0  0  0  0  0
  184.2190  168.8920  134.3580 N   0  0  0  0  0  1  0  0  0  0  0  0
  184.3520  170.1240  135.0610 C   0  0  0  0  0  0  0  0  0  0  0  0
  185.2820  170.9180  134.7600 O   0  0  0  0  0  0  0  0  0  0  0  0
  1 41  1  0  0  0  0
  1  4  1  0  0  0  0
  2  4  2  0  0  0  0
  2  8  1  0  0  0  0
  3  5  1  0  0  0  0
  4 19  1  0  0  0  0
  5  8  2  0  0  0  0
  6  2  1  0  0  0  0
  7 10  1  0  0  0  0
  7  6  2  0  0  0  0
  9  6  1  0  0  0  0
  9  3  2  0  0  0  0
 10  1  2  0  0  0  0
 11 15  1  0  0  0  0
 12 13  1  0  0  0  0
 12 11  2  0  0  0  0
 13 16  2  0  0  0  0
 14 17  1  0  0  0  0
 15 14  2  0  0  0  0
 16  3  1  0  0  0  0
 16 14  1  0  0  0  0
 17 18  1  0  0  0  0
 21 19  1  6  0  0  0
 21 22  1  0  0  0  0
 21 23  1  0  0  0  0
 22 20  1  0  0  0  0
 23 20  1  0  0  0  0
 23 24  1  1  0  0  0
 24 26  1  0  0  0  0
 25 24  2  0  0  0  0
 27 30  1  1  0  0  0
 28 29  1  0  0  0  0
 28 27  1  0  0  0  0
 29 26  1  6  0  0  0
 29 27  1  0  0  0  0
 31 38  1  0  0  0  0
 32 30  1  6  0  0  0
 32 37  1  0  0  0  0
 32 35  1  0  0  0  0
 35 33  1  0  0  0  0
 36 34  1  6  0  0  0
 36 33  1  0  0  0  0
 37 34  1  0  0  0  0
 38 39  1  1  0  0  0
 38 36  1  0  0  0  0
 40 31  1  6  0  0  0
 40 32  1  0  0  0  0
 40 38  1  0  0  0  0
 41 42  1  0  0  0  0
 43 42  1  0  0  0  0
 43 45  1  0  0  0  0
 44 46  2  0  0  0  0
 45 44  2  0  0  0  0
 46 47  1  0  0  0  0
 47 48  2  0  0  0  0
 47 49  1  0  0  0  0
 48 51  1  0  0  0  0
 49 50  2  0  0  0  0
 50 52  1  0  0  0  0
 51 50  1  0  0  0  0
 53 54  1  0  0  0  0
 53 43  1  0  0  0  0
 55 54  1  0  0  0  0
 56 55  1  0  0  0  0
 56 57  1  0  0  0  0
 57 60  1  6  0  0  0
 57 59  1  0  0  0  0
 59 58  1  0  0  0  0
 61 63  1  0  0  0  0
 61 60  1  1  0  0  0
 62 61  1  0  0  0  0
 62 63  1  0  0  0  0
 63 65  1  6  0  0  0
 64 65  1  0  0  0  0
 66 65  2  0  0  0  0
M  END
>  <MODEL>
6

>  <REMARK>
 VINA RESULT:      -5.4      3.042      8.891
  Name = 
  23 active torsions:
  status: ('A' for Active; 'I' for Inactive)
    1  A    between atoms: C_1  and  C_19
    2  A    between atoms: C_3  and  C_45
    3  A    between atoms: C_4  and  C_45
    4  A    between atoms: C_5  and  C_6
    5  A    between atoms: C_6  and  CA_58
    6  A    between atoms: C_8  and  O_18
    7  A    between atoms: C_8  and  C_62
    8  A    between atoms: C_11  and  C_53
    9  A    between atoms: C_12  and  N_61
   10  A    between atoms: C_14  and  N_33
   11  A    between atoms: C_15  and  C_43
   12  A    between atoms: O_18  and  C_28
   13  A    between atoms: C_19  and  C_22
   14  A    between atoms: C_22  and  N_33
   15  A    between atoms: C_24  and  N_61
   16  A    between atoms: C_25  and  C_60
   17  A    between atoms: C_30  and  N_31
   18  A    between atoms: C_30  and  N_39
   19  A    between atoms: N_31  and  CA_58
   20  A    between atoms: N_33  and  N_57
   21  A    between atoms: O_36  and  C_42
   22  A    between atoms: N_39  and  N_57
   23  A    between atoms: C_54  and  CA_58
                            x       y       z     vdW  Elec       q    Type
                         _______ _______ _______ _____ _____    ______ ____

>  <TORSDO>
F 23

$$$$
=
 OpenBabel10232410143D

 66 75  0  0  1  0  0  0  0  0999 V2000
  188.7570  177.7120  139.2880 C   0  0  0  0  0  0  0  0  0  0  0  0
  190.2080  176.7630  137.5860 C   0  0  0  0  0  0  0  0  0  0  0  0
  192.5110  175.2540  136.9570 C   0  0  0  0  0  0  0  0  0  0  0  0
  189.0620  177.5080  137.9180 C   0  0  0  0  0  0  0  0  0  0  0  0
  191.7130  175.8040  135.9400 C   0  0  0  0  0  3  0  0  0  0  0  0
  190.9990  176.2050  138.6140 C   0  0  0  0  0  0  0  0  0  0  0  0
  190.6610  176.3980  139.9150 N   0  0  0  0  0  0  0  0  0  0  0  0
  190.5730  176.5500  136.2490 C   0  0  0  0  0  3  0  0  0  0  0  0
  192.1340  175.4550  138.2960 C   0  0  0  0  0  3  0  0  0  0  0  0
  189.5780  177.1370  140.2650 C   0  0  0  0  0  3  0  0  0  0  0  0
  195.9290  172.8020  136.0600 C   0  0  0  0  0  3  0  0  0  0  0  0
  194.7780  172.2480  136.6160 C   0  0  0  0  0  3  0  0  0  0  0  0
  193.6820  173.0630  136.9030 C   0  0  0  0  0  3  0  0  0  0  0  0
  194.8930  175.0060  136.0820 C   0  0  0  0  0  0  0  0  0  0  0  0
  195.9870  174.1700  135.7980 C   0  0  0  0  0  3  0  0  0  0  0  0
  193.7160  174.4430  136.6380 C   0  0  0  0  0  0  0  0  0  0  0  0
  194.9740  176.3820  135.8360 O   0  0  0  0  0  0  0  0  0  0  0  0
  196.1420  177.0120  135.3290 C   0  0  0  0  0  1  0  0  0  0  0  0
  188.2500  178.0400  136.8570 N   0  0  0  0  0  2  0  0  0  0  0  0
  185.7280  176.2170  136.8290 C   0  0  0  0  0  2  0  0  0  0  0  0
  187.4020  177.2540  135.9730 C   0  0  2  0  0  3  0  0  0  0  0  0
  185.9460  177.5980  136.2350 C   0  0  0  0  0  2  0  0  0  0  0  0
  187.1810  175.8710  136.5660 C   0  0  2  0  0  3  0  0  0  0  0  0
  187.2700  174.8100  135.5130 C   0  0  0  0  0  0  0  0  0  0  0  0
  186.8640  175.0680  134.3460 O   0  0  0  0  0  0  0  0  0  0  0  0
  187.8290  173.5630  135.8110 O   0  0  0  0  0  0  0  0  0  0  0  0
  185.5940  172.7410  136.0980 C   0  0  1  0  0  3  0  0  0  0  0  0
  186.4430  172.2680  137.2570 C   0  0  0  0  0  2  0  0  0  0  0  0
  187.0480  172.3790  135.8740 C   0  0  2  0  0  3  0  0  0  0  0  0
  184.6950  171.5900  135.6650 C   0  0  0  0  0  2  0  0  0  0  0  0
  182.0700  173.7610  134.4540 C   0  0  0  0  0  2  0  0  0  0  0  0
  183.2050  171.8570  135.8710 C   0  0  2  0  0  0  0  0  0  0  0  0
  181.2240  171.7170  137.4590 C   0  0  0  0  0  2  0  0  0  0  0  0
  180.8830  171.1800  135.0640 C   0  0  0  0  0  2  0  0  0  0  0  0
  182.7430  171.4500  137.2880 C   0  0  0  0  0  2  0  0  0  0  0  0
  180.6110  172.2440  136.1450 C   0  0  2  0  0  3  0  0  0  0  0  0
  182.4060  170.9710  134.8840 C   0  0  0  0  0  2  0  0  0  0  0  0
  181.3490  173.5580  135.7790 C   0  0  2  0  0  0  0  0  0  0  0  0
  180.9950  174.7180  136.4640 O   0  0  0  0  0  1  0  0  0  0  0  0
  182.8720  173.3730  135.7010 C   0  0  2  0  0  3  0  0  0  0  0  0
  187.6400  178.5990  139.7390 C   0  0  0  0  0  2  0  0  0  0  0  0
  187.8270  179.0160  141.1900 C   0  0  0  0  0  2  0  0  0  0  0  0
  187.1560  178.0730  142.0740 N   0  0  0  0  0  0  0  0  0  0  0  0
  184.9430  178.5580  141.2690 C   0  0  0  0  0  0  0  0  0  0  0  0
  185.7260  178.0270  142.1710 C   0  0  0  0  0  3  0  0  0  0  0  0
  184.1450  179.0820  140.3790 C   0  0  0  0  0  3  0  0  0  0  0  0
  183.4740  178.2630  139.3640 C   0  0  0  0  0  0  0  0  0  0  0  0
  183.1390  177.0270  139.5520 N   0  0  0  0  0  0  0  0  0  0  0  0
  183.1150  178.7760  138.0880 N   0  0  0  0  0  0  0  0  0  0  0  0
  182.5410  177.7870  137.4960 C   0  0  0  0  0  0  0  0  0  0  0  0
  182.4870  176.5630  138.3380 C   0  0  0  0  0  2  0  0  0  0  0  0
  182.0120  177.8820  136.1780 N   0  0  0  0  0  1  0  0  0  0  0  0
  187.9050  177.0430  142.6630 N   0  0  0  0  0  2  0  0  0  0  0  0
  188.7860  177.6390  143.5770 N   0  0  0  0  0  2  0  0  0  0  0  0
  188.8800  176.7470  144.7160 C   0  0  0  0  0  2  0  0  0  0  0  0
  187.5960  176.6980  145.4010 N   0  0  0  0  0  2  0  0  0  0  0  0
  187.3910  178.0060  145.9980 C   0  0  1  0  0  3  0  0  0  0  0  0
  185.3970  178.3320  147.2730 O   0  0  0  0  0  1  0  0  0  0  0  0
  185.9130  178.3650  145.9770 C   0  0  0  0  0  2  0  0  0  0  0  0
  187.9690  178.0410  147.4120 C   0  0  0  0  0  2  0  0  0  0  0  0
  189.1950  177.1520  147.5590 C   0  0  2  0  0  3  0  0  0  0  0  0
  190.1020  177.7710  148.4360 O   0  0  0  0  0  0  0  0  0  0  0  0
  190.3930  177.8660  147.0610 C   0  0  1  0  0  3  0  0  0  0  0  0
  191.9770  176.0110  147.7160 N   0  0  0  0  0  1  0  0  0  0  0  0
  191.4790  176.9010  146.7230 C   0  0  0  0  0  0  0  0  0  0  0  0
  191.9760  176.8900  145.5660 O   0  0  0  0  0  0  0  0  0  0  0  0
  1 41  1  0  0  0  0
  1 10  1  0  0  0  0
  2  4  1  0  0  0  0
  2  6  1  0  0  0  0
  3  9  1  0  0  0  0
  4  1  2  0  0  0  0
  5  8  1  0  0  0  0
  5  3  2  0  0  0  0
  6  7  1  0  0  0  0
  7 10  2  0  0  0  0
  8  2  2  0  0  0  0
  9  6  2  0  0  0  0
 11 12  1  0  0  0  0
 12 13  2  0  0  0  0
 14 16  2  0  0  0  0
 15 11  2  0  0  0  0
 15 14  1  0  0  0  0
 16 13  1  0  0  0  0
 16  3  1  0  0  0  0
 17 14  1  0  0  0  0
 18 17  1  0  0  0  0
 19  4  1  0  0  0  0
 21 22  1  0  0  0  0
 21 23  1  0  0  0  0
 21 19  1  1  0  0  0
 22 20  1  0  0  0  0
 23 24  1  6  0  0  0
 23 20  1  0  0  0  0
 24 26  1  0  0  0  0
 25 24  2  0  0  0  0
 27 30  1  6  0  0  0
 27 28  1  0  0  0  0
 29 26  1  1  0  0  0
 29 27  1  0  0  0  0
 29 28  1  0  0  0  0
 31 38  1  0  0  0  0
 32 30  1  6  0  0  0
 32 35  1  0  0  0  0
 35 33  1  0  0  0  0
 36 34  1  6  0  0  0
 36 33  1  0  0  0  0
 37 34  1  0  0  0  0
 37 32  1  0  0  0  0
 38 36  1  0  0  0  0
 38 39  1  1  0  0  0
 40 31  1  6  0  0  0
 40 38  1  0  0  0  0
 40 32  1  0  0  0  0
 41 42  1  0  0  0  0
 42 43  1  0  0  0  0
 43 45  1  0  0  0  0
 43 53  1  0  0  0  0
 44 45  2  0  0  0  0
 46 44  2  0  0  0  0
 47 48  2  0  0  0  0
 47 46  1  0  0  0  0
 49 47  1  0  0  0  0
 50 49  2  0  0  0  0
 50 51  1  0  0  0  0
 51 48  1  0  0  0  0
 52 50  1  0  0  0  0
 53 54  1  0  0  0  0
 54 55  1  0  0  0  0
 55 56  1  0  0  0  0
 56 57  1  0  0  0  0
 57 59  1  1  0  0  0
 57 60  1  0  0  0  0
 59 58  1  0  0  0  0
 61 60  1  6  0  0  0
 61 62  1  0  0  0  0
 63 65  1  1  0  0  0
 63 61  1  0  0  0  0
 63 62  1  0  0  0  0
 65 64  1  0  0  0  0
 66 65  2  0  0  0  0
M  END
>  <MODEL>
7

>  <REMARK>
 VINA RESULT:      -5.4      2.612      9.458
  Name = 
  23 active torsions:
  status: ('A' for Active; 'I' for Inactive)
    1  A    between atoms: C_1  and  C_19
    2  A    between atoms: C_3  and  C_45
    3  A    between atoms: C_4  and  C_45
    4  A    between atoms: C_5  and  C_6
    5  A    between atoms: C_6  and  CA_58
    6  A    between atoms: C_8  and  O_18
    7  A    between atoms: C_8  and  C_62
    8  A    between atoms: C_11  and  C_53
    9  A    between atoms: C_12  and  N_61
   10  A    between atoms: C_14  and  N_33
   11  A    between atoms: C_15  and  C_43
   12  A    between atoms: O_18  and  C_28
   13  A    between atoms: C_19  and  C_22
   14  A    between atoms: C_22  and  N_33
   15  A    between atoms: C_24  and  N_61
   16  A    between atoms: C_25  and  C_60
   17  A    between atoms: C_30  and  N_31
   18  A    between atoms: C_30  and  N_39
   19  A    between atoms: N_31  and  CA_58
   20  A    between atoms: N_33  and  N_57
   21  A    between atoms: O_36  and  C_42
   22  A    between atoms: N_39  and  N_57
   23  A    between atoms: C_54  and  CA_58
                            x       y       z     vdW  Elec       q    Type
                         _______ _______ _______ _____ _____    ______ ____

>  <TORSDO>
F 23

$$$$
=
 OpenBabel10232410143D

 66 75  0  0  1  0  0  0  0  0999 V2000
  190.6150  177.2710  138.8110 C   0  0  0  0  0  0  0  0  0  0  0  0
  189.2230  177.2960  140.8020 C   0  0  0  0  0  0  0  0  0  0  0  0
  189.0590  177.3110  143.6220 C   0  0  0  0  0  0  0  0  0  0  0  0
  189.3250  177.2940  139.3990 C   0  0  0  0  0  0  0  0  0  0  0  0
  187.8950  177.3010  142.8340 C   0  0  0  0  0  3  0  0  0  0  0  0
  190.3980  177.3170  141.5860 C   0  0  0  0  0  0  0  0  0  0  0  0
  191.6170  177.3210  140.9880 N   0  0  0  0  0  0  0  0  0  0  0  0
  187.9750  177.2940  141.4400 C   0  0  0  0  0  3  0  0  0  0  0  0
  190.3090  177.3290  142.9800 C   0  0  0  0  0  3  0  0  0  0  0  0
  191.7450  177.2900  139.6370 C   0  0  0  0  0  3  0  0  0  0  0  0
  188.9700  177.3560  147.9220 C   0  0  0  0  0  3  0  0  0  0  0  0
  190.0930  176.8980  147.2350 C   0  0  0  0  0  3  0  0  0  0  0  0
  190.0980  176.8880  145.8400 C   0  0  0  0  0  3  0  0  0  0  0  0
  187.8410  177.7920  145.8090 C   0  0  0  0  0  0  0  0  0  0  0  0
  187.8520  177.7970  147.2150 C   0  0  0  0  0  3  0  0  0  0  0  0
  188.9850  177.3360  145.1070 C   0  0  0  0  0  0  0  0  0  0  0  0
  186.7020  178.2150  145.1120 O   0  0  0  0  0  0  0  0  0  0  0  0
  185.6380  178.9290  145.7250 C   0  0  0  0  0  1  0  0  0  0  0  0
  188.1180  177.3070  138.6180 N   0  0  0  0  0  2  0  0  0  0  0  0
  185.2020  178.1500  137.9300 C   0  0  0  0  0  2  0  0  0  0  0  0
  186.7670  177.3440  139.1590 C   0  0  2  0  0  3  0  0  0  0  0  0
  185.8000  176.7700  138.1390 C   0  0  0  0  0  2  0  0  0  0  0  0
  186.1650  178.7250  138.9500 C   0  0  2  0  0  3  0  0  0  0  0  0
  185.4140  179.1770  140.1650 C   0  0  0  0  0  0  0  0  0  0  0  0
  186.0580  179.6200  141.1550 O   0  0  0  0  0  0  0  0  0  0  0  0
  184.0160  179.1400  140.1860 O   0  0  0  0  0  0  0  0  0  0  0  0
  182.2520  177.6520  139.5300 C   0  0  1  0  0  3  0  0  0  0  0  0
  181.8480  178.3610  140.8030 C   0  0  0  0  0  2  0  0  0  0  0  0
  183.2950  177.9810  140.5780 C   0  0  2  0  0  3  0  0  0  0  0  0
  181.8370  176.1910  139.6440 C   0  0  0  0  0  2  0  0  0  0  0  0
  183.1100  173.8990  137.1560 C   0  0  0  0  0  2  0  0  0  0  0  0
  181.4290  175.5580  138.3150 C   0  0  2  0  0  0  0  0  0  0  0  0
  180.0220  175.7670  136.2070 C   0  0  0  0  0  2  0  0  0  0  0  0
  180.2290  173.5510  137.2980 C   0  0  0  0  0  2  0  0  0  0  0  0
  180.4290  176.4460  137.5420 C   0  0  0  0  0  2  0  0  0  0  0  0
  180.6820  174.3780  136.0780 C   0  0  2  0  0  3  0  0  0  0  0  0
  180.6910  174.2290  138.6110 C   0  0  0  0  0  2  0  0  0  0  0  0
  182.2180  174.5830  136.1300 C   0  0  2  0  0  0  0  0  0  0  0  0
  182.8540  175.0440  134.9800 O   0  0  0  0  0  1  0  0  0  0  0  0
  182.6660  175.3470  137.3850 C   0  0  2  0  0  3  0  0  0  0  0  0
  190.8230  177.1310  137.3360 C   0  0  0  0  0  2  0  0  0  0  0  0
  192.0840  176.3350  137.0360 C   0  0  0  0  0  2  0  0  0  0  0  0
  191.7380  174.9750  136.6460 N   0  0  0  0  0  0  0  0  0  0  0  0
  193.7320  174.5910  135.3590 C   0  0  0  0  0  0  0  0  0  0  0  0
  192.5080  174.2580  135.6710 C   0  0  0  0  0  3  0  0  0  0  0  0
  194.9560  174.9090  135.0350 C   0  0  0  0  0  3  0  0  0  0  0  0
  196.1110  174.1750  135.5630 C   0  0  0  0  0  0  0  0  0  0  0  0
  196.0750  172.9220  135.8830 N   0  0  0  0  0  0  0  0  0  0  0  0
  197.3820  174.7860  135.7450 N   0  0  0  0  0  0  0  0  0  0  0  0
  198.1290  173.8400  136.1990 C   0  0  0  0  0  0  0  0  0  0  0  0
  197.4020  172.5520  136.3470 C   0  0  0  0  0  2  0  0  0  0  0  0
  199.5050  174.0290  136.5080 N   0  0  0  0  0  1  0  0  0  0  0  0
  190.7840  174.2740  137.3990 N   0  0  0  0  0  2  0  0  0  0  0  0
  189.5510  174.4160  136.7450 N   0  0  0  0  0  2  0  0  0  0  0  0
  189.6090  173.5940  135.5520 C   0  0  0  0  0  2  0  0  0  0  0  0
  188.7110  174.1370  134.5430 N   0  0  0  0  0  2  0  0  0  0  0  0
  187.6370  174.8040  135.2570 C   0  0  1  0  0  3  0  0  0  0  0  0
  188.2890  177.1030  135.2790 O   0  0  0  0  0  1  0  0  0  0  0  0
  187.4110  176.1960  134.6840 C   0  0  0  0  0  2  0  0  0  0  0  0
  186.3660  173.9570  135.2170 C   0  0  0  0  0  2  0  0  0  0  0  0
  186.6260  172.5470  134.7080 C   0  0  2  0  0  3  0  0  0  0  0  0
  185.5450  171.7260  135.0730 O   0  0  0  0  0  0  0  0  0  0  0  0
  186.7120  171.6100  135.8520 C   0  0  1  0  0  3  0  0  0  0  0  0
  186.9880  169.5940  134.3560 N   0  0  0  0  0  1  0  0  0  0  0  0
  187.4400  170.3680  135.4620 C   0  0  0  0  0  0  0  0  0  0  0  0
  188.4390  169.9860  136.1280 O   0  0  0  0  0  0  0  0  0  0  0  0
  1  4  2  0  0  0  0
  1 10  1  0  0  0  0
  2  8  2  0  0  0  0
  2  6  1  0  0  0  0
  3 16  1  0  0  0  0
  4  2  1  0  0  0  0
  5  3  2  0  0  0  0
  6  9  2  0  0  0  0
  7  6  1  0  0  0  0
  8  5  1  0  0  0  0
  9  3  1  0  0  0  0
 10  7  2  0  0  0  0
 12 11  1  0  0  0  0
 13 12  2  0  0  0  0
 14 15  1  0  0  0  0
 15 11  2  0  0  0  0
 16 14  2  0  0  0  0
 16 13  1  0  0  0  0
 17 18  1  0  0  0  0
 17 14  1  0  0  0  0
 19  4  1  0  0  0  0
 20 22  1  0  0  0  0
 20 23  1  0  0  0  0
 21 19  1  6  0  0  0
 22 21  1  0  0  0  0
 23 21  1  0  0  0  0
 23 24  1  1  0  0  0
 24 26  1  0  0  0  0
 24 25  2  0  0  0  0
 27 30  1  1  0  0  0
 27 29  1  0  0  0  0
 27 28  1  0  0  0  0
 29 26  1  6  0  0  0
 29 28  1  0  0  0  0
 32 37  1  0  0  0  0
 32 30  1  1  0  0  0
 33 35  1  0  0  0  0
 34 37  1  0  0  0  0
 35 32  1  0  0  0  0
 36 38  1  0  0  0  0
 36 33  1  1  0  0  0
 36 34  1  0  0  0  0
 38 39  1  6  0  0  0
 38 31  1  0  0  0  0
 38 40  1  0  0  0  0
 40 31  1  1  0  0  0
 40 32  1  0  0  0  0
 41  1  1  0  0  0  0
 42 41  1  0  0  0  0
 43 42  1  0  0  0  0
 43 53  1  0  0  0  0
 44 45  2  0  0  0  0
 45 43  1  0  0  0  0
 46 44  2  0  0  0  0
 46 47  1  0  0  0  0
 47 49  1  0  0  0  0
 47 48  2  0  0  0  0
 48 51  1  0  0  0  0
 49 50  2  0  0  0  0
 50 51  1  0  0  0  0
 50 52  1  0  0  0  0
 54 53  1  0  0  0  0
 55 54  1  0  0  0  0
 56 57  1  0  0  0  0
 56 55  1  0  0  0  0
 57 59  1  6  0  0  0
 59 58  1  0  0  0  0
 60 57  1  0  0  0  0
 61 62  1  0  0  0  0
 61 60  1  1  0  0  0
 61 63  1  0  0  0  0
 62 63  1  0  0  0  0
 63 65  1  6  0  0  0
 64 65  1  0  0  0  0
 65 66  2  0  0  0  0
M  END
>  <MODEL>
8

>  <REMARK>
 VINA RESULT:      -5.3      3.691      9.767
  Name = 
  23 active torsions:
  status: ('A' for Active; 'I' for Inactive)
    1  A    between atoms: C_1  and  C_19
    2  A    between atoms: C_3  and  C_45
    3  A    between atoms: C_4  and  C_45
    4  A    between atoms: C_5  and  C_6
    5  A    between atoms: C_6  and  CA_58
    6  A    between atoms: C_8  and  O_18
    7  A    between atoms: C_8  and  C_62
    8  A    between atoms: C_11  and  C_53
    9  A    between atoms: C_12  and  N_61
   10  A    between atoms: C_14  and  N_33
   11  A    between atoms: C_15  and  C_43
   12  A    between atoms: O_18  and  C_28
   13  A    between atoms: C_19  and  C_22
   14  A    between atoms: C_22  and  N_33
   15  A    between atoms: C_24  and  N_61
   16  A    between atoms: C_25  and  C_60
   17  A    between atoms: C_30  and  N_31
   18  A    between atoms: C_30  and  N_39
   19  A    between atoms: N_31  and  CA_58
   20  A    between atoms: N_33  and  N_57
   21  A    between atoms: O_36  and  C_42
   22  A    between atoms: N_39  and  N_57
   23  A    between atoms: C_54  and  CA_58
                            x       y       z     vdW  Elec       q    Type
                         _______ _______ _______ _____ _____    ______ ____

>  <TORSDO>
F 23

$$$$
=
 OpenBabel10232410143D

 66 75  0  0  1  0  0  0  0  0999 V2000
  188.5810  177.8640  140.1790 C   0  0  0  0  0  0  0  0  0  0  0  0
  188.7420  177.7510  142.6010 C   0  0  0  0  0  0  0  0  0  0  0  0
  190.2030  176.9420  144.8790 C   0  0  0  0  0  0  0  0  0  0  0  0
  188.0310  178.1510  141.4540 C   0  0  0  0  0  0  0  0  0  0  0  0
  188.9600  177.5840  145.0130 C   0  0  0  0  0  3  0  0  0  0  0  0
  189.9960  177.1150  142.4580 C   0  0  0  0  0  0  0  0  0  0  0  0
  190.5030  176.8800  141.2200 N   0  0  0  0  0  0  0  0  0  0  0  0
  188.2370  177.9850  143.8870 C   0  0  0  0  0  3  0  0  0  0  0  0
  190.7150  176.7220  143.5890 C   0  0  0  0  0  3  0  0  0  0  0  0
  189.8260  177.2290  140.0970 C   0  0  0  0  0  3  0  0  0  0  0  0
  192.5730  175.7090  148.2500 C   0  0  0  0  0  3  0  0  0  0  0  0
  192.9850  175.4330  146.9470 C   0  0  0  0  0  3  0  0  0  0  0  0
  192.1980  175.8390  145.8690 C   0  0  0  0  0  3  0  0  0  0  0  0
  190.5680  176.7970  147.3980 C   0  0  0  0  0  0  0  0  0  0  0  0
  191.3740  176.3820  148.4730 C   0  0  0  0  0  3  0  0  0  0  0  0
  190.9890  176.5270  146.0710 C   0  0  0  0  0  0  0  0  0  0  0  0
  189.3530  177.4510  147.6380 O   0  0  0  0  0  0  0  0  0  0  0  0
  189.1910  178.4400  148.6460 C   0  0  0  0  0  1  0  0  0  0  0  0
  186.7730  178.8270  141.6220 N   0  0  0  0  0  2  0  0  0  0  0  0
  183.8120  177.8670  141.6370 C   0  0  0  0  0  2  0  0  0  0  0  0
  185.7010  178.4000  142.5090 C   0  0  2  0  0  3  0  0  0  0  0  0
  185.0880  177.1170  141.9770 C   0  0  0  0  0  2  0  0  0  0  0  0
  184.4220  179.1490  142.1700 C   0  0  2  0  0  3  0  0  0  0  0  0
  183.7030  179.5800  143.4110 C   0  0  0  0  0  0  0  0  0  0  0  0
  184.3490  179.6840  144.4910 O   0  0  0  0  0  0  0  0  0  0  0  0
  182.3410  179.8960  143.3660 O   0  0  0  0  0  0  0  0  0  0  0  0
  180.6200  179.7740  141.7000 C   0  0  1  0  0  3  0  0  0  0  0  0
  179.9980  179.5710  143.0630 C   0  0  0  0  0  2  0  0  0  0  0  0
  181.3820  179.0300  142.7770 C   0  0  2  0  0  3  0  0  0  0  0  0
  179.9820  178.7870  140.7320 C   0  0  0  0  0  2  0  0  0  0  0  0
  180.8780  176.0010  138.6090 C   0  0  0  0  0  2  0  0  0  0  0  0
  180.8430  178.4730  139.5090 C   0  0  2  0  0  0  0  0  0  0  0  0
  182.8770  179.1150  138.1260 C   0  0  0  0  0  2  0  0  0  0  0  0
  180.8110  178.3940  136.9620 C   0  0  0  0  0  2  0  0  0  0  0  0
  182.0340  179.4500  139.3850 C   0  0  0  0  0  2  0  0  0  0  0  0
  182.2410  177.9530  137.3350 C   0  0  2  0  0  3  0  0  0  0  0  0
  179.9820  178.6730  138.2380 C   0  0  0  0  0  2  0  0  0  0  0  0
  182.1760  176.7250  138.2790 C   0  0  2  0  0  0  0  0  0  0  0  0
  183.3480  176.0010  138.4910 O   0  0  0  0  0  1  0  0  0  0  0  0
  181.4410  177.0330  139.5920 C   0  0  2  0  0  3  0  0  0  0  0  0
  187.8400  178.1270  138.9080 C   0  0  0  0  0  2  0  0  0  0  0  0
  187.5840  176.8360  138.1470 C   0  0  0  0  0  2  0  0  0  0  0  0
  187.9110  177.0080  136.7380 N   0  0  0  0  0  0  0  0  0  0  0  0
  186.8090  175.4370  135.2910 C   0  0  0  0  0  0  0  0  0  0  0  0
  186.9770  176.6640  135.7060 C   0  0  0  0  0  3  0  0  0  0  0  0
  186.6280  174.2160  134.8630 C   0  0  0  0  0  3  0  0  0  0  0  0
  185.4850  173.4070  135.2970 C   0  0  0  0  0  0  0  0  0  0  0  0
  184.9620  173.4850  136.4780 N   0  0  0  0  0  0  0  0  0  0  0  0
  184.8390  172.4790  134.4350 N   0  0  0  0  0  0  0  0  0  0  0  0
  183.8890  171.9860  135.1510 C   0  0  0  0  0  0  0  0  0  0  0  0
  183.8490  172.5520  136.5250 C   0  0  0  0  0  2  0  0  0  0  0  0
  182.9790  171.0110  134.6540 N   0  0  0  0  0  1  0  0  0  0  0  0
  189.0590  177.7360  136.3920 N   0  0  0  0  0  2  0  0  0  0  0  0
  189.8430  176.9120  135.5700 N   0  0  0  0  0  2  0  0  0  0  0  0
  190.7930  176.2370  136.4320 C   0  0  0  0  0  2  0  0  0  0  0  0
  191.9570  175.8400  135.6540 N   0  0  0  0  0  2  0  0  0  0  0  0
  193.0990  175.9000  136.5500 C   0  0  1  0  0  3  0  0  0  0  0  0
  193.7380  177.2840  138.3900 O   0  0  0  0  0  1  0  0  0  0  0  0
  192.6910  176.5170  137.8790 C   0  0  0  0  0  2  0  0  0  0  0  0
  193.7090  174.5110  136.7270 C   0  0  0  0  0  2  0  0  0  0  0  0
  195.2300  174.5420  136.7230 C   0  0  2  0  0  3  0  0  0  0  0  0
  195.7050  173.4250  136.0140 O   0  0  0  0  0  0  0  0  0  0  0  0
  195.7570  173.3460  137.4190 C   0  0  1  0  0  3  0  0  0  0  0  0
  197.4500  174.6120  138.8010 N   0  0  0  0  0  1  0  0  0  0  0  0
  197.1600  173.5740  137.8700 C   0  0  0  0  0  0  0  0  0  0  0  0
  198.0960  172.8680  137.4090 O   0  0  0  0  0  0  0  0  0  0  0  0
  1  4  1  0  0  0  0
  2  8  1  0  0  0  0
  3  5  1  0  0  0  0
  3 16  1  0  0  0  0
  4 19  1  0  0  0  0
  4  2  2  0  0  0  0
  6  2  1  0  0  0  0
  6  9  1  0  0  0  0
  7  6  2  0  0  0  0
  8  5  2  0  0  0  0
  9  3  2  0  0  0  0
 10  1  2  0  0  0  0
 10  7  1  0  0  0  0
 11 15  1  0  0  0  0
 12 11  2  0  0  0  0
 13 16  2  0  0  0  0
 13 12  1  0  0  0  0
 14 17  1  0  0  0  0
 14 15  2  0  0  0  0
 16 14  1  0  0  0  0
 17 18  1  0  0  0  0
 20 22  1  0  0  0  0
 20 23  1  0  0  0  0
 21 19  1  6  0  0  0
 22 21  1  0  0  0  0
 23 21  1  0  0  0  0
 23 24  1  1  0  0  0
 24 25  2  0  0  0  0
 26 24  1  0  0  0  0
 27 30  1  6  0  0  0
 27 29  1  0  0  0  0
 27 28  1  0  0  0  0
 29 28  1  0  0  0  0
 29 26  1  1  0  0  0
 32 40  1  0  0  0  0
 32 30  1  1  0  0  0
 33 35  1  0  0  0  0
 34 37  1  0  0  0  0
 35 32  1  0  0  0  0
 36 34  1  1  0  0  0
 36 33  1  0  0  0  0
 36 38  1  0  0  0  0
 37 32  1  0  0  0  0
 38 39  1  1  0  0  0
 38 31  1  0  0  0  0
 38 40  1  0  0  0  0
 40 31  1  6  0  0  0
 41  1  1  0  0  0  0
 42 41  1  0  0  0  0
 43 42  1  0  0  0  0
 44 45  2  0  0  0  0
 45 43  1  0  0  0  0
 46 44  2  0  0  0  0
 46 47  1  0  0  0  0
 47 48  2  0  0  0  0
 48 51  1  0  0  0  0
 49 50  2  0  0  0  0
 49 47  1  0  0  0  0
 50 51  1  0  0  0  0
 52 50  1  0  0  0  0
 53 43  1  0  0  0  0
 54 53  1  0  0  0  0
 54 55  1  0  0  0  0
 56 55  1  0  0  0  0
 56 57  1  0  0  0  0
 57 60  1  1  0  0  0
 57 59  1  0  0  0  0
 59 58  1  0  0  0  0
 61 60  1  1  0  0  0
 61 63  1  0  0  0  0
 62 61  1  0  0  0  0
 62 63  1  0  0  0  0
 63 65  1  6  0  0  0
 65 64  1  0  0  0  0
 66 65  2  0  0  0  0
M  END
>  <MODEL>
9

>  <REMARK>
 VINA RESULT:      -5.3      3.295      9.518
  Name = 
  23 active torsions:
  status: ('A' for Active; 'I' for Inactive)
    1  A    between atoms: C_1  and  C_19
    2  A    between atoms: C_3  and  C_45
    3  A    between atoms: C_4  and  C_45
    4  A    between atoms: C_5  and  C_6
    5  A    between atoms: C_6  and  CA_58
    6  A    between atoms: C_8  and  O_18
    7  A    between atoms: C_8  and  C_62
    8  A    between atoms: C_11  and  C_53
    9  A    between atoms: C_12  and  N_61
   10  A    between atoms: C_14  and  N_33
   11  A    between atoms: C_15  and  C_43
   12  A    between atoms: O_18  and  C_28
   13  A    between atoms: C_19  and  C_22
   14  A    between atoms: C_22  and  N_33
   15  A    between atoms: C_24  and  N_61
   16  A    between atoms: C_25  and  C_60
   17  A    between atoms: C_30  and  N_31
   18  A    between atoms: C_30  and  N_39
   19  A    between atoms: N_31  and  CA_58
   20  A    between atoms: N_33  and  N_57
   21  A    between atoms: O_36  and  C_42
   22  A    between atoms: N_39  and  N_57
   23  A    between atoms: C_54  and  CA_58
                            x       y       z     vdW  Elec       q    Type
                         _______ _______ _______ _____ _____    ______ ____

>  <TORSDO>
F 23

$$$$
