=
 OpenBabel10232410153D

 41 44  0  0  1  0  0  0  0  0999 V2000
  189.2510  177.2610  144.6990 C   0  0  0  0  0  0  0  0  0  0  0  0
  186.3210  178.0820  144.4640 C   0  0  0  0  0  0  0  0  0  0  0  0
  187.0010  177.4260  143.5060 C   0  0  0  0  0  3  0  0  0  0  0  0
  188.8660  177.0300  146.0900 C   0  0  0  0  0  0  0  0  0  0  0  0
  189.6910  176.5500  146.9110 O   0  0  0  0  0  0  0  0  0  0  0  0
  190.3480  177.9840  144.4410 C   0  0  0  0  0  3  0  0  0  0  0  0
  184.5380  179.2730  145.5330 C   0  0  0  0  0  2  0  0  0  0  0  0
  188.3110  176.6960  143.6640 C   0  0  1  0  0  3  0  0  0  0  0  0
  185.5130  178.7950  146.6030 C   0  0  0  0  0  0  0  0  0  0  0  0
  186.7830  178.4000  145.8520 C   0  0  1  0  0  3  0  0  0  0  0  0
  185.8090  179.9260  147.5670 C   0  0  0  0  0  1  0  0  0  0  0  0
  184.9620  178.6420  144.2080 C   0  0  1  0  0  3  0  0  0  0  0  0
  184.8820  177.6320  147.3590 C   0  0  0  0  0  1  0  0  0  0  0  0
  187.5390  177.3360  146.5100 N   0  0  0  0  0  2  0  0  0  0  0  0
  185.0070  179.7070  143.1190 C   0  0  0  0  0  2  0  0  0  0  0  0
  185.2780  179.3040  140.6520 N   0  0  0  0  0  0  0  0  0  0  0  0
  183.6140  177.8020  140.2780 N   0  0  0  0  0  0  0  0  0  0  0  0
  185.1870  178.4650  138.3670 C   0  0  0  0  0  1  0  0  0  0  0  0
  184.5790  179.1460  141.8480 N   0  0  0  0  0  0  0  0  0  0  0  0
  184.7150  178.5530  139.7730 C   0  0  0  0  0  0  0  0  0  0  0  0
  183.5140  178.1750  141.6840 C   0  0  0  0  0  3  0  0  0  0  0  0
  188.9110  176.4630  142.4230 O   0  0  0  0  0  0  0  0  0  0  0  0
  188.2050  177.2650  141.5250 C   0  0  0  0  0  2  0  0  0  0  0  0
  188.8770  177.2130  140.1700 C   0  0  0  0  0  2  0  0  0  0  0  0
  188.7460  178.5610  139.4920 C   0  0  0  0  0  2  0  0  0  0  0  0
  189.3560  178.4970  138.1060 C   0  0  0  0  0  2  0  0  0  0  0  0
  188.4900  179.1880  137.1670 N   0  0  0  0  0  2  0  0  0  0  0  0
  188.1870  178.2600  136.0880 C   0  0  0  0  0  2  0  0  0  0  0  0
  188.5130  176.9040  136.4960 N   0  0  0  0  0  2  0  0  0  0  0  0
  189.2680  176.3110  135.4080 C   0  0  0  0  0  2  0  0  0  0  0  0
  191.2060  175.2140  137.8050 C   0  0  0  0  0  2  0  0  0  0  0  0
  189.8060  174.9110  137.2570 C   0  0  0  0  0  2  0  0  0  0  0  0
  191.8740  176.1730  136.9380 N   0  0  0  0  0  0  0  0  0  0  0  0
  192.1800  175.5180  135.6650 C   0  0  0  0  0  2  0  0  0  0  0  0
  193.1430  176.4930  137.5650 C   0  0  0  0  0  1  0  0  0  0  0  0
  191.0000  174.6830  135.1260 C   0  0  0  0  0  2  0  0  0  0  0  0
  189.7190  174.9800  135.7880 N   0  0  0  0  0  0  0  0  0  0  0  0
  190.8330  178.3410  143.0730 C   0  0  0  0  0  2  0  0  0  0  0  0
  191.9260  176.2880  143.3530 C   0  0  0  0  0  1  0  0  0  0  0  0
  192.0980  177.4410  141.3370 C   0  0  0  0  0  1  0  0  0  0  0  0
  192.0580  177.6170  142.7770 N   0  0  0  0  0  0  0  0  0  0  0  0
  1  4  1  0  0  0  0
  3  8  1  0  0  0  0
  3  2  2  0  0  0  0
  4 14  1  0  0  0  0
  4  5  2  0  0  0  0
  6  1  2  0  0  0  0
  7  9  1  0  0  0  0
  8 22  1  6  0  0  0
  8  1  1  0  0  0  0
  9 13  1  0  0  0  0
  9 11  1  0  0  0  0
 10  2  1  6  0  0  0
 10 14  1  0  0  0  0
 10  9  1  0  0  0  0
 12 15  1  6  0  0  0
 12  2  1  0  0  0  0
 12  7  1  0  0  0  0
 16 19  1  0  0  0  0
 17 21  2  0  0  0  0
 18 20  1  0  0  0  0
 19 15  1  0  0  0  0
 20 17  1  0  0  0  0
 20 16  2  0  0  0  0
 21 19  1  0  0  0  0
 23 22  1  0  0  0  0
 24 23  1  0  0  0  0
 25 24  1  0  0  0  0
 26 25  1  0  0  0  0
 27 26  1  0  0  0  0
 28 29  1  0  0  0  0
 28 27  1  0  0  0  0
 30 37  1  0  0  0  0
 30 29  1  0  0  0  0
 32 31  1  0  0  0  0
 33 35  1  0  0  0  0
 33 31  1  0  0  0  0
 34 33  1  0  0  0  0
 36 34  1  0  0  0  0
 36 37  1  0  0  0  0
 37 32  1  0  0  0  0
 38  6  1  0  0  0  0
 40 41  1  0  0  0  0
 41 38  1  0  0  0  0
 41 39  1  0  0  0  0
M  END
>  <MODEL>
1

>  <REMARK>
 VINA RESULT:      -7.1      0.000      0.000
  Name = 
  14 active torsions:
  status: ('A' for Active; 'I' for Inactive)
    1  A    between atoms: N_3  and  C_17
    2  A    between atoms: N_3  and  C_32
    3  A    between atoms: C_4  and  N_30
    4  A    between atoms: C_4  and  C_35
    5  A    between atoms: C_15  and  C_26
    6  A    between atoms: C_17  and  N_37
    7  A    between atoms: C_19  and  O_20
    8  A    between atoms: O_20  and  C_21
    9  A    between atoms: C_21  and  C_22
   10  A    between atoms: C_22  and  C_28
   11  A    between atoms: N_25  and  C_32
   12  A    between atoms: N_25  and  C_39
   13  A    between atoms: C_26  and  N_40
   14  A    between atoms: C_28  and  C_39
                            x       y       z     vdW  Elec       q    Type
                         _______ _______ _______ _____ _____    ______ ____

>  <TORSDO>
F 14

$$$$
=
 OpenBabel10232410153D

 41 44  0  0  1  0  0  0  0  0999 V2000
  189.2690  177.2370  144.7650 C   0  0  0  0  0  0  0  0  0  0  0  0
  186.3440  178.0680  144.4990 C   0  0  0  0  0  0  0  0  0  0  0  0
  187.0340  177.4130  143.5470 C   0  0  0  0  0  3  0  0  0  0  0  0
  188.8670  177.0020  146.1510 C   0  0  0  0  0  0  0  0  0  0  0  0
  189.6800  176.5160  146.9800 O   0  0  0  0  0  0  0  0  0  0  0  0
  190.3710  177.9570  144.5220 C   0  0  0  0  0  3  0  0  0  0  0  0
  184.5530  179.2600  145.5510 C   0  0  0  0  0  2  0  0  0  0  0  0
  188.3390  176.6780  143.7170 C   0  0  1  0  0  3  0  0  0  0  0  0
  185.5130  178.7750  146.6310 C   0  0  0  0  0  0  0  0  0  0  0  0
  186.7910  178.3790  145.8940 C   0  0  1  0  0  3  0  0  0  0  0  0
  185.8010  179.9020  147.6020 C   0  0  0  0  0  1  0  0  0  0  0  0
  184.9900  178.6320  144.2290 C   0  0  1  0  0  3  0  0  0  0  0  0
  184.8700  177.6120  147.3760 C   0  0  0  0  0  1  0  0  0  0  0  0
  187.5360  177.3110  146.5560 N   0  0  0  0  0  2  0  0  0  0  0  0
  185.0520  179.7010  143.1440 C   0  0  0  0  0  2  0  0  0  0  0  0
  185.1220  179.3160  140.6610 N   0  0  0  0  0  0  0  0  0  0  0  0
  183.3350  177.9380  140.3900 N   0  0  0  0  0  0  0  0  0  0  0  0
  184.8140  178.5170  138.3800 C   0  0  0  0  0  1  0  0  0  0  0  0
  184.4980  179.1900  141.9010 N   0  0  0  0  0  0  0  0  0  0  0  0
  184.4480  178.6180  139.8170 C   0  0  0  0  0  0  0  0  0  0  0  0
  183.3590  178.2960  141.8030 C   0  0  0  0  0  3  0  0  0  0  0  0
  188.9530  176.4470  142.4830 O   0  0  0  0  0  0  0  0  0  0  0  0
  188.2840  177.2820  141.5860 C   0  0  0  0  0  2  0  0  0  0  0  0
  188.9130  177.1540  140.2150 C   0  0  0  0  0  2  0  0  0  0  0  0
  188.2750  178.1540  139.2740 C   0  0  0  0  0  2  0  0  0  0  0  0
  189.3330  178.7420  138.3610 C   0  0  0  0  0  2  0  0  0  0  0  0
  188.6880  179.3740  137.2240 N   0  0  0  0  0  2  0  0  0  0  0  0
  187.9980  178.3330  136.4770 C   0  0  0  0  0  2  0  0  0  0  0  0
  188.9620  177.3800  135.9540 N   0  0  0  0  0  2  0  0  0  0  0  0
  188.2500  176.1300  135.7620 C   0  0  0  0  0  2  0  0  0  0  0  0
  190.1880  173.6580  136.6800 C   0  0  0  0  0  2  0  0  0  0  0  0
  189.7400  175.0120  137.2450 C   0  0  0  0  0  2  0  0  0  0  0  0
  189.4500  173.3700  135.4580 N   0  0  0  0  0  0  0  0  0  0  0  0
  188.0530  173.1080  135.8080 C   0  0  0  0  0  2  0  0  0  0  0  0
  189.9910  172.1350  134.9230 C   0  0  0  0  0  1  0  0  0  0  0  0
  187.4920  174.1240  136.8250 C   0  0  0  0  0  2  0  0  0  0  0  0
  188.3270  175.3270  136.9740 N   0  0  0  0  0  0  0  0  0  0  0  0
  190.8740  178.3170  143.1620 C   0  0  0  0  0  2  0  0  0  0  0  0
  191.9530  176.2590  143.4560 C   0  0  0  0  0  1  0  0  0  0  0  0
  192.1410  177.4030  141.4350 C   0  0  0  0  0  1  0  0  0  0  0  0
  192.0950  177.5850  142.8750 N   0  0  0  0  0  0  0  0  0  0  0  0
  1  4  1  0  0  0  0
  3  8  1  0  0  0  0
  3  2  2  0  0  0  0
  4 14  1  0  0  0  0
  4  5  2  0  0  0  0
  6  1  2  0  0  0  0
  7  9  1  0  0  0  0
  8 22  1  6  0  0  0
  8  1  1  0  0  0  0
  9 13  1  0  0  0  0
  9 11  1  0  0  0  0
 10  2  1  6  0  0  0
 10 14  1  0  0  0  0
 10  9  1  0  0  0  0
 12 15  1  6  0  0  0
 12  2  1  0  0  0  0
 12  7  1  0  0  0  0
 16 19  1  0  0  0  0
 17 21  2  0  0  0  0
 18 20  1  0  0  0  0
 19 15  1  0  0  0  0
 20 17  1  0  0  0  0
 20 16  2  0  0  0  0
 21 19  1  0  0  0  0
 23 22  1  0  0  0  0
 24 23  1  0  0  0  0
 25 24  1  0  0  0  0
 26 25  1  0  0  0  0
 27 26  1  0  0  0  0
 28 27  1  0  0  0  0
 29 28  1  0  0  0  0
 30 29  1  0  0  0  0
 30 37  1  0  0  0  0
 31 32  1  0  0  0  0
 33 34  1  0  0  0  0
 33 31  1  0  0  0  0
 34 36  1  0  0  0  0
 35 33  1  0  0  0  0
 36 37  1  0  0  0  0
 37 32  1  0  0  0  0
 38  6  1  0  0  0  0
 40 41  1  0  0  0  0
 41 38  1  0  0  0  0
 41 39  1  0  0  0  0
M  END
>  <MODEL>
2

>  <REMARK>
 VINA RESULT:      -6.8      1.058      1.575
  Name = 
  14 active torsions:
  status: ('A' for Active; 'I' for Inactive)
    1  A    between atoms: N_3  and  C_17
    2  A    between atoms: N_3  and  C_32
    3  A    between atoms: C_4  and  N_30
    4  A    between atoms: C_4  and  C_35
    5  A    between atoms: C_15  and  C_26
    6  A    between atoms: C_17  and  N_37
    7  A    between atoms: C_19  and  O_20
    8  A    between atoms: O_20  and  C_21
    9  A    between atoms: C_21  and  C_22
   10  A    between atoms: C_22  and  C_28
   11  A    between atoms: N_25  and  C_32
   12  A    between atoms: N_25  and  C_39
   13  A    between atoms: C_26  and  N_40
   14  A    between atoms: C_28  and  C_39
                            x       y       z     vdW  Elec       q    Type
                         _______ _______ _______ _____ _____    ______ ____

>  <TORSDO>
F 14

$$$$
=
 OpenBabel10232410153D

 41 44  0  0  1  0  0  0  0  0999 V2000
  184.8250  177.0090  136.9880 C   0  0  0  0  0  0  0  0  0  0  0  0
  184.1470  178.2980  139.6700 C   0  0  0  0  0  0  0  0  0  0  0  0
  185.3340  178.4260  139.0490 C   0  0  0  0  0  3  0  0  0  0  0  0
  183.4280  177.3330  136.7070 C   0  0  0  0  0  0  0  0  0  0  0  0
  182.9330  177.1050  135.5720 O   0  0  0  0  0  0  0  0  0  0  0  0
  185.2670  175.7690  136.7400 C   0  0  0  0  0  3  0  0  0  0  0  0
  182.4840  178.4700  141.3850 C   0  0  0  0  0  2  0  0  0  0  0  0
  185.6370  178.1220  137.6030 C   0  0  1  0  0  3  0  0  0  0  0  0
  181.7920  178.1250  140.0710 C   0  0  0  0  0  0  0  0  0  0  0  0
  182.9040  177.6580  139.1350 C   0  0  1  0  0  3  0  0  0  0  0  0
  180.7970  177.0050  140.2960 C   0  0  0  0  0  1  0  0  0  0  0  0
  183.9480  178.7710  141.0710 C   0  0  1  0  0  3  0  0  0  0  0  0
  181.0620  179.3610  139.5600 C   0  0  0  0  0  1  0  0  0  0  0  0
  182.6280  177.9280  137.7250 N   0  0  0  0  0  2  0  0  0  0  0  0
  184.8510  178.0110  142.0360 C   0  0  0  0  0  2  0  0  0  0  0  0
  185.4330  178.1870  144.4750 N   0  0  0  0  0  0  0  0  0  0  0  0
  183.7310  179.4910  145.2290 N   0  0  0  0  0  0  0  0  0  0  0  0
  185.6000  178.7810  146.8320 C   0  0  0  0  0  1  0  0  0  0  0  0
  184.5640  178.4010  143.4070 N   0  0  0  0  0  0  0  0  0  0  0  0
  184.9440  178.7930  145.4980 C   0  0  0  0  0  0  0  0  0  0  0  0
  183.4640  179.2540  143.8160 C   0  0  0  0  0  3  0  0  0  0  0  0
  187.0130  178.0000  137.3920 O   0  0  0  0  0  0  0  0  0  0  0  0
  187.5820  178.0820  138.6640 C   0  0  0  0  0  2  0  0  0  0  0  0
  189.0230  178.5320  138.5410 C   0  0  0  0  0  2  0  0  0  0  0  0
  189.8990  177.3330  138.2400 C   0  0  0  0  0  2  0  0  0  0  0  0
  190.9560  177.1910  139.3170 C   0  0  0  0  0  2  0  0  0  0  0  0
  190.4130  177.6410  140.5860 N   0  0  0  0  0  2  0  0  0  0  0  0
  190.2030  176.4640  141.4150 C   0  0  0  0  0  2  0  0  0  0  0  0
  189.4920  176.8330  142.6270 N   0  0  0  0  0  2  0  0  0  0  0  0
  190.2260  176.2500  143.7340 C   0  0  0  0  0  2  0  0  0  0  0  0
  190.7720  176.8810  146.8970 C   0  0  0  0  0  2  0  0  0  0  0  0
  191.6050  176.6970  145.6230 C   0  0  0  0  0  2  0  0  0  0  0  0
  189.3560  176.8820  146.5610 N   0  0  0  0  0  0  0  0  0  0  0  0
  189.0530  178.1070  145.8200 C   0  0  0  0  0  2  0  0  0  0  0  0
  188.6270  176.9550  147.8140 C   0  0  0  0  0  1  0  0  0  0  0  0
  190.1040  178.4210  144.7330 C   0  0  0  0  0  2  0  0  0  0  0  0
  190.9860  177.2840  144.4220 N   0  0  0  0  0  0  0  0  0  0  0  0
  186.6510  175.2830  137.0230 C   0  0  0  0  0  2  0  0  0  0  0  0
  185.4430  173.3320  137.4940 C   0  0  0  0  0  1  0  0  0  0  0  0
  186.6880  173.4950  135.5310 C   0  0  0  0  0  1  0  0  0  0  0  0
  186.6930  173.8330  136.9430 N   0  0  0  0  0  0  0  0  0  0  0  0
  1  8  1  0  0  0  0
  2 12  1  0  0  0  0
  3  2  2  0  0  0  0
  4  1  1  0  0  0  0
  4 14  1  0  0  0  0
  5  4  2  0  0  0  0
  6  1  2  0  0  0  0
  6 38  1  0  0  0  0
  8 22  1  1  0  0  0
  8  3  1  0  0  0  0
  9 11  1  0  0  0  0
  9  7  1  0  0  0  0
 10 14  1  6  0  0  0
 10  2  1  0  0  0  0
 10  9  1  0  0  0  0
 12  7  1  0  0  0  0
 12 15  1  1  0  0  0
 13  9  1  0  0  0  0
 15 19  1  0  0  0  0
 16 20  2  0  0  0  0
 17 20  1  0  0  0  0
 19 21  1  0  0  0  0
 19 16  1  0  0  0  0
 20 18  1  0  0  0  0
 21 17  2  0  0  0  0
 22 23  1  0  0  0  0
 24 23  1  0  0  0  0
 25 24  1  0  0  0  0
 25 26  1  0  0  0  0
 26 27  1  0  0  0  0
 27 28  1  0  0  0  0
 28 29  1  0  0  0  0
 29 30  1  0  0  0  0
 30 37  1  0  0  0  0
 32 31  1  0  0  0  0
 33 31  1  0  0  0  0
 33 35  1  0  0  0  0
 34 33  1  0  0  0  0
 36 34  1  0  0  0  0
 37 36  1  0  0  0  0
 37 32  1  0  0  0  0
 40 41  1  0  0  0  0
 41 38  1  0  0  0  0
 41 39  1  0  0  0  0
M  END
>  <MODEL>
3

>  <REMARK>
 VINA RESULT:      -6.6      2.885      7.577
  Name = 
  14 active torsions:
  status: ('A' for Active; 'I' for Inactive)
    1  A    between atoms: N_3  and  C_17
    2  A    between atoms: N_3  and  C_32
    3  A    between atoms: C_4  and  N_30
    4  A    between atoms: C_4  and  C_35
    5  A    between atoms: C_15  and  C_26
    6  A    between atoms: C_17  and  N_37
    7  A    between atoms: C_19  and  O_20
    8  A    between atoms: O_20  and  C_21
    9  A    between atoms: C_21  and  C_22
   10  A    between atoms: C_22  and  C_28
   11  A    between atoms: N_25  and  C_32
   12  A    between atoms: N_25  and  C_39
   13  A    between atoms: C_26  and  N_40
   14  A    between atoms: C_28  and  C_39
                            x       y       z     vdW  Elec       q    Type
                         _______ _______ _______ _____ _____    ______ ____

>  <TORSDO>
F 14

$$$$
=
 OpenBabel10232410153D

 41 44  0  0  1  0  0  0  0  0999 V2000
  183.8370  178.7360  141.9200 C   0  0  0  0  0  0  0  0  0  0  0  0
  186.3640  178.1630  143.5320 C   0  0  0  0  0  0  0  0  0  0  0  0
  186.3580  178.4870  142.2260 C   0  0  0  0  0  3  0  0  0  0  0  0
  183.4150  179.3490  143.1780 C   0  0  0  0  0  0  0  0  0  0  0  0
  182.3080  179.9420  143.2620 O   0  0  0  0  0  0  0  0  0  0  0  0
  183.0150  177.8710  141.3120 C   0  0  0  0  0  3  0  0  0  0  0  0
  187.1990  177.4580  145.6630 C   0  0  0  0  0  2  0  0  0  0  0  0
  185.2220  179.1060  141.4520 C   0  0  1  0  0  3  0  0  0  0  0  0
  185.8310  178.0980  145.8660 C   0  0  0  0  0  0  0  0  0  0  0  0
  185.2020  178.1670  144.4760 C   0  0  1  0  0  3  0  0  0  0  0  0
  184.9880  177.2270  146.7750 C   0  0  0  0  0  1  0  0  0  0  0  0
  187.6060  177.6880  144.2090 C   0  0  1  0  0  3  0  0  0  0  0  0
  186.0180  179.4690  146.5040 C   0  0  0  0  0  1  0  0  0  0  0  0
  184.2770  179.2860  144.3110 N   0  0  0  0  0  2  0  0  0  0  0  0
  188.0960  176.3820  143.5960 C   0  0  0  0  0  2  0  0  0  0  0  0
  189.6610  176.7820  141.6700 N   0  0  0  0  0  0  0  0  0  0  0  0
  191.6290  177.0700  142.7700 N   0  0  0  0  0  0  0  0  0  0  0  0
  191.5390  177.3440  140.2240 C   0  0  0  0  0  1  0  0  0  0  0  0
  189.4210  176.5590  143.0250 N   0  0  0  0  0  0  0  0  0  0  0  0
  190.9110  177.0540  141.5390 C   0  0  0  0  0  0  0  0  0  0  0  0
  190.6370  176.7540  143.7910 C   0  0  0  0  0  3  0  0  0  0  0  0
  185.4110  178.9580  140.0750 O   0  0  0  0  0  0  0  0  0  0  0  0
  186.6890  178.4120  139.9430 C   0  0  0  0  0  2  0  0  0  0  0  0
  186.9630  178.1240  138.4820 C   0  0  0  0  0  2  0  0  0  0  0  0
  188.4590  178.0630  138.2540 C   0  0  0  0  0  2  0  0  0  0  0  0
  188.8180  178.8430  137.0060 C   0  0  0  0  0  2  0  0  0  0  0  0
  189.3450  177.9330  136.0050 N   0  0  0  0  0  2  0  0  0  0  0  0
  190.0130  176.8480  136.7080 C   0  0  0  0  0  2  0  0  0  0  0  0
  189.9180  175.6240  135.9320 N   0  0  0  0  0  2  0  0  0  0  0  0
  188.7410  174.9200  136.4070 C   0  0  0  0  0  2  0  0  0  0  0  0
  185.4740  174.7630  136.4460 C   0  0  0  0  0  2  0  0  0  0  0  0
  186.5550  175.6290  135.7870 C   0  0  0  0  0  2  0  0  0  0  0  0
  186.0970  173.6500  137.1460 N   0  0  0  0  0  0  0  0  0  0  0  0
  186.6610  172.7320  136.1550 C   0  0  0  0  0  2  0  0  0  0  0  0
  185.0350  172.9350  137.8280 C   0  0  0  0  0  1  0  0  0  0  0  0
  187.4280  173.4640  135.0330 C   0  0  0  0  0  2  0  0  0  0  0  0
  187.7380  174.8680  135.3530 N   0  0  0  0  0  0  0  0  0  0  0  0
  183.3330  177.1330  140.0520 C   0  0  0  0  0  2  0  0  0  0  0  0
  182.7420  177.3570  137.7960 C   0  0  0  0  0  1  0  0  0  0  0  0
  181.5550  175.9070  139.1790 C   0  0  0  0  0  1  0  0  0  0  0  0
  182.2050  177.2050  139.1390 N   0  0  0  0  0  0  0  0  0  0  0  0
  1  4  1  0  0  0  0
  2 12  1  0  0  0  0
  3  2  2  0  0  0  0
  4  5  2  0  0  0  0
  4 14  1  0  0  0  0
  6  1  2  0  0  0  0
  7  9  1  0  0  0  0
  8 22  1  6  0  0  0
  8  1  1  0  0  0  0
  8  3  1  0  0  0  0
  9 13  1  0  0  0  0
  9 11  1  0  0  0  0
 10  2  1  6  0  0  0
 10  9  1  0  0  0  0
 12 15  1  6  0  0  0
 12  7  1  0  0  0  0
 14 10  1  0  0  0  0
 16 19  1  0  0  0  0
 17 21  2  0  0  0  0
 18 20  1  0  0  0  0
 19 15  1  0  0  0  0
 19 21  1  0  0  0  0
 20 16  2  0  0  0  0
 20 17  1  0  0  0  0
 23 22  1  0  0  0  0
 24 23  1  0  0  0  0
 25 24  1  0  0  0  0
 26 25  1  0  0  0  0
 27 28  1  0  0  0  0
 27 26  1  0  0  0  0
 29 30  1  0  0  0  0
 29 28  1  0  0  0  0
 31 33  1  0  0  0  0
 32 31  1  0  0  0  0
 33 35  1  0  0  0  0
 34 33  1  0  0  0  0
 36 37  1  0  0  0  0
 36 34  1  0  0  0  0
 37 32  1  0  0  0  0
 37 30  1  0  0  0  0
 38  6  1  0  0  0  0
 39 41  1  0  0  0  0
 41 40  1  0  0  0  0
 41 38  1  0  0  0  0
M  END
>  <MODEL>
4

>  <REMARK>
 VINA RESULT:      -6.6      2.572      5.621
  Name = 
  14 active torsions:
  status: ('A' for Active; 'I' for Inactive)
    1  A    between atoms: N_3  and  C_17
    2  A    between atoms: N_3  and  C_32
    3  A    between atoms: C_4  and  N_30
    4  A    between atoms: C_4  and  C_35
    5  A    between atoms: C_15  and  C_26
    6  A    between atoms: C_17  and  N_37
    7  A    between atoms: C_19  and  O_20
    8  A    between atoms: O_20  and  C_21
    9  A    between atoms: C_21  and  C_22
   10  A    between atoms: C_22  and  C_28
   11  A    between atoms: N_25  and  C_32
   12  A    between atoms: N_25  and  C_39
   13  A    between atoms: C_26  and  N_40
   14  A    between atoms: C_28  and  C_39
                            x       y       z     vdW  Elec       q    Type
                         _______ _______ _______ _____ _____    ______ ____

>  <TORSDO>
F 14

$$$$
=
 OpenBabel10232410153D

 41 44  0  0  1  0  0  0  0  0999 V2000
  183.8300  178.6590  141.8290 C   0  0  0  0  0  0  0  0  0  0  0  0
  186.3750  178.1500  143.4340 C   0  0  0  0  0  0  0  0  0  0  0  0
  186.3570  178.4680  142.1260 C   0  0  0  0  0  3  0  0  0  0  0  0
  183.3990  179.2670  143.0870 C   0  0  0  0  0  0  0  0  0  0  0  0
  182.2790  179.8350  143.1730 O   0  0  0  0  0  0  0  0  0  0  0  0
  183.0250  177.7730  141.2280 C   0  0  0  0  0  3  0  0  0  0  0  0
  187.2340  177.4720  145.5640 C   0  0  0  0  0  2  0  0  0  0  0  0
  185.2040  179.0580  141.3540 C   0  0  1  0  0  3  0  0  0  0  0  0
  185.8520  178.0820  145.7700 C   0  0  0  0  0  0  0  0  0  0  0  0
  185.2170  178.1310  144.3820 C   0  0  1  0  0  3  0  0  0  0  0  0
  185.0330  177.1950  146.6860 C   0  0  0  0  0  1  0  0  0  0  0  0
  187.6300  177.7060  144.1080 C   0  0  1  0  0  3  0  0  0  0  0  0
  186.0110  179.4590  146.4020 C   0  0  0  0  0  1  0  0  0  0  0  0
  184.2660  179.2280  144.2170 N   0  0  0  0  0  2  0  0  0  0  0  0
  188.1470  176.4080  143.4980 C   0  0  0  0  0  2  0  0  0  0  0  0
  189.6100  176.7310  141.4790 N   0  0  0  0  0  0  0  0  0  0  0  0
  191.5830  177.2840  142.4630 N   0  0  0  0  0  0  0  0  0  0  0  0
  191.3870  177.2890  139.9080 C   0  0  0  0  0  1  0  0  0  0  0  0
  189.4330  176.6300  142.8580 N   0  0  0  0  0  0  0  0  0  0  0  0
  190.8290  177.0860  141.2710 C   0  0  0  0  0  0  0  0  0  0  0  0
  190.6540  176.9980  143.5500 C   0  0  0  0  0  3  0  0  0  0  0  0
  185.3910  178.9090  139.9770 O   0  0  0  0  0  0  0  0  0  0  0  0
  186.6970  178.4350  139.8400 C   0  0  0  0  0  2  0  0  0  0  0  0
  186.9310  178.0200  138.4020 C   0  0  0  0  0  2  0  0  0  0  0  0
  188.3260  178.4330  137.9820 C   0  0  0  0  0  2  0  0  0  0  0  0
  188.9250  177.3680  137.0840 C   0  0  0  0  0  2  0  0  0  0  0  0
  188.6770  176.0590  137.6620 N   0  0  0  0  0  2  0  0  0  0  0  0
  188.9810  175.0660  136.6420 C   0  0  0  0  0  2  0  0  0  0  0  0
  189.6560  173.9300  137.2450 N   0  0  0  0  0  2  0  0  0  0  0  0
  190.9980  174.3700  137.5780 C   0  0  0  0  0  2  0  0  0  0  0  0
  193.9520  173.2440  136.7370 C   0  0  0  0  0  2  0  0  0  0  0  0
  192.5310  173.2250  136.1610 C   0  0  0  0  0  2  0  0  0  0  0  0
  193.9900  174.0930  137.9190 N   0  0  0  0  0  0  0  0  0  0  0  0
  193.8140  175.4850  137.4990 C   0  0  0  0  0  2  0  0  0  0  0  0
  195.3280  173.9850  138.4710 C   0  0  0  0  0  1  0  0  0  0  0  0
  192.6820  175.6550  136.4630 C   0  0  0  0  0  2  0  0  0  0  0  0
  191.7940  174.4850  136.3650 N   0  0  0  0  0  0  0  0  0  0  0  0
  183.3550  177.0380  139.9690 C   0  0  0  0  0  2  0  0  0  0  0  0
  183.1020  177.5200  137.6910 C   0  0  0  0  0  1  0  0  0  0  0  0
  181.5440  176.1770  138.7840 C   0  0  0  0  0  1  0  0  0  0  0  0
  182.3780  177.3550  138.9410 N   0  0  0  0  0  0  0  0  0  0  0  0
  1  4  1  0  0  0  0
  2 12  1  0  0  0  0
  3  2  2  0  0  0  0
  4  5  2  0  0  0  0
  4 14  1  0  0  0  0
  6  1  2  0  0  0  0
  7  9  1  0  0  0  0
  8 22  1  6  0  0  0
  8  1  1  0  0  0  0
  8  3  1  0  0  0  0
  9 13  1  0  0  0  0
  9 11  1  0  0  0  0
 10  2  1  6  0  0  0
 10  9  1  0  0  0  0
 12 15  1  6  0  0  0
 12  7  1  0  0  0  0
 14 10  1  0  0  0  0
 16 19  1  0  0  0  0
 17 21  2  0  0  0  0
 18 20  1  0  0  0  0
 19 15  1  0  0  0  0
 19 21  1  0  0  0  0
 20 16  2  0  0  0  0
 20 17  1  0  0  0  0
 23 22  1  0  0  0  0
 24 23  1  0  0  0  0
 25 24  1  0  0  0  0
 26 27  1  0  0  0  0
 26 25  1  0  0  0  0
 28 29  1  0  0  0  0
 28 27  1  0  0  0  0
 29 30  1  0  0  0  0
 31 33  1  0  0  0  0
 32 37  1  0  0  0  0
 32 31  1  0  0  0  0
 33 35  1  0  0  0  0
 34 33  1  0  0  0  0
 36 34  1  0  0  0  0
 37 36  1  0  0  0  0
 37 30  1  0  0  0  0
 38  6  1  0  0  0  0
 39 41  1  0  0  0  0
 40 41  1  0  0  0  0
 41 38  1  0  0  0  0
M  END
>  <MODEL>
5

>  <REMARK>
 VINA RESULT:      -6.5      2.302      5.302
  Name = 
  14 active torsions:
  status: ('A' for Active; 'I' for Inactive)
    1  A    between atoms: N_3  and  C_17
    2  A    between atoms: N_3  and  C_32
    3  A    between atoms: C_4  and  N_30
    4  A    between atoms: C_4  and  C_35
    5  A    between atoms: C_15  and  C_26
    6  A    between atoms: C_17  and  N_37
    7  A    between atoms: C_19  and  O_20
    8  A    between atoms: O_20  and  C_21
    9  A    between atoms: C_21  and  C_22
   10  A    between atoms: C_22  and  C_28
   11  A    between atoms: N_25  and  C_32
   12  A    between atoms: N_25  and  C_39
   13  A    between atoms: C_26  and  N_40
   14  A    between atoms: C_28  and  C_39
                            x       y       z     vdW  Elec       q    Type
                         _______ _______ _______ _____ _____    ______ ____

>  <TORSDO>
F 14

$$$$
=
 OpenBabel10232410153D

 41 44  0  0  1  0  0  0  0  0999 V2000
  189.1940  177.2960  144.7220 C   0  0  0  0  0  0  0  0  0  0  0  0
  186.2470  178.0670  144.5270 C   0  0  0  0  0  0  0  0  0  0  0  0
  186.9340  177.4520  143.5460 C   0  0  0  0  0  3  0  0  0  0  0  0
  188.8220  177.0170  146.1070 C   0  0  0  0  0  0  0  0  0  0  0  0
  189.6590  176.5290  146.9100 O   0  0  0  0  0  0  0  0  0  0  0  0
  190.2760  178.0460  144.4790 C   0  0  0  0  0  3  0  0  0  0  0  0
  184.4490  179.1930  145.6390 C   0  0  0  0  0  2  0  0  0  0  0  0
  188.2580  176.7420  143.6760 C   0  0  1  0  0  3  0  0  0  0  0  0
  185.4380  178.7020  146.6900 C   0  0  0  0  0  0  0  0  0  0  0  0
  186.7110  178.3540  145.9210 C   0  0  1  0  0  3  0  0  0  0  0  0
  185.7190  179.8110  147.6840 C   0  0  0  0  0  1  0  0  0  0  0  0
  184.8770  178.6080  144.2940 C   0  0  1  0  0  3  0  0  0  0  0  0
  184.8340  177.5070  147.4150 C   0  0  0  0  0  1  0  0  0  0  0  0
  187.4920  177.2860  146.5430 N   0  0  0  0  0  2  0  0  0  0  0  0
  184.8960  179.7050  143.2360 C   0  0  0  0  0  2  0  0  0  0  0  0
  185.2530  179.3210  140.7780 N   0  0  0  0  0  0  0  0  0  0  0  0
  183.5770  177.8550  140.3240 N   0  0  0  0  0  0  0  0  0  0  0  0
  185.2340  178.5070  138.4820 C   0  0  0  0  0  1  0  0  0  0  0  0
  184.5060  179.1650  141.9440 N   0  0  0  0  0  0  0  0  0  0  0  0
  184.7100  178.5900  139.8700 C   0  0  0  0  0  0  0  0  0  0  0  0
  183.4300  178.2160  141.7290 C   0  0  0  0  0  3  0  0  0  0  0  0
  188.8550  176.5570  142.4260 O   0  0  0  0  0  0  0  0  0  0  0  0
  188.3570  177.5910  141.6320 C   0  0  0  0  0  2  0  0  0  0  0  0
  188.4440  177.1910  140.1740 C   0  0  0  0  0  2  0  0  0  0  0  0
  188.9620  178.3610  139.3630 C   0  0  0  0  0  2  0  0  0  0  0  0
  189.7270  177.8480  138.1590 C   0  0  0  0  0  2  0  0  0  0  0  0
  190.6320  176.7930  138.5790 N   0  0  0  0  0  2  0  0  0  0  0  0
  191.5010  176.4880  137.4530 C   0  0  0  0  0  2  0  0  0  0  0  0
  192.7990  176.0490  137.9360 N   0  0  0  0  0  2  0  0  0  0  0  0
  193.7030  176.0940  136.8010 C   0  0  0  0  0  2  0  0  0  0  0  0
  195.6880  173.6660  137.7350 C   0  0  0  0  0  2  0  0  0  0  0  0
  194.1950  173.8520  137.4350 C   0  0  0  0  0  2  0  0  0  0  0  0
  196.4100  174.8840  137.3960 N   0  0  0  0  0  0  0  0  0  0  0  0
  196.4080  175.0380  135.9400 C   0  0  0  0  0  2  0  0  0  0  0  0
  197.7900  174.6790  137.7970 C   0  0  0  0  0  1  0  0  0  0  0  0
  195.0250  174.7630  135.3140 C   0  0  0  0  0  2  0  0  0  0  0  0
  193.9280  174.7470  136.2960 N   0  0  0  0  0  0  0  0  0  0  0  0
  190.7460  178.4520  143.1200 C   0  0  0  0  0  2  0  0  0  0  0  0
  191.9650  176.4700  143.3930 C   0  0  0  0  0  1  0  0  0  0  0  0
  192.0630  177.6370  141.3800 C   0  0  0  0  0  1  0  0  0  0  0  0
  192.0130  177.8060  142.8210 N   0  0  0  0  0  0  0  0  0  0  0  0
  1  4  1  0  0  0  0
  3  8  1  0  0  0  0
  3  2  2  0  0  0  0
  4 14  1  0  0  0  0
  4  5  2  0  0  0  0
  6  1  2  0  0  0  0
  7  9  1  0  0  0  0
  8 22  1  6  0  0  0
  8  1  1  0  0  0  0
  9 13  1  0  0  0  0
  9 11  1  0  0  0  0
 10  2  1  6  0  0  0
 10 14  1  0  0  0  0
 10  9  1  0  0  0  0
 12 15  1  6  0  0  0
 12  2  1  0  0  0  0
 12  7  1  0  0  0  0
 16 19  1  0  0  0  0
 17 21  2  0  0  0  0
 18 20  1  0  0  0  0
 19 15  1  0  0  0  0
 20 17  1  0  0  0  0
 20 16  2  0  0  0  0
 21 19  1  0  0  0  0
 23 22  1  0  0  0  0
 24 23  1  0  0  0  0
 25 24  1  0  0  0  0
 26 27  1  0  0  0  0
 26 25  1  0  0  0  0
 28 29  1  0  0  0  0
 28 27  1  0  0  0  0
 30 29  1  0  0  0  0
 32 31  1  0  0  0  0
 33 31  1  0  0  0  0
 33 35  1  0  0  0  0
 34 33  1  0  0  0  0
 36 34  1  0  0  0  0
 36 37  1  0  0  0  0
 37 30  1  0  0  0  0
 37 32  1  0  0  0  0
 38  6  1  0  0  0  0
 40 41  1  0  0  0  0
 41 38  1  0  0  0  0
 41 39  1  0  0  0  0
M  END
>  <MODEL>
6

>  <REMARK>
 VINA RESULT:      -6.5      1.650      2.292
  Name = 
  14 active torsions:
  status: ('A' for Active; 'I' for Inactive)
    1  A    between atoms: N_3  and  C_17
    2  A    between atoms: N_3  and  C_32
    3  A    between atoms: C_4  and  N_30
    4  A    between atoms: C_4  and  C_35
    5  A    between atoms: C_15  and  C_26
    6  A    between atoms: C_17  and  N_37
    7  A    between atoms: C_19  and  O_20
    8  A    between atoms: O_20  and  C_21
    9  A    between atoms: C_21  and  C_22
   10  A    between atoms: C_22  and  C_28
   11  A    between atoms: N_25  and  C_32
   12  A    between atoms: N_25  and  C_39
   13  A    between atoms: C_26  and  N_40
   14  A    between atoms: C_28  and  C_39
                            x       y       z     vdW  Elec       q    Type
                         _______ _______ _______ _____ _____    ______ ____

>  <TORSDO>
F 14

$$$$
=
 OpenBabel10232410153D

 41 44  0  0  1  0  0  0  0  0999 V2000
  181.9920  177.7770  138.5590 C   0  0  0  0  0  0  0  0  0  0  0  0
  184.3560  176.2460  137.3860 C   0  0  0  0  0  0  0  0  0  0  0  0
  184.4680  177.2050  138.3230 C   0  0  0  0  0  3  0  0  0  0  0  0
  181.3420  176.4740  138.4310 C   0  0  0  0  0  0  0  0  0  0  0  0
  180.1650  176.3020  138.8410 O   0  0  0  0  0  0  0  0  0  0  0  0
  181.3720  178.8620  138.0770 C   0  0  0  0  0  3  0  0  0  0  0  0
  185.0100  174.6260  135.7470 C   0  0  0  0  0  2  0  0  0  0  0  0
  183.3630  177.7590  139.1880 C   0  0  1  0  0  3  0  0  0  0  0  0
  183.5540  174.3740  136.1240 C   0  0  0  0  0  0  0  0  0  0  0  0
  183.0970  175.6370  136.8520 C   0  0  1  0  0  3  0  0  0  0  0  0
  182.7290  174.1690  134.8700 C   0  0  0  0  0  1  0  0  0  0  0  0
  185.5570  175.6860  136.7000 C   0  0  1  0  0  3  0  0  0  0  0  0
  183.4800  173.1260  136.9940 C   0  0  0  0  0  1  0  0  0  0  0  0
  182.0600  175.3880  137.8510 N   0  0  0  0  0  2  0  0  0  0  0  0
  186.2860  176.7660  135.9090 C   0  0  0  0  0  2  0  0  0  0  0  0
  187.9730  176.9400  137.7640 N   0  0  0  0  0  0  0  0  0  0  0  0
  188.5590  179.1310  137.6070 N   0  0  0  0  0  0  0  0  0  0  0  0
  189.7330  177.6150  139.3080 C   0  0  0  0  0  1  0  0  0  0  0  0
  187.1720  177.5190  136.7820 N   0  0  0  0  0  0  0  0  0  0  0  0
  188.7390  177.8620  138.2310 C   0  0  0  0  0  0  0  0  0  0  0  0
  187.5150  178.9180  136.6110 C   0  0  0  0  0  3  0  0  0  0  0  0
  183.7370  178.9760  139.7640 O   0  0  0  0  0  0  0  0  0  0  0  0
  185.0720  178.8060  140.1320 C   0  0  0  0  0  2  0  0  0  0  0  0
  185.2410  179.1730  141.5920 C   0  0  0  0  0  2  0  0  0  0  0  0
  184.5370  178.1450  142.4530 C   0  0  0  0  0  2  0  0  0  0  0  0
  183.5170  178.8340  143.3380 C   0  0  0  0  0  2  0  0  0  0  0  0
  184.2060  179.5340  144.4090 N   0  0  0  0  0  2  0  0  0  0  0  0
  184.1250  178.7010  145.5990 C   0  0  0  0  0  2  0  0  0  0  0  0
  185.2280  179.0100  146.4930 N   0  0  0  0  0  2  0  0  0  0  0  0
  186.4490  178.7750  145.7450 C   0  0  0  0  0  2  0  0  0  0  0  0
  189.3400  177.3200  146.2230 C   0  0  0  0  0  2  0  0  0  0  0  0
  187.9440  177.2930  146.8570 C   0  0  0  0  0  2  0  0  0  0  0  0
  189.3140  178.1350  145.0170 N   0  0  0  0  0  0  0  0  0  0  0  0
  188.5300  177.4350  143.9980 C   0  0  0  0  0  2  0  0  0  0  0  0
  190.6790  178.2030  144.5270 C   0  0  0  0  0  1  0  0  0  0  0  0
  187.2190  176.8440  144.5570 C   0  0  0  0  0  2  0  0  0  0  0  0
  186.8480  177.3810  145.8770 N   0  0  0  0  0  0  0  0  0  0  0  0
  181.9350  180.2460  138.0940 C   0  0  0  0  0  2  0  0  0  0  0  0
  180.3290  181.0950  139.5720 C   0  0  0  0  0  1  0  0  0  0  0  0
  181.4760  182.5290  138.1380 C   0  0  0  0  0  1  0  0  0  0  0  0
  180.8620  181.2160  138.2240 N   0  0  0  0  0  0  0  0  0  0  0  0
  1  8  1  0  0  0  0
  2  3  2  0  0  0  0
  3  8  1  0  0  0  0
  4  1  1  0  0  0  0
  4  5  2  0  0  0  0
  6 38  1  0  0  0  0
  6  1  2  0  0  0  0
  7  9  1  0  0  0  0
  7 12  1  0  0  0  0
  8 22  1  6  0  0  0
  9 10  1  0  0  0  0
  9 13  1  0  0  0  0
 10  2  1  1  0  0  0
 10 14  1  0  0  0  0
 11  9  1  0  0  0  0
 12 15  1  6  0  0  0
 12  2  1  0  0  0  0
 14  4  1  0  0  0  0
 15 19  1  0  0  0  0
 16 20  2  0  0  0  0
 17 20  1  0  0  0  0
 19 16  1  0  0  0  0
 20 18  1  0  0  0  0
 21 19  1  0  0  0  0
 21 17  2  0  0  0  0
 22 23  1  0  0  0  0
 23 24  1  0  0  0  0
 24 25  1  0  0  0  0
 25 26  1  0  0  0  0
 26 27  1  0  0  0  0
 27 28  1  0  0  0  0
 28 29  1  0  0  0  0
 30 37  1  0  0  0  0
 30 29  1  0  0  0  0
 31 32  1  0  0  0  0
 33 31  1  0  0  0  0
 34 36  1  0  0  0  0
 34 33  1  0  0  0  0
 35 33  1  0  0  0  0
 36 37  1  0  0  0  0
 37 32  1  0  0  0  0
 38 41  1  0  0  0  0
 40 41  1  0  0  0  0
 41 39  1  0  0  0  0
M  END
>  <MODEL>
7

>  <REMARK>
 VINA RESULT:      -6.3      3.401      9.244
  Name = 
  14 active torsions:
  status: ('A' for Active; 'I' for Inactive)
    1  A    between atoms: N_3  and  C_17
    2  A    between atoms: N_3  and  C_32
    3  A    between atoms: C_4  and  N_30
    4  A    between atoms: C_4  and  C_35
    5  A    between atoms: C_15  and  C_26
    6  A    between atoms: C_17  and  N_37
    7  A    between atoms: C_19  and  O_20
    8  A    between atoms: O_20  and  C_21
    9  A    between atoms: C_21  and  C_22
   10  A    between atoms: C_22  and  C_28
   11  A    between atoms: N_25  and  C_32
   12  A    between atoms: N_25  and  C_39
   13  A    between atoms: C_26  and  N_40
   14  A    between atoms: C_28  and  C_39
                            x       y       z     vdW  Elec       q    Type
                         _______ _______ _______ _____ _____    ______ ____

>  <TORSDO>
F 14

$$$$
=
 OpenBabel10232410153D

 41 44  0  0  1  0  0  0  0  0999 V2000
  190.6080  177.1330  139.9620 C   0  0  0  0  0  0  0  0  0  0  0  0
  188.8170  176.4250  137.5940 C   0  0  0  0  0  0  0  0  0  0  0  0
  188.5110  177.3490  138.5240 C   0  0  0  0  0  3  0  0  0  0  0  0
  191.6620  176.9150  138.9720 C   0  0  0  0  0  0  0  0  0  0  0  0
  192.8690  177.1140  139.2660 O   0  0  0  0  0  0  0  0  0  0  0  0
  190.7030  176.5280  141.1530 C   0  0  0  0  0  3  0  0  0  0  0  0
  188.5530  174.9580  135.7200 C   0  0  0  0  0  2  0  0  0  0  0  0
  189.4580  177.9940  139.5050 C   0  0  1  0  0  3  0  0  0  0  0  0
  190.0390  175.0760  136.0370 C   0  0  0  0  0  0  0  0  0  0  0  0
  190.1100  175.6880  137.4350 C   0  0  1  0  0  3  0  0  0  0  0  0
  190.6720  173.7000  136.0390 C   0  0  0  0  0  1  0  0  0  0  0  0
  187.8130  175.9730  136.5880 C   0  0  1  0  0  3  0  0  0  0  0  0
  190.7020  175.9420  134.9740 C   0  0  0  0  0  1  0  0  0  0  0  0
  191.3110  176.4920  137.6570 N   0  0  0  0  0  2  0  0  0  0  0  0
  186.6230  175.3040  137.2670 C   0  0  0  0  0  2  0  0  0  0  0  0
  184.7480  176.8180  137.9790 N   0  0  0  0  0  0  0  0  0  0  0  0
  183.7680  177.2580  135.9760 N   0  0  0  0  0  0  0  0  0  0  0  0
  182.8950  178.3950  138.1000 C   0  0  0  0  0  1  0  0  0  0  0  0
  185.4080  176.0600  137.0140 N   0  0  0  0  0  0  0  0  0  0  0  0
  183.8170  177.4760  137.3830 C   0  0  0  0  0  0  0  0  0  0  0  0
  184.8460  176.3160  135.7010 C   0  0  0  0  0  3  0  0  0  0  0  0
  188.7600  178.6050  140.5510 O   0  0  0  0  0  0  0  0  0  0  0  0
  187.4120  178.4310  140.2340 C   0  0  0  0  0  2  0  0  0  0  0  0
  186.5630  178.7920  141.4350 C   0  0  0  0  0  2  0  0  0  0  0  0
  185.1270  178.9880  140.9960 C   0  0  0  0  0  2  0  0  0  0  0  0
  184.2280  178.0310  141.7520 C   0  0  0  0  0  2  0  0  0  0  0  0
  183.2690  178.7910  142.5340 N   0  0  0  0  0  2  0  0  0  0  0  0
  183.7060  178.7510  143.9220 C   0  0  0  0  0  2  0  0  0  0  0  0
  184.4450  179.9610  144.2410 N   0  0  0  0  0  2  0  0  0  0  0  0
  185.6070  179.5490  145.0070 C   0  0  0  0  0  2  0  0  0  0  0  0
  187.0280  177.9660  147.4920 C   0  0  0  0  0  2  0  0  0  0  0  0
  185.6100  178.3870  147.0840 C   0  0  0  0  0  2  0  0  0  0  0  0
  187.9570  178.2640  146.4120 N   0  0  0  0  0  0  0  0  0  0  0  0
  187.6800  177.3590  145.2950 C   0  0  0  0  0  2  0  0  0  0  0  0
  189.2850  177.9400  146.8980 C   0  0  0  0  0  1  0  0  0  0  0  0
  186.1710  177.2230  144.9990 C   0  0  0  0  0  2  0  0  0  0  0  0
  185.3500  178.2640  145.6400 N   0  0  0  0  0  0  0  0  0  0  0  0
  189.6820  176.6190  142.2400 C   0  0  0  0  0  2  0  0  0  0  0  0
  191.3650  175.9170  143.7100 C   0  0  0  0  0  1  0  0  0  0  0  0
  191.0130  178.1880  143.3310 C   0  0  0  0  0  1  0  0  0  0  0  0
  190.3300  176.9180  143.5050 N   0  0  0  0  0  0  0  0  0  0  0  0
  1  6  2  0  0  0  0
  2  3  2  0  0  0  0
  3  8  1  0  0  0  0
  4  5  2  0  0  0  0
  4  1  1  0  0  0  0
  6 38  1  0  0  0  0
  7  9  1  0  0  0  0
  7 12  1  0  0  0  0
  8  1  1  0  0  0  0
  8 22  1  1  0  0  0
  9 11  1  0  0  0  0
  9 10  1  0  0  0  0
 10  2  1  6  0  0  0
 10 14  1  0  0  0  0
 12 15  1  1  0  0  0
 12  2  1  0  0  0  0
 13  9  1  0  0  0  0
 14  4  1  0  0  0  0
 17 20  1  0  0  0  0
 19 15  1  0  0  0  0
 19 16  1  0  0  0  0
 20 16  2  0  0  0  0
 20 18  1  0  0  0  0
 21 17  2  0  0  0  0
 21 19  1  0  0  0  0
 23 22  1  0  0  0  0
 23 24  1  0  0  0  0
 25 24  1  0  0  0  0
 25 26  1  0  0  0  0
 26 27  1  0  0  0  0
 27 28  1  0  0  0  0
 28 29  1  0  0  0  0
 29 30  1  0  0  0  0
 30 37  1  0  0  0  0
 32 31  1  0  0  0  0
 33 35  1  0  0  0  0
 33 31  1  0  0  0  0
 34 33  1  0  0  0  0
 36 34  1  0  0  0  0
 36 37  1  0  0  0  0
 37 32  1  0  0  0  0
 38 41  1  0  0  0  0
 40 41  1  0  0  0  0
 41 39  1  0  0  0  0
M  END
>  <MODEL>
8

>  <REMARK>
 VINA RESULT:      -6.3      2.078      8.000
  Name = 
  14 active torsions:
  status: ('A' for Active; 'I' for Inactive)
    1  A    between atoms: N_3  and  C_17
    2  A    between atoms: N_3  and  C_32
    3  A    between atoms: C_4  and  N_30
    4  A    between atoms: C_4  and  C_35
    5  A    between atoms: C_15  and  C_26
    6  A    between atoms: C_17  and  N_37
    7  A    between atoms: C_19  and  O_20
    8  A    between atoms: O_20  and  C_21
    9  A    between atoms: C_21  and  C_22
   10  A    between atoms: C_22  and  C_28
   11  A    between atoms: N_25  and  C_32
   12  A    between atoms: N_25  and  C_39
   13  A    between atoms: C_26  and  N_40
   14  A    between atoms: C_28  and  C_39
                            x       y       z     vdW  Elec       q    Type
                         _______ _______ _______ _____ _____    ______ ____

>  <TORSDO>
F 14

$$$$
=
 OpenBabel10232410153D

 41 44  0  0  1  0  0  0  0  0999 V2000
  191.6130  177.2670  139.8230 C   0  0  0  0  0  0  0  0  0  0  0  0
  191.1600  175.3810  137.4680 C   0  0  0  0  0  0  0  0  0  0  0  0
  190.2580  176.2820  137.8980 C   0  0  0  0  0  3  0  0  0  0  0  0
  192.9740  177.2820  139.2900 C   0  0  0  0  0  0  0  0  0  0  0  0
  193.8570  178.0160  139.8070 O   0  0  0  0  0  0  0  0  0  0  0  0
  191.4310  177.0360  141.1300 C   0  0  0  0  0  3  0  0  0  0  0  0
  192.0870  173.5550  136.2250 C   0  0  0  0  0  2  0  0  0  0  0  0
  190.5160  177.4580  138.8060 C   0  0  1  0  0  3  0  0  0  0  0  0
  193.2290  174.3360  136.8640 C   0  0  0  0  0  0  0  0  0  0  0  0
  192.5760  175.2190  137.9260 C   0  0  1  0  0  3  0  0  0  0  0  0
  194.2040  173.3760  137.5150 C   0  0  0  0  0  1  0  0  0  0  0  0
  190.8010  174.3460  136.4540 C   0  0  1  0  0  3  0  0  0  0  0  0
  193.9450  175.1350  135.7830 C   0  0  0  0  0  1  0  0  0  0  0  0
  193.2940  176.4700  138.1630 N   0  0  0  0  0  2  0  0  0  0  0  0
  189.7110  173.4210  136.9820 C   0  0  0  0  0  2  0  0  0  0  0  0
  187.3460  172.8210  136.3770 N   0  0  0  0  0  0  0  0  0  0  0  0
  186.7620  174.6090  135.1020 N   0  0  0  0  0  0  0  0  0  0  0  0
  185.0300  172.7940  135.6210 C   0  0  0  0  0  1  0  0  0  0  0  0
  188.4740  173.6280  136.2460 N   0  0  0  0  0  0  0  0  0  0  0  0
  186.3940  173.3770  135.7150 C   0  0  0  0  0  0  0  0  0  0  0  0
  188.1610  174.8080  135.4620 C   0  0  0  0  0  3  0  0  0  0  0  0
  189.3240  177.9490  139.3470 O   0  0  0  0  0  0  0  0  0  0  0  0
  188.3170  177.4120  138.5440 C   0  0  0  0  0  2  0  0  0  0  0  0
  187.5670  178.5370  137.8610 C   0  0  0  0  0  2  0  0  0  0  0  0
  186.2440  178.0160  137.3400 C   0  0  0  0  0  2  0  0  0  0  0  0
  185.2270  177.9940  138.4630 C   0  0  0  0  0  2  0  0  0  0  0  0
  185.1630  179.3070  139.0790 N   0  0  0  0  0  2  0  0  0  0  0  0
  184.7300  179.1230  140.4560 C   0  0  0  0  0  2  0  0  0  0  0  0
  185.8550  179.3110  141.3570 N   0  0  0  0  0  2  0  0  0  0  0  0
  185.2970  179.5840  142.6680 C   0  0  0  0  0  2  0  0  0  0  0  0
  184.1320  178.7850  145.6190 C   0  0  0  0  0  2  0  0  0  0  0  0
  183.6290  178.7890  144.1700 C   0  0  0  0  0  2  0  0  0  0  0  0
  185.5460  179.1260  145.6470 N   0  0  0  0  0  0  0  0  0  0  0  0
  186.3050  178.0210  145.0590 C   0  0  0  0  0  2  0  0  0  0  0  0
  185.9310  179.2060  147.0450 C   0  0  0  0  0  1  0  0  0  0  0  0
  185.6670  177.4860  143.7600 C   0  0  0  0  0  2  0  0  0  0  0  0
  184.6520  178.3870  143.1890 N   0  0  0  0  0  0  0  0  0  0  0  0
  190.1010  176.9440  141.8030 C   0  0  0  0  0  2  0  0  0  0  0  0
  191.3460  176.0680  143.5840 C   0  0  0  0  0  1  0  0  0  0  0  0
  189.0220  176.1610  143.7140 C   0  0  0  0  0  1  0  0  0  0  0  0
  190.1270  175.8960  142.8100 N   0  0  0  0  0  0  0  0  0  0  0  0
  1  6  2  0  0  0  0
  2  3  2  0  0  0  0
  3  8  1  0  0  0  0
  4  5  2  0  0  0  0
  4  1  1  0  0  0  0
  6 38  1  0  0  0  0
  7 12  1  0  0  0  0
  7  9  1  0  0  0  0
  8 22  1  1  0  0  0
  8  1  1  0  0  0  0
  9 11  1  0  0  0  0
  9 10  1  0  0  0  0
 10  2  1  6  0  0  0
 10 14  1  0  0  0  0
 12 15  1  1  0  0  0
 12  2  1  0  0  0  0
 13  9  1  0  0  0  0
 14  4  1  0  0  0  0
 17 21  2  0  0  0  0
 17 20  1  0  0  0  0
 18 20  1  0  0  0  0
 19 16  1  0  0  0  0
 19 15  1  0  0  0  0
 20 16  2  0  0  0  0
 21 19  1  0  0  0  0
 23 22  1  0  0  0  0
 24 23  1  0  0  0  0
 25 24  1  0  0  0  0
 25 26  1  0  0  0  0
 26 27  1  0  0  0  0
 27 28  1  0  0  0  0
 28 29  1  0  0  0  0
 29 30  1  0  0  0  0
 30 37  1  0  0  0  0
 31 33  1  0  0  0  0
 32 31  1  0  0  0  0
 33 35  1  0  0  0  0
 34 33  1  0  0  0  0
 36 34  1  0  0  0  0
 37 36  1  0  0  0  0
 37 32  1  0  0  0  0
 38 41  1  0  0  0  0
 41 39  1  0  0  0  0
 41 40  1  0  0  0  0
M  END
>  <MODEL>
9

>  <REMARK>
 VINA RESULT:      -6.3      2.216      8.499
  Name = 
  14 active torsions:
  status: ('A' for Active; 'I' for Inactive)
    1  A    between atoms: N_3  and  C_17
    2  A    between atoms: N_3  and  C_32
    3  A    between atoms: C_4  and  N_30
    4  A    between atoms: C_4  and  C_35
    5  A    between atoms: C_15  and  C_26
    6  A    between atoms: C_17  and  N_37
    7  A    between atoms: C_19  and  O_20
    8  A    between atoms: O_20  and  C_21
    9  A    between atoms: C_21  and  C_22
   10  A    between atoms: C_22  and  C_28
   11  A    between atoms: N_25  and  C_32
   12  A    between atoms: N_25  and  C_39
   13  A    between atoms: C_26  and  N_40
   14  A    between atoms: C_28  and  C_39
                            x       y       z     vdW  Elec       q    Type
                         _______ _______ _______ _____ _____    ______ ____

>  <TORSDO>
F 14

$$$$
