=
 OpenBabel10222421533D

 40 42  0  0  1  0  0  0  0  0999 V2000
  185.0330  178.5320  141.2790 N   0  0  0  0  0  0  0  0  0  0  0  0
  182.3130  178.9930  141.2660 C   0  0  0  0  0  0  0  0  0  0  0  0
  184.5140  178.8510  140.1290 C   0  0  0  0  0  0  0  0  0  0  0  0
  184.2110  178.0470  142.3850 C   0  0  2  0  0  3  0  0  0  0  0  0
  182.8960  178.6600  142.3690 N   0  0  0  0  0  0  0  0  0  0  0  0
  182.5790  179.8480  138.9220 C   0  0  0  0  0  1  0  0  0  0  0  0
  183.0180  178.7980  139.9360 C   0  0  2  0  0  3  0  0  0  0  0  0
  186.0670  177.6750  143.9940 N   0  0  0  0  0  0  0  0  0  0  0  0
  186.5120  178.0260  145.2160 C   0  0  0  0  0  0  0  0  0  0  0  0
  185.4620  179.1130  145.9510 S   0  0  0  0  0  0  0  0  0  0  0  0
  184.8900  178.2870  143.6910 C   0  0  0  0  0  0  0  0  0  0  0  0
  184.3720  179.1450  144.6680 C   0  0  0  0  0  3  0  0  0  0  0  0
  187.8620  177.8350  147.2760 C   0  0  0  0  0  1  0  0  0  0  0  0
  187.7980  177.5280  145.7930 C   0  0  2  0  0  3  0  0  0  0  0  0
  191.4520  179.2790  144.1520 C   0  0  0  0  0  1  0  0  0  0  0  0
  190.4600  175.8450  142.7410 C   0  0  0  0  0  2  0  0  0  0  0  0
  190.6550  178.2590  143.4890 N   0  0  0  0  0  0  0  0  0  0  0  0
  189.2520  176.2570  143.5790 C   0  0  0  0  0  2  0  0  0  0  0  0
  188.9320  178.1480  145.1160 N   0  0  0  0  0  0  0  0  0  0  0  0
  191.2890  177.3560  142.1210 S   0  0  0  0  0  0  0  0  0  0  0  0
  189.5760  177.6000  144.1290 C   0  0  0  0  0  0  0  0  0  0  0  0
  180.6550  180.0970  142.5490 O   0  0  0  0  0  1  0  0  0  0  0  0
  180.8970  179.4770  141.3210 C   0  0  0  0  0  2  0  0  0  0  0  0
  185.3410  179.2350  139.0630 O   0  0  0  0  0  0  0  0  0  0  0  0
  186.0210  178.2970  138.2340 C   0  0  0  0  0  2  0  0  0  0  0  0
  187.4240  178.0340  138.7630 C   0  0  0  0  0  2  0  0  0  0  0  0
  188.4000  178.7540  137.9600 N   0  0  0  0  0  2  0  0  0  0  0  0
  189.2060  177.7560  137.2760 C   0  0  0  0  0  2  0  0  0  0  0  0
  189.4640  176.5850  138.2090 C   0  0  0  0  0  2  0  0  0  0  0  0
  190.8650  176.5540  138.5960 N   0  0  0  0  0  2  0  0  0  0  0  0
  191.6440  176.4810  137.3680 C   0  0  0  0  0  2  0  0  0  0  0  0
  193.3170  176.9890  138.9860 O   0  0  0  0  0  1  0  0  0  0  0  0
  193.1300  176.5130  137.6880 C   0  0  1  0  0  3  0  0  0  0  0  0
  192.9970  174.1350  137.4960 O   0  0  0  0  0  0  0  0  0  0  0  0
  193.7380  175.1540  137.5510 C   0  0  0  0  0  0  0  0  0  0  0  0
  195.1260  175.0380  137.4710 O   0  0  0  0  0  0  0  0  0  0  0  0
  195.8860  175.0960  140.0030 O   0  0  0  0  0  1  0  0  0  0  0  0
  197.6950  174.3080  138.2760 O   0  0  0  0  0  0  0  0  0  0  0  0
  196.0630  174.3140  138.7200 P   0  0  0  0  0  0  0  0  0  0  0  0
  195.5440  172.7240  138.9610 O   0  0  0  0  0  1  0  0  0  0  0  0
  1  4  1  0  0  0  0
  2 23  1  0  0  0  0
  2  5  2  0  0  0  0
  3  1  2  0  0  0  0
  4 11  1  1  0  0  0
  5  4  1  0  0  0  0
  7  6  1  6  0  0  0
  7  3  1  0  0  0  0
  7  2  1  0  0  0  0
  8  9  2  0  0  0  0
  9 14  1  0  0  0  0
  9 10  1  0  0  0  0
 11  8  1  0  0  0  0
 11 12  2  0  0  0  0
 12 10  1  0  0  0  0
 14 13  1  1  0  0  0
 16 18  1  0  0  0  0
 17 21  1  0  0  0  0
 17 15  1  0  0  0  0
 18 21  1  0  0  0  0
 19 14  1  0  0  0  0
 20 16  1  0  0  0  0
 20 17  1  0  0  0  0
 21 19  2  0  0  0  0
 23 22  1  0  0  0  0
 24  3  1  0  0  0  0
 25 26  1  0  0  0  0
 25 24  1  0  0  0  0
 27 26  1  0  0  0  0
 28 27  1  0  0  0  0
 28 29  1  0  0  0  0
 29 30  1  0  0  0  0
 31 33  1  0  0  0  0
 31 30  1  0  0  0  0
 33 32  1  1  0  0  0
 34 35  2  0  0  0  0
 35 33  1  0  0  0  0
 36 35  1  0  0  0  0
 36 39  1  0  0  0  0
 38 39  2  0  0  0  0
 39 40  1  0  0  0  0
 39 37  1  0  0  0  0
M  END
>  <MODEL>
1

>  <REMARK>
 VINA RESULT:      -7.6      0.000      0.000
  Name = 
  16 active torsions:
  status: ('A' for Active; 'I' for Inactive)
    1  A    between atoms: C_3  and  N_20
    2  A    between atoms: C_3  and  C_39
    3  A    between atoms: C_9  and  C_40
    4  A    between atoms: CA_10  and  C_22
    5  A    between atoms: C_11  and  C_18
    6  A    between atoms: C_11  and  C_19
    7  A    between atoms: O_13  and  C_18
    8  A    between atoms: O_13  and  P_29
    9  A    between atoms: N_17  and  C_19
   10  A    between atoms: N_17  and  C_34
   11  A    between atoms: N_20  and  C_32
   12  A    between atoms: C_23  and  O_36
   13  A    between atoms: C_24  and  C_25
   14  A    between atoms: N_30  and  C_40
   15  A    between atoms: C_32  and  C_34
   16  A    between atoms: O_36  and  C_39
                            x       y       z     vdW  Elec       q    Type
                         _______ _______ _______ _____ _____    ______ ____

>  <TORSDO>
F 16

$$$$
=
 OpenBabel10222421533D

 40 42  0  0  1  0  0  0  0  0999 V2000
  184.8560  178.6400  141.0860 N   0  0  0  0  0  0  0  0  0  0  0  0
  182.1290  179.0640  141.1240 C   0  0  0  0  0  0  0  0  0  0  0  0
  184.3150  178.9740  139.9500 C   0  0  0  0  0  0  0  0  0  0  0  0
  184.0570  178.1220  142.1950 C   0  0  2  0  0  3  0  0  0  0  0  0
  182.7340  178.7180  142.2100 N   0  0  0  0  0  0  0  0  0  0  0  0
  182.3490  179.9680  138.7930 C   0  0  0  0  0  1  0  0  0  0  0  0
  182.8170  178.9050  139.7790 C   0  0  2  0  0  3  0  0  0  0  0  0
  185.9100  177.6950  143.7930 N   0  0  0  0  0  0  0  0  0  0  0  0
  186.3750  178.0370  145.0100 C   0  0  0  0  0  0  0  0  0  0  0  0
  185.3680  179.1630  145.7460 S   0  0  0  0  0  0  0  0  0  0  0  0
  184.7520  178.3460  143.4950 C   0  0  0  0  0  0  0  0  0  0  0  0
  184.2700  179.2250  144.4710 C   0  0  0  0  0  3  0  0  0  0  0  0
  187.6920  177.7330  147.0790 C   0  0  0  0  0  1  0  0  0  0  0  0
  187.6480  177.4990  145.5810 C   0  0  2  0  0  3  0  0  0  0  0  0
  191.3320  179.3230  144.0960 C   0  0  0  0  0  1  0  0  0  0  0  0
  190.4960  175.8470  142.6860 C   0  0  0  0  0  2  0  0  0  0  0  0
  190.5940  178.2750  143.4100 N   0  0  0  0  0  0  0  0  0  0  0  0
  189.2390  176.2380  143.4580 C   0  0  0  0  0  2  0  0  0  0  0  0
  188.7970  178.1390  144.9510 N   0  0  0  0  0  0  0  0  0  0  0  0
  191.3170  177.3710  142.0860 S   0  0  0  0  0  0  0  0  0  0  0  0
  189.5030  177.5960  144.0050 C   0  0  0  0  0  0  0  0  0  0  0  0
  180.4990  180.1920  142.4190 O   0  0  0  0  0  1  0  0  0  0  0  0
  180.7090  179.5280  141.2090 C   0  0  0  0  0  2  0  0  0  0  0  0
  185.1200  179.3900  138.8800 O   0  0  0  0  0  0  0  0  0  0  0  0
  185.5200  178.5170  137.8280 C   0  0  0  0  0  2  0  0  0  0  0  0
  186.7660  177.7370  138.2240 C   0  0  0  0  0  2  0  0  0  0  0  0
  187.7080  178.6170  138.8990 N   0  0  0  0  0  2  0  0  0  0  0  0
  188.7710  177.7770  139.4260 C   0  0  0  0  0  2  0  0  0  0  0  0
  189.8290  177.5650  138.3550 C   0  0  0  0  0  2  0  0  0  0  0  0
  190.2280  176.1670  138.3190 N   0  0  0  0  0  2  0  0  0  0  0  0
  190.6180  175.8710  136.9490 C   0  0  0  0  0  2  0  0  0  0  0  0
  190.0550  173.6230  137.5050 O   0  0  0  0  0  1  0  0  0  0  0  0
  189.9700  174.5750  136.4880 C   0  0  1  0  0  3  0  0  0  0  0  0
  188.2490  175.2380  134.9690 O   0  0  0  0  0  0  0  0  0  0  0  0
  188.5400  174.7940  136.1130 C   0  0  0  0  0  0  0  0  0  0  0  0
  187.5420  174.4850  137.0390 O   0  0  0  0  0  0  0  0  0  0  0  0
  187.0220  172.0240  136.2240 O   0  0  0  0  0  1  0  0  0  0  0  0
  185.2420  173.8450  135.5980 O   0  0  0  0  0  0  0  0  0  0  0  0
  186.3510  173.2780  136.7410 P   0  0  0  0  0  0  0  0  0  0  0  0
  185.5410  172.9230  138.1800 O   0  0  0  0  0  1  0  0  0  0  0  0
  1  4  1  0  0  0  0
  2 23  1  0  0  0  0
  2  5  2  0  0  0  0
  3  1  2  0  0  0  0
  4  5  1  0  0  0  0
  4 11  1  1  0  0  0
  7  6  1  6  0  0  0
  7  3  1  0  0  0  0
  7  2  1  0  0  0  0
  8  9  2  0  0  0  0
  9 14  1  0  0  0  0
  9 10  1  0  0  0  0
 11  8  1  0  0  0  0
 11 12  2  0  0  0  0
 12 10  1  0  0  0  0
 14 13  1  1  0  0  0
 16 18  1  0  0  0  0
 17 21  1  0  0  0  0
 17 15  1  0  0  0  0
 18 21  1  0  0  0  0
 19 14  1  0  0  0  0
 20 16  1  0  0  0  0
 20 17  1  0  0  0  0
 21 19  2  0  0  0  0
 23 22  1  0  0  0  0
 24  3  1  0  0  0  0
 25 26  1  0  0  0  0
 25 24  1  0  0  0  0
 26 27  1  0  0  0  0
 27 28  1  0  0  0  0
 29 28  1  0  0  0  0
 30 29  1  0  0  0  0
 31 30  1  0  0  0  0
 33 31  1  0  0  0  0
 33 32  1  1  0  0  0
 34 35  2  0  0  0  0
 35 33  1  0  0  0  0
 35 36  1  0  0  0  0
 37 39  1  0  0  0  0
 38 39  2  0  0  0  0
 39 36  1  0  0  0  0
 39 40  1  0  0  0  0
M  END
>  <MODEL>
2

>  <REMARK>
 VINA RESULT:      -7.0      2.836      3.980
  Name = 
  16 active torsions:
  status: ('A' for Active; 'I' for Inactive)
    1  A    between atoms: C_3  and  N_20
    2  A    between atoms: C_3  and  C_39
    3  A    between atoms: C_9  and  C_40
    4  A    between atoms: CA_10  and  C_22
    5  A    between atoms: C_11  and  C_18
    6  A    between atoms: C_11  and  C_19
    7  A    between atoms: O_13  and  C_18
    8  A    between atoms: O_13  and  P_29
    9  A    between atoms: N_17  and  C_19
   10  A    between atoms: N_17  and  C_34
   11  A    between atoms: N_20  and  C_32
   12  A    between atoms: C_23  and  O_36
   13  A    between atoms: C_24  and  C_25
   14  A    between atoms: N_30  and  C_40
   15  A    between atoms: C_32  and  C_34
   16  A    between atoms: O_36  and  C_39
                            x       y       z     vdW  Elec       q    Type
                         _______ _______ _______ _____ _____    ______ ____

>  <TORSDO>
F 16

$$$$
=
 OpenBabel10222421533D

 40 42  0  0  1  0  0  0  0  0999 V2000
  184.8330  178.5400  141.1890 N   0  0  0  0  0  0  0  0  0  0  0  0
  182.1100  178.9820  141.2690 C   0  0  0  0  0  0  0  0  0  0  0  0
  184.2720  178.8490  140.0560 C   0  0  0  0  0  0  0  0  0  0  0  0
  184.0530  178.0560  142.3260 C   0  0  2  0  0  3  0  0  0  0  0  0
  182.7340  178.6600  142.3530 N   0  0  0  0  0  0  0  0  0  0  0  0
  182.2880  179.8250  138.9120 C   0  0  0  0  0  1  0  0  0  0  0  0
  182.7700  178.7840  139.9160 C   0  0  2  0  0  3  0  0  0  0  0  0
  185.9410  177.6660  143.8940 N   0  0  0  0  0  0  0  0  0  0  0  0
  186.4300  178.0350  145.0940 C   0  0  0  0  0  0  0  0  0  0  0  0
  185.4370  179.1750  145.8260 S   0  0  0  0  0  0  0  0  0  0  0  0
  184.7750  178.3090  143.6060 C   0  0  0  0  0  0  0  0  0  0  0  0
  184.3130  179.2090  144.5730 C   0  0  0  0  0  3  0  0  0  0  0  0
  187.7910  177.7770  147.1400 C   0  0  0  0  0  1  0  0  0  0  0  0
  187.7160  177.5100  145.6490 C   0  0  2  0  0  3  0  0  0  0  0  0
  191.3720  179.2850  144.0390 C   0  0  0  0  0  1  0  0  0  0  0  0
  190.4040  175.8530  142.6070 C   0  0  0  0  0  2  0  0  0  0  0  0
  190.5830  178.2650  143.3670 N   0  0  0  0  0  0  0  0  0  0  0  0
  189.1880  176.2560  143.4390 C   0  0  0  0  0  2  0  0  0  0  0  0
  188.8500  178.1390  144.9820 N   0  0  0  0  0  0  0  0  0  0  0  0
  191.2310  177.3700  141.9990 S   0  0  0  0  0  0  0  0  0  0  0  0
  189.5040  177.5970  143.9980 C   0  0  0  0  0  0  0  0  0  0  0  0
  180.5460  180.2700  142.4950 O   0  0  0  0  0  1  0  0  0  0  0  0
  180.6940  179.4560  141.3710 C   0  0  0  0  0  2  0  0  0  0  0  0
  185.0570  179.2320  138.9600 O   0  0  0  0  0  0  0  0  0  0  0  0
  186.0750  178.4020  138.4090 C   0  0  0  0  0  2  0  0  0  0  0  0
  185.6540  177.8760  137.0430 C   0  0  0  0  0  2  0  0  0  0  0  0
  185.1140  176.5320  137.1740 N   0  0  0  0  0  2  0  0  0  0  0  0
  186.2170  175.6080  136.9670 C   0  0  0  0  0  2  0  0  0  0  0  0
  187.0260  176.0450  135.7570 C   0  0  0  0  0  2  0  0  0  0  0  0
  188.4250  175.6920  135.9390 N   0  0  0  0  0  2  0  0  0  0  0  0
  188.7190  175.8340  137.3570 C   0  0  0  0  0  2  0  0  0  0  0  0
  189.7840  177.6200  138.5200 O   0  0  0  0  0  1  0  0  0  0  0  0
  189.9940  176.6400  137.5490 C   0  0  1  0  0  3  0  0  0  0  0  0
  190.9380  174.5250  138.1350 O   0  0  0  0  0  0  0  0  0  0  0  0
  191.1310  175.7580  137.9520 C   0  0  0  0  0  0  0  0  0  0  0  0
  192.4010  176.3170  138.1050 O   0  0  0  0  0  0  0  0  0  0  0  0
  194.8000  175.2370  138.3670 O   0  0  0  0  0  1  0  0  0  0  0  0
  194.4770  176.8400  136.3170 O   0  0  0  0  0  0  0  0  0  0  0  0
  193.7920  175.6680  137.3250 P   0  0  0  0  0  0  0  0  0  0  0  0
  193.3410  174.3280  136.3990 O   0  0  0  0  0  1  0  0  0  0  0  0
  1  4  1  0  0  0  0
  2 23  1  0  0  0  0
  2  5  2  0  0  0  0
  3  1  2  0  0  0  0
  4  5  1  0  0  0  0
  4 11  1  1  0  0  0
  7  6  1  6  0  0  0
  7  3  1  0  0  0  0
  7  2  1  0  0  0  0
  8  9  2  0  0  0  0
  9 14  1  0  0  0  0
  9 10  1  0  0  0  0
 11  8  1  0  0  0  0
 11 12  2  0  0  0  0
 12 10  1  0  0  0  0
 14 13  1  1  0  0  0
 16 18  1  0  0  0  0
 17 21  1  0  0  0  0
 17 15  1  0  0  0  0
 18 21  1  0  0  0  0
 19 14  1  0  0  0  0
 20 16  1  0  0  0  0
 20 17  1  0  0  0  0
 21 19  2  0  0  0  0
 23 22  1  0  0  0  0
 24  3  1  0  0  0  0
 25 24  1  0  0  0  0
 26 27  1  0  0  0  0
 26 25  1  0  0  0  0
 28 27  1  0  0  0  0
 29 30  1  0  0  0  0
 29 28  1  0  0  0  0
 30 31  1  0  0  0  0
 31 33  1  0  0  0  0
 33 35  1  0  0  0  0
 33 32  1  1  0  0  0
 35 36  1  0  0  0  0
 35 34  2  0  0  0  0
 38 39  2  0  0  0  0
 39 36  1  0  0  0  0
 39 37  1  0  0  0  0
 40 39  1  0  0  0  0
M  END
>  <MODEL>
3

>  <REMARK>
 VINA RESULT:      -6.8      1.510      2.024
  Name = 
  16 active torsions:
  status: ('A' for Active; 'I' for Inactive)
    1  A    between atoms: C_3  and  N_20
    2  A    between atoms: C_3  and  C_39
    3  A    between atoms: C_9  and  C_40
    4  A    between atoms: CA_10  and  C_22
    5  A    between atoms: C_11  and  C_18
    6  A    between atoms: C_11  and  C_19
    7  A    between atoms: O_13  and  C_18
    8  A    between atoms: O_13  and  P_29
    9  A    between atoms: N_17  and  C_19
   10  A    between atoms: N_17  and  C_34
   11  A    between atoms: N_20  and  C_32
   12  A    between atoms: C_23  and  O_36
   13  A    between atoms: C_24  and  C_25
   14  A    between atoms: N_30  and  C_40
   15  A    between atoms: C_32  and  C_34
   16  A    between atoms: O_36  and  C_39
                            x       y       z     vdW  Elec       q    Type
                         _______ _______ _______ _____ _____    ______ ____

>  <TORSDO>
F 16

$$$$
=
 OpenBabel10222421533D

 40 42  0  0  1  0  0  0  0  0999 V2000
  186.8820  177.6420  142.9070 N   0  0  0  0  0  0  0  0  0  0  0  0
  186.2140  178.5770  145.4160 C   0  0  0  0  0  0  0  0  0  0  0  0
  187.6560  177.2620  143.8820 C   0  0  0  0  0  0  0  0  0  0  0  0
  185.9890  178.7910  143.0380 C   0  0  2  0  0  3  0  0  0  0  0  0
  185.4990  178.9220  144.3980 N   0  0  0  0  0  0  0  0  0  0  0  0
  187.9280  176.9950  146.3420 C   0  0  0  0  0  1  0  0  0  0  0  0
  187.5890  177.9650  145.2160 C   0  0  2  0  0  3  0  0  0  0  0  0
  185.0680  178.7360  140.7320 N   0  0  0  0  0  0  0  0  0  0  0  0
  183.9160  178.6270  140.0400 C   0  0  0  0  0  0  0  0  0  0  0  0
  182.6040  178.4610  141.0760 S   0  0  0  0  0  0  0  0  0  0  0  0
  184.8540  178.6900  142.0760 C   0  0  0  0  0  0  0  0  0  0  0  0
  183.5250  178.5390  142.4840 C   0  0  0  0  0  3  0  0  0  0  0  0
  182.4360  178.8570  138.0760 C   0  0  0  0  0  1  0  0  0  0  0  0
  183.8570  178.6150  138.5460 C   0  0  2  0  0  3  0  0  0  0  0  0
  184.9890  174.8540  136.6290 C   0  0  0  0  0  1  0  0  0  0  0  0
  187.5320  177.7190  136.3300 C   0  0  0  0  0  2  0  0  0  0  0  0
  185.9260  175.8890  137.0350 N   0  0  0  0  0  0  0  0  0  0  0  0
  186.5030  178.2490  137.3250 C   0  0  0  0  0  2  0  0  0  0  0  0
  184.3330  177.3370  138.0300 N   0  0  0  0  0  0  0  0  0  0  0  0
  187.5850  175.8920  136.4530 S   0  0  0  0  0  0  0  0  0  0  0  0
  185.5040  177.1600  137.4960 C   0  0  0  0  0  0  0  0  0  0  0  0
  184.4210  178.3540  146.9480 O   0  0  0  0  0  1  0  0  0  0  0  0
  185.7020  178.8850  146.7890 C   0  0  0  0  0  2  0  0  0  0  0  0
  188.5590  176.2060  143.6960 O   0  0  0  0  0  0  0  0  0  0  0  0
  189.3920  176.0940  142.5460 C   0  0  0  0  0  2  0  0  0  0  0  0
  190.5160  177.1190  142.5980 C   0  0  0  0  0  2  0  0  0  0  0  0
  190.9570  177.4420  141.2500 N   0  0  0  0  0  2  0  0  0  0  0  0
  189.7920  177.3460  140.3870 C   0  0  0  0  0  2  0  0  0  0  0  0
  190.2370  177.0880  138.9580 C   0  0  0  0  0  2  0  0  0  0  0  0
  191.0410  175.8770  138.8970 N   0  0  0  0  0  2  0  0  0  0  0  0
  192.2500  176.2060  138.1570 C   0  0  0  0  0  2  0  0  0  0  0  0
  192.0890  174.2820  136.7620 O   0  0  0  0  0  1  0  0  0  0  0  0
  192.9260  174.9350  137.6670 C   0  0  1  0  0  3  0  0  0  0  0  0
  194.4880  176.4100  136.6230 O   0  0  0  0  0  0  0  0  0  0  0  0
  194.2380  175.2400  137.0210 C   0  0  0  0  0  0  0  0  0  0  0  0
  195.1780  174.2180  136.8810 O   0  0  0  0  0  0  0  0  0  0  0  0
  196.0100  173.9340  139.3750 O   0  0  0  0  0  1  0  0  0  0  0  0
  197.5360  175.3830  137.8100 O   0  0  0  0  0  1  0  0  0  0  0  0
  196.5140  174.0430  137.9530 P   0  0  0  0  0  0  0  0  0  0  0  0
  197.3710  172.6410  137.5580 O   0  0  0  0  0  0  0  0  0  0  0  0
  1  4  1  0  0  0  0
  1  3  2  0  0  0  0
  2 23  1  0  0  0  0
  3  7  1  0  0  0  0
  4 11  1  6  0  0  0
  4  5  1  0  0  0  0
  5  2  2  0  0  0  0
  7  2  1  0  0  0  0
  7  6  1  1  0  0  0
  8 11  1  0  0  0  0
  9  8  2  0  0  0  0
  9 10  1  0  0  0  0
 10 12  1  0  0  0  0
 11 12  2  0  0  0  0
 14 13  1  1  0  0  0
 14  9  1  0  0  0  0
 15 17  1  0  0  0  0
 16 20  1  0  0  0  0
 16 18  1  0  0  0  0
 17 21  1  0  0  0  0
 18 21  1  0  0  0  0
 19 14  1  0  0  0  0
 20 17  1  0  0  0  0
 21 19  2  0  0  0  0
 23 22  1  0  0  0  0
 24  3  1  0  0  0  0
 25 26  1  0  0  0  0
 25 24  1  0  0  0  0
 27 26  1  0  0  0  0
 28 27  1  0  0  0  0
 29 28  1  0  0  0  0
 30 29  1  0  0  0  0
 31 30  1  0  0  0  0
 33 32  1  6  0  0  0
 33 31  1  0  0  0  0
 34 35  2  0  0  0  0
 35 33  1  0  0  0  0
 36 35  1  0  0  0  0
 36 39  1  0  0  0  0
 38 39  1  0  0  0  0
 39 37  1  0  0  0  0
 40 39  2  0  0  0  0
M  END
>  <MODEL>
4

>  <REMARK>
 VINA RESULT:      -6.7      2.570      5.534
  Name = 
  16 active torsions:
  status: ('A' for Active; 'I' for Inactive)
    1  A    between atoms: C_3  and  N_20
    2  A    between atoms: C_3  and  C_39
    3  A    between atoms: C_9  and  C_40
    4  A    between atoms: CA_10  and  C_22
    5  A    between atoms: C_11  and  C_18
    6  A    between atoms: C_11  and  C_19
    7  A    between atoms: O_13  and  C_18
    8  A    between atoms: O_13  and  P_29
    9  A    between atoms: N_17  and  C_19
   10  A    between atoms: N_17  and  C_34
   11  A    between atoms: N_20  and  C_32
   12  A    between atoms: C_23  and  O_36
   13  A    between atoms: C_24  and  C_25
   14  A    between atoms: N_30  and  C_40
   15  A    between atoms: C_32  and  C_34
   16  A    between atoms: O_36  and  C_39
                            x       y       z     vdW  Elec       q    Type
                         _______ _______ _______ _____ _____    ______ ____

>  <TORSDO>
F 16

$$$$
=
 OpenBabel10222421533D

 40 42  0  0  1  0  0  0  0  0999 V2000
  185.0780  178.4680  141.2640 N   0  0  0  0  0  0  0  0  0  0  0  0
  182.3840  179.0620  141.2180 C   0  0  0  0  0  0  0  0  0  0  0  0
  184.5850  178.7870  140.1030 C   0  0  0  0  0  0  0  0  0  0  0  0
  184.2240  178.0480  142.3730 C   0  0  2  0  0  3  0  0  0  0  0  0
  182.9410  178.7250  142.3330 N   0  0  0  0  0  0  0  0  0  0  0  0
  182.7110  179.8520  138.8580 C   0  0  0  0  0  1  0  0  0  0  0  0
  183.0890  178.8040  139.8980 C   0  0  2  0  0  3  0  0  0  0  0  0
  186.0890  177.6800  143.9730 N   0  0  0  0  0  0  0  0  0  0  0  0
  186.5330  178.0240  145.1980 C   0  0  0  0  0  0  0  0  0  0  0  0
  185.4730  179.0910  145.9470 S   0  0  0  0  0  0  0  0  0  0  0  0
  184.9030  178.2820  143.6800 C   0  0  0  0  0  0  0  0  0  0  0  0
  184.3790  179.1240  144.6670 C   0  0  0  0  0  3  0  0  0  0  0  0
  187.8940  177.8340  147.2510 C   0  0  0  0  0  1  0  0  0  0  0  0
  187.8260  177.5340  145.7670 C   0  0  2  0  0  3  0  0  0  0  0  0
  191.4540  179.3340  144.1210 C   0  0  0  0  0  1  0  0  0  0  0  0
  190.5270  175.8700  142.7400 C   0  0  0  0  0  2  0  0  0  0  0  0
  190.6770  178.2940  143.4660 N   0  0  0  0  0  0  0  0  0  0  0  0
  189.3090  176.2680  143.5690 C   0  0  0  0  0  2  0  0  0  0  0  0
  188.9510  178.1680  145.0870 N   0  0  0  0  0  0  0  0  0  0  0  0
  191.3330  177.3890  142.1080 S   0  0  0  0  0  0  0  0  0  0  0  0
  189.6090  177.6220  144.1080 C   0  0  0  0  0  0  0  0  0  0  0  0
  180.6670  180.0030  142.5510 O   0  0  0  0  0  1  0  0  0  0  0  0
  180.9940  179.6160  141.2500 C   0  0  0  0  0  2  0  0  0  0  0  0
  185.4370  179.1070  139.0370 O   0  0  0  0  0  0  0  0  0  0  0  0
  186.3490  178.1720  138.4690 C   0  0  0  0  0  2  0  0  0  0  0  0
  185.8660  177.7190  137.0980 C   0  0  0  0  0  2  0  0  0  0  0  0
  184.6450  176.9400  137.2350 N   0  0  0  0  0  2  0  0  0  0  0  0
  184.6190  175.9940  136.1320 C   0  0  0  0  0  2  0  0  0  0  0  0
  184.0520  174.6680  136.6130 C   0  0  0  0  0  2  0  0  0  0  0  0
  184.9860  173.5920  136.3230 N   0  0  0  0  0  2  0  0  0  0  0  0
  185.9390  173.5470  137.4220 C   0  0  0  0  0  2  0  0  0  0  0  0
  187.1890  172.0760  136.0250 O   0  0  0  0  0  1  0  0  0  0  0  0
  187.3140  173.1500  136.9070 C   0  0  1  0  0  3  0  0  0  0  0  0
  187.9570  174.3820  134.9640 O   0  0  0  0  0  0  0  0  0  0  0  0
  187.9830  174.2970  136.2220 C   0  0  0  0  0  0  0  0  0  0  0  0
  188.6160  175.2720  136.9950 O   0  0  0  0  0  0  0  0  0  0  0  0
  190.7410  173.7400  137.3510 O   0  0  0  0  0  1  0  0  0  0  0  0
  190.5250  175.8000  138.9580 O   0  0  0  0  0  1  0  0  0  0  0  0
  190.2860  175.1810  137.4030 P   0  0  0  0  0  0  0  0  0  0  0  0
  191.1840  176.0890  136.2960 O   0  0  0  0  0  0  0  0  0  0  0  0
  1  4  1  0  0  0  0
  2 23  1  0  0  0  0
  2  5  2  0  0  0  0
  3  1  2  0  0  0  0
  4 11  1  1  0  0  0
  5  4  1  0  0  0  0
  7  6  1  6  0  0  0
  7  3  1  0  0  0  0
  7  2  1  0  0  0  0
  8  9  2  0  0  0  0
  9 14  1  0  0  0  0
  9 10  1  0  0  0  0
 11  8  1  0  0  0  0
 11 12  2  0  0  0  0
 12 10  1  0  0  0  0
 14 13  1  1  0  0  0
 16 18  1  0  0  0  0
 17 21  1  0  0  0  0
 17 15  1  0  0  0  0
 18 21  1  0  0  0  0
 19 14  1  0  0  0  0
 20 16  1  0  0  0  0
 20 17  1  0  0  0  0
 21 19  2  0  0  0  0
 23 22  1  0  0  0  0
 24  3  1  0  0  0  0
 25 24  1  0  0  0  0
 26 27  1  0  0  0  0
 26 25  1  0  0  0  0
 28 29  1  0  0  0  0
 28 27  1  0  0  0  0
 30 29  1  0  0  0  0
 30 31  1  0  0  0  0
 33 32  1  6  0  0  0
 33 31  1  0  0  0  0
 34 35  2  0  0  0  0
 35 33  1  0  0  0  0
 35 36  1  0  0  0  0
 36 39  1  0  0  0  0
 37 39  1  0  0  0  0
 39 38  1  0  0  0  0
 40 39  2  0  0  0  0
M  END
>  <MODEL>
5

>  <REMARK>
 VINA RESULT:      -6.5      2.873      3.753
  Name = 
  16 active torsions:
  status: ('A' for Active; 'I' for Inactive)
    1  A    between atoms: C_3  and  N_20
    2  A    between atoms: C_3  and  C_39
    3  A    between atoms: C_9  and  C_40
    4  A    between atoms: CA_10  and  C_22
    5  A    between atoms: C_11  and  C_18
    6  A    between atoms: C_11  and  C_19
    7  A    between atoms: O_13  and  C_18
    8  A    between atoms: O_13  and  P_29
    9  A    between atoms: N_17  and  C_19
   10  A    between atoms: N_17  and  C_34
   11  A    between atoms: N_20  and  C_32
   12  A    between atoms: C_23  and  O_36
   13  A    between atoms: C_24  and  C_25
   14  A    between atoms: N_30  and  C_40
   15  A    between atoms: C_32  and  C_34
   16  A    between atoms: O_36  and  C_39
                            x       y       z     vdW  Elec       q    Type
                         _______ _______ _______ _____ _____    ______ ____

>  <TORSDO>
F 16

$$$$
=
 OpenBabel10222421533D

 40 42  0  0  1  0  0  0  0  0999 V2000
  189.2740  176.9540  137.2550 N   0  0  0  0  0  0  0  0  0  0  0  0
  191.9150  176.1600  137.3340 C   0  0  0  0  0  0  0  0  0  0  0  0
  189.7030  176.2980  136.2160 C   0  0  0  0  0  0  0  0  0  0  0  0
  190.1930  177.5860  138.1990 C   0  0  2  0  0  3  0  0  0  0  0  0
  191.4210  176.8250  138.3240 N   0  0  0  0  0  0  0  0  0  0  0  0
  191.4530  174.7970  135.2780 C   0  0  0  0  0  1  0  0  0  0  0  0
  191.1860  176.1110  136.0030 C   0  0  2  0  0  3  0  0  0  0  0  0
  190.1230  177.2840  140.6640 N   0  0  0  0  0  0  0  0  0  0  0  0
  189.3780  177.5490  141.7550 C   0  0  0  0  0  0  0  0  0  0  0  0
  187.9840  178.3920  141.3440 S   0  0  0  0  0  0  0  0  0  0  0  0
  189.5430  177.7630  139.5300 C   0  0  0  0  0  0  0  0  0  0  0  0
  188.3210  178.4240  139.6940 C   0  0  0  0  0  3  0  0  0  0  0  0
  190.1110  175.6850  143.2030 C   0  0  0  0  0  1  0  0  0  0  0  0
  189.7900  177.1660  143.1400 C   0  0  2  0  0  3  0  0  0  0  0  0
  186.4420  177.6560  145.9080 C   0  0  0  0  0  1  0  0  0  0  0  0
  189.8820  177.0860  147.5240 C   0  0  0  0  0  2  0  0  0  0  0  0
  187.8370  177.8780  146.2520 N   0  0  0  0  0  0  0  0  0  0  0  0
  190.2050  177.2940  146.0460 C   0  0  0  0  0  2  0  0  0  0  0  0
  188.7280  177.4770  144.0900 N   0  0  0  0  0  0  0  0  0  0  0  0
  188.3510  178.0070  147.9280 S   0  0  0  0  0  0  0  0  0  0  0  0
  188.9010  177.5450  145.3760 C   0  0  0  0  0  0  0  0  0  0  0  0
  194.2330  176.3120  136.8690 O   0  0  0  0  0  1  0  0  0  0  0  0
  193.2620  175.5280  137.4960 C   0  0  0  0  0  2  0  0  0  0  0  0
  188.7950  175.7730  135.2860 O   0  0  0  0  0  0  0  0  0  0  0  0
  187.4530  175.4330  135.6230 C   0  0  0  0  0  2  0  0  0  0  0  0
  187.4050  174.0920  136.3420 C   0  0  0  0  0  2  0  0  0  0  0  0
  186.3530  174.1050  137.3460 N   0  0  0  0  0  2  0  0  0  0  0  0
  185.5650  172.8990  137.1500 C   0  0  0  0  0  2  0  0  0  0  0  0
  184.0920  173.2190  137.3430 C   0  0  0  0  0  2  0  0  0  0  0  0
  183.9300  174.6110  137.7290 N   0  0  0  0  0  2  0  0  0  0  0  0
  182.6060  175.0240  137.2890 C   0  0  0  0  0  2  0  0  0  0  0  0
  182.5190  175.7830  139.5450 O   0  0  0  0  0  1  0  0  0  0  0  0
  182.0180  176.0300  138.2660 C   0  0  1  0  0  3  0  0  0  0  0  0
  182.3420  177.7420  136.6320 O   0  0  0  0  0  0  0  0  0  0  0  0
  182.3400  177.4300  137.8540 C   0  0  0  0  0  0  0  0  0  0  0  0
  182.6190  178.3790  138.8390 O   0  0  0  0  0  0  0  0  0  0  0  0
  184.4280  180.2880  139.1160 O   0  0  0  0  0  1  0  0  0  0  0  0
  185.3240  177.9610  138.3050 O   0  0  0  0  0  0  0  0  0  0  0  0
  184.2290  178.7980  139.2840 P   0  0  0  0  0  0  0  0  0  0  0  0
  184.4900  178.3800  140.9000 O   0  0  0  0  0  1  0  0  0  0  0  0
  1  4  1  0  0  0  0
  2 23  1  0  0  0  0
  2  5  2  0  0  0  0
  3  1  2  0  0  0  0
  4  5  1  0  0  0  0
  4 11  1  1  0  0  0
  7  6  1  1  0  0  0
  7  3  1  0  0  0  0
  7  2  1  0  0  0  0
  8  9  2  0  0  0  0
  9 14  1  0  0  0  0
 10  9  1  0  0  0  0
 11 12  2  0  0  0  0
 11  8  1  0  0  0  0
 12 10  1  0  0  0  0
 14 13  1  6  0  0  0
 14 19  1  0  0  0  0
 15 17  1  0  0  0  0
 16 20  1  0  0  0  0
 17 20  1  0  0  0  0
 18 16  1  0  0  0  0
 19 21  2  0  0  0  0
 21 18  1  0  0  0  0
 21 17  1  0  0  0  0
 22 23  1  0  0  0  0
 24 25  1  0  0  0  0
 24  3  1  0  0  0  0
 25 26  1  0  0  0  0
 26 27  1  0  0  0  0
 28 29  1  0  0  0  0
 28 27  1  0  0  0  0
 29 30  1  0  0  0  0
 31 30  1  0  0  0  0
 31 33  1  0  0  0  0
 33 32  1  1  0  0  0
 34 35  2  0  0  0  0
 35 33  1  0  0  0  0
 35 36  1  0  0  0  0
 36 39  1  0  0  0  0
 37 39  1  0  0  0  0
 38 39  2  0  0  0  0
 39 40  1  0  0  0  0
M  END
>  <MODEL>
6

>  <REMARK>
 VINA RESULT:      -6.3      3.539      8.548
  Name = 
  16 active torsions:
  status: ('A' for Active; 'I' for Inactive)
    1  A    between atoms: C_3  and  N_20
    2  A    between atoms: C_3  and  C_39
    3  A    between atoms: C_9  and  C_40
    4  A    between atoms: CA_10  and  C_22
    5  A    between atoms: C_11  and  C_18
    6  A    between atoms: C_11  and  C_19
    7  A    between atoms: O_13  and  C_18
    8  A    between atoms: O_13  and  P_29
    9  A    between atoms: N_17  and  C_19
   10  A    between atoms: N_17  and  C_34
   11  A    between atoms: N_20  and  C_32
   12  A    between atoms: C_23  and  O_36
   13  A    between atoms: C_24  and  C_25
   14  A    between atoms: N_30  and  C_40
   15  A    between atoms: C_32  and  C_34
   16  A    between atoms: O_36  and  C_39
                            x       y       z     vdW  Elec       q    Type
                         _______ _______ _______ _____ _____    ______ ____

>  <TORSDO>
F 16

$$$$
=
 OpenBabel10222421533D

 40 42  0  0  1  0  0  0  0  0999 V2000
  188.5690  177.0790  137.9820 N   0  0  0  0  0  0  0  0  0  0  0  0
  190.1340  177.0810  140.2550 C   0  0  0  0  0  0  0  0  0  0  0  0
  188.0550  177.6600  139.0280 C   0  0  0  0  0  0  0  0  0  0  0  0
  189.6870  176.1440  138.0930 C   0  0  2  0  0  3  0  0  0  0  0  0
  190.5720  176.5130  139.1810 N   0  0  0  0  0  0  0  0  0  0  0  0
  188.4710  178.6650  141.2660 C   0  0  0  0  0  1  0  0  0  0  0  0
  188.6630  177.4330  140.3910 C   0  0  2  0  0  3  0  0  0  0  0  0
  191.5960  175.3570  136.7130 N   0  0  0  0  0  0  0  0  0  0  0  0
  192.1120  175.4080  135.4690 C   0  0  0  0  0  0  0  0  0  0  0  0
  191.1380  176.3220  134.4490 S   0  0  0  0  0  0  0  0  0  0  0  0
  190.4360  176.0630  136.8060 C   0  0  0  0  0  0  0  0  0  0  0  0
  189.9990  176.6900  135.6340 C   0  0  0  0  0  3  0  0  0  0  0  0
  193.0320  173.4080  134.3470 C   0  0  0  0  0  1  0  0  0  0  0  0
  193.3660  174.6970  135.0730 C   0  0  2  0  0  3  0  0  0  0  0  0
  195.7230  173.3440  138.4970 C   0  0  0  0  0  1  0  0  0  0  0  0
  197.7290  174.6880  135.5080 C   0  0  0  0  0  2  0  0  0  0  0  0
  196.1960  174.2730  137.4840 N   0  0  0  0  0  0  0  0  0  0  0  0
  196.2830  175.0310  135.1590 C   0  0  0  0  0  2  0  0  0  0  0  0
  194.1740  174.4000  136.2510 N   0  0  0  0  0  0  0  0  0  0  0  0
  197.9050  174.6590  137.3310 S   0  0  0  0  0  0  0  0  0  0  0  0
  195.4630  174.5520  136.3030 C   0  0  0  0  0  0  0  0  0  0  0  0
  190.9250  176.2710  142.3350 O   0  0  0  0  0  1  0  0  0  0  0  0
  191.0820  177.2900  141.3940 C   0  0  0  0  0  2  0  0  0  0  0  0
  186.9320  178.4880  138.8950 O   0  0  0  0  0  0  0  0  0  0  0  0
  185.6960  178.0350  138.3500 C   0  0  0  0  0  2  0  0  0  0  0  0
  184.5420  178.8820  138.8660 C   0  0  0  0  0  2  0  0  0  0  0  0
  184.9210  179.5350  140.1090 N   0  0  0  0  0  2  0  0  0  0  0  0
  184.2640  178.8140  141.1860 C   0  0  0  0  0  2  0  0  0  0  0  0
  184.9140  179.1760  142.5110 C   0  0  0  0  0  2  0  0  0  0  0  0
  183.9100  179.2240  143.5620 N   0  0  0  0  0  2  0  0  0  0  0  0
  184.3940  178.3910  144.6520 C   0  0  0  0  0  2  0  0  0  0  0  0
  185.5770  179.4540  146.4250 O   0  0  0  0  0  1  0  0  0  0  0  0
  185.7340  178.9080  145.1510 C   0  0  1  0  0  3  0  0  0  0  0  0
  187.2490  177.3800  144.1120 O   0  0  0  0  0  0  0  0  0  0  0  0
  186.7520  177.8140  145.1870 C   0  0  0  0  0  0  0  0  0  0  0  0
  187.1490  177.2990  146.4220 O   0  0  0  0  0  0  0  0  0  0  0  0
  189.2550  176.1660  147.5500 O   0  0  0  0  0  1  0  0  0  0  0  0
  188.7480  178.6340  148.2760 O   0  0  0  0  0  1  0  0  0  0  0  0
  188.7490  177.4930  147.0290 P   0  0  0  0  0  0  0  0  0  0  0  0
  189.7600  178.0240  145.7840 O   0  0  0  0  0  0  0  0  0  0  0  0
  1  4  1  0  0  0  0
  1  3  2  0  0  0  0
  2  7  1  0  0  0  0
  2 23  1  0  0  0  0
  3  7  1  0  0  0  0
  4 11  1  6  0  0  0
  4  5  1  0  0  0  0
  5  2  2  0  0  0  0
  7  6  1  1  0  0  0
  8 11  1  0  0  0  0
  9  8  2  0  0  0  0
 10  9  1  0  0  0  0
 10 12  1  0  0  0  0
 12 11  2  0  0  0  0
 14 13  1  1  0  0  0
 14  9  1  0  0  0  0
 14 19  1  0  0  0  0
 16 20  1  0  0  0  0
 17 15  1  0  0  0  0
 18 16  1  0  0  0  0
 18 21  1  0  0  0  0
 19 21  2  0  0  0  0
 20 17  1  0  0  0  0
 21 17  1  0  0  0  0
 23 22  1  0  0  0  0
 24  3  1  0  0  0  0
 25 26  1  0  0  0  0
 25 24  1  0  0  0  0
 26 27  1  0  0  0  0
 27 28  1  0  0  0  0
 28 29  1  0  0  0  0
 29 30  1  0  0  0  0
 30 31  1  0  0  0  0
 31 33  1  0  0  0  0
 33 35  1  0  0  0  0
 33 32  1  1  0  0  0
 34 35  2  0  0  0  0
 35 36  1  0  0  0  0
 36 39  1  0  0  0  0
 39 37  1  0  0  0  0
 39 38  1  0  0  0  0
 40 39  2  0  0  0  0
M  END
>  <MODEL>
7

>  <REMARK>
 VINA RESULT:      -6.3      4.594      9.529
  Name = 
  16 active torsions:
  status: ('A' for Active; 'I' for Inactive)
    1  A    between atoms: C_3  and  N_20
    2  A    between atoms: C_3  and  C_39
    3  A    between atoms: C_9  and  C_40
    4  A    between atoms: CA_10  and  C_22
    5  A    between atoms: C_11  and  C_18
    6  A    between atoms: C_11  and  C_19
    7  A    between atoms: O_13  and  C_18
    8  A    between atoms: O_13  and  P_29
    9  A    between atoms: N_17  and  C_19
   10  A    between atoms: N_17  and  C_34
   11  A    between atoms: N_20  and  C_32
   12  A    between atoms: C_23  and  O_36
   13  A    between atoms: C_24  and  C_25
   14  A    between atoms: N_30  and  C_40
   15  A    between atoms: C_32  and  C_34
   16  A    between atoms: O_36  and  C_39
                            x       y       z     vdW  Elec       q    Type
                         _______ _______ _______ _____ _____    ______ ____

>  <TORSDO>
F 16

$$$$
=
 OpenBabel10222421533D

 40 42  0  0  1  0  0  0  0  0999 V2000
  188.9700  176.8540  138.2030 N   0  0  0  0  0  0  0  0  0  0  0  0
  190.1900  177.0180  140.6730 C   0  0  0  0  0  0  0  0  0  0  0  0
  188.3320  177.5350  139.1100 C   0  0  0  0  0  0  0  0  0  0  0  0
  190.0260  175.9070  138.5540 C   0  0  2  0  0  3  0  0  0  0  0  0
  190.7580  176.3490  139.7260 N   0  0  0  0  0  0  0  0  0  0  0  0
  188.4550  178.7230  141.2930 C   0  0  0  0  0  1  0  0  0  0  0  0
  188.7270  177.4140  140.5610 C   0  0  2  0  0  3  0  0  0  0  0  0
  192.0470  174.8980  137.5190 N   0  0  0  0  0  0  0  0  0  0  0  0
  192.7460  174.8400  136.3690 C   0  0  0  0  0  0  0  0  0  0  0  0
  192.0180  175.7700  135.1730 S   0  0  0  0  0  0  0  0  0  0  0  0
  190.9500  175.6960  137.4030 C   0  0  0  0  0  0  0  0  0  0  0  0
  190.7510  176.2910  136.1520 C   0  0  0  0  0  3  0  0  0  0  0  0
  194.7350  174.4400  134.9590 C   0  0  0  0  0  1  0  0  0  0  0  0
  193.9790  174.0110  136.2010 C   0  0  2  0  0  3  0  0  0  0  0  0
  193.0740  169.8030  135.4370 C   0  0  0  0  0  1  0  0  0  0  0  0
  196.2910  170.4910  137.4240 C   0  0  0  0  0  2  0  0  0  0  0  0
  193.9380  170.2820  136.5050 N   0  0  0  0  0  0  0  0  0  0  0  0
  195.6080  171.8550  137.3530 C   0  0  0  0  0  2  0  0  0  0  0  0
  193.6300  172.5980  136.0990 N   0  0  0  0  0  0  0  0  0  0  0  0
  195.0070  169.1860  137.3700 S   0  0  0  0  0  0  0  0  0  0  0  0
  194.3380  171.6370  136.6120 C   0  0  0  0  0  0  0  0  0  0  0  0
  192.3160  177.4920  141.6010 O   0  0  0  0  0  1  0  0  0  0  0  0
  190.9700  177.3040  141.9180 C   0  0  0  0  0  2  0  0  0  0  0  0
  187.2690  178.3740  138.7450 O   0  0  0  0  0  0  0  0  0  0  0  0
  185.9710  177.8840  138.4250 C   0  0  0  0  0  2  0  0  0  0  0  0
  184.9130  178.9370  138.7230 C   0  0  0  0  0  2  0  0  0  0  0  0
  185.1710  179.5480  140.0170 N   0  0  0  0  0  2  0  0  0  0  0  0
  184.5340  178.7080  141.0180 C   0  0  0  0  0  2  0  0  0  0  0  0
  185.2250  178.9020  142.3580 C   0  0  0  0  0  2  0  0  0  0  0  0
  184.2510  179.2800  143.3700 N   0  0  0  0  0  2  0  0  0  0  0  0
  184.4600  178.4020  144.5110 C   0  0  0  0  0  2  0  0  0  0  0  0
  185.2300  179.4620  146.5010 O   0  0  0  0  0  1  0  0  0  0  0  0
  185.6640  178.8660  145.3160 C   0  0  1  0  0  3  0  0  0  0  0  0
  186.8840  176.9000  144.7200 O   0  0  0  0  0  0  0  0  0  0  0  0
  186.5760  177.7240  145.6250 C   0  0  0  0  0  0  0  0  0  0  0  0
  187.0900  177.5960  146.9160 O   0  0  0  0  0  0  0  0  0  0  0  0
  189.0090  178.4620  148.5160 O   0  0  0  0  0  1  0  0  0  0  0  0
  189.5770  178.4140  145.9560 O   0  0  0  0  0  0  0  0  0  0  0  0
  188.7780  177.6710  147.2480 P   0  0  0  0  0  0  0  0  0  0  0  0
  189.3790  176.1050  147.4510 O   0  0  0  0  0  1  0  0  0  0  0  0
  1  4  1  0  0  0  0
  1  3  2  0  0  0  0
  2 23  1  0  0  0  0
  3  7  1  0  0  0  0
  4 11  1  6  0  0  0
  4  5  1  0  0  0  0
  5  2  2  0  0  0  0
  7  2  1  0  0  0  0
  7  6  1  1  0  0  0
  9  8  2  0  0  0  0
 10 12  1  0  0  0  0
 10  9  1  0  0  0  0
 11  8  1  0  0  0  0
 12 11  2  0  0  0  0
 14 13  1  6  0  0  0
 14  9  1  0  0  0  0
 15 17  1  0  0  0  0
 17 21  1  0  0  0  0
 17 20  1  0  0  0  0
 18 16  1  0  0  0  0
 19 14  1  0  0  0  0
 19 21  2  0  0  0  0
 20 16  1  0  0  0  0
 21 18  1  0  0  0  0
 22 23  1  0  0  0  0
 24  3  1  0  0  0  0
 25 26  1  0  0  0  0
 25 24  1  0  0  0  0
 26 27  1  0  0  0  0
 27 28  1  0  0  0  0
 28 29  1  0  0  0  0
 29 30  1  0  0  0  0
 30 31  1  0  0  0  0
 31 33  1  0  0  0  0
 33 35  1  0  0  0  0
 33 32  1  1  0  0  0
 34 35  2  0  0  0  0
 35 36  1  0  0  0  0
 36 39  1  0  0  0  0
 38 39  2  0  0  0  0
 39 40  1  0  0  0  0
 39 37  1  0  0  0  0
M  END
>  <MODEL>
8

>  <REMARK>
 VINA RESULT:      -6.0      4.850      9.725
  Name = 
  16 active torsions:
  status: ('A' for Active; 'I' for Inactive)
    1  A    between atoms: C_3  and  N_20
    2  A    between atoms: C_3  and  C_39
    3  A    between atoms: C_9  and  C_40
    4  A    between atoms: CA_10  and  C_22
    5  A    between atoms: C_11  and  C_18
    6  A    between atoms: C_11  and  C_19
    7  A    between atoms: O_13  and  C_18
    8  A    between atoms: O_13  and  P_29
    9  A    between atoms: N_17  and  C_19
   10  A    between atoms: N_17  and  C_34
   11  A    between atoms: N_20  and  C_32
   12  A    between atoms: C_23  and  O_36
   13  A    between atoms: C_24  and  C_25
   14  A    between atoms: N_30  and  C_40
   15  A    between atoms: C_32  and  C_34
   16  A    between atoms: O_36  and  C_39
                            x       y       z     vdW  Elec       q    Type
                         _______ _______ _______ _____ _____    ______ ____

>  <TORSDO>
F 16

$$$$
=
 OpenBabel10222421533D

 40 42  0  0  1  0  0  0  0  0999 V2000
  188.5100  177.6590  141.1290 N   0  0  0  0  0  0  0  0  0  0  0  0
  188.8690  177.3700  143.8500 C   0  0  0  0  0  0  0  0  0  0  0  0
  189.6170  177.0840  141.5000 C   0  0  0  0  0  0  0  0  0  0  0  0
  187.7120  178.4610  142.0540 C   0  0  2  0  0  3  0  0  0  0  0  0
  187.8000  177.9430  143.4060 N   0  0  0  0  0  0  0  0  0  0  0  0
  190.8510  175.9230  143.3230 C   0  0  0  0  0  1  0  0  0  0  0  0
  190.0670  177.1720  142.9380 C   0  0  2  0  0  3  0  0  0  0  0  0
  185.9780  178.7880  140.3060 N   0  0  0  0  0  0  0  0  0  0  0  0
  184.6450  178.8040  140.1090 C   0  0  0  0  0  0  0  0  0  0  0  0
  183.8200  178.4860  141.5380 S   0  0  0  0  0  0  0  0  0  0  0  0
  186.2920  178.5280  141.6050 C   0  0  0  0  0  0  0  0  0  0  0  0
  185.2120  178.3270  142.4720 C   0  0  0  0  0  3  0  0  0  0  0  0
  182.9410  180.0950  138.8710 C   0  0  0  0  0  1  0  0  0  0  0  0
  184.0180  179.0330  138.7710 C   0  0  2  0  0  3  0  0  0  0  0  0
  181.9950  175.5950  136.9830 C   0  0  0  0  0  1  0  0  0  0  0  0
  185.5120  176.3570  135.6350 C   0  0  0  0  0  2  0  0  0  0  0  0
  183.4340  175.8020  136.9770 N   0  0  0  0  0  0  0  0  0  0  0  0
  185.3760  177.2840  136.8400 C   0  0  0  0  0  2  0  0  0  0  0  0
  183.4380  177.7940  138.2640 N   0  0  0  0  0  0  0  0  0  0  0  0
  184.4820  174.8690  135.9180 S   0  0  0  0  0  0  0  0  0  0  0  0
  184.0330  177.0080  137.4170 C   0  0  0  0  0  0  0  0  0  0  0  0
  188.4080  178.0320  146.0760 O   0  0  0  0  0  1  0  0  0  0  0  0
  188.9370  177.0010  145.2980 C   0  0  0  0  0  2  0  0  0  0  0  0
  190.3990  176.3890  140.5670 O   0  0  0  0  0  0  0  0  0  0  0  0
  190.3940  176.6910  139.1750 C   0  0  0  0  0  2  0  0  0  0  0  0
  191.3450  175.7700  138.4240 C   0  0  0  0  0  2  0  0  0  0  0  0
  190.5920  174.7310  137.7390 N   0  0  0  0  0  2  0  0  0  0  0  0
  191.4340  174.2360  136.6630 C   0  0  0  0  0  2  0  0  0  0  0  0
  192.8080  173.8890  137.2110 C   0  0  0  0  0  2  0  0  0  0  0  0
  193.5090  173.0140  136.2840 N   0  0  0  0  0  2  0  0  0  0  0  0
  194.9190  173.0560  136.6410 C   0  0  0  0  0  2  0  0  0  0  0  0
  195.3460  172.2620  138.8460 O   0  0  0  0  0  1  0  0  0  0  0  0
  195.0760  173.4160  138.1100 C   0  0  1  0  0  3  0  0  0  0  0  0
  196.4190  174.8630  139.4560 O   0  0  0  0  0  0  0  0  0  0  0  0
  196.1730  174.4130  138.3040 C   0  0  0  0  0  0  0  0  0  0  0  0
  196.9230  174.8190  137.1990 O   0  0  0  0  0  0  0  0  0  0  0  0
  199.1600  175.1590  135.8330 O   0  0  0  0  0  0  0  0  0  0  0  0
  198.7360  172.7450  136.7630 O   0  0  0  0  0  1  0  0  0  0  0  0
  198.5850  174.4100  137.0140 P   0  0  0  0  0  0  0  0  0  0  0  0
  199.4280  174.8440  138.4130 O   0  0  0  0  0  1  0  0  0  0  0  0
  1  3  2  0  0  0  0
  1  4  1  0  0  0  0
  2 23  1  0  0  0  0
  3  7  1  0  0  0  0
  4 11  1  6  0  0  0
  4  5  1  0  0  0  0
  5  2  2  0  0  0  0
  7  6  1  1  0  0  0
  7  2  1  0  0  0  0
  8 11  1  0  0  0  0
  9  8  2  0  0  0  0
  9 10  1  0  0  0  0
 10 12  1  0  0  0  0
 11 12  2  0  0  0  0
 14 13  1  1  0  0  0
 14  9  1  0  0  0  0
 16 20  1  0  0  0  0
 16 18  1  0  0  0  0
 17 15  1  0  0  0  0
 17 21  1  0  0  0  0
 18 21  1  0  0  0  0
 19 14  1  0  0  0  0
 20 17  1  0  0  0  0
 21 19  2  0  0  0  0
 23 22  1  0  0  0  0
 24  3  1  0  0  0  0
 25 24  1  0  0  0  0
 26 25  1  0  0  0  0
 27 26  1  0  0  0  0
 28 29  1  0  0  0  0
 28 27  1  0  0  0  0
 30 31  1  0  0  0  0
 30 29  1  0  0  0  0
 31 33  1  0  0  0  0
 33 35  1  0  0  0  0
 33 32  1  1  0  0  0
 35 34  2  0  0  0  0
 36 35  1  0  0  0  0
 37 39  2  0  0  0  0
 38 39  1  0  0  0  0
 39 36  1  0  0  0  0
 39 40  1  0  0  0  0
M  END
>  <MODEL>
9

>  <REMARK>
 VINA RESULT:      -6.0      3.152      6.441
  Name = 
  16 active torsions:
  status: ('A' for Active; 'I' for Inactive)
    1  A    between atoms: C_3  and  N_20
    2  A    between atoms: C_3  and  C_39
    3  A    between atoms: C_9  and  C_40
    4  A    between atoms: CA_10  and  C_22
    5  A    between atoms: C_11  and  C_18
    6  A    between atoms: C_11  and  C_19
    7  A    between atoms: O_13  and  C_18
    8  A    between atoms: O_13  and  P_29
    9  A    between atoms: N_17  and  C_19
   10  A    between atoms: N_17  and  C_34
   11  A    between atoms: N_20  and  C_32
   12  A    between atoms: C_23  and  O_36
   13  A    between atoms: C_24  and  C_25
   14  A    between atoms: N_30  and  C_40
   15  A    between atoms: C_32  and  C_34
   16  A    between atoms: O_36  and  C_39
                            x       y       z     vdW  Elec       q    Type
                         _______ _______ _______ _____ _____    ______ ____

>  <TORSDO>
F 16

$$$$
