=
 OpenBabel10232411113D

 54 59  0  0  1  0  0  0  0  0999 V2000
  189.2730  176.9430  137.8730 C   0  0  2  0  0  3  0  0  0  0  0  0
  187.6300  177.0360  135.9100 C   0  0  0  0  0  2  0  0  0  0  0  0
  190.5270  177.2130  140.5140 C   0  0  2  0  0  3  0  0  0  0  0  0
  190.5630  176.2000  138.2300 C   0  0  0  0  0  2  0  0  0  0  0  0
  186.1610  177.2970  138.0330 C   0  0  0  0  0  2  0  0  0  0  0  0
  186.2850  177.4920  136.5090 C   0  0  2  0  0  3  0  0  0  0  0  0
  188.2410  174.9000  136.9220 C   0  0  0  0  0  2  0  0  0  0  0  0
  191.3620  176.9900  139.2560 C   0  0  0  0  0  2  0  0  0  0  0  0
  188.4260  177.2400  139.1250 C   0  0  2  0  0  3  0  0  0  0  0  0
  187.2090  178.1000  138.7910 C   0  0  0  0  0  2  0  0  0  0  0  0
  189.2630  177.9920  140.1590 C   0  0  0  0  0  2  0  0  0  0  0  0
  188.4840  176.2100  136.8210 C   0  0  0  0  0  0  0  0  0  0  0  0
  184.8380  174.5620  136.1710 C   0  0  2  0  0  3  0  0  0  0  0  0
  185.1020  176.8600  135.7470 C   0  0  1  0  0  3  0  0  0  0  0  0
  183.1010  178.8470  136.6500 O   0  0  0  0  0  0  0  0  0  0  0  0
  185.4680  175.5260  135.2640 N   0  0  0  0  0  2  0  0  0  0  0  0
  180.6330  175.9480  140.1940 C   0  0  0  0  0  2  0  0  0  0  0  0
  179.9820  175.0640  139.1410 C   0  0  0  0  0  2  0  0  0  0  0  0
  183.9550  176.6740  136.6280 N   0  0  0  0  0  0  0  0  0  0  0  0
  182.6480  177.5740  138.6140 C   0  0  0  0  0  2  0  0  0  0  0  0
  180.9900  174.5890  138.2070 N   0  0  0  0  0  2  0  0  0  0  0  0
  182.4030  174.8440  136.1290 C   0  0  0  0  0  2  0  0  0  0  0  0
  183.2220  177.7430  137.2440 C   0  0  0  0  0  0  0  0  0  0  0  0
  183.6830  175.2670  136.8490 C   0  0  1  0  0  3  0  0  0  0  0  0
  180.4480  177.4360  139.8910 C   0  0  2  0  0  3  0  0  0  0  0  0
  180.3400  175.9810  136.4460 O   0  0  0  0  0  0  0  0  0  0  0  0
  181.1870  175.1770  136.9200 C   0  0  0  0  0  0  0  0  0  0  0  0
  181.1570  177.8980  138.6160 C   0  0  0  0  0  2  0  0  0  0  0  0
  181.4790  179.3460  140.9060 O   0  0  0  0  0  0  0  0  0  0  0  0
  180.8250  178.2780  141.0680 C   0  0  0  0  0  0  0  0  0  0  0  0
  180.4310  177.8740  142.3430 O   0  0  0  0  0  0  0  0  0  0  0  0
  180.5920  178.7110  143.4780 C   0  0  0  0  0  1  0  0  0  0  0  0
  185.8400  174.1010  137.2230 C   0  0  0  0  0  2  0  0  0  0  0  0
  185.8740  172.5830  137.3150 C   0  0  0  0  0  2  0  0  0  0  0  0
  185.3150  171.9650  136.0450 C   0  0  0  0  0  2  0  0  0  0  0  0
  184.3580  170.8350  136.3780 C   0  0  0  0  0  2  0  0  0  0  0  0
  183.0780  171.3840  136.9800 C   0  0  0  0  0  1  0  0  0  0  0  0
  191.3340  178.0080  141.5250 C   0  0  0  0  0  2  0  0  0  0  0  0
  186.5600  178.4160  144.8970 O   0  0  0  0  0  1  0  0  0  0  0  0
  191.5650  177.0950  143.8420 C   0  0  0  0  0  0  0  0  0  0  0  0
  187.4200  177.5600  144.2000 C   0  0  1  0  0  0  0  0  0  0  0  0
  186.7960  176.4960  143.3100 C   0  0  0  0  0  1  0  0  0  0  0  0
  190.7200  177.9320  142.9190 C   0  0  2  0  0  3  0  0  0  0  0  0
  191.7450  177.5310  145.2630 C   0  0  0  0  0  2  0  0  0  0  0  0
  191.0550  176.5410  146.1930 C   0  0  2  0  0  3  0  0  0  0  0  0
  188.7650  178.0580  143.9400 C   0  0  1  0  0  3  0  0  0  0  0  0
  192.0330  176.0300  143.4650 O   0  0  0  0  0  0  0  0  0  0  0  0
  189.9440  177.1770  147.0390 C   0  0  0  0  0  2  0  0  0  0  0  0
  188.5530  177.0530  145.0050 N   0  0  1  0  0  0  0  0  0  0  0  0
  188.8030  177.8030  146.2310 C   0  0  0  0  0  2  0  0  0  0  0  0
  189.4100  177.4340  142.8680 O   0  0  0  0  0  0  0  0  0  0  0  0
  192.5220  174.7420  146.7290 O   0  0  0  0  0  0  0  0  0  0  0  0
  192.5210  176.4800  148.2230 O   0  0  0  0  0  1  0  0  0  0  0  0
  192.0610  175.8650  147.0640 C   0  0  0  0  0  0  0  0  0  0  0  0
  1  4  1  1  0  0  0
  1  9  1  0  0  0  0
  2 12  1  0  0  0  0
  3 38  1  1  0  0  0
  4  8  1  0  0  0  0
  5 10  1  0  0  0  0
  6  2  1  6  0  0  0
  6  5  1  0  0  0  0
  8  3  1  0  0  0  0
  9 10  1  6  0  0  0
  9 11  1  0  0  0  0
 11  3  1  0  0  0  0
 12  7  2  0  0  0  0
 12  1  1  0  0  0  0
 13 24  1  0  0  0  0
 13 33  1  1  0  0  0
 14 16  1  1  0  0  0
 14  6  1  0  0  0  0
 14 19  1  0  0  0  0
 15 23  2  0  0  0  0
 16 13  1  0  0  0  0
 18 17  1  0  0  0  0
 19 24  1  0  0  0  0
 19 23  1  0  0  0  0
 20 28  1  0  0  0  0
 21 18  1  0  0  0  0
 22 27  1  0  0  0  0
 23 20  1  0  0  0  0
 24 22  1  6  0  0  0
 25 17  1  0  0  0  0
 25 30  1  1  0  0  0
 26 27  2  0  0  0  0
 27 21  1  0  0  0  0
 28 25  1  0  0  0  0
 29 30  2  0  0  0  0
 30 31  1  0  0  0  0
 31 32  1  0  0  0  0
 33 34  1  0  0  0  0
 35 36  1  0  0  0  0
 35 34  1  0  0  0  0
 36 37  1  0  0  0  0
 40 44  1  0  0  0  0
 41 42  1  6  0  0  0
 41 39  1  0  0  0  0
 41 49  1  0  0  0  0
 43 38  1  6  0  0  0
 43 40  1  0  0  0  0
 44 45  1  0  0  0  0
 45 48  1  0  0  0  0
 45 54  1  1  0  0  0
 46 51  1  6  0  0  0
 46 41  1  0  0  0  0
 46 49  1  0  0  0  0
 47 40  2  0  0  0  0
 49 50  1  1  0  0  0
 50 48  1  0  0  0  0
 51 43  1  0  0  0  0
 52 54  2  0  0  0  0
 54 53  1  0  0  0  0
M  END
>  <MODEL>
1

>  <REMARK>
 VINA RESULT:      -7.7      0.000      0.000
  Name = 
  10 active torsions:
  status: ('A' for Active; 'I' for Inactive)
    1  A    between atoms: C_2  and  C_33
    2  A    between atoms: C_4  and  C_13
    3  A    between atoms: C_4  and  C_17
    4  A    between atoms: C_11  and  C_20
    5  A    between atoms: C_11  and  C_46
    6  A    between atoms: C_12  and  C_34
    7  A    between atoms: O_19  and  C_25
    8  A    between atoms: C_25  and  C_40
    9  A    between atoms: C_26  and  C_35
   10  A    between atoms: C_33  and  C_46
                            x       y       z     vdW  Elec       q    Type
                         _______ _______ _______ _____ _____    ______ ____

>  <TORSDO>
F 10

$$$$
=
 OpenBabel10232411113D

 54 59  0  0  1  0  0  0  0  0999 V2000
  189.7220  175.9020  137.3600 C   0  0  2  0  0  3  0  0  0  0  0  0
  187.4940  177.1250  137.6850 C   0  0  0  0  0  2  0  0  0  0  0  0
  191.7720  173.9110  136.6880 C   0  0  2  0  0  3  0  0  0  0  0  0
  191.2110  176.2570  137.3400 C   0  0  0  0  0  2  0  0  0  0  0  0
  187.0100  175.3020  135.9020 C   0  0  0  0  0  2  0  0  0  0  0  0
  186.4380  176.2750  136.9510 C   0  0  2  0  0  3  0  0  0  0  0  0
  189.1220  177.9160  136.0460 C   0  0  0  0  0  2  0  0  0  0  0  0
  192.0510  175.0350  137.6820 C   0  0  0  0  0  2  0  0  0  0  0  0
  189.4060  174.7300  136.4110 C   0  0  2  0  0  3  0  0  0  0  0  0
  187.9510  174.2840  136.5310 C   0  0  0  0  0  2  0  0  0  0  0  0
  190.2940  173.5320  136.7430 C   0  0  0  0  0  2  0  0  0  0  0  0
  188.8610  177.1040  137.0750 C   0  0  0  0  0  0  0  0  0  0  0  0
  183.3290  176.0070  135.9260 C   0  0  2  0  0  3  0  0  0  0  0  0
  185.3250  177.1680  136.3650 C   0  0  1  0  0  3  0  0  0  0  0  0
  185.4890  179.2330  138.4810 O   0  0  0  0  0  0  0  0  0  0  0  0
  184.5920  176.4430  135.3240 N   0  0  0  0  0  2  0  0  0  0  0  0
  181.2180  177.9710  141.1670 C   0  0  0  0  0  2  0  0  0  0  0  0
  180.2820  178.4790  140.0800 C   0  0  0  0  0  2  0  0  0  0  0  0
  184.3450  177.5160  137.3870 N   0  0  0  0  0  0  0  0  0  0  0  0
  183.9460  178.0310  139.8440 C   0  0  0  0  0  2  0  0  0  0  0  0
  180.6730  177.9220  138.7960 N   0  0  0  0  0  2  0  0  0  0  0  0
  182.0420  177.9550  136.6730 C   0  0  0  0  0  2  0  0  0  0  0  0
  184.6280  178.3160  138.5450 C   0  0  0  0  0  0  0  0  0  0  0  0
  183.0600  176.9040  137.1140 C   0  0  1  0  0  3  0  0  0  0  0  0
  182.2940  178.9960  141.5260 C   0  0  2  0  0  3  0  0  0  0  0  0
  181.5950  179.9010  137.9630 O   0  0  0  0  0  0  0  0  0  0  0  0
  181.4320  178.6570  137.8350 C   0  0  0  0  0  0  0  0  0  0  0  0
  183.2720  179.2880  140.3850 C   0  0  0  0  0  2  0  0  0  0  0  0
  182.3830  178.5350  143.8750 O   0  0  0  0  0  0  0  0  0  0  0  0
  183.0100  178.6130  142.7810 C   0  0  0  0  0  0  0  0  0  0  0  0
  184.3740  178.3310  142.7240 O   0  0  0  0  0  0  0  0  0  0  0  0
  185.1720  178.2440  143.8940 C   0  0  0  0  0  1  0  0  0  0  0  0
  183.4440  174.5610  136.3950 C   0  0  0  0  0  2  0  0  0  0  0  0
  183.3490  173.5980  135.2220 C   0  0  0  0  0  2  0  0  0  0  0  0
  184.5200  172.6300  135.2380 C   0  0  0  0  0  2  0  0  0  0  0  0
  184.4920  171.7800  136.4950 C   0  0  0  0  0  2  0  0  0  0  0  0
  183.3430  170.7910  136.4400 C   0  0  0  0  0  1  0  0  0  0  0  0
  192.6110  172.6970  137.0460 C   0  0  0  0  0  2  0  0  0  0  0  0
  197.6440  175.6980  137.0470 O   0  0  0  0  0  1  0  0  0  0  0  0
  194.5820  171.5050  136.0700 C   0  0  0  0  0  0  0  0  0  0  0  0
  196.9360  174.6180  137.5860 C   0  0  1  0  0  0  0  0  0  0  0  0
  196.9510  174.4400  139.0960 C   0  0  0  0  0  1  0  0  0  0  0  0
  194.0410  172.8320  136.5340 C   0  0  2  0  0  3  0  0  0  0  0  0
  195.4300  171.4540  134.8370 C   0  0  0  0  0  2  0  0  0  0  0  0
  196.8550  171.0700  135.2120 C   0  0  2  0  0  3  0  0  0  0  0  0
  195.8400  174.0920  136.7810 C   0  0  1  0  0  3  0  0  0  0  0  0
  194.4020  170.4930  136.7320 O   0  0  0  0  0  0  0  0  0  0  0  0
  197.8890  172.1420  134.8400 C   0  0  0  0  0  2  0  0  0  0  0  0
  197.1170  173.3470  136.8500 N   0  0  1  0  0  0  0  0  0  0  0  0
  197.6690  173.5020  135.5080 C   0  0  0  0  0  2  0  0  0  0  0  0
  194.8790  173.3860  137.5130 O   0  0  0  0  0  0  0  0  0  0  0  0
  198.4190  169.4950  134.3460 O   0  0  0  0  0  0  0  0  0  0  0  0
  196.2330  168.8040  134.3470 O   0  0  0  0  0  1  0  0  0  0  0  0
  197.2130  169.7570  134.6020 C   0  0  0  0  0  0  0  0  0  0  0  0
  1  4  1  6  0  0  0
  3 11  1  0  0  0  0
  3 38  1  1  0  0  0
  3  8  1  0  0  0  0
  4  8  1  0  0  0  0
  5 10  1  0  0  0  0
  6  5  1  6  0  0  0
  6  2  1  0  0  0  0
  7 12  2  0  0  0  0
  9 10  1  1  0  0  0
  9 11  1  0  0  0  0
  9  1  1  0  0  0  0
 12  1  1  0  0  0  0
 12  2  1  0  0  0  0
 13 33  1  1  0  0  0
 13 24  1  0  0  0  0
 14 16  1  6  0  0  0
 14  6  1  0  0  0  0
 14 19  1  0  0  0  0
 15 23  2  0  0  0  0
 16 13  1  0  0  0  0
 17 25  1  0  0  0  0
 18 17  1  0  0  0  0
 19 23  1  0  0  0  0
 20 28  1  0  0  0  0
 21 18  1  0  0  0  0
 22 27  1  0  0  0  0
 23 20  1  0  0  0  0
 24 22  1  6  0  0  0
 24 19  1  0  0  0  0
 25 30  1  1  0  0  0
 27 26  2  0  0  0  0
 27 21  1  0  0  0  0
 28 25  1  0  0  0  0
 30 29  2  0  0  0  0
 31 30  1  0  0  0  0
 31 32  1  0  0  0  0
 34 35  1  0  0  0  0
 34 33  1  0  0  0  0
 35 36  1  0  0  0  0
 37 36  1  0  0  0  0
 39 41  1  0  0  0  0
 40 43  1  0  0  0  0
 40 47  2  0  0  0  0
 41 42  1  1  0  0  0
 43 38  1  1  0  0  0
 43 51  1  0  0  0  0
 44 45  1  0  0  0  0
 44 40  1  0  0  0  0
 45 54  1  6  0  0  0
 46 49  1  0  0  0  0
 46 51  1  1  0  0  0
 46 41  1  0  0  0  0
 48 45  1  0  0  0  0
 48 50  1  0  0  0  0
 49 50  1  6  0  0  0
 49 41  1  0  0  0  0
 52 54  2  0  0  0  0
 53 54  1  0  0  0  0
M  END
>  <MODEL>
2

>  <REMARK>
 VINA RESULT:      -7.1      5.031      7.370
  Name = 
  10 active torsions:
  status: ('A' for Active; 'I' for Inactive)
    1  A    between atoms: C_2  and  C_33
    2  A    between atoms: C_4  and  C_13
    3  A    between atoms: C_4  and  C_17
    4  A    between atoms: C_11  and  C_20
    5  A    between atoms: C_11  and  C_46
    6  A    between atoms: C_12  and  C_34
    7  A    between atoms: O_19  and  C_25
    8  A    between atoms: C_25  and  C_40
    9  A    between atoms: C_26  and  C_35
   10  A    between atoms: C_33  and  C_46
                            x       y       z     vdW  Elec       q    Type
                         _______ _______ _______ _____ _____    ______ ____

>  <TORSDO>
F 10

$$$$
=
 OpenBabel10232411113D

 54 59  0  0  1  0  0  0  0  0999 V2000
  191.3350  176.0220  136.6260 C   0  0  2  0  0  3  0  0  0  0  0  0
  189.0340  177.1450  136.5550 C   0  0  0  0  0  2  0  0  0  0  0  0
  193.5080  174.0600  136.8480 C   0  0  2  0  0  3  0  0  0  0  0  0
  192.7690  176.3590  136.2080 C   0  0  0  0  0  2  0  0  0  0  0  0
  188.5710  174.6290  136.1210 C   0  0  0  0  0  2  0  0  0  0  0  0
  188.0060  175.9970  136.5520 C   0  0  2  0  0  3  0  0  0  0  0  0
  190.3970  176.9670  134.5370 C   0  0  0  0  0  2  0  0  0  0  0  0
  193.7630  175.5540  137.0310 C   0  0  0  0  0  2  0  0  0  0  0  0
  191.0530  174.5120  136.5130 C   0  0  2  0  0  3  0  0  0  0  0  0
  189.6730  174.1540  137.0590 C   0  0  0  0  0  2  0  0  0  0  0  0
  192.0920  173.7220  137.3070 C   0  0  0  0  0  2  0  0  0  0  0  0
  190.3280  176.8410  135.8650 C   0  0  0  0  0  0  0  0  0  0  0  0
  185.1390  174.6770  135.6390 C   0  0  2  0  0  3  0  0  0  0  0  0
  186.7520  176.3850  135.7420 C   0  0  1  0  0  3  0  0  0  0  0  0
  186.2520  178.9100  137.2060 O   0  0  0  0  0  0  0  0  0  0  0  0
  186.2960  175.2460  134.9410 N   0  0  0  0  0  2  0  0  0  0  0  0
  182.2440  177.3580  140.1360 C   0  0  0  0  0  2  0  0  0  0  0  0
  181.2910  177.3000  138.9510 C   0  0  0  0  0  2  0  0  0  0  0  0
  185.6470  176.7290  136.6280 N   0  0  0  0  0  0  0  0  0  0  0  0
  184.9600  177.7610  138.8480 C   0  0  0  0  0  2  0  0  0  0  0  0
  181.8980  176.5400  137.8700 N   0  0  0  0  0  2  0  0  0  0  0  0
  183.3630  176.3570  135.8200 C   0  0  0  0  0  2  0  0  0  0  0  0
  185.6400  177.8540  137.5200 C   0  0  0  0  0  0  0  0  0  0  0  0
  184.5740  175.7580  136.5350 C   0  0  1  0  0  3  0  0  0  0  0  0
  183.0060  178.6820  140.1980 C   0  0  2  0  0  3  0  0  0  0  0  0
  182.3600  178.3930  136.5240 O   0  0  0  0  0  0  0  0  0  0  0  0
  182.5180  177.1620  136.7440 C   0  0  0  0  0  0  0  0  0  0  0  0
  183.9600  178.9000  139.0210 C   0  0  0  0  0  2  0  0  0  0  0  0
  183.0800  178.6520  142.5930 O   0  0  0  0  0  0  0  0  0  0  0  0
  183.7030  178.8440  141.5110 C   0  0  0  0  0  0  0  0  0  0  0  0
  185.0520  179.1960  141.5210 O   0  0  0  0  0  0  0  0  0  0  0  0
  185.9900  178.5450  142.3640 C   0  0  0  0  0  1  0  0  0  0  0  0
  185.5740  173.4890  136.4900 C   0  0  0  0  0  2  0  0  0  0  0  0
  184.5460  173.1860  137.5690 C   0  0  0  0  0  2  0  0  0  0  0  0
  183.6400  172.0480  137.1300 C   0  0  0  0  0  2  0  0  0  0  0  0
  184.3690  171.1260  136.1700 C   0  0  0  0  0  2  0  0  0  0  0  0
  183.5240  169.9030  135.8660 C   0  0  0  0  0  1  0  0  0  0  0  0
  194.5030  173.2690  137.6800 C   0  0  0  0  0  2  0  0  0  0  0  0
  199.8130  175.0040  135.9140 O   0  0  0  0  0  1  0  0  0  0  0  0
  195.9640  171.4780  136.7230 C   0  0  0  0  0  0  0  0  0  0  0  0
  199.0860  174.2640  136.8530 C   0  0  1  0  0  0  0  0  0  0  0  0
  199.4290  174.4470  138.3230 C   0  0  0  0  0  1  0  0  0  0  0  0
  195.7730  172.9620  136.8940 C   0  0  2  0  0  3  0  0  0  0  0  0
  196.4750  170.9540  135.4170 C   0  0  0  0  0  2  0  0  0  0  0  0
  197.8670  170.3650  135.6120 C   0  0  2  0  0  3  0  0  0  0  0  0
  197.7600  173.8180  136.4440 C   0  0  1  0  0  3  0  0  0  0  0  0
  195.7830  170.7140  137.6610 O   0  0  0  0  0  0  0  0  0  0  0  0
  198.9440  171.0660  134.7720 C   0  0  0  0  0  2  0  0  0  0  0  0
  198.8770  172.8480  136.4770 N   0  0  1  0  0  0  0  0  0  0  0  0
  199.1140  172.5590  135.0670 C   0  0  0  0  0  2  0  0  0  0  0  0
  196.8980  173.5330  137.5080 O   0  0  0  0  0  0  0  0  0  0  0  0
  196.7500  168.3040  135.1920 O   0  0  0  0  0  0  0  0  0  0  0  0
  199.0400  168.1920  135.1950 O   0  0  0  0  0  1  0  0  0  0  0  0
  197.8500  168.9000  135.3340 C   0  0  0  0  0  0  0  0  0  0  0  0
  1  4  1  6  0  0  0
  3  8  1  0  0  0  0
  3 11  1  0  0  0  0
  3 38  1  1  0  0  0
  4  8  1  0  0  0  0
  5 10  1  0  0  0  0
  6  5  1  6  0  0  0
  6  2  1  0  0  0  0
  7 12  2  0  0  0  0
  9  1  1  0  0  0  0
  9 10  1  1  0  0  0
  9 11  1  0  0  0  0
 12  2  1  0  0  0  0
 12  1  1  0  0  0  0
 13 33  1  1  0  0  0
 13 24  1  0  0  0  0
 14 16  1  1  0  0  0
 14  6  1  0  0  0  0
 14 19  1  0  0  0  0
 15 23  2  0  0  0  0
 16 13  1  0  0  0  0
 17 25  1  0  0  0  0
 18 17  1  0  0  0  0
 19 23  1  0  0  0  0
 20 28  1  0  0  0  0
 21 18  1  0  0  0  0
 22 27  1  0  0  0  0
 23 20  1  0  0  0  0
 24 22  1  6  0  0  0
 24 19  1  0  0  0  0
 25 30  1  1  0  0  0
 26 27  2  0  0  0  0
 27 21  1  0  0  0  0
 28 25  1  0  0  0  0
 30 31  1  0  0  0  0
 30 29  2  0  0  0  0
 31 32  1  0  0  0  0
 33 34  1  0  0  0  0
 35 34  1  0  0  0  0
 36 35  1  0  0  0  0
 37 36  1  0  0  0  0
 39 41  1  0  0  0  0
 40 43  1  0  0  0  0
 40 47  2  0  0  0  0
 41 42  1  1  0  0  0
 43 51  1  0  0  0  0
 43 38  1  1  0  0  0
 44 45  1  0  0  0  0
 44 40  1  0  0  0  0
 45 54  1  6  0  0  0
 46 49  1  0  0  0  0
 46 41  1  0  0  0  0
 46 51  1  1  0  0  0
 48 50  1  0  0  0  0
 48 45  1  0  0  0  0
 49 50  1  6  0  0  0
 49 41  1  0  0  0  0
 52 54  2  0  0  0  0
 53 54  1  0  0  0  0
M  END
>  <MODEL>
3

>  <REMARK>
 VINA RESULT:      -7.0      5.671      7.872
  Name = 
  10 active torsions:
  status: ('A' for Active; 'I' for Inactive)
    1  A    between atoms: C_2  and  C_33
    2  A    between atoms: C_4  and  C_13
    3  A    between atoms: C_4  and  C_17
    4  A    between atoms: C_11  and  C_20
    5  A    between atoms: C_11  and  C_46
    6  A    between atoms: C_12  and  C_34
    7  A    between atoms: O_19  and  C_25
    8  A    between atoms: C_25  and  C_40
    9  A    between atoms: C_26  and  C_35
   10  A    between atoms: C_33  and  C_46
                            x       y       z     vdW  Elec       q    Type
                         _______ _______ _______ _____ _____    ______ ____

>  <TORSDO>
F 10

$$$$
=
 OpenBabel10232411113D

 54 59  0  0  1  0  0  0  0  0999 V2000
  188.8550  175.3230  136.9250 C   0  0  2  0  0  3  0  0  0  0  0  0
  186.6280  176.4600  137.4820 C   0  0  0  0  0  2  0  0  0  0  0  0
  190.9590  173.7140  135.6570 C   0  0  2  0  0  3  0  0  0  0  0  0
  190.3280  175.4760  137.3120 C   0  0  0  0  0  2  0  0  0  0  0  0
  186.4520  175.8220  134.9730 C   0  0  0  0  0  2  0  0  0  0  0  0
  185.7120  176.2040  136.2690 C   0  0  2  0  0  3  0  0  0  0  0  0
  188.5460  177.7740  136.7360 C   0  0  0  0  0  2  0  0  0  0  0  0
  191.0680  174.1610  137.1120 C   0  0  0  0  0  2  0  0  0  0  0  0
  188.7010  174.8150  135.4790 C   0  0  2  0  0  3  0  0  0  0  0  0
  187.2410  174.5290  135.1340 C   0  0  0  0  0  2  0  0  0  0  0  0
  189.4900  173.5210  135.2890 C   0  0  0  0  0  2  0  0  0  0  0  0
  188.0840  176.5940  137.1600 C   0  0  0  0  0  0  0  0  0  0  0  0
  182.4800  176.7490  136.0390 C   0  0  2  0  0  3  0  0  0  0  0  0
  184.7430  177.3860  136.0550 C   0  0  1  0  0  3  0  0  0  0  0  0
  185.8720  179.0610  138.2210 O   0  0  0  0  0  0  0  0  0  0  0  0
  183.6420  176.9830  135.1770 N   0  0  0  0  0  2  0  0  0  0  0  0
  182.1420  178.3860  141.7820 C   0  0  0  0  0  2  0  0  0  0  0  0
  181.1350  179.2250  141.0100 C   0  0  0  0  0  2  0  0  0  0  0  0
  184.1320  177.7930  137.3140 N   0  0  0  0  0  0  0  0  0  0  0  0
  184.4340  178.0420  139.8260 C   0  0  0  0  0  2  0  0  0  0  0  0
  181.0810  178.7770  139.6280 N   0  0  0  0  0  2  0  0  0  0  0  0
  181.9020  178.8060  137.2390 C   0  0  0  0  0  2  0  0  0  0  0  0
  184.8520  178.3490  138.4250 C   0  0  0  0  0  0  0  0  0  0  0  0
  182.7100  177.5120  137.3250 C   0  0  1  0  0  3  0  0  0  0  0  0
  183.4850  179.1000  141.9410 C   0  0  2  0  0  3  0  0  0  0  0  0
  182.2390  180.6080  138.7520 O   0  0  0  0  0  0  0  0  0  0  0  0
  181.7570  179.4580  138.5700 C   0  0  0  0  0  0  0  0  0  0  0  0
  184.2210  179.3280  140.6180 C   0  0  0  0  0  2  0  0  0  0  0  0
  185.5160  178.0290  142.6260 O   0  0  0  0  0  0  0  0  0  0  0  0
  184.3520  178.4050  142.9410 C   0  0  0  0  0  0  0  0  0  0  0  0
  183.8630  178.1920  144.2290 O   0  0  0  0  0  0  0  0  0  0  0  0
  184.4780  178.7690  145.3700 C   0  0  0  0  0  1  0  0  0  0  0  0
  182.3480  175.2610  136.3470 C   0  0  0  0  0  2  0  0  0  0  0  0
  182.7150  174.4200  135.1350 C   0  0  0  0  0  2  0  0  0  0  0  0
  183.7330  173.3580  135.5170 C   0  0  0  0  0  2  0  0  0  0  0  0
  183.6020  172.9990  136.9860 C   0  0  0  0  0  2  0  0  0  0  0  0
  183.1920  171.5460  137.1420 C   0  0  0  0  0  1  0  0  0  0  0  0
  191.6950  172.3980  135.4740 C   0  0  0  0  0  2  0  0  0  0  0  0
  195.9160  169.5420  138.3660 O   0  0  0  0  0  1  0  0  0  0  0  0
  193.9180  173.5420  135.5520 C   0  0  0  0  0  0  0  0  0  0  0  0
  195.4510  169.9750  137.1190 C   0  0  1  0  0  0  0  0  0  0  0  0
  195.4510  168.9750  135.9730 C   0  0  0  0  0  1  0  0  0  0  0  0
  193.0750  172.4320  136.1220 C   0  0  2  0  0  3  0  0  0  0  0  0
  194.7990  174.3330  136.4680 C   0  0  0  0  0  2  0  0  0  0  0  0
  196.2600  174.0510  136.1410 C   0  0  2  0  0  3  0  0  0  0  0  0
  194.5320  171.1070  137.1240 C   0  0  1  0  0  3  0  0  0  0  0  0
  193.9480  173.7460  134.3470 O   0  0  0  0  0  0  0  0  0  0  0  0
  197.0380  173.4420  137.3160 C   0  0  0  0  0  2  0  0  0  0  0  0
  195.9410  171.3140  136.7220 N   0  0  1  0  0  0  0  0  0  0  0  0
  196.4920  172.1030  137.8180 C   0  0  0  0  0  2  0  0  0  0  0  0
  193.7300  171.1990  135.9820 O   0  0  0  0  0  0  0  0  0  0  0  0
  196.7560  175.6670  134.4620 O   0  0  0  0  0  0  0  0  0  0  0  0
  197.7090  176.0610  136.5100 O   0  0  0  0  0  1  0  0  0  0  0  0
  196.9280  175.2930  135.6530 C   0  0  0  0  0  0  0  0  0  0  0  0
  1 12  1  0  0  0  0
  1  4  1  6  0  0  0
  3 38  1  1  0  0  0
  3  8  1  0  0  0  0
  5 10  1  0  0  0  0
  6  5  1  6  0  0  0
  6  2  1  0  0  0  0
  7 12  2  0  0  0  0
  8  4  1  0  0  0  0
  9 10  1  1  0  0  0
  9  1  1  0  0  0  0
 11  9  1  0  0  0  0
 11  3  1  0  0  0  0
 12  2  1  0  0  0  0
 13 33  1  1  0  0  0
 13 24  1  0  0  0  0
 14 16  1  6  0  0  0
 14  6  1  0  0  0  0
 14 19  1  0  0  0  0
 15 23  2  0  0  0  0
 16 13  1  0  0  0  0
 17 25  1  0  0  0  0
 18 17  1  0  0  0  0
 19 24  1  0  0  0  0
 19 23  1  0  0  0  0
 20 28  1  0  0  0  0
 21 18  1  0  0  0  0
 22 27  1  0  0  0  0
 23 20  1  0  0  0  0
 24 22  1  6  0  0  0
 25 30  1  1  0  0  0
 27 26  2  0  0  0  0
 27 21  1  0  0  0  0
 28 25  1  0  0  0  0
 29 30  2  0  0  0  0
 30 31  1  0  0  0  0
 31 32  1  0  0  0  0
 34 35  1  0  0  0  0
 34 33  1  0  0  0  0
 35 36  1  0  0  0  0
 36 37  1  0  0  0  0
 40 43  1  0  0  0  0
 40 44  1  0  0  0  0
 41 42  1  6  0  0  0
 41 46  1  0  0  0  0
 41 39  1  0  0  0  0
 43 38  1  6  0  0  0
 45 54  1  1  0  0  0
 45 44  1  0  0  0  0
 45 48  1  0  0  0  0
 46 51  1  6  0  0  0
 47 40  2  0  0  0  0
 48 50  1  0  0  0  0
 49 41  1  0  0  0  0
 49 46  1  0  0  0  0
 49 50  1  1  0  0  0
 51 43  1  0  0  0  0
 52 54  2  0  0  0  0
 54 53  1  0  0  0  0
M  END
>  <MODEL>
4

>  <REMARK>
 VINA RESULT:      -7.0      4.723      7.207
  Name = 
  10 active torsions:
  status: ('A' for Active; 'I' for Inactive)
    1  A    between atoms: C_2  and  C_33
    2  A    between atoms: C_4  and  C_13
    3  A    between atoms: C_4  and  C_17
    4  A    between atoms: C_11  and  C_20
    5  A    between atoms: C_11  and  C_46
    6  A    between atoms: C_12  and  C_34
    7  A    between atoms: O_19  and  C_25
    8  A    between atoms: C_25  and  C_40
    9  A    between atoms: C_26  and  C_35
   10  A    between atoms: C_33  and  C_46
                            x       y       z     vdW  Elec       q    Type
                         _______ _______ _______ _____ _____    ______ ____

>  <TORSDO>
F 10

$$$$
=
 OpenBabel10232411113D

 54 59  0  0  1  0  0  0  0  0999 V2000
  191.8730  175.2250  135.8930 C   0  0  2  0  0  3  0  0  0  0  0  0
  190.3290  177.0500  136.8130 C   0  0  0  0  0  2  0  0  0  0  0  0
  193.0250  172.6430  135.1020 C   0  0  2  0  0  3  0  0  0  0  0  0
  193.0900  175.1370  134.9680 C   0  0  0  0  0  2  0  0  0  0  0  0
  188.7900  174.9980  136.4210 C   0  0  0  0  0  2  0  0  0  0  0  0
  188.9950  176.3480  137.1340 C   0  0  2  0  0  3  0  0  0  0  0  0
  190.7420  176.8600  134.4140 C   0  0  0  0  0  2  0  0  0  0  0  0
  193.8970  173.8840  135.2740 C   0  0  0  0  0  2  0  0  0  0  0  0
  190.9950  173.9630  135.7940 C   0  0  2  0  0  3  0  0  0  0  0  0
  189.8580  173.9860  136.8130 C   0  0  0  0  0  2  0  0  0  0  0  0
  191.8370  172.7150  136.0570 C   0  0  0  0  0  2  0  0  0  0  0  0
  191.0810  176.4810  135.6500 C   0  0  0  0  0  0  0  0  0  0  0  0
  185.7240  176.2120  136.8560 C   0  0  2  0  0  3  0  0  0  0  0  0
  187.8050  177.3050  136.9140 C   0  0  1  0  0  3  0  0  0  0  0  0
  188.5300  179.1540  139.1100 O   0  0  0  0  0  0  0  0  0  0  0  0
  186.8240  176.6910  136.0150 N   0  0  0  0  0  2  0  0  0  0  0  0
  184.9720  177.6800  142.6060 C   0  0  0  0  0  2  0  0  0  0  0  0
  183.8230  178.2990  141.8240 C   0  0  0  0  0  2  0  0  0  0  0  0
  187.1050  177.5620  138.1660 N   0  0  0  0  0  0  0  0  0  0  0  0
  187.3130  177.8410  140.6850 C   0  0  0  0  0  2  0  0  0  0  0  0
  183.8830  177.8650  140.4380 N   0  0  0  0  0  2  0  0  0  0  0  0
  184.7140  178.0910  138.0630 C   0  0  0  0  0  2  0  0  0  0  0  0
  187.6780  178.2440  139.2920 C   0  0  0  0  0  0  0  0  0  0  0  0
  185.7720  176.9920  138.1520 C   0  0  1  0  0  3  0  0  0  0  0  0
  186.1350  178.6550  142.7920 C   0  0  2  0  0  3  0  0  0  0  0  0
  184.6470  179.9070  139.5950 O   0  0  0  0  0  0  0  0  0  0  0  0
  184.4180  178.6830  139.3960 C   0  0  0  0  0  0  0  0  0  0  0  0
  186.8260  179.0460  141.4830 C   0  0  0  0  0  2  0  0  0  0  0  0
  188.3260  177.9800  143.4880 O   0  0  0  0  0  0  0  0  0  0  0  0
  187.1130  178.1450  143.8010 C   0  0  0  0  0  0  0  0  0  0  0  0
  186.6700  177.8690  145.0940 O   0  0  0  0  0  0  0  0  0  0  0  0
  187.5690  177.7550  146.1860 C   0  0  0  0  0  1  0  0  0  0  0  0
  185.9010  174.7260  137.1510 C   0  0  0  0  0  2  0  0  0  0  0  0
  185.3640  173.8770  136.0080 C   0  0  0  0  0  2  0  0  0  0  0  0
  184.8750  172.5380  136.5310 C   0  0  0  0  0  2  0  0  0  0  0  0
  185.0480  171.4580  135.4790 C   0  0  0  0  0  2  0  0  0  0  0  0
  186.5200  171.2470  135.1730 C   0  0  0  0  0  1  0  0  0  0  0  0
  193.8420  171.4010  135.4170 C   0  0  0  0  0  2  0  0  0  0  0  0
  197.4770  175.3570  137.7540 O   0  0  0  0  0  1  0  0  0  0  0  0
  196.0580  170.5200  136.1730 C   0  0  0  0  0  0  0  0  0  0  0  0
  196.6660  174.2420  137.9920 C   0  0  1  0  0  0  0  0  0  0  0  0
  195.7230  174.2900  139.1830 C   0  0  0  0  0  1  0  0  0  0  0  0
  195.2540  171.7570  135.8690 C   0  0  2  0  0  3  0  0  0  0  0  0
  197.5000  170.4720  135.7720 C   0  0  0  0  0  2  0  0  0  0  0  0
  198.3760  170.4530  137.0180 C   0  0  2  0  0  3  0  0  0  0  0  0
  196.3810  173.3880  136.8450 C   0  0  1  0  0  3  0  0  0  0  0  0
  195.5670  169.5990  136.8090 O   0  0  0  0  0  0  0  0  0  0  0  0
  199.3290  171.6530  137.1060 C   0  0  0  0  0  2  0  0  0  0  0  0
  197.3660  172.9450  137.8570 N   0  0  1  0  0  0  0  0  0  0  0  0
  198.6370  173.0180  137.1440 C   0  0  0  0  0  2  0  0  0  0  0  0
  195.2280  172.6090  136.9840 O   0  0  0  0  0  0  0  0  0  0  0  0
  199.7330  168.8640  138.1610 O   0  0  0  0  0  1  0  0  0  0  0  0
  199.1520  168.2910  136.0180 O   0  0  0  0  0  0  0  0  0  0  0  0
  199.1330  169.1700  137.0970 C   0  0  0  0  0  0  0  0  0  0  0  0
  1  4  1  6  0  0  0
  2  6  1  0  0  0  0
  3  8  1  0  0  0  0
  3 38  1  1  0  0  0
  3 11  1  0  0  0  0
  4  8  1  0  0  0  0
  5 10  1  0  0  0  0
  6  5  1  6  0  0  0
  7 12  2  0  0  0  0
  9  1  1  0  0  0  0
  9 11  1  1  0  0  0
  9 10  1  0  0  0  0
 12  1  1  0  0  0  0
 12  2  1  0  0  0  0
 13 33  1  1  0  0  0
 13 24  1  0  0  0  0
 14 16  1  6  0  0  0
 14  6  1  0  0  0  0
 14 19  1  0  0  0  0
 15 23  2  0  0  0  0
 16 13  1  0  0  0  0
 17 25  1  0  0  0  0
 18 17  1  0  0  0  0
 19 23  1  0  0  0  0
 20 28  1  0  0  0  0
 21 18  1  0  0  0  0
 22 27  1  0  0  0  0
 23 20  1  0  0  0  0
 24 22  1  6  0  0  0
 24 19  1  0  0  0  0
 25 30  1  1  0  0  0
 27 26  2  0  0  0  0
 27 21  1  0  0  0  0
 28 25  1  0  0  0  0
 29 30  2  0  0  0  0
 30 31  1  0  0  0  0
 31 32  1  0  0  0  0
 34 35  1  0  0  0  0
 34 33  1  0  0  0  0
 36 35  1  0  0  0  0
 37 36  1  0  0  0  0
 39 41  1  0  0  0  0
 40 47  2  0  0  0  0
 41 42  1  1  0  0  0
 43 38  1  1  0  0  0
 43 40  1  0  0  0  0
 43 51  1  0  0  0  0
 44 40  1  0  0  0  0
 44 45  1  0  0  0  0
 45 54  1  6  0  0  0
 45 48  1  0  0  0  0
 46 51  1  1  0  0  0
 46 49  1  0  0  0  0
 46 41  1  0  0  0  0
 48 50  1  0  0  0  0
 49 50  1  6  0  0  0
 49 41  1  0  0  0  0
 53 54  2  0  0  0  0
 54 52  1  0  0  0  0
M  END
>  <MODEL>
5

>  <REMARK>
 VINA RESULT:      -6.4      5.550      8.026
  Name = 
  10 active torsions:
  status: ('A' for Active; 'I' for Inactive)
    1  A    between atoms: C_2  and  C_33
    2  A    between atoms: C_4  and  C_13
    3  A    between atoms: C_4  and  C_17
    4  A    between atoms: C_11  and  C_20
    5  A    between atoms: C_11  and  C_46
    6  A    between atoms: C_12  and  C_34
    7  A    between atoms: O_19  and  C_25
    8  A    between atoms: C_25  and  C_40
    9  A    between atoms: C_26  and  C_35
   10  A    between atoms: C_33  and  C_46
                            x       y       z     vdW  Elec       q    Type
                         _______ _______ _______ _____ _____    ______ ____

>  <TORSDO>
F 10

$$$$
=
 OpenBabel10232411113D

 54 59  0  0  1  0  0  0  0  0999 V2000
  190.7230  175.2440  136.9730 C   0  0  2  0  0  3  0  0  0  0  0  0
  188.3430  176.0080  137.5330 C   0  0  0  0  0  2  0  0  0  0  0  0
  193.3090  174.8220  135.6490 C   0  0  2  0  0  3  0  0  0  0  0  0
  191.9130  174.6270  137.7120 C   0  0  0  0  0  2  0  0  0  0  0  0
  189.2000  177.7080  135.7700 C   0  0  0  0  0  2  0  0  0  0  0  0
  187.9870  177.0790  136.4830 C   0  0  2  0  0  3  0  0  0  0  0  0
  190.2470  176.8060  138.8360 C   0  0  0  0  0  2  0  0  0  0  0  0
  192.8100  173.8760  136.7380 C   0  0  0  0  0  2  0  0  0  0  0  0
  191.1830  176.1620  135.8240 C   0  0  2  0  0  3  0  0  0  0  0  0
  190.0030  176.6680  134.9990 C   0  0  0  0  0  2  0  0  0  0  0  0
  192.1200  175.4010  134.8870 C   0  0  0  0  0  2  0  0  0  0  0  0
  189.7890  175.9510  137.9180 C   0  0  0  0  0  0  0  0  0  0  0  0
  184.9680  177.2930  137.7590 C   0  0  2  0  0  3  0  0  0  0  0  0
  187.0520  178.1480  137.0850 C   0  0  1  0  0  3  0  0  0  0  0  0
  189.0240  179.1650  139.0450 O   0  0  0  0  0  0  0  0  0  0  0  0
  185.6750  177.9210  136.6390 N   0  0  0  0  0  2  0  0  0  0  0  0
  187.0870  176.9700  143.3440 C   0  0  0  0  0  2  0  0  0  0  0  0
  185.8750  177.8900  143.3700 C   0  0  0  0  0  2  0  0  0  0  0  0
  187.0300  178.0600  138.5390 N   0  0  0  0  0  0  0  0  0  0  0  0
  188.3520  177.5320  140.6450 C   0  0  0  0  0  2  0  0  0  0  0  0
  185.2400  177.9020  142.0610 N   0  0  0  0  0  2  0  0  0  0  0  0
  184.9990  178.7820  139.7060 C   0  0  0  0  0  2  0  0  0  0  0  0
  188.1610  178.3140  139.3860 C   0  0  0  0  0  0  0  0  0  0  0  0
  185.7320  177.6290  139.0220 C   0  0  1  0  0  3  0  0  0  0  0  0
  188.3950  177.7460  143.1830 C   0  0  2  0  0  3  0  0  0  0  0  0
  185.9840  180.0360  141.4690 O   0  0  0  0  0  0  0  0  0  0  0  0
  185.4370  178.9560  141.1180 C   0  0  0  0  0  0  0  0  0  0  0  0
  188.5230  178.4660  141.8390 C   0  0  0  0  0  2  0  0  0  0  0  0
  189.6880  175.7500  142.8920 O   0  0  0  0  0  0  0  0  0  0  0  0
  189.5780  176.8740  143.4570 C   0  0  0  0  0  0  0  0  0  0  0  0
  190.5640  177.3260  144.3330 O   0  0  0  0  0  0  0  0  0  0  0  0
  190.2460  178.0470  145.5140 C   0  0  0  0  0  1  0  0  0  0  0  0
  184.9330  175.7800  137.5740 C   0  0  0  0  0  2  0  0  0  0  0  0
  184.3990  175.4130  136.1980 C   0  0  0  0  0  2  0  0  0  0  0  0
  185.2860  174.3620  135.5520 C   0  0  0  0  0  2  0  0  0  0  0  0
  185.5940  173.2460  136.5340 C   0  0  0  0  0  2  0  0  0  0  0  0
  187.0910  173.0150  136.6210 C   0  0  0  0  0  1  0  0  0  0  0  0
  194.1960  174.0580  134.6810 C   0  0  0  0  0  2  0  0  0  0  0  0
  198.3560  175.4140  138.5770 O   0  0  0  0  0  1  0  0  0  0  0  0
  195.8980  172.2760  135.1110 C   0  0  0  0  0  0  0  0  0  0  0  0
  197.2300  174.6290  138.3070 C   0  0  1  0  0  0  0  0  0  0  0  0
  196.1490  174.5460  139.3730 C   0  0  0  0  0  1  0  0  0  0  0  0
  195.5500  173.7290  135.3000 C   0  0  2  0  0  3  0  0  0  0  0  0
  197.3110  171.9010  134.7890 C   0  0  0  0  0  2  0  0  0  0  0  0
  197.9150  171.1320  135.9570 C   0  0  2  0  0  3  0  0  0  0  0  0
  196.9140  174.4070  136.9020 C   0  0  1  0  0  3  0  0  0  0  0  0
  195.0600  171.4050  135.2970 O   0  0  0  0  0  0  0  0  0  0  0  0
  199.1440  171.8220  136.5650 C   0  0  0  0  0  2  0  0  0  0  0  0
  197.5380  173.3210  137.6890 N   0  0  1  0  0  0  0  0  0  0  0  0
  198.8790  173.2230  137.1240 C   0  0  0  0  0  2  0  0  0  0  0  0
  195.5790  174.0650  136.6620 O   0  0  0  0  0  0  0  0  0  0  0  0
  197.9850  169.3570  134.3690 O   0  0  0  0  0  0  0  0  0  0  0  0
  198.8680  168.8640  136.4270 O   0  0  0  0  0  1  0  0  0  0  0  0
  198.2440  169.7370  135.5420 C   0  0  0  0  0  0  0  0  0  0  0  0
  1  4  1  1  0  0  0
  1 12  1  0  0  0  0
  2 12  1  0  0  0  0
  3 38  1  6  0  0  0
  3  8  1  0  0  0  0
  6  5  1  1  0  0  0
  6 14  1  0  0  0  0
  6  2  1  0  0  0  0
  8  4  1  0  0  0  0
  9 11  1  6  0  0  0
  9  1  1  0  0  0  0
 10  5  1  0  0  0  0
 10  9  1  0  0  0  0
 11  3  1  0  0  0  0
 12  7  2  0  0  0  0
 13 33  1  6  0  0  0
 13 24  1  0  0  0  0
 14 16  1  6  0  0  0
 14 19  1  0  0  0  0
 15 23  2  0  0  0  0
 16 13  1  0  0  0  0
 17 18  1  0  0  0  0
 19 24  1  0  0  0  0
 19 23  1  0  0  0  0
 20 28  1  0  0  0  0
 21 18  1  0  0  0  0
 22 27  1  0  0  0  0
 23 20  1  0  0  0  0
 24 22  1  6  0  0  0
 25 17  1  0  0  0  0
 25 30  1  6  0  0  0
 27 26  2  0  0  0  0
 27 21  1  0  0  0  0
 28 25  1  0  0  0  0
 29 30  2  0  0  0  0
 30 31  1  0  0  0  0
 31 32  1  0  0  0  0
 34 33  1  0  0  0  0
 35 34  1  0  0  0  0
 35 36  1  0  0  0  0
 36 37  1  0  0  0  0
 40 47  2  0  0  0  0
 40 43  1  0  0  0  0
 41 39  1  0  0  0  0
 41 42  1  1  0  0  0
 43 38  1  1  0  0  0
 43 51  1  0  0  0  0
 44 40  1  0  0  0  0
 44 45  1  0  0  0  0
 45 54  1  6  0  0  0
 45 48  1  0  0  0  0
 46 51  1  1  0  0  0
 46 49  1  0  0  0  0
 46 41  1  0  0  0  0
 48 50  1  0  0  0  0
 49 50  1  6  0  0  0
 49 41  1  0  0  0  0
 52 54  2  0  0  0  0
 54 53  1  0  0  0  0
M  END
>  <MODEL>
6

>  <REMARK>
 VINA RESULT:      -6.2      5.350      8.443
  Name = 
  10 active torsions:
  status: ('A' for Active; 'I' for Inactive)
    1  A    between atoms: C_2  and  C_33
    2  A    between atoms: C_4  and  C_13
    3  A    between atoms: C_4  and  C_17
    4  A    between atoms: C_11  and  C_20
    5  A    between atoms: C_11  and  C_46
    6  A    between atoms: C_12  and  C_34
    7  A    between atoms: O_19  and  C_25
    8  A    between atoms: C_25  and  C_40
    9  A    between atoms: C_26  and  C_35
   10  A    between atoms: C_33  and  C_46
                            x       y       z     vdW  Elec       q    Type
                         _______ _______ _______ _____ _____    ______ ____

>  <TORSDO>
F 10

$$$$
=
 OpenBabel10232411113D

 54 59  0  0  1  0  0  0  0  0999 V2000
  187.5290  173.1860  136.5260 C   0  0  2  0  0  3  0  0  0  0  0  0
  190.0840  173.2230  136.3540 C   0  0  0  0  0  2  0  0  0  0  0  0
  184.7180  173.9500  136.8950 C   0  0  2  0  0  3  0  0  0  0  0  0
  186.3830  172.2600  136.1110 C   0  0  0  0  0  2  0  0  0  0  0  0
  189.3530  175.6950  136.0610 C   0  0  0  0  0  2  0  0  0  0  0  0
  190.4870  174.7100  136.4020 C   0  0  2  0  0  3  0  0  0  0  0  0
  188.7070  172.8600  134.3710 C   0  0  0  0  0  2  0  0  0  0  0  0
  185.1660  172.4940  136.9940 C   0  0  0  0  0  2  0  0  0  0  0  0
  187.0990  174.6660  136.4970 C   0  0  2  0  0  3  0  0  0  0  0  0
  188.1930  175.5810  137.0410 C   0  0  0  0  0  2  0  0  0  0  0  0
  185.8490  174.8670  137.3510 C   0  0  0  0  0  2  0  0  0  0  0  0
  188.7650  172.9430  135.7040 C   0  0  0  0  0  0  0  0  0  0  0  0
  193.4520  176.0890  136.7200 C   0  0  2  0  0  3  0  0  0  0  0  0
  191.7500  174.9640  135.5520 C   0  0  1  0  0  3  0  0  0  0  0  0
  192.0610  172.1520  134.6780 O   0  0  0  0  0  0  0  0  0  0  0  0
  192.2940  176.2920  135.8440 N   0  0  0  0  0  2  0  0  0  0  0  0
  196.0300  170.7910  137.7500 C   0  0  0  0  0  2  0  0  0  0  0  0
  197.0290  171.6410  136.9790 C   0  0  0  0  0  2  0  0  0  0  0  0
  192.8010  174.0100  135.8840 N   0  0  0  0  0  0  0  0  0  0  0  0
  193.3480  171.6380  136.6170 C   0  0  0  0  0  2  0  0  0  0  0  0
  196.5040  172.9870  136.8150 N   0  0  0  0  0  2  0  0  0  0  0  0
  195.1300  174.7110  135.5820 C   0  0  0  0  0  2  0  0  0  0  0  0
  192.7140  172.5950  135.6590 C   0  0  0  0  0  0  0  0  0  0  0  0
  193.9250  174.6660  136.5220 C   0  0  1  0  0  3  0  0  0  0  0  0
  195.1990  169.9000  136.8270 C   0  0  2  0  0  3  0  0  0  0  0  0
  195.9970  172.7560  134.5450 O   0  0  0  0  0  0  0  0  0  0  0  0
  195.8960  173.4350  135.6030 C   0  0  0  0  0  0  0  0  0  0  0  0
  194.2790  170.6790  135.8820 C   0  0  0  0  0  2  0  0  0  0  0  0
  193.8710  167.9130  137.0090 O   0  0  0  0  0  0  0  0  0  0  0  0
  194.4450  168.8690  137.6040 C   0  0  0  0  0  0  0  0  0  0  0  0
  194.3960  168.9710  138.9940 O   0  0  0  0  0  0  0  0  0  0  0  0
  193.9130  167.9130  139.8070 C   0  0  0  0  0  1  0  0  0  0  0  0
  193.0480  176.2930  138.1760 C   0  0  0  0  0  2  0  0  0  0  0  0
  191.7410  177.0640  138.2750 C   0  0  0  0  0  2  0  0  0  0  0  0
  190.9120  176.5500  139.4400 C   0  0  0  0  0  2  0  0  0  0  0  0
  189.9440  177.6160  139.9180 C   0  0  0  0  0  2  0  0  0  0  0  0
  189.3390  178.3510  138.7360 C   0  0  0  0  0  1  0  0  0  0  0  0
  183.5080  174.1700  137.7870 C   0  0  0  0  0  2  0  0  0  0  0  0
  181.9050  178.7040  134.4400 O   0  0  0  0  0  1  0  0  0  0  0  0
  182.2870  176.0070  138.9660 C   0  0  0  0  0  0  0  0  0  0  0  0
  181.4740  177.5970  135.1800 C   0  0  1  0  0  0  0  0  0  0  0  0
  180.4590  176.6640  134.5380 C   0  0  0  0  0  1  0  0  0  0  0  0
  183.0030  175.6070  137.7040 C   0  0  2  0  0  3  0  0  0  0  0  0
  182.4860  177.3870  139.5120 C   0  0  0  0  0  2  0  0  0  0  0  0
  181.1860  178.1740  139.4000 C   0  0  2  0  0  3  0  0  0  0  0  0
  182.3750  177.1200  136.2220 C   0  0  1  0  0  3  0  0  0  0  0  0
  181.4890  175.2480  139.4980 O   0  0  0  0  0  0  0  0  0  0  0  0
  181.3110  179.4290  138.5260 C   0  0  0  0  0  2  0  0  0  0  0  0
  181.1720  177.8970  136.5970 N   0  0  1  0  0  0  0  0  0  0  0  0
  181.7220  179.1600  137.0760 C   0  0  0  0  0  2  0  0  0  0  0  0
  182.1700  175.7870  136.5900 O   0  0  0  0  0  0  0  0  0  0  0  0
  180.3740  179.7170  141.0230 O   0  0  0  0  0  0  0  0  0  0  0  0
  180.4990  177.5380  141.7230 O   0  0  0  0  0  1  0  0  0  0  0  0
  180.6770  178.5240  140.7580 C   0  0  0  0  0  0  0  0  0  0  0  0
  1  4  1  6  0  0  0
  2  6  1  0  0  0  0
  3  8  1  0  0  0  0
  3 11  1  0  0  0  0
  3 38  1  1  0  0  0
  4  8  1  0  0  0  0
  5 10  1  0  0  0  0
  6  5  1  6  0  0  0
  7 12  2  0  0  0  0
  9  1  1  0  0  0  0
  9 10  1  1  0  0  0
  9 11  1  0  0  0  0
 12  2  1  0  0  0  0
 12  1  1  0  0  0  0
 13 33  1  1  0  0  0
 14 16  1  1  0  0  0
 14 19  1  0  0  0  0
 14  6  1  0  0  0  0
 15 23  2  0  0  0  0
 16 13  1  0  0  0  0
 18 17  1  0  0  0  0
 19 24  1  0  0  0  0
 21 18  1  0  0  0  0
 22 27  1  0  0  0  0
 23 19  1  0  0  0  0
 23 20  1  0  0  0  0
 24 22  1  6  0  0  0
 24 13  1  0  0  0  0
 25 30  1  1  0  0  0
 25 17  1  0  0  0  0
 26 27  2  0  0  0  0
 27 21  1  0  0  0  0
 28 20  1  0  0  0  0
 28 25  1  0  0  0  0
 29 30  2  0  0  0  0
 30 31  1  0  0  0  0
 31 32  1  0  0  0  0
 33 34  1  0  0  0  0
 34 35  1  0  0  0  0
 35 36  1  0  0  0  0
 37 36  1  0  0  0  0
 39 41  1  0  0  0  0
 40 47  2  0  0  0  0
 40 44  1  0  0  0  0
 41 42  1  6  0  0  0
 41 46  1  0  0  0  0
 41 49  1  0  0  0  0
 43 38  1  1  0  0  0
 43 40  1  0  0  0  0
 45 44  1  0  0  0  0
 45 54  1  1  0  0  0
 46 51  1  1  0  0  0
 46 49  1  0  0  0  0
 48 45  1  0  0  0  0
 49 50  1  6  0  0  0
 50 48  1  0  0  0  0
 51 43  1  0  0  0  0
 54 52  2  0  0  0  0
 54 53  1  0  0  0  0
M  END
>  <MODEL>
7

>  <REMARK>
 VINA RESULT:      -6.2      4.879     11.246
  Name = 
  10 active torsions:
  status: ('A' for Active; 'I' for Inactive)
    1  A    between atoms: C_2  and  C_33
    2  A    between atoms: C_4  and  C_13
    3  A    between atoms: C_4  and  C_17
    4  A    between atoms: C_11  and  C_20
    5  A    between atoms: C_11  and  C_46
    6  A    between atoms: C_12  and  C_34
    7  A    between atoms: O_19  and  C_25
    8  A    between atoms: C_25  and  C_40
    9  A    between atoms: C_26  and  C_35
   10  A    between atoms: C_33  and  C_46
                            x       y       z     vdW  Elec       q    Type
                         _______ _______ _______ _____ _____    ______ ____

>  <TORSDO>
F 10

$$$$
=
 OpenBabel10232411113D

 54 59  0  0  1  0  0  0  0  0999 V2000
  188.0520  176.4860  135.8430 C   0  0  2  0  0  3  0  0  0  0  0  0
  186.4350  178.0600  137.0540 C   0  0  0  0  0  2  0  0  0  0  0  0
  189.4170  174.1050  134.8000 C   0  0  2  0  0  3  0  0  0  0  0  0
  189.0990  176.5820  134.7290 C   0  0  0  0  0  2  0  0  0  0  0  0
  185.1640  175.8060  136.8610 C   0  0  0  0  0  2  0  0  0  0  0  0
  185.2880  177.1690  137.5700 C   0  0  2  0  0  3  0  0  0  0  0  0
  186.4680  177.9440  134.6160 C   0  0  0  0  0  2  0  0  0  0  0  0
  190.1180  175.4600  134.8630 C   0  0  0  0  0  2  0  0  0  0  0  0
  187.3610  175.1090  135.8520 C   0  0  2  0  0  3  0  0  0  0  0  0
  186.4180  174.9600  137.0440 C   0  0  0  0  0  2  0  0  0  0  0  0
  188.4060  173.9980  135.9390 C   0  0  0  0  0  2  0  0  0  0  0  0
  187.0580  177.6140  135.7680 C   0  0  0  0  0  0  0  0  0  0  0  0
  182.0750  176.5610  137.8880 C   0  0  2  0  0  3  0  0  0  0  0  0
  183.9520  177.9410  137.5740 C   0  0  1  0  0  3  0  0  0  0  0  0
  184.7870  179.9190  139.6140 O   0  0  0  0  0  0  0  0  0  0  0  0
  182.9250  177.1760  136.8640 N   0  0  0  0  0  2  0  0  0  0  0  0
  182.1670  178.0230  143.6880 C   0  0  0  0  0  2  0  0  0  0  0  0
  180.8200  178.4560  143.1310 C   0  0  0  0  0  2  0  0  0  0  0  0
  183.4600  178.1210  138.9340 N   0  0  0  0  0  0  0  0  0  0  0  0
  184.0750  178.4780  141.3750 C   0  0  0  0  0  2  0  0  0  0  0  0
  180.6910  178.0070  141.7530 N   0  0  0  0  0  2  0  0  0  0  0  0
  181.0390  178.3010  139.2690 C   0  0  0  0  0  2  0  0  0  0  0  0
  184.1220  178.9000  139.9420 C   0  0  0  0  0  0  0  0  0  0  0  0
  182.2430  177.3660  139.1580 C   0  0  1  0  0  3  0  0  0  0  0  0
  183.1910  179.1580  143.6650 C   0  0  2  0  0  3  0  0  0  0  0  0
  180.9880  180.1190  140.7990 O   0  0  0  0  0  0  0  0  0  0  0  0
  180.9060  178.8720  140.6370 C   0  0  0  0  0  0  0  0  0  0  0  0
  183.5720  179.6170  142.2550 C   0  0  0  0  0  2  0  0  0  0  0  0
  185.4760  178.4770  143.9090 O   0  0  0  0  0  0  0  0  0  0  0  0
  184.3990  178.8140  144.4770 C   0  0  0  0  0  0  0  0  0  0  0  0
  184.3220  178.8840  145.8670 O   0  0  0  0  0  0  0  0  0  0  0  0
  185.3730  178.4200  146.7010 C   0  0  0  0  0  1  0  0  0  0  0  0
  182.5140  175.1220  138.1370 C   0  0  0  0  0  2  0  0  0  0  0  0
  181.9790  174.1950  137.0560 C   0  0  0  0  0  2  0  0  0  0  0  0
  182.8890  172.9890  136.8970 C   0  0  0  0  0  2  0  0  0  0  0  0
  182.1820  171.7240  137.3450 C   0  0  0  0  0  2  0  0  0  0  0  0
  180.6910  171.8290  137.0860 C   0  0  0  0  0  1  0  0  0  0  0  0
  190.4450  172.9950  134.9420 C   0  0  0  0  0  2  0  0  0  0  0  0
  193.7670  177.2680  137.1860 O   0  0  0  0  0  1  0  0  0  0  0  0
  192.8760  172.4590  135.1910 C   0  0  0  0  0  0  0  0  0  0  0  0
  193.2050  176.0040  137.3940 C   0  0  1  0  0  0  0  0  0  0  0  0
  192.5050  175.7450  138.7190 C   0  0  0  0  0  1  0  0  0  0  0  0
  191.8400  173.5530  135.2020 C   0  0  2  0  0  3  0  0  0  0  0  0
  194.2060  172.7200  134.5560 C   0  0  0  0  0  2  0  0  0  0  0  0
  195.2910  172.7250  135.6260 C   0  0  2  0  0  3  0  0  0  0  0  0
  192.8520  175.2440  136.2000 C   0  0  1  0  0  3  0  0  0  0  0  0
  192.6680  171.3980  135.7620 O   0  0  0  0  0  0  0  0  0  0  0  0
  196.0380  174.0620  135.7250 C   0  0  0  0  0  2  0  0  0  0  0  0
  194.0670  174.8810  136.9640 N   0  0  1  0  0  0  0  0  0  0  0  0
  195.1540  175.2640  136.0700 C   0  0  0  0  0  2  0  0  0  0  0  0
  191.8860  174.2570  136.4150 O   0  0  0  0  0  0  0  0  0  0  0  0
  195.8210  170.5010  134.9590 O   0  0  0  0  0  0  0  0  0  0  0  0
  197.6070  171.7720  135.6280 O   0  0  0  0  0  1  0  0  0  0  0  0
  196.2460  171.6020  135.3970 C   0  0  0  0  0  0  0  0  0  0  0  0
  1  4  1  6  0  0  0
  1  9  1  0  0  0  0
  2  6  1  0  0  0  0
  3  8  1  0  0  0  0
  3 38  1  1  0  0  0
  3 11  1  0  0  0  0
  4  8  1  0  0  0  0
  5 10  1  0  0  0  0
  6  5  1  6  0  0  0
  6 14  1  0  0  0  0
  7 12  2  0  0  0  0
  9 11  1  1  0  0  0
  9 10  1  0  0  0  0
 12  1  1  0  0  0  0
 12  2  1  0  0  0  0
 13 33  1  1  0  0  0
 13 24  1  0  0  0  0
 14 16  1  6  0  0  0
 14 19  1  0  0  0  0
 15 23  2  0  0  0  0
 16 13  1  0  0  0  0
 18 17  1  0  0  0  0
 19 24  1  0  0  0  0
 19 23  1  0  0  0  0
 20 28  1  0  0  0  0
 21 18  1  0  0  0  0
 22 27  1  0  0  0  0
 23 20  1  0  0  0  0
 24 22  1  6  0  0  0
 25 17  1  0  0  0  0
 25 30  1  6  0  0  0
 27 26  2  0  0  0  0
 27 21  1  0  0  0  0
 28 25  1  0  0  0  0
 29 30  2  0  0  0  0
 30 31  1  0  0  0  0
 31 32  1  0  0  0  0
 34 33  1  0  0  0  0
 35 34  1  0  0  0  0
 35 36  1  0  0  0  0
 37 36  1  0  0  0  0
 39 41  1  0  0  0  0
 40 43  1  0  0  0  0
 40 47  2  0  0  0  0
 41 42  1  1  0  0  0
 43 38  1  1  0  0  0
 43 51  1  0  0  0  0
 44 40  1  0  0  0  0
 44 45  1  0  0  0  0
 45 54  1  6  0  0  0
 45 48  1  0  0  0  0
 46 51  1  1  0  0  0
 46 49  1  0  0  0  0
 46 41  1  0  0  0  0
 48 50  1  0  0  0  0
 49 50  1  6  0  0  0
 49 41  1  0  0  0  0
 52 54  2  0  0  0  0
 54 53  1  0  0  0  0
M  END
>  <MODEL>
8

>  <REMARK>
 VINA RESULT:      -6.1      4.163      6.961
  Name = 
  10 active torsions:
  status: ('A' for Active; 'I' for Inactive)
    1  A    between atoms: C_2  and  C_33
    2  A    between atoms: C_4  and  C_13
    3  A    between atoms: C_4  and  C_17
    4  A    between atoms: C_11  and  C_20
    5  A    between atoms: C_11  and  C_46
    6  A    between atoms: C_12  and  C_34
    7  A    between atoms: O_19  and  C_25
    8  A    between atoms: C_25  and  C_40
    9  A    between atoms: C_26  and  C_35
   10  A    between atoms: C_33  and  C_46
                            x       y       z     vdW  Elec       q    Type
                         _______ _______ _______ _____ _____    ______ ____

>  <TORSDO>
F 10

$$$$
=
 OpenBabel10232411113D

 54 59  0  0  1  0  0  0  0  0999 V2000
  190.5390  174.6360  135.1790 C   0  0  2  0  0  3  0  0  0  0  0  0
  189.2620  176.8560  135.1110 C   0  0  0  0  0  2  0  0  0  0  0  0
  192.1510  172.3370  136.0370 C   0  0  2  0  0  3  0  0  0  0  0  0
  190.6170  173.3540  134.3470 C   0  0  0  0  0  2  0  0  0  0  0  0
  189.4660  176.2710  137.6310 C   0  0  0  0  0  2  0  0  0  0  0  0
  189.2150  177.3580  136.5680 C   0  0  2  0  0  3  0  0  0  0  0  0
  188.0700  174.7290  134.9890 C   0  0  0  0  0  2  0  0  0  0  0  0
  191.9580  172.6660  134.5590 C   0  0  0  0  0  2  0  0  0  0  0  0
  190.7880  174.3570  136.6730 C   0  0  2  0  0  3  0  0  0  0  0  0
  190.8490  175.6490  137.4850 C   0  0  0  0  0  2  0  0  0  0  0  0
  192.1160  173.6240  136.8570 C   0  0  0  0  0  2  0  0  0  0  0  0
  189.2430  175.3680  134.9510 C   0  0  0  0  0  0  0  0  0  0  0  0
  186.0400  176.7560  137.1560 C   0  0  2  0  0  3  0  0  0  0  0  0
  187.9130  178.1400  136.8370 C   0  0  1  0  0  3  0  0  0  0  0  0
  189.0280  179.7800  139.0360 O   0  0  0  0  0  0  0  0  0  0  0  0
  186.7900  177.5040  136.1430 N   0  0  0  0  0  2  0  0  0  0  0  0
  186.8160  177.3360  143.0590 C   0  0  0  0  0  2  0  0  0  0  0  0
  185.4290  177.8670  142.7280 C   0  0  0  0  0  2  0  0  0  0  0  0
  187.5790  178.1230  138.2560 N   0  0  0  0  0  0  0  0  0  0  0  0
  188.4710  178.1030  140.6360 C   0  0  0  0  0  2  0  0  0  0  0  0
  185.1350  177.6300  141.3240 N   0  0  0  0  0  2  0  0  0  0  0  0
  185.2170  178.2850  138.8860 C   0  0  0  0  0  2  0  0  0  0  0  0
  188.3720  178.7330  139.2850 C   0  0  0  0  0  0  0  0  0  0  0  0
  186.3710  177.3600  138.5030 C   0  0  1  0  0  3  0  0  0  0  0  0
  187.8660  178.4470  143.0870 C   0  0  2  0  0  3  0  0  0  0  0  0
  185.3910  179.8560  140.6610 O   0  0  0  0  0  0  0  0  0  0  0  0
  185.2530  178.6480  140.3290 C   0  0  0  0  0  0  0  0  0  0  0  0
  188.1030  179.1060  141.7250 C   0  0  0  0  0  2  0  0  0  0  0  0
  190.2320  178.5600  143.4480 O   0  0  0  0  0  0  0  0  0  0  0  0
  189.1440  177.9680  143.6980 C   0  0  0  0  0  0  0  0  0  0  0  0
  189.1150  176.8700  144.5560 O   0  0  0  0  0  0  0  0  0  0  0  0
  189.1270  177.0210  145.9670 C   0  0  0  0  0  1  0  0  0  0  0  0
  186.4580  175.2900  137.1400 C   0  0  0  0  0  2  0  0  0  0  0  0
  185.2420  174.3760  137.1410 C   0  0  0  0  0  2  0  0  0  0  0  0
  185.6530  172.9510  136.8150 C   0  0  0  0  0  2  0  0  0  0  0  0
  184.4420  172.0370  136.8010 C   0  0  0  0  0  2  0  0  0  0  0  0
  183.1760  172.8280  137.0730 C   0  0  0  0  0  1  0  0  0  0  0  0
  193.4960  171.6580  136.2340 C   0  0  0  0  0  2  0  0  0  0  0  0
  195.2700  176.9140  134.3480 O   0  0  0  0  0  1  0  0  0  0  0  0
  195.9450  172.1170  136.4560 C   0  0  0  0  0  0  0  0  0  0  0  0
  195.0660  176.0870  135.4580 C   0  0  1  0  0  0  0  0  0  0  0  0
  194.3430  176.6750  136.6590 C   0  0  0  0  0  1  0  0  0  0  0  0
  194.6500  172.5710  135.8350 C   0  0  2  0  0  3  0  0  0  0  0  0
  197.2040  172.1840  135.6480 C   0  0  0  0  0  2  0  0  0  0  0  0
  198.1380  173.2290  136.2450 C   0  0  2  0  0  3  0  0  0  0  0  0
  195.0530  174.6510  135.2060 C   0  0  1  0  0  3  0  0  0  0  0  0
  195.9870  171.7730  137.6280 O   0  0  0  0  0  0  0  0  0  0  0  0
  198.4710  174.3700  135.2730 C   0  0  0  0  0  2  0  0  0  0  0  0
  196.2430  175.2710  135.8300 N   0  0  1  0  0  0  0  0  0  0  0  0
  197.2590  175.1710  134.7890 C   0  0  0  0  0  2  0  0  0  0  0  0
  194.3830  173.9040  136.1810 O   0  0  0  0  0  0  0  0  0  0  0  0
  199.7520  172.7680  137.9350 O   0  0  0  0  0  1  0  0  0  0  0  0
  200.1270  171.7410  135.9190 O   0  0  0  0  0  0  0  0  0  0  0  0
  199.3850  172.5800  136.7450 C   0  0  0  0  0  0  0  0  0  0  0  0
  1  4  1  6  0  0  0
  1  9  1  0  0  0  0
  3 38  1  6  0  0  0
  3 11  1  0  0  0  0
  4  8  1  0  0  0  0
  6  2  1  6  0  0  0
  6 14  1  0  0  0  0
  6  5  1  0  0  0  0
  8  3  1  0  0  0  0
  9 11  1  6  0  0  0
  9 10  1  0  0  0  0
 10  5  1  0  0  0  0
 12  7  2  0  0  0  0
 12  2  1  0  0  0  0
 12  1  1  0  0  0  0
 13 33  1  1  0  0  0
 13 24  1  0  0  0  0
 14 16  1  6  0  0  0
 14 19  1  0  0  0  0
 15 23  2  0  0  0  0
 16 13  1  0  0  0  0
 17 25  1  0  0  0  0
 18 17  1  0  0  0  0
 19 24  1  0  0  0  0
 19 23  1  0  0  0  0
 20 28  1  0  0  0  0
 21 18  1  0  0  0  0
 22 27  1  0  0  0  0
 23 20  1  0  0  0  0
 24 22  1  6  0  0  0
 25 30  1  6  0  0  0
 27 26  2  0  0  0  0
 27 21  1  0  0  0  0
 28 25  1  0  0  0  0
 29 30  2  0  0  0  0
 30 31  1  0  0  0  0
 31 32  1  0  0  0  0
 33 34  1  0  0  0  0
 35 34  1  0  0  0  0
 36 35  1  0  0  0  0
 36 37  1  0  0  0  0
 39 41  1  0  0  0  0
 40 47  2  0  0  0  0
 41 49  1  0  0  0  0
 41 42  1  1  0  0  0
 43 51  1  0  0  0  0
 43 38  1  1  0  0  0
 43 40  1  0  0  0  0
 44 45  1  0  0  0  0
 44 40  1  0  0  0  0
 45 54  1  6  0  0  0
 46 41  1  0  0  0  0
 46 49  1  0  0  0  0
 46 51  1  1  0  0  0
 48 45  1  0  0  0  0
 49 50  1  6  0  0  0
 50 48  1  0  0  0  0
 53 54  2  0  0  0  0
 54 52  1  0  0  0  0
M  END
>  <MODEL>
9

>  <REMARK>
 VINA RESULT:      -5.2      5.018      8.071
  Name = 
  10 active torsions:
  status: ('A' for Active; 'I' for Inactive)
    1  A    between atoms: C_2  and  C_33
    2  A    between atoms: C_4  and  C_13
    3  A    between atoms: C_4  and  C_17
    4  A    between atoms: C_11  and  C_20
    5  A    between atoms: C_11  and  C_46
    6  A    between atoms: C_12  and  C_34
    7  A    between atoms: O_19  and  C_25
    8  A    between atoms: C_25  and  C_40
    9  A    between atoms: C_26  and  C_35
   10  A    between atoms: C_33  and  C_46
                            x       y       z     vdW  Elec       q    Type
                         _______ _______ _______ _____ _____    ______ ____

>  <TORSDO>
F 10

$$$$
