=
 OpenBabel10232409463D

 25 26  0  0  1  0  0  0  0  0999 V2000
  191.2650  177.3340  141.6720 C   0  0  0  0  0  1  0  0  0  0  0  0
  188.8320  178.1540  142.3110 C   0  0  1  0  0  3  0  0  0  0  0  0
  189.8730  177.7250  141.3040 C   0  0  0  0  0  0  0  0  0  0  0  0
  187.6730  178.4730  141.4210 C   0  0  0  0  0  0  0  0  0  0  0  0
  186.5560  178.9080  141.8070 O   0  0  0  0  0  0  0  0  0  0  0  0
  187.3040  178.3910  139.0400 O   0  0  0  0  0  0  0  0  0  0  0  0
  188.0420  178.2280  140.0460 C   0  0  0  0  0  0  0  0  0  0  0  0
  189.4200  177.7700  140.0500 C   0  0  0  0  0  0  0  0  0  0  0  0
  188.4970  177.0350  143.2600 C   0  0  0  0  0  0  0  0  0  0  0  0
  188.3750  175.8580  142.8200 O   0  0  0  0  0  0  0  0  0  0  0  0
  187.9780  177.8140  147.4410 C   0  0  0  0  0  0  0  0  0  0  0  0
  189.3910  177.1590  145.5860 C   0  0  0  0  0  3  0  0  0  0  0  0
  189.2240  177.4130  146.9500 C   0  0  0  0  0  3  0  0  0  0  0  0
  187.0670  177.7070  145.2000 C   0  0  0  0  0  3  0  0  0  0  0  0
  186.8950  177.9610  146.5630 C   0  0  0  0  0  0  0  0  0  0  0  0
  188.3150  177.3040  144.6990 C   0  0  0  0  0  0  0  0  0  0  0  0
  185.3210  178.4620  147.1500 Cl  0  0  0  0  0  0  0  0  0  0  0  0
  187.8270  178.0630  148.8000 O   0  0  0  0  0  1  0  0  0  0  0  0
  190.2030  177.4260  138.9030 N   0  0  0  0  0  2  0  0  0  0  0  0
  190.0750  176.1530  138.2140 C   0  0  0  0  0  2  0  0  0  0  0  0
  191.2630  175.3490  138.4440 N   0  0  0  0  0  2  0  0  0  0  0  0
  192.1080  175.4860  137.2700 C   0  0  0  0  0  2  0  0  0  0  0  0
  194.0630  176.7110  136.6870 O   0  0  0  0  0  0  0  0  0  0  0  0
  193.2890  176.3270  137.6000 C   0  0  0  0  0  0  0  0  0  0  0  0
  193.5580  176.6570  138.9220 O   0  0  0  0  0  1  0  0  0  0  0  0
  2  9  1  1  0  0  0
  3  1  1  0  0  0  0
  3  2  1  0  0  0  0
  4  5  2  0  0  0  0
  4  2  1  0  0  0  0
  6  7  2  0  0  0  0
  7  8  1  0  0  0  0
  7  4  1  0  0  0  0
  8  3  2  0  0  0  0
  9 16  1  0  0  0  0
 10  9  2  0  0  0  0
 11 18  1  0  0  0  0
 12 13  2  0  0  0  0
 13 11  1  0  0  0  0
 14 15  1  0  0  0  0
 15 17  1  0  0  0  0
 15 11  2  0  0  0  0
 16 14  2  0  0  0  0
 16 12  1  0  0  0  0
 19  8  1  0  0  0  0
 20 21  1  0  0  0  0
 20 19  1  0  0  0  0
 22 24  1  0  0  0  0
 22 21  1  0  0  0  0
 23 24  2  0  0  0  0
 24 25  1  0  0  0  0
M  END
>  <MODEL>
1

>  <REMARK>
 VINA RESULT:      -8.1      0.000      0.000
  Name = 
  7 active torsions:
  status: ('A' for Active; 'I' for Inactive)
    1  A    between atoms: N_1  and  C_19
    2  A    between atoms: N_1  and  C_25
    3  A    between atoms: N_4  and  C_19
    4  A    between atoms: N_4  and  C_20
    5  A    between atoms: C_5  and  C_10
    6  A    between atoms: C_10  and  C_17
    7  A    between atoms: C_20  and  C_22
                            x       y       z     vdW  Elec       q    Type
                         _______ _______ _______ _____ _____    ______ ____

>  <TORSDO>
F 7

$$$$
=
 OpenBabel10232409463D

 25 26  0  0  1  0  0  0  0  0999 V2000
  187.0080  178.8430  141.7390 C   0  0  0  0  0  1  0  0  0  0  0  0
  188.7560  177.0840  142.6630 C   0  0  1  0  0  3  0  0  0  0  0  0
  188.1650  177.9210  141.5510 C   0  0  0  0  0  0  0  0  0  0  0  0
  189.8230  176.3320  141.9320 C   0  0  0  0  0  0  0  0  0  0  0  0
  190.5860  175.4710  142.4430 O   0  0  0  0  0  0  0  0  0  0  0  0
  190.5960  176.2950  139.6490 O   0  0  0  0  0  0  0  0  0  0  0  0
  189.8250  176.7300  140.5440 C   0  0  0  0  0  0  0  0  0  0  0  0
  188.7690  177.7140  140.3810 C   0  0  0  0  0  0  0  0  0  0  0  0
  189.3450  177.9510  143.7440 C   0  0  0  0  0  0  0  0  0  0  0  0
  190.2470  178.7850  143.4530 O   0  0  0  0  0  0  0  0  0  0  0  0
  187.9810  177.6120  147.7910 C   0  0  0  0  0  0  0  0  0  0  0  0
  189.7620  177.4650  146.1550 C   0  0  0  0  0  3  0  0  0  0  0  0
  189.3190  177.3540  147.4750 C   0  0  0  0  0  3  0  0  0  0  0  0
  187.5320  178.0920  145.4600 C   0  0  0  0  0  3  0  0  0  0  0  0
  187.0840  177.9810  146.7800 C   0  0  0  0  0  0  0  0  0  0  0  0
  188.8720  177.8350  145.1360 C   0  0  0  0  0  0  0  0  0  0  0  0
  185.4010  178.3120  147.1440 Cl  0  0  0  0  0  0  0  0  0  0  0  0
  187.5550  177.4970  149.1080 O   0  0  0  0  0  1  0  0  0  0  0  0
  188.4000  178.3680  139.1630 N   0  0  0  0  0  2  0  0  0  0  0  0
  187.4400  177.8070  138.2260 C   0  0  0  0  0  2  0  0  0  0  0  0
  186.3830  178.7700  137.9710 N   0  0  0  0  0  2  0  0  0  0  0  0
  185.1290  178.1400  138.3480 C   0  0  0  0  0  2  0  0  0  0  0  0
  184.3750  180.2750  139.0820 O   0  0  0  0  0  0  0  0  0  0  0  0
  184.3790  179.0320  139.2720 C   0  0  0  0  0  0  0  0  0  0  0  0
  183.7160  178.4960  140.3680 O   0  0  0  0  0  1  0  0  0  0  0  0
  2  9  1  1  0  0  0
  3  1  1  0  0  0  0
  3  2  1  0  0  0  0
  4  5  2  0  0  0  0
  4  2  1  0  0  0  0
  6  7  2  0  0  0  0
  7  4  1  0  0  0  0
  8  7  1  0  0  0  0
  8  3  2  0  0  0  0
  9 16  1  0  0  0  0
 10  9  2  0  0  0  0
 11 18  1  0  0  0  0
 12 13  2  0  0  0  0
 13 11  1  0  0  0  0
 14 15  1  0  0  0  0
 15 17  1  0  0  0  0
 15 11  2  0  0  0  0
 16 14  2  0  0  0  0
 16 12  1  0  0  0  0
 19  8  1  0  0  0  0
 20 19  1  0  0  0  0
 21 20  1  0  0  0  0
 21 22  1  0  0  0  0
 22 24  1  0  0  0  0
 23 24  2  0  0  0  0
 24 25  1  0  0  0  0
M  END
>  <MODEL>
2

>  <REMARK>
 VINA RESULT:      -8.0      2.326      4.526
  Name = 
  7 active torsions:
  status: ('A' for Active; 'I' for Inactive)
    1  A    between atoms: N_1  and  C_19
    2  A    between atoms: N_1  and  C_25
    3  A    between atoms: N_4  and  C_19
    4  A    between atoms: N_4  and  C_20
    5  A    between atoms: C_5  and  C_10
    6  A    between atoms: C_10  and  C_17
    7  A    between atoms: C_20  and  C_22
                            x       y       z     vdW  Elec       q    Type
                         _______ _______ _______ _____ _____    ______ ____

>  <TORSDO>
F 7

$$$$
=
 OpenBabel10232409463D

 25 26  0  0  1  0  0  0  0  0999 V2000
  191.4180  177.2700  141.9070 C   0  0  0  0  0  1  0  0  0  0  0  0
  188.9520  178.1050  142.3800 C   0  0  1  0  0  3  0  0  0  0  0  0
  190.0530  177.6570  141.4470 C   0  0  0  0  0  0  0  0  0  0  0  0
  187.8510  178.4100  141.4150 C   0  0  0  0  0  0  0  0  0  0  0  0
  186.7130  178.8530  141.7240 O   0  0  0  0  0  0  0  0  0  0  0  0
  187.6300  178.2890  139.0170 O   0  0  0  0  0  0  0  0  0  0  0  0
  188.3040  178.1420  140.0700 C   0  0  0  0  0  0  0  0  0  0  0  0
  189.6780  177.6810  140.1670 C   0  0  0  0  0  0  0  0  0  0  0  0
  188.5560  177.0020  143.3250 C   0  0  0  0  0  0  0  0  0  0  0  0
  188.3800  175.8330  142.8830 O   0  0  0  0  0  0  0  0  0  0  0  0
  188.0490  177.8010  147.5040 C   0  0  0  0  0  0  0  0  0  0  0  0
  189.4470  177.1020  145.6530 C   0  0  0  0  0  3  0  0  0  0  0  0
  189.2830  177.3630  147.0160 C   0  0  0  0  0  3  0  0  0  0  0  0
  187.1410  177.7190  145.2600 C   0  0  0  0  0  3  0  0  0  0  0  0
  186.9730  177.9790  146.6230 C   0  0  0  0  0  0  0  0  0  0  0  0
  188.3770  177.2780  144.7640 C   0  0  0  0  0  0  0  0  0  0  0  0
  185.4120  178.5290  147.2040 Cl  0  0  0  0  0  0  0  0  0  0  0  0
  187.9000  178.0560  148.8610 O   0  0  0  0  0  1  0  0  0  0  0  0
  190.5300  177.3170  139.0770 N   0  0  0  0  0  2  0  0  0  0  0  0
  190.5400  175.9850  138.4950 C   0  0  0  0  0  2  0  0  0  0  0  0
  190.6740  176.0810  137.0520 N   0  0  0  0  0  2  0  0  0  0  0  0
  189.6680  175.2100  136.4690 C   0  0  0  0  0  2  0  0  0  0  0  0
  188.1230  176.9550  135.9870 O   0  0  0  0  0  0  0  0  0  0  0  0
  188.3320  175.8560  136.5620 C   0  0  0  0  0  0  0  0  0  0  0  0
  187.3270  175.2670  137.3170 O   0  0  0  0  0  1  0  0  0  0  0  0
  2  9  1  1  0  0  0
  3  1  1  0  0  0  0
  3  2  1  0  0  0  0
  4  5  2  0  0  0  0
  4  2  1  0  0  0  0
  6  7  2  0  0  0  0
  7  8  1  0  0  0  0
  7  4  1  0  0  0  0
  8  3  2  0  0  0  0
  9 16  1  0  0  0  0
 10  9  2  0  0  0  0
 11 18  1  0  0  0  0
 12 13  2  0  0  0  0
 13 11  1  0  0  0  0
 14 15  1  0  0  0  0
 15 17  1  0  0  0  0
 15 11  2  0  0  0  0
 16 14  2  0  0  0  0
 16 12  1  0  0  0  0
 19  8  1  0  0  0  0
 20 19  1  0  0  0  0
 21 20  1  0  0  0  0
 22 24  1  0  0  0  0
 22 21  1  0  0  0  0
 23 24  2  0  0  0  0
 24 25  1  0  0  0  0
M  END
>  <MODEL>
3

>  <REMARK>
 VINA RESULT:      -7.5      1.900      2.151
  Name = 
  7 active torsions:
  status: ('A' for Active; 'I' for Inactive)
    1  A    between atoms: N_1  and  C_19
    2  A    between atoms: N_1  and  C_25
    3  A    between atoms: N_4  and  C_19
    4  A    between atoms: N_4  and  C_20
    5  A    between atoms: C_5  and  C_10
    6  A    between atoms: C_10  and  C_17
    7  A    between atoms: C_20  and  C_22
                            x       y       z     vdW  Elec       q    Type
                         _______ _______ _______ _____ _____    ______ ____

>  <TORSDO>
F 7

$$$$
=
 OpenBabel10232409463D

 25 26  0  0  1  0  0  0  0  0999 V2000
  187.4790  177.4710  143.1460 C   0  0  0  0  0  1  0  0  0  0  0  0
  185.4770  177.9270  144.8150 C   0  0  1  0  0  3  0  0  0  0  0  0
  186.9500  177.8060  144.5000 C   0  0  0  0  0  0  0  0  0  0  0  0
  185.5110  178.2160  146.2830 C   0  0  0  0  0  0  0  0  0  0  0  0
  184.5010  178.3740  147.0180 O   0  0  0  0  0  0  0  0  0  0  0  0
  187.2730  178.4820  147.9070 O   0  0  0  0  0  0  0  0  0  0  0  0
  186.8840  178.2600  146.7310 C   0  0  0  0  0  0  0  0  0  0  0  0
  187.7190  177.9940  145.5730 C   0  0  0  0  0  0  0  0  0  0  0  0
  184.8480  179.0630  144.0530 C   0  0  0  0  0  0  0  0  0  0  0  0
  185.2670  180.2410  144.2280 O   0  0  0  0  0  0  0  0  0  0  0  0
  181.6540  178.3230  141.2950 C   0  0  0  0  0  0  0  0  0  0  0  0
  182.4220  179.0560  143.4720 C   0  0  0  0  0  3  0  0  0  0  0  0
  181.3780  178.8160  142.5740 C   0  0  0  0  0  3  0  0  0  0  0  0
  184.0190  178.3120  141.8160 C   0  0  0  0  0  3  0  0  0  0  0  0
  182.9790  178.0690  140.9150 C   0  0  0  0  0  0  0  0  0  0  0  0
  183.7500  178.8070  143.1010 C   0  0  0  0  0  0  0  0  0  0  0  0
  183.3550  177.4500  139.3170 Cl  0  0  0  0  0  0  0  0  0  0  0  0
  180.6070  178.0880  140.4120 O   0  0  0  0  0  1  0  0  0  0  0  0
  189.1480  177.9230  145.5560 N   0  0  0  0  0  2  0  0  0  0  0  0
  189.8980  176.9420  146.3230 C   0  0  0  0  0  2  0  0  0  0  0  0
  191.2820  176.9290  145.8840 N   0  0  0  0  0  2  0  0  0  0  0  0
  191.2750  177.0950  144.4400 C   0  0  0  0  0  2  0  0  0  0  0  0
  192.1730  174.9090  144.1520 O   0  0  0  0  0  1  0  0  0  0  0  0
  191.3230  175.7610  143.7840 C   0  0  0  0  0  0  0  0  0  0  0  0
  190.4570  175.4700  142.7400 O   0  0  0  0  0  0  0  0  0  0  0  0
  1  3  1  0  0  0  0
  2  9  1  6  0  0  0
  2  4  1  0  0  0  0
  3  2  1  0  0  0  0
  3  8  2  0  0  0  0
  4  7  1  0  0  0  0
  4  5  2  0  0  0  0
  7  6  2  0  0  0  0
  8  7  1  0  0  0  0
  9 10  2  0  0  0  0
 11 13  1  0  0  0  0
 13 12  2  0  0  0  0
 14 16  2  0  0  0  0
 15 11  2  0  0  0  0
 15 14  1  0  0  0  0
 16 12  1  0  0  0  0
 16  9  1  0  0  0  0
 17 15  1  0  0  0  0
 18 11  1  0  0  0  0
 19  8  1  0  0  0  0
 19 20  1  0  0  0  0
 21 20  1  0  0  0  0
 22 21  1  0  0  0  0
 24 23  1  0  0  0  0
 24 22  1  0  0  0  0
 25 24  2  0  0  0  0
M  END
>  <MODEL>
4

>  <REMARK>
 VINA RESULT:      -7.4      4.319      6.856
  Name = 
  7 active torsions:
  status: ('A' for Active; 'I' for Inactive)
    1  A    between atoms: N_1  and  C_19
    2  A    between atoms: N_1  and  C_25
    3  A    between atoms: N_4  and  C_19
    4  A    between atoms: N_4  and  C_20
    5  A    between atoms: C_5  and  C_10
    6  A    between atoms: C_10  and  C_17
    7  A    between atoms: C_20  and  C_22
                            x       y       z     vdW  Elec       q    Type
                         _______ _______ _______ _____ _____    ______ ____

>  <TORSDO>
F 7

$$$$
=
 OpenBabel10232409463D

 25 26  0  0  1  0  0  0  0  0999 V2000
  186.7240  177.7820  143.2450 C   0  0  0  0  0  1  0  0  0  0  0  0
  189.3590  177.9840  143.3740 C   0  0  1  0  0  3  0  0  0  0  0  0
  188.0050  177.7620  144.0080 C   0  0  0  0  0  0  0  0  0  0  0  0
  190.2590  177.9130  144.5660 C   0  0  0  0  0  0  0  0  0  0  0  0
  191.5090  178.0690  144.5460 O   0  0  0  0  0  0  0  0  0  0  0  0
  189.9090  177.5420  146.9230 O   0  0  0  0  0  0  0  0  0  0  0  0
  189.4700  177.6620  145.7500 C   0  0  0  0  0  0  0  0  0  0  0  0
  188.0820  177.5840  145.3270 C   0  0  0  0  0  0  0  0  0  0  0  0
  189.6820  176.8980  142.3830 C   0  0  0  0  0  0  0  0  0  0  0  0
  189.9530  175.7360  142.7970 O   0  0  0  0  0  0  0  0  0  0  0  0
  189.6600  177.7250  138.1800 C   0  0  0  0  0  0  0  0  0  0  0  0
  188.6830  177.9980  140.3800 C   0  0  0  0  0  3  0  0  0  0  0  0
  188.6750  178.2700  139.0090 C   0  0  0  0  0  3  0  0  0  0  0  0
  190.6630  176.6380  140.0980 C   0  0  0  0  0  3  0  0  0  0  0  0
  190.6580  176.9050  138.7260 C   0  0  0  0  0  0  0  0  0  0  0  0
  189.6770  177.1800  140.9360 C   0  0  0  0  0  0  0  0  0  0  0  0
  191.9070  176.2080  137.7120 Cl  0  0  0  0  0  0  0  0  0  0  0  0
  189.6390  178.0030  136.8190 O   0  0  0  0  0  1  0  0  0  0  0  0
  186.9490  177.3660  146.1730 N   0  0  0  0  0  2  0  0  0  0  0  0
  186.4560  178.3670  147.1040 C   0  0  0  0  0  2  0  0  0  0  0  0
  185.5340  179.2590  146.4220 N   0  0  0  0  0  2  0  0  0  0  0  0
  184.3870  178.4640  146.0190 C   0  0  0  0  0  2  0  0  0  0  0  0
  182.5660  178.7520  144.5130 O   0  0  0  0  0  1  0  0  0  0  0  0
  183.7310  179.0940  144.8430 C   0  0  0  0  0  0  0  0  0  0  0  0
  184.4190  180.0320  144.0840 O   0  0  0  0  0  0  0  0  0  0  0  0
  1  3  1  0  0  0  0
  2  9  1  6  0  0  0
  2  3  1  0  0  0  0
  2  4  1  0  0  0  0
  3  8  2  0  0  0  0
  4  7  1  0  0  0  0
  5  4  2  0  0  0  0
  7  6  2  0  0  0  0
  8  7  1  0  0  0  0
  8 19  1  0  0  0  0
  9 10  2  0  0  0  0
 11 15  2  0  0  0  0
 11 13  1  0  0  0  0
 12 16  1  0  0  0  0
 13 12  2  0  0  0  0
 14 16  2  0  0  0  0
 15 14  1  0  0  0  0
 16  9  1  0  0  0  0
 17 15  1  0  0  0  0
 18 11  1  0  0  0  0
 19 20  1  0  0  0  0
 21 20  1  0  0  0  0
 22 21  1  0  0  0  0
 23 24  1  0  0  0  0
 24 22  1  0  0  0  0
 25 24  2  0  0  0  0
M  END
>  <MODEL>
5

>  <REMARK>
 VINA RESULT:      -7.4      3.983      8.271
  Name = 
  7 active torsions:
  status: ('A' for Active; 'I' for Inactive)
    1  A    between atoms: N_1  and  C_19
    2  A    between atoms: N_1  and  C_25
    3  A    between atoms: N_4  and  C_19
    4  A    between atoms: N_4  and  C_20
    5  A    between atoms: C_5  and  C_10
    6  A    between atoms: C_10  and  C_17
    7  A    between atoms: C_20  and  C_22
                            x       y       z     vdW  Elec       q    Type
                         _______ _______ _______ _____ _____    ______ ____

>  <TORSDO>
F 7

$$$$
=
 OpenBabel10232409463D

 25 26  0  0  1  0  0  0  0  0999 V2000
  186.8960  178.7360  141.9240 C   0  0  0  0  0  1  0  0  0  0  0  0
  188.8600  177.1200  142.6520 C   0  0  1  0  0  3  0  0  0  0  0  0
  188.1350  177.9620  141.6270 C   0  0  0  0  0  0  0  0  0  0  0  0
  189.9690  176.5420  141.8300 C   0  0  0  0  0  0  0  0  0  0  0  0
  190.8420  175.7360  142.2470 O   0  0  0  0  0  0  0  0  0  0  0  0
  190.6400  176.7490  139.5230 O   0  0  0  0  0  0  0  0  0  0  0  0
  189.8670  177.0340  140.4750 C   0  0  0  0  0  0  0  0  0  0  0  0
  188.7060  177.9050  140.4230 C   0  0  0  0  0  0  0  0  0  0  0  0
  189.4000  177.9690  143.7710 C   0  0  0  0  0  0  0  0  0  0  0  0
  190.2900  178.8310  143.5290 O   0  0  0  0  0  0  0  0  0  0  0  0
  187.9390  177.4840  147.7690 C   0  0  0  0  0  0  0  0  0  0  0  0
  189.7550  177.3840  146.1700 C   0  0  0  0  0  3  0  0  0  0  0  0
  189.2810  177.2250  147.4750 C   0  0  0  0  0  3  0  0  0  0  0  0
  187.5480  178.0610  145.4500 C   0  0  0  0  0  3  0  0  0  0  0  0
  187.0690  177.9030  146.7530 C   0  0  0  0  0  0  0  0  0  0  0  0
  188.8940  177.8030  145.1470 C   0  0  0  0  0  0  0  0  0  0  0  0
  185.3800  178.2350  147.0910 Cl  0  0  0  0  0  0  0  0  0  0  0  0
  187.4800  177.3220  149.0710 O   0  0  0  0  0  1  0  0  0  0  0  0
  188.2150  178.5970  139.2710 N   0  0  0  0  0  2  0  0  0  0  0  0
  187.2000  178.0430  138.3910 C   0  0  0  0  0  2  0  0  0  0  0  0
  187.2810  178.6790  137.0870 N   0  0  0  0  0  2  0  0  0  0  0  0
  188.6890  178.7720  136.7420 C   0  0  0  0  0  2  0  0  0  0  0  0
  189.8930  176.7640  136.3150 O   0  0  0  0  0  1  0  0  0  0  0  0
  189.0720  177.6170  135.8880 C   0  0  0  0  0  0  0  0  0  0  0  0
  188.5550  177.5000  134.6060 O   0  0  0  0  0  0  0  0  0  0  0  0
  2  9  1  1  0  0  0
  3  1  1  0  0  0  0
  3  2  1  0  0  0  0
  4  5  2  0  0  0  0
  4  2  1  0  0  0  0
  6  7  2  0  0  0  0
  7  4  1  0  0  0  0
  8  7  1  0  0  0  0
  8  3  2  0  0  0  0
  9 16  1  0  0  0  0
 10  9  2  0  0  0  0
 11 18  1  0  0  0  0
 12 13  2  0  0  0  0
 13 11  1  0  0  0  0
 14 15  1  0  0  0  0
 15 17  1  0  0  0  0
 15 11  2  0  0  0  0
 16 14  2  0  0  0  0
 16 12  1  0  0  0  0
 19  8  1  0  0  0  0
 20 19  1  0  0  0  0
 21 20  1  0  0  0  0
 22 21  1  0  0  0  0
 24 23  1  0  0  0  0
 24 22  1  0  0  0  0
 25 24  2  0  0  0  0
M  END
>  <MODEL>
6

>  <REMARK>
 VINA RESULT:      -7.3      2.382      3.189
  Name = 
  7 active torsions:
  status: ('A' for Active; 'I' for Inactive)
    1  A    between atoms: N_1  and  C_19
    2  A    between atoms: N_1  and  C_25
    3  A    between atoms: N_4  and  C_19
    4  A    between atoms: N_4  and  C_20
    5  A    between atoms: C_5  and  C_10
    6  A    between atoms: C_10  and  C_17
    7  A    between atoms: C_20  and  C_22
                            x       y       z     vdW  Elec       q    Type
                         _______ _______ _______ _____ _____    ______ ____

>  <TORSDO>
F 7

$$$$
=
 OpenBabel10232409463D

 25 26  0  0  1  0  0  0  0  0999 V2000
  187.4670  177.0690  143.2530 C   0  0  0  0  0  1  0  0  0  0  0  0
  185.1720  178.1330  144.0280 C   0  0  1  0  0  3  0  0  0  0  0  0
  186.6140  177.7510  144.2680 C   0  0  0  0  0  0  0  0  0  0  0  0
  184.7960  178.7190  145.3520 C   0  0  0  0  0  0  0  0  0  0  0  0
  183.6580  179.1640  145.6550 O   0  0  0  0  0  0  0  0  0  0  0  0
  185.9690  179.0850  147.4270 O   0  0  0  0  0  0  0  0  0  0  0  0
  185.9360  178.6730  146.2380 C   0  0  0  0  0  0  0  0  0  0  0  0
  187.0250  178.0580  145.5000 C   0  0  0  0  0  0  0  0  0  0  0  0
  185.0540  179.1550  142.9290 C   0  0  0  0  0  0  0  0  0  0  0  0
  185.4210  180.3440  143.1400 O   0  0  0  0  0  0  0  0  0  0  0  0
  183.4930  178.0460  139.0960 C   0  0  0  0  0  0  0  0  0  0  0  0
  183.1720  178.4150  141.4690 C   0  0  0  0  0  3  0  0  0  0  0  0
  182.6600  178.0530  140.2190 C   0  0  0  0  0  3  0  0  0  0  0  0
  185.3490  178.7640  140.4760 C   0  0  0  0  0  3  0  0  0  0  0  0
  184.8420  178.4020  139.2250 C   0  0  0  0  0  0  0  0  0  0  0  0
  184.5200  178.7730  141.6070 C   0  0  0  0  0  0  0  0  0  0  0  0
  185.9110  178.4040  137.8340 Cl  0  0  0  0  0  0  0  0  0  0  0  0
  182.9710  177.6840  137.8600 O   0  0  0  0  0  1  0  0  0  0  0  0
  188.3420  177.7940  145.9930 N   0  0  0  0  0  2  0  0  0  0  0  0
  188.5960  176.9510  147.1500 C   0  0  0  0  0  2  0  0  0  0  0  0
  189.9150  177.2390  147.6860 N   0  0  0  0  0  2  0  0  0  0  0  0
  190.8790  176.9310  146.6440 C   0  0  0  0  0  2  0  0  0  0  0  0
  192.3330  175.0460  146.6480 O   0  0  0  0  0  0  0  0  0  0  0  0
  191.9850  176.1150  147.2120 C   0  0  0  0  0  0  0  0  0  0  0  0
  192.6080  176.5130  148.3870 O   0  0  0  0  0  1  0  0  0  0  0  0
  1  3  1  0  0  0  0
  2  9  1  6  0  0  0
  2  3  1  0  0  0  0
  2  4  1  0  0  0  0
  3  8  2  0  0  0  0
  4  5  2  0  0  0  0
  4  7  1  0  0  0  0
  7  6  2  0  0  0  0
  8 19  1  0  0  0  0
  8  7  1  0  0  0  0
  9 10  2  0  0  0  0
 11 15  2  0  0  0  0
 11 13  1  0  0  0  0
 12 16  1  0  0  0  0
 13 12  2  0  0  0  0
 14 16  2  0  0  0  0
 15 14  1  0  0  0  0
 16  9  1  0  0  0  0
 17 15  1  0  0  0  0
 18 11  1  0  0  0  0
 19 20  1  0  0  0  0
 20 21  1  0  0  0  0
 22 24  1  0  0  0  0
 22 21  1  0  0  0  0
 23 24  2  0  0  0  0
 24 25  1  0  0  0  0
M  END
>  <MODEL>
7

>  <REMARK>
 VINA RESULT:      -7.2      5.179      7.699
  Name = 
  7 active torsions:
  status: ('A' for Active; 'I' for Inactive)
    1  A    between atoms: N_1  and  C_19
    2  A    between atoms: N_1  and  C_25
    3  A    between atoms: N_4  and  C_19
    4  A    between atoms: N_4  and  C_20
    5  A    between atoms: C_5  and  C_10
    6  A    between atoms: C_10  and  C_17
    7  A    between atoms: C_20  and  C_22
                            x       y       z     vdW  Elec       q    Type
                         _______ _______ _______ _____ _____    ______ ____

>  <TORSDO>
F 7

$$$$
=
 OpenBabel10232409463D

 25 26  0  0  1  0  0  0  0  0999 V2000
  186.7790  178.0820  143.9450 C   0  0  0  0  0  1  0  0  0  0  0  0
  188.7770  177.3400  142.3770 C   0  0  1  0  0  3  0  0  0  0  0  0
  187.4520  178.0260  142.6150 C   0  0  0  0  0  0  0  0  0  0  0  0
  188.9520  177.5370  140.9050 C   0  0  0  0  0  0  0  0  0  0  0  0
  189.9190  177.1070  140.2220 O   0  0  0  0  0  0  0  0  0  0  0  0
  187.6540  178.6170  139.1830 O   0  0  0  0  0  0  0  0  0  0  0  0
  187.8270  178.2770  140.3830 C   0  0  0  0  0  0  0  0  0  0  0  0
  186.9360  178.5420  141.4990 C   0  0  0  0  0  0  0  0  0  0  0  0
  189.8840  178.0080  143.1500 C   0  0  0  0  0  0  0  0  0  0  0  0
  190.3830  179.0850  142.7210 O   0  0  0  0  0  0  0  0  0  0  0  0
  191.3390  176.2810  146.7900 C   0  0  0  0  0  0  0  0  0  0  0  0
  191.4230  176.4760  144.3780 C   0  0  0  0  0  3  0  0  0  0  0  0
  191.8990  175.9120  145.5640 C   0  0  0  0  0  3  0  0  0  0  0  0
  189.8250  177.7810  145.6400 C   0  0  0  0  0  3  0  0  0  0  0  0
  190.2970  177.2180  146.8290 C   0  0  0  0  0  0  0  0  0  0  0  0
  190.3820  177.4150  144.4050 C   0  0  0  0  0  0  0  0  0  0  0  0
  189.5740  177.7020  148.3520 Cl  0  0  0  0  0  0  0  0  0  0  0  0
  191.8220  175.7120  147.9620 O   0  0  0  0  0  1  0  0  0  0  0  0
  185.6850  179.2350  141.4410 N   0  0  0  0  0  2  0  0  0  0  0  0
  184.4550  178.6030  140.9930 C   0  0  0  0  0  2  0  0  0  0  0  0
  183.6380  178.2520  142.1420 N   0  0  0  0  0  2  0  0  0  0  0  0
  183.7230  179.3570  143.0820 C   0  0  0  0  0  2  0  0  0  0  0  0
  183.5260  179.0800  145.4380 O   0  0  0  0  0  1  0  0  0  0  0  0
  182.9620  179.0230  144.3160 C   0  0  0  0  0  0  0  0  0  0  0  0
  181.6390  178.6110  144.2250 O   0  0  0  0  0  0  0  0  0  0  0  0
  2  3  1  0  0  0  0
  2  9  1  1  0  0  0
  3  1  1  0  0  0  0
  4  2  1  0  0  0  0
  5  4  2  0  0  0  0
  6  7  2  0  0  0  0
  7  4  1  0  0  0  0
  7  8  1  0  0  0  0
  8  3  2  0  0  0  0
  9 16  1  0  0  0  0
 10  9  2  0  0  0  0
 11 15  1  0  0  0  0
 11 18  1  0  0  0  0
 12 16  2  0  0  0  0
 12 13  1  0  0  0  0
 13 11  2  0  0  0  0
 14 15  2  0  0  0  0
 15 17  1  0  0  0  0
 16 14  1  0  0  0  0
 19  8  1  0  0  0  0
 20 19  1  0  0  0  0
 20 21  1  0  0  0  0
 21 22  1  0  0  0  0
 22 24  1  0  0  0  0
 24 23  1  0  0  0  0
 25 24  2  0  0  0  0
M  END
>  <MODEL>
8

>  <REMARK>
 VINA RESULT:      -7.1      3.403      6.260
  Name = 
  7 active torsions:
  status: ('A' for Active; 'I' for Inactive)
    1  A    between atoms: N_1  and  C_19
    2  A    between atoms: N_1  and  C_25
    3  A    between atoms: N_4  and  C_19
    4  A    between atoms: N_4  and  C_20
    5  A    between atoms: C_5  and  C_10
    6  A    between atoms: C_10  and  C_17
    7  A    between atoms: C_20  and  C_22
                            x       y       z     vdW  Elec       q    Type
                         _______ _______ _______ _____ _____    ______ ____

>  <TORSDO>
F 7

$$$$
=
 OpenBabel10232409463D

 25 26  0  0  1  0  0  0  0  0999 V2000
  187.9780  177.3780  147.4740 C   0  0  0  0  0  1  0  0  0  0  0  0
  188.4920  178.1330  144.9910 C   0  0  1  0  0  3  0  0  0  0  0  0
  188.8990  177.5170  146.3090 C   0  0  0  0  0  0  0  0  0  0  0  0
  189.7760  178.0690  144.2250 C   0  0  0  0  0  0  0  0  0  0  0  0
  189.9490  178.4980  143.0540 O   0  0  0  0  0  0  0  0  0  0  0  0
  191.9910  177.2500  144.7150 O   0  0  0  0  0  0  0  0  0  0  0  0
  190.7950  177.4600  145.0490 C   0  0  0  0  0  0  0  0  0  0  0  0
  190.1800  177.1470  146.3270 C   0  0  0  0  0  0  0  0  0  0  0  0
  187.4180  177.3210  144.3180 C   0  0  0  0  0  0  0  0  0  0  0  0
  187.6830  176.1620  143.8950 O   0  0  0  0  0  0  0  0  0  0  0  0
  183.4680  178.9150  143.8570 C   0  0  0  0  0  0  0  0  0  0  0  0
  185.3210  178.2720  145.2790 C   0  0  0  0  0  3  0  0  0  0  0  0
  184.0330  178.7930  145.1300 C   0  0  0  0  0  3  0  0  0  0  0  0
  185.4850  177.9960  142.8820 C   0  0  0  0  0  3  0  0  0  0  0  0
  184.1960  178.5150  142.7290 C   0  0  0  0  0  0  0  0  0  0  0  0
  186.0580  177.8700  144.1560 C   0  0  0  0  0  0  0  0  0  0  0  0
  183.5150  178.6560  141.1190 Cl  0  0  0  0  0  0  0  0  0  0  0  0
  182.1860  179.4340  143.7250 O   0  0  0  0  0  1  0  0  0  0  0  0
  190.8260  176.5490  147.4550 N   0  0  0  0  0  2  0  0  0  0  0  0
  191.7420  175.4270  147.3360 C   0  0  0  0  0  2  0  0  0  0  0  0
  193.0660  175.8250  147.7820 N   0  0  0  0  0  2  0  0  0  0  0  0
  193.0830  175.7100  149.2310 C   0  0  0  0  0  2  0  0  0  0  0  0
  193.0240  178.0380  149.7190 O   0  0  0  0  0  0  0  0  0  0  0  0
  193.6470  176.9510  149.8240 C   0  0  0  0  0  0  0  0  0  0  0  0
  194.8800  176.9170  150.4610 O   0  0  0  0  0  1  0  0  0  0  0  0
  2  9  1  6  0  0  0
  2  3  1  0  0  0  0
  3  8  2  0  0  0  0
  3  1  1  0  0  0  0
  4  2  1  0  0  0  0
  4  7  1  0  0  0  0
  5  4  2  0  0  0  0
  6  7  2  0  0  0  0
  7  8  1  0  0  0  0
  8 19  1  0  0  0  0
 10  9  2  0  0  0  0
 11 13  1  0  0  0  0
 13 12  2  0  0  0  0
 14 16  2  0  0  0  0
 15 14  1  0  0  0  0
 15 11  2  0  0  0  0
 16  9  1  0  0  0  0
 16 12  1  0  0  0  0
 17 15  1  0  0  0  0
 18 11  1  0  0  0  0
 20 19  1  0  0  0  0
 20 21  1  0  0  0  0
 21 22  1  0  0  0  0
 22 24  1  0  0  0  0
 23 24  2  0  0  0  0
 24 25  1  0  0  0  0
M  END
>  <MODEL>
9

>  <REMARK>
 VINA RESULT:      -7.0      4.843      7.237
  Name = 
  7 active torsions:
  status: ('A' for Active; 'I' for Inactive)
    1  A    between atoms: N_1  and  C_19
    2  A    between atoms: N_1  and  C_25
    3  A    between atoms: N_4  and  C_19
    4  A    between atoms: N_4  and  C_20
    5  A    between atoms: C_5  and  C_10
    6  A    between atoms: C_10  and  C_17
    7  A    between atoms: C_20  and  C_22
                            x       y       z     vdW  Elec       q    Type
                         _______ _______ _______ _____ _____    ______ ____

>  <TORSDO>
F 7

$$$$
