=
 OpenBabel10232412433D

 45 51  0  0  1  0  0  0  0  0999 V2000
  185.6440  173.0360  135.6940 C   0  0  2  0  0  3  0  0  0  0  0  0
  181.1130  178.6890  139.9950 C   0  0  0  0  0  3  0  0  0  0  0  0
  189.2920  176.3150  135.7470 N   0  0  0  0  0  0  0  0  0  0  0  0
  185.0280  175.7870  136.5350 C   0  0  2  0  0  3  0  0  0  0  0  0
  179.9890  178.6250  139.1680 C   0  0  0  0  0  3  0  0  0  0  0  0
  188.8430  175.0560  136.3470 C   0  0  1  0  0  3  0  0  0  0  0  0
  186.9430  173.4130  136.4100 C   0  0  0  0  0  2  0  0  0  0  0  0
  184.3830  173.3440  136.5170 C   0  0  0  0  0  2  0  0  0  0  0  0
  186.0910  178.7740  141.6060 C   0  0  0  0  0  3  0  0  0  0  0  0
  179.9980  177.8050  138.0390 C   0  0  0  0  0  3  0  0  0  0  0  0
  181.1180  176.2480  136.5890 O   0  0  0  0  0  1  0  0  0  0  0  0
  189.2280  175.0040  138.1380 S   0  0  0  0  0  0  0  0  0  0  0  0
  183.4130  177.9890  140.5350 N   0  0  0  0  0  2  0  0  0  0  0  0
  187.3250  178.0740  143.5670 C   0  0  0  0  0  3  0  0  0  0  0  0
  189.0080  177.2300  140.9460 C   0  0  0  0  0  2  0  0  0  0  0  0
  184.9080  178.2380  143.6550 C   0  0  0  0  0  0  0  0  0  0  0  0
  190.6620  177.0930  139.1060 C   0  0  0  0  0  3  0  0  0  0  0  0
  189.6170  176.7610  138.0890 C   0  0  1  0  0  3  0  0  0  0  0  0
  183.2890  174.9900  137.9290 O   0  0  0  0  0  0  0  0  0  0  0  0
  183.5160  176.3340  138.2490 C   0  0  2  0  0  3  0  0  0  0  0  0
  188.5860  178.5930  141.4690 C   0  0  0  0  0  2  0  0  0  0  0  0
  182.2590  177.0910  138.5690 C   0  0  0  0  0  0  0  0  0  0  0  0
  184.5050  174.6170  137.3460 C   0  0  2  0  0  3  0  0  0  0  0  0
  183.7260  178.1060  144.3750 O   0  0  0  0  0  1  0  0  0  0  0  0
  186.1280  177.9520  144.2780 C   0  0  0  0  0  3  0  0  0  0  0  0
  186.5170  175.9180  136.8020 C   0  0  0  0  0  2  0  0  0  0  0  0
  183.5910  178.9340  141.6260 C   0  0  0  0  0  2  0  0  0  0  0  0
  187.3090  178.4860  142.2310 C   0  0  0  0  0  0  0  0  0  0  0  0
  181.1280  177.0420  137.7300 C   0  0  0  0  0  0  0  0  0  0  0  0
  190.1300  178.3700  136.4330 F   0  0  0  0  0  0  0  0  0  0  0  0
  184.8870  178.6530  142.3140 C   0  0  0  0  0  0  0  0  0  0  0  0
  184.3000  176.9620  137.1210 C   0  0  0  0  0  2  0  0  0  0  0  0
  190.3980  177.2970  140.3980 C   0  0  0  0  0  0  0  0  0  0  0  0
  182.2510  177.9260  139.7000 C   0  0  0  0  0  0  0  0  0  0  0  0
  190.1440  177.0120  136.7010 C   0  0  2  0  0  3  0  0  0  0  0  0
  187.3500  174.8520  136.0750 C   0  0  1  0  0  3  0  0  0  0  0  0
  191.4490  177.5800  141.2600 O   0  0  0  0  0  1  0  0  0  0  0  0
  185.6640  171.6140  135.3530 C   0  0  0  0  0  0  0  0  0  0  0  0
  185.6790  170.4880  135.0850 N   0  0  0  0  0  0  0  0  0  0  0  0
  190.1220  175.9670  134.6050 C   0  0  0  0  0  2  0  0  0  0  0  0
  191.5130  175.5740  135.0740 C   0  0  2  0  0  3  0  0  0  0  0  0
  193.6120  175.4490  134.3470 C   0  0  0  0  0  2  0  0  0  0  0  0
  193.1420  174.0130  134.3470 C   0  0  0  0  0  2  0  0  0  0  0  0
  192.4870  176.2830  134.3540 O   0  0  0  0  0  0  0  0  0  0  0  0
  191.7300  174.0980  134.8450 C   0  0  0  0  0  2  0  0  0  0  0  0
  1 38  1  1  0  0  0
  1  7  1  0  0  0  0
  1  8  1  0  0  0  0
  3  6  1  0  0  0  0
  3 35  1  0  0  0  0
  4 26  1  1  0  0  0
  4 32  1  0  0  0  0
  4 23  1  0  0  0  0
  5  2  2  0  0  0  0
  6 12  1  1  0  0  0
  9 28  2  0  0  0  0
  9 31  1  0  0  0  0
 10  5  1  0  0  0  0
 11 29  1  0  0  0  0
 13 27  1  0  0  0  0
 14 25  2  0  0  0  0
 15 21  1  0  0  0  0
 16 25  1  0  0  0  0
 16 24  1  0  0  0  0
 17 33  2  0  0  0  0
 18 12  1  0  0  0  0
 18 17  1  1  0  0  0
 19 20  1  0  0  0  0
 20 32  1  6  0  0  0
 20 22  1  0  0  0  0
 21 28  1  0  0  0  0
 22 34  2  0  0  0  0
 23  8  1  6  0  0  0
 23 19  1  0  0  0  0
 27 31  1  0  0  0  0
 28 14  1  0  0  0  0
 29 10  2  0  0  0  0
 29 22  1  0  0  0  0
 31 16  2  0  0  0  0
 33 15  1  0  0  0  0
 33 37  1  0  0  0  0
 34  2  1  0  0  0  0
 34 13  1  0  0  0  0
 35 30  1  6  0  0  0
 35 18  1  0  0  0  0
 36  6  1  0  0  0  0
 36  7  1  1  0  0  0
 36 26  1  0  0  0  0
 39 38  3  0  0  0  0
 40  3  1  0  0  0  0
 41 40  1  6  0  0  0
 42 43  1  0  0  0  0
 42 44  1  0  0  0  0
 43 45  1  0  0  0  0
 44 41  1  0  0  0  0
 45 41  1  0  0  0  0
M  END
>  <MODEL>
1

>  <REMARK>
 VINA RESULT:      -7.0      0.000      0.000
  Name = 
  3 active torsions:
  status: ('A' for Active; 'I' for Inactive)
    1  A    between atoms: C_1  and  C_19
    2  A    between atoms: C_3  and  C_7
    3  A    between atoms: N_4  and  C_7
                            x       y       z     vdW  Elec       q    Type
                         _______ _______ _______ _____ _____    ______ ____

>  <TORSDO>
F 3

$$$$
=
 OpenBabel10232412433D

 45 51  0  0  1  0  0  0  0  0999 V2000
  183.6420  174.9940  136.4100 C   0  0  2  0  0  3  0  0  0  0  0  0
  181.8180  179.4150  143.3460 C   0  0  0  0  0  3  0  0  0  0  0  0
  187.6470  177.7960  135.9990 N   0  0  0  0  0  0  0  0  0  0  0  0
  183.8350  177.3990  138.0940 C   0  0  2  0  0  3  0  0  0  0  0  0
  180.4980  179.6970  142.9890 C   0  0  0  0  0  3  0  0  0  0  0  0
  187.1920  176.4550  136.3740 C   0  0  1  0  0  3  0  0  0  0  0  0
  185.1470  175.0290  136.6860 C   0  0  0  0  0  2  0  0  0  0  0  0
  182.7860  175.1370  137.6780 C   0  0  0  0  0  2  0  0  0  0  0  0
  186.9790  178.6050  143.0360 C   0  0  0  0  0  3  0  0  0  0  0  0
  179.9990  179.2610  141.7610 C   0  0  0  0  0  3  0  0  0  0  0  0
  180.2970  178.1340  139.6580 O   0  0  0  0  0  1  0  0  0  0  0  0
  188.1120  175.8300  137.8300 S   0  0  0  0  0  0  0  0  0  0  0  0
  184.0040  178.4020  142.8290 N   0  0  0  0  0  2  0  0  0  0  0  0
  188.6250  177.2450  144.1750 C   0  0  0  0  0  3  0  0  0  0  0  0
  189.2030  177.1050  141.0030 C   0  0  0  0  0  2  0  0  0  0  0  0
  186.4340  177.5680  145.1590 C   0  0  0  0  0  0  0  0  0  0  0  0
  190.1320  177.4020  138.7250 C   0  0  0  0  0  3  0  0  0  0  0  0
  188.7760  177.4810  138.1000 C   0  0  1  0  0  3  0  0  0  0  0  0
  182.5160  176.3570  139.7610 O   0  0  0  0  0  0  0  0  0  0  0  0
  183.0720  177.5180  140.3140 C   0  0  2  0  0  3  0  0  0  0  0  0
  189.2240  178.2750  141.9750 C   0  0  0  0  0  2  0  0  0  0  0  0
  182.1420  178.2400  141.2440 C   0  0  0  0  0  0  0  0  0  0  0  0
  183.3940  176.0830  138.7070 C   0  0  2  0  0  3  0  0  0  0  0  0
  185.5390  177.3180  146.1940 O   0  0  0  0  0  1  0  0  0  0  0  0
  187.7150  177.0090  145.2090 C   0  0  0  0  0  3  0  0  0  0  0  0
  185.3290  177.3210  137.8350 C   0  0  0  0  0  2  0  0  0  0  0  0
  184.6880  178.9520  143.9880 C   0  0  0  0  0  2  0  0  0  0  0  0
  188.2600  178.0430  143.0870 C   0  0  0  0  0  0  0  0  0  0  0  0
  180.8130  178.5400  140.8830 C   0  0  0  0  0  0  0  0  0  0  0  0
  189.0170  179.4710  136.8440 F   0  0  0  0  0  0  0  0  0  0  0  0
  186.0620  178.3710  144.0700 C   0  0  0  0  0  0  0  0  0  0  0  0
  183.5560  178.3940  139.1820 C   0  0  0  0  0  2  0  0  0  0  0  0
  190.3350  177.2240  140.0310 C   0  0  0  0  0  0  0  0  0  0  0  0
  182.6450  178.6890  142.4780 C   0  0  0  0  0  0  0  0  0  0  0  0
  188.8700  178.1000  136.7300 C   0  0  2  0  0  3  0  0  0  0  0  0
  185.6800  176.4640  136.6100 C   0  0  1  0  0  3  0  0  0  0  0  0
  191.6390  177.1460  140.5030 O   0  0  0  0  0  1  0  0  0  0  0  0
  183.2950  173.7460  135.7310 C   0  0  0  0  0  0  0  0  0  0  0  0
  183.0190  172.7580  135.1950 N   0  0  0  0  0  0  0  0  0  0  0  0
  187.9920  177.7470  134.5870 C   0  0  0  0  0  2  0  0  0  0  0  0
  189.0410  176.6740  134.3460 C   0  0  2  0  0  3  0  0  0  0  0  0
  190.0500  174.9790  135.3770 C   0  0  0  0  0  2  0  0  0  0  0  0
  191.0870  176.0770  135.3820 C   0  0  0  0  0  2  0  0  0  0  0  0
  188.7930  175.5600  135.1620 O   0  0  0  0  0  0  0  0  0  0  0  0
  190.4090  177.2160  134.6800 C   0  0  0  0  0  2  0  0  0  0  0  0
  1 38  1  1  0  0  0
  1  7  1  0  0  0  0
  1  8  1  0  0  0  0
  3  6  1  0  0  0  0
  3 35  1  0  0  0  0
  4 26  1  1  0  0  0
  4 23  1  0  0  0  0
  4 32  1  0  0  0  0
  5  2  1  0  0  0  0
  6 36  1  0  0  0  0
  6 12  1  1  0  0  0
  9 28  2  0  0  0  0
  9 31  1  0  0  0  0
 10  5  2  0  0  0  0
 11 29  1  0  0  0  0
 12 18  1  0  0  0  0
 13 27  1  0  0  0  0
 14 25  2  0  0  0  0
 15 21  1  0  0  0  0
 16 25  1  0  0  0  0
 16 24  1  0  0  0  0
 17 33  2  0  0  0  0
 18 17  1  6  0  0  0
 19 20  1  0  0  0  0
 20 32  1  6  0  0  0
 20 22  1  0  0  0  0
 21 28  1  0  0  0  0
 22 34  1  0  0  0  0
 23  8  1  6  0  0  0
 23 19  1  0  0  0  0
 27 31  1  0  0  0  0
 28 14  1  0  0  0  0
 29 22  2  0  0  0  0
 29 10  1  0  0  0  0
 31 16  2  0  0  0  0
 33 37  1  0  0  0  0
 33 15  1  0  0  0  0
 34 13  1  0  0  0  0
 34  2  2  0  0  0  0
 35 30  1  1  0  0  0
 35 18  1  0  0  0  0
 36  7  1  1  0  0  0
 36 26  1  0  0  0  0
 39 38  3  0  0  0  0
 40  3  1  0  0  0  0
 41 40  1  1  0  0  0
 41 45  1  0  0  0  0
 41 44  1  0  0  0  0
 42 43  1  0  0  0  0
 44 42  1  0  0  0  0
 45 43  1  0  0  0  0
M  END
>  <MODEL>
2

>  <REMARK>
 VINA RESULT:      -5.7      1.905      2.575
  Name = 
  3 active torsions:
  status: ('A' for Active; 'I' for Inactive)
    1  A    between atoms: C_1  and  C_19
    2  A    between atoms: C_3  and  C_7
    3  A    between atoms: N_4  and  C_7
                            x       y       z     vdW  Elec       q    Type
                         _______ _______ _______ _____ _____    ______ ____

>  <TORSDO>
F 3

$$$$
=
 OpenBabel10232412433D

 45 51  0  0  1  0  0  0  0  0999 V2000
  185.1640  178.9260  140.7850 C   0  0  2  0  0  3  0  0  0  0  0  0
  189.5860  175.6090  134.4260 C   0  0  0  0  0  3  0  0  0  0  0  0
  181.1610  178.1340  138.0630 N   0  0  0  0  0  0  0  0  0  0  0  0
  185.5270  178.2190  137.9520 C   0  0  2  0  0  3  0  0  0  0  0  0
  190.5200  176.6450  134.3500 C   0  0  0  0  0  3  0  0  0  0  0  0
  181.8990  177.6390  139.2270 C   0  0  1  0  0  3  0  0  0  0  0  0
  183.9930  177.9630  140.5790 C   0  0  0  0  0  2  0  0  0  0  0  0
  186.5050  178.3720  140.2770 C   0  0  0  0  0  2  0  0  0  0  0  0
  185.0690  173.0310  135.0120 C   0  0  0  0  0  3  0  0  0  0  0  0
  190.4050  177.7510  135.1930 C   0  0  0  0  0  3  0  0  0  0  0  0
  189.2590  178.9500  136.9340 O   0  0  0  0  0  1  0  0  0  0  0  0
  181.8890  175.8080  139.2850 S   0  0  0  0  0  0  0  0  0  0  0  0
  187.5660  174.6200  135.4330 N   0  0  0  0  0  2  0  0  0  0  0  0
  184.3660  170.8640  135.8280 C   0  0  0  0  0  3  0  0  0  0  0  0
  182.3370  173.0960  136.9760 C   0  0  0  0  0  2  0  0  0  0  0  0
  186.7010  171.2630  135.3170 C   0  0  0  0  0  0  0  0  0  0  0  0
  180.3880  174.5670  137.3990 C   0  0  0  0  0  3  0  0  0  0  0  0
  181.2460  175.7730  137.6040 C   0  0  1  0  0  3  0  0  0  0  0  0
  187.6060  177.2040  138.4540 O   0  0  0  0  0  0  0  0  0  0  0  0
  187.2530  176.8420  137.1480 C   0  0  2  0  0  3  0  0  0  0  0  0
  182.6510  172.6650  135.5520 C   0  0  0  0  0  2  0  0  0  0  0  0
  188.4240  176.7800  136.2100 C   0  0  0  0  0  0  0  0  0  0  0  0
  186.3660  177.5330  139.0130 C   0  0  2  0  0  3  0  0  0  0  0  0
  188.0090  170.7950  135.2590 O   0  0  0  0  0  1  0  0  0  0  0  0
  185.6850  170.4090  135.7580 C   0  0  0  0  0  3  0  0  0  0  0  0
  184.1180  177.6580  138.0290 C   0  0  0  0  0  2  0  0  0  0  0  0
  187.4720  173.5140  134.4950 C   0  0  0  0  0  2  0  0  0  0  0  0
  184.0550  172.1750  135.4550 C   0  0  0  0  0  0  0  0  0  0  0  0
  189.3600  177.8290  136.1190 C   0  0  0  0  0  0  0  0  0  0  0  0
  180.1850  177.2900  136.1310 F   0  0  0  0  0  0  0  0  0  0  0  0
  186.3950  172.5800  134.9400 C   0  0  0  0  0  0  0  0  0  0  0  0
  186.1770  177.7890  136.6690 C   0  0  0  0  0  2  0  0  0  0  0  0
  180.8700  173.3540  137.1240 C   0  0  0  0  0  0  0  0  0  0  0  0
  188.5350  175.6710  135.3520 C   0  0  0  0  0  0  0  0  0  0  0  0
  180.4230  177.0270  137.4690 C   0  0  2  0  0  3  0  0  0  0  0  0
  183.3210  178.2060  139.2220 C   0  0  1  0  0  3  0  0  0  0  0  0
  179.9820  172.2970  136.9710 O   0  0  0  0  0  1  0  0  0  0  0  0
  185.2850  179.2590  142.2040 C   0  0  0  0  0  0  0  0  0  0  0  0
  185.3790  179.5220  143.3270 N   0  0  0  0  0  0  0  0  0  0  0  0
  180.1800  179.0880  138.5570 C   0  0  0  0  0  2  0  0  0  0  0  0
  180.6780  180.5060  138.3350 C   0  0  2  0  0  3  0  0  0  0  0  0
  179.9970  182.6200  138.4700 C   0  0  0  0  0  2  0  0  0  0  0  0
  179.9830  182.3290  136.9890 C   0  0  0  0  0  2  0  0  0  0  0  0
  179.9820  181.4010  139.1610 O   0  0  0  0  0  0  0  0  0  0  0  0
  180.4500  180.9070  136.8980 C   0  0  0  0  0  2  0  0  0  0  0  0
  1 38  1  1  0  0  0
  2 34  1  0  0  0  0
  3 40  1  0  0  0  0
  3  6  1  0  0  0  0
  4 32  1  6  0  0  0
  4 26  1  0  0  0  0
  4 23  1  0  0  0  0
  5  2  2  0  0  0  0
  5 10  1  0  0  0  0
  6 12  1  6  0  0  0
  7  1  1  0  0  0  0
  8  1  1  0  0  0  0
  9 28  1  0  0  0  0
 10 29  2  0  0  0  0
 15 33  1  0  0  0  0
 16 25  2  0  0  0  0
 18 17  1  1  0  0  0
 18 12  1  0  0  0  0
 19 23  1  0  0  0  0
 20 32  1  6  0  0  0
 20 19  1  0  0  0  0
 21 15  1  0  0  0  0
 22 20  1  0  0  0  0
 23  8  1  1  0  0  0
 24 16  1  0  0  0  0
 25 14  1  0  0  0  0
 27 31  1  0  0  0  0
 27 13  1  0  0  0  0
 28 21  1  0  0  0  0
 28 14  2  0  0  0  0
 29 22  1  0  0  0  0
 29 11  1  0  0  0  0
 31  9  2  0  0  0  0
 31 16  1  0  0  0  0
 33 17  2  0  0  0  0
 34 13  1  0  0  0  0
 34 22  2  0  0  0  0
 35 30  1  6  0  0  0
 35 18  1  0  0  0  0
 35  3  1  0  0  0  0
 36 26  1  6  0  0  0
 36  6  1  0  0  0  0
 36  7  1  0  0  0  0
 37 33  1  0  0  0  0
 38 39  3  0  0  0  0
 41 40  1  6  0  0  0
 41 44  1  0  0  0  0
 42 44  1  0  0  0  0
 43 42  1  0  0  0  0
 45 43  1  0  0  0  0
 45 41  1  0  0  0  0
M  END
>  <MODEL>
3

>  <REMARK>
 VINA RESULT:      -5.4      3.238      9.774
  Name = 
  3 active torsions:
  status: ('A' for Active; 'I' for Inactive)
    1  A    between atoms: C_1  and  C_19
    2  A    between atoms: C_3  and  C_7
    3  A    between atoms: N_4  and  C_7
                            x       y       z     vdW  Elec       q    Type
                         _______ _______ _______ _____ _____    ______ ____

>  <TORSDO>
F 3

$$$$
=
 OpenBabel10232412433D

 45 51  0  0  1  0  0  0  0  0999 V2000
  185.2600  179.1780  141.7230 C   0  0  2  0  0  3  0  0  0  0  0  0
  190.4080  175.3040  136.2940 C   0  0  0  0  0  3  0  0  0  0  0  0
  182.1240  179.6720  137.9850 N   0  0  0  0  0  0  0  0  0  0  0  0
  186.2370  178.6160  139.0060 C   0  0  2  0  0  3  0  0  0  0  0  0
  191.5390  176.0610  136.6090 C   0  0  0  0  0  3  0  0  0  0  0  0
  182.3650  178.9150  139.2160 C   0  0  1  0  0  3  0  0  0  0  0  0
  184.0060  178.5740  141.0890 C   0  0  0  0  0  2  0  0  0  0  0  0
  186.5240  178.3310  141.5010 C   0  0  0  0  0  2  0  0  0  0  0  0
  185.4420  173.9660  135.3290 C   0  0  0  0  0  3  0  0  0  0  0  0
  191.4500  177.0910  137.5460 C   0  0  0  0  0  3  0  0  0  0  0  0
  190.1680  178.4150  139.0910 O   0  0  0  0  0  1  0  0  0  0  0  0
  181.9150  177.1510  139.0040 S   0  0  0  0  0  0  0  0  0  0  0  0
  188.0140  174.8070  136.5980 N   0  0  0  0  0  2  0  0  0  0  0  0
  184.0530  172.0050  135.6170 C   0  0  0  0  0  3  0  0  0  0  0  0
  182.3570  174.5990  136.5190 C   0  0  0  0  0  2  0  0  0  0  0  0
  186.4630  171.8140  135.7820 C   0  0  0  0  0  0  0  0  0  0  0  0
  180.7650  176.4940  136.6380 C   0  0  0  0  0  3  0  0  0  0  0  0
  181.7850  177.4140  137.2280 C   0  0  1  0  0  3  0  0  0  0  0  0
  187.7940  177.0550  139.8700 O   0  0  0  0  0  0  0  0  0  0  0  0
  187.7520  176.8980  138.4790 C   0  0  2  0  0  3  0  0  0  0  0  0
  182.9530  174.2090  135.1750 C   0  0  0  0  0  2  0  0  0  0  0  0
  189.0930  176.6010  137.8720 C   0  0  0  0  0  0  0  0  0  0  0  0
  186.5580  177.6550  140.1350 C   0  0  2  0  0  3  0  0  0  0  0  0
  187.5890  171.0250  135.9920 O   0  0  0  0  0  1  0  0  0  0  0  0
  185.1950  171.2260  135.8210 C   0  0  0  0  0  3  0  0  0  0  0  0
  184.7740  178.4400  138.6390 C   0  0  0  0  0  2  0  0  0  0  0  0
  187.9360  173.8380  135.5170 C   0  0  0  0  0  2  0  0  0  0  0  0
  184.1730  173.3760  135.3700 C   0  0  0  0  0  0  0  0  0  0  0  0
  190.2340  177.3710  138.1750 C   0  0  0  0  0  0  0  0  0  0  0  0
  181.5670  179.2620  135.7680 F   0  0  0  0  0  0  0  0  0  0  0  0
  186.5910  173.1890  135.5330 C   0  0  0  0  0  0  0  0  0  0  0  0
  187.1060  178.1280  137.8830 C   0  0  0  0  0  2  0  0  0  0  0  0
  181.0110  175.2210  136.3230 C   0  0  0  0  0  0  0  0  0  0  0  0
  189.1830  175.5700  136.9200 C   0  0  0  0  0  0  0  0  0  0  0  0
  181.3480  178.8460  137.0690 C   0  0  2  0  0  3  0  0  0  0  0  0
  183.8220  179.0870  139.6560 C   0  0  1  0  0  3  0  0  0  0  0  0
  179.9820  174.4500  135.7980 O   0  0  0  0  0  1  0  0  0  0  0  0
  185.0480  179.3600  143.1590 C   0  0  0  0  0  0  0  0  0  0  0  0
  184.8810  179.5040  144.2950 N   0  0  0  0  0  0  0  0  0  0  0  0
  181.2920  180.8100  138.3450 C   0  0  0  0  0  2  0  0  0  0  0  0
  181.5470  181.9630  137.3890 C   0  0  2  0  0  3  0  0  0  0  0  0
  181.4730  184.1850  137.2980 C   0  0  0  0  0  2  0  0  0  0  0  0
  180.2410  183.7490  136.5400 C   0  0  0  0  0  2  0  0  0  0  0  0
  181.8970  183.1190  138.1010 O   0  0  0  0  0  0  0  0  0  0  0  0
  180.2960  182.2520  136.5950 C   0  0  0  0  0  2  0  0  0  0  0  0
  1 38  1  1  0  0  0
  2  5  2  0  0  0  0
  2 34  1  0  0  0  0
  3 40  1  0  0  0  0
  3  6  1  0  0  0  0
  4 32  1  6  0  0  0
  4 23  1  0  0  0  0
  5 10  1  0  0  0  0
  6 12  1  6  0  0  0
  6 36  1  0  0  0  0
  7  1  1  0  0  0  0
  8  1  1  0  0  0  0
  9 28  2  0  0  0  0
  9 31  1  0  0  0  0
 10 29  2  0  0  0  0
 13 34  1  0  0  0  0
 14 25  2  0  0  0  0
 16 25  1  0  0  0  0
 16 24  1  0  0  0  0
 18 17  1  1  0  0  0
 18 12  1  0  0  0  0
 19 23  1  0  0  0  0
 20 32  1  6  0  0  0
 20 19  1  0  0  0  0
 21 28  1  0  0  0  0
 21 15  1  0  0  0  0
 22 29  1  0  0  0  0
 22 20  1  0  0  0  0
 23  8  1  1  0  0  0
 26  4  1  0  0  0  0
 27 31  1  0  0  0  0
 27 13  1  0  0  0  0
 28 14  1  0  0  0  0
 29 11  1  0  0  0  0
 31 16  2  0  0  0  0
 33 15  1  0  0  0  0
 33 17  2  0  0  0  0
 34 22  2  0  0  0  0
 35 30  1  6  0  0  0
 35 18  1  0  0  0  0
 35  3  1  0  0  0  0
 36 26  1  6  0  0  0
 36  7  1  0  0  0  0
 37 33  1  0  0  0  0
 38 39  3  0  0  0  0
 41 44  1  0  0  0  0
 41 40  1  1  0  0  0
 42 44  1  0  0  0  0
 43 45  1  0  0  0  0
 43 42  1  0  0  0  0
 45 41  1  0  0  0  0
M  END
>  <MODEL>
4

>  <REMARK>
 VINA RESULT:      -5.1      3.232      9.671
  Name = 
  3 active torsions:
  status: ('A' for Active; 'I' for Inactive)
    1  A    between atoms: C_1  and  C_19
    2  A    between atoms: C_3  and  C_7
    3  A    between atoms: N_4  and  C_7
                            x       y       z     vdW  Elec       q    Type
                         _______ _______ _______ _____ _____    ______ ____

>  <TORSDO>
F 3

$$$$
=
 OpenBabel10232412433D

 45 51  0  0  1  0  0  0  0  0999 V2000
  185.9070  178.5460  143.1040 C   0  0  2  0  0  3  0  0  0  0  0  0
  191.6320  175.7100  137.6110 C   0  0  0  0  0  3  0  0  0  0  0  0
  183.1100  179.6290  139.2230 N   0  0  0  0  0  0  0  0  0  0  0  0
  187.1410  178.4640  140.4350 C   0  0  2  0  0  3  0  0  0  0  0  0
  192.7080  176.4160  138.1540 C   0  0  0  0  0  3  0  0  0  0  0  0
  183.2600  178.6770  140.3260 C   0  0  1  0  0  3  0  0  0  0  0  0
  184.7320  178.0430  142.2610 C   0  0  0  0  0  2  0  0  0  0  0  0
  187.2080  177.7640  142.8620 C   0  0  0  0  0  2  0  0  0  0  0  0
  186.8130  174.4960  135.9720 C   0  0  0  0  0  3  0  0  0  0  0  0
  192.5060  177.2720  139.2380 C   0  0  0  0  0  3  0  0  0  0  0  0
  191.0530  178.2990  140.8550 O   0  0  0  0  0  1  0  0  0  0  0  0
  182.8800  176.9690  139.7800 S   0  0  0  0  0  0  0  0  0  0  0  0
  189.2350  175.1400  137.6010 N   0  0  0  0  0  2  0  0  0  0  0  0
  185.4590  172.4980  135.7950 C   0  0  0  0  0  3  0  0  0  0  0  0
  183.6170  174.8810  136.9550 C   0  0  0  0  0  2  0  0  0  0  0  0
  187.8480  172.3110  136.1510 C   0  0  0  0  0  0  0  0  0  0  0  0
  181.9680  176.7090  137.2390 C   0  0  0  0  0  3  0  0  0  0  0  0
  182.9050  177.5270  138.0690 C   0  0  1  0  0  3  0  0  0  0  0  0
  188.6560  176.7990  141.1670 O   0  0  0  0  0  0  0  0  0  0  0  0
  188.7450  176.8790  139.7720 C   0  0  2  0  0  3  0  0  0  0  0  0
  184.3430  174.7320  135.6270 C   0  0  0  0  0  2  0  0  0  0  0  0
  190.1440  176.7060  139.2530 C   0  0  0  0  0  0  0  0  0  0  0  0
  187.3850  177.3300  141.4120 C   0  0  2  0  0  3  0  0  0  0  0  0
  188.9720  171.5110  136.3320 O   0  0  0  0  0  1  0  0  0  0  0  0
  186.5980  171.7090  135.9720 C   0  0  0  0  0  3  0  0  0  0  0  0
  185.7240  178.3360  139.9080 C   0  0  0  0  0  2  0  0  0  0  0  0
  189.2820  174.3680  136.3700 C   0  0  0  0  0  2  0  0  0  0  0  0
  185.5630  173.8930  135.7930 C   0  0  0  0  0  0  0  0  0  0  0  0
  191.2300  177.4260  139.7870 C   0  0  0  0  0  0  0  0  0  0  0  0
  182.7690  179.5940  136.9250 F   0  0  0  0  0  0  0  0  0  0  0  0
  187.9600  173.7100  136.1500 C   0  0  0  0  0  0  0  0  0  0  0  0
  188.1220  178.1840  139.3330 C   0  0  0  0  0  2  0  0  0  0  0  0
  182.2770  175.5110  136.7400 C   0  0  0  0  0  0  0  0  0  0  0  0
  190.3480  175.8520  138.1540 C   0  0  0  0  0  0  0  0  0  0  0  0
  182.4440  178.9610  138.1120 C   0  0  2  0  0  3  0  0  0  0  0  0
  184.6650  178.7890  140.9240 C   0  0  1  0  0  3  0  0  0  0  0  0
  181.3220  174.8270  135.9980 O   0  0  0  0  0  1  0  0  0  0  0  0
  185.5600  178.4790  144.5230 C   0  0  0  0  0  0  0  0  0  0  0  0
  185.2860  178.4270  145.6470 N   0  0  0  0  0  0  0  0  0  0  0  0
  182.2180  180.6790  139.6890 C   0  0  0  0  0  2  0  0  0  0  0  0
  181.5900  181.3910  138.5020 C   0  0  2  0  0  3  0  0  0  0  0  0
  181.3310  183.4290  137.6460 C   0  0  0  0  0  2  0  0  0  0  0  0
  179.9820  183.1130  138.2470 C   0  0  0  0  0  2  0  0  0  0  0  0
  182.2830  182.5790  138.2260 O   0  0  0  0  0  0  0  0  0  0  0  0
  180.1550  181.7370  138.8160 C   0  0  0  0  0  2  0  0  0  0  0  0
  1 38  1  1  0  0  0
  2 34  2  0  0  0  0
  2  5  1  0  0  0  0
  3 40  1  0  0  0  0
  3  6  1  0  0  0  0
  4 32  1  6  0  0  0
  4 23  1  0  0  0  0
  5 10  2  0  0  0  0
  6 12  1  6  0  0  0
  6 36  1  0  0  0  0
  7  1  1  0  0  0  0
  8  1  1  0  0  0  0
  9 31  1  0  0  0  0
 10 29  1  0  0  0  0
 13 34  1  0  0  0  0
 14 25  2  0  0  0  0
 16 24  1  0  0  0  0
 18 17  1  6  0  0  0
 18 35  1  0  0  0  0
 18 12  1  0  0  0  0
 19 23  1  0  0  0  0
 20 32  1  1  0  0  0
 20 19  1  0  0  0  0
 21 28  1  0  0  0  0
 21 15  1  0  0  0  0
 22 20  1  0  0  0  0
 22 29  2  0  0  0  0
 23  8  1  1  0  0  0
 25 16  1  0  0  0  0
 26  4  1  0  0  0  0
 27 13  1  0  0  0  0
 28 14  1  0  0  0  0
 28  9  2  0  0  0  0
 29 11  1  0  0  0  0
 31 16  2  0  0  0  0
 31 27  1  0  0  0  0
 33 15  1  0  0  0  0
 33 17  2  0  0  0  0
 34 22  1  0  0  0  0
 35 30  1  6  0  0  0
 35  3  1  0  0  0  0
 36 26  1  6  0  0  0
 36  7  1  0  0  0  0
 37 33  1  0  0  0  0
 38 39  3  0  0  0  0
 41 45  1  0  0  0  0
 41 40  1  1  0  0  0
 42 44  1  0  0  0  0
 42 43  1  0  0  0  0
 43 45  1  0  0  0  0
 44 41  1  0  0  0  0
M  END
>  <MODEL>
5

>  <REMARK>
 VINA RESULT:      -4.7      2.855      9.634
  Name = 
  3 active torsions:
  status: ('A' for Active; 'I' for Inactive)
    1  A    between atoms: C_1  and  C_19
    2  A    between atoms: C_3  and  C_7
    3  A    between atoms: N_4  and  C_7
                            x       y       z     vdW  Elec       q    Type
                         _______ _______ _______ _____ _____    ______ ____

>  <TORSDO>
F 3

$$$$
=
 OpenBabel10232412433D

 45 51  0  0  1  0  0  0  0  0999 V2000
  181.4040  177.3090  135.8740 C   0  0  2  0  0  3  0  0  0  0  0  0
  185.5690  169.9930  135.5300 C   0  0  0  0  0  3  0  0  0  0  0  0
  183.8230  178.1850  140.0490 N   0  0  0  0  0  0  0  0  0  0  0  0
  182.8770  175.0870  137.1180 C   0  0  2  0  0  3  0  0  0  0  0  0
  184.4410  169.2000  135.3080 C   0  0  0  0  0  3  0  0  0  0  0  0
  183.7610  178.5580  138.6340 C   0  0  1  0  0  3  0  0  0  0  0  0
  182.6020  178.0560  136.4610 C   0  0  0  0  0  2  0  0  0  0  0  0
  181.7990  176.0700  135.0540 C   0  0  0  0  0  2  0  0  0  0  0  0
  188.7040  173.7630  137.3580 C   0  0  0  0  0  3  0  0  0  0  0  0
  183.1730  169.7840  135.2700 C   0  0  0  0  0  3  0  0  0  0  0  0
  181.7500  171.7160  135.4260 O   0  0  0  0  0  1  0  0  0  0  0  0
  185.4410  178.7730  137.9340 S   0  0  0  0  0  0  0  0  0  0  0  0
  186.5840  172.1990  135.9460 N   0  0  0  0  0  2  0  0  0  0  0  0
  190.5990  175.0320  136.5480 C   0  0  0  0  0  3  0  0  0  0  0  0
  188.5890  177.0520  138.0620 C   0  0  0  0  0  2  0  0  0  0  0  0
  189.9080  173.0180  135.3900 C   0  0  0  0  0  0  0  0  0  0  0  0
  187.4960  178.5660  139.6910 C   0  0  0  0  0  3  0  0  0  0  0  0
  186.1360  178.0120  139.4100 C   0  0  1  0  0  3  0  0  0  0  0  0
  183.2290  174.1070  134.9920 O   0  0  0  0  0  0  0  0  0  0  0  0
  184.0500  173.4450  135.9140 C   0  0  2  0  0  3  0  0  0  0  0  0
  189.3720  175.8520  138.5690 C   0  0  0  0  0  2  0  0  0  0  0  0
  184.1610  171.9690  135.6600 C   0  0  0  0  0  0  0  0  0  0  0  0
  183.0050  175.3340  135.6270 C   0  0  2  0  0  3  0  0  0  0  0  0
  190.0900  172.1170  134.3460 O   0  0  0  0  0  1  0  0  0  0  0  0
  190.7700  174.1130  135.5080 C   0  0  0  0  0  3  0  0  0  0  0  0
  183.6630  176.1650  137.8430 C   0  0  0  0  0  2  0  0  0  0  0  0
  187.9240  171.6900  136.1870 C   0  0  0  0  0  2  0  0  0  0  0  0
  189.5670  174.8590  137.4750 C   0  0  0  0  0  0  0  0  0  0  0  0
  183.0250  171.1620  135.4500 C   0  0  0  0  0  0  0  0  0  0  0  0
  185.4160  177.5470  141.6140 F   0  0  0  0  0  0  0  0  0  0  0  0
  188.8710  172.8380  136.3180 C   0  0  0  0  0  0  0  0  0  0  0  0
  183.5460  173.7570  137.3040 C   0  0  0  0  0  2  0  0  0  0  0  0
  188.6060  178.1460  139.0820 C   0  0  0  0  0  0  0  0  0  0  0  0
  185.4360  171.3770  135.7080 C   0  0  0  0  0  0  0  0  0  0  0  0
  185.1880  178.3680  140.5250 C   0  0  2  0  0  3  0  0  0  0  0  0
  182.9440  177.5220  137.8570 C   0  0  1  0  0  3  0  0  0  0  0  0
  189.8170  178.7450  139.4070 O   0  0  0  0  0  1  0  0  0  0  0  0
  180.6220  178.2150  135.0320 C   0  0  0  0  0  0  0  0  0  0  0  0
  180.0040  178.9300  134.3650 N   0  0  0  0  0  0  0  0  0  0  0  0
  182.9860  179.1300  140.7730 C   0  0  0  0  0  2  0  0  0  0  0  0
  182.0750  178.3850  141.7340 C   0  0  2  0  0  3  0  0  0  0  0  0
  180.0630  178.5310  142.6740 C   0  0  0  0  0  2  0  0  0  0  0  0
  181.0110  178.9230  143.7820 C   0  0  0  0  0  2  0  0  0  0  0  0
  180.7310  178.6720  141.4510 O   0  0  0  0  0  0  0  0  0  0  0  0
  182.3670  178.8160  143.1500 C   0  0  0  0  0  2  0  0  0  0  0  0
  1 38  1  6  0  0  0
  1  7  1  0  0  0  0
  2 34  1  0  0  0  0
  3 35  1  0  0  0  0
  3 40  1  0  0  0  0
  4 32  1  6  0  0  0
  4 26  1  0  0  0  0
  5  2  2  0  0  0  0
  6 12  1  6  0  0  0
  6  3  1  0  0  0  0
  8  1  1  0  0  0  0
  9 28  1  0  0  0  0
 10  5  1  0  0  0  0
 10 29  2  0  0  0  0
 11 29  1  0  0  0  0
 12 18  1  0  0  0  0
 13 27  1  0  0  0  0
 14 28  2  0  0  0  0
 15 21  1  0  0  0  0
 15 33  1  0  0  0  0
 16 25  2  0  0  0  0
 16 31  1  0  0  0  0
 18 17  1  1  0  0  0
 18 35  1  0  0  0  0
 19 23  1  0  0  0  0
 19 20  1  0  0  0  0
 20 32  1  1  0  0  0
 22 34  2  0  0  0  0
 22 20  1  0  0  0  0
 23  8  1  6  0  0  0
 23  4  1  0  0  0  0
 24 16  1  0  0  0  0
 25 14  1  0  0  0  0
 26 36  1  0  0  0  0
 27 31  1  0  0  0  0
 28 21  1  0  0  0  0
 29 22  1  0  0  0  0
 31  9  2  0  0  0  0
 33 37  1  0  0  0  0
 33 17  2  0  0  0  0
 34 13  1  0  0  0  0
 35 30  1  1  0  0  0
 36  7  1  6  0  0  0
 36  6  1  0  0  0  0
 39 38  3  0  0  0  0
 41 40  1  6  0  0  0
 41 45  1  0  0  0  0
 42 43  1  0  0  0  0
 44 41  1  0  0  0  0
 44 42  1  0  0  0  0
 45 43  1  0  0  0  0
M  END
>  <MODEL>
6

>  <REMARK>
 VINA RESULT:      -4.3      2.782      8.278
  Name = 
  3 active torsions:
  status: ('A' for Active; 'I' for Inactive)
    1  A    between atoms: C_1  and  C_19
    2  A    between atoms: C_3  and  C_7
    3  A    between atoms: N_4  and  C_7
                            x       y       z     vdW  Elec       q    Type
                         _______ _______ _______ _____ _____    ______ ____

>  <TORSDO>
F 3

$$$$
=
 OpenBabel10232412433D

 45 51  0  0  1  0  0  0  0  0999 V2000
  190.8350  177.2180  139.7500 C   0  0  2  0  0  3  0  0  0  0  0  0
  195.5880  172.5940  134.5530 C   0  0  0  0  0  3  0  0  0  0  0  0
  187.2930  176.8900  136.3730 N   0  0  0  0  0  0  0  0  0  0  0  0
  191.5470  176.1960  137.0840 C   0  0  2  0  0  3  0  0  0  0  0  0
  196.7000  173.4380  134.5920 C   0  0  0  0  0  3  0  0  0  0  0  0
  187.7090  176.3850  137.6840 C   0  0  1  0  0  3  0  0  0  0  0  0
  189.5570  176.4610  139.3850 C   0  0  0  0  0  2  0  0  0  0  0  0
  192.1150  176.3930  139.5390 C   0  0  0  0  0  2  0  0  0  0  0  0
  190.6330  170.9160  134.4280 C   0  0  0  0  0  3  0  0  0  0  0  0
  196.6530  174.6210  135.3310 C   0  0  0  0  0  3  0  0  0  0  0  0
  195.4700  176.1610  136.7480 O   0  0  0  0  0  1  0  0  0  0  0  0
  187.3410  174.5980  137.8490 S   0  0  0  0  0  0  0  0  0  0  0  0
  193.2730  172.0740  135.2170 N   0  0  0  0  0  2  0  0  0  0  0  0
  189.3990  168.9930  135.2250 C   0  0  0  0  0  3  0  0  0  0  0  0
  187.6620  171.6450  135.8320 C   0  0  0  0  0  2  0  0  0  0  0  0
  191.8200  168.9260  135.1410 C   0  0  0  0  0  0  0  0  0  0  0  0
  185.9850  173.4680  135.7900 C   0  0  0  0  0  3  0  0  0  0  0  0
  187.0070  174.5190  136.0810 C   0  0  1  0  0  3  0  0  0  0  0  0
  193.2750  174.8830  138.0300 O   0  0  0  0  0  0  0  0  0  0  0  0
  193.0940  174.4680  136.7050 C   0  0  2  0  0  3  0  0  0  0  0  0
  188.1320  171.0340  134.5220 C   0  0  0  0  0  2  0  0  0  0  0  0
  194.3770  174.1130  136.0110 C   0  0  0  0  0  0  0  0  0  0  0  0
  192.0410  175.4760  138.3240 C   0  0  2  0  0  3  0  0  0  0  0  0
  193.0050  168.2320  135.3600 O   0  0  0  0  0  1  0  0  0  0  0  0
  190.5990  168.3080  135.4330 C   0  0  0  0  0  3  0  0  0  0  0  0
  190.0660  175.9010  136.9280 C   0  0  0  0  0  2  0  0  0  0  0  0
  193.1360  170.9180  134.3460 C   0  0  0  0  0  2  0  0  0  0  0  0
  189.4130  170.2970  134.7210 C   0  0  0  0  0  0  0  0  0  0  0  0
  195.4970  174.9680  136.0360 C   0  0  0  0  0  0  0  0  0  0  0  0
  186.5280  176.0530  134.3460 F   0  0  0  0  0  0  0  0  0  0  0  0
  191.8400  170.2340  134.6350 C   0  0  0  0  0  0  0  0  0  0  0  0
  192.3170  175.5400  135.9760 C   0  0  0  0  0  2  0  0  0  0  0  0
  186.2680  172.1690  135.6850 C   0  0  0  0  0  0  0  0  0  0  0  0
  194.4240  172.9260  135.2580 C   0  0  0  0  0  0  0  0  0  0  0  0
  186.4730  175.8800  135.7180 C   0  0  2  0  0  3  0  0  0  0  0  0
  189.1920  176.6900  137.9140 C   0  0  1  0  0  3  0  0  0  0  0  0
  185.2360  171.2750  135.4300 O   0  0  0  0  0  1  0  0  0  0  0  0
  190.7680  177.6570  141.1440 C   0  0  0  0  0  0  0  0  0  0  0  0
  190.7140  178.0020  142.2470 N   0  0  0  0  0  0  0  0  0  0  0  0
  186.4410  178.0440  136.6150 C   0  0  0  0  0  2  0  0  0  0  0  0
  185.3980  177.7070  137.6680 C   0  0  2  0  0  3  0  0  0  0  0  0
  183.2230  177.9270  138.0820 C   0  0  0  0  0  2  0  0  0  0  0  0
  183.8680  178.9670  138.9670 C   0  0  0  0  0  2  0  0  0  0  0  0
  184.1330  177.5770  137.0760 O   0  0  0  0  0  0  0  0  0  0  0  0
  185.3340  178.8120  138.6930 C   0  0  0  0  0  2  0  0  0  0  0  0
  1 38  1  1  0  0  0
  2  5  2  0  0  0  0
  2 34  1  0  0  0  0
  3 40  1  0  0  0  0
  3  6  1  0  0  0  0
  4 32  1  6  0  0  0
  4 23  1  0  0  0  0
  5 10  1  0  0  0  0
  6 12  1  6  0  0  0
  6 36  1  0  0  0  0
  7  1  1  0  0  0  0
  8  1  1  0  0  0  0
  9 31  2  0  0  0  0
  9 28  1  0  0  0  0
 10 29  2  0  0  0  0
 13 34  1  0  0  0  0
 14 25  1  0  0  0  0
 16 24  1  0  0  0  0
 16 25  2  0  0  0  0
 18 17  1  1  0  0  0
 18 12  1  0  0  0  0
 19 23  1  0  0  0  0
 20 32  1  6  0  0  0
 20 19  1  0  0  0  0
 21 28  1  0  0  0  0
 21 15  1  0  0  0  0
 22 29  1  0  0  0  0
 22 20  1  0  0  0  0
 23  8  1  1  0  0  0
 26  4  1  0  0  0  0
 27 31  1  0  0  0  0
 27 13  1  0  0  0  0
 28 14  2  0  0  0  0
 29 11  1  0  0  0  0
 31 16  1  0  0  0  0
 33 17  2  0  0  0  0
 33 15  1  0  0  0  0
 34 22  2  0  0  0  0
 35 30  1  6  0  0  0
 35 18  1  0  0  0  0
 35  3  1  0  0  0  0
 36 26  1  6  0  0  0
 36  7  1  0  0  0  0
 37 33  1  0  0  0  0
 38 39  3  0  0  0  0
 41 40  1  6  0  0  0
 41 45  1  0  0  0  0
 42 43  1  0  0  0  0
 44 41  1  0  0  0  0
 44 42  1  0  0  0  0
 45 43  1  0  0  0  0
M  END
>  <MODEL>
7

>  <REMARK>
 VINA RESULT:      -4.1      3.269     10.570
  Name = 
  3 active torsions:
  status: ('A' for Active; 'I' for Inactive)
    1  A    between atoms: C_1  and  C_19
    2  A    between atoms: C_3  and  C_7
    3  A    between atoms: N_4  and  C_7
                            x       y       z     vdW  Elec       q    Type
                         _______ _______ _______ _____ _____    ______ ____

>  <TORSDO>
F 3

$$$$
