=
 OpenBabel10232409063D

 28 31  0  0  0  0  0  0  0  0999 V2000
  190.0400  176.7140  139.2810 N   0  0  0  0  0  0  0  0  0  0  0  0
  188.5550  177.3640  141.1200 N   0  0  0  0  0  0  0  0  0  0  0  0
  190.1000  177.3110  146.3070 C   0  0  0  0  0  2  0  0  0  0  0  0
  189.9490  176.8880  142.7690 C   0  0  0  0  0  0  0  0  0  0  0  0
  188.7170  177.3600  142.4540 C   0  0  0  0  0  0  0  0  0  0  0  0
  187.2280  177.2690  147.1650 C   0  0  0  0  0  3  0  0  0  0  0  0
  190.3930  176.8010  144.0750 C   0  0  0  0  0  3  0  0  0  0  0  0
  187.7760  177.7070  143.4320 C   0  0  0  0  0  0  0  0  0  0  0  0
  189.5220  177.1870  145.1090 C   0  0  0  0  0  0  0  0  0  0  0  0
  189.7470  176.8870  140.6760 C   0  0  0  0  0  0  0  0  0  0  0  0
  190.6350  176.5830  141.6580 N   0  0  0  0  0  2  0  0  0  0  0  0
  189.5080  178.0140  147.4790 C   0  0  0  0  0  2  0  0  0  0  0  0
  188.1580  177.5490  144.8040 C   0  0  0  0  0  0  0  0  0  0  0  0
  188.2740  177.3950  147.9160 N   0  0  0  0  0  0  0  0  0  0  0  0
  187.1770  177.6000  145.7300 C   0  0  0  0  0  2  0  0  0  0  0  0
  184.7430  179.6860  140.0920 O   0  0  0  0  0  1  0  0  0  0  0  0
  183.8680  179.0220  142.2390 C   0  0  0  0  0  3  0  0  0  0  0  0
  186.2140  178.7060  141.7340 C   0  0  0  0  0  3  0  0  0  0  0  0
  186.4220  178.1470  143.0030 C   0  0  0  0  0  0  0  0  0  0  0  0
  184.9410  179.1380  141.3520 C   0  0  0  0  0  0  0  0  0  0  0  0
  184.0680  178.4760  143.5090 C   0  0  0  0  0  3  0  0  0  0  0  0
  185.3410  178.0430  143.8920 C   0  0  0  0  0  3  0  0  0  0  0  0
  191.3240  176.1810  138.8460 C   0  0  0  0  0  2  0  0  0  0  0  0
  191.1220  175.1640  137.7380 C   0  0  0  0  0  1  0  0  0  0  0  0
  189.0060  176.9360  138.2790 C   0  0  0  0  0  2  0  0  0  0  0  0
  189.4430  178.3510  136.4110 O   0  0  0  0  0  0  0  0  0  0  0  0
  189.0240  179.4270  138.3920 O   0  0  0  0  0  1  0  0  0  0  0  0
  189.1820  178.2700  137.6400 C   0  0  0  0  0  0  0  0  0  0  0  0
  1 10  1  0  0  0  0
  2  5  1  0  0  0  0
  3 12  1  0  0  0  0
  4  7  1  0  0  0  0
  5  4  2  0  0  0  0
  5  8  1  0  0  0  0
  6 14  2  0  0  0  0
  7  9  2  0  0  0  0
  8 13  2  0  0  0  0
  9  3  1  0  0  0  0
 10  2  2  0  0  0  0
 10 11  1  0  0  0  0
 11  4  1  0  0  0  0
 12 14  1  0  0  0  0
 13  9  1  0  0  0  0
 13 15  1  0  0  0  0
 15  6  1  0  0  0  0
 16 20  1  0  0  0  0
 17 21  1  0  0  0  0
 18 19  2  0  0  0  0
 19  8  1  0  0  0  0
 19 22  1  0  0  0  0
 20 18  1  0  0  0  0
 20 17  2  0  0  0  0
 21 22  2  0  0  0  0
 23  1  1  0  0  0  0
 24 23  1  0  0  0  0
 25  1  1  0  0  0  0
 26 28  2  0  0  0  0
 28 25  1  0  0  0  0
 28 27  1  0  0  0  0
M  END
>  <MODEL>
1

>  <REMARK>
 VINA RESULT:      -9.7      0.000      0.000
  Name = 
  4 active torsions:
  status: ('A' for Active; 'I' for Inactive)
    1  A    between atoms: C_1  and  N_6
    2  A    between atoms: N_6  and  C_28
    3  A    between atoms: C_15  and  C_20
    4  A    between atoms: C_17  and  C_28
                            x       y       z     vdW  Elec       q    Type
                         _______ _______ _______ _____ _____    ______ ____

>  <TORSDO>
F 4

$$$$
=
 OpenBabel10232409063D

 28 31  0  0  0  0  0  0  0  0999 V2000
  183.0650  178.4720  141.3980 N   0  0  0  0  0  0  0  0  0  0  0  0
  185.3400  178.0010  142.1790 N   0  0  0  0  0  0  0  0  0  0  0  0
  186.7040  177.9650  147.4170 C   0  0  0  0  0  2  0  0  0  0  0  0
  184.9630  178.3540  144.3280 C   0  0  0  0  0  0  0  0  0  0  0  0
  185.8920  178.0050  143.4040 C   0  0  0  0  0  0  0  0  0  0  0  0
  189.5870  178.3100  146.6720 C   0  0  0  0  0  3  0  0  0  0  0  0
  185.2520  178.4130  145.6790 C   0  0  0  0  0  3  0  0  0  0  0  0
  187.2310  177.7690  143.7410 C   0  0  0  0  0  0  0  0  0  0  0  0
  186.5630  178.1310  146.0980 C   0  0  0  0  0  0  0  0  0  0  0  0
  184.0520  178.3480  142.4340 C   0  0  0  0  0  0  0  0  0  0  0  0
  183.7750  178.5730  143.7440 N   0  0  0  0  0  2  0  0  0  0  0  0
  187.8790  177.3410  148.0850 C   0  0  0  0  0  2  0  0  0  0  0  0
  187.6010  177.9050  145.1190 C   0  0  0  0  0  0  0  0  0  0  0  0
  189.0980  178.0880  147.8480 N   0  0  0  0  0  0  0  0  0  0  0  0
  188.9190  177.9660  145.4030 C   0  0  0  0  0  2  0  0  0  0  0  0
  189.0820  178.5950  139.2510 O   0  0  0  0  0  1  0  0  0  0  0  0
  190.0090  176.8290  140.6070 C   0  0  0  0  0  3  0  0  0  0  0  0
  188.1920  178.1850  141.4560 C   0  0  0  0  0  3  0  0  0  0  0  0
  188.2020  177.4630  142.6580 C   0  0  0  0  0  0  0  0  0  0  0  0
  189.0940  177.8720  140.4350 C   0  0  0  0  0  0  0  0  0  0  0  0
  190.0190  176.0980  141.7970 C   0  0  0  0  0  3  0  0  0  0  0  0
  189.1170  176.4110  142.8180 C   0  0  0  0  0  3  0  0  0  0  0  0
  181.6980  178.8660  141.7100 C   0  0  0  0  0  2  0  0  0  0  0  0
  180.7140  177.9190  141.0480 C   0  0  0  0  0  1  0  0  0  0  0  0
  183.4470  178.3430  139.9980 C   0  0  0  0  0  2  0  0  0  0  0  0
  184.6370  180.2670  139.2450 O   0  0  0  0  0  1  0  0  0  0  0  0
  182.3790  180.2840  138.8530 O   0  0  0  0  0  0  0  0  0  0  0  0
  183.5260  179.6870  139.3580 C   0  0  0  0  0  0  0  0  0  0  0  0
  1 23  1  0  0  0  0
  1 10  1  0  0  0  0
  2 10  2  0  0  0  0
  2  5  1  0  0  0  0
  3 12  1  0  0  0  0
  4  7  1  0  0  0  0
  5  8  1  0  0  0  0
  5  4  2  0  0  0  0
  6 14  2  0  0  0  0
  7  9  2  0  0  0  0
  8 13  2  0  0  0  0
  9  3  1  0  0  0  0
 10 11  1  0  0  0  0
 11  4  1  0  0  0  0
 13 15  1  0  0  0  0
 13  9  1  0  0  0  0
 14 12  1  0  0  0  0
 15  6  1  0  0  0  0
 16 20  1  0  0  0  0
 17 21  1  0  0  0  0
 18 19  2  0  0  0  0
 19 22  1  0  0  0  0
 19  8  1  0  0  0  0
 20 17  2  0  0  0  0
 20 18  1  0  0  0  0
 21 22  2  0  0  0  0
 24 23  1  0  0  0  0
 25  1  1  0  0  0  0
 26 28  1  0  0  0  0
 27 28  2  0  0  0  0
 28 25  1  0  0  0  0
M  END
>  <MODEL>
2

>  <REMARK>
 VINA RESULT:      -9.7      2.205      5.393
  Name = 
  4 active torsions:
  status: ('A' for Active; 'I' for Inactive)
    1  A    between atoms: C_1  and  N_6
    2  A    between atoms: N_6  and  C_28
    3  A    between atoms: C_15  and  C_20
    4  A    between atoms: C_17  and  C_28
                            x       y       z     vdW  Elec       q    Type
                         _______ _______ _______ _____ _____    ______ ____

>  <TORSDO>
F 4

$$$$
=
 OpenBabel10232409063D

 28 31  0  0  0  0  0  0  0  0999 V2000
  188.1470  178.2370  137.8610 N   0  0  0  0  0  0  0  0  0  0  0  0
  188.2330  177.9010  140.2880 N   0  0  0  0  0  0  0  0  0  0  0  0
  183.9910  178.7750  143.5330 C   0  0  0  0  0  2  0  0  0  0  0  0
  186.1930  178.6260  140.7300 C   0  0  0  0  0  0  0  0  0  0  0  0
  187.3330  178.1170  141.2610 C   0  0  0  0  0  0  0  0  0  0  0  0
  185.8320  178.9730  145.8910 C   0  0  0  0  0  3  0  0  0  0  0  0
  185.0860  178.9190  141.5060 C   0  0  0  0  0  3  0  0  0  0  0  0
  187.5020  177.9390  142.6390 C   0  0  0  0  0  0  0  0  0  0  0  0
  185.1620  178.7090  142.8930 C   0  0  0  0  0  0  0  0  0  0  0  0
  187.5640  178.2920  139.1730 C   0  0  0  0  0  0  0  0  0  0  0  0
  186.3030  178.7440  139.3990 N   0  0  0  0  0  2  0  0  0  0  0  0
  183.7330  178.2730  144.9110 C   0  0  0  0  0  2  0  0  0  0  0  0
  186.4140  178.3120  143.4950 C   0  0  0  0  0  0  0  0  0  0  0  0
  184.5380  178.9620  145.8990 N   0  0  0  0  0  0  0  0  0  0  0  0
  186.6720  178.4160  144.8150 C   0  0  0  0  0  2  0  0  0  0  0  0
  192.0200  178.7550  144.4270 O   0  0  0  0  0  1  0  0  0  0  0  0
  191.2900  176.4880  144.0430 C   0  0  0  0  0  3  0  0  0  0  0  0
  189.8070  178.3390  143.5610 C   0  0  0  0  0  3  0  0  0  0  0  0
  188.8100  177.4440  143.1450 C   0  0  0  0  0  0  0  0  0  0  0  0
  191.0410  177.8630  144.0120 C   0  0  0  0  0  0  0  0  0  0  0  0
  190.3070  175.5900  143.6210 C   0  0  0  0  0  3  0  0  0  0  0  0
  189.0720  176.0660  143.1710 C   0  0  0  0  0  3  0  0  0  0  0  0
  187.4020  178.6860  136.6920 C   0  0  0  0  0  2  0  0  0  0  0  0
  186.4870  177.5800  136.1970 C   0  0  0  0  0  1  0  0  0  0  0  0
  189.5450  177.8650  137.6920 C   0  0  0  0  0  2  0  0  0  0  0  0
  189.1530  175.6490  136.9030 O   0  0  0  0  0  0  0  0  0  0  0  0
  190.4750  175.8170  138.7690 O   0  0  0  0  0  1  0  0  0  0  0  0
  189.6980  176.3850  137.7670 C   0  0  0  0  0  0  0  0  0  0  0  0
  1 10  1  0  0  0  0
  2  5  1  0  0  0  0
  3 12  1  0  0  0  0
  4  5  2  0  0  0  0
  4  7  1  0  0  0  0
  5  8  1  0  0  0  0
  6 14  2  0  0  0  0
  7  9  2  0  0  0  0
  8 19  1  0  0  0  0
  8 13  2  0  0  0  0
  9 13  1  0  0  0  0
  9  3  1  0  0  0  0
 10 11  1  0  0  0  0
 10  2  2  0  0  0  0
 11  4  1  0  0  0  0
 12 14  1  0  0  0  0
 13 15  1  0  0  0  0
 15  6  1  0  0  0  0
 18 20  2  0  0  0  0
 19 22  2  0  0  0  0
 19 18  1  0  0  0  0
 20 17  1  0  0  0  0
 20 16  1  0  0  0  0
 21 17  2  0  0  0  0
 22 21  1  0  0  0  0
 23  1  1  0  0  0  0
 24 23  1  0  0  0  0
 25 28  1  0  0  0  0
 25  1  1  0  0  0  0
 26 28  2  0  0  0  0
 28 27  1  0  0  0  0
M  END
>  <MODEL>
3

>  <REMARK>
 VINA RESULT:      -9.5      2.432      4.686
  Name = 
  4 active torsions:
  status: ('A' for Active; 'I' for Inactive)
    1  A    between atoms: C_1  and  N_6
    2  A    between atoms: N_6  and  C_28
    3  A    between atoms: C_15  and  C_20
    4  A    between atoms: C_17  and  C_28
                            x       y       z     vdW  Elec       q    Type
                         _______ _______ _______ _____ _____    ______ ____

>  <TORSDO>
F 4

$$$$
=
 OpenBabel10232409063D

 28 31  0  0  0  0  0  0  0  0999 V2000
  189.6140  177.9250  139.0360 N   0  0  0  0  0  0  0  0  0  0  0  0
  189.1090  177.7030  141.4250 N   0  0  0  0  0  0  0  0  0  0  0  0
  184.2140  178.7100  143.5030 C   0  0  0  0  0  2  0  0  0  0  0  0
  187.0280  178.4400  141.3260 C   0  0  0  0  0  0  0  0  0  0  0  0
  188.0010  177.9610  142.1400 C   0  0  0  0  0  0  0  0  0  0  0  0
  185.4310  179.0260  146.2240 C   0  0  0  0  0  3  0  0  0  0  0  0
  185.7680  178.7640  141.7960 C   0  0  0  0  0  3  0  0  0  0  0  0
  187.8310  177.8470  143.5250 C   0  0  0  0  0  0  0  0  0  0  0  0
  185.5050  178.6190  143.1690 C   0  0  0  0  0  0  0  0  0  0  0  0
  188.7320  178.0390  140.1640 C   0  0  0  0  0  0  0  0  0  0  0  0
  187.4570  178.4950  140.0580 N   0  0  0  0  0  2  0  0  0  0  0  0
  183.6270  178.2720  144.7990 C   0  0  0  0  0  2  0  0  0  0  0  0
  186.5710  178.2560  144.0740 C   0  0  0  0  0  0  0  0  0  0  0  0
  184.1740  179.0100  145.9190 N   0  0  0  0  0  0  0  0  0  0  0  0
  186.5030  178.4220  145.4110 C   0  0  0  0  0  2  0  0  0  0  0  0
  192.0110  175.2960  144.0630 O   0  0  0  0  0  1  0  0  0  0  0  0
  191.0900  176.4730  145.9570 C   0  0  0  0  0  3  0  0  0  0  0  0
  189.9700  176.5580  143.8130 C   0  0  0  0  0  3  0  0  0  0  0  0
  188.9740  177.3830  144.3550 C   0  0  0  0  0  0  0  0  0  0  0  0
  191.0260  176.1080  144.6090 C   0  0  0  0  0  0  0  0  0  0  0  0
  190.0970  177.2850  146.5080 C   0  0  0  0  0  3  0  0  0  0  0  0
  189.0400  177.7370  145.7110 C   0  0  0  0  0  3  0  0  0  0  0  0
  189.1780  178.3150  137.7020 C   0  0  0  0  0  2  0  0  0  0  0  0
  188.2650  177.2530  137.1170 C   0  0  0  0  0  1  0  0  0  0  0  0
  191.0090  177.5510  139.2280 C   0  0  0  0  0  2  0  0  0  0  0  0
  190.8220  175.2540  138.6200 O   0  0  0  0  0  1  0  0  0  0  0  0
  192.2200  176.5130  137.3110 O   0  0  0  0  0  0  0  0  0  0  0  0
  191.3490  176.3720  138.3830 C   0  0  0  0  0  0  0  0  0  0  0  0
  1 25  1  0  0  0  0
  1 10  1  0  0  0  0
  2  5  1  0  0  0  0
  3 12  1  0  0  0  0
  4  7  2  0  0  0  0
  4  5  1  0  0  0  0
  5  8  2  0  0  0  0
  7  9  1  0  0  0  0
  8 13  1  0  0  0  0
  8 19  1  0  0  0  0
  9  3  1  0  0  0  0
  9 13  2  0  0  0  0
 10  2  2  0  0  0  0
 11 10  1  0  0  0  0
 11  4  1  0  0  0  0
 12 14  1  0  0  0  0
 13 15  1  0  0  0  0
 14  6  2  0  0  0  0
 15  6  1  0  0  0  0
 16 20  1  0  0  0  0
 17 21  1  0  0  0  0
 18 19  2  0  0  0  0
 18 20  1  0  0  0  0
 19 22  1  0  0  0  0
 20 17  2  0  0  0  0
 22 21  2  0  0  0  0
 23  1  1  0  0  0  0
 24 23  1  0  0  0  0
 27 28  2  0  0  0  0
 28 26  1  0  0  0  0
 28 25  1  0  0  0  0
M  END
>  <MODEL>
4

>  <REMARK>
 VINA RESULT:      -9.4      2.268      4.614
  Name = 
  4 active torsions:
  status: ('A' for Active; 'I' for Inactive)
    1  A    between atoms: C_1  and  N_6
    2  A    between atoms: N_6  and  C_28
    3  A    between atoms: C_15  and  C_20
    4  A    between atoms: C_17  and  C_28
                            x       y       z     vdW  Elec       q    Type
                         _______ _______ _______ _____ _____    ______ ____

>  <TORSDO>
F 4

$$$$
=
 OpenBabel10232409063D

 28 31  0  0  0  0  0  0  0  0999 V2000
  182.3270  179.0970  142.4730 N   0  0  0  0  0  0  0  0  0  0  0  0
  184.6800  178.4740  142.7550 N   0  0  0  0  0  0  0  0  0  0  0  0
  186.9550  177.6870  147.6030 C   0  0  0  0  0  2  0  0  0  0  0  0
  184.7100  178.5360  144.9640 C   0  0  0  0  0  0  0  0  0  0  0  0
  185.4420  178.2980  143.8480 C   0  0  0  0  0  0  0  0  0  0  0  0
  189.6710  178.0690  146.3940 C   0  0  0  0  0  3  0  0  0  0  0  0
  185.2380  178.4010  146.2350 C   0  0  0  0  0  3  0  0  0  0  0  0
  186.8070  177.9890  143.8990 C   0  0  0  0  0  0  0  0  0  0  0  0
  186.5890  178.0360  146.3660 C   0  0  0  0  0  0  0  0  0  0  0  0
  183.4760  178.8100  143.2840 C   0  0  0  0  0  0  0  0  0  0  0  0
  183.4480  178.8580  144.6420 N   0  0  0  0  0  2  0  0  0  0  0  0
  188.2010  176.9510  147.9560 C   0  0  0  0  0  2  0  0  0  0  0  0
  187.4240  177.9260  145.1920 C   0  0  0  0  0  0  0  0  0  0  0  0
  189.3900  177.6980  147.6000 N   0  0  0  0  0  0  0  0  0  0  0  0
  188.7720  177.9180  145.2350 C   0  0  0  0  0  2  0  0  0  0  0  0
  190.4680  175.9730  141.2910 O   0  0  0  0  0  1  0  0  0  0  0  0
  188.9820  177.5460  140.2250 C   0  0  0  0  0  3  0  0  0  0  0  0
  188.6640  176.9610  142.5520 C   0  0  0  0  0  3  0  0  0  0  0  0
  187.5540  177.8150  142.6260 C   0  0  0  0  0  0  0  0  0  0  0  0
  189.3730  176.8240  141.3560 C   0  0  0  0  0  0  0  0  0  0  0  0
  187.8830  178.4070  140.2920 C   0  0  0  0  0  3  0  0  0  0  0  0
  187.1730  178.5430  141.4890 C   0  0  0  0  0  3  0  0  0  0  0  0
  181.0570  179.4730  143.0800 C   0  0  0  0  0  2  0  0  0  0  0  0
  180.2800  178.2340  143.4840 C   0  0  0  0  0  1  0  0  0  0  0  0
  182.4460  179.1550  141.0220 C   0  0  0  0  0  2  0  0  0  0  0  0
  182.9030  176.9220  140.3210 O   0  0  0  0  0  1  0  0  0  0  0  0
  180.7510  177.6410  139.9960 O   0  0  0  0  0  0  0  0  0  0  0  0
  182.0570  177.8490  140.4190 C   0  0  0  0  0  0  0  0  0  0  0  0
  1 23  1  0  0  0  0
  1 10  1  0  0  0  0
  2 10  2  0  0  0  0
  2  5  1  0  0  0  0
  3 12  1  0  0  0  0
  4  7  1  0  0  0  0
  5  8  1  0  0  0  0
  5  4  2  0  0  0  0
  6 14  2  0  0  0  0
  7  9  2  0  0  0  0
  8 13  2  0  0  0  0
  9  3  1  0  0  0  0
 10 11  1  0  0  0  0
 11  4  1  0  0  0  0
 13 15  1  0  0  0  0
 13  9  1  0  0  0  0
 14 12  1  0  0  0  0
 15  6  1  0  0  0  0
 16 20  1  0  0  0  0
 17 21  2  0  0  0  0
 17 20  1  0  0  0  0
 18 19  1  0  0  0  0
 19  8  1  0  0  0  0
 20 18  2  0  0  0  0
 21 22  1  0  0  0  0
 22 19  2  0  0  0  0
 23 24  1  0  0  0  0
 25  1  1  0  0  0  0
 26 28  1  0  0  0  0
 27 28  2  0  0  0  0
 28 25  1  0  0  0  0
M  END
>  <MODEL>
5

>  <REMARK>
 VINA RESULT:      -9.1      2.840      6.050
  Name = 
  4 active torsions:
  status: ('A' for Active; 'I' for Inactive)
    1  A    between atoms: C_1  and  N_6
    2  A    between atoms: N_6  and  C_28
    3  A    between atoms: C_15  and  C_20
    4  A    between atoms: C_17  and  C_28
                            x       y       z     vdW  Elec       q    Type
                         _______ _______ _______ _____ _____    ______ ____

>  <TORSDO>
F 4

$$$$
=
 OpenBabel10232409063D

 28 31  0  0  0  0  0  0  0  0999 V2000
  188.8500  178.3980  139.6270 N   0  0  0  0  0  0  0  0  0  0  0  0
  187.2670  178.2960  141.4950 N   0  0  0  0  0  0  0  0  0  0  0  0
  181.9100  178.7080  140.8390 C   0  0  0  0  0  2  0  0  0  0  0  0
  185.4390  178.6950  140.3180 C   0  0  0  0  0  0  0  0  0  0  0  0
  185.9320  178.4380  141.5550 C   0  0  0  0  0  0  0  0  0  0  0  0
  181.6080  179.4260  143.7330 C   0  0  0  0  0  3  0  0  0  0  0  0
  184.0870  178.8590  140.0830 C   0  0  0  0  0  3  0  0  0  0  0  0
  185.1190  178.4140  142.6950 C   0  0  0  0  0  0  0  0  0  0  0  0
  183.2020  178.7890  141.1730 C   0  0  0  0  0  0  0  0  0  0  0  0
  187.5240  178.4660  140.1730 C   0  0  0  0  0  0  0  0  0  0  0  0
  186.4270  178.7120  139.4110 N   0  0  0  0  0  2  0  0  0  0  0  0
  180.8100  178.2910  141.7510 C   0  0  0  0  0  2  0  0  0  0  0  0
  183.7200  178.6670  142.5160 C   0  0  0  0  0  0  0  0  0  0  0  0
  180.6670  179.1930  142.8760 N   0  0  0  0  0  0  0  0  0  0  0  0
  182.9920  178.9300  143.6210 C   0  0  0  0  0  2  0  0  0  0  0  0
  185.6070  179.5380  147.4660 O   0  0  0  0  0  1  0  0  0  0  0  0
  186.9930  177.8120  146.5090 C   0  0  0  0  0  3  0  0  0  0  0  0
  185.3730  178.9690  145.1340 C   0  0  0  0  0  3  0  0  0  0  0  0
  185.7490  178.1990  144.0240 C   0  0  0  0  0  0  0  0  0  0  0  0
  185.9890  178.7750  146.3720 C   0  0  0  0  0  0  0  0  0  0  0  0
  187.3820  177.0470  145.4070 C   0  0  0  0  0  3  0  0  0  0  0  0
  186.7650  177.2410  144.1680 C   0  0  0  0  0  3  0  0  0  0  0  0
  189.0860  178.6060  138.2040 C   0  0  0  0  0  2  0  0  0  0  0  0
  188.7850  177.3350  137.4310 C   0  0  0  0  0  1  0  0  0  0  0  0
  190.0020  178.2580  140.5080 C   0  0  0  0  0  2  0  0  0  0  0  0
  190.7940  176.1140  139.8290 O   0  0  0  0  0  0  0  0  0  0  0  0
  190.0630  176.2590  141.9970 O   0  0  0  0  0  1  0  0  0  0  0  0
  190.2990  176.8180  140.7480 C   0  0  0  0  0  0  0  0  0  0  0  0
  1 10  1  0  0  0  0
  1 25  1  0  0  0  0
  2  5  1  0  0  0  0
  3  9  1  0  0  0  0
  3 12  1  0  0  0  0
  4  5  1  0  0  0  0
  5  8  2  0  0  0  0
  7  4  2  0  0  0  0
  7  9  1  0  0  0  0
  8 19  1  0  0  0  0
  9 13  2  0  0  0  0
 10  2  2  0  0  0  0
 11 10  1  0  0  0  0
 11  4  1  0  0  0  0
 12 14  1  0  0  0  0
 13  8  1  0  0  0  0
 13 15  1  0  0  0  0
 14  6  2  0  0  0  0
 15  6  1  0  0  0  0
 18 20  2  0  0  0  0
 19 22  2  0  0  0  0
 19 18  1  0  0  0  0
 20 17  1  0  0  0  0
 20 16  1  0  0  0  0
 21 17  2  0  0  0  0
 22 21  1  0  0  0  0
 23  1  1  0  0  0  0
 24 23  1  0  0  0  0
 25 28  1  0  0  0  0
 26 28  2  0  0  0  0
 28 27  1  0  0  0  0
M  END
>  <MODEL>
6

>  <REMARK>
 VINA RESULT:      -9.0      2.854      5.440
  Name = 
  4 active torsions:
  status: ('A' for Active; 'I' for Inactive)
    1  A    between atoms: C_1  and  N_6
    2  A    between atoms: N_6  and  C_28
    3  A    between atoms: C_15  and  C_20
    4  A    between atoms: C_17  and  C_28
                            x       y       z     vdW  Elec       q    Type
                         _______ _______ _______ _____ _____    ______ ____

>  <TORSDO>
F 4

$$$$
=
 OpenBabel10232409063D

 28 31  0  0  0  0  0  0  0  0999 V2000
  190.5300  176.9130  145.8450 N   0  0  0  0  0  0  0  0  0  0  0  0
  188.9650  177.4940  144.0500 N   0  0  0  0  0  0  0  0  0  0  0  0
  183.8310  178.9350  144.9740 C   0  0  0  0  0  2  0  0  0  0  0  0
  187.1830  177.7680  145.3280 C   0  0  0  0  0  0  0  0  0  0  0  0
  187.6600  177.8100  144.0590 C   0  0  0  0  0  0  0  0  0  0  0  0
  183.1340  178.2840  142.1320 C   0  0  0  0  0  3  0  0  0  0  0  0
  185.8700  178.0770  145.6330 C   0  0  0  0  0  3  0  0  0  0  0  0
  186.8360  178.0780  142.9580 C   0  0  0  0  0  0  0  0  0  0  0  0
  184.9980  178.4130  144.5830 C   0  0  0  0  0  0  0  0  0  0  0  0
  189.2280  177.2820  145.3650 C   0  0  0  0  0  0  0  0  0  0  0  0
  188.1590  177.4420  146.1880 N   0  0  0  0  0  2  0  0  0  0  0  0
  182.8820  179.6740  144.0960 C   0  0  0  0  0  2  0  0  0  0  0  0
  185.4460  178.3170  143.2140 C   0  0  0  0  0  0  0  0  0  0  0  0
  182.3790  178.8440  143.0210 N   0  0  0  0  0  0  0  0  0  0  0  0
  184.6080  178.2860  142.1560 C   0  0  0  0  0  2  0  0  0  0  0  0
  186.4960  178.7880  138.0950 O   0  0  0  0  0  1  0  0  0  0  0  0
  188.5310  177.8820  139.0190 C   0  0  0  0  0  3  0  0  0  0  0  0
  186.6810  178.4440  140.4760 C   0  0  0  0  0  3  0  0  0  0  0  0
  187.4220  178.0310  141.5930 C   0  0  0  0  0  0  0  0  0  0  0  0
  187.2340  178.3730  139.1950 C   0  0  0  0  0  0  0  0  0  0  0  0
  189.2720  177.4590  140.1250 C   0  0  0  0  0  3  0  0  0  0  0  0
  188.7190  177.5310  141.4070 C   0  0  0  0  0  3  0  0  0  0  0  0
  190.7660  176.6750  147.2630 C   0  0  0  0  0  2  0  0  0  0  0  0
  191.9830  175.7890  147.4520 C   0  0  0  0  0  1  0  0  0  0  0  0
  191.6070  176.6310  144.9060 C   0  0  0  0  0  2  0  0  0  0  0  0
  191.9820  178.9560  144.5350 O   0  0  0  0  0  1  0  0  0  0  0  0
  191.9710  177.6430  142.6560 O   0  0  0  0  0  0  0  0  0  0  0  0
  191.8520  177.8110  144.0290 C   0  0  0  0  0  0  0  0  0  0  0  0
  1 23  1  0  0  0  0
  2  5  1  0  0  0  0
  2 10  2  0  0  0  0
  4  7  1  0  0  0  0
  4 11  1  0  0  0  0
  5  4  2  0  0  0  0
  6 15  1  0  0  0  0
  6 14  2  0  0  0  0
  8 13  2  0  0  0  0
  8  5  1  0  0  0  0
  9  3  1  0  0  0  0
  9  7  2  0  0  0  0
 10  1  1  0  0  0  0
 10 11  1  0  0  0  0
 12  3  1  0  0  0  0
 13  9  1  0  0  0  0
 14 12  1  0  0  0  0
 15 13  1  0  0  0  0
 16 20  1  0  0  0  0
 17 20  2  0  0  0  0
 17 21  1  0  0  0  0
 18 19  2  0  0  0  0
 19  8  1  0  0  0  0
 20 18  1  0  0  0  0
 21 22  2  0  0  0  0
 22 19  1  0  0  0  0
 23 24  1  0  0  0  0
 25  1  1  0  0  0  0
 27 28  2  0  0  0  0
 28 26  1  0  0  0  0
 28 25  1  0  0  0  0
M  END
>  <MODEL>
7

>  <REMARK>
 VINA RESULT:      -8.9      2.596      5.630
  Name = 
  4 active torsions:
  status: ('A' for Active; 'I' for Inactive)
    1  A    between atoms: C_1  and  N_6
    2  A    between atoms: N_6  and  C_28
    3  A    between atoms: C_15  and  C_20
    4  A    between atoms: C_17  and  C_28
                            x       y       z     vdW  Elec       q    Type
                         _______ _______ _______ _____ _____    ______ ____

>  <TORSDO>
F 4

$$$$
=
 OpenBabel10232409063D

 28 31  0  0  0  0  0  0  0  0999 V2000
  190.6680  177.4450  141.5330 N   0  0  0  0  0  0  0  0  0  0  0  0
  188.8610  177.6880  143.1710 N   0  0  0  0  0  0  0  0  0  0  0  0
  183.6960  178.4810  141.7590 C   0  0  0  0  0  2  0  0  0  0  0  0
  187.2440  178.1080  141.7240 C   0  0  0  0  0  0  0  0  0  0  0  0
  187.5500  177.9500  143.0350 C   0  0  0  0  0  0  0  0  0  0  0  0
  183.1060  179.5400  144.5000 C   0  0  0  0  0  3  0  0  0  0  0  0
  185.9540  178.3600  141.2930 C   0  0  0  0  0  3  0  0  0  0  0  0
  186.6020  178.1210  144.0510 C   0  0  0  0  0  0  0  0  0  0  0  0
  184.9370  178.4870  142.2550 C   0  0  0  0  0  0  0  0  0  0  0  0
  189.2970  177.6870  141.8850 C   0  0  0  0  0  0  0  0  0  0  0  0
  188.3340  177.9400  140.9610 N   0  0  0  0  0  2  0  0  0  0  0  0
  182.4540  178.2640  142.5500 C   0  0  0  0  0  2  0  0  0  0  0  0
  185.2680  178.4720  143.6610 C   0  0  0  0  0  0  0  0  0  0  0  0
  182.2620  179.2940  143.5510 N   0  0  0  0  0  0  0  0  0  0  0  0
  184.4370  178.9180  144.6260 C   0  0  0  0  0  2  0  0  0  0  0  0
  189.7570  176.5050  147.4720 O   0  0  0  0  0  1  0  0  0  0  0  0
  187.8030  177.7430  148.1550 C   0  0  0  0  0  3  0  0  0  0  0  0
  188.2080  177.3120  145.8080 C   0  0  0  0  0  3  0  0  0  0  0  0
  187.0350  178.0020  145.4680 C   0  0  0  0  0  0  0  0  0  0  0  0
  188.5930  177.1860  147.1450 C   0  0  0  0  0  0  0  0  0  0  0  0
  186.6280  178.4240  147.8270 C   0  0  0  0  0  3  0  0  0  0  0  0
  186.2440  178.5510  146.4890 C   0  0  0  0  0  3  0  0  0  0  0  0
  191.1000  177.4730  140.1410 C   0  0  0  0  0  2  0  0  0  0  0  0
  192.6030  177.2870  140.0550 C   0  0  0  0  0  1  0  0  0  0  0  0
  191.6810  177.3070  142.5700 C   0  0  0  0  0  2  0  0  0  0  0  0
  191.6070  176.2340  144.6980 O   0  0  0  0  0  1  0  0  0  0  0  0
  190.7210  175.0380  142.9550 O   0  0  0  0  0  0  0  0  0  0  0  0
  191.3490  176.1650  143.4680 C   0  0  0  0  0  0  0  0  0  0  0  0
  1 10  1  0  0  0  0
  1 25  1  0  0  0  0
  3  9  1  0  0  0  0
  3 12  1  0  0  0  0
  4  5  1  0  0  0  0
  5  2  1  0  0  0  0
  5  8  2  0  0  0  0
  6 15  1  0  0  0  0
  7  4  2  0  0  0  0
  7  9  1  0  0  0  0
  8 19  1  0  0  0  0
  9 13  2  0  0  0  0
 10  2  2  0  0  0  0
 11  4  1  0  0  0  0
 11 10  1  0  0  0  0
 12 14  1  0  0  0  0
 13  8  1  0  0  0  0
 13 15  1  0  0  0  0
 14  6  2  0  0  0  0
 18 20  1  0  0  0  0
 19 18  2  0  0  0  0
 19 22  1  0  0  0  0
 20 16  1  0  0  0  0
 20 17  2  0  0  0  0
 21 17  1  0  0  0  0
 22 21  2  0  0  0  0
 23  1  1  0  0  0  0
 24 23  1  0  0  0  0
 25 28  1  0  0  0  0
 27 28  2  0  0  0  0
 28 26  1  0  0  0  0
M  END
>  <MODEL>
8

>  <REMARK>
 VINA RESULT:      -8.8      3.151      5.348
  Name = 
  4 active torsions:
  status: ('A' for Active; 'I' for Inactive)
    1  A    between atoms: C_1  and  N_6
    2  A    between atoms: N_6  and  C_28
    3  A    between atoms: C_15  and  C_20
    4  A    between atoms: C_17  and  C_28
                            x       y       z     vdW  Elec       q    Type
                         _______ _______ _______ _____ _____    ______ ____

>  <TORSDO>
F 4

$$$$
=
 OpenBabel10232409063D

 28 31  0  0  0  0  0  0  0  0999 V2000
  187.7920  177.8460  138.8030 N   0  0  0  0  0  0  0  0  0  0  0  0
  187.3570  177.9630  141.2130 N   0  0  0  0  0  0  0  0  0  0  0  0
  191.1720  177.0400  144.9390 C   0  0  0  0  0  2  0  0  0  0  0  0
  189.3630  177.3140  141.8770 C   0  0  0  0  0  0  0  0  0  0  0  0
  188.1310  177.7110  142.2820 C   0  0  0  0  0  0  0  0  0  0  0  0
  189.0480  176.5350  146.9930 C   0  0  0  0  0  3  0  0  0  0  0  0
  190.3720  177.0150  142.7740 C   0  0  0  0  0  3  0  0  0  0  0  0
  187.7660  177.7590  143.6330 C   0  0  0  0  0  0  0  0  0  0  0  0
  190.0960  177.0980  144.1500 C   0  0  0  0  0  0  0  0  0  0  0  0
  188.1950  177.7080  140.1750 C   0  0  0  0  0  0  0  0  0  0  0  0
  189.4410  177.3080  140.5390 N   0  0  0  0  0  2  0  0  0  0  0  0
  191.2080  177.4330  146.3750 C   0  0  0  0  0  2  0  0  0  0  0  0
  188.7510  177.3720  144.6000 C   0  0  0  0  0  0  0  0  0  0  0  0
  190.3250  176.6160  147.1830 N   0  0  0  0  0  0  0  0  0  0  0  0
  188.3250  177.1380  145.8590 C   0  0  0  0  0  2  0  0  0  0  0  0
  183.1110  178.7560  142.3630 O   0  0  0  0  0  1  0  0  0  0  0  0
  183.7630  178.9010  144.6800 C   0  0  0  0  0  3  0  0  0  0  0  0
  185.3850  178.2610  143.0020 C   0  0  0  0  0  3  0  0  0  0  0  0
  186.3720  178.1350  143.9890 C   0  0  0  0  0  0  0  0  0  0  0  0
  184.0840  178.6390  143.3460 C   0  0  0  0  0  0  0  0  0  0  0  0
  184.7430  178.7880  145.6700 C   0  0  0  0  0  3  0  0  0  0  0  0
  186.0430  178.4090  145.3260 C   0  0  0  0  0  3  0  0  0  0  0  0
  188.7150  177.5440  137.7180 C   0  0  0  0  0  2  0  0  0  0  0  0
  189.3500  178.8210  137.1970 C   0  0  0  0  0  1  0  0  0  0  0  0
  186.4080  178.1550  138.4710 C   0  0  0  0  0  2  0  0  0  0  0  0
  185.5610  176.1270  137.5460 O   0  0  0  0  0  1  0  0  0  0  0  0
  185.9080  177.8290  136.0500 O   0  0  0  0  0  0  0  0  0  0  0  0
  185.9470  177.3070  137.3360 C   0  0  0  0  0  0  0  0  0  0  0  0
  1 10  1  0  0  0  0
  2  5  1  0  0  0  0
  3 12  1  0  0  0  0
  4  5  2  0  0  0  0
  4  7  1  0  0  0  0
  5  8  1  0  0  0  0
  6 14  2  0  0  0  0
  7  9  2  0  0  0  0
  8 19  1  0  0  0  0
  8 13  2  0  0  0  0
  9 13  1  0  0  0  0
  9  3  1  0  0  0  0
 10 11  1  0  0  0  0
 10  2  2  0  0  0  0
 11  4  1  0  0  0  0
 12 14  1  0  0  0  0
 13 15  1  0  0  0  0
 15  6  1  0  0  0  0
 16 20  1  0  0  0  0
 17 21  1  0  0  0  0
 18 20  1  0  0  0  0
 18 19  2  0  0  0  0
 19 22  1  0  0  0  0
 20 17  2  0  0  0  0
 22 21  2  0  0  0  0
 23  1  1  0  0  0  0
 24 23  1  0  0  0  0
 25  1  1  0  0  0  0
 27 28  2  0  0  0  0
 28 26  1  0  0  0  0
 28 25  1  0  0  0  0
M  END
>  <MODEL>
9

>  <REMARK>
 VINA RESULT:      -8.6      1.862      2.353
  Name = 
  4 active torsions:
  status: ('A' for Active; 'I' for Inactive)
    1  A    between atoms: C_1  and  N_6
    2  A    between atoms: N_6  and  C_28
    3  A    between atoms: C_15  and  C_20
    4  A    between atoms: C_17  and  C_28
                            x       y       z     vdW  Elec       q    Type
                         _______ _______ _______ _____ _____    ______ ____

>  <TORSDO>
F 4

$$$$
