=
 OpenBabel10232409423D

 35 38  0  0  0  0  0  0  0  0999 V2000
  187.6280  178.3080  147.9900 C   0  0  0  0  0  3  0  0  0  0  0  0
  188.9260  177.8910  147.6860 C   0  0  0  0  0  0  0  0  0  0  0  0
  189.2760  177.5860  146.3550 C   0  0  0  0  0  0  0  0  0  0  0  0
  189.8500  177.7670  148.7170 O   0  0  0  0  0  1  0  0  0  0  0  0
  186.6700  178.4260  146.9810 C   0  0  0  0  0  3  0  0  0  0  0  0
  188.3030  177.7150  145.3520 C   0  0  0  0  0  3  0  0  0  0  0  0
  186.9960  178.1290  145.6500 C   0  0  0  0  0  0  0  0  0  0  0  0
  184.6850  178.7080  144.8660 C   0  0  0  0  0  3  0  0  0  0  0  0
  186.3000  177.9200  143.2500 C   0  0  0  0  0  3  0  0  0  0  0  0
  185.3430  178.0380  142.2380 C   0  0  0  0  0  3  0  0  0  0  0  0
  185.9820  178.2540  144.5770 C   0  0  0  0  0  0  0  0  0  0  0  0
  184.0540  178.4940  142.5280 C   0  0  0  0  0  0  0  0  0  0  0  0
  183.7310  178.8270  143.8530 C   0  0  0  0  0  3  0  0  0  0  0  0
  183.1330  178.5980  141.4750 O   0  0  0  0  0  0  0  0  0  0  0  0
  183.4380  178.7830  140.1160 C   0  0  0  0  0  0  0  0  0  0  0  0
  183.9290  179.8680  139.7010 O   0  0  0  0  0  0  0  0  0  0  0  0
  182.7370  175.4740  138.4830 C   0  0  0  0  0  2  0  0  0  0  0  0
  182.6020  176.4650  139.6210 C   0  0  0  0  0  2  0  0  0  0  0  0
  182.8010  176.4020  136.9220 S   0  0  0  0  0  0  0  0  0  0  0  0
  183.1890  177.7190  139.1910 N   0  0  0  0  0  0  0  0  0  0  0  0
  183.4950  177.8450  137.7770 C   0  0  0  0  0  2  0  0  0  0  0  0
  190.6570  177.1760  145.9910 C   0  0  0  0  0  0  0  0  0  0  0  0
  191.2520  177.5420  144.8510 C   0  0  0  0  0  3  0  0  0  0  0  0
  192.0330  175.7180  147.6420 N   0  0  0  0  0  0  0  0  0  0  0  0
  191.4190  176.3680  146.9060 C   0  0  0  0  0  0  0  0  0  0  0  0
  190.5950  178.3540  143.7860 C   0  0  0  0  0  2  0  0  0  0  0  0
  190.7280  177.6470  142.4550 C   0  0  0  0  0  2  0  0  0  0  0  0
  189.1040  176.6980  137.6490 C   0  0  0  0  0  3  0  0  0  0  0  0
  188.3120  178.0090  139.4850 C   0  0  0  0  0  0  0  0  0  0  0  0
  188.2110  177.5070  138.1460 N   0  0  0  0  0  0  0  0  0  0  0  0
  190.4370  176.6780  139.7030 C   0  0  0  0  0  3  0  0  0  0  0  0
  189.4580  177.5950  140.3180 C   0  0  0  0  0  0  0  0  0  0  0  0
  190.2690  176.2570  138.4460 C   0  0  0  0  0  3  0  0  0  0  0  0
  187.4280  178.7880  139.9310 O   0  0  0  0  0  0  0  0  0  0  0  0
  189.5920  178.0370  141.5710 C   0  0  0  0  0  3  0  0  0  0  0  0
  2  1  1  0  0  0  0
  2  4  1  0  0  0  0
  3  2  2  0  0  0  0
  5  1  2  0  0  0  0
  6  7  2  0  0  0  0
  6  3  1  0  0  0  0
  7  5  1  0  0  0  0
  9 11  2  0  0  0  0
 10 12  2  0  0  0  0
 10  9  1  0  0  0  0
 11  8  1  0  0  0  0
 11  7  1  0  0  0  0
 12 13  1  0  0  0  0
 13  8  2  0  0  0  0
 14 12  1  0  0  0  0
 15 14  1  0  0  0  0
 16 15  2  0  0  0  0
 17 18  1  0  0  0  0
 19 21  1  0  0  0  0
 19 17  1  0  0  0  0
 20 18  1  0  0  0  0
 20 15  1  0  0  0  0
 21 20  1  0  0  0  0
 22  3  1  0  0  0  0
 22 25  1  0  0  0  0
 23 22  2  0  0  0  0
 25 24  3  0  0  0  0
 26 23  1  0  0  0  0
 27 26  1  0  0  0  0
 28 30  2  0  0  0  0
 28 33  1  0  0  0  0
 29 34  2  0  0  0  0
 29 32  1  0  0  0  0
 30 29  1  0  0  0  0
 31 32  1  0  0  0  0
 32 35  2  0  0  0  0
 33 31  2  0  0  0  0
 35 27  1  0  0  0  0
M  END
>  <MODEL>
1

>  <REMARK>
 VINA RESULT:     -10.1      0.000      0.000
  Name = 
  8 active torsions:
  status: ('A' for Active; 'I' for Inactive)
    1  A    between atoms: C_2  and  O_26
    2  A    between atoms: C_8  and  C_11
    3  A    between atoms: C_8  and  C_21
    4  A    between atoms: C_14  and  C_16
    5  A    between atoms: C_14  and  C_31
    6  A    between atoms: O_26  and  C_34
    7  A    between atoms: C_28  and  C_33
    8  A    between atoms: C_31  and  C_32
                            x       y       z     vdW  Elec       q    Type
                         _______ _______ _______ _____ _____    ______ ____

>  <TORSDO>
F 8

$$$$
=
 OpenBabel10232409423D

 35 38  0  0  0  0  0  0  0  0999 V2000
  191.5910  176.1530  144.9800 C   0  0  0  0  0  3  0  0  0  0  0  0
  190.7900  176.5450  146.0560 C   0  0  0  0  0  0  0  0  0  0  0  0
  189.6240  177.3040  145.8290 C   0  0  0  0  0  0  0  0  0  0  0  0
  191.1750  176.1900  147.3440 O   0  0  0  0  0  1  0  0  0  0  0  0
  191.2430  176.5080  143.6750 C   0  0  0  0  0  3  0  0  0  0  0  0
  189.2860  177.6480  144.5110 C   0  0  0  0  0  3  0  0  0  0  0  0
  190.0870  177.2620  143.4260 C   0  0  0  0  0  0  0  0  0  0  0  0
  190.5190  177.2600  140.9550 C   0  0  0  0  0  3  0  0  0  0  0  0
  188.5510  178.3850  141.7930 C   0  0  0  0  0  3  0  0  0  0  0  0
  188.1990  178.7400  140.4870 C   0  0  0  0  0  3  0  0  0  0  0  0
  189.7150  177.6390  142.0420 C   0  0  0  0  0  0  0  0  0  0  0  0
  188.9990  178.3590  139.4070 C   0  0  0  0  0  0  0  0  0  0  0  0
  190.1640  177.6150  139.6510 C   0  0  0  0  0  3  0  0  0  0  0  0
  188.6000  178.7380  138.1170 O   0  0  0  0  0  0  0  0  0  0  0  0
  188.3080  177.8760  137.0470 C   0  0  0  0  0  0  0  0  0  0  0  0
  189.2190  177.4600  136.2800 O   0  0  0  0  0  0  0  0  0  0  0  0
  184.6460  177.1030  137.3650 C   0  0  0  0  0  2  0  0  0  0  0  0
  185.8750  177.9350  137.6730 C   0  0  0  0  0  2  0  0  0  0  0  0
  184.7820  176.4940  135.6590 S   0  0  0  0  0  0  0  0  0  0  0  0
  186.9560  177.4610  136.8300 N   0  0  0  0  0  0  0  0  0  0  0  0
  186.5940  176.5610  135.7500 C   0  0  0  0  0  2  0  0  0  0  0  0
  188.7310  177.7060  146.9460 C   0  0  0  0  0  0  0  0  0  0  0  0
  187.3970  177.6890  146.8570 C   0  0  0  0  0  3  0  0  0  0  0  0
  189.7690  178.4350  149.2110 N   0  0  0  0  0  0  0  0  0  0  0  0
  189.3060  178.1100  148.2010 C   0  0  0  0  0  0  0  0  0  0  0  0
  186.6430  177.3230  145.6230 C   0  0  0  0  0  2  0  0  0  0  0  0
  185.6350  178.4050  145.3050 C   0  0  0  0  0  2  0  0  0  0  0  0
  181.5220  178.8950  142.2270 C   0  0  0  0  0  3  0  0  0  0  0  0
  183.8610  178.5330  141.8950 C   0  0  0  0  0  0  0  0  0  0  0  0
  182.5230  178.7140  141.4140 N   0  0  0  0  0  0  0  0  0  0  0  0
  182.9330  178.7620  144.2240 C   0  0  0  0  0  3  0  0  0  0  0  0
  184.1040  178.5530  143.3500 C   0  0  0  0  0  0  0  0  0  0  0  0
  181.7170  178.9220  143.6920 C   0  0  0  0  0  3  0  0  0  0  0  0
  184.8040  178.3610  141.0780 O   0  0  0  0  0  0  0  0  0  0  0  0
  185.3340  178.3900  143.8440 C   0  0  0  0  0  3  0  0  0  0  0  0
  1  2  1  0  0  0  0
  2  4  1  0  0  0  0
  3  2  2  0  0  0  0
  3 22  1  0  0  0  0
  5  1  2  0  0  0  0
  6  3  1  0  0  0  0
  7  5  1  0  0  0  0
  7  6  2  0  0  0  0
  8 11  1  0  0  0  0
  9 11  2  0  0  0  0
 10  9  1  0  0  0  0
 11  7  1  0  0  0  0
 12 13  1  0  0  0  0
 12 10  2  0  0  0  0
 13  8  2  0  0  0  0
 14 12  1  0  0  0  0
 15 14  1  0  0  0  0
 16 15  2  0  0  0  0
 17 18  1  0  0  0  0
 19 21  1  0  0  0  0
 19 17  1  0  0  0  0
 20 15  1  0  0  0  0
 20 18  1  0  0  0  0
 21 20  1  0  0  0  0
 22 25  1  0  0  0  0
 23 22  2  0  0  0  0
 25 24  3  0  0  0  0
 26 23  1  0  0  0  0
 27 26  1  0  0  0  0
 28 33  1  0  0  0  0
 29 32  1  0  0  0  0
 30 29  1  0  0  0  0
 30 28  2  0  0  0  0
 32 35  2  0  0  0  0
 32 31  1  0  0  0  0
 33 31  2  0  0  0  0
 34 29  2  0  0  0  0
 35 27  1  0  0  0  0
M  END
>  <MODEL>
2

>  <REMARK>
 VINA RESULT:      -9.7      1.807      5.302
  Name = 
  8 active torsions:
  status: ('A' for Active; 'I' for Inactive)
    1  A    between atoms: C_2  and  O_26
    2  A    between atoms: C_8  and  C_11
    3  A    between atoms: C_8  and  C_21
    4  A    between atoms: C_14  and  C_16
    5  A    between atoms: C_14  and  C_31
    6  A    between atoms: O_26  and  C_34
    7  A    between atoms: C_28  and  C_33
    8  A    between atoms: C_31  and  C_32
                            x       y       z     vdW  Elec       q    Type
                         _______ _______ _______ _____ _____    ______ ____

>  <TORSDO>
F 8

$$$$
=
 OpenBabel10232409423D

 35 38  0  0  0  0  0  0  0  0999 V2000
  187.0230  178.2920  147.4850 C   0  0  0  0  0  3  0  0  0  0  0  0
  188.2460  177.8370  146.9850 C   0  0  0  0  0  0  0  0  0  0  0  0
  188.3920  177.5770  145.6070 C   0  0  0  0  0  0  0  0  0  0  0  0
  189.2990  177.6310  147.8690 O   0  0  0  0  0  1  0  0  0  0  0  0
  185.9400  178.4940  146.6270 C   0  0  0  0  0  3  0  0  0  0  0  0
  187.2950  177.7890  144.7580 C   0  0  0  0  0  3  0  0  0  0  0  0
  186.0630  178.2420  145.2530 C   0  0  0  0  0  0  0  0  0  0  0  0
  183.6670  178.8580  144.8400 C   0  0  0  0  0  3  0  0  0  0  0  0
  185.0570  178.2580  142.9570 C   0  0  0  0  0  3  0  0  0  0  0  0
  183.9740  178.4590  142.0950 C   0  0  0  0  0  3  0  0  0  0  0  0
  184.9160  178.4560  144.3400 C   0  0  0  0  0  0  0  0  0  0  0  0
  182.7330  178.8630  142.5950 C   0  0  0  0  0  0  0  0  0  0  0  0
  182.5880  179.0600  143.9770 C   0  0  0  0  0  3  0  0  0  0  0  0
  181.6810  179.0550  141.6880 O   0  0  0  0  0  0  0  0  0  0  0  0
  181.3660  178.2350  140.5910 C   0  0  0  0  0  0  0  0  0  0  0  0
  181.1030  177.0120  140.7470 O   0  0  0  0  0  0  0  0  0  0  0  0
  181.2700  180.5400  137.6270 C   0  0  0  0  0  2  0  0  0  0  0  0
  181.6620  180.1980  139.0490 C   0  0  0  0  0  2  0  0  0  0  0  0
  181.3420  179.0200  136.6340 S   0  0  0  0  0  0  0  0  0  0  0  0
  181.3410  178.8030  139.2770 N   0  0  0  0  0  0  0  0  0  0  0  0
  181.0110  178.0100  138.1060 C   0  0  0  0  0  2  0  0  0  0  0  0
  189.6880  177.1290  145.0360 C   0  0  0  0  0  0  0  0  0  0  0  0
  189.8760  176.9120  143.7300 C   0  0  0  0  0  3  0  0  0  0  0  0
  191.7250  176.7850  146.6090 N   0  0  0  0  0  0  0  0  0  0  0  0
  190.8170  176.9380  145.9080 C   0  0  0  0  0  0  0  0  0  0  0  0
  188.8070  177.0380  142.6970 C   0  0  0  0  0  2  0  0  0  0  0  0
  188.9960  178.3260  141.9260 C   0  0  0  0  0  2  0  0  0  0  0  0
  189.1030  177.3960  136.8510 C   0  0  0  0  0  3  0  0  0  0  0  0
  187.4370  178.0890  138.4190 C   0  0  0  0  0  0  0  0  0  0  0  0
  187.8720  177.7440  137.0970 N   0  0  0  0  0  0  0  0  0  0  0  0
  189.7920  177.6430  139.1880 C   0  0  0  0  0  3  0  0  0  0  0  0
  188.4120  178.0450  139.5250 C   0  0  0  0  0  0  0  0  0  0  0  0
  190.1150  177.3380  137.9270 C   0  0  0  0  0  3  0  0  0  0  0  0
  186.2380  178.4200  138.6180 O   0  0  0  0  0  0  0  0  0  0  0  0
  188.0510  178.3570  140.7720 C   0  0  0  0  0  3  0  0  0  0  0  0
  2  1  1  0  0  0  0
  2  4  1  0  0  0  0
  3  2  2  0  0  0  0
  5  1  2  0  0  0  0
  6  7  2  0  0  0  0
  6  3  1  0  0  0  0
  7  5  1  0  0  0  0
  9 11  2  0  0  0  0
 10 12  2  0  0  0  0
 10  9  1  0  0  0  0
 11  8  1  0  0  0  0
 11  7  1  0  0  0  0
 12 13  1  0  0  0  0
 13  8  2  0  0  0  0
 14 12  1  0  0  0  0
 15 16  2  0  0  0  0
 15 14  1  0  0  0  0
 17 18  1  0  0  0  0
 18 20  1  0  0  0  0
 19 17  1  0  0  0  0
 19 21  1  0  0  0  0
 20 15  1  0  0  0  0
 21 20  1  0  0  0  0
 22  3  1  0  0  0  0
 22 25  1  0  0  0  0
 23 22  2  0  0  0  0
 25 24  3  0  0  0  0
 26 23  1  0  0  0  0
 27 26  1  0  0  0  0
 28 30  2  0  0  0  0
 28 33  1  0  0  0  0
 29 34  2  0  0  0  0
 29 32  1  0  0  0  0
 30 29  1  0  0  0  0
 31 32  1  0  0  0  0
 32 35  2  0  0  0  0
 33 31  2  0  0  0  0
 35 27  1  0  0  0  0
M  END
>  <MODEL>
3

>  <REMARK>
 VINA RESULT:      -9.3      1.563      1.996
  Name = 
  8 active torsions:
  status: ('A' for Active; 'I' for Inactive)
    1  A    between atoms: C_2  and  O_26
    2  A    between atoms: C_8  and  C_11
    3  A    between atoms: C_8  and  C_21
    4  A    between atoms: C_14  and  C_16
    5  A    between atoms: C_14  and  C_31
    6  A    between atoms: O_26  and  C_34
    7  A    between atoms: C_28  and  C_33
    8  A    between atoms: C_31  and  C_32
                            x       y       z     vdW  Elec       q    Type
                         _______ _______ _______ _____ _____    ______ ____

>  <TORSDO>
F 8

$$$$
=
 OpenBabel10232409423D

 35 38  0  0  0  0  0  0  0  0999 V2000
  187.0710  178.2220  147.6110 C   0  0  0  0  0  3  0  0  0  0  0  0
  188.2950  177.7470  147.1340 C   0  0  0  0  0  0  0  0  0  0  0  0
  188.4650  177.4870  145.7590 C   0  0  0  0  0  0  0  0  0  0  0  0
  189.3260  177.5200  148.0390 O   0  0  0  0  0  1  0  0  0  0  0  0
  186.0090  178.4450  146.7320 C   0  0  0  0  0  3  0  0  0  0  0  0
  187.3890  177.7210  144.8890 C   0  0  0  0  0  3  0  0  0  0  0  0
  186.1560  178.1950  145.3600 C   0  0  0  0  0  0  0  0  0  0  0  0
  185.1790  178.1880  143.0500 C   0  0  0  0  0  3  0  0  0  0  0  0
  183.7960  178.9030  144.8970 C   0  0  0  0  0  3  0  0  0  0  0  0
  182.7340  179.1250  144.0150 C   0  0  0  0  0  3  0  0  0  0  0  0
  185.0310  178.4310  144.4250 C   0  0  0  0  0  0  0  0  0  0  0  0
  182.8830  178.8790  142.6470 C   0  0  0  0  0  0  0  0  0  0  0  0
  184.1160  178.4080  142.1710 C   0  0  0  0  0  3  0  0  0  0  0  0
  181.7850  179.1140  141.8060 O   0  0  0  0  0  0  0  0  0  0  0  0
  180.9230  178.1430  141.2690 C   0  0  0  0  0  0  0  0  0  0  0  0
  180.0280  177.6050  141.9760 O   0  0  0  0  0  0  0  0  0  0  0  0
  181.7950  177.9520  137.6210 C   0  0  0  0  0  2  0  0  0  0  0  0
  182.0950  178.3390  139.0540 C   0  0  0  0  0  2  0  0  0  0  0  0
  180.8580  176.3960  137.6340 S   0  0  0  0  0  0  0  0  0  0  0  0
  181.0630  177.7650  139.8960 N   0  0  0  0  0  0  0  0  0  0  0  0
  180.1950  176.7770  139.2810 C   0  0  0  0  0  2  0  0  0  0  0  0
  189.7640  177.0170  145.2140 C   0  0  0  0  0  0  0  0  0  0  0  0
  189.9420  176.6910  143.9290 C   0  0  0  0  0  3  0  0  0  0  0  0
  191.8240  176.8510  146.7850 N   0  0  0  0  0  0  0  0  0  0  0  0
  190.9050  176.9250  146.0840 C   0  0  0  0  0  0  0  0  0  0  0  0
  188.8600  176.7050  142.9020 C   0  0  0  0  0  2  0  0  0  0  0  0
  189.2480  177.6300  141.7690 C   0  0  0  0  0  2  0  0  0  0  0  0
  189.5310  177.9290  136.6250 C   0  0  0  0  0  3  0  0  0  0  0  0
  190.2650  176.3690  138.2810 C   0  0  0  0  0  0  0  0  0  0  0  0
  190.1350  176.8140  136.9240 N   0  0  0  0  0  0  0  0  0  0  0  0
  189.0280  178.4530  138.9630 C   0  0  0  0  0  3  0  0  0  0  0  0
  189.7000  177.2000  139.3620 C   0  0  0  0  0  0  0  0  0  0  0  0
  188.9490  178.7940  137.6730 C   0  0  0  0  0  3  0  0  0  0  0  0
  190.8560  175.2860  138.5320 O   0  0  0  0  0  0  0  0  0  0  0  0
  189.7980  176.8260  140.6400 C   0  0  0  0  0  3  0  0  0  0  0  0
  2  1  1  0  0  0  0
  2  4  1  0  0  0  0
  3  2  2  0  0  0  0
  5  1  2  0  0  0  0
  6  7  2  0  0  0  0
  6  3  1  0  0  0  0
  7  5  1  0  0  0  0
  8 11  1  0  0  0  0
 10  9  1  0  0  0  0
 11  9  2  0  0  0  0
 11  7  1  0  0  0  0
 12 10  2  0  0  0  0
 13 12  1  0  0  0  0
 13  8  2  0  0  0  0
 14 12  1  0  0  0  0
 15 14  1  0  0  0  0
 15 16  2  0  0  0  0
 17 19  1  0  0  0  0
 17 18  1  0  0  0  0
 18 20  1  0  0  0  0
 19 21  1  0  0  0  0
 20 15  1  0  0  0  0
 21 20  1  0  0  0  0
 22  3  1  0  0  0  0
 22 25  1  0  0  0  0
 23 22  2  0  0  0  0
 25 24  3  0  0  0  0
 26 23  1  0  0  0  0
 27 26  1  0  0  0  0
 28 30  2  0  0  0  0
 28 33  1  0  0  0  0
 29 34  2  0  0  0  0
 29 32  1  0  0  0  0
 30 29  1  0  0  0  0
 31 32  1  0  0  0  0
 32 35  2  0  0  0  0
 33 31  2  0  0  0  0
 35 27  1  0  0  0  0
M  END
>  <MODEL>
4

>  <REMARK>
 VINA RESULT:      -9.3      1.725      2.297
  Name = 
  8 active torsions:
  status: ('A' for Active; 'I' for Inactive)
    1  A    between atoms: C_2  and  O_26
    2  A    between atoms: C_8  and  C_11
    3  A    between atoms: C_8  and  C_21
    4  A    between atoms: C_14  and  C_16
    5  A    between atoms: C_14  and  C_31
    6  A    between atoms: O_26  and  C_34
    7  A    between atoms: C_28  and  C_33
    8  A    between atoms: C_31  and  C_32
                            x       y       z     vdW  Elec       q    Type
                         _______ _______ _______ _____ _____    ______ ____

>  <TORSDO>
F 8

$$$$
=
 OpenBabel10232409423D

 35 38  0  0  0  0  0  0  0  0999 V2000
  191.4270  176.6410  145.6020 C   0  0  0  0  0  3  0  0  0  0  0  0
  190.3470  176.9130  146.4450 C   0  0  0  0  0  0  0  0  0  0  0  0
  189.1290  177.3730  145.9070 C   0  0  0  0  0  0  0  0  0  0  0  0
  190.5050  176.7390  147.8150 O   0  0  0  0  0  1  0  0  0  0  0  0
  191.3080  176.8210  144.2220 C   0  0  0  0  0  3  0  0  0  0  0  0
  189.0240  177.5450  144.5180 C   0  0  0  0  0  3  0  0  0  0  0  0
  190.1050  177.2770  143.6640 C   0  0  0  0  0  0  0  0  0  0  0  0
  188.7550  177.8730  141.6360 C   0  0  0  0  0  3  0  0  0  0  0  0
  191.0720  177.2500  141.3510 C   0  0  0  0  0  3  0  0  0  0  0  0
  190.9510  177.4320  139.9710 C   0  0  0  0  0  3  0  0  0  0  0  0
  189.9750  177.4690  142.2000 C   0  0  0  0  0  0  0  0  0  0  0  0
  189.7360  177.8370  139.4110 C   0  0  0  0  0  0  0  0  0  0  0  0
  188.6360  178.0550  140.2560 C   0  0  0  0  0  3  0  0  0  0  0  0
  189.6680  178.0080  138.0200 O   0  0  0  0  0  0  0  0  0  0  0  0
  189.0590  177.1370  137.1020 C   0  0  0  0  0  0  0  0  0  0  0  0
  187.8110  177.1450  136.9260 O   0  0  0  0  0  0  0  0  0  0  0  0
  191.8920  175.3330  135.4200 C   0  0  0  0  0  2  0  0  0  0  0  0
  191.3100  176.1690  136.5420 C   0  0  0  0  0  2  0  0  0  0  0  0
  190.6150  174.1740  134.8500 S   0  0  0  0  0  0  0  0  0  0  0  0
  189.8740  176.2290  136.3520 N   0  0  0  0  0  0  0  0  0  0  0  0
  189.3050  175.3140  135.3800 C   0  0  0  0  0  2  0  0  0  0  0  0
  187.9490  177.6360  146.7710 C   0  0  0  0  0  0  0  0  0  0  0  0
  186.6940  177.6490  146.3100 C   0  0  0  0  0  3  0  0  0  0  0  0
  188.2950  178.0460  149.3110 N   0  0  0  0  0  0  0  0  0  0  0  0
  188.1400  177.8630  148.1790 C   0  0  0  0  0  0  0  0  0  0  0  0
  186.3240  177.4590  144.8770 C   0  0  0  0  0  2  0  0  0  0  0  0
  185.8630  178.7760  144.2940 C   0  0  0  0  0  2  0  0  0  0  0  0
  181.0720  178.7860  142.3750 C   0  0  0  0  0  3  0  0  0  0  0  0
  183.2560  178.3680  141.4960 C   0  0  0  0  0  0  0  0  0  0  0  0
  181.8320  178.4750  141.3630 N   0  0  0  0  0  0  0  0  0  0  0  0
  182.9600  178.9660  143.9230 C   0  0  0  0  0  3  0  0  0  0  0  0
  183.8700  178.6180  142.8140 C   0  0  0  0  0  0  0  0  0  0  0  0
  181.6420  179.0440  143.7140 C   0  0  0  0  0  3  0  0  0  0  0  0
  183.9580  178.0670  140.4950 O   0  0  0  0  0  0  0  0  0  0  0  0
  185.1920  178.5300  142.9840 C   0  0  0  0  0  3  0  0  0  0  0  0
  1  2  1  0  0  0  0
  2  4  1  0  0  0  0
  3  2  2  0  0  0  0
  3 22  1  0  0  0  0
  5  1  2  0  0  0  0
  6  3  1  0  0  0  0
  7  5  1  0  0  0  0
  7  6  2  0  0  0  0
  8 11  1  0  0  0  0
  9 11  2  0  0  0  0
 10  9  1  0  0  0  0
 11  7  1  0  0  0  0
 12 10  2  0  0  0  0
 12 13  1  0  0  0  0
 13  8  2  0  0  0  0
 14 12  1  0  0  0  0
 15 14  1  0  0  0  0
 16 15  2  0  0  0  0
 17 18  1  0  0  0  0
 19 21  1  0  0  0  0
 19 17  1  0  0  0  0
 20 18  1  0  0  0  0
 20 15  1  0  0  0  0
 21 20  1  0  0  0  0
 22 25  1  0  0  0  0
 23 22  2  0  0  0  0
 25 24  3  0  0  0  0
 26 23  1  0  0  0  0
 27 26  1  0  0  0  0
 28 33  1  0  0  0  0
 29 32  1  0  0  0  0
 30 29  1  0  0  0  0
 30 28  2  0  0  0  0
 32 35  2  0  0  0  0
 32 31  1  0  0  0  0
 33 31  2  0  0  0  0
 34 29  2  0  0  0  0
 35 27  1  0  0  0  0
M  END
>  <MODEL>
5

>  <REMARK>
 VINA RESULT:      -8.9      2.326      6.096
  Name = 
  8 active torsions:
  status: ('A' for Active; 'I' for Inactive)
    1  A    between atoms: C_2  and  O_26
    2  A    between atoms: C_8  and  C_11
    3  A    between atoms: C_8  and  C_21
    4  A    between atoms: C_14  and  C_16
    5  A    between atoms: C_14  and  C_31
    6  A    between atoms: O_26  and  C_34
    7  A    between atoms: C_28  and  C_33
    8  A    between atoms: C_31  and  C_32
                            x       y       z     vdW  Elec       q    Type
                         _______ _______ _______ _____ _____    ______ ____

>  <TORSDO>
F 8

$$$$
=
 OpenBabel10232409423D

 35 38  0  0  0  0  0  0  0  0999 V2000
  185.2250  178.4670  146.5180 C   0  0  0  0  0  3  0  0  0  0  0  0
  186.5500  178.0410  146.6430 C   0  0  0  0  0  0  0  0  0  0  0  0
  187.3260  177.8020  145.4910 C   0  0  0  0  0  0  0  0  0  0  0  0
  187.0750  177.8420  147.9140 O   0  0  0  0  0  1  0  0  0  0  0  0
  184.6610  178.6600  145.2560 C   0  0  0  0  0  3  0  0  0  0  0  0
  186.7450  178.0050  144.2290 C   0  0  0  0  0  3  0  0  0  0  0  0
  185.4150  178.4290  144.0960 C   0  0  0  0  0  0  0  0  0  0  0  0
  183.4290  178.5690  142.5710 C   0  0  0  0  0  3  0  0  0  0  0  0
  185.6350  178.8940  141.6420 C   0  0  0  0  0  3  0  0  0  0  0  0
  185.0730  179.0880  140.3770 C   0  0  0  0  0  3  0  0  0  0  0  0
  184.8190  178.6330  142.7540 C   0  0  0  0  0  0  0  0  0  0  0  0
  183.6890  179.0260  140.1970 C   0  0  0  0  0  0  0  0  0  0  0  0
  182.8690  178.7640  141.3060 C   0  0  0  0  0  3  0  0  0  0  0  0
  183.1760  179.2310  138.9070 O   0  0  0  0  0  0  0  0  0  0  0  0
  182.3680  178.3410  138.1810 C   0  0  0  0  0  0  0  0  0  0  0  0
  181.1120  178.3580  138.2970 O   0  0  0  0  0  0  0  0  0  0  0  0
  184.7290  176.4570  135.9490 C   0  0  0  0  0  2  0  0  0  0  0  0
  184.4250  177.3310  137.1480 C   0  0  0  0  0  2  0  0  0  0  0  0
  183.3500  175.2960  135.7230 S   0  0  0  0  0  0  0  0  0  0  0  0
  182.9840  177.4020  137.2920 N   0  0  0  0  0  0  0  0  0  0  0  0
  182.2020  176.4660  136.5050 C   0  0  0  0  0  2  0  0  0  0  0  0
  188.7480  177.3840  145.5870 C   0  0  0  0  0  0  0  0  0  0  0  0
  189.4440  176.9140  144.5460 C   0  0  0  0  0  3  0  0  0  0  0  0
  189.9940  177.6100  147.8530 N   0  0  0  0  0  0  0  0  0  0  0  0
  189.4390  177.5090  146.8430 C   0  0  0  0  0  0  0  0  0  0  0  0
  188.8730  176.6970  143.1850 C   0  0  0  0  0  2  0  0  0  0  0  0
  189.5280  177.6460  142.2050 C   0  0  0  0  0  2  0  0  0  0  0  0
  189.3490  177.9660  137.0570 C   0  0  0  0  0  3  0  0  0  0  0  0
  190.3130  176.4510  138.6350 C   0  0  0  0  0  0  0  0  0  0  0  0
  190.0410  176.8890  137.2970 N   0  0  0  0  0  0  0  0  0  0  0  0
  189.0180  178.4570  139.4330 C   0  0  0  0  0  3  0  0  0  0  0  0
  189.7950  177.2460  139.7640 C   0  0  0  0  0  0  0  0  0  0  0  0
  188.8090  178.7940  138.1560 C   0  0  0  0  0  3  0  0  0  0  0  0
  190.9880  175.4050  138.8270 O   0  0  0  0  0  0  0  0  0  0  0  0
  190.0260  176.8770  141.0270 C   0  0  0  0  0  3  0  0  0  0  0  0
  1  2  1  0  0  0  0
  2  4  1  0  0  0  0
  3 22  1  0  0  0  0
  3  2  2  0  0  0  0
  5  1  2  0  0  0  0
  6  3  1  0  0  0  0
  7  6  2  0  0  0  0
  7  5  1  0  0  0  0
  8 11  1  0  0  0  0
  9 11  2  0  0  0  0
 10  9  1  0  0  0  0
 11  7  1  0  0  0  0
 12 10  2  0  0  0  0
 12 13  1  0  0  0  0
 13  8  2  0  0  0  0
 14 12  1  0  0  0  0
 15 16  2  0  0  0  0
 15 14  1  0  0  0  0
 17 18  1  0  0  0  0
 18 20  1  0  0  0  0
 19 17  1  0  0  0  0
 19 21  1  0  0  0  0
 20 15  1  0  0  0  0
 21 20  1  0  0  0  0
 22 25  1  0  0  0  0
 23 22  2  0  0  0  0
 25 24  3  0  0  0  0
 26 23  1  0  0  0  0
 27 26  1  0  0  0  0
 28 30  2  0  0  0  0
 28 33  1  0  0  0  0
 29 34  2  0  0  0  0
 29 32  1  0  0  0  0
 30 29  1  0  0  0  0
 31 32  1  0  0  0  0
 32 35  2  0  0  0  0
 33 31  2  0  0  0  0
 35 27  1  0  0  0  0
M  END
>  <MODEL>
6

>  <REMARK>
 VINA RESULT:      -8.6      1.763      2.496
  Name = 
  8 active torsions:
  status: ('A' for Active; 'I' for Inactive)
    1  A    between atoms: C_2  and  O_26
    2  A    between atoms: C_8  and  C_11
    3  A    between atoms: C_8  and  C_21
    4  A    between atoms: C_14  and  C_16
    5  A    between atoms: C_14  and  C_31
    6  A    between atoms: O_26  and  C_34
    7  A    between atoms: C_28  and  C_33
    8  A    between atoms: C_31  and  C_32
                            x       y       z     vdW  Elec       q    Type
                         _______ _______ _______ _____ _____    ______ ____

>  <TORSDO>
F 8

$$$$
=
 OpenBabel10232409423D

 35 38  0  0  0  0  0  0  0  0999 V2000
  187.7380  177.3050  146.2120 C   0  0  0  0  0  3  0  0  0  0  0  0
  188.9400  177.4570  145.5170 C   0  0  0  0  0  0  0  0  0  0  0  0
  188.9300  177.8790  144.1720 C   0  0  0  0  0  0  0  0  0  0  0  0
  190.1340  177.1700  146.1690 O   0  0  0  0  0  1  0  0  0  0  0  0
  186.5200  177.5690  145.5820 C   0  0  0  0  0  3  0  0  0  0  0  0
  187.6980  178.1450  143.5550 C   0  0  0  0  0  3  0  0  0  0  0  0
  186.4860  177.9900  144.2450 C   0  0  0  0  0  0  0  0  0  0  0  0
  185.0500  178.0790  142.1910 C   0  0  0  0  0  3  0  0  0  0  0  0
  184.0940  178.7370  144.3100 C   0  0  0  0  0  3  0  0  0  0  0  0
  182.8750  179.0020  143.6770 C   0  0  0  0  0  3  0  0  0  0  0  0
  185.1950  178.2720  143.5730 C   0  0  0  0  0  0  0  0  0  0  0  0
  182.7320  178.8060  142.3000 C   0  0  0  0  0  0  0  0  0  0  0  0
  183.8310  178.3430  141.5610 C   0  0  0  0  0  3  0  0  0  0  0  0
  181.4880  179.0840  141.7150 O   0  0  0  0  0  0  0  0  0  0  0  0
  180.8820  178.3700  140.6670 C   0  0  0  0  0  0  0  0  0  0  0  0
  180.3080  177.2680  140.8770 O   0  0  0  0  0  0  0  0  0  0  0  0
  181.1990  180.5850  137.6500 C   0  0  0  0  0  2  0  0  0  0  0  0
  181.5870  180.1630  139.0520 C   0  0  0  0  0  2  0  0  0  0  0  0
  180.7820  179.0930  136.7000 S   0  0  0  0  0  0  0  0  0  0  0  0
  180.9160  178.9100  139.3420 N   0  0  0  0  0  0  0  0  0  0  0  0
  180.2970  178.2270  138.2200 C   0  0  0  0  0  2  0  0  0  0  0  0
  190.1910  178.0880  143.4160 C   0  0  0  0  0  0  0  0  0  0  0  0
  190.3700  177.6610  142.1610 C   0  0  0  0  0  3  0  0  0  0  0  0
  192.1490  179.3810  144.5290 N   0  0  0  0  0  0  0  0  0  0  0  0
  191.2760  178.8040  144.0330 C   0  0  0  0  0  0  0  0  0  0  0  0
  189.3600  176.8830  141.3880 C   0  0  0  0  0  2  0  0  0  0  0  0
  189.4520  177.2470  139.9220 C   0  0  0  0  0  2  0  0  0  0  0  0
  186.0360  176.6050  136.1070 C   0  0  0  0  0  3  0  0  0  0  0  0
  186.2210  178.0550  137.9990 C   0  0  0  0  0  0  0  0  0  0  0  0
  185.5480  177.5740  136.8280 N   0  0  0  0  0  0  0  0  0  0  0  0
  188.0040  176.3380  137.5410 C   0  0  0  0  0  3  0  0  0  0  0  0
  187.4990  177.4310  138.3940 C   0  0  0  0  0  0  0  0  0  0  0  0
  187.3130  175.9500  136.4630 C   0  0  0  0  0  3  0  0  0  0  0  0
  185.7170  178.9930  138.6710 O   0  0  0  0  0  0  0  0  0  0  0  0
  188.1600  177.8450  139.4780 C   0  0  0  0  0  3  0  0  0  0  0  0
  2  4  1  0  0  0  0
  2  1  2  0  0  0  0
  3  2  1  0  0  0  0
  5  1  1  0  0  0  0
  6  3  2  0  0  0  0
  6  7  1  0  0  0  0
  7  5  2  0  0  0  0
  8 11  1  0  0  0  0
 10  9  1  0  0  0  0
 11  7  1  0  0  0  0
 11  9  2  0  0  0  0
 12 10  2  0  0  0  0
 13  8  2  0  0  0  0
 13 12  1  0  0  0  0
 14 12  1  0  0  0  0
 15 16  2  0  0  0  0
 15 14  1  0  0  0  0
 17 18  1  0  0  0  0
 18 20  1  0  0  0  0
 19 17  1  0  0  0  0
 19 21  1  0  0  0  0
 20 15  1  0  0  0  0
 21 20  1  0  0  0  0
 22 25  1  0  0  0  0
 22  3  1  0  0  0  0
 23 22  2  0  0  0  0
 25 24  3  0  0  0  0
 26 23  1  0  0  0  0
 27 26  1  0  0  0  0
 28 33  1  0  0  0  0
 28 30  2  0  0  0  0
 29 32  1  0  0  0  0
 29 34  2  0  0  0  0
 30 29  1  0  0  0  0
 31 32  1  0  0  0  0
 32 35  2  0  0  0  0
 33 31  2  0  0  0  0
 35 27  1  0  0  0  0
M  END
>  <MODEL>
7

>  <REMARK>
 VINA RESULT:      -8.6      2.087      2.957
  Name = 
  8 active torsions:
  status: ('A' for Active; 'I' for Inactive)
    1  A    between atoms: C_2  and  O_26
    2  A    between atoms: C_8  and  C_11
    3  A    between atoms: C_8  and  C_21
    4  A    between atoms: C_14  and  C_16
    5  A    between atoms: C_14  and  C_31
    6  A    between atoms: O_26  and  C_34
    7  A    between atoms: C_28  and  C_33
    8  A    between atoms: C_31  and  C_32
                            x       y       z     vdW  Elec       q    Type
                         _______ _______ _______ _____ _____    ______ ____

>  <TORSDO>
F 8

$$$$
=
 OpenBabel10232409423D

 35 38  0  0  0  0  0  0  0  0999 V2000
  190.8420  177.4070  144.9940 C   0  0  0  0  0  3  0  0  0  0  0  0
  189.8600  177.5300  145.9800 C   0  0  0  0  0  0  0  0  0  0  0  0
  188.5160  177.7460  145.6150 C   0  0  0  0  0  0  0  0  0  0  0  0
  190.2370  177.4540  147.3160 O   0  0  0  0  0  1  0  0  0  0  0  0
  190.5000  177.4960  143.6430 C   0  0  0  0  0  3  0  0  0  0  0  0
  188.1890  177.8280  144.2530 C   0  0  0  0  0  3  0  0  0  0  0  0
  189.1690  177.7100  143.2570 C   0  0  0  0  0  0  0  0  0  0  0  0
  187.5890  178.3870  141.4310 C   0  0  0  0  0  3  0  0  0  0  0  0
  189.6680  177.3110  140.8320 C   0  0  0  0  0  3  0  0  0  0  0  0
  189.3240  177.4000  139.4800 C   0  0  0  0  0  3  0  0  0  0  0  0
  188.8040  177.8040  141.8230 C   0  0  0  0  0  0  0  0  0  0  0  0
  188.1140  177.9840  139.0910 C   0  0  0  0  0  0  0  0  0  0  0  0
  187.2480  178.4770  140.0790 C   0  0  0  0  0  3  0  0  0  0  0  0
  187.8190  178.0520  137.7220 O   0  0  0  0  0  0  0  0  0  0  0  0
  188.4250  177.3030  136.7000 C   0  0  0  0  0  0  0  0  0  0  0  0
  189.3670  177.7830  136.0120 O   0  0  0  0  0  0  0  0  0  0  0  0
  186.8270  173.9090  136.8780 C   0  0  0  0  0  2  0  0  0  0  0  0
  186.8700  175.3900  137.1910 C   0  0  0  0  0  2  0  0  0  0  0  0
  187.5410  173.6530  135.2280 S   0  0  0  0  0  0  0  0  0  0  0  0
  187.9670  175.9720  136.4410 N   0  0  0  0  0  0  0  0  0  0  0  0
  188.5620  175.1430  135.4080 C   0  0  0  0  0  2  0  0  0  0  0  0
  187.4410  177.8440  146.6360 C   0  0  0  0  0  0  0  0  0  0  0  0
  186.1410  177.8860  146.3280 C   0  0  0  0  0  3  0  0  0  0  0  0
  188.0750  177.8900  149.1540 N   0  0  0  0  0  0  0  0  0  0  0  0
  187.7920  177.8690  148.0320 C   0  0  0  0  0  0  0  0  0  0  0  0
  185.6100  177.8950  144.9340 C   0  0  0  0  0  2  0  0  0  0  0  0
  185.1020  179.2800  144.5940 C   0  0  0  0  0  2  0  0  0  0  0  0
  182.1040  178.1270  140.5550 C   0  0  0  0  0  3  0  0  0  0  0  0
  181.7250  178.8040  142.8160 C   0  0  0  0  0  0  0  0  0  0  0  0
  181.2700  178.4230  141.5110 N   0  0  0  0  0  0  0  0  0  0  0  0
  184.0730  178.5150  141.9570 C   0  0  0  0  0  3  0  0  0  0  0  0
  183.1760  178.8610  143.0770 C   0  0  0  0  0  0  0  0  0  0  0  0
  183.5660  178.1710  140.7690 C   0  0  0  0  0  3  0  0  0  0  0  0
  180.8890  179.0820  143.7160 O   0  0  0  0  0  0  0  0  0  0  0  0
  183.6460  179.2100  144.2770 C   0  0  0  0  0  3  0  0  0  0  0  0
  1  2  1  0  0  0  0
  2  4  1  0  0  0  0
  3  2  2  0  0  0  0
  3 22  1  0  0  0  0
  5  1  2  0  0  0  0
  6  3  1  0  0  0  0
  7  5  1  0  0  0  0
  7  6  2  0  0  0  0
  8 11  1  0  0  0  0
  9 11  2  0  0  0  0
 10  9  1  0  0  0  0
 11  7  1  0  0  0  0
 12 10  2  0  0  0  0
 12 13  1  0  0  0  0
 13  8  2  0  0  0  0
 14 12  1  0  0  0  0
 15 14  1  0  0  0  0
 16 15  2  0  0  0  0
 17 18  1  0  0  0  0
 19 21  1  0  0  0  0
 19 17  1  0  0  0  0
 20 15  1  0  0  0  0
 20 18  1  0  0  0  0
 21 20  1  0  0  0  0
 22 25  1  0  0  0  0
 23 22  2  0  0  0  0
 25 24  3  0  0  0  0
 26 23  1  0  0  0  0
 27 26  1  0  0  0  0
 28 33  1  0  0  0  0
 28 30  2  0  0  0  0
 29 32  1  0  0  0  0
 29 34  2  0  0  0  0
 30 29  1  0  0  0  0
 31 32  1  0  0  0  0
 32 35  2  0  0  0  0
 33 31  2  0  0  0  0
 35 27  1  0  0  0  0
M  END
>  <MODEL>
8

>  <REMARK>
 VINA RESULT:      -8.3      2.173      5.465
  Name = 
  8 active torsions:
  status: ('A' for Active; 'I' for Inactive)
    1  A    between atoms: C_2  and  O_26
    2  A    between atoms: C_8  and  C_11
    3  A    between atoms: C_8  and  C_21
    4  A    between atoms: C_14  and  C_16
    5  A    between atoms: C_14  and  C_31
    6  A    between atoms: O_26  and  C_34
    7  A    between atoms: C_28  and  C_33
    8  A    between atoms: C_31  and  C_32
                            x       y       z     vdW  Elec       q    Type
                         _______ _______ _______ _____ _____    ______ ____

>  <TORSDO>
F 8

$$$$
=
 OpenBabel10232409423D

 35 38  0  0  0  0  0  0  0  0999 V2000
  189.0880  177.7650  146.4330 C   0  0  0  0  0  3  0  0  0  0  0  0
  190.1710  177.1440  145.8060 C   0  0  0  0  0  0  0  0  0  0  0  0
  190.0930  176.7970  144.4420 C   0  0  0  0  0  0  0  0  0  0  0  0
  191.3080  176.8610  146.5540 O   0  0  0  0  0  1  0  0  0  0  0  0
  187.9240  178.0490  145.7150 C   0  0  0  0  0  3  0  0  0  0  0  0
  188.9180  177.0930  143.7340 C   0  0  0  0  0  3  0  0  0  0  0  0
  187.8250  177.7130  144.3570 C   0  0  0  0  0  0  0  0  0  0  0  0
  185.3540  178.1280  144.2460 C   0  0  0  0  0  3  0  0  0  0  0  0
  186.6380  178.1860  142.2000 C   0  0  0  0  0  3  0  0  0  0  0  0
  185.4740  178.4690  141.4790 C   0  0  0  0  0  3  0  0  0  0  0  0
  186.5910  178.0130  143.5930 C   0  0  0  0  0  0  0  0  0  0  0  0
  184.2440  178.5870  142.1320 C   0  0  0  0  0  0  0  0  0  0  0  0
  184.1930  178.4130  143.5240 C   0  0  0  0  0  3  0  0  0  0  0  0
  183.1070  178.8760  141.3620 O   0  0  0  0  0  0  0  0  0  0  0  0
  182.6010  178.1060  140.3010 C   0  0  0  0  0  0  0  0  0  0  0  0
  182.6310  176.8460  140.3400 O   0  0  0  0  0  0  0  0  0  0  0  0
  181.1140  180.5820  137.9010 C   0  0  0  0  0  2  0  0  0  0  0  0
  182.0100  180.2130  139.0650 C   0  0  0  0  0  2  0  0  0  0  0  0
  181.1280  179.2090  136.7120 S   0  0  0  0  0  0  0  0  0  0  0  0
  182.0410  178.7660  139.1620 N   0  0  0  0  0  0  0  0  0  0  0  0
  181.4910  178.0260  138.0410 C   0  0  0  0  0  2  0  0  0  0  0  0
  191.2390  176.1690  143.7350 C   0  0  0  0  0  0  0  0  0  0  0  0
  191.6420  176.5460  142.5170 C   0  0  0  0  0  3  0  0  0  0  0  0
  192.5820  174.2810  144.9070 N   0  0  0  0  0  0  0  0  0  0  0  0
  191.9830  175.1230  144.3840 C   0  0  0  0  0  0  0  0  0  0  0  0
  190.9660  177.5940  141.6970 C   0  0  0  0  0  2  0  0  0  0  0  0
  190.1290  176.9350  140.6230 C   0  0  0  0  0  2  0  0  0  0  0  0
  187.7820  177.0700  136.0280 C   0  0  0  0  0  3  0  0  0  0  0  0
  188.7310  178.6950  137.5030 C   0  0  0  0  0  0  0  0  0  0  0  0
  188.0620  178.3150  136.2930 N   0  0  0  0  0  0  0  0  0  0  0  0
  188.7650  176.2550  138.1180 C   0  0  0  0  0  3  0  0  0  0  0  0
  189.1070  177.6470  138.4700 C   0  0  0  0  0  0  0  0  0  0  0  0
  188.1410  175.9860  136.9670 C   0  0  0  0  0  3  0  0  0  0  0  0
  188.9840  179.9100  137.7240 O   0  0  0  0  0  0  0  0  0  0  0  0
  189.7300  177.9550  139.6100 C   0  0  0  0  0  3  0  0  0  0  0  0
  2  1  1  0  0  0  0
  2  4  1  0  0  0  0
  3  2  2  0  0  0  0
  5  1  2  0  0  0  0
  6  7  2  0  0  0  0
  6  3  1  0  0  0  0
  7  5  1  0  0  0  0
  9 11  2  0  0  0  0
 10 12  2  0  0  0  0
 10  9  1  0  0  0  0
 11  8  1  0  0  0  0
 11  7  1  0  0  0  0
 12 13  1  0  0  0  0
 13  8  2  0  0  0  0
 14 12  1  0  0  0  0
 15 16  2  0  0  0  0
 15 14  1  0  0  0  0
 17 18  1  0  0  0  0
 18 20  1  0  0  0  0
 19 17  1  0  0  0  0
 19 21  1  0  0  0  0
 20 15  1  0  0  0  0
 21 20  1  0  0  0  0
 22 25  1  0  0  0  0
 22  3  1  0  0  0  0
 23 22  2  0  0  0  0
 25 24  3  0  0  0  0
 26 23  1  0  0  0  0
 27 26  1  0  0  0  0
 28 30  2  0  0  0  0
 28 33  1  0  0  0  0
 29 34  2  0  0  0  0
 29 32  1  0  0  0  0
 30 29  1  0  0  0  0
 31 32  1  0  0  0  0
 32 35  2  0  0  0  0
 33 31  2  0  0  0  0
 35 27  1  0  0  0  0
M  END
>  <MODEL>
9

>  <REMARK>
 VINA RESULT:      -8.2      1.767      2.348
  Name = 
  8 active torsions:
  status: ('A' for Active; 'I' for Inactive)
    1  A    between atoms: C_2  and  O_26
    2  A    between atoms: C_8  and  C_11
    3  A    between atoms: C_8  and  C_21
    4  A    between atoms: C_14  and  C_16
    5  A    between atoms: C_14  and  C_31
    6  A    between atoms: O_26  and  C_34
    7  A    between atoms: C_28  and  C_33
    8  A    between atoms: C_31  and  C_32
                            x       y       z     vdW  Elec       q    Type
                         _______ _______ _______ _____ _____    ______ ____

>  <TORSDO>
F 8

$$$$
