=
 OpenBabel10222421543D

 40 47  0  0  1  0  0  0  0  0999 V2000
  182.6630  174.8920  136.7800 C   0  0  0  0  0  0  0  0  0  0  0  0
  182.8950  173.6890  136.0430 N   0  0  0  0  0  2  0  0  0  0  0  0
  181.9060  176.0620  138.6060 N   0  0  0  0  0  0  0  0  0  0  0  0
  182.0000  177.4050  138.0300 C   0  0  2  0  0  3  0  0  0  0  0  0
  182.8700  177.3300  136.8470 N   0  0  0  0  0  0  0  0  0  0  0  0
  182.6350  177.9490  139.2410 C   0  0  1  0  0  3  0  0  0  0  0  0
  182.0950  174.8480  137.9490 N   0  0  0  0  0  0  0  0  0  0  0  0
  182.4470  176.6390  139.7940 N   0  0  0  0  0  2  0  0  0  0  0  0
  183.1620  176.2000  136.2460 C   0  0  0  0  0  0  0  0  0  0  0  0
  181.6520  170.8080  135.3150 C   0  0  0  0  0  2  0  0  0  0  0  0
  181.0710  171.9100  136.1680 C   0  0  0  0  0  2  0  0  0  0  0  0
  182.4670  172.3800  136.5120 C   0  0  1  0  0  0  0  0  0  0  0  0
  183.0480  171.3580  135.5370 C   0  0  1  0  0  3  0  0  0  0  0  0
  183.4990  171.3750  136.9790 C   0  0  0  0  0  2  0  0  0  0  0  0
  184.0670  178.2010  139.0610 N   0  0  1  0  0  0  0  0  0  0  0  0
  184.2250  179.6720  139.0930 C   0  0  0  0  0  2  0  0  0  0  0  0
  186.1690  178.5900  140.3510 C   0  0  0  0  0  1  0  0  0  0  0  0
  184.6850  178.8820  140.2230 C   0  0  2  0  0  0  0  0  0  0  0  0
  183.8680  178.8980  141.4380 N   0  0  0  0  0  2  0  0  0  0  0  0
  184.4370  177.9490  142.3830 C   0  0  0  0  0  2  0  0  0  0  0  0
  184.6110  178.5990  143.7160 C   0  0  0  0  0  0  0  0  0  0  0  0
  186.7540  177.3600  144.2190 C   0  0  0  0  0  3  0  0  0  0  0  0
  185.7000  178.2360  144.5770 N   0  0  0  0  0  0  0  0  0  0  0  0
  185.9510  178.8010  145.8920 C   0  0  1  0  0  3  0  0  0  0  0  0
  183.7880  179.4820  144.0730 O   0  0  0  0  0  0  0  0  0  0  0  0
  184.8910  178.3240  146.8720 C   0  0  0  0  0  1  0  0  0  0  0  0
  187.6740  177.3190  145.1610 C   0  0  0  0  0  3  0  0  0  0  0  0
  187.3050  178.2180  146.2960 C   0  0  0  0  0  2  0  0  0  0  0  0
  184.7760  177.4830  134.7710 C   0  0  0  0  0  2  0  0  0  0  0  0
  185.5360  176.2590  135.2490 C   0  0  2  0  0  3  0  0  0  0  0  0
  184.0190  176.1890  135.0000 C   0  0  1  0  0  3  0  0  0  0  0  0
  189.3590  178.3180  136.8390 C   0  0  0  0  0  1  0  0  0  0  0  0
  186.6410  175.2010  137.2970 C   0  0  2  0  0  3  0  0  0  0  0  0
  188.7140  176.0350  135.9910 C   0  0  0  0  0  2  0  0  0  0  0  0
  185.9750  176.4580  136.7100 C   0  0  1  0  0  3  0  0  0  0  0  0
  188.0540  174.8880  136.7660 C   0  0  0  0  0  2  0  0  0  0  0  0
  186.9510  177.5880  136.8150 C   0  0  0  0  0  0  0  0  0  0  0  0
  186.5590  178.7370  137.1560 O   0  0  0  0  0  0  0  0  0  0  0  0
  188.3330  177.3320  136.5380 N   0  0  0  0  0  0  0  0  0  0  0  0
  185.8210  174.0780  137.1770 O   0  0  0  0  0  1  0  0  0  0  0  0
  1  7  2  0  0  0  0
  2  1  1  0  0  0  0
  3  8  1  0  0  0  0
  4  5  1  6  0  0  0
  4  3  1  0  0  0  0
  4  6  1  0  0  0  0
  6  8  1  1  0  0  0
  7  3  1  0  0  0  0
  9  1  1  0  0  0  0
  9  5  2  0  0  0  0
 10 11  1  0  0  0  0
 11 12  1  0  0  0  0
 12  2  1  6  0  0  0
 12 14  1  0  0  0  0
 13 10  1  1  0  0  0
 13 12  1  0  0  0  0
 13 14  1  0  0  0  0
 15 16  1  6  0  0  0
 15  6  1  0  0  0  0
 15 18  1  0  0  0  0
 16 18  1  0  0  0  0
 18 17  1  1  0  0  0
 18 19  1  0  0  0  0
 19 20  1  0  0  0  0
 20 21  1  0  0  0  0
 21 25  2  0  0  0  0
 21 23  1  0  0  0  0
 22 23  1  0  0  0  0
 22 27  2  0  0  0  0
 23 24  1  0  0  0  0
 24 28  1  0  0  0  0
 24 26  1  1  0  0  0
 27 28  1  0  0  0  0
 29 31  1  0  0  0  0
 30 29  1  6  0  0  0
 30 35  1  0  0  0  0
 31 30  1  0  0  0  0
 31  9  1  1  0  0  0
 33 40  1  6  0  0  0
 34 39  1  0  0  0  0
 34 36  1  0  0  0  0
 35 37  1  6  0  0  0
 35 33  1  0  0  0  0
 36 33  1  0  0  0  0
 37 38  2  0  0  0  0
 39 37  1  0  0  0  0
 39 32  1  0  0  0  0
M  END
>  <MODEL>
1

>  <REMARK>
 VINA RESULT:      -7.1      0.000      0.000
  Name = 
  7 active torsions:
  status: ('A' for Active; 'I' for Inactive)
    1  A    between atoms: C_3  and  C_35
    2  A    between atoms: N_6  and  C_25
    3  A    between atoms: N_7  and  C_15
    4  A    between atoms: C_16  and  C_23
    5  A    between atoms: C_27  and  N_39
    6  A    between atoms: C_34  and  C_37
    7  A    between atoms: C_35  and  N_39
                            x       y       z     vdW  Elec       q    Type
                         _______ _______ _______ _____ _____    ______ ____

>  <TORSDO>
F 7

$$$$
=
 OpenBabel10222421543D

 40 47  0  0  1  0  0  0  0  0999 V2000
  184.2960  177.2740  137.4850 C   0  0  0  0  0  0  0  0  0  0  0  0
  183.9880  176.4920  136.3270 N   0  0  0  0  0  2  0  0  0  0  0  0
  183.9720  177.9220  139.6650 N   0  0  0  0  0  0  0  0  0  0  0  0
  184.8350  179.1040  139.6470 C   0  0  2  0  0  3  0  0  0  0  0  0
  185.7170  179.0030  138.4750 N   0  0  0  0  0  0  0  0  0  0  0  0
  185.4570  178.7470  140.9330 C   0  0  1  0  0  3  0  0  0  0  0  0
  183.6090  177.1260  138.5790 N   0  0  0  0  0  0  0  0  0  0  0  0
  184.5350  177.6480  140.9460 N   0  0  0  0  0  2  0  0  0  0  0  0
  185.4750  178.1970  137.4670 C   0  0  0  0  0  0  0  0  0  0  0  0
  181.8740  174.8640  134.5240 C   0  0  0  0  0  2  0  0  0  0  0  0
  181.6230  175.9550  135.5390 C   0  0  0  0  0  2  0  0  0  0  0  0
  182.8780  175.5540  136.2800 C   0  0  1  0  0  0  0  0  0  0  0  0
  183.2060  174.5490  135.1770 C   0  0  1  0  0  3  0  0  0  0  0  0
  183.1130  174.0960  136.6160 C   0  0  0  0  0  2  0  0  0  0  0  0
  186.8210  178.2370  140.7750 N   0  0  1  0  0  0  0  0  0  0  0  0
  187.7080  179.2690  141.3530 C   0  0  0  0  0  2  0  0  0  0  0  0
  188.5890  176.9550  141.9840 C   0  0  0  0  0  1  0  0  0  0  0  0
  187.5110  178.0190  142.0680 C   0  0  2  0  0  0  0  0  0  0  0  0
  186.6400  178.0410  143.2450 N   0  0  0  0  0  2  0  0  0  0  0  0
  187.1510  177.0770  144.2080 C   0  0  0  0  0  2  0  0  0  0  0  0
  187.3150  177.7280  145.5420 C   0  0  0  0  0  0  0  0  0  0  0  0
  189.6560  176.8360  145.8660 C   0  0  0  0  0  3  0  0  0  0  0  0
  188.5060  177.5290  146.3170 N   0  0  0  0  0  0  0  0  0  0  0  0
  188.7590  178.1090  147.6260 C   0  0  1  0  0  3  0  0  0  0  0  0
  186.3920  178.4650  145.9760 O   0  0  0  0  0  0  0  0  0  0  0  0
  187.8600  177.4570  148.6630 C   0  0  0  0  0  1  0  0  0  0  0  0
  190.6360  176.9280  146.7420 C   0  0  0  0  0  3  0  0  0  0  0  0
  190.2130  177.7420  147.9220 C   0  0  0  0  0  2  0  0  0  0  0  0
  187.7490  178.7970  136.5190 C   0  0  0  0  0  2  0  0  0  0  0  0
  187.6380  177.2860  136.4050 C   0  0  2  0  0  3  0  0  0  0  0  0
  186.3890  178.1750  136.2630 C   0  0  1  0  0  3  0  0  0  0  0  0
  191.6380  176.1950  138.4530 C   0  0  0  0  0  1  0  0  0  0  0  0
  187.6800  175.1160  137.7550 C   0  0  2  0  0  3  0  0  0  0  0  0
  190.0780  175.1400  136.7800 C   0  0  0  0  0  2  0  0  0  0  0  0
  187.8590  176.6440  137.7860 C   0  0  1  0  0  3  0  0  0  0  0  0
  188.8040  174.3290  137.0520 C   0  0  0  0  0  2  0  0  0  0  0  0
  189.2390  176.9360  138.2850 C   0  0  0  0  0  0  0  0  0  0  0  0
  189.4350  177.8830  139.0960 O   0  0  0  0  0  0  0  0  0  0  0  0
  190.3230  176.1130  137.8380 N   0  0  0  0  0  0  0  0  0  0  0  0
  186.4380  174.7520  137.2350 O   0  0  0  0  0  1  0  0  0  0  0  0
  1  7  2  0  0  0  0
  2  1  1  0  0  0  0
  3  8  1  0  0  0  0
  4  5  1  6  0  0  0
  4  3  1  0  0  0  0
  4  6  1  0  0  0  0
  6  8  1  6  0  0  0
  7  3  1  0  0  0  0
  9  1  1  0  0  0  0
  9  5  2  0  0  0  0
 10 11  1  0  0  0  0
 11 12  1  0  0  0  0
 12  2  1  1  0  0  0
 12 14  1  0  0  0  0
 13 10  1  6  0  0  0
 13 12  1  0  0  0  0
 13 14  1  0  0  0  0
 15  6  1  0  0  0  0
 15 16  1  6  0  0  0
 15 18  1  0  0  0  0
 16 18  1  0  0  0  0
 18 17  1  1  0  0  0
 18 19  1  0  0  0  0
 19 20  1  0  0  0  0
 20 21  1  0  0  0  0
 21 25  2  0  0  0  0
 21 23  1  0  0  0  0
 22 23  1  0  0  0  0
 22 27  2  0  0  0  0
 23 24  1  0  0  0  0
 24 28  1  0  0  0  0
 24 26  1  1  0  0  0
 27 28  1  0  0  0  0
 30 29  1  1  0  0  0
 30 35  1  0  0  0  0
 31 30  1  0  0  0  0
 31 29  1  0  0  0  0
 31  9  1  1  0  0  0
 33 40  1  6  0  0  0
 33 35  1  0  0  0  0
 34 36  1  0  0  0  0
 34 39  1  0  0  0  0
 35 37  1  6  0  0  0
 36 33  1  0  0  0  0
 37 38  2  0  0  0  0
 39 37  1  0  0  0  0
 39 32  1  0  0  0  0
M  END
>  <MODEL>
2

>  <REMARK>
 VINA RESULT:      -6.4      2.085      3.174
  Name = 
  7 active torsions:
  status: ('A' for Active; 'I' for Inactive)
    1  A    between atoms: C_3  and  C_35
    2  A    between atoms: N_6  and  C_25
    3  A    between atoms: N_7  and  C_15
    4  A    between atoms: C_16  and  C_23
    5  A    between atoms: C_27  and  N_39
    6  A    between atoms: C_34  and  C_37
    7  A    between atoms: C_35  and  N_39
                            x       y       z     vdW  Elec       q    Type
                         _______ _______ _______ _____ _____    ______ ____

>  <TORSDO>
F 7

$$$$
=
 OpenBabel10222421543D

 40 47  0  0  1  0  0  0  0  0999 V2000
  184.3900  177.4900  137.6840 C   0  0  0  0  0  0  0  0  0  0  0  0
  183.0790  176.9170  137.6450 N   0  0  0  0  0  2  0  0  0  0  0  0
  186.1350  178.5410  138.7450 N   0  0  0  0  0  0  0  0  0  0  0  0
  186.9240  178.8600  137.5540 C   0  0  2  0  0  3  0  0  0  0  0  0
  186.4350  178.0210  136.4490 N   0  0  0  0  0  0  0  0  0  0  0  0
  188.1740  178.4030  138.1820 C   0  0  1  0  0  3  0  0  0  0  0  0
  184.8490  178.0050  138.7870 N   0  0  0  0  0  0  0  0  0  0  0  0
  187.3760  178.1830  139.3530 N   0  0  0  0  0  2  0  0  0  0  0  0
  185.2720  177.4120  136.4770 C   0  0  0  0  0  0  0  0  0  0  0  0
  180.0480  177.0980  138.7200 C   0  0  0  0  0  2  0  0  0  0  0  0
  181.1910  178.0670  138.9170 C   0  0  0  0  0  2  0  0  0  0  0  0
  182.1780  176.9290  138.7870 C   0  0  1  0  0  0  0  0  0  0  0  0
  181.0330  175.9770  138.4450 C   0  0  1  0  0  3  0  0  0  0  0  0
  181.9670  175.6620  139.5890 C   0  0  0  0  0  2  0  0  0  0  0  0
  188.6300  177.1150  137.6540 N   0  0  1  0  0  0  0  0  0  0  0  0
  189.8790  177.4000  136.9150 C   0  0  0  0  0  2  0  0  0  0  0  0
  190.1390  175.1980  138.1870 C   0  0  0  0  0  1  0  0  0  0  0  0
  189.9500  176.7040  138.1900 C   0  0  2  0  0  0  0  0  0  0  0  0
  190.4090  177.4650  139.3530 N   0  0  0  0  0  2  0  0  0  0  0  0
  190.3950  176.5830  140.5100 C   0  0  0  0  0  2  0  0  0  0  0  0
  191.0930  177.2350  141.6570 C   0  0  0  0  0  0  0  0  0  0  0  0
  189.2140  176.7620  143.2770 C   0  0  0  0  0  3  0  0  0  0  0  0
  190.4580  177.3470  142.9390 N   0  0  0  0  0  0  0  0  0  0  0  0
  191.0480  177.9690  144.1130 C   0  0  1  0  0  3  0  0  0  0  0  0
  192.2580  177.6800  141.4850 O   0  0  0  0  0  0  0  0  0  0  0  0
  191.1300  179.4740  143.9150 C   0  0  0  0  0  1  0  0  0  0  0  0
  188.9480  176.9240  144.5570 C   0  0  0  0  0  3  0  0  0  0  0  0
  190.0550  177.6660  145.2340 C   0  0  0  0  0  2  0  0  0  0  0  0
  185.9130  176.1940  134.3470 C   0  0  0  0  0  2  0  0  0  0  0  0
  185.2850  175.1470  135.2500 C   0  0  2  0  0  3  0  0  0  0  0  0
  184.7970  176.6070  135.2890 C   0  0  1  0  0  3  0  0  0  0  0  0
  188.6730  172.0080  135.0100 C   0  0  0  0  0  1  0  0  0  0  0  0
  185.6840  173.7300  137.3390 C   0  0  2  0  0  3  0  0  0  0  0  0
  186.1960  172.0130  135.4710 C   0  0  0  0  0  2  0  0  0  0  0  0
  186.2860  174.7380  136.3450 C   0  0  1  0  0  3  0  0  0  0  0  0
  185.4780  172.3010  136.7950 C   0  0  0  0  0  2  0  0  0  0  0  0
  187.5030  174.1150  135.7370 C   0  0  0  0  0  0  0  0  0  0  0  0
  188.5430  174.8030  135.5490 O   0  0  0  0  0  0  0  0  0  0  0  0
  187.4650  172.7250  135.3890 N   0  0  0  0  0  0  0  0  0  0  0  0
  184.5010  174.2050  137.9060 O   0  0  0  0  0  1  0  0  0  0  0  0
  1  7  2  0  0  0  0
  2  1  1  0  0  0  0
  3  7  1  0  0  0  0
  3  8  1  0  0  0  0
  4  5  1  6  0  0  0
  4  6  1  0  0  0  0
  4  3  1  0  0  0  0
  5  9  2  0  0  0  0
  6  8  1  1  0  0  0
  9  1  1  0  0  0  0
 10 11  1  0  0  0  0
 12  2  1  6  0  0  0
 12 11  1  0  0  0  0
 12 14  1  0  0  0  0
 13 10  1  1  0  0  0
 13 12  1  0  0  0  0
 13 14  1  0  0  0  0
 15 16  1  6  0  0  0
 15  6  1  0  0  0  0
 15 18  1  0  0  0  0
 16 18  1  0  0  0  0
 18 17  1  6  0  0  0
 18 19  1  0  0  0  0
 19 20  1  0  0  0  0
 20 21  1  0  0  0  0
 21 23  1  0  0  0  0
 22 27  2  0  0  0  0
 23 22  1  0  0  0  0
 23 24  1  0  0  0  0
 24 26  1  6  0  0  0
 24 28  1  0  0  0  0
 25 21  2  0  0  0  0
 27 28  1  0  0  0  0
 29 31  1  0  0  0  0
 30 29  1  6  0  0  0
 30 31  1  0  0  0  0
 30 35  1  0  0  0  0
 31  9  1  1  0  0  0
 32 39  1  0  0  0  0
 33 40  1  6  0  0  0
 34 36  1  0  0  0  0
 35 37  1  6  0  0  0
 35 33  1  0  0  0  0
 36 33  1  0  0  0  0
 38 37  2  0  0  0  0
 39 34  1  0  0  0  0
 39 37  1  0  0  0  0
M  END
>  <MODEL>
3

>  <REMARK>
 VINA RESULT:      -6.3      3.006      4.968
  Name = 
  7 active torsions:
  status: ('A' for Active; 'I' for Inactive)
    1  A    between atoms: C_3  and  C_35
    2  A    between atoms: N_6  and  C_25
    3  A    between atoms: N_7  and  C_15
    4  A    between atoms: C_16  and  C_23
    5  A    between atoms: C_27  and  N_39
    6  A    between atoms: C_34  and  C_37
    7  A    between atoms: C_35  and  N_39
                            x       y       z     vdW  Elec       q    Type
                         _______ _______ _______ _____ _____    ______ ____

>  <TORSDO>
F 7

$$$$
=
 OpenBabel10222421543D

 40 47  0  0  1  0  0  0  0  0999 V2000
  184.2820  176.1960  136.1790 C   0  0  0  0  0  0  0  0  0  0  0  0
  183.6110  175.1170  135.5210 N   0  0  0  0  0  2  0  0  0  0  0  0
  184.4990  177.7610  137.8460 N   0  0  0  0  0  0  0  0  0  0  0  0
  185.5820  178.5410  137.2420 C   0  0  2  0  0  3  0  0  0  0  0  0
  186.1980  177.7190  136.1900 N   0  0  0  0  0  0  0  0  0  0  0  0
  186.3290  178.6020  138.5090 C   0  0  1  0  0  3  0  0  0  0  0  0
  183.7850  176.7160  137.2620 N   0  0  0  0  0  0  0  0  0  0  0  0
  185.2070  177.9090  139.0750 N   0  0  0  0  0  2  0  0  0  0  0  0
  185.6120  176.6640  135.6730 C   0  0  0  0  0  0  0  0  0  0  0  0
  180.9210  173.5040  134.7920 C   0  0  0  0  0  2  0  0  0  0  0  0
  181.0870  174.9500  135.1960 C   0  0  0  0  0  2  0  0  0  0  0  0
  182.3330  174.5900  135.9730 C   0  0  1  0  0  0  0  0  0  0  0  0
  182.2440  173.1580  135.4460 C   0  0  1  0  0  3  0  0  0  0  0  0
  182.3020  173.4190  136.9340 C   0  0  0  0  0  2  0  0  0  0  0  0
  187.4990  177.7200  138.5140 N   0  0  1  0  0  0  0  0  0  0  0  0
  188.6700  178.6020  138.3130 C   0  0  0  0  0  2  0  0  0  0  0  0
  189.2570  176.8020  140.0300 C   0  0  0  0  0  1  0  0  0  0  0  0
  188.4390  178.0130  139.6220 C   0  0  2  0  0  0  0  0  0  0  0  0
  187.9050  178.8830  140.6730 N   0  0  0  0  0  2  0  0  0  0  0  0
  187.4030  178.0430  141.7490 C   0  0  0  0  0  2  0  0  0  0  0  0
  186.3030  178.7450  142.4730 C   0  0  0  0  0  0  0  0  0  0  0  0
  186.8360  177.6440  144.6820 C   0  0  0  0  0  3  0  0  0  0  0  0
  186.0370  178.4720  143.8560 N   0  0  0  0  0  0  0  0  0  0  0  0
  184.9880  179.0940  144.6460 C   0  0  1  0  0  3  0  0  0  0  0  0
  185.6110  179.5940  141.8510 O   0  0  0  0  0  0  0  0  0  0  0  0
  183.6280  178.5930  144.1870 C   0  0  0  0  0  1  0  0  0  0  0  0
  186.4220  177.6850  145.9330 C   0  0  0  0  0  3  0  0  0  0  0  0
  185.2490  178.6000  146.0690 C   0  0  0  0  0  2  0  0  0  0  0  0
  187.7310  176.2420  134.3460 C   0  0  0  0  0  2  0  0  0  0  0  0
  187.3790  174.9160  134.9970 C   0  0  2  0  0  3  0  0  0  0  0  0
  186.2700  175.8880  134.5540 C   0  0  1  0  0  3  0  0  0  0  0  0
  191.4150  173.7980  136.9590 C   0  0  0  0  0  1  0  0  0  0  0  0
  187.2640  173.7090  137.2470 C   0  0  2  0  0  3  0  0  0  0  0  0
  189.3440  172.5880  136.1890 C   0  0  0  0  0  2  0  0  0  0  0  0
  187.7580  174.9530  136.4880 C   0  0  1  0  0  3  0  0  0  0  0  0
  188.0210  172.4010  136.9420 C   0  0  0  0  0  2  0  0  0  0  0  0
  189.2440  175.0320  136.6500 C   0  0  0  0  0  0  0  0  0  0  0  0
  189.8020  176.1450  136.8520 O   0  0  0  0  0  0  0  0  0  0  0  0
  190.0090  173.8230  136.5860 N   0  0  0  0  0  0  0  0  0  0  0  0
  185.8910  173.5200  137.0920 O   0  0  0  0  0  1  0  0  0  0  0  0
  1  7  2  0  0  0  0
  2  1  1  0  0  0  0
  3  8  1  0  0  0  0
  4  5  1  6  0  0  0
  4  3  1  0  0  0  0
  4  6  1  0  0  0  0
  6 15  1  0  0  0  0
  6  8  1  1  0  0  0
  7  3  1  0  0  0  0
  9  1  1  0  0  0  0
  9  5  2  0  0  0  0
 10 11  1  0  0  0  0
 11 12  1  0  0  0  0
 12  2  1  6  0  0  0
 12 14  1  0  0  0  0
 13 10  1  1  0  0  0
 13 12  1  0  0  0  0
 13 14  1  0  0  0  0
 15 16  1  6  0  0  0
 15 18  1  0  0  0  0
 16 18  1  0  0  0  0
 18 17  1  1  0  0  0
 18 19  1  0  0  0  0
 19 20  1  0  0  0  0
 20 21  1  0  0  0  0
 21 23  1  0  0  0  0
 22 27  2  0  0  0  0
 23 24  1  0  0  0  0
 23 22  1  0  0  0  0
 24 26  1  6  0  0  0
 24 28  1  0  0  0  0
 25 21  2  0  0  0  0
 27 28  1  0  0  0  0
 29 31  1  0  0  0  0
 30 29  1  6  0  0  0
 30 35  1  0  0  0  0
 31 30  1  0  0  0  0
 31  9  1  1  0  0  0
 33 40  1  6  0  0  0
 34 39  1  0  0  0  0
 34 36  1  0  0  0  0
 35 37  1  6  0  0  0
 35 33  1  0  0  0  0
 36 33  1  0  0  0  0
 37 38  2  0  0  0  0
 39 37  1  0  0  0  0
 39 32  1  0  0  0  0
M  END
>  <MODEL>
4

>  <REMARK>
 VINA RESULT:      -6.1      2.056      2.965
  Name = 
  7 active torsions:
  status: ('A' for Active; 'I' for Inactive)
    1  A    between atoms: C_3  and  C_35
    2  A    between atoms: N_6  and  C_25
    3  A    between atoms: N_7  and  C_15
    4  A    between atoms: C_16  and  C_23
    5  A    between atoms: C_27  and  N_39
    6  A    between atoms: C_34  and  C_37
    7  A    between atoms: C_35  and  N_39
                            x       y       z     vdW  Elec       q    Type
                         _______ _______ _______ _____ _____    ______ ____

>  <TORSDO>
F 7

$$$$
=
 OpenBabel10222421543D

 40 47  0  0  1  0  0  0  0  0999 V2000
  188.2160  178.0260  141.1100 C   0  0  0  0  0  0  0  0  0  0  0  0
  188.4090  177.8860  142.5200 N   0  0  0  0  0  2  0  0  0  0  0  0
  188.9580  178.0840  138.9370 N   0  0  0  0  0  0  0  0  0  0  0  0
  187.7330  178.6060  138.3270 C   0  0  2  0  0  3  0  0  0  0  0  0
  186.6340  178.4150  139.2840 N   0  0  0  0  0  0  0  0  0  0  0  0
  187.7870  177.6270  137.2290 C   0  0  1  0  0  3  0  0  0  0  0  0
  189.2270  177.9400  140.2970 N   0  0  0  0  0  0  0  0  0  0  0  0
  189.0250  177.2030  137.8160 N   0  0  0  0  0  2  0  0  0  0  0  0
  186.8310  178.1770  140.5600 C   0  0  0  0  0  0  0  0  0  0  0  0
  190.2300  178.0410  145.1730 C   0  0  0  0  0  2  0  0  0  0  0  0
  190.3220  178.8540  143.9030 C   0  0  0  0  0  2  0  0  0  0  0  0
  189.7200  177.7060  143.1240 C   0  0  1  0  0  0  0  0  0  0  0  0
  189.4960  176.9420  144.4280 C   0  0  1  0  0  3  0  0  0  0  0  0
  190.2790  176.3090  143.3010 C   0  0  0  0  0  2  0  0  0  0  0  0
  186.7900  176.5640  137.3750 N   0  0  1  0  0  0  0  0  0  0  0  0
  185.9760  176.6020  136.1400 C   0  0  0  0  0  2  0  0  0  0  0  0
  186.3780  174.1680  136.8080 C   0  0  0  0  0  1  0  0  0  0  0  0
  186.9140  175.5090  136.3420 C   0  0  2  0  0  0  0  0  0  0  0  0
  188.1610  175.5360  135.5750 N   0  0  0  0  0  2  0  0  0  0  0  0
  188.7940  174.2310  135.6870 C   0  0  0  0  0  2  0  0  0  0  0  0
  190.0560  174.3420  136.4750 C   0  0  0  0  0  0  0  0  0  0  0  0
  191.3270  175.4370  134.5870 C   0  0  0  0  0  3  0  0  0  0  0  0
  191.2520  174.8690  135.8820 N   0  0  0  0  0  0  0  0  0  0  0  0
  192.5300  175.0100  136.5600 C   0  0  1  0  0  3  0  0  0  0  0  0
  190.0560  173.9720  137.6790 O   0  0  0  0  0  0  0  0  0  0  0  0
  193.1410  173.6390  136.8040 C   0  0  0  0  0  1  0  0  0  0  0  0
  192.5190  175.9520  134.3660 C   0  0  0  0  0  3  0  0  0  0  0  0
  193.3990  175.7740  135.5610 C   0  0  0  0  0  2  0  0  0  0  0  0
  184.7870  179.2820  141.5760 C   0  0  0  0  0  2  0  0  0  0  0  0
  184.2740  178.0560  140.8410 C   0  0  2  0  0  3  0  0  0  0  0  0
  185.6610  178.0430  141.5080 C   0  0  1  0  0  3  0  0  0  0  0  0
  181.6880  181.1040  138.5150 C   0  0  0  0  0  1  0  0  0  0  0  0
  183.3940  177.3080  138.5610 C   0  0  2  0  0  3  0  0  0  0  0  0
  181.4230  178.7600  139.4010 C   0  0  0  0  0  2  0  0  0  0  0  0
  184.2520  178.3300  139.3270 C   0  0  1  0  0  3  0  0  0  0  0  0
  181.8700  177.4450  138.7510 C   0  0  0  0  0  2  0  0  0  0  0  0
  183.7030  179.6940  139.0490 C   0  0  0  0  0  0  0  0  0  0  0  0
  184.4840  180.6640  138.8470 O   0  0  0  0  0  0  0  0  0  0  0  0
  182.2820  179.8680  139.0020 N   0  0  0  0  0  0  0  0  0  0  0  0
  183.7970  175.9970  138.8190 O   0  0  0  0  0  1  0  0  0  0  0  0
  1  2  1  0  0  0  0
  3  7  1  0  0  0  0
  4  3  1  0  0  0  0
  4  5  1  1  0  0  0
  5  9  2  0  0  0  0
  6 15  1  0  0  0  0
  6  8  1  1  0  0  0
  6  4  1  0  0  0  0
  7  1  2  0  0  0  0
  8  3  1  0  0  0  0
  9  1  1  0  0  0  0
 11 10  1  0  0  0  0
 12  2  1  6  0  0  0
 12 14  1  0  0  0  0
 12 11  1  0  0  0  0
 12 13  1  0  0  0  0
 13 14  1  6  0  0  0
 13 10  1  0  0  0  0
 15 16  1  6  0  0  0
 16 18  1  0  0  0  0
 18 17  1  1  0  0  0
 18 15  1  0  0  0  0
 19 20  1  0  0  0  0
 19 18  1  0  0  0  0
 20 21  1  0  0  0  0
 21 25  2  0  0  0  0
 22 23  1  0  0  0  0
 23 21  1  0  0  0  0
 23 24  1  0  0  0  0
 24 26  1  6  0  0  0
 27 22  2  0  0  0  0
 27 28  1  0  0  0  0
 28 24  1  0  0  0  0
 30 31  1  0  0  0  0
 30 29  1  1  0  0  0
 31  9  1  6  0  0  0
 31 29  1  0  0  0  0
 32 39  1  0  0  0  0
 33 36  1  0  0  0  0
 33 40  1  1  0  0  0
 33 35  1  0  0  0  0
 35 37  1  1  0  0  0
 35 30  1  0  0  0  0
 36 34  1  0  0  0  0
 38 37  2  0  0  0  0
 39 37  1  0  0  0  0
 39 34  1  0  0  0  0
M  END
>  <MODEL>
5

>  <REMARK>
 VINA RESULT:      -5.6      3.200      8.673
  Name = 
  7 active torsions:
  status: ('A' for Active; 'I' for Inactive)
    1  A    between atoms: C_3  and  C_35
    2  A    between atoms: N_6  and  C_25
    3  A    between atoms: N_7  and  C_15
    4  A    between atoms: C_16  and  C_23
    5  A    between atoms: C_27  and  N_39
    6  A    between atoms: C_34  and  C_37
    7  A    between atoms: C_35  and  N_39
                            x       y       z     vdW  Elec       q    Type
                         _______ _______ _______ _____ _____    ______ ____

>  <TORSDO>
F 7

$$$$
=
 OpenBabel10222421543D

 40 47  0  0  1  0  0  0  0  0999 V2000
  188.3740  176.1760  137.6740 C   0  0  0  0  0  0  0  0  0  0  0  0
  187.1260  176.8570  137.5140 N   0  0  0  0  0  2  0  0  0  0  0  0
  189.8430  174.4630  137.2410 N   0  0  0  0  0  0  0  0  0  0  0  0
  190.8090  174.7640  138.3000 C   0  0  2  0  0  3  0  0  0  0  0  0
  190.5710  176.1420  138.7520 N   0  0  0  0  0  0  0  0  0  0  0  0
  191.9540  174.5920  137.3900 C   0  0  1  0  0  3  0  0  0  0  0  0
  188.6020  175.0650  137.0370 N   0  0  0  0  0  0  0  0  0  0  0  0
  190.9750  174.2240  136.4080 N   0  0  0  0  0  2  0  0  0  0  0  0
  189.4580  176.7930  138.5020 C   0  0  0  0  0  0  0  0  0  0  0  0
  183.9790  176.2200  137.2610 C   0  0  0  0  0  2  0  0  0  0  0  0
  185.1470  175.2630  137.2900 C   0  0  0  0  0  2  0  0  0  0  0  0
  186.0390  176.3330  136.7020 C   0  0  1  0  0  0  0  0  0  0  0  0
  184.8950  177.3410  136.8080 C   0  0  1  0  0  3  0  0  0  0  0  0
  185.5780  177.1020  135.4810 C   0  0  0  0  0  2  0  0  0  0  0  0
  192.5680  175.8670  137.0130 N   0  0  1  0  0  0  0  0  0  0  0  0
  193.6880  176.0720  137.9570 C   0  0  0  0  0  2  0  0  0  0  0  0
  194.4090  176.8230  135.6240 C   0  0  0  0  0  1  0  0  0  0  0  0
  193.9770  175.7230  136.5760 C   0  0  2  0  0  0  0  0  0  0  0  0
  194.4020  174.3500  136.2980 N   0  0  0  0  0  2  0  0  0  0  0  0
  195.7050  174.1430  136.9130 C   0  0  0  0  0  2  0  0  0  0  0  0
  195.7240  172.8380  137.6380 C   0  0  0  0  0  0  0  0  0  0  0  0
  196.8780  171.6220  135.7500 C   0  0  0  0  0  3  0  0  0  0  0  0
  196.2400  171.6540  137.0130 N   0  0  0  0  0  0  0  0  0  0  0  0
  196.2950  170.3390  137.6290 C   0  0  1  0  0  3  0  0  0  0  0  0
  195.2860  172.7930  138.8180 O   0  0  0  0  0  0  0  0  0  0  0  0
  194.8910  169.7710  137.7650 C   0  0  0  0  0  1  0  0  0  0  0  0
  197.3610  170.4230  135.4950 C   0  0  0  0  0  3  0  0  0  0  0  0
  197.0830  169.4920  136.6300 C   0  0  0  0  0  2  0  0  0  0  0  0
  188.1550  178.2790  140.0910 C   0  0  0  0  0  2  0  0  0  0  0  0
  189.6070  178.3820  140.5240 C   0  0  2  0  0  3  0  0  0  0  0  0
  189.2460  178.1910  139.0400 C   0  0  1  0  0  3  0  0  0  0  0  0
  188.6960  177.2830  144.9230 C   0  0  0  0  0  1  0  0  0  0  0  0
  191.4570  177.1770  141.8110 C   0  0  2  0  0  3  0  0  0  0  0  0
  190.4220  178.6350  143.6820 C   0  0  0  0  0  2  0  0  0  0  0  0
  190.0100  177.1120  141.2930 C   0  0  1  0  0  3  0  0  0  0  0  0
  191.6980  178.1390  142.9910 C   0  0  0  0  0  2  0  0  0  0  0  0
  189.1090  176.9030  142.4700 C   0  0  0  0  0  0  0  0  0  0  0  0
  188.1320  176.1080  142.3890 O   0  0  0  0  0  0  0  0  0  0  0  0
  189.3870  177.6080  143.6850 N   0  0  0  0  0  0  0  0  0  0  0  0
  192.3630  177.4390  140.7820 O   0  0  0  0  0  1  0  0  0  0  0  0
  1  9  1  0  0  0  0
  2  1  1  0  0  0  0
  3  4  1  0  0  0  0
  4  5  1  6  0  0  0
  6  8  1  6  0  0  0
  6  4  1  0  0  0  0
  7  3  1  0  0  0  0
  7  1  2  0  0  0  0
  8  3  1  0  0  0  0
  9  5  2  0  0  0  0
 10 11  1  0  0  0  0
 12 13  1  0  0  0  0
 12 11  1  0  0  0  0
 12  2  1  1  0  0  0
 13 14  1  6  0  0  0
 13 10  1  0  0  0  0
 14 12  1  0  0  0  0
 15  6  1  0  0  0  0
 15 16  1  1  0  0  0
 18 17  1  6  0  0  0
 18 15  1  0  0  0  0
 18 16  1  0  0  0  0
 19 18  1  0  0  0  0
 19 20  1  0  0  0  0
 20 21  1  0  0  0  0
 21 25  2  0  0  0  0
 22 23  1  0  0  0  0
 23 24  1  0  0  0  0
 23 21  1  0  0  0  0
 24 26  1  6  0  0  0
 27 22  2  0  0  0  0
 27 28  1  0  0  0  0
 28 24  1  0  0  0  0
 30 29  1  1  0  0  0
 30 35  1  0  0  0  0
 31  9  1  1  0  0  0
 31 29  1  0  0  0  0
 31 30  1  0  0  0  0
 33 40  1  6  0  0  0
 33 36  1  0  0  0  0
 34 39  1  0  0  0  0
 35 33  1  0  0  0  0
 35 37  1  1  0  0  0
 36 34  1  0  0  0  0
 37 39  1  0  0  0  0
 38 37  2  0  0  0  0
 39 32  1  0  0  0  0
M  END
>  <MODEL>
6

>  <REMARK>
 VINA RESULT:      -5.5      5.498      9.861
  Name = 
  7 active torsions:
  status: ('A' for Active; 'I' for Inactive)
    1  A    between atoms: C_3  and  C_35
    2  A    between atoms: N_6  and  C_25
    3  A    between atoms: N_7  and  C_15
    4  A    between atoms: C_16  and  C_23
    5  A    between atoms: C_27  and  N_39
    6  A    between atoms: C_34  and  C_37
    7  A    between atoms: C_35  and  N_39
                            x       y       z     vdW  Elec       q    Type
                         _______ _______ _______ _____ _____    ______ ____

>  <TORSDO>
F 7

$$$$
=
 OpenBabel10222421543D

 40 47  0  0  1  0  0  0  0  0999 V2000
  188.0400  177.9490  141.5190 C   0  0  0  0  0  0  0  0  0  0  0  0
  189.3020  177.3020  141.3310 N   0  0  0  0  0  2  0  0  0  0  0  0
  186.4310  179.4970  140.9790 N   0  0  0  0  0  0  0  0  0  0  0  0
  185.6070  179.3480  142.1810 C   0  0  2  0  0  3  0  0  0  0  0  0
  185.9780  178.0820  142.8300 N   0  0  0  0  0  0  0  0  0  0  0  0
  184.3610  179.3100  141.3980 C   0  0  1  0  0  3  0  0  0  0  0  0
  187.6760  178.9190  140.7340 N   0  0  0  0  0  0  0  0  0  0  0  0
  185.2010  179.5380  140.2580 N   0  0  0  0  0  2  0  0  0  0  0  0
  187.0940  177.4440  142.5640 C   0  0  0  0  0  0  0  0  0  0  0  0
  191.9280  176.5860  139.6080 C   0  0  0  0  0  2  0  0  0  0  0  0
  191.7340  177.6640  140.6490 C   0  0  0  0  0  2  0  0  0  0  0  0
  190.2590  177.7180  140.3170 C   0  0  1  0  0  0  0  0  0  0  0  0
  190.4310  176.5310  139.3700 C   0  0  1  0  0  3  0  0  0  0  0  0
  189.8230  177.8200  138.8700 C   0  0  0  0  0  2  0  0  0  0  0  0
  183.7880  177.9640  141.3200 N   0  0  1  0  0  0  0  0  0  0  0  0
  182.4280  178.0700  141.8920 C   0  0  0  0  0  2  0  0  0  0  0  0
  182.3680  176.5180  139.8620 C   0  0  0  0  0  1  0  0  0  0  0  0
  182.5850  177.8970  140.4570 C   0  0  2  0  0  0  0  0  0  0  0  0
  182.3680  179.0680  139.6050 N   0  0  0  0  0  2  0  0  0  0  0  0
  180.9390  179.1970  139.3630 C   0  0  0  0  0  2  0  0  0  0  0  0
  180.6040  180.6140  139.0320 C   0  0  0  0  0  0  0  0  0  0  0  0
  180.8670  180.2640  136.5450 C   0  0  0  0  0  3  0  0  0  0  0  0
  180.6440  181.0850  137.6770 N   0  0  0  0  0  0  0  0  0  0  0  0
  180.3450  182.4420  137.2530 C   0  0  1  0  0  3  0  0  0  0  0  0
  180.2740  181.3940  139.9640 O   0  0  0  0  0  0  0  0  0  0  0  0
  181.4460  183.3830  137.7150 C   0  0  0  0  0  1  0  0  0  0  0  0
  180.7200  180.9490  135.4280 C   0  0  0  0  0  3  0  0  0  0  0  0
  180.3570  182.3680  135.7270 C   0  0  0  0  0  2  0  0  0  0  0  0
  188.9230  176.0600  143.6450 C   0  0  0  0  0  2  0  0  0  0  0  0
  187.9310  176.3720  144.7520 C   0  0  2  0  0  3  0  0  0  0  0  0
  187.4490  176.1730  143.3030 C   0  0  1  0  0  3  0  0  0  0  0  0
  190.8570  178.0380  147.9220 C   0  0  0  0  0  1  0  0  0  0  0  0
  187.0520  178.2480  146.2480 C   0  0  2  0  0  3  0  0  0  0  0  0
  188.5770  176.9670  147.9030 C   0  0  0  0  0  2  0  0  0  0  0  0
  188.1100  177.8290  145.2120 C   0  0  1  0  0  3  0  0  0  0  0  0
  187.2180  177.6340  147.6530 C   0  0  0  0  0  2  0  0  0  0  0  0
  189.4600  178.0220  145.8290 C   0  0  0  0  0  0  0  0  0  0  0  0
  190.4070  178.5030  145.1470 O   0  0  0  0  0  0  0  0  0  0  0  0
  189.6470  177.6680  147.2040 N   0  0  0  0  0  0  0  0  0  0  0  0
  185.7560  178.0350  145.7790 O   0  0  0  0  0  1  0  0  0  0  0  0
  1  9  1  0  0  0  0
  2  1  1  0  0  0  0
  3  4  1  0  0  0  0
  4  5  1  6  0  0  0
  6  8  1  6  0  0  0
  6  4  1  0  0  0  0
  7  3  1  0  0  0  0
  7  1  2  0  0  0  0
  8  3  1  0  0  0  0
  9  5  2  0  0  0  0
 10 11  1  0  0  0  0
 12 11  1  0  0  0  0
 12  2  1  1  0  0  0
 13 14  1  6  0  0  0
 13 10  1  0  0  0  0
 13 12  1  0  0  0  0
 14 12  1  0  0  0  0
 15  6  1  0  0  0  0
 15 16  1  1  0  0  0
 18 17  1  6  0  0  0
 18 15  1  0  0  0  0
 18 16  1  0  0  0  0
 19 18  1  0  0  0  0
 20 19  1  0  0  0  0
 21 20  1  0  0  0  0
 21 25  2  0  0  0  0
 22 23  1  0  0  0  0
 23 21  1  0  0  0  0
 24 23  1  0  0  0  0
 24 26  1  6  0  0  0
 27 28  1  0  0  0  0
 27 22  2  0  0  0  0
 28 24  1  0  0  0  0
 30 29  1  6  0  0  0
 30 35  1  0  0  0  0
 31  9  1  6  0  0  0
 31 29  1  0  0  0  0
 31 30  1  0  0  0  0
 33 40  1  6  0  0  0
 33 36  1  0  0  0  0
 35 37  1  1  0  0  0
 35 33  1  0  0  0  0
 36 34  1  0  0  0  0
 37 39  1  0  0  0  0
 38 37  2  0  0  0  0
 39 34  1  0  0  0  0
 39 32  1  0  0  0  0
M  END
>  <MODEL>
7

>  <REMARK>
 VINA RESULT:      -5.4      4.187      8.834
  Name = 
  7 active torsions:
  status: ('A' for Active; 'I' for Inactive)
    1  A    between atoms: C_3  and  C_35
    2  A    between atoms: N_6  and  C_25
    3  A    between atoms: N_7  and  C_15
    4  A    between atoms: C_16  and  C_23
    5  A    between atoms: C_27  and  N_39
    6  A    between atoms: C_34  and  C_37
    7  A    between atoms: C_35  and  N_39
                            x       y       z     vdW  Elec       q    Type
                         _______ _______ _______ _____ _____    ______ ____

>  <TORSDO>
F 7

$$$$
=
 OpenBabel10222421543D

 40 47  0  0  1  0  0  0  0  0999 V2000
  188.0030  178.0170  141.1320 C   0  0  0  0  0  0  0  0  0  0  0  0
  188.2560  177.8950  142.5350 N   0  0  0  0  0  2  0  0  0  0  0  0
  188.6370  177.9710  138.9250 N   0  0  0  0  0  0  0  0  0  0  0  0
  187.4250  178.5680  138.3620 C   0  0  2  0  0  3  0  0  0  0  0  0
  186.3630  178.4800  139.3750 N   0  0  0  0  0  0  0  0  0  0  0  0
  187.3530  177.5630  137.2890 C   0  0  1  0  0  3  0  0  0  0  0  0
  188.9630  177.8380  140.2740 N   0  0  0  0  0  0  0  0  0  0  0  0
  188.5850  177.0630  137.8260 N   0  0  0  0  0  2  0  0  0  0  0  0
  186.6070  178.2570  140.6460 C   0  0  0  0  0  0  0  0  0  0  0  0
  190.2410  178.0570  145.0670 C   0  0  0  0  0  2  0  0  0  0  0  0
  190.3290  178.7690  143.7370 C   0  0  0  0  0  2  0  0  0  0  0  0
  189.5790  177.6330  143.0790 C   0  0  1  0  0  0  0  0  0  0  0  0
  189.3660  176.9850  144.4460 C   0  0  1  0  0  3  0  0  0  0  0  0
  190.0180  176.2050  143.3290 C   0  0  0  0  0  2  0  0  0  0  0  0
  186.2890  176.5800  137.5100 N   0  0  1  0  0  0  0  0  0  0  0  0
  185.2820  176.8290  136.4560 C   0  0  0  0  0  2  0  0  0  0  0  0
  185.5360  174.3090  136.7960 C   0  0  0  0  0  1  0  0  0  0  0  0
  186.1200  175.6440  136.3730 C   0  0  2  0  0  0  0  0  0  0  0  0
  187.2120  175.6530  135.3970 N   0  0  0  0  0  2  0  0  0  0  0  0
  187.6750  174.2850  135.2190 C   0  0  0  0  0  2  0  0  0  0  0  0
  189.1650  174.2580  135.1300 C   0  0  0  0  0  0  0  0  0  0  0  0
  189.2560  171.7680  134.7220 C   0  0  0  0  0  3  0  0  0  0  0  0
  189.8710  173.0220  134.9540 N   0  0  0  0  0  0  0  0  0  0  0  0
  191.3160  172.8890  134.8640 C   0  0  1  0  0  3  0  0  0  0  0  0
  189.7970  175.3450  135.2050 O   0  0  0  0  0  0  0  0  0  0  0  0
  191.9460  173.1670  136.2200 C   0  0  0  0  0  1  0  0  0  0  0  0
  190.1570  170.8390  134.4700 C   0  0  0  0  0  3  0  0  0  0  0  0
  191.5330  171.4200  134.5030 C   0  0  0  0  0  2  0  0  0  0  0  0
  184.6430  179.4970  141.6630 C   0  0  0  0  0  2  0  0  0  0  0  0
  184.0630  178.2340  141.0500 C   0  0  2  0  0  3  0  0  0  0  0  0
  185.4800  178.2310  141.6530 C   0  0  1  0  0  3  0  0  0  0  0  0
  181.5410  181.2500  138.6150 C   0  0  0  0  0  1  0  0  0  0  0  0
  183.0230  177.3700  138.8810 C   0  0  2  0  0  3  0  0  0  0  0  0
  181.1860  179.0020  139.6960 C   0  0  0  0  0  2  0  0  0  0  0  0
  183.9780  178.3920  139.5220 C   0  0  1  0  0  3  0  0  0  0  0  0
  181.5220  177.6160  139.1320 C   0  0  0  0  0  2  0  0  0  0  0  0
  183.4960  179.7630  139.1620 C   0  0  0  0  0  0  0  0  0  0  0  0
  184.3200  180.6640  138.8460 O   0  0  0  0  0  0  0  0  0  0  0  0
  182.0870  180.0210  139.1690 N   0  0  0  0  0  0  0  0  0  0  0  0
  183.3620  176.0610  139.2230 O   0  0  0  0  0  1  0  0  0  0  0  0
  1  2  1  0  0  0  0
  3  7  1  0  0  0  0
  4  3  1  0  0  0  0
  4  5  1  1  0  0  0
  5  9  2  0  0  0  0
  6 15  1  0  0  0  0
  6  8  1  1  0  0  0
  6  4  1  0  0  0  0
  7  1  2  0  0  0  0
  8  3  1  0  0  0  0
  9  1  1  0  0  0  0
 11 10  1  0  0  0  0
 12  2  1  6  0  0  0
 12 14  1  0  0  0  0
 12 11  1  0  0  0  0
 12 13  1  0  0  0  0
 13 14  1  6  0  0  0
 13 10  1  0  0  0  0
 15 16  1  6  0  0  0
 18 16  1  0  0  0  0
 18 17  1  1  0  0  0
 18 15  1  0  0  0  0
 19 18  1  0  0  0  0
 20 19  1  0  0  0  0
 21 25  2  0  0  0  0
 21 20  1  0  0  0  0
 22 23  1  0  0  0  0
 23 21  1  0  0  0  0
 24 23  1  0  0  0  0
 24 26  1  1  0  0  0
 27 28  1  0  0  0  0
 27 22  2  0  0  0  0
 28 24  1  0  0  0  0
 30 31  1  0  0  0  0
 30 29  1  1  0  0  0
 31  9  1  6  0  0  0
 31 29  1  0  0  0  0
 32 39  1  0  0  0  0
 33 36  1  0  0  0  0
 33 40  1  1  0  0  0
 33 35  1  0  0  0  0
 35 37  1  1  0  0  0
 35 30  1  0  0  0  0
 36 34  1  0  0  0  0
 37 39  1  0  0  0  0
 38 37  2  0  0  0  0
 39 34  1  0  0  0  0
M  END
>  <MODEL>
8

>  <REMARK>
 VINA RESULT:      -5.3      3.068      8.883
  Name = 
  7 active torsions:
  status: ('A' for Active; 'I' for Inactive)
    1  A    between atoms: C_3  and  C_35
    2  A    between atoms: N_6  and  C_25
    3  A    between atoms: N_7  and  C_15
    4  A    between atoms: C_16  and  C_23
    5  A    between atoms: C_27  and  N_39
    6  A    between atoms: C_34  and  C_37
    7  A    between atoms: C_35  and  N_39
                            x       y       z     vdW  Elec       q    Type
                         _______ _______ _______ _____ _____    ______ ____

>  <TORSDO>
F 7

$$$$
=
 OpenBabel10222421543D

 40 47  0  0  1  0  0  0  0  0999 V2000
  190.0460  176.2460  135.8510 C   0  0  0  0  0  0  0  0  0  0  0  0
  191.3500  176.4710  136.3950 N   0  0  0  0  0  2  0  0  0  0  0  0
  188.4130  174.9200  134.9290 N   0  0  0  0  0  0  0  0  0  0  0  0
  187.5000  175.9900  134.5210 C   0  0  2  0  0  3  0  0  0  0  0  0
  187.8770  177.2090  135.2520 N   0  0  0  0  0  0  0  0  0  0  0  0
  186.3270  175.2780  135.0540 C   0  0  1  0  0  3  0  0  0  0  0  0
  189.7010  175.0600  135.4430 N   0  0  0  0  0  0  0  0  0  0  0  0
  187.2470  174.2200  135.3600 N   0  0  0  0  0  2  0  0  0  0  0  0
  189.0420  177.3570  135.8410 C   0  0  0  0  0  0  0  0  0  0  0  0
  194.4830  175.7240  136.3960 C   0  0  0  0  0  2  0  0  0  0  0  0
  193.4190  175.3760  135.3820 C   0  0  0  0  0  2  0  0  0  0  0  0
  192.3660  175.4330  136.4660 C   0  0  1  0  0  0  0  0  0  0  0  0
  193.4190  175.9250  137.4580 C   0  0  1  0  0  3  0  0  0  0  0  0
  192.5960  174.6960  137.7690 C   0  0  0  0  0  2  0  0  0  0  0  0
  185.8300  175.8660  136.3000 N   0  0  1  0  0  0  0  0  0  0  0  0
  184.6930  176.7300  135.9130 C   0  0  0  0  0  2  0  0  0  0  0  0
  184.1250  175.5200  138.0910 C   0  0  0  0  0  1  0  0  0  0  0  0
  184.4320  175.4790  136.6050 C   0  0  2  0  0  0  0  0  0  0  0  0
  183.9130  174.3620  135.8140 N   0  0  0  0  0  2  0  0  0  0  0  0
  183.7280  173.2220  136.7000 C   0  0  0  0  0  2  0  0  0  0  0  0
  183.9870  171.9530  135.9580 C   0  0  0  0  0  0  0  0  0  0  0  0
  181.5390  171.3560  135.8020 C   0  0  0  0  0  3  0  0  0  0  0  0
  182.9120  171.0700  135.6080 N   0  0  0  0  0  0  0  0  0  0  0  0
  183.0600  169.8110  134.8970 C   0  0  1  0  0  3  0  0  0  0  0  0
  185.1710  171.6700  135.6340 O   0  0  0  0  0  0  0  0  0  0  0  0
  183.7370  168.7870  135.7930 C   0  0  0  0  0  1  0  0  0  0  0  0
  180.7810  170.4190  135.2670 C   0  0  0  0  0  3  0  0  0  0  0  0
  181.6240  169.3660  134.6240 C   0  0  0  0  0  2  0  0  0  0  0  0
  188.1880  179.4790  136.9350 C   0  0  0  0  0  2  0  0  0  0  0  0
  188.9730  178.7460  138.0090 C   0  0  2  0  0  3  0  0  0  0  0  0
  189.3960  178.6540  136.5320 C   0  0  1  0  0  3  0  0  0  0  0  0
  185.7440  178.8020  141.3190 C   0  0  0  0  0  1  0  0  0  0  0  0
  188.9120  176.7350  139.5850 C   0  0  2  0  0  3  0  0  0  0  0  0
  188.2550  178.6490  141.1990 C   0  0  0  0  0  2  0  0  0  0  0  0
  188.1400  177.5700  138.5490 C   0  0  1  0  0  3  0  0  0  0  0  0
  189.1190  177.4040  140.9590 C   0  0  0  0  0  2  0  0  0  0  0  0
  186.8890  178.0700  139.2010 C   0  0  0  0  0  0  0  0  0  0  0  0
  185.8000  178.0770  138.5640 O   0  0  0  0  0  0  0  0  0  0  0  0
  186.9520  178.5220  140.5590 N   0  0  0  0  0  0  0  0  0  0  0  0
  190.1320  176.2830  139.0800 O   0  0  0  0  0  1  0  0  0  0  0  0
  1  2  1  0  0  0  0
  3  8  1  0  0  0  0
  3  7  1  0  0  0  0
  4  3  1  0  0  0  0
  4  6  1  0  0  0  0
  4  5  1  1  0  0  0
  5  9  2  0  0  0  0
  6  8  1  1  0  0  0
  6 15  1  0  0  0  0
  7  1  2  0  0  0  0
  9  1  1  0  0  0  0
 11 10  1  0  0  0  0
 11 12  1  0  0  0  0
 12  2  1  6  0  0  0
 12 13  1  0  0  0  0
 12 14  1  0  0  0  0
 13 10  1  6  0  0  0
 13 14  1  0  0  0  0
 15 16  1  6  0  0  0
 15 18  1  0  0  0  0
 16 18  1  0  0  0  0
 18 17  1  1  0  0  0
 19 18  1  0  0  0  0
 19 20  1  0  0  0  0
 21 20  1  0  0  0  0
 23 22  1  0  0  0  0
 23 21  1  0  0  0  0
 24 23  1  0  0  0  0
 24 26  1  1  0  0  0
 25 21  2  0  0  0  0
 27 22  2  0  0  0  0
 28 24  1  0  0  0  0
 28 27  1  0  0  0  0
 30 29  1  6  0  0  0
 30 35  1  0  0  0  0
 31  9  1  6  0  0  0
 31 29  1  0  0  0  0
 31 30  1  0  0  0  0
 33 40  1  6  0  0  0
 33 36  1  0  0  0  0
 35 37  1  1  0  0  0
 35 33  1  0  0  0  0
 36 34  1  0  0  0  0
 37 39  1  0  0  0  0
 38 37  2  0  0  0  0
 39 34  1  0  0  0  0
 39 32  1  0  0  0  0
M  END
>  <MODEL>
9

>  <REMARK>
 VINA RESULT:      -5.0      2.886      8.601
  Name = 
  7 active torsions:
  status: ('A' for Active; 'I' for Inactive)
    1  A    between atoms: C_3  and  C_35
    2  A    between atoms: N_6  and  C_25
    3  A    between atoms: N_7  and  C_15
    4  A    between atoms: C_16  and  C_23
    5  A    between atoms: C_27  and  N_39
    6  A    between atoms: C_34  and  C_37
    7  A    between atoms: C_35  and  N_39
                            x       y       z     vdW  Elec       q    Type
                         _______ _______ _______ _____ _____    ______ ____

>  <TORSDO>
F 7

$$$$
