=
 OpenBabel10232410483D

 35 40  0  0  1  0  0  0  0  0999 V2000
  189.7490  177.3540  146.8040 N   0  0  0  0  0  2  0  0  0  0  0  0
  186.2190  178.7800  140.8400 C   0  0  0  0  0  0  0  0  0  0  0  0
  188.0460  176.7580  144.9970 N   0  0  0  0  0  0  0  0  0  0  0  0
  187.5760  178.3590  146.7020 C   0  0  0  0  0  3  0  0  0  0  0  0
  191.5840  177.0800  144.9080 C   0  0  0  0  0  2  0  0  0  0  0  0
  189.4290  177.4390  142.0360 C   0  0  0  0  0  3  0  0  0  0  0  0
  186.3010  178.6600  146.0210 C   0  0  0  0  0  0  0  0  0  0  0  0
  185.6600  179.1010  141.9800 C   0  0  0  0  0  0  0  0  0  0  0  0
  189.7510  176.2680  142.9070 C   0  0  2  0  0  3  0  0  0  0  0  0
  185.9220  177.9680  144.9320 C   0  0  0  0  0  0  0  0  0  0  0  0
  188.2080  177.5160  141.5040 C   0  0  0  0  0  3  0  0  0  0  0  0
  191.9080  176.5790  147.2010 O   0  0  0  0  0  0  0  0  0  0  0  0
  185.5280  179.7150  146.4890 O   0  0  0  0  0  1  0  0  0  0  0  0
  189.1000  176.5110  144.1170 C   0  0  0  0  0  0  0  0  0  0  0  0
  191.0760  176.9590  146.3380 C   0  0  0  0  0  0  0  0  0  0  0  0
  185.3540  178.1260  139.7850 C   0  0  0  0  0  2  0  0  0  0  0  0
  184.7270  178.3810  144.1290 C   0  0  0  0  0  2  0  0  0  0  0  0
  189.5530  177.9160  137.5510 C   0  0  0  0  0  2  0  0  0  0  0  0
  190.5040  176.6410  144.0280 C   0  0  0  0  0  0  0  0  0  0  0  0
  185.0920  179.4200  143.1130 C   0  0  0  0  0  3  0  0  0  0  0  0
  188.1200  178.6680  139.2690 C   0  0  2  0  0  3  0  0  0  0  0  0
  186.6700  176.7330  144.5110 C   0  0  0  0  0  2  0  0  0  0  0  0
  188.0970  177.5100  137.3070 C   0  0  2  0  0  3  0  0  0  0  0  0
  189.5840  178.5180  138.9430 C   0  0  0  0  0  2  0  0  0  0  0  0
  188.4340  177.4770  146.1880 C   0  0  0  0  0  0  0  0  0  0  0  0
  186.0500  178.0560  138.4180 C   0  0  0  0  0  2  0  0  0  0  0  0
  187.7290  178.7170  140.7470 C   0  0  1  0  0  3  0  0  0  0  0  0
  187.4200  177.5940  138.5920 N   0  0  2  0  0  0  0  0  0  0  0  0
  188.0260  176.0850  136.7790 C   0  0  0  0  0  2  0  0  0  0  0  0
  184.5820  174.3220  136.5410 C   0  0  0  0  0  0  0  0  0  0  0  0
  183.9580  174.9120  135.6210 O   0  0  0  0  0  0  0  0  0  0  0  0
  186.1550  176.4630  135.3590 O   0  0  0  0  0  0  0  0  0  0  0  0
  185.9120  174.7130  136.9010 N   0  0  0  0  0  2  0  0  0  0  0  0
  183.9310  173.2000  137.2650 C   0  0  0  0  0  1  0  0  0  0  0  0
  186.6530  175.7740  136.2890 C   0  0  0  0  0  0  0  0  0  0  0  0
  2  8  2  0  0  0  0
  3 25  1  0  0  0  0
  5 15  1  0  0  0  0
  7 13  1  0  0  0  0
  7  4  1  0  0  0  0
  8 20  2  0  0  0  0
  9  6  1  6  0  0  0
  9 19  1  0  0  0  0
  9 14  1  0  0  0  0
 10  7  2  0  0  0  0
 11  6  2  0  0  0  0
 14  3  1  0  0  0  0
 15  1  1  0  0  0  0
 15 12  2  0  0  0  0
 16  2  1  0  0  0  0
 17 10  1  0  0  0  0
 18 24  1  0  0  0  0
 19 14  2  0  0  0  0
 19  5  1  0  0  0  0
 20 17  1  0  0  0  0
 21 24  1  1  0  0  0
 21 27  1  0  0  0  0
 22 10  1  0  0  0  0
 22  3  1  0  0  0  0
 23 29  1  1  0  0  0
 23 18  1  0  0  0  0
 23 28  1  0  0  0  0
 25  4  2  0  0  0  0
 25  1  1  0  0  0  0
 26 16  1  0  0  0  0
 27  2  1  0  0  0  0
 27 11  1  1  0  0  0
 28 26  1  6  0  0  0
 28 21  1  0  0  0  0
 30 33  1  0  0  0  0
 30 34  1  0  0  0  0
 31 30  2  0  0  0  0
 32 35  2  0  0  0  0
 35 29  1  0  0  0  0
 35 33  1  0  0  0  0
M  END
>  <MODEL>
1

>  <REMARK>
 VINA RESULT:     -10.0      0.000      0.000
  Name = 
  2 active torsions:
  status: ('A' for Active; 'I' for Inactive)
    1  A    between atoms: C_27  and  C_32
    2  A    between atoms: C_29  and  C_32
                            x       y       z     vdW  Elec       q    Type
                         _______ _______ _______ _____ _____    ______ ____

>  <TORSDO>
F 2

$$$$
=
 OpenBabel10232410483D

 35 40  0  0  1  0  0  0  0  0999 V2000
  189.8190  177.3320  146.8940 N   0  0  0  0  0  2  0  0  0  0  0  0
  186.0700  178.8810  141.0960 C   0  0  0  0  0  0  0  0  0  0  0  0
  188.0420  176.7780  145.1450 N   0  0  0  0  0  0  0  0  0  0  0  0
  187.6510  178.3540  146.8930 C   0  0  0  0  0  3  0  0  0  0  0  0
  191.5760  177.0760  144.9230 C   0  0  0  0  0  2  0  0  0  0  0  0
  189.3150  177.4980  142.1440 C   0  0  0  0  0  3  0  0  0  0  0  0
  186.3530  178.6750  146.2670 C   0  0  0  0  0  0  0  0  0  0  0  0
  185.5580  179.1870  142.2610 C   0  0  0  0  0  0  0  0  0  0  0  0
  189.6600  176.3100  142.9820 C   0  0  2  0  0  3  0  0  0  0  0  0
  185.9260  178.0040  145.1820 C   0  0  0  0  0  0  0  0  0  0  0  0
  188.0740  177.5920  141.6610 C   0  0  0  0  0  3  0  0  0  0  0  0
  191.9860  176.5360  147.1940 O   0  0  0  0  0  0  0  0  0  0  0  0
  185.6070  179.7280  146.7820 O   0  0  0  0  0  1  0  0  0  0  0  0
  189.0600  176.5390  144.2210 C   0  0  0  0  0  0  0  0  0  0  0  0
  191.1230  176.9350  146.3700 C   0  0  0  0  0  0  0  0  0  0  0  0
  185.1600  178.2510  140.0640 C   0  0  0  0  0  2  0  0  0  0  0  0
  184.7040  178.4390  144.4330 C   0  0  0  0  0  2  0  0  0  0  0  0
  189.2670  178.0480  137.6660 C   0  0  0  0  0  2  0  0  0  0  0  0
  190.4600  176.6590  144.0790 C   0  0  0  0  0  0  0  0  0  0  0  0
  185.0380  179.4920  143.4220 C   0  0  0  0  0  3  0  0  0  0  0  0
  187.9080  178.7820  139.4500 C   0  0  2  0  0  3  0  0  0  0  0  0
  186.6480  176.7710  144.7130 C   0  0  0  0  0  2  0  0  0  0  0  0
  187.8000  177.6570  137.4730 C   0  0  2  0  0  3  0  0  0  0  0  0
  189.3570  178.6270  139.0650 C   0  0  0  0  0  2  0  0  0  0  0  0
  188.4820  177.4750  146.3310 C   0  0  0  0  0  0  0  0  0  0  0  0
  185.8020  178.1990  138.6700 C   0  0  0  0  0  2  0  0  0  0  0  0
  187.5760  178.8090  140.9430 C   0  0  1  0  0  3  0  0  0  0  0  0
  187.1740  177.7240  138.7840 N   0  0  2  0  0  0  0  0  0  0  0  0
  187.6970  176.2410  136.9240 C   0  0  0  0  0  2  0  0  0  0  0  0
  191.1750  174.6990  136.1830 C   0  0  0  0  0  0  0  0  0  0  0  0
  191.4270  174.9810  134.9820 O   0  0  0  0  0  0  0  0  0  0  0  0
  189.0300  176.2300  134.9540 O   0  0  0  0  0  0  0  0  0  0  0  0
  189.9570  175.1240  136.8030 N   0  0  0  0  0  2  0  0  0  0  0  0
  192.1590  173.9140  136.9710 C   0  0  0  0  0  1  0  0  0  0  0  0
  188.9260  175.8820  136.1610 C   0  0  0  0  0  0  0  0  0  0  0  0
  2  8  2  0  0  0  0
  3 25  1  0  0  0  0
  5 15  1  0  0  0  0
  7 13  1  0  0  0  0
  7  4  1  0  0  0  0
  8 20  2  0  0  0  0
  9  6  1  6  0  0  0
  9 19  1  0  0  0  0
  9 14  1  0  0  0  0
 10  7  2  0  0  0  0
 11  6  2  0  0  0  0
 14  3  1  0  0  0  0
 15  1  1  0  0  0  0
 15 12  2  0  0  0  0
 16  2  1  0  0  0  0
 17 10  1  0  0  0  0
 18 24  1  0  0  0  0
 19 14  2  0  0  0  0
 19  5  1  0  0  0  0
 20 17  1  0  0  0  0
 21 24  1  1  0  0  0
 21 27  1  0  0  0  0
 22  3  1  0  0  0  0
 22 10  1  0  0  0  0
 23 29  1  1  0  0  0
 23 18  1  0  0  0  0
 23 28  1  0  0  0  0
 25  4  2  0  0  0  0
 25  1  1  0  0  0  0
 26 16  1  0  0  0  0
 27  2  1  0  0  0  0
 27 11  1  1  0  0  0
 28 26  1  6  0  0  0
 28 21  1  0  0  0  0
 30 33  1  0  0  0  0
 30 34  1  0  0  0  0
 31 30  2  0  0  0  0
 32 35  2  0  0  0  0
 35 33  1  0  0  0  0
 35 29  1  0  0  0  0
M  END
>  <MODEL>
2

>  <REMARK>
 VINA RESULT:      -9.9      1.617      2.393
  Name = 
  2 active torsions:
  status: ('A' for Active; 'I' for Inactive)
    1  A    between atoms: C_27  and  C_32
    2  A    between atoms: C_29  and  C_32
                            x       y       z     vdW  Elec       q    Type
                         _______ _______ _______ _____ _____    ______ ____

>  <TORSDO>
F 2

$$$$
=
 OpenBabel10232410483D

 35 40  0  0  1  0  0  0  0  0999 V2000
  189.8350  177.3400  146.8870 N   0  0  0  0  0  2  0  0  0  0  0  0
  186.0480  178.8870  141.1140 C   0  0  0  0  0  0  0  0  0  0  0  0
  188.0420  176.7890  145.1550 N   0  0  0  0  0  0  0  0  0  0  0  0
  187.6730  178.3740  146.8990 C   0  0  0  0  0  3  0  0  0  0  0  0
  191.5750  177.0680  144.9030 C   0  0  0  0  0  2  0  0  0  0  0  0
  189.2930  177.4910  142.1400 C   0  0  0  0  0  3  0  0  0  0  0  0
  186.3720  178.6990  146.2820 C   0  0  0  0  0  0  0  0  0  0  0  0
  185.5470  179.2000  142.2820 C   0  0  0  0  0  0  0  0  0  0  0  0
  189.6390  176.3040  142.9810 C   0  0  2  0  0  3  0  0  0  0  0  0
  185.9330  178.0260  145.2040 C   0  0  0  0  0  0  0  0  0  0  0  0
  188.0490  177.5900  141.6670 C   0  0  0  0  0  3  0  0  0  0  0  0
  192.0000  176.5340  147.1720 O   0  0  0  0  0  0  0  0  0  0  0  0
  185.6350  179.7590  146.8000 O   0  0  0  0  0  1  0  0  0  0  0  0
  189.0500  176.5410  144.2230 C   0  0  0  0  0  0  0  0  0  0  0  0
  191.1330  176.9350  146.3540 C   0  0  0  0  0  0  0  0  0  0  0  0
  185.1260  178.2580  140.0920 C   0  0  0  0  0  2  0  0  0  0  0  0
  184.7060  178.4650  144.4640 C   0  0  0  0  0  2  0  0  0  0  0  0
  189.2120  178.0230  137.6600 C   0  0  0  0  0  2  0  0  0  0  0  0
  190.4490  176.6530  144.0690 C   0  0  0  0  0  0  0  0  0  0  0  0
  185.0370  179.5120  143.4450 C   0  0  0  0  0  3  0  0  0  0  0  0
  187.8710  178.7710  139.4530 C   0  0  2  0  0  3  0  0  0  0  0  0
  186.6440  176.7880  144.7340 C   0  0  0  0  0  2  0  0  0  0  0  0
  187.7420  177.6390  137.4810 C   0  0  2  0  0  3  0  0  0  0  0  0
  189.3160  178.6070  139.0560 C   0  0  0  0  0  2  0  0  0  0  0  0
  188.4950  177.4880  146.3340 C   0  0  0  0  0  0  0  0  0  0  0  0
  185.7560  178.1970  138.6930 C   0  0  0  0  0  2  0  0  0  0  0  0
  187.5510  178.8060  140.9480 C   0  0  1  0  0  3  0  0  0  0  0  0
  187.1270  177.7150  138.7970 N   0  0  2  0  0  0  0  0  0  0  0  0
  187.6270  176.2220  136.9390 C   0  0  0  0  0  2  0  0  0  0  0  0
  184.0920  176.3980  135.3590 C   0  0  0  0  0  0  0  0  0  0  0  0
  183.4330  175.4640  135.8860 O   0  0  0  0  0  0  0  0  0  0  0  0
  185.6800  174.8980  137.2780 O   0  0  0  0  0  0  0  0  0  0  0  0
  185.4570  176.6360  135.7190 N   0  0  0  0  0  2  0  0  0  0  0  0
  183.4410  177.2700  134.3470 C   0  0  0  0  0  1  0  0  0  0  0  0
  186.2020  175.8740  136.6740 C   0  0  0  0  0  0  0  0  0  0  0  0
  2  8  2  0  0  0  0
  3 25  1  0  0  0  0
  5 15  1  0  0  0  0
  7 13  1  0  0  0  0
  7  4  1  0  0  0  0
  8 20  2  0  0  0  0
  9  6  1  6  0  0  0
  9 19  1  0  0  0  0
  9 14  1  0  0  0  0
 10  7  2  0  0  0  0
 11  6  2  0  0  0  0
 14  3  1  0  0  0  0
 15  1  1  0  0  0  0
 15 12  2  0  0  0  0
 16  2  1  0  0  0  0
 17 10  1  0  0  0  0
 18 24  1  0  0  0  0
 19 14  2  0  0  0  0
 19  5  1  0  0  0  0
 20 17  1  0  0  0  0
 21 24  1  1  0  0  0
 21 27  1  0  0  0  0
 22  3  1  0  0  0  0
 22 10  1  0  0  0  0
 23 29  1  1  0  0  0
 23 18  1  0  0  0  0
 23 28  1  0  0  0  0
 25  1  1  0  0  0  0
 25  4  2  0  0  0  0
 26 16  1  0  0  0  0
 27  2  1  0  0  0  0
 27 11  1  1  0  0  0
 28 26  1  6  0  0  0
 28 21  1  0  0  0  0
 30 33  1  0  0  0  0
 30 31  2  0  0  0  0
 33 35  1  0  0  0  0
 34 30  1  0  0  0  0
 35 29  1  0  0  0  0
 35 32  2  0  0  0  0
M  END
>  <MODEL>
3

>  <REMARK>
 VINA RESULT:      -9.7      1.002      1.150
  Name = 
  2 active torsions:
  status: ('A' for Active; 'I' for Inactive)
    1  A    between atoms: C_27  and  C_32
    2  A    between atoms: C_29  and  C_32
                            x       y       z     vdW  Elec       q    Type
                         _______ _______ _______ _____ _____    ______ ____

>  <TORSDO>
F 2

$$$$
=
 OpenBabel10232410483D

 35 40  0  0  1  0  0  0  0  0999 V2000
  189.9150  177.4210  146.6570 N   0  0  0  0  0  2  0  0  0  0  0  0
  185.2390  178.9770  141.5800 C   0  0  0  0  0  0  0  0  0  0  0  0
  187.8560  176.8780  145.2490 N   0  0  0  0  0  0  0  0  0  0  0  0
  187.7930  178.4750  147.0210 C   0  0  0  0  0  3  0  0  0  0  0  0
  191.3010  177.1240  144.4150 C   0  0  0  0  0  2  0  0  0  0  0  0
  188.5980  177.5560  142.0650 C   0  0  0  0  0  3  0  0  0  0  0  0
  186.4110  178.8090  146.6260 C   0  0  0  0  0  0  0  0  0  0  0  0
  184.9410  179.3000  142.8130 C   0  0  0  0  0  0  0  0  0  0  0  0
  189.0680  176.3700  142.8430 C   0  0  2  0  0  3  0  0  0  0  0  0
  185.7940  178.1360  145.6390 C   0  0  0  0  0  0  0  0  0  0  0  0
  187.2930  177.6640  141.8040 C   0  0  0  0  0  3  0  0  0  0  0  0
  192.0910  176.5960  146.5860 O   0  0  0  0  0  0  0  0  0  0  0  0
  185.7790  179.8770  147.2510 O   0  0  0  0  0  1  0  0  0  0  0  0
  188.6940  176.6170  144.1640 C   0  0  0  0  0  0  0  0  0  0  0  0
  191.1040  177.0010  145.9200 C   0  0  0  0  0  0  0  0  0  0  0  0
  184.1550  178.3520  140.7290 C   0  0  0  0  0  2  0  0  0  0  0  0
  184.4660  178.5820  145.1080 C   0  0  0  0  0  2  0  0  0  0  0  0
  187.7820  178.0690  137.6570 C   0  0  0  0  0  2  0  0  0  0  0  0
  190.0500  176.7160  143.7810 C   0  0  0  0  0  0  0  0  0  0  0  0
  184.6330  179.6220  144.0430 C   0  0  0  0  0  3  0  0  0  0  0  0
  186.7620  178.8370  139.6420 C   0  0  2  0  0  3  0  0  0  0  0  0
  186.4070  176.8880  145.0650 C   0  0  0  0  0  2  0  0  0  0  0  0
  186.2990  177.6970  137.7250 C   0  0  2  0  0  3  0  0  0  0  0  0
  188.1200  178.6580  139.0130 C   0  0  0  0  0  2  0  0  0  0  0  0
  188.5030  177.5790  146.3330 C   0  0  0  0  0  0  0  0  0  0  0  0
  184.5460  178.2790  139.2450 C   0  0  0  0  0  2  0  0  0  0  0  0
  186.6940  178.8820  141.1690 C   0  0  1  0  0  3  0  0  0  0  0  0
  185.9110  177.7850  139.1240 N   0  0  2  0  0  0  0  0  0  0  0  0
  186.0840  176.2790  137.2180 C   0  0  0  0  0  2  0  0  0  0  0  0
  189.4430  174.5410  136.3690 C   0  0  0  0  0  0  0  0  0  0  0  0
  189.6400  174.7550  135.1450 O   0  0  0  0  0  0  0  0  0  0  0  0
  187.3040  176.1130  135.1830 O   0  0  0  0  0  0  0  0  0  0  0  0
  188.2810  175.0520  137.0320 N   0  0  0  0  0  2  0  0  0  0  0  0
  190.4330  173.7480  137.1420 C   0  0  0  0  0  1  0  0  0  0  0  0
  187.2510  175.8270  136.4090 C   0  0  0  0  0  0  0  0  0  0  0  0
  2  8  2  0  0  0  0
  3 25  1  0  0  0  0
  5 15  1  0  0  0  0
  7  4  1  0  0  0  0
  7 13  1  0  0  0  0
  8 20  2  0  0  0  0
  9  6  1  6  0  0  0
  9 19  1  0  0  0  0
  9 14  1  0  0  0  0
 10  7  2  0  0  0  0
 11  6  2  0  0  0  0
 14  3  1  0  0  0  0
 15 12  2  0  0  0  0
 15  1  1  0  0  0  0
 16  2  1  0  0  0  0
 17 10  1  0  0  0  0
 18 23  1  0  0  0  0
 18 24  1  0  0  0  0
 19 14  2  0  0  0  0
 19  5  1  0  0  0  0
 20 17  1  0  0  0  0
 21 24  1  1  0  0  0
 21 27  1  0  0  0  0
 22  3  1  0  0  0  0
 22 10  1  0  0  0  0
 23 29  1  1  0  0  0
 23 28  1  0  0  0  0
 25  1  1  0  0  0  0
 25  4  2  0  0  0  0
 26 16  1  0  0  0  0
 27  2  1  0  0  0  0
 27 11  1  1  0  0  0
 28 26  1  6  0  0  0
 28 21  1  0  0  0  0
 30 33  1  0  0  0  0
 30 34  1  0  0  0  0
 31 30  2  0  0  0  0
 32 35  2  0  0  0  0
 35 33  1  0  0  0  0
 35 29  1  0  0  0  0
M  END
>  <MODEL>
4

>  <REMARK>
 VINA RESULT:      -9.2      1.316      2.010
  Name = 
  2 active torsions:
  status: ('A' for Active; 'I' for Inactive)
    1  A    between atoms: C_27  and  C_32
    2  A    between atoms: C_29  and  C_32
                            x       y       z     vdW  Elec       q    Type
                         _______ _______ _______ _____ _____    ______ ____

>  <TORSDO>
F 2

$$$$
=
 OpenBabel10232410483D

 35 40  0  0  1  0  0  0  0  0999 V2000
  189.9010  177.5140  146.6450 N   0  0  0  0  0  2  0  0  0  0  0  0
  184.6050  179.0530  142.2120 C   0  0  0  0  0  0  0  0  0  0  0  0
  187.6690  176.9730  145.5280 N   0  0  0  0  0  0  0  0  0  0  0  0
  187.8530  178.5900  147.2730 C   0  0  0  0  0  3  0  0  0  0  0  0
  190.9760  177.1790  144.2430 C   0  0  0  0  0  2  0  0  0  0  0  0
  187.9880  177.6080  142.2660 C   0  0  0  0  0  3  0  0  0  0  0  0
  186.4330  178.9320  147.0600 C   0  0  0  0  0  0  0  0  0  0  0  0
  184.4750  179.3920  143.4700 C   0  0  0  0  0  0  0  0  0  0  0  0
  188.5490  176.4270  142.9900 C   0  0  2  0  0  3  0  0  0  0  0  0
  185.6870  178.2520  146.1720 C   0  0  0  0  0  0  0  0  0  0  0  0
  186.6610  177.7240  142.1780 C   0  0  0  0  0  3  0  0  0  0  0  0
  192.0420  176.6690  146.2970 O   0  0  0  0  0  0  0  0  0  0  0  0
  185.8970  180.0120  147.7510 O   0  0  0  0  0  1  0  0  0  0  0  0
  188.3550  176.6920  144.3460 C   0  0  0  0  0  0  0  0  0  0  0  0
  190.9780  177.0750  145.7620 C   0  0  0  0  0  0  0  0  0  0  0  0
  183.4140  178.4270  141.5200 C   0  0  0  0  0  2  0  0  0  0  0  0
  184.3030  178.7040  145.8160 C   0  0  0  0  0  2  0  0  0  0  0  0
  186.5990  178.0780  137.9990 C   0  0  0  0  0  2  0  0  0  0  0  0
  189.6490  176.7750  143.7860 C   0  0  0  0  0  0  0  0  0  0  0  0
  184.3350  179.7310  144.7260 C   0  0  0  0  0  3  0  0  0  0  0  0
  185.8570  178.8780  140.0920 C   0  0  2  0  0  3  0  0  0  0  0  0
  186.2090  176.9940  145.5370 C   0  0  0  0  0  2  0  0  0  0  0  0
  185.1350  177.7200  138.2670 C   0  0  2  0  0  3  0  0  0  0  0  0
  187.1180  178.6800  139.2910 C   0  0  0  0  0  2  0  0  0  0  0  0
  188.4600  177.6800  146.5090 C   0  0  0  0  0  0  0  0  0  0  0  0
  183.6030  178.3340  139.9980 C   0  0  0  0  0  2  0  0  0  0  0  0
  185.9920  178.9400  141.6140 C   0  0  1  0  0  3  0  0  0  0  0  0
  184.9370  177.8270  139.7040 N   0  0  2  0  0  0  0  0  0  0  0  0
  184.8450  176.2980  137.8100 C   0  0  0  0  0  2  0  0  0  0  0  0
  181.0690  175.4510  137.6010 C   0  0  0  0  0  0  0  0  0  0  0  0
  180.6870  175.8620  136.4740 O   0  0  0  0  0  0  0  0  0  0  0  0
  183.2390  176.6670  136.0950 O   0  0  0  0  0  0  0  0  0  0  0  0
  182.4310  175.5950  138.0190 N   0  0  0  0  0  2  0  0  0  0  0  0
  180.0910  174.8050  138.5140 C   0  0  0  0  0  1  0  0  0  0  0  0
  183.4710  176.1980  137.2420 C   0  0  0  0  0  0  0  0  0  0  0  0
  2  8  2  0  0  0  0
  3 22  1  0  0  0  0
  3 25  1  0  0  0  0
  5 15  1  0  0  0  0
  7  4  1  0  0  0  0
  7 13  1  0  0  0  0
  8 20  2  0  0  0  0
  9  6  1  6  0  0  0
  9 19  1  0  0  0  0
  9 14  1  0  0  0  0
 10  7  2  0  0  0  0
 11  6  2  0  0  0  0
 14  3  1  0  0  0  0
 15 12  2  0  0  0  0
 15  1  1  0  0  0  0
 16  2  1  0  0  0  0
 17 10  1  0  0  0  0
 18 23  1  0  0  0  0
 18 24  1  0  0  0  0
 19  5  1  0  0  0  0
 19 14  2  0  0  0  0
 20 17  1  0  0  0  0
 21 24  1  6  0  0  0
 21 27  1  0  0  0  0
 22 10  1  0  0  0  0
 23 29  1  1  0  0  0
 23 28  1  0  0  0  0
 25  1  1  0  0  0  0
 25  4  2  0  0  0  0
 26 16  1  0  0  0  0
 27 11  1  1  0  0  0
 27  2  1  0  0  0  0
 28 26  1  6  0  0  0
 28 21  1  0  0  0  0
 30 33  1  0  0  0  0
 30 34  1  0  0  0  0
 31 30  2  0  0  0  0
 32 35  2  0  0  0  0
 35 29  1  0  0  0  0
 35 33  1  0  0  0  0
M  END
>  <MODEL>
5

>  <REMARK>
 VINA RESULT:      -9.1      1.801      2.273
  Name = 
  2 active torsions:
  status: ('A' for Active; 'I' for Inactive)
    1  A    between atoms: C_27  and  C_32
    2  A    between atoms: C_29  and  C_32
                            x       y       z     vdW  Elec       q    Type
                         _______ _______ _______ _____ _____    ______ ____

>  <TORSDO>
F 2

$$$$
=
 OpenBabel10232410483D

 35 40  0  0  1  0  0  0  0  0999 V2000
  187.5250  178.1770  146.9840 N   0  0  0  0  0  2  0  0  0  0  0  0
  187.6450  178.1720  139.9090 C   0  0  0  0  0  0  0  0  0  0  0  0
  186.9760  177.1260  144.7220 N   0  0  0  0  0  0  0  0  0  0  0  0
  185.7620  178.9930  145.5800 C   0  0  0  0  0  3  0  0  0  0  0  0
  190.0610  177.6650  146.3990 C   0  0  0  0  0  2  0  0  0  0  0  0
  189.7160  177.3120  142.8260 C   0  0  0  0  0  3  0  0  0  0  0  0
  185.0360  179.0680  144.2970 C   0  0  0  0  0  0  0  0  0  0  0  0
  186.5920  178.6690  140.5080 C   0  0  0  0  0  0  0  0  0  0  0  0
  189.4910  176.3560  143.9530 C   0  0  2  0  0  3  0  0  0  0  0  0
  185.2440  178.1530  143.3330 C   0  0  0  0  0  0  0  0  0  0  0  0
  188.9490  177.1990  141.7390 C   0  0  0  0  0  3  0  0  0  0  0  0
  189.1330  177.6440  148.5800 O   0  0  0  0  0  0  0  0  0  0  0  0
  184.1780  180.1390  144.0780 O   0  0  0  0  0  1  0  0  0  0  0  0
  188.3210  176.7860  144.5790 C   0  0  0  0  0  0  0  0  0  0  0  0
  188.8830  177.7910  147.3560 C   0  0  0  0  0  0  0  0  0  0  0  0
  187.4220  177.2680  138.7160 C   0  0  0  0  0  2  0  0  0  0  0  0
  184.6540  178.3200  141.9660 C   0  0  0  0  0  2  0  0  0  0  0  0
  192.1580  176.9130  139.0520 C   0  0  0  0  0  2  0  0  0  0  0  0
  189.5730  176.9910  145.2000 C   0  0  0  0  0  0  0  0  0  0  0  0
  185.5350  179.1640  141.0970 C   0  0  0  0  0  3  0  0  0  0  0  0
  190.0770  177.8860  139.5970 C   0  0  2  0  0  3  0  0  0  0  0  0
  186.0480  176.9140  143.6150 C   0  0  0  0  0  2  0  0  0  0  0  0
  191.0210  176.3700  138.1830 C   0  0  2  0  0  3  0  0  0  0  0  0
  191.4910  177.7760  140.1070 C   0  0  0  0  0  2  0  0  0  0  0  0
  186.7240  178.0890  145.7700 C   0  0  0  0  0  0  0  0  0  0  0  0
  188.7200  176.9810  137.9480 C   0  0  0  0  0  2  0  0  0  0  0  0
  188.9830  178.1950  140.6200 C   0  0  1  0  0  3  0  0  0  0  0  0
  189.7820  176.6550  138.8910 N   0  0  2  0  0  0  0  0  0  0  0  0
  191.1710  174.8680  137.9930 C   0  0  0  0  0  2  0  0  0  0  0  0
  194.6800  173.5430  137.0140 C   0  0  0  0  0  0  0  0  0  0  0  0
  194.8080  173.7850  135.7860 O   0  0  0  0  0  0  0  0  0  0  0  0
  192.3310  174.8580  135.9160 O   0  0  0  0  0  0  0  0  0  0  0  0
  193.4900  173.9090  137.7210 N   0  0  0  0  0  2  0  0  0  0  0  0
  195.7830  172.8680  137.7450 C   0  0  0  0  0  1  0  0  0  0  0  0
  192.3550  174.5610  137.1410 C   0  0  0  0  0  0  0  0  0  0  0  0
  1 15  1  0  0  0  0
  2  8  2  0  0  0  0
  2 27  1  0  0  0  0
  3 25  1  0  0  0  0
  4 25  2  0  0  0  0
  5 15  1  0  0  0  0
  7  4  1  0  0  0  0
  8 20  2  0  0  0  0
  9  6  1  6  0  0  0
  9 14  1  0  0  0  0
  9 19  1  0  0  0  0
 10 22  1  0  0  0  0
 10  7  2  0  0  0  0
 11  6  2  0  0  0  0
 13  7  1  0  0  0  0
 14  3  1  0  0  0  0
 14 19  2  0  0  0  0
 15 12  2  0  0  0  0
 16  2  1  0  0  0  0
 17 10  1  0  0  0  0
 18 24  1  0  0  0  0
 19  5  1  0  0  0  0
 20 17  1  0  0  0  0
 21 24  1  1  0  0  0
 21 27  1  0  0  0  0
 22  3  1  0  0  0  0
 23 29  1  1  0  0  0
 23 28  1  0  0  0  0
 23 18  1  0  0  0  0
 25  1  1  0  0  0  0
 26 16  1  0  0  0  0
 27 11  1  1  0  0  0
 28 26  1  6  0  0  0
 28 21  1  0  0  0  0
 30 33  1  0  0  0  0
 30 34  1  0  0  0  0
 31 30  2  0  0  0  0
 32 35  2  0  0  0  0
 35 33  1  0  0  0  0
 35 29  1  0  0  0  0
M  END
>  <MODEL>
6

>  <REMARK>
 VINA RESULT:      -9.0      3.332      4.275
  Name = 
  2 active torsions:
  status: ('A' for Active; 'I' for Inactive)
    1  A    between atoms: C_27  and  C_32
    2  A    between atoms: C_29  and  C_32
                            x       y       z     vdW  Elec       q    Type
                         _______ _______ _______ _____ _____    ______ ____

>  <TORSDO>
F 2

$$$$
=
 OpenBabel10232410483D

 35 40  0  0  1  0  0  0  0  0999 V2000
  187.7820  178.1250  146.8640 N   0  0  0  0  0  2  0  0  0  0  0  0
  187.5890  178.1270  139.7910 C   0  0  0  0  0  0  0  0  0  0  0  0
  187.1110  177.0890  144.6290 N   0  0  0  0  0  0  0  0  0  0  0  0
  185.9760  178.9790  145.5400 C   0  0  0  0  0  3  0  0  0  0  0  0
  190.2790  177.5600  146.1680 C   0  0  0  0  0  2  0  0  0  0  0  0
  189.7680  177.2190  142.6120 C   0  0  0  0  0  3  0  0  0  0  0  0
  185.1960  179.0710  144.2900 C   0  0  0  0  0  0  0  0  0  0  0  0
  186.5740  178.6450  140.4360 C   0  0  0  0  0  0  0  0  0  0  0  0
  189.5730  176.2670  143.7480 C   0  0  2  0  0  3  0  0  0  0  0  0
  185.3420  178.1540  143.3180 C   0  0  0  0  0  0  0  0  0  0  0  0
  188.9520  177.1240  141.5610 C   0  0  0  0  0  3  0  0  0  0  0  0
  189.4480  177.5550  148.3870 O   0  0  0  0  0  0  0  0  0  0  0  0
  184.3520  180.1610  144.1100 O   0  0  0  0  0  1  0  0  0  0  0  0
  188.4410  176.7200  144.4260 C   0  0  0  0  0  0  0  0  0  0  0  0
  189.1470  177.7090  147.1750 C   0  0  0  0  0  0  0  0  0  0  0  0
  187.2940  177.2290  138.6090 C   0  0  0  0  0  2  0  0  0  0  0  0
  184.6950  178.3350  141.9780 C   0  0  0  0  0  2  0  0  0  0  0  0
  192.0310  176.7740  138.7340 C   0  0  0  0  0  2  0  0  0  0  0  0
  189.7230  176.8980  144.9900 C   0  0  0  0  0  0  0  0  0  0  0  0
  185.5550  179.1610  141.0720 C   0  0  0  0  0  3  0  0  0  0  0  0
  189.9980  177.7900  139.3720 C   0  0  2  0  0  3  0  0  0  0  0  0
  186.1310  176.8980  143.5630 C   0  0  0  0  0  2  0  0  0  0  0  0
  190.8460  176.2560  137.9160 C   0  0  2  0  0  3  0  0  0  0  0  0
  191.4310  177.6490  139.8180 C   0  0  0  0  0  2  0  0  0  0  0  0
  186.9260  178.0550  145.6860 C   0  0  0  0  0  0  0  0  0  0  0  0
  188.5510  176.9160  137.7830 C   0  0  0  0  0  2  0  0  0  0  0  0
  188.9570  178.1200  140.4410 C   0  0  1  0  0  3  0  0  0  0  0  0
  189.6460  176.5670  138.6780 N   0  0  2  0  0  0  0  0  0  0  0  0
  190.9560  174.7510  137.7190 C   0  0  0  0  0  2  0  0  0  0  0  0
  188.5780  172.6700  135.4750 C   0  0  0  0  0  0  0  0  0  0  0  0
  188.5950  173.2280  134.3460 O   0  0  0  0  0  0  0  0  0  0  0  0
  190.3250  174.9950  135.4380 O   0  0  0  0  0  0  0  0  0  0  0  0
  189.3590  173.1760  136.5620 N   0  0  0  0  0  2  0  0  0  0  0  0
  187.7330  171.4660  135.6820 C   0  0  0  0  0  1  0  0  0  0  0  0
  190.2120  174.3250  136.5000 C   0  0  0  0  0  0  0  0  0  0  0  0
  1 15  1  0  0  0  0
  2  8  2  0  0  0  0
  2 27  1  0  0  0  0
  3 25  1  0  0  0  0
  4 25  2  0  0  0  0
  5 15  1  0  0  0  0
  7  4  1  0  0  0  0
  8 20  2  0  0  0  0
  9  6  1  6  0  0  0
  9 14  1  0  0  0  0
  9 19  1  0  0  0  0
 10 22  1  0  0  0  0
 10  7  2  0  0  0  0
 11  6  2  0  0  0  0
 13  7  1  0  0  0  0
 14  3  1  0  0  0  0
 14 19  2  0  0  0  0
 15 12  2  0  0  0  0
 16  2  1  0  0  0  0
 17 10  1  0  0  0  0
 18 24  1  0  0  0  0
 19  5  1  0  0  0  0
 20 17  1  0  0  0  0
 21 24  1  1  0  0  0
 21 27  1  0  0  0  0
 22  3  1  0  0  0  0
 23 29  1  1  0  0  0
 23 28  1  0  0  0  0
 23 18  1  0  0  0  0
 25  1  1  0  0  0  0
 26 16  1  0  0  0  0
 27 11  1  1  0  0  0
 28 26  1  6  0  0  0
 28 21  1  0  0  0  0
 30 34  1  0  0  0  0
 30 33  1  0  0  0  0
 31 30  2  0  0  0  0
 32 35  2  0  0  0  0
 35 33  1  0  0  0  0
 35 29  1  0  0  0  0
M  END
>  <MODEL>
7

>  <REMARK>
 VINA RESULT:      -8.7      2.192      2.622
  Name = 
  2 active torsions:
  status: ('A' for Active; 'I' for Inactive)
    1  A    between atoms: C_27  and  C_32
    2  A    between atoms: C_29  and  C_32
                            x       y       z     vdW  Elec       q    Type
                         _______ _______ _______ _____ _____    ______ ____

>  <TORSDO>
F 2

$$$$
=
 OpenBabel10232410483D

 35 40  0  0  1  0  0  0  0  0999 V2000
  190.6730  177.4250  144.7720 N   0  0  0  0  0  2  0  0  0  0  0  0
  183.8460  179.0310  143.8390 C   0  0  0  0  0  0  0  0  0  0  0  0
  188.1960  176.8050  144.7440 N   0  0  0  0  0  0  0  0  0  0  0  0
  189.1640  178.0740  146.5180 C   0  0  0  0  0  3  0  0  0  0  0  0
  190.4460  177.6990  142.1430 C   0  0  0  0  0  2  0  0  0  0  0  0
  186.8630  178.0790  141.9620 C   0  0  0  0  0  3  0  0  0  0  0  0
  187.8120  178.2520  147.0820 C   0  0  0  0  0  0  0  0  0  0  0  0
  184.3370  179.1070  145.0500 C   0  0  0  0  0  0  0  0  0  0  0  0
  187.7390  176.8710  142.0420 C   0  0  2  0  0  3  0  0  0  0  0  0
  186.7460  177.6560  146.5200 C   0  0  0  0  0  0  0  0  0  0  0  0
  185.6600  178.0270  142.5370 C   0  0  0  0  0  3  0  0  0  0  0  0
  192.3940  176.9620  143.2740 O   0  0  0  0  0  0  0  0  0  0  0  0
  187.6510  179.1000  148.1720 O   0  0  0  0  0  1  0  0  0  0  0  0
  188.2250  176.8470  143.3500 C   0  0  0  0  0  0  0  0  0  0  0  0
  191.1940  177.3120  143.4130 C   0  0  0  0  0  0  0  0  0  0  0  0
  182.4860  178.3910  143.6640 C   0  0  0  0  0  2  0  0  0  0  0  0
  185.3530  177.9740  146.9710 C   0  0  0  0  0  2  0  0  0  0  0  0
  183.5540  179.1490  139.0870 C   0  0  0  0  0  2  0  0  0  0  0  0
  189.0770  177.2100  142.2840 C   0  0  0  0  0  0  0  0  0  0  0  0
  184.8190  179.1810  146.2640 C   0  0  0  0  0  3  0  0  0  0  0  0
  183.9060  179.4310  141.4040 C   0  0  2  0  0  3  0  0  0  0  0  0
  186.9270  176.6230  145.4430 C   0  0  0  0  0  2  0  0  0  0  0  0
  182.4180  178.5500  139.9210 C   0  0  2  0  0  3  0  0  0  0  0  0
  184.6200  179.5620  140.0830 C   0  0  0  0  0  2  0  0  0  0  0  0
  189.3450  177.4160  145.3720 C   0  0  0  0  0  0  0  0  0  0  0  0
  181.9110  178.6120  142.2570 C   0  0  0  0  0  2  0  0  0  0  0  0
  184.7660  179.2240  142.6510 C   0  0  1  0  0  3  0  0  0  0  0  0
  182.9440  178.3560  141.2630 N   0  0  2  0  0  0  0  0  0  0  0  0
  181.9820  177.2130  139.3390 C   0  0  0  0  0  2  0  0  0  0  0  0
  184.5100  175.8460  136.7390 C   0  0  0  0  0  0  0  0  0  0  0  0
  184.1260  176.2840  135.6230 O   0  0  0  0  0  0  0  0  0  0  0  0
  182.1180  177.4810  136.9800 O   0  0  0  0  0  0  0  0  0  0  0  0
  183.8030  176.1640  137.9430 N   0  0  0  0  0  2  0  0  0  0  0  0
  185.7190  174.9850  136.8090 C   0  0  0  0  0  1  0  0  0  0  0  0
  182.6280  176.9790  138.0170 C   0  0  0  0  0  0  0  0  0  0  0  0
  1 25  1  0  0  0  0
  2  8  2  0  0  0  0
  3 25  1  0  0  0  0
  3 22  1  0  0  0  0
  4  7  1  0  0  0  0
  5 19  1  0  0  0  0
  5 15  1  0  0  0  0
  6 11  2  0  0  0  0
  7 13  1  0  0  0  0
  8 20  2  0  0  0  0
  9  6  1  1  0  0  0
  9 19  1  0  0  0  0
  9 14  1  0  0  0  0
 10 17  1  0  0  0  0
 10  7  2  0  0  0  0
 12 15  2  0  0  0  0
 14  3  1  0  0  0  0
 15  1  1  0  0  0  0
 16  2  1  0  0  0  0
 18 23  1  0  0  0  0
 18 24  1  0  0  0  0
 19 14  2  0  0  0  0
 20 17  1  0  0  0  0
 21 24  1  6  0  0  0
 21 27  1  0  0  0  0
 22 10  1  0  0  0  0
 23 29  1  6  0  0  0
 23 28  1  0  0  0  0
 25  4  2  0  0  0  0
 26 16  1  0  0  0  0
 27 11  1  6  0  0  0
 27  2  1  0  0  0  0
 28 21  1  0  0  0  0
 28 26  1  1  0  0  0
 30 34  1  0  0  0  0
 30 33  1  0  0  0  0
 31 30  2  0  0  0  0
 32 35  2  0  0  0  0
 33 35  1  0  0  0  0
 35 29  1  0  0  0  0
M  END
>  <MODEL>
8

>  <REMARK>
 VINA RESULT:      -7.3      2.178      3.623
  Name = 
  2 active torsions:
  status: ('A' for Active; 'I' for Inactive)
    1  A    between atoms: C_27  and  C_32
    2  A    between atoms: C_29  and  C_32
                            x       y       z     vdW  Elec       q    Type
                         _______ _______ _______ _____ _____    ______ ____

>  <TORSDO>
F 2

$$$$
=
 OpenBabel10232410483D

 35 40  0  0  1  0  0  0  0  0999 V2000
  180.1890  179.2660  138.8720 N   0  0  0  0  0  2  0  0  0  0  0  0
  185.7530  175.5050  136.6440 C   0  0  0  0  0  0  0  0  0  0  0  0
  182.0140  177.5160  139.2300 N   0  0  0  0  0  0  0  0  0  0  0  0
  180.0700  177.0690  137.9220 C   0  0  0  0  0  3  0  0  0  0  0  0
  182.1600  181.0410  138.8030 C   0  0  0  0  0  2  0  0  0  0  0  0
  184.8750  178.7830  138.0660 C   0  0  0  0  0  3  0  0  0  0  0  0
  180.6580  175.7660  137.5540 C   0  0  0  0  0  0  0  0  0  0  0  0
  184.5610  174.9780  136.5170 C   0  0  0  0  0  0  0  0  0  0  0  0
  184.2060  179.1590  139.3480 C   0  0  2  0  0  3  0  0  0  0  0  0
  181.8280  175.3650  138.0810 C   0  0  0  0  0  0  0  0  0  0  0  0
  185.3520  177.5420  137.9410 C   0  0  0  0  0  3  0  0  0  0  0  0
  179.9820  181.4540  139.6400 O   0  0  0  0  0  0  0  0  0  0  0  0
  180.0090  174.9860  136.6040 O   0  0  0  0  0  1  0  0  0  0  0  0
  182.9540  178.5450  139.3100 C   0  0  0  0  0  0  0  0  0  0  0  0
  180.7500  180.5840  139.1550 C   0  0  0  0  0  0  0  0  0  0  0  0
  186.8700  174.6190  137.1510 C   0  0  0  0  0  2  0  0  0  0  0  0
  182.5210  174.1340  137.5820 C   0  0  0  0  0  2  0  0  0  0  0  0
  189.2360  178.7430  136.9050 C   0  0  0  0  0  2  0  0  0  0  0  0
  183.0640  179.9410  139.1310 C   0  0  0  0  0  0  0  0  0  0  0  0
  183.3750  174.4420  136.3900 C   0  0  0  0  0  3  0  0  0  0  0  0
  187.3790  177.3530  136.4630 C   0  0  2  0  0  3  0  0  0  0  0  0
  182.4560  176.1250  139.2160 C   0  0  0  0  0  2  0  0  0  0  0  0
  189.4940  177.2890  137.3070 C   0  0  2  0  0  3  0  0  0  0  0  0
  187.7690  178.8080  136.5220 C   0  0  0  0  0  2  0  0  0  0  0  0
  180.7390  177.9290  138.6910 C   0  0  0  0  0  0  0  0  0  0  0  0
  188.2520  175.2700  136.9920 C   0  0  0  0  0  2  0  0  0  0  0  0
  185.9010  177.0120  136.6520 C   0  0  1  0  0  3  0  0  0  0  0  0
  188.1920  176.6550  137.4390 N   0  0  2  0  0  0  0  0  0  0  0  0
  190.2340  177.2310  138.6360 C   0  0  0  0  0  2  0  0  0  0  0  0
  188.4600  177.2150  142.0820 C   0  0  0  0  0  0  0  0  0  0  0  0
  187.7680  178.2670  142.1170 O   0  0  0  0  0  0  0  0  0  0  0  0
  188.7260  178.7720  139.6400 O   0  0  0  0  0  0  0  0  0  0  0  0
  189.2530  176.8890  140.9350 N   0  0  0  0  0  2  0  0  0  0  0  0
  188.4510  176.2960  143.2490 C   0  0  0  0  0  1  0  0  0  0  0  0
  189.3520  177.6840  139.7490 C   0  0  0  0  0  0  0  0  0  0  0  0
  1 15  1  0  0  0  0
  2 27  1  0  0  0  0
  2 16  1  0  0  0  0
  3 14  1  0  0  0  0
  4 25  2  0  0  0  0
  5 19  1  0  0  0  0
  5 15  1  0  0  0  0
  7  4  1  0  0  0  0
  7 10  2  0  0  0  0
  8  2  2  0  0  0  0
  9  6  1  6  0  0  0
 10 22  1  0  0  0  0
 11  6  2  0  0  0  0
 13  7  1  0  0  0  0
 14  9  1  0  0  0  0
 15 12  2  0  0  0  0
 17 10  1  0  0  0  0
 18 23  1  0  0  0  0
 19 14  2  0  0  0  0
 19  9  1  0  0  0  0
 20  8  2  0  0  0  0
 20 17  1  0  0  0  0
 21 24  1  1  0  0  0
 21 27  1  0  0  0  0
 21 28  1  0  0  0  0
 22  3  1  0  0  0  0
 23 28  1  0  0  0  0
 23 29  1  1  0  0  0
 24 18  1  0  0  0  0
 25  1  1  0  0  0  0
 25  3  1  0  0  0  0
 26 16  1  0  0  0  0
 27 11  1  1  0  0  0
 28 26  1  6  0  0  0
 29 35  1  0  0  0  0
 30 31  2  0  0  0  0
 30 34  1  0  0  0  0
 32 35  2  0  0  0  0
 33 30  1  0  0  0  0
 35 33  1  0  0  0  0
M  END
>  <MODEL>
9

>  <REMARK>
 VINA RESULT:      -7.3      3.486      8.006
  Name = 
  2 active torsions:
  status: ('A' for Active; 'I' for Inactive)
    1  A    between atoms: C_27  and  C_32
    2  A    between atoms: C_29  and  C_32
                            x       y       z     vdW  Elec       q    Type
                         _______ _______ _______ _____ _____    ______ ____

>  <TORSDO>
F 2

$$$$
