=
 OpenBabel10232408383D

 28 32  0  0  1  0  0  0  0  0999 V2000
  188.2560  177.2320  142.5660 C   0  0  2  0  0  3  0  0  0  0  0  0
  187.7710  177.7720  143.8660 N   0  0  0  0  0  0  0  0  0  0  0  0
  190.1400  176.5190  143.8030 C   0  0  1  0  0  3  0  0  0  0  0  0
  192.3670  175.9420  147.2020 C   0  0  0  0  0  0  0  0  0  0  0  0
  191.1190  175.9450  144.7680 C   0  0  0  0  0  0  0  0  0  0  0  0
  189.3240  176.1980  142.8160 C   0  0  0  0  0  2  0  0  0  0  0  0
  191.5680  177.0720  146.8910 C   0  0  0  0  0  3  0  0  0  0  0  0
  186.3640  177.9740  144.0730 C   0  0  0  0  0  0  0  0  0  0  0  0
  190.9580  177.0140  145.6550 C   0  0  0  0  0  0  0  0  0  0  0  0
  188.6880  177.9690  145.0200 C   0  0  0  0  0  2  0  0  0  0  0  0
  185.9500  178.4860  145.1480 O   0  0  0  0  0  0  0  0  0  0  0  0
  191.8910  174.8480  145.0860 C   0  0  0  0  0  3  0  0  0  0  0  0
  193.0430  175.8940  148.4520 N   0  0  0  0  0  1  0  0  0  0  0  0
  192.5080  174.8910  146.3120 N   0  0  0  0  0  0  0  0  0  0  0  0
  190.1500  177.6820  144.6440 C   0  0  2  0  0  3  0  0  0  0  0  0
  189.7950  177.8660  140.8190 O   0  0  0  0  0  0  0  0  0  0  0  0
  188.8070  178.3620  141.6870 C   0  0  1  0  0  3  0  0  0  0  0  0
  188.9920  178.1510  139.7030 C   0  0  0  0  0  2  0  0  0  0  0  0
  187.8750  178.6870  140.5520 C   0  0  0  0  0  2  0  0  0  0  0  0
  185.3630  177.5710  143.0360 C   0  0  0  0  0  2  0  0  0  0  0  0
  184.1040  178.2670  143.2530 N   0  0  0  0  0  2  0  0  0  0  0  0
  183.5740  177.9610  140.9160 C   0  0  1  0  0  3  0  0  0  0  0  0
  183.7850  178.9730  142.0250 C   0  0  1  0  0  3  0  0  0  0  0  0
  182.3810  178.6090  141.5840 C   0  0  0  0  0  2  0  0  0  0  0  0
  183.8980  178.7470  139.3100 P   0  0  0  0  0  0  0  0  0  0  0  0
  182.4270  179.2020  138.6110 O   0  0  0  0  0  1  0  0  0  0  0  0
  184.7490  179.9780  139.5220 O   0  0  0  0  0  1  0  0  0  0  0  0
  184.7040  177.6840  138.2660 O   0  0  0  0  0  0  0  0  0  0  0  0
  1  6  1  1  0  0  0
  1  2  1  0  0  0  0
  2  8  1  0  0  0  0
  2 10  1  0  0  0  0
  3  6  1  1  0  0  0
  3 15  1  0  0  0  0
  3  5  1  0  0  0  0
  4 13  1  0  0  0  0
  5 12  2  0  0  0  0
  5  9  1  0  0  0  0
  7  4  1  0  0  0  0
  8 11  2  0  0  0  0
  9  7  2  0  0  0  0
 12 14  1  0  0  0  0
 14  4  2  0  0  0  0
 15 10  1  1  0  0  0
 15  9  1  0  0  0  0
 16 17  1  0  0  0  0
 17 19  1  6  0  0  0
 17  1  1  0  0  0  0
 18 19  1  0  0  0  0
 18 16  1  0  0  0  0
 20 21  1  0  0  0  0
 20  8  1  0  0  0  0
 22 25  1  6  0  0  0
 22 24  1  0  0  0  0
 22 23  1  0  0  0  0
 23 21  1  1  0  0  0
 24 23  1  0  0  0  0
 25 27  1  0  0  0  0
 26 25  1  0  0  0  0
 28 25  2  0  0  0  0
M  END
>  <MODEL>
1

>  <REMARK>
 VINA RESULT:      -7.1      0.000      0.000
  Name = 
  5 active torsions:
  status: ('A' for Active; 'I' for Inactive)
    1  A    between atoms: C_1  and  C_13
    2  A    between atoms: C_7  and  P_11
    3  A    between atoms: N_10  and  C_16
    4  A    between atoms: N_10  and  C_24
    5  A    between atoms: C_12  and  C_24
                            x       y       z     vdW  Elec       q    Type
                         _______ _______ _______ _____ _____    ______ ____

>  <TORSDO>
F 5

$$$$
=
 OpenBabel10232408383D

 28 32  0  0  1  0  0  0  0  0999 V2000
  189.7330  177.4760  141.3140 C   0  0  2  0  0  3  0  0  0  0  0  0
  188.8050  177.5080  140.1510 N   0  0  0  0  0  0  0  0  0  0  0  0
  191.3560  176.8020  139.7330 C   0  0  1  0  0  3  0  0  0  0  0  0
  192.7740  175.9540  135.9770 C   0  0  0  0  0  0  0  0  0  0  0  0
  192.2860  176.6240  138.5830 C   0  0  0  0  0  0  0  0  0  0  0  0
  191.1570  177.5190  140.8240 C   0  0  0  0  0  2  0  0  0  0  0  0
  191.4850  175.6530  136.4860 C   0  0  0  0  0  3  0  0  0  0  0  0
  187.6310  178.3350  140.1990 C   0  0  0  0  0  0  0  0  0  0  0  0
  191.2940  176.0200  137.8020 C   0  0  0  0  0  0  0  0  0  0  0  0
  189.1320  176.8240  138.8710 C   0  0  0  0  0  2  0  0  0  0  0  0
  186.8090  178.3230  139.2430 O   0  0  0  0  0  0  0  0  0  0  0  0
  193.5320  176.9200  138.0730 C   0  0  0  0  0  3  0  0  0  0  0  0
  193.0820  175.6200  134.6290 N   0  0  0  0  0  1  0  0  0  0  0  0
  193.7390  176.5580  136.7650 N   0  0  0  0  0  0  0  0  0  0  0  0
  190.4310  176.0100  138.9750 C   0  0  2  0  0  3  0  0  0  0  0  0
  190.6010  175.9750  142.9930 O   0  0  0  0  0  0  0  0  0  0  0  0
  189.4990  176.2130  142.1530 C   0  0  1  0  0  3  0  0  0  0  0  0
  189.8100  176.1970  144.1320 C   0  0  0  0  0  2  0  0  0  0  0  0
  188.5820  176.4800  143.3150 C   0  0  0  0  0  2  0  0  0  0  0  0
  187.3640  179.2350  141.3650 C   0  0  0  0  0  2  0  0  0  0  0  0
  185.9320  179.4260  141.5380 N   0  0  0  0  0  2  0  0  0  0  0  0
  184.8770  179.5780  143.7050 C   0  0  1  0  0  3  0  0  0  0  0  0
  185.5320  178.6520  142.7000 C   0  0  1  0  0  3  0  0  0  0  0  0
  184.0220  178.6860  142.8320 C   0  0  0  0  0  2  0  0  0  0  0  0
  185.0300  178.8670  145.3710 P   0  0  0  0  0  0  0  0  0  0  0  0
  185.8620  179.9560  146.3630 O   0  0  0  0  0  1  0  0  0  0  0  0
  183.6490  178.6340  145.9400 O   0  0  0  0  0  1  0  0  0  0  0  0
  185.8710  177.3980  145.3290 O   0  0  0  0  0  0  0  0  0  0  0  0
  1  6  1  6  0  0  0
  1 17  1  0  0  0  0
  2  8  1  0  0  0  0
  2  1  1  0  0  0  0
  3  6  1  6  0  0  0
  4  7  2  0  0  0  0
  4 14  1  0  0  0  0
  5  3  1  0  0  0  0
  7  9  1  0  0  0  0
  8 20  1  0  0  0  0
  9  5  2  0  0  0  0
  9 15  1  0  0  0  0
 10  2  1  0  0  0  0
 11  8  2  0  0  0  0
 12  5  1  0  0  0  0
 13  4  1  0  0  0  0
 14 12  2  0  0  0  0
 15 10  1  6  0  0  0
 15  3  1  0  0  0  0
 16 18  1  0  0  0  0
 17 16  1  0  0  0  0
 17 19  1  1  0  0  0
 19 18  1  0  0  0  0
 20 21  1  0  0  0  0
 22 25  1  1  0  0  0
 23 21  1  6  0  0  0
 23 24  1  0  0  0  0
 23 22  1  0  0  0  0
 24 22  1  0  0  0  0
 25 27  1  0  0  0  0
 25 26  1  0  0  0  0
 28 25  2  0  0  0  0
M  END
>  <MODEL>
2

>  <REMARK>
 VINA RESULT:      -6.5      3.942      6.407
  Name = 
  5 active torsions:
  status: ('A' for Active; 'I' for Inactive)
    1  A    between atoms: C_1  and  C_13
    2  A    between atoms: C_7  and  P_11
    3  A    between atoms: N_10  and  C_16
    4  A    between atoms: N_10  and  C_24
    5  A    between atoms: C_12  and  C_24
                            x       y       z     vdW  Elec       q    Type
                         _______ _______ _______ _____ _____    ______ ____

>  <TORSDO>
F 5

$$$$
=
 OpenBabel10232408383D

 28 32  0  0  1  0  0  0  0  0999 V2000
  188.3380  177.1400  142.6200 C   0  0  2  0  0  3  0  0  0  0  0  0
  187.8160  177.7000  143.8960 N   0  0  0  0  0  0  0  0  0  0  0  0
  190.2070  176.4900  143.9130 C   0  0  1  0  0  3  0  0  0  0  0  0
  192.3700  176.0310  147.3710 C   0  0  0  0  0  0  0  0  0  0  0  0
  191.1760  175.9560  144.9110 C   0  0  0  0  0  0  0  0  0  0  0  0
  189.4190  176.1320  142.9160 C   0  0  0  0  0  2  0  0  0  0  0  0
  191.5570  177.1390  147.0170 C   0  0  0  0  0  3  0  0  0  0  0  0
  186.4010  177.8800  144.0690 C   0  0  0  0  0  0  0  0  0  0  0  0
  190.9760  177.0420  145.7700 C   0  0  0  0  0  0  0  0  0  0  0  0
  188.7040  177.9400  145.0650 C   0  0  0  0  0  2  0  0  0  0  0  0
  185.9540  178.4090  145.1220 O   0  0  0  0  0  0  0  0  0  0  0  0
  191.9600  174.8810  145.2710 C   0  0  0  0  0  3  0  0  0  0  0  0
  193.0190  176.0240  148.6360 N   0  0  0  0  0  1  0  0  0  0  0  0
  192.5490  174.9630  146.5090 N   0  0  0  0  0  0  0  0  0  0  0  0
  190.1780  177.6710  144.7270 C   0  0  2  0  0  3  0  0  0  0  0  0
  189.9200  177.7670  140.9090 O   0  0  0  0  0  0  0  0  0  0  0  0
  188.8880  178.2590  141.7270 C   0  0  1  0  0  3  0  0  0  0  0  0
  189.1500  177.9960  139.7580 C   0  0  0  0  0  2  0  0  0  0  0  0
  187.9880  178.5230  140.5510 C   0  0  0  0  0  2  0  0  0  0  0  0
  185.4300  177.4350  143.0200 C   0  0  0  0  0  2  0  0  0  0  0  0
  184.8750  178.5870  142.3260 N   0  0  0  0  0  2  0  0  0  0  0  0
  182.8730  178.8030  140.9910 C   0  0  1  0  0  3  0  0  0  0  0  0
  184.2030  178.0910  141.1370 C   0  0  1  0  0  3  0  0  0  0  0  0
  184.0510  179.2190  140.1370 C   0  0  0  0  0  2  0  0  0  0  0  0
  181.7350  177.7650  140.0270 P   0  0  0  0  0  0  0  0  0  0  0  0
  182.4730  176.2750  139.7170 O   0  0  0  0  0  1  0  0  0  0  0  0
  180.4730  177.5360  140.8270 O   0  0  0  0  0  1  0  0  0  0  0  0
  181.3370  178.5040  138.5560 O   0  0  0  0  0  0  0  0  0  0  0  0
  1  6  1  1  0  0  0
  1  2  1  0  0  0  0
  2  8  1  0  0  0  0
  2 10  1  0  0  0  0
  3  6  1  1  0  0  0
  3 15  1  0  0  0  0
  3  5  1  0  0  0  0
  4 13  1  0  0  0  0
  5 12  2  0  0  0  0
  5  9  1  0  0  0  0
  7  4  1  0  0  0  0
  8 11  2  0  0  0  0
  9  7  2  0  0  0  0
 12 14  1  0  0  0  0
 14  4  2  0  0  0  0
 15 10  1  1  0  0  0
 15  9  1  0  0  0  0
 16 17  1  0  0  0  0
 17 19  1  6  0  0  0
 17  1  1  0  0  0  0
 18 19  1  0  0  0  0
 18 16  1  0  0  0  0
 20  8  1  0  0  0  0
 21 20  1  0  0  0  0
 22 25  1  6  0  0  0
 22 23  1  0  0  0  0
 23 21  1  1  0  0  0
 24 22  1  0  0  0  0
 24 23  1  0  0  0  0
 25 27  1  0  0  0  0
 26 25  1  0  0  0  0
 28 25  2  0  0  0  0
M  END
>  <MODEL>
3

>  <REMARK>
 VINA RESULT:      -6.5      1.142      1.515
  Name = 
  5 active torsions:
  status: ('A' for Active; 'I' for Inactive)
    1  A    between atoms: C_1  and  C_13
    2  A    between atoms: C_7  and  P_11
    3  A    between atoms: N_10  and  C_16
    4  A    between atoms: N_10  and  C_24
    5  A    between atoms: C_12  and  C_24
                            x       y       z     vdW  Elec       q    Type
                         _______ _______ _______ _____ _____    ______ ____

>  <TORSDO>
F 5

$$$$
=
 OpenBabel10232408383D

 28 32  0  0  1  0  0  0  0  0999 V2000
  188.3440  177.6490  139.8100 C   0  0  2  0  0  3  0  0  0  0  0  0
  187.7030  178.4590  140.8820 N   0  0  0  0  0  0  0  0  0  0  0  0
  189.8890  177.0320  141.4890 C   0  0  1  0  0  3  0  0  0  0  0  0
  191.4050  176.9240  145.3020 C   0  0  0  0  0  0  0  0  0  0  0  0
  190.6130  176.5710  142.7080 C   0  0  0  0  0  0  0  0  0  0  0  0
  189.2280  176.5980  140.4320 C   0  0  0  0  0  2  0  0  0  0  0  0
  190.8060  178.0370  144.6570 C   0  0  0  0  0  3  0  0  0  0  0  0
  186.3130  178.8070  140.7770 C   0  0  0  0  0  0  0  0  0  0  0  0
  190.4200  177.7980  143.3540 C   0  0  0  0  0  0  0  0  0  0  0  0
  188.4200  178.7950  142.1410 C   0  0  0  0  0  2  0  0  0  0  0  0
  185.7770  179.5430  141.6490 O   0  0  0  0  0  0  0  0  0  0  0  0
  191.1880  175.4960  143.3490 C   0  0  0  0  0  3  0  0  0  0  0  0
  191.8420  177.0570  146.6490 N   0  0  0  0  0  1  0  0  0  0  0  0
  191.5800  175.7170  144.6460 N   0  0  0  0  0  0  0  0  0  0  0  0
  189.8830  178.3260  142.1080 C   0  0  2  0  0  3  0  0  0  0  0  0
  190.1000  177.7800  138.1600 O   0  0  0  0  0  0  0  0  0  0  0  0
  189.1650  178.5470  138.8760 C   0  0  1  0  0  3  0  0  0  0  0  0
  189.4500  178.0740  136.9500 C   0  0  0  0  0  2  0  0  0  0  0  0
  188.3980  178.9010  137.6320 C   0  0  0  0  0  2  0  0  0  0  0  0
  185.4710  178.2990  139.6490 C   0  0  0  0  0  2  0  0  0  0  0  0
  184.6870  179.3830  139.0770 N   0  0  0  0  0  2  0  0  0  0  0  0
  182.4730  179.0580  139.9880 C   0  0  1  0  0  3  0  0  0  0  0  0
  183.3680  178.8510  138.7820 C   0  0  1  0  0  3  0  0  0  0  0  0
  182.3550  179.9790  138.7930 C   0  0  0  0  0  2  0  0  0  0  0  0
  181.1350  177.8280  139.9670 P   0  0  0  0  0  0  0  0  0  0  0  0
  180.3180  177.8740  141.4470 O   0  0  0  0  0  1  0  0  0  0  0  0
  180.1680  178.1660  138.8560 O   0  0  0  0  0  0  0  0  0  0  0  0
  181.7480  176.2690  139.7180 O   0  0  0  0  0  1  0  0  0  0  0  0
  1  6  1  1  0  0  0
  1  2  1  0  0  0  0
  2 10  1  0  0  0  0
  3  6  1  1  0  0  0
  3 15  1  0  0  0  0
  3  5  1  0  0  0  0
  4 13  1  0  0  0  0
  5 12  2  0  0  0  0
  5  9  1  0  0  0  0
  7  4  1  0  0  0  0
  8  2  1  0  0  0  0
  8 11  2  0  0  0  0
  9  7  2  0  0  0  0
 12 14  1  0  0  0  0
 14  4  2  0  0  0  0
 15 10  1  1  0  0  0
 15  9  1  0  0  0  0
 16 17  1  0  0  0  0
 17 19  1  6  0  0  0
 17  1  1  0  0  0  0
 18 19  1  0  0  0  0
 18 16  1  0  0  0  0
 20  8  1  0  0  0  0
 21 20  1  0  0  0  0
 22 25  1  6  0  0  0
 23 24  1  0  0  0  0
 23 21  1  1  0  0  0
 23 22  1  0  0  0  0
 24 22  1  0  0  0  0
 25 26  1  0  0  0  0
 27 25  2  0  0  0  0
 28 25  1  0  0  0  0
M  END
>  <MODEL>
4

>  <REMARK>
 VINA RESULT:      -6.3      2.304      3.014
  Name = 
  5 active torsions:
  status: ('A' for Active; 'I' for Inactive)
    1  A    between atoms: C_1  and  C_13
    2  A    between atoms: C_7  and  P_11
    3  A    between atoms: N_10  and  C_16
    4  A    between atoms: N_10  and  C_24
    5  A    between atoms: C_12  and  C_24
                            x       y       z     vdW  Elec       q    Type
                         _______ _______ _______ _____ _____    ______ ____

>  <TORSDO>
F 5

$$$$
=
 OpenBabel10232408383D

 28 32  0  0  1  0  0  0  0  0999 V2000
  189.8050  176.5260  138.2590 C   0  0  2  0  0  3  0  0  0  0  0  0
  190.8480  176.8210  139.2780 N   0  0  0  0  0  0  0  0  0  0  0  0
  191.4730  175.1940  137.2430 C   0  0  1  0  0  3  0  0  0  0  0  0
  195.1580  173.4090  136.9580 C   0  0  0  0  0  0  0  0  0  0  0  0
  192.5500  174.2300  136.8800 C   0  0  0  0  0  0  0  0  0  0  0  0
  190.1810  175.2790  137.5000 C   0  0  0  0  0  2  0  0  0  0  0  0
  194.8800  174.7110  137.4470 C   0  0  0  0  0  3  0  0  0  0  0  0
  190.4580  177.2310  140.5990 C   0  0  0  0  0  0  0  0  0  0  0  0
  193.5480  175.0670  137.3900 C   0  0  0  0  0  0  0  0  0  0  0  0
  192.2900  176.5590  139.0200 C   0  0  0  0  0  2  0  0  0  0  0  0
  191.3350  177.5400  141.4510 O   0  0  0  0  0  0  0  0  0  0  0  0
  192.8320  172.9640  136.4160 C   0  0  0  0  0  3  0  0  0  0  0  0
  196.4990  172.9360  136.9690 N   0  0  0  0  0  1  0  0  0  0  0  0
  194.1530  172.5940  136.4630 N   0  0  0  0  0  0  0  0  0  0  0  0
  192.5360  176.0980  137.5750 C   0  0  2  0  0  3  0  0  0  0  0  0
  188.9590  177.3030  136.1370 O   0  0  0  0  0  0  0  0  0  0  0  0
  189.6480  177.7070  137.2930 C   0  0  1  0  0  3  0  0  0  0  0  0
  187.8820  178.1470  136.4540 C   0  0  0  0  0  2  0  0  0  0  0  0
  188.5360  178.6270  137.7180 C   0  0  0  0  0  2  0  0  0  0  0  0
  189.0170  177.2850  140.9990 C   0  0  0  0  0  2  0  0  0  0  0  0
  188.8790  177.0350  142.4250 N   0  0  0  0  0  2  0  0  0  0  0  0
  186.5820  177.3650  143.0980 C   0  0  1  0  0  3  0  0  0  0  0  0
  187.9430  178.0160  142.9460 C   0  0  1  0  0  3  0  0  0  0  0  0
  187.4600  177.5760  144.3130 C   0  0  0  0  0  2  0  0  0  0  0  0
  185.2900  178.6420  143.0280 P   0  0  0  0  0  0  0  0  0  0  0  0
  185.7120  179.7910  141.8610 O   0  0  0  0  0  0  0  0  0  0  0  0
  183.9790  178.0000  142.6400 O   0  0  0  0  0  1  0  0  0  0  0  0
  185.1140  179.4100  144.5270 O   0  0  0  0  0  1  0  0  0  0  0  0
  1  6  1  6  0  0  0
  1  2  1  0  0  0  0
  2  8  1  0  0  0  0
  3  6  1  1  0  0  0
  3 15  1  0  0  0  0
  4 13  1  0  0  0  0
  4  7  1  0  0  0  0
  5  3  1  0  0  0  0
  5  9  1  0  0  0  0
  8 20  1  0  0  0  0
  8 11  2  0  0  0  0
  9  7  2  0  0  0  0
  9 15  1  0  0  0  0
 10  2  1  0  0  0  0
 12 14  1  0  0  0  0
 12  5  2  0  0  0  0
 14  4  2  0  0  0  0
 15 10  1  1  0  0  0
 16 18  1  0  0  0  0
 16 17  1  0  0  0  0
 17 19  1  1  0  0  0
 17  1  1  0  0  0  0
 18 19  1  0  0  0  0
 20 21  1  0  0  0  0
 22 25  1  1  0  0  0
 22 24  1  0  0  0  0
 23 21  1  6  0  0  0
 23 22  1  0  0  0  0
 23 24  1  0  0  0  0
 25 28  1  0  0  0  0
 26 25  2  0  0  0  0
 27 25  1  0  0  0  0
M  END
>  <MODEL>
5

>  <REMARK>
 VINA RESULT:      -6.2      4.851      6.780
  Name = 
  5 active torsions:
  status: ('A' for Active; 'I' for Inactive)
    1  A    between atoms: C_1  and  C_13
    2  A    between atoms: C_7  and  P_11
    3  A    between atoms: N_10  and  C_16
    4  A    between atoms: N_10  and  C_24
    5  A    between atoms: C_12  and  C_24
                            x       y       z     vdW  Elec       q    Type
                         _______ _______ _______ _____ _____    ______ ____

>  <TORSDO>
F 5

$$$$
=
 OpenBabel10232408383D

 28 32  0  0  1  0  0  0  0  0999 V2000
  184.8120  178.2210  142.3250 C   0  0  2  0  0  3  0  0  0  0  0  0
  185.5990  178.6890  141.1530 N   0  0  0  0  0  0  0  0  0  0  0  0
  182.9850  178.1990  140.8250 C   0  0  1  0  0  3  0  0  0  0  0  0
  181.1600  178.5720  137.1680 C   0  0  0  0  0  0  0  0  0  0  0  0
  182.0200  178.0170  139.7040 C   0  0  0  0  0  0  0  0  0  0  0  0
  183.5350  177.5750  141.8500 C   0  0  0  0  0  2  0  0  0  0  0  0
  182.2010  179.3860  137.6850 C   0  0  0  0  0  3  0  0  0  0  0  0
  187.0200  178.4780  141.1180 C   0  0  0  0  0  0  0  0  0  0  0  0
  182.5980  179.0540  138.9640 C   0  0  0  0  0  0  0  0  0  0  0  0
  184.9400  179.2390  139.9370 C   0  0  0  0  0  2  0  0  0  0  0  0
  187.7030  178.9240  140.1570 O   0  0  0  0  0  0  0  0  0  0  0  0
  181.0160  177.2280  139.1860 C   0  0  0  0  0  3  0  0  0  0  0  0
  180.6720  178.8230  135.8560 N   0  0  0  0  0  1  0  0  0  0  0  0
  180.6070  177.5460  137.9150 N   0  0  0  0  0  0  0  0  0  0  0  0
  183.4210  179.3720  140.1230 C   0  0  2  0  0  3  0  0  0  0  0  0
  183.2050  179.2510  143.8030 O   0  0  0  0  0  0  0  0  0  0  0  0
  184.4950  179.3930  143.2630 C   0  0  1  0  0  3  0  0  0  0  0  0
  183.7360  179.0970  145.0930 C   0  0  0  0  0  2  0  0  0  0  0  0
  185.1510  179.2230  144.6050 C   0  0  0  0  0  2  0  0  0  0  0  0
  187.7160  177.7170  142.2030 C   0  0  0  0  0  2  0  0  0  0  0  0
  188.8210  176.9480  141.6510 N   0  0  0  0  0  2  0  0  0  0  0  0
  189.6580  176.5560  143.8830 C   0  0  1  0  0  3  0  0  0  0  0  0
  189.9650  177.1510  142.5230 C   0  0  1  0  0  3  0  0  0  0  0  0
  190.5450  175.8060  142.9130 C   0  0  0  0  0  2  0  0  0  0  0  0
  190.6690  177.3840  145.1460 P   0  0  0  0  0  0  0  0  0  0  0  0
  191.6030  178.5850  144.4070 O   0  0  0  0  0  0  0  0  0  0  0  0
  189.7590  178.0230  146.1690 O   0  0  0  0  0  1  0  0  0  0  0  0
  191.6940  176.2810  145.9220 O   0  0  0  0  0  1  0  0  0  0  0  0
  1  6  1  6  0  0  0
  1 17  1  0  0  0  0
  2  1  1  0  0  0  0
  3  6  1  6  0  0  0
  4  7  2  0  0  0  0
  4 14  1  0  0  0  0
  5  3  1  0  0  0  0
  7  9  1  0  0  0  0
  8  2  1  0  0  0  0
  8 20  1  0  0  0  0
  9  5  2  0  0  0  0
  9 15  1  0  0  0  0
 10  2  1  0  0  0  0
 11  8  2  0  0  0  0
 12  5  1  0  0  0  0
 13  4  1  0  0  0  0
 14 12  2  0  0  0  0
 15 10  1  6  0  0  0
 15  3  1  0  0  0  0
 16 18  1  0  0  0  0
 17 16  1  0  0  0  0
 17 19  1  1  0  0  0
 19 18  1  0  0  0  0
 21 20  1  0  0  0  0
 22 25  1  1  0  0  0
 23 21  1  6  0  0  0
 23 24  1  0  0  0  0
 23 22  1  0  0  0  0
 24 22  1  0  0  0  0
 25 28  1  0  0  0  0
 25 27  1  0  0  0  0
 26 25  2  0  0  0  0
M  END
>  <MODEL>
6

>  <REMARK>
 VINA RESULT:      -6.2      3.621      9.167
  Name = 
  5 active torsions:
  status: ('A' for Active; 'I' for Inactive)
    1  A    between atoms: C_1  and  C_13
    2  A    between atoms: C_7  and  P_11
    3  A    between atoms: N_10  and  C_16
    4  A    between atoms: N_10  and  C_24
    5  A    between atoms: C_12  and  C_24
                            x       y       z     vdW  Elec       q    Type
                         _______ _______ _______ _____ _____    ______ ____

>  <TORSDO>
F 5

$$$$
=
 OpenBabel10232408383D

 28 32  0  0  1  0  0  0  0  0999 V2000
  190.2710  176.5840  140.0970 C   0  0  2  0  0  3  0  0  0  0  0  0
  189.1860  176.9340  139.1400 N   0  0  0  0  0  0  0  0  0  0  0  0
  188.7790  177.3700  141.7530 C   0  0  1  0  0  3  0  0  0  0  0  0
  185.2160  178.8350  143.1670 C   0  0  0  0  0  0  0  0  0  0  0  0
  187.6410  177.6740  142.6650 C   0  0  0  0  0  0  0  0  0  0  0  0
  189.6990  176.4620  141.4860 C   0  0  0  0  0  2  0  0  0  0  0  0
  185.8550  179.1840  141.9500 C   0  0  0  0  0  3  0  0  0  0  0  0
  189.1240  176.2800  137.8620 C   0  0  0  0  0  0  0  0  0  0  0  0
  187.0690  178.5620  141.7470 C   0  0  0  0  0  0  0  0  0  0  0  0
  188.0670  177.8350  139.5240 C   0  0  0  0  0  2  0  0  0  0  0  0
  188.2450  176.6130  137.0230 O   0  0  0  0  0  0  0  0  0  0  0  0
  187.0050  177.3360  143.8400 C   0  0  0  0  0  3  0  0  0  0  0  0
  183.9560  179.4160  143.4810 N   0  0  0  0  0  1  0  0  0  0  0  0
  185.7960  177.9480  144.0590 N   0  0  0  0  0  0  0  0  0  0  0  0
  188.2660  178.4260  140.9280 C   0  0  2  0  0  3  0  0  0  0  0  0
  192.1870  177.5370  141.2120 O   0  0  0  0  0  0  0  0  0  0  0  0
  191.3760  177.6480  140.0700 C   0  0  1  0  0  3  0  0  0  0  0  0
  193.2920  177.1800  140.4220 C   0  0  0  0  0  2  0  0  0  0  0  0
  192.4990  177.2590  139.1490 C   0  0  0  0  0  2  0  0  0  0  0  0
  190.0830  175.1870  137.5040 C   0  0  0  0  0  2  0  0  0  0  0  0
  190.3340  175.1860  136.0710 N   0  0  0  0  0  2  0  0  0  0  0  0
  192.6240  174.4180  136.0210 C   0  0  1  0  0  3  0  0  0  0  0  0
  191.7070  175.6160  135.8740 C   0  0  1  0  0  3  0  0  0  0  0  0
  192.2760  174.9390  134.6430 C   0  0  0  0  0  2  0  0  0  0  0  0
  194.2830  174.9820  136.5050 P   0  0  0  0  0  0  0  0  0  0  0  0
  194.5560  174.5710  138.1230 O   0  0  0  0  0  1  0  0  0  0  0  0
  195.3130  174.2960  135.6380 O   0  0  0  0  0  0  0  0  0  0  0  0
  194.4300  176.6590  136.3250 O   0  0  0  0  0  1  0  0  0  0  0  0
  1  6  1  1  0  0  0
  2 10  1  0  0  0  0
  2  1  1  0  0  0  0
  3  6  1  6  0  0  0
  3  5  1  0  0  0  0
  4 13  1  0  0  0  0
  4 14  1  0  0  0  0
  5 12  1  0  0  0  0
  7  4  2  0  0  0  0
  8  2  1  0  0  0  0
  9  7  1  0  0  0  0
  9  5  2  0  0  0  0
 11  8  2  0  0  0  0
 12 14  2  0  0  0  0
 15 10  1  6  0  0  0
 15  9  1  0  0  0  0
 15  3  1  0  0  0  0
 17 19  1  6  0  0  0
 17  1  1  0  0  0  0
 17 16  1  0  0  0  0
 18 16  1  0  0  0  0
 19 18  1  0  0  0  0
 20  8  1  0  0  0  0
 21 20  1  0  0  0  0
 22 25  1  1  0  0  0
 23 22  1  0  0  0  0
 23 21  1  6  0  0  0
 24 23  1  0  0  0  0
 24 22  1  0  0  0  0
 25 26  1  0  0  0  0
 27 25  2  0  0  0  0
 28 25  1  0  0  0  0
M  END
>  <MODEL>
7

>  <REMARK>
 VINA RESULT:      -6.0      4.644      7.981
  Name = 
  5 active torsions:
  status: ('A' for Active; 'I' for Inactive)
    1  A    between atoms: C_1  and  C_13
    2  A    between atoms: C_7  and  P_11
    3  A    between atoms: N_10  and  C_16
    4  A    between atoms: N_10  and  C_24
    5  A    between atoms: C_12  and  C_24
                            x       y       z     vdW  Elec       q    Type
                         _______ _______ _______ _____ _____    ______ ____

>  <TORSDO>
F 5

$$$$
=
 OpenBabel10232408383D

 28 32  0  0  1  0  0  0  0  0999 V2000
  189.6270  176.6010  139.5190 C   0  0  2  0  0  3  0  0  0  0  0  0
  190.8840  176.8650  140.2700 N   0  0  0  0  0  0  0  0  0  0  0  0
  191.0630  175.9010  137.7760 C   0  0  1  0  0  3  0  0  0  0  0  0
  194.6840  175.0180  136.0570 C   0  0  0  0  0  0  0  0  0  0  0  0
  192.0930  175.2850  136.8930 C   0  0  0  0  0  0  0  0  0  0  0  0
  189.9120  175.6600  138.3760 C   0  0  0  0  0  2  0  0  0  0  0  0
  194.4020  176.0920  136.9410 C   0  0  0  0  0  3  0  0  0  0  0  0
  190.8670  176.8780  141.7070 C   0  0  0  0  0  0  0  0  0  0  0  0
  193.0820  176.1720  137.3340 C   0  0  0  0  0  0  0  0  0  0  0  0
  192.1990  176.9690  139.5820 C   0  0  0  0  0  2  0  0  0  0  0  0
  191.9140  177.1610  142.3500 O   0  0  0  0  0  0  0  0  0  0  0  0
  192.3830  174.2410  136.0420 C   0  0  0  0  0  3  0  0  0  0  0  0
  196.0140  174.8390  135.5860 N   0  0  0  0  0  1  0  0  0  0  0  0
  193.6910  174.1480  135.6380 N   0  0  0  0  0  0  0  0  0  0  0  0
  192.0500  176.9050  138.0540 C   0  0  2  0  0  3  0  0  0  0  0  0
  188.1820  177.6560  137.9000 O   0  0  0  0  0  0  0  0  0  0  0  0
  189.0300  177.9110  138.9910 C   0  0  1  0  0  3  0  0  0  0  0  0
  187.0680  178.0990  138.6310 C   0  0  0  0  0  2  0  0  0  0  0  0
  187.8930  178.3890  139.8520 C   0  0  0  0  0  2  0  0  0  0  0  0
  189.6220  176.5460  142.4690 C   0  0  0  0  0  2  0  0  0  0  0  0
  189.2840  177.6280  143.3800 N   0  0  0  0  0  2  0  0  0  0  0  0
  189.1310  178.0850  145.7480 C   0  0  1  0  0  3  0  0  0  0  0  0
  188.9880  177.0290  144.6700 C   0  0  1  0  0  3  0  0  0  0  0  0
  187.7560  177.6860  145.2590 C   0  0  0  0  0  2  0  0  0  0  0  0
  189.4910  177.2800  147.3380 P   0  0  0  0  0  0  0  0  0  0  0  0
  189.3640  178.4250  148.5770 O   0  0  0  0  0  1  0  0  0  0  0  0
  188.4850  176.1780  147.5750 O   0  0  0  0  0  1  0  0  0  0  0  0
  191.0520  176.6230  147.3450 O   0  0  0  0  0  0  0  0  0  0  0  0
  1  6  1  6  0  0  0
  1  2  1  0  0  0  0
  2  8  1  0  0  0  0
  3 15  1  0  0  0  0
  3  6  1  1  0  0  0
  4  7  1  0  0  0  0
  5  9  1  0  0  0  0
  5  3  1  0  0  0  0
  7  9  2  0  0  0  0
  8 11  2  0  0  0  0
  8 20  1  0  0  0  0
  9 15  1  0  0  0  0
 10  2  1  0  0  0  0
 12  5  2  0  0  0  0
 13  4  1  0  0  0  0
 14 12  1  0  0  0  0
 14  4  2  0  0  0  0
 15 10  1  1  0  0  0
 16 18  1  0  0  0  0
 16 17  1  0  0  0  0
 17  1  1  0  0  0  0
 17 19  1  1  0  0  0
 18 19  1  0  0  0  0
 20 21  1  0  0  0  0
 22 25  1  1  0  0  0
 23 21  1  6  0  0  0
 23 24  1  0  0  0  0
 23 22  1  0  0  0  0
 24 22  1  0  0  0  0
 25 28  2  0  0  0  0
 25 27  1  0  0  0  0
 25 26  1  0  0  0  0
M  END
>  <MODEL>
8

>  <REMARK>
 VINA RESULT:      -6.0      5.046      7.734
  Name = 
  5 active torsions:
  status: ('A' for Active; 'I' for Inactive)
    1  A    between atoms: C_1  and  C_13
    2  A    between atoms: C_7  and  P_11
    3  A    between atoms: N_10  and  C_16
    4  A    between atoms: N_10  and  C_24
    5  A    between atoms: C_12  and  C_24
                            x       y       z     vdW  Elec       q    Type
                         _______ _______ _______ _____ _____    ______ ____

>  <TORSDO>
F 5

$$$$
=
 OpenBabel10232408383D

 28 32  0  0  1  0  0  0  0  0999 V2000
  190.2840  176.1150  137.8640 C   0  0  2  0  0  3  0  0  0  0  0  0
  191.5960  176.5070  138.4450 N   0  0  0  0  0  0  0  0  0  0  0  0
  191.5440  174.5680  136.5970 C   0  0  1  0  0  3  0  0  0  0  0  0
  194.9490  172.5850  135.4500 C   0  0  0  0  0  0  0  0  0  0  0  0
  192.4510  173.5100  136.0680 C   0  0  0  0  0  0  0  0  0  0  0  0
  190.4000  174.7530  137.2300 C   0  0  0  0  0  2  0  0  0  0  0  0
  194.8390  173.9570  135.7930 C   0  0  0  0  0  3  0  0  0  0  0  0
  191.6460  177.1270  139.7410 C   0  0  0  0  0  0  0  0  0  0  0  0
  193.5580  174.3650  136.1020 C   0  0  0  0  0  0  0  0  0  0  0  0
  192.8810  176.1410  137.7910 C   0  0  0  0  0  2  0  0  0  0  0  0
  192.7470  177.5170  140.2150 O   0  0  0  0  0  0  0  0  0  0  0  0
  192.5730  172.1770  135.7430 C   0  0  0  0  0  3  0  0  0  0  0  0
  196.2250  172.0550  135.1130 N   0  0  0  0  0  1  0  0  0  0  0  0
  193.8410  171.7550  135.4300 N   0  0  0  0  0  0  0  0  0  0  0  0
  192.6560  175.4590  136.4330 C   0  0  2  0  0  3  0  0  0  0  0  0
  188.7160  176.6610  136.1130 O   0  0  0  0  0  0  0  0  0  0  0  0
  189.8260  177.1460  136.8250 C   0  0  1  0  0  3  0  0  0  0  0  0
  187.9010  177.6720  136.6470 C   0  0  0  0  0  2  0  0  0  0  0  0
  189.0260  178.2520  137.4560 C   0  0  0  0  0  2  0  0  0  0  0  0
  190.4060  177.3090  140.5590 C   0  0  0  0  0  2  0  0  0  0  0  0
  190.3300  176.2900  141.5940 N   0  0  0  0  0  2  0  0  0  0  0  0
  190.2270  176.1800  144.0050 C   0  0  1  0  0  3  0  0  0  0  0  0
  190.8570  176.8750  142.8140 C   0  0  1  0  0  3  0  0  0  0  0  0
  191.6350  175.8250  143.5820 C   0  0  0  0  0  2  0  0  0  0  0  0
  190.2650  177.2920  145.4430 P   0  0  0  0  0  0  0  0  0  0  0  0
  191.7610  177.1410  146.2180 O   0  0  0  0  0  1  0  0  0  0  0  0
  190.0910  178.7170  144.9730 O   0  0  0  0  0  0  0  0  0  0  0  0
  189.0300  176.9100  146.5380 O   0  0  0  0  0  1  0  0  0  0  0  0
  1  6  1  6  0  0  0
  1  2  1  0  0  0  0
  2  8  1  0  0  0  0
  3  6  1  1  0  0  0
  4  7  1  0  0  0  0
  5  9  1  0  0  0  0
  5  3  1  0  0  0  0
  7  9  2  0  0  0  0
  8 11  2  0  0  0  0
  8 20  1  0  0  0  0
  9 15  1  0  0  0  0
 10  2  1  0  0  0  0
 12  5  2  0  0  0  0
 13  4  1  0  0  0  0
 14  4  2  0  0  0  0
 14 12  1  0  0  0  0
 15  3  1  0  0  0  0
 15 10  1  1  0  0  0
 16 18  1  0  0  0  0
 16 17  1  0  0  0  0
 17 19  1  1  0  0  0
 17  1  1  0  0  0  0
 18 19  1  0  0  0  0
 20 21  1  0  0  0  0
 22 25  1  1  0  0  0
 23 21  1  6  0  0  0
 23 24  1  0  0  0  0
 23 22  1  0  0  0  0
 24 22  1  0  0  0  0
 25 26  1  0  0  0  0
 25 28  1  0  0  0  0
 27 25  2  0  0  0  0
M  END
>  <MODEL>
9

>  <REMARK>
 VINA RESULT:      -6.0      5.905      8.635
  Name = 
  5 active torsions:
  status: ('A' for Active; 'I' for Inactive)
    1  A    between atoms: C_1  and  C_13
    2  A    between atoms: C_7  and  P_11
    3  A    between atoms: N_10  and  C_16
    4  A    between atoms: N_10  and  C_24
    5  A    between atoms: C_12  and  C_24
                            x       y       z     vdW  Elec       q    Type
                         _______ _______ _______ _____ _____    ______ ____

>  <TORSDO>
F 5

$$$$
