=
 OpenBabel10232408313D

 45 49  0  0  1  0  0  0  0  0999 V2000
  188.9820  176.7610  143.8750 C   0  0  1  0  0  3  0  0  0  0  0  0
  185.5000  177.8890  144.7220 N   0  0  0  0  0  0  0  0  0  0  0  0
  187.4670  177.7800  146.1900 C   0  0  0  0  0  2  0  0  0  0  0  0
  191.2810  177.6610  143.5750 C   0  0  1  0  0  3  0  0  0  0  0  0
  191.1470  176.8110  145.1210 S   0  0  0  0  0  0  0  0  0  0  0  0
  191.7690  175.4460  145.0180 O   0  0  0  0  0  0  0  0  0  0  0  0
  188.9670  177.8500  145.9970 C   0  0  0  0  0  2  0  0  0  0  0  0
  189.8450  177.7530  143.0690 C   0  0  1  0  0  3  0  0  0  0  0  0
  191.7590  177.5720  146.2680 O   0  0  0  0  0  0  0  0  0  0  0  0
  186.7560  177.5840  144.8800 C   0  0  0  0  0  0  0  0  0  0  0  0
  189.4330  176.6710  145.2710 N   0  0  1  0  0  0  0  0  0  0  0  0
  187.4690  176.9840  143.6990 C   0  0  0  0  0  2  0  0  0  0  0  0
  188.0010  177.6870  138.6300 C   0  0  0  0  0  2  0  0  0  0  0  0
  190.8840  176.7130  140.9280 C   0  0  0  0  0  2  0  0  0  0  0  0
  189.7740  177.4920  141.5920 C   0  0  0  0  0  0  0  0  0  0  0  0
  189.3080  177.9160  137.8360 C   0  0  1  0  0  3  0  0  0  0  0  0
  188.8060  177.9810  140.8610 C   0  0  0  0  0  0  0  0  0  0  0  0
  187.9590  178.3790  139.9600 C   0  0  0  0  0  3  0  0  0  0  0  0
  190.6220  177.7110  138.6150 C   0  0  0  0  0  2  0  0  0  0  0  0
  190.6590  176.4160  139.4320 C   0  0  0  0  0  2  0  0  0  0  0  0
  189.3180  177.0580  136.5830 C   0  0  0  0  0  2  0  0  0  0  0  0
  188.2740  175.3110  135.4170 C   0  0  0  0  0  2  0  0  0  0  0  0
  189.0710  174.6010  136.4110 C   0  0  2  0  0  3  0  0  0  0  0  0
  188.4360  175.9060  136.7530 N   0  0  0  0  0  0  0  0  0  0  0  0
  190.5530  174.6750  136.0370 C   0  0  0  0  0  2  0  0  0  0  0  0
  191.3550  173.6840  136.8630 C   0  0  0  0  0  2  0  0  0  0  0  0
  193.8010  173.6400  137.0210 C   0  0  1  0  0  0  0  0  0  0  0  0
  192.9130  175.3900  136.4580 C   0  0  0  0  0  2  0  0  0  0  0  0
  192.5540  174.3290  137.3980 N   0  0  0  0  0  0  0  0  0  0  0  0
  193.6110  172.3520  136.3560 N   0  0  0  0  0  1  0  0  0  0  0  0
  194.2070  174.7120  136.0410 C   0  0  0  0  0  2  0  0  0  0  0  0
  194.7720  173.5390  138.1910 C   0  0  0  0  0  2  0  0  0  0  0  0
  195.4140  172.2340  138.2050 N   0  0  0  0  0  2  0  0  0  0  0  0
  196.7950  172.4460  137.8120 C   0  0  0  0  0  1  0  0  0  0  0  0
  184.5670  178.4140  145.6840 C   0  0  0  0  0  0  0  0  0  0  0  0
  184.8600  178.3490  146.9060 O   0  0  0  0  0  0  0  0  0  0  0  0
  183.3000  179.1050  145.2970 C   0  0  0  0  0  2  0  0  0  0  0  0
  183.4510  179.7370  143.9940 N   0  0  0  0  0  2  0  0  0  0  0  0
  182.8790  178.8390  143.0010 C   0  0  0  0  0  2  0  0  0  0  0  0
  184.1510  177.4410  141.5510 F   0  0  0  0  0  0  0  0  0  0  0  0
  183.0970  179.2290  140.6650 F   0  0  0  0  0  0  0  0  0  0  0  0
  183.7730  178.7530  141.7730 C   0  0  0  0  0  0  0  0  0  0  0  0
  184.9030  179.5190  141.9800 F   0  0  0  0  0  0  0  0  0  0  0  0
  190.9400  179.9810  144.1000 F   0  0  0  0  0  0  0  0  0  0  0  0
  191.8950  179.0480  143.7280 C   0  0  0  0  0  2  0  0  0  0  0  0
  1 12  1  1  0  0  0
  1 11  1  0  0  0  0
  2 10  2  0  0  0  0
  2 35  1  0  0  0  0
  4 45  1  1  0  0  0
  4  5  1  0  0  0  0
  5 11  1  0  0  0  0
  5  9  2  0  0  0  0
  6  5  2  0  0  0  0
  7  3  1  0  0  0  0
  8 15  1  6  0  0  0
  8  4  1  0  0  0  0
  8  1  1  0  0  0  0
 10  3  1  0  0  0  0
 11  7  1  1  0  0  0
 12 10  1  0  0  0  0
 13 18  1  0  0  0  0
 14 15  1  0  0  0  0
 16 21  1  6  0  0  0
 16 19  1  0  0  0  0
 16 13  1  0  0  0  0
 17 15  2  0  0  0  0
 18 17  2  0  0  0  0
 19 20  1  0  0  0  0
 20 14  1  0  0  0  0
 21 24  1  0  0  0  0
 22 23  1  0  0  0  0
 22 24  1  0  0  0  0
 23 25  1  6  0  0  0
 23 24  1  0  0  0  0
 25 26  1  0  0  0  0
 26 29  1  0  0  0  0
 27 30  1  6  0  0  0
 27 29  1  0  0  0  0
 27 32  1  0  0  0  0
 28 29  1  0  0  0  0
 31 28  1  0  0  0  0
 31 27  1  0  0  0  0
 32 33  1  0  0  0  0
 34 33  1  0  0  0  0
 35 36  2  0  0  0  0
 37 35  1  0  0  0  0
 38 37  1  0  0  0  0
 39 38  1  0  0  0  0
 40 42  1  0  0  0  0
 41 42  1  0  0  0  0
 42 43  1  0  0  0  0
 42 39  1  0  0  0  0
 45 44  1  0  0  0  0
M  END
>  <MODEL>
1

>  <REMARK>
 VINA RESULT:      -7.9      0.000      0.000
  Name = 
  14 active torsions:
  status: ('A' for Active; 'I' for Inactive)
    1  A    between atoms: C_3  and  C_36
    2  A    between atoms: N_4  and  C_12
    3  A    between atoms: C_10  and  C_34
    4  A    between atoms: C_12  and  C_38
    5  A    between atoms: N_13  and  C_22
    6  A    between atoms: N_13  and  C_38
    7  A    between atoms: C_14  and  C_19
    8  A    between atoms: C_14  and  N_42
    9  A    between atoms: N_15  and  C_20
   10  A    between atoms: C_17  and  C_22
   11  A    between atoms: C_18  and  C_30
   12  A    between atoms: C_20  and  C_23
   13  A    between atoms: C_23  and  C_39
   14  A    between atoms: N_25  and  C_36
                            x       y       z     vdW  Elec       q    Type
                         _______ _______ _______ _____ _____    ______ ____

>  <TORSDO>
F 14

$$$$
=
 OpenBabel10232408313D

 45 49  0  0  1  0  0  0  0  0999 V2000
  188.9980  176.7900  143.8940 C   0  0  1  0  0  3  0  0  0  0  0  0
  185.5120  177.9500  144.6820 N   0  0  0  0  0  0  0  0  0  0  0  0
  187.4550  177.8310  146.1810 C   0  0  0  0  0  2  0  0  0  0  0  0
  191.3090  177.6700  143.6270 C   0  0  1  0  0  3  0  0  0  0  0  0
  191.1440  176.8270  145.1730 S   0  0  0  0  0  0  0  0  0  0  0  0
  191.7560  175.4570  145.0860 O   0  0  0  0  0  0  0  0  0  0  0  0
  188.9590  177.8880  146.0110 C   0  0  0  0  0  2  0  0  0  0  0  0
  189.8820  177.7720  143.0980 C   0  0  1  0  0  3  0  0  0  0  0  0
  191.7440  177.5880  146.3270 O   0  0  0  0  0  0  0  0  0  0  0  0
  186.7640  177.6360  144.8610 C   0  0  0  0  0  0  0  0  0  0  0  0
  189.4270  176.7030  145.2980 N   0  0  1  0  0  0  0  0  0  0  0  0
  187.4900  177.0250  143.6930 C   0  0  0  0  0  2  0  0  0  0  0  0
  188.0900  177.6650  138.6380 C   0  0  0  0  0  2  0  0  0  0  0  0
  190.9610  176.7410  140.9720 C   0  0  0  0  0  2  0  0  0  0  0  0
  189.8310  177.5050  141.6210 C   0  0  0  0  0  0  0  0  0  0  0  0
  189.4020  177.9100  137.8590 C   0  0  1  0  0  3  0  0  0  0  0  0
  188.8640  177.9770  140.8770 C   0  0  0  0  0  0  0  0  0  0  0  0
  188.0230  178.3600  139.9650 C   0  0  0  0  0  3  0  0  0  0  0  0
  190.7100  177.7270  138.6540 C   0  0  0  0  0  2  0  0  0  0  0  0
  190.7580  176.4360  139.4750 C   0  0  0  0  0  2  0  0  0  0  0  0
  189.4390  177.0490  136.6090 C   0  0  0  0  0  2  0  0  0  0  0  0
  188.8510  176.8420  134.3480 C   0  0  0  0  0  2  0  0  0  0  0  0
  187.5620  176.7490  135.0240 C   0  0  2  0  0  3  0  0  0  0  0  0
  188.6240  177.6500  135.5560 N   0  0  0  0  0  0  0  0  0  0  0  0
  187.4430  175.3940  135.7280 C   0  0  0  0  0  2  0  0  0  0  0  0
  186.0230  174.8660  135.6150 C   0  0  0  0  0  2  0  0  0  0  0  0
  184.1350  174.0040  136.9210 C   0  0  1  0  0  0  0  0  0  0  0  0
  186.0120  173.3940  137.4410 C   0  0  0  0  0  2  0  0  0  0  0  0
  185.4580  174.6540  136.9480 N   0  0  0  0  0  0  0  0  0  0  0  0
  183.5480  173.8670  135.5900 N   0  0  0  0  0  1  0  0  0  0  0  0
  184.6670  172.6880  137.4280 C   0  0  0  0  0  2  0  0  0  0  0  0
  183.1660  174.6460  137.9070 C   0  0  0  0  0  2  0  0  0  0  0  0
  183.5340  176.0320  138.1500 N   0  0  0  0  0  2  0  0  0  0  0  0
  182.8080  176.4530  139.3350 C   0  0  0  0  0  1  0  0  0  0  0  0
  184.5690  178.4870  145.6280 C   0  0  0  0  0  0  0  0  0  0  0  0
  184.8830  178.5100  146.8460 O   0  0  0  0  0  0  0  0  0  0  0  0
  183.2640  179.0910  145.2220 C   0  0  0  0  0  2  0  0  0  0  0  0
  183.0100  178.8360  143.8110 N   0  0  0  0  0  2  0  0  0  0  0  0
  181.5720  178.9210  143.6020 C   0  0  0  0  0  2  0  0  0  0  0  0
  180.4690  180.0930  141.8440 F   0  0  0  0  0  0  0  0  0  0  0  0
  182.4150  179.0470  141.3810 F   0  0  0  0  0  0  0  0  0  0  0  0
  181.2460  178.9810  142.1160 C   0  0  0  0  0  0  0  0  0  0  0  0
  180.5470  177.8440  141.7590 F   0  0  0  0  0  0  0  0  0  0  0  0
  190.9680  180.0080  144.0670 F   0  0  0  0  0  0  0  0  0  0  0  0
  191.9310  179.0520  143.7840 C   0  0  0  0  0  2  0  0  0  0  0  0
  1 12  1  1  0  0  0
  1 11  1  0  0  0  0
  2 10  2  0  0  0  0
  2 35  1  0  0  0  0
  4 45  1  1  0  0  0
  4  5  1  0  0  0  0
  5 11  1  0  0  0  0
  5  9  2  0  0  0  0
  6  5  2  0  0  0  0
  7  3  1  0  0  0  0
  8 15  1  6  0  0  0
  8  4  1  0  0  0  0
  8  1  1  0  0  0  0
 10  3  1  0  0  0  0
 11  7  1  1  0  0  0
 12 10  1  0  0  0  0
 13 18  1  0  0  0  0
 14 15  1  0  0  0  0
 16 21  1  6  0  0  0
 16 13  1  0  0  0  0
 16 19  1  0  0  0  0
 17 15  2  0  0  0  0
 18 17  2  0  0  0  0
 19 20  1  0  0  0  0
 20 14  1  0  0  0  0
 22 23  1  0  0  0  0
 22 24  1  0  0  0  0
 23 24  1  0  0  0  0
 23 25  1  1  0  0  0
 24 21  1  0  0  0  0
 26 25  1  0  0  0  0
 26 29  1  0  0  0  0
 27 30  1  6  0  0  0
 27 29  1  0  0  0  0
 27 31  1  0  0  0  0
 27 32  1  0  0  0  0
 29 28  1  0  0  0  0
 31 28  1  0  0  0  0
 32 33  1  0  0  0  0
 33 34  1  0  0  0  0
 35 36  2  0  0  0  0
 37 35  1  0  0  0  0
 38 37  1  0  0  0  0
 39 38  1  0  0  0  0
 40 42  1  0  0  0  0
 41 42  1  0  0  0  0
 42 39  1  0  0  0  0
 43 42  1  0  0  0  0
 45 44  1  0  0  0  0
M  END
>  <MODEL>
2

>  <REMARK>
 VINA RESULT:      -7.6      2.852      4.751
  Name = 
  14 active torsions:
  status: ('A' for Active; 'I' for Inactive)
    1  A    between atoms: C_3  and  C_36
    2  A    between atoms: N_4  and  C_12
    3  A    between atoms: C_10  and  C_34
    4  A    between atoms: C_12  and  C_38
    5  A    between atoms: N_13  and  C_22
    6  A    between atoms: N_13  and  C_38
    7  A    between atoms: C_14  and  C_19
    8  A    between atoms: C_14  and  N_42
    9  A    between atoms: N_15  and  C_20
   10  A    between atoms: C_17  and  C_22
   11  A    between atoms: C_18  and  C_30
   12  A    between atoms: C_20  and  C_23
   13  A    between atoms: C_23  and  C_39
   14  A    between atoms: N_25  and  C_36
                            x       y       z     vdW  Elec       q    Type
                         _______ _______ _______ _____ _____    ______ ____

>  <TORSDO>
F 14

$$$$
=
 OpenBabel10232408313D

 45 49  0  0  1  0  0  0  0  0999 V2000
  188.9750  176.8550  143.4510 C   0  0  1  0  0  3  0  0  0  0  0  0
  185.5400  178.0020  144.4520 N   0  0  0  0  0  0  0  0  0  0  0  0
  187.5150  177.6760  145.8770 C   0  0  0  0  0  2  0  0  0  0  0  0
  191.3010  177.7070  143.2200 C   0  0  1  0  0  3  0  0  0  0  0  0
  191.1520  176.7040  144.6690 S   0  0  0  0  0  0  0  0  0  0  0  0
  191.7270  175.3390  144.4170 O   0  0  0  0  0  0  0  0  0  0  0  0
  189.0150  177.7170  145.6750 C   0  0  0  0  0  2  0  0  0  0  0  0
  189.8650  177.8980  142.7430 C   0  0  1  0  0  3  0  0  0  0  0  0
  191.7990  177.3210  145.8820 O   0  0  0  0  0  0  0  0  0  0  0  0
  186.7870  177.6410  144.5620 C   0  0  0  0  0  0  0  0  0  0  0  0
  189.4350  176.6060  144.8250 N   0  0  1  0  0  0  0  0  0  0  0  0
  187.4690  177.1450  143.3170 C   0  0  0  0  0  2  0  0  0  0  0  0
  191.1780  176.7920  138.2520 C   0  0  0  0  0  2  0  0  0  0  0  0
  188.6200  178.4640  140.5340 C   0  0  0  0  0  2  0  0  0  0  0  0
  189.7720  177.7960  141.2480 C   0  0  0  0  0  0  0  0  0  0  0  0
  189.7800  176.4650  137.6800 C   0  0  1  0  0  3  0  0  0  0  0  0
  190.6300  177.0880  140.5600 C   0  0  0  0  0  0  0  0  0  0  0  0
  191.3500  176.4350  139.6990 C   0  0  0  0  0  3  0  0  0  0  0  0
  188.5750  176.9310  138.5190 C   0  0  0  0  0  2  0  0  0  0  0  0
  188.6790  178.3820  138.9960 C   0  0  0  0  0  2  0  0  0  0  0  0
  189.6540  177.0000  136.2640 C   0  0  0  0  0  2  0  0  0  0  0  0
  188.2240  177.7290  134.5540 C   0  0  0  0  0  2  0  0  0  0  0  0
  187.6520  176.4390  134.9210 C   0  0  2  0  0  3  0  0  0  0  0  0
  188.2590  177.3130  135.9650 N   0  0  0  0  0  0  0  0  0  0  0  0
  188.5520  175.3090  134.4130 C   0  0  0  0  0  2  0  0  0  0  0  0
  187.9490  173.9590  134.7610 C   0  0  0  0  0  2  0  0  0  0  0  0
  186.7480  172.7990  136.5570 C   0  0  1  0  0  0  0  0  0  0  0  0
  188.7550  173.0920  136.7860 C   0  0  0  0  0  2  0  0  0  0  0  0
  187.6780  173.8850  136.1970 N   0  0  0  0  0  0  0  0  0  0  0  0
  186.1230  172.1270  135.4200 N   0  0  0  0  0  1  0  0  0  0  0  0
  187.8310  171.9500  137.1730 C   0  0  0  0  0  2  0  0  0  0  0  0
  185.7190  173.2490  137.5870 C   0  0  0  0  0  2  0  0  0  0  0  0
  185.1460  174.5300  137.2060 N   0  0  0  0  0  2  0  0  0  0  0  0
  183.7500  174.4970  137.6050 C   0  0  0  0  0  1  0  0  0  0  0  0
  184.6340  178.4530  145.4750 C   0  0  0  0  0  0  0  0  0  0  0  0
  185.0470  178.5170  146.6620 O   0  0  0  0  0  0  0  0  0  0  0  0
  183.2460  178.9260  145.1820 C   0  0  0  0  0  2  0  0  0  0  0  0
  183.2320  179.7130  143.9580 N   0  0  0  0  0  2  0  0  0  0  0  0
  182.6010  178.9050  142.9240 C   0  0  0  0  0  2  0  0  0  0  0  0
  184.6390  179.5490  141.8710 F   0  0  0  0  0  0  0  0  0  0  0  0
  183.9400  177.4160  141.6380 F   0  0  0  0  0  0  0  0  0  0  0  0
  183.5310  178.7340  141.7310 C   0  0  0  0  0  0  0  0  0  0  0  0
  182.8560  179.0840  140.5780 F   0  0  0  0  0  0  0  0  0  0  0  0
  191.0570  179.9480  144.0530 F   0  0  0  0  0  0  0  0  0  0  0  0
  191.9620  179.0500  143.5090 C   0  0  0  0  0  2  0  0  0  0  0  0
  1 12  1  1  0  0  0
  1 11  1  0  0  0  0
  2 10  2  0  0  0  0
  2 35  1  0  0  0  0
  4 45  1  1  0  0  0
  4  5  1  0  0  0  0
  5 11  1  0  0  0  0
  5  9  2  0  0  0  0
  6  5  2  0  0  0  0
  7  3  1  0  0  0  0
  8 15  1  6  0  0  0
  8  4  1  0  0  0  0
  8  1  1  0  0  0  0
 10  3  1  0  0  0  0
 11  7  1  1  0  0  0
 12 10  1  0  0  0  0
 13 18  1  0  0  0  0
 14 15  1  0  0  0  0
 16 21  1  6  0  0  0
 16 13  1  0  0  0  0
 16 19  1  0  0  0  0
 17 15  2  0  0  0  0
 18 17  2  0  0  0  0
 19 20  1  0  0  0  0
 20 14  1  0  0  0  0
 22 23  1  0  0  0  0
 22 24  1  0  0  0  0
 23 25  1  6  0  0  0
 23 24  1  0  0  0  0
 24 21  1  0  0  0  0
 25 26  1  0  0  0  0
 26 29  1  0  0  0  0
 27 30  1  6  0  0  0
 27 31  1  0  0  0  0
 27 32  1  0  0  0  0
 28 31  1  0  0  0  0
 29 27  1  0  0  0  0
 29 28  1  0  0  0  0
 33 32  1  0  0  0  0
 33 34  1  0  0  0  0
 35 36  2  0  0  0  0
 37 35  1  0  0  0  0
 38 37  1  0  0  0  0
 39 38  1  0  0  0  0
 41 42  1  0  0  0  0
 42 40  1  0  0  0  0
 42 39  1  0  0  0  0
 43 42  1  0  0  0  0
 45 44  1  0  0  0  0
M  END
>  <MODEL>
3

>  <REMARK>
 VINA RESULT:      -7.5      2.472      3.907
  Name = 
  14 active torsions:
  status: ('A' for Active; 'I' for Inactive)
    1  A    between atoms: C_3  and  C_36
    2  A    between atoms: N_4  and  C_12
    3  A    between atoms: C_10  and  C_34
    4  A    between atoms: C_12  and  C_38
    5  A    between atoms: N_13  and  C_22
    6  A    between atoms: N_13  and  C_38
    7  A    between atoms: C_14  and  C_19
    8  A    between atoms: C_14  and  N_42
    9  A    between atoms: N_15  and  C_20
   10  A    between atoms: C_17  and  C_22
   11  A    between atoms: C_18  and  C_30
   12  A    between atoms: C_20  and  C_23
   13  A    between atoms: C_23  and  C_39
   14  A    between atoms: N_25  and  C_36
                            x       y       z     vdW  Elec       q    Type
                         _______ _______ _______ _____ _____    ______ ____

>  <TORSDO>
F 14

$$$$
=
 OpenBabel10232408313D

 45 49  0  0  1  0  0  0  0  0999 V2000
  190.5170  175.7980  138.0050 C   0  0  1  0  0  3  0  0  0  0  0  0
  194.1360  176.0560  137.0290 N   0  0  0  0  0  0  0  0  0  0  0  0
  192.1810  175.7580  135.5710 C   0  0  0  0  0  2  0  0  0  0  0  0
  188.3860  177.0760  137.8660 C   0  0  1  0  0  3  0  0  0  0  0  0
  188.3900  175.7520  136.6930 S   0  0  0  0  0  0  0  0  0  0  0  0
  187.5600  174.6060  137.2020 O   0  0  0  0  0  0  0  0  0  0  0  0
  190.7100  176.1080  135.6480 C   0  0  0  0  0  2  0  0  0  0  0  0
  189.8170  177.1180  138.3930 C   0  0  1  0  0  3  0  0  0  0  0  0
  187.9090  176.1720  135.3290 O   0  0  0  0  0  0  0  0  0  0  0  0
  192.8470  175.9050  136.9110 C   0  0  0  0  0  0  0  0  0  0  0  0
  190.0610  175.3190  136.6910 N   0  0  1  0  0  0  0  0  0  0  0  0
  192.0450  175.8420  138.1820 C   0  0  0  0  0  2  0  0  0  0  0  0
  191.6230  177.4110  142.8390 C   0  0  0  0  0  2  0  0  0  0  0  0
  188.5450  177.6310  140.5990 C   0  0  0  0  0  2  0  0  0  0  0  0
  189.8420  177.3530  139.8760 C   0  0  0  0  0  0  0  0  0  0  0  0
  190.7750  178.5980  143.3520 C   0  0  1  0  0  3  0  0  0  0  0  0
  190.9680  177.3870  140.5410 C   0  0  0  0  0  0  0  0  0  0  0  0
  191.9560  177.4780  141.3780 C   0  0  0  0  0  3  0  0  0  0  0  0
  189.5360  178.9620  142.5110 C   0  0  0  0  0  2  0  0  0  0  0  0
  188.6730  177.7570  142.1290 C   0  0  0  0  0  2  0  0  0  0  0  0
  190.3630  178.3630  144.7950 C   0  0  0  0  0  2  0  0  0  0  0  0
  191.3460  176.8450  146.2880 C   0  0  0  0  0  2  0  0  0  0  0  0
  189.9200  176.5960  146.4700 C   0  0  2  0  0  3  0  0  0  0  0  0
  190.4540  176.9430  145.1220 N   0  0  0  0  0  0  0  0  0  0  0  0
  189.2850  177.7570  147.2380 C   0  0  0  0  0  2  0  0  0  0  0  0
  187.7930  177.5260  147.4030 C   0  0  0  0  0  2  0  0  0  0  0  0
  186.1640  178.0120  145.6350 C   0  0  1  0  0  0  0  0  0  0  0  0
  185.8430  178.8280  147.4780 C   0  0  0  0  0  2  0  0  0  0  0  0
  187.0420  178.5570  146.6870 N   0  0  0  0  0  0  0  0  0  0  0  0
  186.3420  176.5850  145.3690 N   0  0  0  0  0  1  0  0  0  0  0  0
  184.9040  178.2740  146.4200 C   0  0  0  0  0  2  0  0  0  0  0  0
  186.2240  178.8400  144.3570 C   0  0  0  0  0  2  0  0  0  0  0  0
  185.3190  178.2970  143.3580 N   0  0  0  0  0  2  0  0  0  0  0  0
  185.2380  179.2790  142.2910 C   0  0  0  0  0  1  0  0  0  0  0  0
  195.1420  176.0880  136.0010 C   0  0  0  0  0  0  0  0  0  0  0  0
  195.4610  177.1990  135.5040 O   0  0  0  0  0  0  0  0  0  0  0  0
  195.8850  174.8720  135.5510 C   0  0  0  0  0  2  0  0  0  0  0  0
  196.6060  174.2810  136.6690 N   0  0  0  0  0  2  0  0  0  0  0  0
  196.2280  172.8770  136.7420 C   0  0  0  0  0  2  0  0  0  0  0  0
  193.9620  172.8680  137.4770 F   0  0  0  0  0  0  0  0  0  0  0  0
  195.3750  171.3330  138.3380 F   0  0  0  0  0  0  0  0  0  0  0  0
  195.2610  172.6370  137.8920 C   0  0  0  0  0  0  0  0  0  0  0  0
  195.5640  173.5000  138.9270 F   0  0  0  0  0  0  0  0  0  0  0  0
  189.0200  179.3380  137.3600 F   0  0  0  0  0  0  0  0  0  0  0  0
  188.0000  178.4080  137.2350 C   0  0  0  0  0  2  0  0  0  0  0  0
  1 12  1  6  0  0  0
  1  8  1  0  0  0  0
  3  7  1  0  0  0  0
  3 10  1  0  0  0  0
  4 45  1  6  0  0  0
  4  8  1  0  0  0  0
  5  6  2  0  0  0  0
  5  4  1  0  0  0  0
  8 15  1  1  0  0  0
  9  5  2  0  0  0  0
 10  2  2  0  0  0  0
 10 12  1  0  0  0  0
 11  7  1  6  0  0  0
 11  5  1  0  0  0  0
 11  1  1  0  0  0  0
 13 16  1  0  0  0  0
 14 20  1  0  0  0  0
 15 17  2  0  0  0  0
 15 14  1  0  0  0  0
 16 21  1  1  0  0  0
 17 18  2  0  0  0  0
 18 13  1  0  0  0  0
 19 16  1  0  0  0  0
 20 19  1  0  0  0  0
 21 24  1  0  0  0  0
 22 23  1  0  0  0  0
 23 25  1  1  0  0  0
 24 22  1  0  0  0  0
 24 23  1  0  0  0  0
 25 26  1  0  0  0  0
 27 30  1  6  0  0  0
 27 31  1  0  0  0  0
 27 29  1  0  0  0  0
 29 26  1  0  0  0  0
 29 28  1  0  0  0  0
 31 28  1  0  0  0  0
 32 27  1  0  0  0  0
 33 32  1  0  0  0  0
 34 33  1  0  0  0  0
 35  2  1  0  0  0  0
 36 35  2  0  0  0  0
 37 35  1  0  0  0  0
 37 38  1  0  0  0  0
 38 39  1  0  0  0  0
 39 42  1  0  0  0  0
 40 42  1  0  0  0  0
 42 41  1  0  0  0  0
 42 43  1  0  0  0  0
 45 44  1  0  0  0  0
M  END
>  <MODEL>
4

>  <REMARK>
 VINA RESULT:      -7.2      4.283     10.723
  Name = 
  14 active torsions:
  status: ('A' for Active; 'I' for Inactive)
    1  A    between atoms: C_3  and  C_36
    2  A    between atoms: N_4  and  C_12
    3  A    between atoms: C_10  and  C_34
    4  A    between atoms: C_12  and  C_38
    5  A    between atoms: N_13  and  C_22
    6  A    between atoms: N_13  and  C_38
    7  A    between atoms: C_14  and  C_19
    8  A    between atoms: C_14  and  N_42
    9  A    between atoms: N_15  and  C_20
   10  A    between atoms: C_17  and  C_22
   11  A    between atoms: C_18  and  C_30
   12  A    between atoms: C_20  and  C_23
   13  A    between atoms: C_23  and  C_39
   14  A    between atoms: N_25  and  C_36
                            x       y       z     vdW  Elec       q    Type
                         _______ _______ _______ _____ _____    ______ ____

>  <TORSDO>
F 14

$$$$
=
 OpenBabel10232408313D

 45 49  0  0  1  0  0  0  0  0999 V2000
  183.9230  178.8870  139.5330 C   0  0  1  0  0  3  0  0  0  0  0  0
  185.2590  178.6750  143.0380 N   0  0  0  0  0  0  0  0  0  0  0  0
  182.9180  178.8030  142.3040 C   0  0  0  0  0  2  0  0  0  0  0  0
  182.6700  177.5350  137.8620 C   0  0  1  0  0  3  0  0  0  0  0  0
  181.6200  178.7700  138.5690 S   0  0  0  0  0  0  0  0  0  0  0  0
  181.4590  179.9230  137.6180 O   0  0  0  0  0  0  0  0  0  0  0  0
  182.1510  178.4130  141.0580 C   0  0  0  0  0  2  0  0  0  0  0  0
  183.9330  177.5780  138.7170 C   0  0  1  0  0  3  0  0  0  0  0  0
  180.2680  178.2380  138.9670 O   0  0  0  0  0  0  0  0  0  0  0  0
  184.4010  178.7760  142.0630 C   0  0  0  0  0  0  0  0  0  0  0  0
  182.5570  179.2550  139.9360 N   0  0  1  0  0  0  0  0  0  0  0  0
  184.9590  178.9050  140.6710 C   0  0  0  0  0  2  0  0  0  0  0  0
  187.3980  175.4340  136.1660 C   0  0  0  0  0  2  0  0  0  0  0  0
  185.9980  178.6810  137.5940 C   0  0  0  0  0  2  0  0  0  0  0  0
  185.1650  177.4510  137.8690 C   0  0  0  0  0  0  0  0  0  0  0  0
  187.5940  176.5230  135.0870 C   0  0  1  0  0  3  0  0  0  0  0  0
  185.4950  176.3140  137.3130 C   0  0  0  0  0  0  0  0  0  0  0  0
  185.9880  175.3050  136.6620 C   0  0  0  0  0  3  0  0  0  0  0  0
  186.9800  177.9030  135.3930 C   0  0  0  0  0  2  0  0  0  0  0  0
  187.2930  178.4190  136.8000 C   0  0  0  0  0  2  0  0  0  0  0  0
  189.0690  176.6810  134.7630 C   0  0  0  0  0  2  0  0  0  0  0  0
  191.1750  175.6540  134.6420 C   0  0  0  0  0  2  0  0  0  0  0  0
  190.6840  175.2250  135.9470 C   0  0  2  0  0  3  0  0  0  0  0  0
  189.7380  175.3830  134.8050 N   0  0  0  0  0  0  0  0  0  0  0  0
  190.7230  176.4010  136.9270 C   0  0  0  0  0  2  0  0  0  0  0  0
  191.3420  175.9660  138.2450 C   0  0  0  0  0  2  0  0  0  0  0  0
  190.6980  177.0220  140.3620 C   0  0  1  0  0  0  0  0  0  0  0  0
  189.3140  176.9700  138.8620 C   0  0  0  0  0  2  0  0  0  0  0  0
  190.3490  176.0430  139.3160 N   0  0  0  0  0  0  0  0  0  0  0  0
  192.0400  177.5890  140.2450 N   0  0  0  0  0  1  0  0  0  0  0  0
  189.6430  178.0050  139.9230 C   0  0  0  0  0  2  0  0  0  0  0  0
  190.4290  176.4810  141.7610 C   0  0  0  0  0  2  0  0  0  0  0  0
  189.3340  177.2070  142.3840 N   0  0  0  0  0  2  0  0  0  0  0  0
  188.4680  176.2130  142.9930 C   0  0  0  0  0  1  0  0  0  0  0  0
  185.0150  178.6000  144.4540 C   0  0  0  0  0  0  0  0  0  0  0  0
  184.1150  179.3250  144.9510 O   0  0  0  0  0  0  0  0  0  0  0  0
  185.7270  177.6410  145.3530 C   0  0  0  0  0  2  0  0  0  0  0  0
  187.0760  178.1160  145.6250 N   0  0  0  0  0  2  0  0  0  0  0  0
  187.3470  177.8810  147.0360 C   0  0  0  0  0  2  0  0  0  0  0  0
  189.5500  177.9280  146.1300 F   0  0  0  0  0  0  0  0  0  0  0  0
  189.2870  178.3470  148.3320 F   0  0  0  0  0  0  0  0  0  0  0  0
  188.8260  177.6010  147.2620 C   0  0  0  0  0  0  0  0  0  0  0  0
  188.9970  176.2590  147.5360 F   0  0  0  0  0  0  0  0  0  0  0  0
  182.1490  175.5740  139.1500 F   0  0  0  0  0  0  0  0  0  0  0  0
  182.0370  176.1490  137.8930 C   0  0  0  0  0  2  0  0  0  0  0  0
  1 11  1  0  0  0  0
  1 12  1  1  0  0  0
  2 35  1  0  0  0  0
  4 45  1  1  0  0  0
  4  5  1  0  0  0  0
  4  8  1  0  0  0  0
  5  9  2  0  0  0  0
  5 11  1  0  0  0  0
  6  5  2  0  0  0  0
  7  3  1  0  0  0  0
  8 15  1  6  0  0  0
  8  1  1  0  0  0  0
 10  3  1  0  0  0  0
 10  2  2  0  0  0  0
 11  7  1  1  0  0  0
 12 10  1  0  0  0  0
 13 18  1  0  0  0  0
 14 15  1  0  0  0  0
 16 21  1  1  0  0  0
 16 19  1  0  0  0  0
 16 13  1  0  0  0  0
 17 15  2  0  0  0  0
 18 17  2  0  0  0  0
 19 20  1  0  0  0  0
 20 14  1  0  0  0  0
 21 24  1  0  0  0  0
 22 24  1  0  0  0  0
 22 23  1  0  0  0  0
 23 25  1  1  0  0  0
 24 23  1  0  0  0  0
 25 26  1  0  0  0  0
 26 29  1  0  0  0  0
 27 30  1  6  0  0  0
 27 32  1  0  0  0  0
 28 29  1  0  0  0  0
 28 31  1  0  0  0  0
 29 27  1  0  0  0  0
 31 27  1  0  0  0  0
 32 33  1  0  0  0  0
 33 34  1  0  0  0  0
 35 36  2  0  0  0  0
 35 37  1  0  0  0  0
 37 38  1  0  0  0  0
 38 39  1  0  0  0  0
 39 42  1  0  0  0  0
 40 42  1  0  0  0  0
 42 43  1  0  0  0  0
 42 41  1  0  0  0  0
 45 44  1  0  0  0  0
M  END
>  <MODEL>
5

>  <REMARK>
 VINA RESULT:      -6.9      3.672      6.913
  Name = 
  14 active torsions:
  status: ('A' for Active; 'I' for Inactive)
    1  A    between atoms: C_3  and  C_36
    2  A    between atoms: N_4  and  C_12
    3  A    between atoms: C_10  and  C_34
    4  A    between atoms: C_12  and  C_38
    5  A    between atoms: N_13  and  C_22
    6  A    between atoms: N_13  and  C_38
    7  A    between atoms: C_14  and  C_19
    8  A    between atoms: C_14  and  N_42
    9  A    between atoms: N_15  and  C_20
   10  A    between atoms: C_17  and  C_22
   11  A    between atoms: C_18  and  C_30
   12  A    between atoms: C_20  and  C_23
   13  A    between atoms: C_23  and  C_39
   14  A    between atoms: N_25  and  C_36
                            x       y       z     vdW  Elec       q    Type
                         _______ _______ _______ _____ _____    ______ ____

>  <TORSDO>
F 14

$$$$
=
 OpenBabel10232408313D

 45 49  0  0  1  0  0  0  0  0999 V2000
  186.9800  178.5860  139.4520 C   0  0  1  0  0  3  0  0  0  0  0  0
  183.4230  178.1810  140.5930 N   0  0  0  0  0  0  0  0  0  0  0  0
  184.3040  178.1310  138.3000 C   0  0  0  0  0  2  0  0  0  0  0  0
  188.8480  177.2760  138.4600 C   0  0  1  0  0  3  0  0  0  0  0  0
  188.1070  178.3200  137.2380 S   0  0  0  0  0  0  0  0  0  0  0  0
  188.9610  179.5350  137.0070 O   0  0  0  0  0  0  0  0  0  0  0  0
  185.6300  177.7830  137.6570 C   0  0  0  0  0  2  0  0  0  0  0  0
  187.9060  177.3700  139.6570 C   0  0  1  0  0  3  0  0  0  0  0  0
  187.8540  177.6110  135.9330 O   0  0  0  0  0  0  0  0  0  0  0  0
  184.4430  178.2840  139.7890 C   0  0  0  0  0  0  0  0  0  0  0  0
  186.6410  178.7670  138.0320 N   0  0  1  0  0  0  0  0  0  0  0  0
  185.7750  178.6040  140.4100 C   0  0  0  0  0  2  0  0  0  0  0  0
  191.6660  177.1030  142.6410 C   0  0  0  0  0  2  0  0  0  0  0  0
  187.9310  177.7500  142.2260 C   0  0  0  0  0  2  0  0  0  0  0  0
  188.6740  177.4570  140.9440 C   0  0  0  0  0  0  0  0  0  0  0  0
  191.3070  178.2880  143.5660 C   0  0  1  0  0  3  0  0  0  0  0  0
  189.9770  177.3490  140.9680 C   0  0  0  0  0  0  0  0  0  0  0  0
  191.2520  177.2900  141.2120 C   0  0  0  0  0  3  0  0  0  0  0  0
  189.8630  178.8160  143.4670 C   0  0  0  0  0  2  0  0  0  0  0  0
  188.8000  177.7160  143.4980 C   0  0  0  0  0  2  0  0  0  0  0  0
  191.6260  177.9420  145.0100 C   0  0  0  0  0  2  0  0  0  0  0  0
  191.9660  176.2450  146.5930 C   0  0  0  0  0  2  0  0  0  0  0  0
  190.5340  176.1550  146.3290 C   0  0  2  0  0  3  0  0  0  0  0  0
  191.4780  176.5050  145.2300 N   0  0  0  0  0  0  0  0  0  0  0  0
  189.8130  177.3420  146.9730 C   0  0  0  0  0  2  0  0  0  0  0  0
  188.3120  177.1050  146.9780 C   0  0  0  0  0  2  0  0  0  0  0  0
  186.2650  178.1670  146.1440 C   0  0  1  0  0  0  0  0  0  0  0  0
  186.9510  178.7310  147.9820 C   0  0  0  0  0  2  0  0  0  0  0  0
  187.6050  178.3610  146.7280 N   0  0  0  0  0  0  0  0  0  0  0  0
  185.9650  176.7930  145.7460 N   0  0  0  0  0  1  0  0  0  0  0  0
  185.5530  178.5410  147.4190 C   0  0  0  0  0  2  0  0  0  0  0  0
  185.9840  179.1580  145.0200 C   0  0  0  0  0  2  0  0  0  0  0  0
  184.9870  178.6210  144.1090 N   0  0  0  0  0  2  0  0  0  0  0  0
  183.8610  179.5370  144.1380 C   0  0  0  0  0  1  0  0  0  0  0  0
  182.0390  177.9440  140.2760 C   0  0  0  0  0  0  0  0  0  0  0  0
  181.7120  176.8270  139.7980 O   0  0  0  0  0  0  0  0  0  0  0  0
  180.9580  178.9370  140.5600 C   0  0  0  0  0  2  0  0  0  0  0  0
  180.3720  179.4110  139.3140 N   0  0  0  0  0  2  0  0  0  0  0  0
  180.4940  180.8610  139.2960 C   0  0  0  0  0  2  0  0  0  0  0  0
  182.8230  181.0990  138.8510 F   0  0  0  0  0  0  0  0  0  0  0  0
  181.4520  180.5740  137.1370 F   0  0  0  0  0  0  0  0  0  0  0  0
  181.5660  181.3000  138.3090 C   0  0  0  0  0  0  0  0  0  0  0  0
  181.4040  182.6420  138.0300 F   0  0  0  0  0  0  0  0  0  0  0  0
  190.2910  175.5450  137.6260 F   0  0  0  0  0  0  0  0  0  0  0  0
  188.9840  175.8350  137.9860 C   0  0  0  0  0  2  0  0  0  0  0  0
  1  8  1  0  0  0  0
  1 12  1  1  0  0  0
  3 10  1  0  0  0  0
  4 45  1  6  0  0  0
  4  8  1  0  0  0  0
  5 11  1  0  0  0  0
  5  4  1  0  0  0  0
  6  5  2  0  0  0  0
  7  3  1  0  0  0  0
  8 15  1  1  0  0  0
  9  5  2  0  0  0  0
 10 12  1  0  0  0  0
 10  2  2  0  0  0  0
 11  7  1  6  0  0  0
 11  1  1  0  0  0  0
 13 16  1  0  0  0  0
 14 20  1  0  0  0  0
 15 17  2  0  0  0  0
 15 14  1  0  0  0  0
 16 21  1  1  0  0  0
 17 18  2  0  0  0  0
 18 13  1  0  0  0  0
 19 20  1  0  0  0  0
 19 16  1  0  0  0  0
 21 24  1  0  0  0  0
 23 22  1  0  0  0  0
 23 25  1  1  0  0  0
 24 23  1  0  0  0  0
 24 22  1  0  0  0  0
 25 26  1  0  0  0  0
 27 30  1  6  0  0  0
 27 29  1  0  0  0  0
 27 31  1  0  0  0  0
 29 26  1  0  0  0  0
 29 28  1  0  0  0  0
 31 28  1  0  0  0  0
 32 27  1  0  0  0  0
 33 34  1  0  0  0  0
 33 32  1  0  0  0  0
 35 37  1  0  0  0  0
 35  2  1  0  0  0  0
 36 35  2  0  0  0  0
 38 37  1  0  0  0  0
 39 38  1  0  0  0  0
 41 42  1  0  0  0  0
 42 40  1  0  0  0  0
 42 39  1  0  0  0  0
 43 42  1  0  0  0  0
 44 45  1  0  0  0  0
M  END
>  <MODEL>
6

>  <REMARK>
 VINA RESULT:      -6.9      4.554      8.546
  Name = 
  14 active torsions:
  status: ('A' for Active; 'I' for Inactive)
    1  A    between atoms: C_3  and  C_36
    2  A    between atoms: N_4  and  C_12
    3  A    between atoms: C_10  and  C_34
    4  A    between atoms: C_12  and  C_38
    5  A    between atoms: N_13  and  C_22
    6  A    between atoms: N_13  and  C_38
    7  A    between atoms: C_14  and  C_19
    8  A    between atoms: C_14  and  N_42
    9  A    between atoms: N_15  and  C_20
   10  A    between atoms: C_17  and  C_22
   11  A    between atoms: C_18  and  C_30
   12  A    between atoms: C_20  and  C_23
   13  A    between atoms: C_23  and  C_39
   14  A    between atoms: N_25  and  C_36
                            x       y       z     vdW  Elec       q    Type
                         _______ _______ _______ _____ _____    ______ ____

>  <TORSDO>
F 14

$$$$
=
 OpenBabel10232408313D

 45 49  0  0  1  0  0  0  0  0999 V2000
  190.3890  177.4960  139.2520 C   0  0  1  0  0  3  0  0  0  0  0  0
  191.3300  176.8120  142.8250 N   0  0  0  0  0  0  0  0  0  0  0  0
  189.3310  177.9540  141.9660 C   0  0  0  0  0  2  0  0  0  0  0  0
  188.7390  176.8000  137.5260 C   0  0  1  0  0  3  0  0  0  0  0  0
  188.3240  178.3950  138.1690 S   0  0  0  0  0  0  0  0  0  0  0  0
  188.7410  179.4690  137.2030 O   0  0  0  0  0  0  0  0  0  0  0  0
  188.5270  177.9110  140.6840 C   0  0  0  0  0  2  0  0  0  0  0  0
  189.8470  176.2980  138.4470 C   0  0  1  0  0  3  0  0  0  0  0  0
  186.8610  178.5360  138.4970 O   0  0  0  0  0  0  0  0  0  0  0  0
  190.6530  177.2580  141.8050 C   0  0  0  0  0  0  0  0  0  0  0  0
  189.3170  178.4490  139.5800 N   0  0  1  0  0  0  0  0  0  0  0  0
  191.2710  177.0820  140.4440 C   0  0  0  0  0  2  0  0  0  0  0  0
  193.9920  175.7620  136.0720 C   0  0  0  0  0  2  0  0  0  0  0  0
  190.7080  174.1870  137.2020 C   0  0  0  0  0  2  0  0  0  0  0  0
  190.9280  175.6080  137.6670 C   0  0  0  0  0  0  0  0  0  0  0  0
  194.3100  174.3080  136.4920 C   0  0  1  0  0  3  0  0  0  0  0  0
  192.0780  176.1870  137.4380 C   0  0  0  0  0  0  0  0  0  0  0  0
  193.2800  176.5640  137.1200 C   0  0  0  0  0  3  0  0  0  0  0  0
  193.1460  173.5100  137.1130 C   0  0  0  0  0  2  0  0  0  0  0  0
  191.8380  173.6130  136.3250 C   0  0  0  0  0  2  0  0  0  0  0  0
  194.8890  173.5380  135.3190 C   0  0  0  0  0  2  0  0  0  0  0  0
  197.0840  173.6920  136.1320 C   0  0  0  0  0  2  0  0  0  0  0  0
  197.2580  172.9760  134.8730 C   0  0  2  0  0  3  0  0  0  0  0  0
  196.2210  174.0410  134.9920 N   0  0  0  0  0  0  0  0  0  0  0  0
  196.7400  171.5430  135.0160 C   0  0  0  0  0  2  0  0  0  0  0  0
  197.1940  170.9500  136.3390 C   0  0  0  0  0  2  0  0  0  0  0  0
  195.4840  169.8830  137.7370 C   0  0  1  0  0  0  0  0  0  0  0  0
  195.3030  169.7120  135.7110 C   0  0  0  0  0  2  0  0  0  0  0  0
  196.4420  169.7280  136.6270 N   0  0  0  0  0  0  0  0  0  0  0  0
  195.5910  171.1460  138.4650 N   0  0  0  0  0  1  0  0  0  0  0  0
  194.2830  169.8720  136.8250 C   0  0  0  0  0  2  0  0  0  0  0  0
  195.5010  168.6820  138.6750 C   0  0  0  0  0  2  0  0  0  0  0  0
  194.2360  168.5760  139.3850 N   0  0  0  0  0  2  0  0  0  0  0  0
  194.5600  168.2740  140.7680 C   0  0  0  0  0  1  0  0  0  0  0  0
  191.0150  176.8960  144.2270 C   0  0  0  0  0  0  0  0  0  0  0  0
  191.6460  176.1640  145.0320 O   0  0  0  0  0  0  0  0  0  0  0  0
  190.0270  177.8710  144.7820 C   0  0  0  0  0  2  0  0  0  0  0  0
  188.8830  177.1630  145.3400 N   0  0  0  0  0  2  0  0  0  0  0  0
  188.3670  177.9640  146.4410 C   0  0  0  0  0  2  0  0  0  0  0  0
  190.2380  177.1530  147.6730 F   0  0  0  0  0  0  0  0  0  0  0  0
  188.7050  178.4080  148.7530 F   0  0  0  0  0  0  0  0  0  0  0  0
  188.8910  177.4500  147.7740 C   0  0  0  0  0  0  0  0  0  0  0  0
  188.2020  176.3040  148.1210 F   0  0  0  0  0  0  0  0  0  0  0  0
  186.7690  176.0080  136.4000 F   0  0  0  0  0  0  0  0  0  0  0  0
  187.5510  175.8460  137.5320 C   0  0  0  0  0  2  0  0  0  0  0  0
  1 11  1  0  0  0  0
  1 12  1  1  0  0  0
  2 35  1  0  0  0  0
  4 45  1  1  0  0  0
  4  5  1  0  0  0  0
  4  8  1  0  0  0  0
  5  9  2  0  0  0  0
  5 11  1  0  0  0  0
  6  5  2  0  0  0  0
  7  3  1  0  0  0  0
  8 15  1  6  0  0  0
  8  1  1  0  0  0  0
 10  3  1  0  0  0  0
 10  2  2  0  0  0  0
 11  7  1  1  0  0  0
 12 10  1  0  0  0  0
 13 16  1  0  0  0  0
 13 18  1  0  0  0  0
 14 15  1  0  0  0  0
 16 21  1  6  0  0  0
 16 19  1  0  0  0  0
 17 15  2  0  0  0  0
 18 17  2  0  0  0  0
 20 19  1  0  0  0  0
 20 14  1  0  0  0  0
 23 24  1  0  0  0  0
 23 25  1  1  0  0  0
 23 22  1  0  0  0  0
 24 21  1  0  0  0  0
 24 22  1  0  0  0  0
 25 26  1  0  0  0  0
 26 29  1  0  0  0  0
 27 30  1  1  0  0  0
 27 32  1  0  0  0  0
 28 29  1  0  0  0  0
 28 31  1  0  0  0  0
 29 27  1  0  0  0  0
 31 27  1  0  0  0  0
 32 33  1  0  0  0  0
 33 34  1  0  0  0  0
 35 37  1  0  0  0  0
 35 36  2  0  0  0  0
 37 38  1  0  0  0  0
 38 39  1  0  0  0  0
 39 42  1  0  0  0  0
 40 42  1  0  0  0  0
 42 43  1  0  0  0  0
 42 41  1  0  0  0  0
 44 45  1  0  0  0  0
M  END
>  <MODEL>
7

>  <REMARK>
 VINA RESULT:      -6.9      3.496      6.617
  Name = 
  14 active torsions:
  status: ('A' for Active; 'I' for Inactive)
    1  A    between atoms: C_3  and  C_36
    2  A    between atoms: N_4  and  C_12
    3  A    between atoms: C_10  and  C_34
    4  A    between atoms: C_12  and  C_38
    5  A    between atoms: N_13  and  C_22
    6  A    between atoms: N_13  and  C_38
    7  A    between atoms: C_14  and  C_19
    8  A    between atoms: C_14  and  N_42
    9  A    between atoms: N_15  and  C_20
   10  A    between atoms: C_17  and  C_22
   11  A    between atoms: C_18  and  C_30
   12  A    between atoms: C_20  and  C_23
   13  A    between atoms: C_23  and  C_39
   14  A    between atoms: N_25  and  C_36
                            x       y       z     vdW  Elec       q    Type
                         _______ _______ _______ _____ _____    ______ ____

>  <TORSDO>
F 14

$$$$
=
 OpenBabel10232408313D

 45 49  0  0  1  0  0  0  0  0999 V2000
  189.1030  178.3100  141.9110 C   0  0  1  0  0  3  0  0  0  0  0  0
  189.1140  176.5430  138.5960 N   0  0  0  0  0  0  0  0  0  0  0  0
  190.9520  176.7660  140.2110 C   0  0  0  0  0  2  0  0  0  0  0  0
  189.1850  177.8330  144.3510 C   0  0  1  0  0  3  0  0  0  0  0  0
  190.7480  178.4380  143.7880 S   0  0  0  0  0  0  0  0  0  0  0  0
  190.9100  179.8850  144.1610 O   0  0  0  0  0  0  0  0  0  0  0  0
  191.0590  176.9600  141.7090 C   0  0  0  0  0  2  0  0  0  0  0  0
  188.3930  177.5830  143.0720 C   0  0  1  0  0  3  0  0  0  0  0  0
  191.9140  177.6380  144.3090 O   0  0  0  0  0  0  0  0  0  0  0  0
  189.5520  177.0190  139.7270 C   0  0  0  0  0  0  0  0  0  0  0  0
  190.5640  178.2840  142.0780 N   0  0  1  0  0  0  0  0  0  0  0  0
  188.6040  177.8760  140.5210 C   0  0  0  0  0  2  0  0  0  0  0  0
  184.1380  178.2840  145.1960 C   0  0  0  0  0  2  0  0  0  0  0  0
  186.2280  178.5580  142.0180 C   0  0  0  0  0  2  0  0  0  0  0  0
  186.9660  178.0230  143.2230 C   0  0  0  0  0  0  0  0  0  0  0  0
  183.7670  179.6260  144.5260 C   0  0  1  0  0  3  0  0  0  0  0  0
  186.3700  178.0120  144.3880 C   0  0  0  0  0  0  0  0  0  0  0  0
  185.6070  178.1000  145.4350 C   0  0  0  0  0  3  0  0  0  0  0  0
  184.5890  180.0160  143.2820 C   0  0  0  0  0  2  0  0  0  0  0  0
  184.7420  178.8840  142.2630 C   0  0  0  0  0  2  0  0  0  0  0  0
  182.2860  179.6530  144.1880 C   0  0  0  0  0  2  0  0  0  0  0  0
  180.3640  178.3170  144.0420 C   0  0  0  0  0  2  0  0  0  0  0  0
  180.8910  178.2690  142.6820 C   0  0  2  0  0  3  0  0  0  0  0  0
  181.8220  178.3100  143.8460 N   0  0  0  0  0  0  0  0  0  0  0  0
  180.6550  179.6130  141.9880 C   0  0  0  0  0  2  0  0  0  0  0  0
  180.5050  179.4120  140.4900 C   0  0  0  0  0  2  0  0  0  0  0  0
  182.0210  178.2360  138.9640 C   0  0  1  0  0  0  0  0  0  0  0  0
  181.7140  180.2300  138.6550 C   0  0  0  0  0  2  0  0  0  0  0  0
  181.8200  179.3970  139.8510 N   0  0  0  0  0  0  0  0  0  0  0  0
  180.9670  177.2250  139.0310 N   0  0  0  0  0  1  0  0  0  0  0  0
  181.9170  179.0610  137.7060 C   0  0  0  0  0  2  0  0  0  0  0  0
  183.4070  177.6240  139.1330 C   0  0  0  0  0  2  0  0  0  0  0  0
  184.1730  177.7570  137.9040 N   0  0  0  0  0  2  0  0  0  0  0  0
  185.5150  178.1540  138.2910 C   0  0  0  0  0  1  0  0  0  0  0  0
  189.8120  175.7540  137.6150 C   0  0  0  0  0  0  0  0  0  0  0  0
  189.6960  174.5020  137.6530 O   0  0  0  0  0  0  0  0  0  0  0  0
  190.6070  176.3570  136.5010 C   0  0  0  0  0  2  0  0  0  0  0  0
  191.6610  175.4440  136.0850 N   0  0  0  0  0  2  0  0  0  0  0  0
  192.9340  176.0490  136.4490 C   0  0  0  0  0  2  0  0  0  0  0  0
  193.7470  176.1040  138.6880 F   0  0  0  0  0  0  0  0  0  0  0  0
  192.8070  174.1960  137.9360 F   0  0  0  0  0  0  0  0  0  0  0  0
  193.5900  175.2810  137.5880 C   0  0  0  0  0  0  0  0  0  0  0  0
  194.8310  174.8340  137.1780 F   0  0  0  0  0  0  0  0  0  0  0  0
  189.5070  176.8310  146.5120 F   0  0  0  0  0  0  0  0  0  0  0  0
  189.3190  176.5520  145.1670 C   0  0  0  0  0  2  0  0  0  0  0  0
  1 12  1  6  0  0  0
  1 11  1  0  0  0  0
  1  8  1  0  0  0  0
  2 10  2  0  0  0  0
  3  7  1  0  0  0  0
  4 45  1  6  0  0  0
  5  6  2  0  0  0  0
  5  9  2  0  0  0  0
  5  4  1  0  0  0  0
  8 15  1  1  0  0  0
  8  4  1  0  0  0  0
 10  3  1  0  0  0  0
 10 12  1  0  0  0  0
 11  7  1  1  0  0  0
 11  5  1  0  0  0  0
 13 18  1  0  0  0  0
 14 20  1  0  0  0  0
 14 15  1  0  0  0  0
 15 17  2  0  0  0  0
 16 21  1  6  0  0  0
 16 13  1  0  0  0  0
 17 18  2  0  0  0  0
 19 16  1  0  0  0  0
 20 19  1  0  0  0  0
 23 25  1  6  0  0  0
 23 24  1  0  0  0  0
 23 22  1  0  0  0  0
 24 22  1  0  0  0  0
 24 21  1  0  0  0  0
 26 25  1  0  0  0  0
 27 30  1  1  0  0  0
 27 32  1  0  0  0  0
 27 29  1  0  0  0  0
 28 29  1  0  0  0  0
 29 26  1  0  0  0  0
 31 28  1  0  0  0  0
 31 27  1  0  0  0  0
 33 34  1  0  0  0  0
 33 32  1  0  0  0  0
 35 36  2  0  0  0  0
 35  2  1  0  0  0  0
 37 35  1  0  0  0  0
 38 39  1  0  0  0  0
 38 37  1  0  0  0  0
 39 42  1  0  0  0  0
 42 41  1  0  0  0  0
 42 40  1  0  0  0  0
 43 42  1  0  0  0  0
 45 44  1  0  0  0  0
M  END
>  <MODEL>
8

>  <REMARK>
 VINA RESULT:      -6.8      3.491      9.256
  Name = 
  14 active torsions:
  status: ('A' for Active; 'I' for Inactive)
    1  A    between atoms: C_3  and  C_36
    2  A    between atoms: N_4  and  C_12
    3  A    between atoms: C_10  and  C_34
    4  A    between atoms: C_12  and  C_38
    5  A    between atoms: N_13  and  C_22
    6  A    between atoms: N_13  and  C_38
    7  A    between atoms: C_14  and  C_19
    8  A    between atoms: C_14  and  N_42
    9  A    between atoms: N_15  and  C_20
   10  A    between atoms: C_17  and  C_22
   11  A    between atoms: C_18  and  C_30
   12  A    between atoms: C_20  and  C_23
   13  A    between atoms: C_23  and  C_39
   14  A    between atoms: N_25  and  C_36
                            x       y       z     vdW  Elec       q    Type
                         _______ _______ _______ _____ _____    ______ ____

>  <TORSDO>
F 14

$$$$
=
 OpenBabel10232408313D

 45 49  0  0  1  0  0  0  0  0999 V2000
  189.0620  178.3030  141.8870 C   0  0  1  0  0  3  0  0  0  0  0  0
  189.0540  176.5320  138.5730 N   0  0  0  0  0  0  0  0  0  0  0  0
  190.9130  176.7920  140.1580 C   0  0  0  0  0  2  0  0  0  0  0  0
  189.1930  177.8290  144.3260 C   0  0  1  0  0  3  0  0  0  0  0  0
  190.7350  178.4650  143.7360 S   0  0  0  0  0  0  0  0  0  0  0  0
  190.8740  179.9150  144.1050 O   0  0  0  0  0  0  0  0  0  0  0  0
  191.0410  176.9910  141.6540 C   0  0  0  0  0  2  0  0  0  0  0  0
  188.3850  177.5630  143.0590 C   0  0  1  0  0  3  0  0  0  0  0  0
  191.9240  177.6880  144.2390 O   0  0  0  0  0  0  0  0  0  0  0  0
  189.5000  177.0180  139.6970 C   0  0  0  0  0  0  0  0  0  0  0  0
  190.5260  178.3040  142.0300 N   0  0  1  0  0  0  0  0  0  0  0  0
  188.5490  177.8560  140.5060 C   0  0  0  0  0  2  0  0  0  0  0  0
  184.1870  178.2900  145.2860 C   0  0  0  0  0  2  0  0  0  0  0  0
  186.1600  178.4120  142.0240 C   0  0  0  0  0  2  0  0  0  0  0  0
  186.9520  177.9750  143.2340 C   0  0  0  0  0  0  0  0  0  0  0  0
  183.7560  179.5770  144.5450 C   0  0  1  0  0  3  0  0  0  0  0  0
  186.3980  178.0240  144.4170 C   0  0  0  0  0  0  0  0  0  0  0  0
  185.6680  178.1600  145.4830 C   0  0  0  0  0  3  0  0  0  0  0  0
  184.5240  179.9070  143.2510 C   0  0  0  0  0  2  0  0  0  0  0  0
  184.6740  178.7150  142.3010 C   0  0  0  0  0  2  0  0  0  0  0  0
  182.2650  179.5440  144.2600 C   0  0  0  0  0  2  0  0  0  0  0  0
  180.4190  178.1070  144.0890 C   0  0  0  0  0  2  0  0  0  0  0  0
  180.8780  178.2030  142.7080 C   0  0  2  0  0  3  0  0  0  0  0  0
  181.8630  178.2070  143.8270 N   0  0  0  0  0  0  0  0  0  0  0  0
  180.5300  179.5820  142.1410 C   0  0  0  0  0  2  0  0  0  0  0  0
  180.5600  179.5490  140.6230 C   0  0  0  0  0  2  0  0  0  0  0  0
  181.8670  177.9930  139.2500 C   0  0  1  0  0  0  0  0  0  0  0  0
  182.1880  179.9920  138.9930 C   0  0  0  0  0  2  0  0  0  0  0  0
  181.8900  179.1570  140.1550 N   0  0  0  0  0  0  0  0  0  0  0  0
  180.5690  177.3310  139.1380 N   0  0  0  0  0  1  0  0  0  0  0  0
  182.1730  178.8200  138.0270 C   0  0  0  0  0  2  0  0  0  0  0  0
  182.9840  177.0050  139.5650 C   0  0  0  0  0  2  0  0  0  0  0  0
  182.6300  175.6740  139.0990 N   0  0  0  0  0  2  0  0  0  0  0  0
  183.2990  175.4880  137.8240 C   0  0  0  0  0  1  0  0  0  0  0  0
  189.7510  175.7550  137.5820 C   0  0  0  0  0  0  0  0  0  0  0  0
  189.9240  174.5260  137.7890 O   0  0  0  0  0  0  0  0  0  0  0  0
  190.2120  176.3250  136.2780 C   0  0  0  0  0  2  0  0  0  0  0  0
  189.6640  177.6600  136.0930 N   0  0  0  0  0  2  0  0  0  0  0  0
  188.6040  177.5650  135.0990 C   0  0  0  0  0  2  0  0  0  0  0  0
  187.4560  179.0140  136.6030 F   0  0  0  0  0  0  0  0  0  0  0  0
  186.4220  178.4190  134.6870 F   0  0  0  0  0  0  0  0  0  0  0  0
  187.2680  177.9900  135.6930 C   0  0  0  0  0  0  0  0  0  0  0  0
  186.6960  176.9110  136.3390 F   0  0  0  0  0  0  0  0  0  0  0  0
  190.2740  176.7340  146.1720 F   0  0  0  0  0  0  0  0  0  0  0  0
  189.3650  176.5530  145.1400 C   0  0  0  0  0  2  0  0  0  0  0  0
  1 12  1  6  0  0  0
  1 11  1  0  0  0  0
  1  8  1  0  0  0  0
  2 10  2  0  0  0  0
  3  7  1  0  0  0  0
  4 45  1  6  0  0  0
  5  6  2  0  0  0  0
  5  9  2  0  0  0  0
  5  4  1  0  0  0  0
  8 15  1  1  0  0  0
  8  4  1  0  0  0  0
 10  3  1  0  0  0  0
 10 12  1  0  0  0  0
 11  7  1  1  0  0  0
 11  5  1  0  0  0  0
 13 18  1  0  0  0  0
 14 20  1  0  0  0  0
 14 15  1  0  0  0  0
 15 17  2  0  0  0  0
 16 21  1  6  0  0  0
 16 13  1  0  0  0  0
 17 18  2  0  0  0  0
 19 16  1  0  0  0  0
 20 19  1  0  0  0  0
 23 25  1  1  0  0  0
 23 24  1  0  0  0  0
 23 22  1  0  0  0  0
 24 22  1  0  0  0  0
 24 21  1  0  0  0  0
 26 25  1  0  0  0  0
 27 30  1  6  0  0  0
 27 32  1  0  0  0  0
 27 29  1  0  0  0  0
 28 29  1  0  0  0  0
 29 26  1  0  0  0  0
 31 28  1  0  0  0  0
 31 27  1  0  0  0  0
 33 32  1  0  0  0  0
 34 33  1  0  0  0  0
 35 36  2  0  0  0  0
 35  2  1  0  0  0  0
 37 35  1  0  0  0  0
 38 37  1  0  0  0  0
 39 42  1  0  0  0  0
 39 38  1  0  0  0  0
 41 42  1  0  0  0  0
 42 43  1  0  0  0  0
 42 40  1  0  0  0  0
 45 44  1  0  0  0  0
M  END
>  <MODEL>
9

>  <REMARK>
 VINA RESULT:      -6.6      3.466      8.805
  Name = 
  14 active torsions:
  status: ('A' for Active; 'I' for Inactive)
    1  A    between atoms: C_3  and  C_36
    2  A    between atoms: N_4  and  C_12
    3  A    between atoms: C_10  and  C_34
    4  A    between atoms: C_12  and  C_38
    5  A    between atoms: N_13  and  C_22
    6  A    between atoms: N_13  and  C_38
    7  A    between atoms: C_14  and  C_19
    8  A    between atoms: C_14  and  N_42
    9  A    between atoms: N_15  and  C_20
   10  A    between atoms: C_17  and  C_22
   11  A    between atoms: C_18  and  C_30
   12  A    between atoms: C_20  and  C_23
   13  A    between atoms: C_23  and  C_39
   14  A    between atoms: N_25  and  C_36
                            x       y       z     vdW  Elec       q    Type
                         _______ _______ _______ _____ _____    ______ ____

>  <TORSDO>
F 14

$$$$
