=
 OpenBabel10232409443D

 25 26  0  0  1  0  0  0  0  0999 V2000
  187.7800  177.6450  144.2580 C   0  0  0  0  0  0  0  0  0  0  0  0
  187.1700  177.5140  143.0670 C   0  0  0  0  0  3  0  0  0  0  0  0
  189.2440  177.7670  144.4110 C   0  0  0  0  0  0  0  0  0  0  0  0
  189.9830  176.7680  145.0600 C   0  0  0  0  0  3  0  0  0  0  0  0
  192.0300  176.0340  145.8030 O   0  0  0  0  0  0  0  0  0  0  0  0
  191.2730  179.0570  144.1770 C   0  0  0  0  0  3  0  0  0  0  0  0
  189.8960  178.9290  143.9840 C   0  0  0  0  0  2  0  0  0  0  0  0
  191.9700  178.0620  144.7910 N   0  0  0  0  0  0  0  0  0  0  0  0
  191.3580  176.9330  145.2330 C   0  0  0  0  0  0  0  0  0  0  0  0
  189.1670  177.3570  140.1120 C   0  0  0  0  0  3  0  0  0  0  0  0
  187.7980  177.6220  141.7390 C   0  0  0  0  0  0  0  0  0  0  0  0
  188.2220  178.2660  139.6520 C   0  0  0  0  0  3  0  0  0  0  0  0
  188.8840  177.0020  141.3490 O   0  0  0  0  0  0  0  0  0  0  0  0
  186.2160  179.2660  140.7370 N   0  0  0  0  0  1  0  0  0  0  0  0
  187.3610  178.4200  140.7140 C   0  0  0  0  0  0  0  0  0  0  0  0
  186.9540  177.5850  145.5160 C   0  0  1  0  0  3  0  0  0  0  0  0
  188.1050  177.5590  147.7770 C   0  0  0  0  0  0  0  0  0  0  0  0
  187.6150  178.2590  146.6310 N   0  0  0  0  0  2  0  0  0  0  0  0
  187.9470  176.3140  147.8850 O   0  0  0  0  0  0  0  0  0  0  0  0
  188.7770  178.3140  148.8690 C   0  0  0  0  0  2  0  0  0  0  0  0
  190.2750  178.3280  148.6400 C   0  0  0  0  0  1  0  0  0  0  0  0
  184.8070  178.2410  146.6110 C   0  0  0  0  0  1  0  0  0  0  0  0
  185.5460  178.1360  145.2880 C   0  0  1  0  0  3  0  0  0  0  0  0
  185.5890  179.3900  144.6690 O   0  0  0  0  0  0  0  0  0  0  0  0
  184.2970  179.5970  144.1850 C   0  0  0  0  0  1  0  0  0  0  0  0
  1  3  1  0  0  0  0
  2  1  2  0  0  0  0
  3  4  2  0  0  0  0
  4  9  1  0  0  0  0
  6  8  2  0  0  0  0
  7  6  1  0  0  0  0
  7  3  1  0  0  0  0
  8  9  1  0  0  0  0
  9  5  2  0  0  0  0
 10 13  1  0  0  0  0
 11  2  1  0  0  0  0
 12 10  2  0  0  0  0
 12 15  1  0  0  0  0
 13 11  1  0  0  0  0
 15 14  1  0  0  0  0
 15 11  2  0  0  0  0
 16  1  1  6  0  0  0
 16 18  1  0  0  0  0
 17 19  2  0  0  0  0
 17 20  1  0  0  0  0
 18 17  1  0  0  0  0
 21 20  1  0  0  0  0
 23 16  1  0  0  0  0
 23 22  1  1  0  0  0
 24 23  1  0  0  0  0
 25 24  1  0  0  0  0
M  END
>  <MODEL>
1

>  <REMARK>
 VINA RESULT:      -6.7      0.000      0.000
  Name = 
  7 active torsions:
  status: ('A' for Active; 'I' for Inactive)
    1  A    between atoms: C_1  and  C_2
    2  A    between atoms: C_2  and  C_6
    3  A    between atoms: C_3  and  C_4
    4  A    between atoms: N_5  and  C_6
    5  A    between atoms: C_6  and  C_19
    6  A    between atoms: O_7  and  C_19
    7  A    between atoms: C_9  and  C_20
                            x       y       z     vdW  Elec       q    Type
                         _______ _______ _______ _____ _____    ______ ____

>  <TORSDO>
F 7

$$$$
=
 OpenBabel10232409443D

 25 26  0  0  1  0  0  0  0  0999 V2000
  188.1750  177.7100  143.2210 C   0  0  0  0  0  0  0  0  0  0  0  0
  187.9240  177.4000  141.9380 C   0  0  0  0  0  3  0  0  0  0  0  0
  189.5380  177.8350  143.7760 C   0  0  0  0  0  0  0  0  0  0  0  0
  190.0840  176.8180  144.5720 C   0  0  0  0  0  3  0  0  0  0  0  0
  191.8580  176.0710  145.8280 O   0  0  0  0  0  0  0  0  0  0  0  0
  191.5350  179.1420  144.1500 C   0  0  0  0  0  3  0  0  0  0  0  0
  190.2660  179.0140  143.5800 C   0  0  0  0  0  2  0  0  0  0  0  0
  192.0500  178.1310  144.9010 N   0  0  0  0  0  0  0  0  0  0  0  0
  191.3550  176.9840  145.1230 C   0  0  0  0  0  0  0  0  0  0  0  0
  190.7020  176.8100  139.7750 C   0  0  0  0  0  3  0  0  0  0  0  0
  188.9110  177.2860  140.8500 C   0  0  0  0  0  0  0  0  0  0  0  0
  189.9150  177.5220  138.8780 C   0  0  0  0  0  3  0  0  0  0  0  0
  190.0770  176.6940  140.9290 O   0  0  0  0  0  0  0  0  0  0  0  0
  187.6570  178.5480  139.1060 N   0  0  0  0  0  1  0  0  0  0  0  0
  188.7760  177.8160  139.5930 C   0  0  0  0  0  0  0  0  0  0  0  0
  187.0210  177.8630  144.1780 C   0  0  1  0  0  3  0  0  0  0  0  0
  186.9230  177.8240  146.7130 C   0  0  0  0  0  0  0  0  0  0  0  0
  187.4630  178.3300  145.4900 N   0  0  0  0  0  2  0  0  0  0  0  0
  185.9990  176.9670  146.7010 O   0  0  0  0  0  0  0  0  0  0  0  0
  187.4310  178.3420  148.0120 C   0  0  0  0  0  2  0  0  0  0  0  0
  188.8820  177.9430  148.1940 C   0  0  0  0  0  1  0  0  0  0  0  0
  184.8930  177.9360  142.8710 C   0  0  0  0  0  1  0  0  0  0  0  0
  185.9320  178.7690  143.6020 C   0  0  1  0  0  3  0  0  0  0  0  0
  185.3150  179.5190  144.6090 O   0  0  0  0  0  0  0  0  0  0  0  0
  183.9890  179.0880  144.6180 C   0  0  0  0  0  1  0  0  0  0  0  0
  1  3  1  0  0  0  0
  2  1  2  0  0  0  0
  3  4  2  0  0  0  0
  4  9  1  0  0  0  0
  6  8  2  0  0  0  0
  7  3  1  0  0  0  0
  7  6  1  0  0  0  0
  8  9  1  0  0  0  0
  9  5  2  0  0  0  0
 10 13  1  0  0  0  0
 11 13  1  0  0  0  0
 11  2  1  0  0  0  0
 12 15  1  0  0  0  0
 12 10  2  0  0  0  0
 14 15  1  0  0  0  0
 15 11  2  0  0  0  0
 16  1  1  6  0  0  0
 16 18  1  0  0  0  0
 17 20  1  0  0  0  0
 18 17  1  0  0  0  0
 19 17  2  0  0  0  0
 20 21  1  0  0  0  0
 23 22  1  1  0  0  0
 23 16  1  0  0  0  0
 23 24  1  0  0  0  0
 24 25  1  0  0  0  0
M  END
>  <MODEL>
2

>  <REMARK>
 VINA RESULT:      -6.7      1.183      1.525
  Name = 
  7 active torsions:
  status: ('A' for Active; 'I' for Inactive)
    1  A    between atoms: C_1  and  C_2
    2  A    between atoms: C_2  and  C_6
    3  A    between atoms: C_3  and  C_4
    4  A    between atoms: N_5  and  C_6
    5  A    between atoms: C_6  and  C_19
    6  A    between atoms: O_7  and  C_19
    7  A    between atoms: C_9  and  C_20
                            x       y       z     vdW  Elec       q    Type
                         _______ _______ _______ _____ _____    ______ ____

>  <TORSDO>
F 7

$$$$
=
 OpenBabel10232409443D

 25 26  0  0  1  0  0  0  0  0999 V2000
  187.7760  177.7610  141.8730 C   0  0  0  0  0  0  0  0  0  0  0  0
  186.6500  178.0890  142.5300 C   0  0  0  0  0  3  0  0  0  0  0  0
  189.0540  177.4610  142.5510 C   0  0  0  0  0  0  0  0  0  0  0  0
  189.8710  178.4930  143.0310 C   0  0  0  0  0  3  0  0  0  0  0  0
  191.8290  179.1030  144.0680 O   0  0  0  0  0  0  0  0  0  0  0  0
  190.7330  175.8680  143.2410 C   0  0  0  0  0  3  0  0  0  0  0  0
  189.5010  176.1380  142.6430 C   0  0  0  0  0  2  0  0  0  0  0  0
  191.4970  176.8870  143.7180 N   0  0  0  0  0  0  0  0  0  0  0  0
  191.0960  178.1820  143.6230 C   0  0  0  0  0  0  0  0  0  0  0  0
  186.6170  177.5200  146.0540 C   0  0  0  0  0  3  0  0  0  0  0  0
  186.4390  178.0570  143.9870 C   0  0  0  0  0  0  0  0  0  0  0  0
  185.5970  178.4620  146.0070 C   0  0  0  0  0  3  0  0  0  0  0  0
  187.0870  177.3050  144.8420 O   0  0  0  0  0  0  0  0  0  0  0  0
  184.5840  179.7170  144.1090 N   0  0  0  0  0  1  0  0  0  0  0  0
  185.5020  178.7860  144.6730 C   0  0  0  0  0  0  0  0  0  0  0  0
  187.7770  177.7750  140.3670 C   0  0  1  0  0  3  0  0  0  0  0  0
  185.9200  178.1000  138.6690 C   0  0  0  0  0  0  0  0  0  0  0  0
  186.6390  178.5190  139.8310 N   0  0  0  0  0  2  0  0  0  0  0  0
  186.2730  177.0730  138.0300 O   0  0  0  0  0  0  0  0  0  0  0  0
  184.7650  178.9050  138.1890 C   0  0  0  0  0  2  0  0  0  0  0  0
  184.0070  179.4760  139.3710 C   0  0  0  0  0  1  0  0  0  0  0  0
  189.8890  177.1760  139.1750 C   0  0  0  0  0  1  0  0  0  0  0  0
  189.1000  178.3060  139.8130 C   0  0  1  0  0  3  0  0  0  0  0  0
  188.8830  179.3210  138.8750 O   0  0  0  0  0  0  0  0  0  0  0  0
  189.3580  178.8050  137.6690 C   0  0  0  0  0  1  0  0  0  0  0  0
  1  2  2  0  0  0  0
  1  3  1  0  0  0  0
  2 11  1  0  0  0  0
  3  7  1  0  0  0  0
  3  4  2  0  0  0  0
  4  9  1  0  0  0  0
  6  8  2  0  0  0  0
  7  6  1  0  0  0  0
  9  8  1  0  0  0  0
  9  5  2  0  0  0  0
 11 15  2  0  0  0  0
 11 13  1  0  0  0  0
 12 10  2  0  0  0  0
 13 10  1  0  0  0  0
 14 15  1  0  0  0  0
 15 12  1  0  0  0  0
 16 18  1  1  0  0  0
 16  1  1  0  0  0  0
 17 18  1  0  0  0  0
 19 17  2  0  0  0  0
 20 17  1  0  0  0  0
 20 21  1  0  0  0  0
 23 22  1  6  0  0  0
 23 16  1  0  0  0  0
 24 23  1  0  0  0  0
 25 24  1  0  0  0  0
M  END
>  <MODEL>
3

>  <REMARK>
 VINA RESULT:      -6.6      2.269      6.200
  Name = 
  7 active torsions:
  status: ('A' for Active; 'I' for Inactive)
    1  A    between atoms: C_1  and  C_2
    2  A    between atoms: C_2  and  C_6
    3  A    between atoms: C_3  and  C_4
    4  A    between atoms: N_5  and  C_6
    5  A    between atoms: C_6  and  C_19
    6  A    between atoms: O_7  and  C_19
    7  A    between atoms: C_9  and  C_20
                            x       y       z     vdW  Elec       q    Type
                         _______ _______ _______ _____ _____    ______ ____

>  <TORSDO>
F 7

$$$$
=
 OpenBabel10232409443D

 25 26  0  0  1  0  0  0  0  0999 V2000
  187.0650  177.7700  143.7510 C   0  0  0  0  0  0  0  0  0  0  0  0
  186.5550  178.0300  144.9670 C   0  0  0  0  0  3  0  0  0  0  0  0
  188.4720  177.3810  143.5270 C   0  0  0  0  0  0  0  0  0  0  0  0
  189.5020  178.3270  143.6210 C   0  0  0  0  0  3  0  0  0  0  0  0
  191.7490  178.7820  143.4520 O   0  0  0  0  0  0  0  0  0  0  0  0
  190.1080  175.7280  142.8730 C   0  0  0  0  0  3  0  0  0  0  0  0
  188.7800  176.0740  143.1310 C   0  0  0  0  0  2  0  0  0  0  0  0
  191.0920  176.6610  142.9930 N   0  0  0  0  0  0  0  0  0  0  0  0
  190.8170  177.9420  143.3560 C   0  0  0  0  0  0  0  0  0  0  0  0
  188.5280  177.0610  147.7790 C   0  0  0  0  0  3  0  0  0  0  0  0
  187.2240  177.8310  146.2640 C   0  0  0  0  0  0  0  0  0  0  0  0
  187.7330  178.0000  148.4240 C   0  0  0  0  0  3  0  0  0  0  0  0
  188.1960  176.9880  146.5060 O   0  0  0  0  0  0  0  0  0  0  0  0
  185.8930  179.4620  147.5980 N   0  0  0  0  0  1  0  0  0  0  0  0
  186.9050  178.4750  147.4320 C   0  0  0  0  0  0  0  0  0  0  0  0
  186.1960  177.9590  142.5350 C   0  0  1  0  0  3  0  0  0  0  0  0
  183.6900  178.1850  142.2080 C   0  0  0  0  0  0  0  0  0  0  0  0
  184.9000  178.5410  142.8800 N   0  0  0  0  0  2  0  0  0  0  0  0
  183.7040  177.3690  141.2480 O   0  0  0  0  0  0  0  0  0  0  0  0
  182.4070  178.8130  142.6220 C   0  0  0  0  0  2  0  0  0  0  0  0
  182.3380  178.8950  144.1340 C   0  0  0  0  0  1  0  0  0  0  0  0
  187.7320  177.8740  140.5670 C   0  0  0  0  0  1  0  0  0  0  0  0
  186.9080  178.7840  141.4610 C   0  0  1  0  0  3  0  0  0  0  0  0
  185.9910  179.5040  140.6880 O   0  0  0  0  0  0  0  0  0  0  0  0
  185.9320  178.8230  139.4720 C   0  0  0  0  0  1  0  0  0  0  0  0
  1  2  2  0  0  0  0
  2 11  1  0  0  0  0
  3  4  2  0  0  0  0
  3  1  1  0  0  0  0
  6  8  2  0  0  0  0
  6  7  1  0  0  0  0
  7  3  1  0  0  0  0
  8  9  1  0  0  0  0
  9  5  2  0  0  0  0
  9  4  1  0  0  0  0
 10 12  2  0  0  0  0
 11 13  1  0  0  0  0
 11 15  2  0  0  0  0
 13 10  1  0  0  0  0
 15 14  1  0  0  0  0
 15 12  1  0  0  0  0
 16 18  1  1  0  0  0
 16  1  1  0  0  0  0
 17 20  1  0  0  0  0
 17 18  1  0  0  0  0
 19 17  2  0  0  0  0
 20 21  1  0  0  0  0
 23 22  1  6  0  0  0
 23 16  1  0  0  0  0
 24 23  1  0  0  0  0
 25 24  1  0  0  0  0
M  END
>  <MODEL>
4

>  <REMARK>
 VINA RESULT:      -6.6      2.115      5.473
  Name = 
  7 active torsions:
  status: ('A' for Active; 'I' for Inactive)
    1  A    between atoms: C_1  and  C_2
    2  A    between atoms: C_2  and  C_6
    3  A    between atoms: C_3  and  C_4
    4  A    between atoms: N_5  and  C_6
    5  A    between atoms: C_6  and  C_19
    6  A    between atoms: O_7  and  C_19
    7  A    between atoms: C_9  and  C_20
                            x       y       z     vdW  Elec       q    Type
                         _______ _______ _______ _____ _____    ______ ____

>  <TORSDO>
F 7

$$$$
=
 OpenBabel10232409443D

 25 26  0  0  1  0  0  0  0  0999 V2000
  188.0980  178.1370  141.1060 C   0  0  0  0  0  0  0  0  0  0  0  0
  186.8590  178.4220  141.5410 C   0  0  0  0  0  3  0  0  0  0  0  0
  188.4320  177.9310  139.6820 C   0  0  0  0  0  0  0  0  0  0  0  0
  188.2360  176.6840  139.0720 C   0  0  0  0  0  3  0  0  0  0  0  0
  188.4220  175.3930  137.1790 O   0  0  0  0  0  0  0  0  0  0  0  0
  189.3880  178.7440  137.6180 C   0  0  0  0  0  3  0  0  0  0  0  0
  189.0300  178.9620  138.9500 C   0  0  0  0  0  2  0  0  0  0  0  0
  189.1670  177.5300  137.0430 N   0  0  0  0  0  0  0  0  0  0  0  0
  188.6060  176.5050  137.7380 C   0  0  0  0  0  0  0  0  0  0  0  0
  184.4700  179.2910  139.0340 C   0  0  0  0  0  3  0  0  0  0  0  0
  185.6820  178.7290  140.7100 C   0  0  0  0  0  0  0  0  0  0  0  0
  183.5800  179.1070  140.0850 C   0  0  0  0  0  3  0  0  0  0  0  0
  185.7010  179.0620  139.4430 O   0  0  0  0  0  0  0  0  0  0  0  0
  183.9330  178.4610  142.4640 N   0  0  0  0  0  1  0  0  0  0  0  0
  184.3830  178.7510  141.1450 C   0  0  0  0  0  0  0  0  0  0  0  0
  189.1990  177.9300  142.1130 C   0  0  1  0  0  3  0  0  0  0  0  0
  189.2410  178.0960  144.6440 C   0  0  0  0  0  0  0  0  0  0  0  0
  188.6700  177.5950  143.4340 N   0  0  0  0  0  2  0  0  0  0  0  0
  190.2650  178.8290  144.6170 O   0  0  0  0  0  0  0  0  0  0  0  0
  188.6400  177.7190  145.9520 C   0  0  0  0  0  2  0  0  0  0  0  0
  187.1300  177.6680  145.8300 C   0  0  0  0  0  1  0  0  0  0  0  0
  191.6090  177.4630  141.6500 C   0  0  0  0  0  1  0  0  0  0  0  0
  190.2060  176.8820  141.6350 C   0  0  1  0  0  3  0  0  0  0  0  0
  190.1590  175.7360  142.4340 O   0  0  0  0  0  0  0  0  0  0  0  0
  191.3450  175.7600  143.1690 C   0  0  0  0  0  1  0  0  0  0  0  0
  1  2  2  0  0  0  0
  3  1  1  0  0  0  0
  4  3  2  0  0  0  0
  5  9  2  0  0  0  0
  6  7  1  0  0  0  0
  7  3  1  0  0  0  0
  8  6  2  0  0  0  0
  8  9  1  0  0  0  0
  9  4  1  0  0  0  0
 10 13  1  0  0  0  0
 10 12  2  0  0  0  0
 11 15  2  0  0  0  0
 11  2  1  0  0  0  0
 12 15  1  0  0  0  0
 13 11  1  0  0  0  0
 15 14  1  0  0  0  0
 16  1  1  6  0  0  0
 16 18  1  0  0  0  0
 17 20  1  0  0  0  0
 18 17  1  0  0  0  0
 19 17  2  0  0  0  0
 21 20  1  0  0  0  0
 23 22  1  1  0  0  0
 23 16  1  0  0  0  0
 23 24  1  0  0  0  0
 24 25  1  0  0  0  0
M  END
>  <MODEL>
5

>  <REMARK>
 VINA RESULT:      -6.2      2.692      5.523
  Name = 
  7 active torsions:
  status: ('A' for Active; 'I' for Inactive)
    1  A    between atoms: C_1  and  C_2
    2  A    between atoms: C_2  and  C_6
    3  A    between atoms: C_3  and  C_4
    4  A    between atoms: N_5  and  C_6
    5  A    between atoms: C_6  and  C_19
    6  A    between atoms: O_7  and  C_19
    7  A    between atoms: C_9  and  C_20
                            x       y       z     vdW  Elec       q    Type
                         _______ _______ _______ _____ _____    ______ ____

>  <TORSDO>
F 7

$$$$
=
 OpenBabel10232409443D

 25 26  0  0  1  0  0  0  0  0999 V2000
  189.1380  177.8130  140.3930 C   0  0  0  0  0  0  0  0  0  0  0  0
  188.3110  177.9700  141.4410 C   0  0  0  0  0  3  0  0  0  0  0  0
  188.6890  177.8820  138.9870 C   0  0  0  0  0  0  0  0  0  0  0  0
  187.9870  176.8180  138.4040 C   0  0  0  0  0  3  0  0  0  0  0  0
  186.9770  175.9460  136.5330 O   0  0  0  0  0  0  0  0  0  0  0  0
  188.6540  179.0170  136.8550 C   0  0  0  0  0  3  0  0  0  0  0  0
  189.0400  178.9820  138.1970 C   0  0  0  0  0  2  0  0  0  0  0  0
  187.9550  177.9810  136.3200 N   0  0  0  0  0  0  0  0  0  0  0  0
  187.6190  176.8910  137.0600 C   0  0  0  0  0  0  0  0  0  0  0  0
  185.0360  179.1740  140.6900 C   0  0  0  0  0  3  0  0  0  0  0  0
  186.8970  178.3820  141.3940 C   0  0  0  0  0  0  0  0  0  0  0  0
  184.8050  178.8160  142.0130 C   0  0  0  0  0  3  0  0  0  0  0  0
  186.2830  178.9050  140.3630 O   0  0  0  0  0  0  0  0  0  0  0  0
  186.2910  177.8180  143.7440 N   0  0  0  0  0  1  0  0  0  0  0  0
  186.0130  178.3150  142.4390 C   0  0  0  0  0  0  0  0  0  0  0  0
  190.5820  177.4650  140.6430 C   0  0  1  0  0  3  0  0  0  0  0  0
  191.3990  176.8730  142.9710 C   0  0  0  0  0  0  0  0  0  0  0  0
  190.7290  176.5290  141.7560 N   0  0  0  0  0  2  0  0  0  0  0  0
  191.9320  178.0060  143.1130 O   0  0  0  0  0  0  0  0  0  0  0  0
  191.5000  175.8690  144.0650 C   0  0  0  0  0  2  0  0  0  0  0  0
  191.5800  176.5730  145.4050 C   0  0  0  0  0  1  0  0  0  0  0  0
  192.7600  177.1400  139.4640 C   0  0  0  0  0  1  0  0  0  0  0  0
  191.2580  176.9340  139.3780 C   0  0  1  0  0  3  0  0  0  0  0  0
  190.9750  175.5770  139.1860 O   0  0  0  0  0  0  0  0  0  0  0  0
  191.3820  175.3060  137.8790 C   0  0  0  0  0  1  0  0  0  0  0  0
  1  2  2  0  0  0  0
  3  1  1  0  0  0  0
  4  3  2  0  0  0  0
  5  9  2  0  0  0  0
  6  7  1  0  0  0  0
  7  3  1  0  0  0  0
  8  6  2  0  0  0  0
  8  9  1  0  0  0  0
  9  4  1  0  0  0  0
 10 12  2  0  0  0  0
 11  2  1  0  0  0  0
 11 15  2  0  0  0  0
 12 15  1  0  0  0  0
 13 10  1  0  0  0  0
 13 11  1  0  0  0  0
 15 14  1  0  0  0  0
 16  1  1  6  0  0  0
 16 18  1  0  0  0  0
 17 19  2  0  0  0  0
 17 20  1  0  0  0  0
 18 17  1  0  0  0  0
 20 21  1  0  0  0  0
 23 22  1  1  0  0  0
 23 16  1  0  0  0  0
 24 23  1  0  0  0  0
 25 24  1  0  0  0  0
M  END
>  <MODEL>
6

>  <REMARK>
 VINA RESULT:      -6.2      3.186      6.659
  Name = 
  7 active torsions:
  status: ('A' for Active; 'I' for Inactive)
    1  A    between atoms: C_1  and  C_2
    2  A    between atoms: C_2  and  C_6
    3  A    between atoms: C_3  and  C_4
    4  A    between atoms: N_5  and  C_6
    5  A    between atoms: C_6  and  C_19
    6  A    between atoms: O_7  and  C_19
    7  A    between atoms: C_9  and  C_20
                            x       y       z     vdW  Elec       q    Type
                         _______ _______ _______ _____ _____    ______ ____

>  <TORSDO>
F 7

$$$$
=
 OpenBabel10232409443D

 25 26  0  0  1  0  0  0  0  0999 V2000
  187.7680  178.0040  143.7480 C   0  0  0  0  0  0  0  0  0  0  0  0
  187.0640  178.0390  144.8930 C   0  0  0  0  0  3  0  0  0  0  0  0
  189.2330  177.8210  143.7000 C   0  0  0  0  0  0  0  0  0  0  0  0
  189.7960  176.5380  143.7170 C   0  0  0  0  0  3  0  0  0  0  0  0
  191.6990  175.2480  143.7210 O   0  0  0  0  0  0  0  0  0  0  0  0
  191.4610  178.7540  143.7290 C   0  0  0  0  0  3  0  0  0  0  0  0
  190.0760  178.9370  143.7250 C   0  0  0  0  0  2  0  0  0  0  0  0
  191.9820  177.4980  143.7230 N   0  0  0  0  0  0  0  0  0  0  0  0
  191.1850  176.3960  143.7200 C   0  0  0  0  0  0  0  0  0  0  0  0
  188.7110  176.9110  147.8520 C   0  0  0  0  0  3  0  0  0  0  0  0
  187.5700  177.7540  146.2470 C   0  0  0  0  0  0  0  0  0  0  0  0
  187.7830  177.7470  148.4620 C   0  0  0  0  0  3  0  0  0  0  0  0
  188.5520  176.9400  146.5450 O   0  0  0  0  0  0  0  0  0  0  0  0
  185.9810  179.1870  147.5230 N   0  0  0  0  0  1  0  0  0  0  0  0
  187.0640  178.2700  147.4110 C   0  0  0  0  0  0  0  0  0  0  0  0
  187.0560  178.2450  142.4420 C   0  0  1  0  0  3  0  0  0  0  0  0
  188.3930  177.9730  140.3030 C   0  0  0  0  0  0  0  0  0  0  0  0
  187.6080  177.4260  141.3650 N   0  0  0  0  0  2  0  0  0  0  0  0
  188.6090  179.2120  140.2360 O   0  0  0  0  0  0  0  0  0  0  0  0
  188.9300  177.0730  139.2470 C   0  0  0  0  0  2  0  0  0  0  0  0
  190.3230  176.6080  139.6250 C   0  0  0  0  0  1  0  0  0  0  0  0
  184.8930  179.3080  143.0960 C   0  0  0  0  0  1  0  0  0  0  0  0
  185.5470  178.0380  142.5810 C   0  0  1  0  0  3  0  0  0  0  0  0
  184.9740  177.6720  141.3580 O   0  0  0  0  0  0  0  0  0  0  0  0
  184.2490  178.7920  140.9510 C   0  0  0  0  0  1  0  0  0  0  0  0
  1  2  2  0  0  0  0
  2 11  1  0  0  0  0
  3  4  2  0  0  0  0
  3  7  1  0  0  0  0
  3  1  1  0  0  0  0
  4  9  1  0  0  0  0
  7  6  1  0  0  0  0
  8  6  2  0  0  0  0
  9  5  2  0  0  0  0
  9  8  1  0  0  0  0
 10 12  2  0  0  0  0
 11 13  1  0  0  0  0
 11 15  2  0  0  0  0
 13 10  1  0  0  0  0
 15 14  1  0  0  0  0
 15 12  1  0  0  0  0
 16 18  1  6  0  0  0
 16 23  1  0  0  0  0
 16  1  1  0  0  0  0
 17 18  1  0  0  0  0
 19 17  2  0  0  0  0
 20 21  1  0  0  0  0
 20 17  1  0  0  0  0
 23 22  1  6  0  0  0
 24 23  1  0  0  0  0
 25 24  1  0  0  0  0
M  END
>  <MODEL>
7

>  <REMARK>
 VINA RESULT:      -6.2      1.664      5.213
  Name = 
  7 active torsions:
  status: ('A' for Active; 'I' for Inactive)
    1  A    between atoms: C_1  and  C_2
    2  A    between atoms: C_2  and  C_6
    3  A    between atoms: C_3  and  C_4
    4  A    between atoms: N_5  and  C_6
    5  A    between atoms: C_6  and  C_19
    6  A    between atoms: O_7  and  C_19
    7  A    between atoms: C_9  and  C_20
                            x       y       z     vdW  Elec       q    Type
                         _______ _______ _______ _____ _____    ______ ____

>  <TORSDO>
F 7

$$$$
=
 OpenBabel10232409443D

 25 26  0  0  1  0  0  0  0  0999 V2000
  189.7300  177.1680  140.7070 C   0  0  0  0  0  0  0  0  0  0  0  0
  190.9360  177.2120  141.2990 C   0  0  0  0  0  3  0  0  0  0  0  0
  188.4690  177.4830  141.4070 C   0  0  0  0  0  0  0  0  0  0  0  0
  187.5960  178.4610  140.9090 C   0  0  0  0  0  3  0  0  0  0  0  0
  185.6400  179.6390  141.1710 O   0  0  0  0  0  0  0  0  0  0  0  0
  187.0040  177.2040  143.3080 C   0  0  0  0  0  3  0  0  0  0  0  0
  188.1750  176.8650  142.6280 C   0  0  0  0  0  2  0  0  0  0  0  0
  186.1630  178.1410  142.7910 N   0  0  0  0  0  0  0  0  0  0  0  0
  186.4350  178.7720  141.6180 C   0  0  0  0  0  0  0  0  0  0  0  0
  191.5960  179.0490  144.2880 C   0  0  0  0  0  3  0  0  0  0  0  0
  191.2350  177.7140  142.6520 C   0  0  0  0  0  0  0  0  0  0  0  0
  191.7970  177.7750  144.8040 C   0  0  0  0  0  3  0  0  0  0  0  0
  191.2690  178.9720  143.0140 O   0  0  0  0  0  0  0  0  0  0  0  0
  191.6490  175.5200  143.7570 N   0  0  0  0  0  1  0  0  0  0  0  0
  191.5630  176.9410  143.7350 C   0  0  0  0  0  0  0  0  0  0  0  0
  189.6320  176.6960  139.2790 C   0  0  1  0  0  3  0  0  0  0  0  0
  188.0600  177.5820  137.4950 C   0  0  0  0  0  0  0  0  0  0  0  0
  189.1610  177.7560  138.3890 N   0  0  0  0  0  2  0  0  0  0  0  0
  187.4670  176.4730  137.4140 O   0  0  0  0  0  0  0  0  0  0  0  0
  187.6320  178.7110  136.6270 C   0  0  0  0  0  2  0  0  0  0  0  0
  187.0610  178.1750  135.3290 C   0  0  0  0  0  1  0  0  0  0  0  0
  190.6940  174.9280  137.8700 C   0  0  0  0  0  1  0  0  0  0  0  0
  190.9560  176.1070  138.7920 C   0  0  1  0  0  3  0  0  0  0  0  0
  191.7210  177.0690  138.1240 O   0  0  0  0  0  0  0  0  0  0  0  0
  192.9620  176.4650  137.9210 C   0  0  0  0  0  1  0  0  0  0  0  0
  1  2  2  0  0  0  0
  1  3  1  0  0  0  0
  2 11  1  0  0  0  0
  3  7  1  0  0  0  0
  4  3  2  0  0  0  0
  4  9  1  0  0  0  0
  5  9  2  0  0  0  0
  7  6  1  0  0  0  0
  8  6  2  0  0  0  0
  9  8  1  0  0  0  0
 10 12  2  0  0  0  0
 11 13  1  0  0  0  0
 11 15  2  0  0  0  0
 13 10  1  0  0  0  0
 15 14  1  0  0  0  0
 15 12  1  0  0  0  0
 16 18  1  6  0  0  0
 16  1  1  0  0  0  0
 17 18  1  0  0  0  0
 19 17  2  0  0  0  0
 20 17  1  0  0  0  0
 21 20  1  0  0  0  0
 23 22  1  6  0  0  0
 23 16  1  0  0  0  0
 24 23  1  0  0  0  0
 25 24  1  0  0  0  0
M  END
>  <MODEL>
8

>  <REMARK>
 VINA RESULT:      -6.2      3.082      7.763
  Name = 
  7 active torsions:
  status: ('A' for Active; 'I' for Inactive)
    1  A    between atoms: C_1  and  C_2
    2  A    between atoms: C_2  and  C_6
    3  A    between atoms: C_3  and  C_4
    4  A    between atoms: N_5  and  C_6
    5  A    between atoms: C_6  and  C_19
    6  A    between atoms: O_7  and  C_19
    7  A    between atoms: C_9  and  C_20
                            x       y       z     vdW  Elec       q    Type
                         _______ _______ _______ _____ _____    ______ ____

>  <TORSDO>
F 7

$$$$
=
 OpenBabel10232409443D

 25 26  0  0  1  0  0  0  0  0999 V2000
  188.0920  177.9690  142.7400 C   0  0  0  0  0  0  0  0  0  0  0  0
  187.7300  177.8740  141.4490 C   0  0  0  0  0  3  0  0  0  0  0  0
  189.4780  177.7710  143.2110 C   0  0  0  0  0  0  0  0  0  0  0  0
  189.9970  176.4810  143.3900 C   0  0  0  0  0  2  0  0  0  0  0  0
  191.7720  175.1700  144.0350 O   0  0  0  0  0  0  0  0  0  0  0  0
  191.5510  178.6780  144.0570 C   0  0  0  0  0  3  0  0  0  0  0  0
  190.2590  178.8760  143.5660 C   0  0  0  0  0  3  0  0  0  0  0  0
  192.0380  177.4160  144.2020 N   0  0  0  0  0  0  0  0  0  0  0  0
  191.2940  176.3240  143.8830 C   0  0  0  0  0  0  0  0  0  0  0  0
  190.3710  177.3220  139.1120 C   0  0  0  0  0  3  0  0  0  0  0  0
  188.6270  177.7220  140.2900 C   0  0  0  0  0  0  0  0  0  0  0  0
  189.4160  177.7770  138.2100 C   0  0  0  0  0  3  0  0  0  0  0  0
  189.8690  177.3060  140.3290 O   0  0  0  0  0  0  0  0  0  0  0  0
  187.0610  178.5240  138.5260 N   0  0  0  0  0  1  0  0  0  0  0  0
  188.3120  178.0280  138.9920 C   0  0  0  0  0  0  0  0  0  0  0  0
  187.0320  178.2060  143.7840 C   0  0  1  0  0  3  0  0  0  0  0  0
  184.6830  179.0420  143.3140 C   0  0  0  0  0  0  0  0  0  0  0  0
  185.6870  178.0270  143.2410 N   0  0  0  0  0  2  0  0  0  0  0  0
  184.9150  180.1350  143.8960 O   0  0  0  0  0  0  0  0  0  0  0  0
  183.3390  178.7900  142.7290 C   0  0  0  0  0  2  0  0  0  0  0  0
  182.2840  178.8470  143.8160 C   0  0  0  0  0  1  0  0  0  0  0  0
  188.1400  178.0530  146.0170 C   0  0  0  0  0  1  0  0  0  0  0  0
  187.2550  177.3290  145.0170 C   0  0  1  0  0  3  0  0  0  0  0  0
  186.0400  176.9880  145.6190 O   0  0  0  0  0  0  0  0  0  0  0  0
  185.8730  177.9190  146.6450 C   0  0  0  0  0  1  0  0  0  0  0  0
  1  3  1  0  0  0  0
  2  1  2  0  0  0  0
  3  4  1  0  0  0  0
  3  7  2  0  0  0  0
  4  9  1  0  0  0  0
  6  8  2  0  0  0  0
  7  6  1  0  0  0  0
  9  5  2  0  0  0  0
  9  8  1  0  0  0  0
 10 13  1  0  0  0  0
 11 13  1  0  0  0  0
 11  2  1  0  0  0  0
 12 15  1  0  0  0  0
 12 10  2  0  0  0  0
 14 15  1  0  0  0  0
 15 11  2  0  0  0  0
 16  1  1  6  0  0  0
 16 23  1  0  0  0  0
 17 19  2  0  0  0  0
 18 17  1  0  0  0  0
 18 16  1  0  0  0  0
 20 17  1  0  0  0  0
 20 21  1  0  0  0  0
 23 24  1  0  0  0  0
 23 22  1  1  0  0  0
 24 25  1  0  0  0  0
M  END
>  <MODEL>
9

>  <REMARK>
 VINA RESULT:      -6.2      1.772      3.573
  Name = 
  7 active torsions:
  status: ('A' for Active; 'I' for Inactive)
    1  A    between atoms: C_1  and  C_2
    2  A    between atoms: C_2  and  C_6
    3  A    between atoms: C_3  and  C_4
    4  A    between atoms: N_5  and  C_6
    5  A    between atoms: C_6  and  C_19
    6  A    between atoms: O_7  and  C_19
    7  A    between atoms: C_9  and  C_20
                            x       y       z     vdW  Elec       q    Type
                         _______ _______ _______ _____ _____    ______ ____

>  <TORSDO>
F 7

$$$$
