=
 OpenBabel10232410063D

 68 76  0  0  1  0  0  0  0  0999 V2000
  181.6030  178.7030  141.7110 C   0  0  0  0  0  1  0  0  0  0  0  0
  183.7470  177.8460  138.7550 O   0  0  0  0  0  0  0  0  0  0  0  0
  184.0630  179.2570  141.1740 C   0  0  2  0  0  3  0  0  0  0  0  0
  182.7800  178.5460  140.8110 C   0  0  0  0  0  0  0  0  0  0  0  0
  185.0610  179.2300  140.1040 N   0  0  0  0  0  0  0  0  0  0  0  0
  182.6670  177.8870  139.6490 C   0  0  0  0  0  0  0  0  0  0  0  0
  184.9210  178.5710  138.9990 C   0  0  0  0  0  0  0  0  0  0  0  0
  185.9500  178.6230  138.0600 O   0  0  0  0  0  0  0  0  0  0  0  0
  187.1410  177.8570  138.1710 C   0  0  0  0  0  2  0  0  0  0  0  0
  188.1210  178.2740  137.0770 C   0  0  0  0  0  2  0  0  0  0  0  0
  187.6090  177.9530  135.6790 C   0  0  0  0  0  2  0  0  0  0  0  0
  187.9350  175.4620  135.3390 C   0  0  1  0  0  0  0  0  0  0  0  0
  187.1100  176.0260  134.3550 O   0  0  0  0  0  0  0  0  0  0  0  0
  186.9810  176.5610  135.6520 C   0  0  2  0  0  3  0  0  0  0  0  0
  187.4490  174.0450  135.6800 C   0  0  1  0  0  0  0  0  0  0  0  0
  187.9120  173.6120  136.9310 O   0  0  0  0  0  0  0  0  0  0  0  0
  186.5810  174.0600  136.8690 C   0  0  2  0  0  3  0  0  0  0  0  0
  186.0570  173.9440  135.5760 O   0  0  0  0  0  0  0  0  0  0  0  0
  189.4050  175.7440  135.0160 C   0  0  0  0  0  2  0  0  0  0  0  0
  190.0910  174.5460  134.8040 O   0  0  0  0  0  0  0  0  0  0  0  0
  192.6150  172.7070  135.9810 C   0  0  0  0  0  2  0  0  0  0  0  0
  193.7460  174.0440  137.5270 C   0  0  0  0  0  2  0  0  0  0  0  0
  191.3580  174.7520  135.3560 C   0  0  1  0  0  3  0  0  0  0  0  0
  191.4130  176.1190  136.0090 C   0  0  0  0  0  2  0  0  0  0  0  0
  192.2850  174.4500  137.5850 C   0  0  1  0  0  3  0  0  0  0  0  0
  193.9520  173.0970  136.4290 N   0  0  2  0  0  0  0  0  0  0  0  0
  192.1470  175.9400  137.3330 C   0  0  0  0  0  2  0  0  0  0  0  0
  191.6110  173.7330  136.4510 C   0  0  2  0  0  3  0  0  0  0  0  0
  196.5780  174.9390  136.3200 C   0  0  0  0  0  3  0  0  0  0  0  0
  195.6940  172.8600  134.6130 C   0  0  2  0  0  3  0  0  0  0  0  0
  195.2790  171.4880  134.3650 N   0  0  0  0  0  0  0  0  0  0  0  0
  195.3690  174.9740  135.8180 N   0  0  0  0  0  0  0  0  0  0  0  0
  197.1010  171.4160  135.7310 N   0  0  0  0  0  0  0  0  0  0  0  0
  196.8330  172.6590  135.5220 C   0  0  0  0  0  0  0  0  0  0  0  0
  196.1230  170.7130  134.9740 C   0  0  0  0  0  3  0  0  0  0  0  0
  194.6600  173.7740  135.3200 C   0  0  2  0  0  3  0  0  0  0  0  0
  197.3340  173.7210  136.3210 N   0  0  0  0  0  2  0  0  0  0  0  0
  184.6640  178.6810  142.4560 C   0  0  0  0  0  2  0  0  0  0  0  0
  183.7900  178.9790  143.6730 C   0  0  0  0  0  2  0  0  0  0  0  0
  184.5590  178.8400  144.9810 C   0  0  2  0  0  3  0  0  0  0  0  0
  185.3180  180.1130  145.3220 C   0  0  0  0  0  1  0  0  0  0  0  0
  185.4710  177.6110  144.9790 C   0  0  0  0  0  2  0  0  0  0  0  0
  186.7200  177.7900  145.7860 C   0  0  0  0  0  0  0  0  0  0  0  0
  186.6670  177.7460  147.0060 O   0  0  0  0  0  0  0  0  0  0  0  0
  188.9770  178.4430  146.0040 O   0  0  0  0  0  1  0  0  0  0  0  0
  188.0280  177.9850  145.0910 C   0  0  1  0  0  3  0  0  0  0  0  0
  188.5160  176.6970  144.4260 C   0  0  1  0  0  3  0  0  0  0  0  0
  187.8040  176.4290  143.2500 O   0  0  0  0  0  1  0  0  0  0  0  0
  190.0260  176.7540  144.1590 C   0  0  2  0  0  3  0  0  0  0  0  0
  190.5790  174.7800  142.8930 O   0  0  0  0  0  1  0  0  0  0  0  0
  190.4450  176.1660  142.8010 C   0  0  2  0  0  3  0  0  0  0  0  0
  191.7580  176.7630  142.3120 C   0  0  0  0  0  2  0  0  0  0  0  0
  190.4120  177.0360  140.2480 C   0  0  0  0  0  1  0  0  0  0  0  0
  192.7000  177.6830  140.3070 O   0  0  0  0  0  1  0  0  0  0  0  0
  191.5350  177.6260  141.0790 C   0  0  2  0  0  3  0  0  0  0  0  0
  190.7450  176.0450  145.2940 C   0  0  0  0  0  2  0  0  0  0  0  0
  191.6480  176.9930  146.0030 C   0  0  0  0  0  0  0  0  0  0  0  0
  192.1630  176.6630  147.2520 O   0  0  0  0  0  1  0  0  0  0  0  0
  191.9810  178.0790  145.4560 O   0  0  0  0  0  0  0  0  0  0  0  0
  181.4660  177.2490  139.3290 O   0  0  0  0  0  0  0  0  0  0  0  0
  181.4150  175.9910  138.6650 C   0  0  0  0  0  2  0  0  0  0  0  0
  180.7590  175.8280  136.2900 C   0  0  0  0  0  2  0  0  0  0  0  0
  181.9150  176.0970  137.2280 C   0  0  2  0  0  3  0  0  0  0  0  0
  182.1560  174.1150  135.9230 C   0  0  1  0  0  3  0  0  0  0  0  0
  180.8000  174.4770  135.9040 O   0  0  0  0  0  0  0  0  0  0  0  0
  182.8780  174.9830  136.9280 C   0  0  0  0  0  2  0  0  0  0  0  0
  182.3000  172.6620  136.3300 C   0  0  0  0  0  2  0  0  0  0  0  0
  183.4360  172.4920  137.1190 O   0  0  0  0  0  1  0  0  0  0  0  0
  2  7  1  0  0  0  0
  2  6  1  0  0  0  0
  3 38  1  1  0  0  0
  4  3  1  0  0  0  0
  4  1  1  0  0  0  0
  5  3  1  0  0  0  0
  6  4  2  0  0  0  0
  7  5  2  0  0  0  0
  8  9  1  0  0  0  0
  8  7  1  0  0  0  0
 10  9  1  0  0  0  0
 11 10  1  0  0  0  0
 12 19  1  6  0  0  0
 12 14  1  0  0  0  0
 12 15  1  0  0  0  0
 13 12  1  0  0  0  0
 13 14  1  0  0  0  0
 14 11  1  6  0  0  0
 15 18  1  6  0  0  0
 15 17  1  0  0  0  0
 15 16  1  0  0  0  0
 17 18  1  6  0  0  0
 17 16  1  0  0  0  0
 20 19  1  0  0  0  0
 22 25  1  0  0  0  0
 23 20  1  1  0  0  0
 23 24  1  0  0  0  0
 23 28  1  0  0  0  0
 24 27  1  0  0  0  0
 25 27  1  6  0  0  0
 26 21  1  6  0  0  0
 26 22  1  0  0  0  0
 28 21  1  6  0  0  0
 28 25  1  0  0  0  0
 29 37  1  0  0  0  0
 30 31  1  1  0  0  0
 30 36  1  0  0  0  0
 30 34  1  0  0  0  0
 31 35  2  0  0  0  0
 32 29  2  0  0  0  0
 34 33  2  0  0  0  0
 34 37  1  0  0  0  0
 35 33  1  0  0  0  0
 36 32  1  1  0  0  0
 36 26  1  0  0  0  0
 38 39  1  0  0  0  0
 39 40  1  0  0  0  0
 40 41  1  6  0  0  0
 42 40  1  0  0  0  0
 42 43  1  0  0  0  0
 43 44  2  0  0  0  0
 46 43  1  0  0  0  0
 46 45  1  1  0  0  0
 47 48  1  6  0  0  0
 47 46  1  0  0  0  0
 49 47  1  0  0  0  0
 49 56  1  1  0  0  0
 51 50  1  1  0  0  0
 51 49  1  0  0  0  0
 52 51  1  0  0  0  0
 54 55  1  0  0  0  0
 55 53  1  6  0  0  0
 55 52  1  0  0  0  0
 56 57  1  0  0  0  0
 57 58  1  0  0  0  0
 59 57  2  0  0  0  0
 60  6  1  0  0  0  0
 61 60  1  0  0  0  0
 62 63  1  0  0  0  0
 63 61  1  1  0  0  0
 64 67  1  1  0  0  0
 64 66  1  0  0  0  0
 65 64  1  0  0  0  0
 65 62  1  0  0  0  0
 66 63  1  0  0  0  0
 67 68  1  0  0  0  0
M  END
>  <MODEL>
1

>  <REMARK>
 VINA RESULT:      -6.1      0.000      0.000
  Name = 
  27 active torsions:
  status: ('A' for Active; 'I' for Inactive)
    1  A    between atoms: C_2  and  C_39
    2  A    between atoms: C_5  and  C_22
    3  A    between atoms: C_5  and  C_42
    4  A    between atoms: C_6  and  C_31
    5  A    between atoms: C_8  and  C_22
    6  A    between atoms: C_8  and  C_59
    7  A    between atoms: C_11  and  C_46
    8  A    between atoms: C_11  and  C_57
    9  A    between atoms: C_15  and  C_63
   10  A    between atoms: C_16  and  C_32
   11  A    between atoms: C_18  and  C_59
   12  A    between atoms: C_21  and  O_66
   13  A    between atoms: C_24  and  C_25
   14  A    between atoms: C_24  and  C_60
   15  A    between atoms: O_26  and  C_53
   16  A    between atoms: O_26  and  C_63
   17  A    between atoms: C_31  and  C_33
   18  A    between atoms: C_33  and  O_66
   19  A    between atoms: O_35  and  C_58
   20  A    between atoms: O_35  and  C_67
   21  A    between atoms: C_39  and  C_65
   22  A    between atoms: N_41  and  C_50
   23  A    between atoms: C_42  and  C_49
   24  A    between atoms: C_45  and  C_49
   25  A    between atoms: C_45  and  C_65
   26  A    between atoms: C_46  and  C_58
   27  A    between atoms: C_60  and  C_65
                            x       y       z     vdW  Elec       q    Type
                         _______ _______ _______ _____ _____    ______ ____

>  <TORSDO>
F 27

$$$$
=
 OpenBabel10232410063D

 68 76  0  0  1  0  0  0  0  0999 V2000
  186.4850  177.5100  146.0200 C   0  0  0  0  0  1  0  0  0  0  0  0
  188.9790  178.3120  143.3350 O   0  0  0  0  0  0  0  0  0  0  0  0
  186.2330  177.6890  143.4600 C   0  0  2  0  0  3  0  0  0  0  0  0
  187.0900  177.8320  144.6970 C   0  0  0  0  0  0  0  0  0  0  0  0
  186.9940  177.7940  142.2150 N   0  0  0  0  0  0  0  0  0  0  0  0
  188.3940  178.1260  144.5970 C   0  0  0  0  0  0  0  0  0  0  0  0
  188.2530  178.0930  142.1570 C   0  0  0  0  0  0  0  0  0  0  0  0
  188.8610  178.1660  140.9050 O   0  0  0  0  0  0  0  0  0  0  0  0
  188.9690  177.0540  140.0290 C   0  0  0  0  0  2  0  0  0  0  0  0
  190.4390  176.6820  139.8540 C   0  0  0  0  0  2  0  0  0  0  0  0
  190.9140  176.8380  138.4150 C   0  0  0  0  0  2  0  0  0  0  0  0
  190.8940  175.1230  136.5490 C   0  0  1  0  0  0  0  0  0  0  0  0
  190.3270  176.3430  136.1510 O   0  0  0  0  0  0  0  0  0  0  0  0
  190.0880  175.9540  137.4850 C   0  0  2  0  0  3  0  0  0  0  0  0
  190.1460  173.9570  135.8840 C   0  0  1  0  0  0  0  0  0  0  0  0
  189.4700  174.3550  134.7220 O   0  0  0  0  0  0  0  0  0  0  0  0
  190.6910  173.6810  134.5440 C   0  0  2  0  0  3  0  0  0  0  0  0
  190.9990  172.8740  135.6460 O   0  0  0  0  0  0  0  0  0  0  0  0
  192.4220  175.2170  136.5070 C   0  0  0  0  0  2  0  0  0  0  0  0
  192.9820  174.4100  137.5010 O   0  0  0  0  0  0  0  0  0  0  0  0
  195.4660  172.3520  138.3530 C   0  0  0  0  0  2  0  0  0  0  0  0
  197.3800  173.1340  137.2660 C   0  0  0  0  0  2  0  0  0  0  0  0
  194.1980  173.9720  136.9690 C   0  0  1  0  0  3  0  0  0  0  0  0
  194.7450  175.0180  136.0180 C   0  0  0  0  0  2  0  0  0  0  0  0
  196.5250  174.3500  137.5720 C   0  0  1  0  0  3  0  0  0  0  0  0
  196.6430  171.9140  137.6030 N   0  0  2  0  0  0  0  0  0  0  0  0
  196.2400  175.1220  136.2980 C   0  0  0  0  0  2  0  0  0  0  0  0
  195.2160  173.8160  138.0820 C   0  0  2  0  0  3  0  0  0  0  0  0
  198.1910  171.0680  134.9210 C   0  0  0  0  0  3  0  0  0  0  0  0
  196.2490  169.6960  136.4590 C   0  0  2  0  0  3  0  0  0  0  0  0
  195.7680  169.1150  137.7030 N   0  0  0  0  0  0  0  0  0  0  0  0
  197.0600  171.6550  135.2230 N   0  0  0  0  0  0  0  0  0  0  0  0
  197.9560  168.5250  137.4730 N   0  0  0  0  0  0  0  0  0  0  0  0
  197.6580  169.2690  136.4650 C   0  0  0  0  0  0  0  0  0  0  0  0
  196.7450  168.4310  138.2130 C   0  0  0  0  0  3  0  0  0  0  0  0
  196.2060  171.2410  136.3590 C   0  0  2  0  0  3  0  0  0  0  0  0
  198.6220  169.9010  135.6340 N   0  0  0  0  0  2  0  0  0  0  0  0
  185.0980  178.7130  143.4600 C   0  0  0  0  0  2  0  0  0  0  0  0
  184.1310  178.4830  142.3000 C   0  0  0  0  0  2  0  0  0  0  0  0
  182.6940  178.8230  142.6750 C   0  0  2  0  0  3  0  0  0  0  0  0
  182.5010  178.8580  144.1830 C   0  0  0  0  0  1  0  0  0  0  0  0
  181.6900  177.8940  141.9900 C   0  0  0  0  0  2  0  0  0  0  0  0
  181.5760  178.1190  140.5130 C   0  0  0  0  0  0  0  0  0  0  0  0
  180.9670  179.0920  140.0910 O   0  0  0  0  0  0  0  0  0  0  0  0
  181.4340  176.0450  139.3960 O   0  0  0  0  0  1  0  0  0  0  0  0
  182.2380  177.1710  139.5680 C   0  0  1  0  0  3  0  0  0  0  0  0
  182.5240  177.8240  138.2140 C   0  0  1  0  0  3  0  0  0  0  0  0
  183.4780  178.8430  138.3310 O   0  0  0  0  0  1  0  0  0  0  0  0
  182.9550  176.7780  137.1790 C   0  0  2  0  0  3  0  0  0  0  0  0
  184.2210  177.0050  135.1420 O   0  0  0  0  0  1  0  0  0  0  0  0
  184.3220  177.0610  136.5330 C   0  0  2  0  0  3  0  0  0  0  0  0
  185.3790  176.0680  136.9970 C   0  0  0  0  0  2  0  0  0  0  0  0
  186.8720  178.0220  136.6880 C   0  0  0  0  0  1  0  0  0  0  0  0
  187.0100  176.1410  135.2400 O   0  0  0  0  0  1  0  0  0  0  0  0
  186.7680  176.5150  136.5660 C   0  0  2  0  0  3  0  0  0  0  0  0
  181.8720  176.6730  136.1180 C   0  0  0  0  0  2  0  0  0  0  0  0
  181.3330  175.2860  136.0680 C   0  0  0  0  0  0  0  0  0  0  0  0
  182.2030  174.2020  136.0300 O   0  0  0  0  0  0  0  0  0  0  0  0
  180.0880  175.0890  136.1010 O   0  0  0  0  0  1  0  0  0  0  0  0
  189.1700  178.2390  145.7540 O   0  0  0  0  0  0  0  0  0  0  0  0
  189.7270  177.1120  146.4200 C   0  0  0  0  0  2  0  0  0  0  0  0
  191.6210  177.9250  145.0590 C   0  0  0  0  0  2  0  0  0  0  0  0
  191.2370  177.0350  146.2210 C   0  0  2  0  0  3  0  0  0  0  0  0
  192.1120  175.8610  144.3380 C   0  0  1  0  0  3  0  0  0  0  0  0
  191.7130  177.1340  143.9000 O   0  0  0  0  0  0  0  0  0  0  0  0
  191.6320  175.6610  145.7570 C   0  0  0  0  0  2  0  0  0  0  0  0
  191.4990  174.7930  143.4530 C   0  0  0  0  0  2  0  0  0  0  0  0
  190.2480  175.2040  142.9970 O   0  0  0  0  0  1  0  0  0  0  0  0
  2  6  1  0  0  0  0
  3 38  1  6  0  0  0
  3  4  1  0  0  0  0
  4  1  1  0  0  0  0
  5  3  1  0  0  0  0
  6  4  2  0  0  0  0
  6 60  1  0  0  0  0
  7  5  2  0  0  0  0
  7  2  1  0  0  0  0
  8  7  1  0  0  0  0
  9  8  1  0  0  0  0
 10  9  1  0  0  0  0
 11 10  1  0  0  0  0
 12 19  1  1  0  0  0
 12 14  1  0  0  0  0
 13 12  1  0  0  0  0
 13 14  1  0  0  0  0
 14 11  1  1  0  0  0
 15 16  1  1  0  0  0
 15 12  1  0  0  0  0
 17 16  1  6  0  0  0
 17 18  1  0  0  0  0
 17 15  1  0  0  0  0
 18 15  1  0  0  0  0
 19 20  1  0  0  0  0
 22 25  1  0  0  0  0
 23 20  1  1  0  0  0
 23 28  1  0  0  0  0
 24 27  1  0  0  0  0
 24 23  1  0  0  0  0
 25 27  1  6  0  0  0
 25 28  1  0  0  0  0
 26 22  1  6  0  0  0
 26 21  1  0  0  0  0
 28 21  1  6  0  0  0
 29 32  2  0  0  0  0
 29 37  1  0  0  0  0
 30 34  1  1  0  0  0
 30 31  1  0  0  0  0
 31 35  2  0  0  0  0
 33 35  1  0  0  0  0
 34 33  2  0  0  0  0
 36 32  1  6  0  0  0
 36 30  1  0  0  0  0
 36 26  1  0  0  0  0
 37 34  1  0  0  0  0
 39 40  1  0  0  0  0
 39 38  1  0  0  0  0
 40 41  1  1  0  0  0
 42 40  1  0  0  0  0
 43 42  1  0  0  0  0
 44 43  2  0  0  0  0
 46 45  1  6  0  0  0
 46 43  1  0  0  0  0
 47 48  1  1  0  0  0
 47 46  1  0  0  0  0
 49 56  1  6  0  0  0
 49 47  1  0  0  0  0
 51 50  1  6  0  0  0
 51 52  1  0  0  0  0
 51 49  1  0  0  0  0
 54 55  1  0  0  0  0
 55 53  1  6  0  0  0
 55 52  1  0  0  0  0
 57 59  1  0  0  0  0
 57 56  1  0  0  0  0
 58 57  2  0  0  0  0
 60 61  1  0  0  0  0
 62 63  1  0  0  0  0
 63 61  1  6  0  0  0
 64 67  1  6  0  0  0
 64 66  1  0  0  0  0
 65 64  1  0  0  0  0
 65 62  1  0  0  0  0
 66 63  1  0  0  0  0
 68 67  1  0  0  0  0
M  END
>  <MODEL>
2

>  <REMARK>
 VINA RESULT:      -6.1      1.865      7.484
  Name = 
  27 active torsions:
  status: ('A' for Active; 'I' for Inactive)
    1  A    between atoms: C_2  and  C_39
    2  A    between atoms: C_5  and  C_22
    3  A    between atoms: C_5  and  C_42
    4  A    between atoms: C_6  and  C_31
    5  A    between atoms: C_8  and  C_22
    6  A    between atoms: C_8  and  C_59
    7  A    between atoms: C_11  and  C_46
    8  A    between atoms: C_11  and  C_57
    9  A    between atoms: C_15  and  C_63
   10  A    between atoms: C_16  and  C_32
   11  A    between atoms: C_18  and  C_59
   12  A    between atoms: C_21  and  O_66
   13  A    between atoms: C_24  and  C_25
   14  A    between atoms: C_24  and  C_60
   15  A    between atoms: O_26  and  C_53
   16  A    between atoms: O_26  and  C_63
   17  A    between atoms: C_31  and  C_33
   18  A    between atoms: C_33  and  O_66
   19  A    between atoms: O_35  and  C_58
   20  A    between atoms: O_35  and  C_67
   21  A    between atoms: C_39  and  C_65
   22  A    between atoms: N_41  and  C_50
   23  A    between atoms: C_42  and  C_49
   24  A    between atoms: C_45  and  C_49
   25  A    between atoms: C_45  and  C_65
   26  A    between atoms: C_46  and  C_58
   27  A    between atoms: C_60  and  C_65
                            x       y       z     vdW  Elec       q    Type
                         _______ _______ _______ _____ _____    ______ ____

>  <TORSDO>
F 27

$$$$
=
 OpenBabel10232410063D

 68 76  0  0  1  0  0  0  0  0999 V2000
  186.8430  176.9880  144.0250 C   0  0  0  0  0  1  0  0  0  0  0  0
  189.3320  178.4010  141.6000 O   0  0  0  0  0  0  0  0  0  0  0  0
  186.5890  177.7560  141.5770 C   0  0  2  0  0  3  0  0  0  0  0  0
  187.4460  177.6110  142.8130 C   0  0  0  0  0  0  0  0  0  0  0  0
  187.3490  178.1500  140.3900 N   0  0  0  0  0  0  0  0  0  0  0  0
  188.7490  177.9250  142.7840 C   0  0  0  0  0  0  0  0  0  0  0  0
  188.6060  178.4590  140.4040 C   0  0  0  0  0  0  0  0  0  0  0  0
  189.2130  178.8230  139.2030 O   0  0  0  0  0  0  0  0  0  0  0  0
  189.3390  177.9400  138.0980 C   0  0  0  0  0  2  0  0  0  0  0  0
  188.1190  177.0270  138.0310 C   0  0  0  0  0  2  0  0  0  0  0  0
  187.9550  176.3680  136.6680 C   0  0  0  0  0  2  0  0  0  0  0  0
  187.9410  173.8460  136.4120 C   0  0  1  0  0  0  0  0  0  0  0  0
  187.0530  174.4720  135.5260 O   0  0  0  0  0  0  0  0  0  0  0  0
  187.1750  175.0630  136.7990 C   0  0  2  0  0  3  0  0  0  0  0  0
  187.3520  172.5100  136.8890 C   0  0  1  0  0  0  0  0  0  0  0  0
  186.2130  172.1410  136.1580 O   0  0  0  0  0  0  0  0  0  0  0  0
  187.4170  171.4980  135.8220 C   0  0  2  0  0  3  0  0  0  0  0  0
  188.3180  171.4990  136.8940 O   0  0  0  0  0  0  0  0  0  0  0  0
  189.3720  173.9380  135.8720 C   0  0  0  0  0  2  0  0  0  0  0  0
  190.2910  173.6980  136.8960 O   0  0  0  0  0  0  0  0  0  0  0  0
  193.0200  175.2480  138.0290 C   0  0  0  0  0  2  0  0  0  0  0  0
  193.9570  176.3630  136.2030 C   0  0  0  0  0  2  0  0  0  0  0  0
  191.5160  174.1440  136.3950 C   0  0  1  0  0  3  0  0  0  0  0  0
  191.3900  174.4170  134.9090 C   0  0  0  0  0  2  0  0  0  0  0  0
  192.4550  176.3510  135.9830 C   0  0  1  0  0  3  0  0  0  0  0  0
  194.2920  175.5450  137.3710 N   0  0  2  0  0  0  0  0  0  0  0  0
  192.1290  175.7230  134.6410 C   0  0  0  0  0  2  0  0  0  0  0  0
  191.8890  175.4600  137.0520 C   0  0  2  0  0  3  0  0  0  0  0  0
  196.7120  174.8970  135.3650 C   0  0  0  0  0  3  0  0  0  0  0  0
  196.0330  173.7850  137.8790 C   0  0  2  0  0  3  0  0  0  0  0  0
  195.7600  173.8950  139.3030 N   0  0  0  0  0  0  0  0  0  0  0  0
  195.5020  174.4430  135.5740 N   0  0  0  0  0  0  0  0  0  0  0  0
  197.5910  175.1740  138.8550 N   0  0  0  0  0  0  0  0  0  0  0  0
  197.1950  174.6760  137.7360 C   0  0  0  0  0  0  0  0  0  0  0  0
  196.6850  174.6470  139.8160 C   0  0  0  0  0  3  0  0  0  0  0  0
  194.9170  174.2800  136.9240 C   0  0  2  0  0  3  0  0  0  0  0  0
  197.5900  175.1720  136.4640 N   0  0  0  0  0  2  0  0  0  0  0  0
  185.4500  178.7480  141.8140 C   0  0  0  0  0  2  0  0  0  0  0  0
  185.3250  179.1230  143.2890 C   0  0  0  0  0  2  0  0  0  0  0  0
  183.8710  179.2120  143.7380 C   0  0  2  0  0  3  0  0  0  0  0  0
  183.7300  178.9670  145.2320 C   0  0  0  0  0  1  0  0  0  0  0  0
  182.9640  178.2930  142.9180 C   0  0  0  0  0  2  0  0  0  0  0  0
  181.8410  179.0130  142.2350 C   0  0  0  0  0  0  0  0  0  0  0  0
  181.2840  179.9440  142.7980 O   0  0  0  0  0  0  0  0  0  0  0  0
  181.0250  177.2780  140.8600 O   0  0  0  0  0  1  0  0  0  0  0  0
  181.4360  178.6110  140.8550 C   0  0  1  0  0  3  0  0  0  0  0  0
  180.3200  179.5030  140.3060 C   0  0  1  0  0  3  0  0  0  0  0  0
  180.1350  180.6380  141.1060 O   0  0  0  0  0  1  0  0  0  0  0  0
  180.5940  179.8910  138.8480 C   0  0  2  0  0  3  0  0  0  0  0  0
  179.9870  177.5840  138.5090 O   0  0  0  0  0  1  0  0  0  0  0  0
  180.4250  178.7340  137.8490 C   0  0  2  0  0  3  0  0  0  0  0  0
  181.7280  178.4260  137.1210 C   0  0  0  0  0  2  0  0  0  0  0  0
  183.4670  177.1580  138.3490 C   0  0  0  0  0  1  0  0  0  0  0  0
  182.5520  176.3210  136.3190 O   0  0  0  0  0  1  0  0  0  0  0  0
  182.2320  177.0360  137.4790 C   0  0  2  0  0  3  0  0  0  0  0  0
  181.9930  180.4780  138.7570 C   0  0  0  0  0  2  0  0  0  0  0  0
  181.9310  181.8850  138.2760 C   0  0  0  0  0  0  0  0  0  0  0  0
  182.7970  182.8390  138.7990 O   0  0  0  0  0  1  0  0  0  0  0  0
  181.1210  182.2080  137.3650 O   0  0  0  0  0  0  0  0  0  0  0  0
  189.5240  177.7690  143.9360 O   0  0  0  0  0  0  0  0  0  0  0  0
  190.4820  176.7270  144.0850 C   0  0  0  0  0  2  0  0  0  0  0  0
  191.7790  175.8520  145.9950 C   0  0  0  0  0  2  0  0  0  0  0  0
  191.5270  177.0740  145.1400 C   0  0  2  0  0  3  0  0  0  0  0  0
  190.8560  177.3180  147.4160 C   0  0  1  0  0  3  0  0  0  0  0  0
  190.9900  175.9460  147.1540 O   0  0  0  0  0  0  0  0  0  0  0  0
  190.9710  178.0750  146.1130 C   0  0  0  0  0  2  0  0  0  0  0  0
  189.5010  177.5990  148.0340 C   0  0  0  0  0  2  0  0  0  0  0  0
  188.4890  177.0660  147.2390 O   0  0  0  0  0  1  0  0  0  0  0  0
  2  6  1  0  0  0  0
  3 38  1  1  0  0  0
  3  4  1  0  0  0  0
  4  1  1  0  0  0  0
  5  7  2  0  0  0  0
  5  3  1  0  0  0  0
  6  4  2  0  0  0  0
  6 60  1  0  0  0  0
  7  2  1  0  0  0  0
  8  7  1  0  0  0  0
  9  8  1  0  0  0  0
 10  9  1  0  0  0  0
 11 10  1  0  0  0  0
 12 19  1  6  0  0  0
 12 14  1  0  0  0  0
 12 15  1  0  0  0  0
 13 12  1  0  0  0  0
 13 14  1  0  0  0  0
 14 11  1  6  0  0  0
 15 16  1  1  0  0  0
 15 18  1  0  0  0  0
 17 16  1  1  0  0  0
 17 15  1  0  0  0  0
 17 18  1  0  0  0  0
 19 20  1  0  0  0  0
 23 20  1  1  0  0  0
 23 28  1  0  0  0  0
 24 23  1  0  0  0  0
 25 27  1  6  0  0  0
 25 22  1  0  0  0  0
 25 28  1  0  0  0  0
 26 22  1  6  0  0  0
 26 21  1  0  0  0  0
 27 24  1  0  0  0  0
 28 21  1  1  0  0  0
 29 32  2  0  0  0  0
 29 37  1  0  0  0  0
 30 34  1  1  0  0  0
 30 31  1  0  0  0  0
 31 35  2  0  0  0  0
 33 35  1  0  0  0  0
 34 33  2  0  0  0  0
 36 32  1  6  0  0  0
 36 26  1  0  0  0  0
 36 30  1  0  0  0  0
 37 34  1  0  0  0  0
 38 39  1  0  0  0  0
 39 40  1  0  0  0  0
 40 41  1  1  0  0  0
 42 40  1  0  0  0  0
 43 44  2  0  0  0  0
 43 42  1  0  0  0  0
 46 45  1  1  0  0  0
 46 43  1  0  0  0  0
 47 46  1  0  0  0  0
 47 48  1  1  0  0  0
 49 56  1  1  0  0  0
 49 47  1  0  0  0  0
 51 50  1  1  0  0  0
 51 49  1  0  0  0  0
 52 55  1  0  0  0  0
 52 51  1  0  0  0  0
 54 55  1  0  0  0  0
 55 53  1  1  0  0  0
 57 56  1  0  0  0  0
 57 58  1  0  0  0  0
 59 57  2  0  0  0  0
 60 61  1  0  0  0  0
 62 65  1  0  0  0  0
 63 61  1  6  0  0  0
 63 62  1  0  0  0  0
 63 66  1  0  0  0  0
 64 67  1  6  0  0  0
 65 64  1  0  0  0  0
 66 64  1  0  0  0  0
 68 67  1  0  0  0  0
M  END
>  <MODEL>
3

>  <REMARK>
 VINA RESULT:      -5.8      2.224      7.588
  Name = 
  27 active torsions:
  status: ('A' for Active; 'I' for Inactive)
    1  A    between atoms: C_2  and  C_39
    2  A    between atoms: C_5  and  C_22
    3  A    between atoms: C_5  and  C_42
    4  A    between atoms: C_6  and  C_31
    5  A    between atoms: C_8  and  C_22
    6  A    between atoms: C_8  and  C_59
    7  A    between atoms: C_11  and  C_46
    8  A    between atoms: C_11  and  C_57
    9  A    between atoms: C_15  and  C_63
   10  A    between atoms: C_16  and  C_32
   11  A    between atoms: C_18  and  C_59
   12  A    between atoms: C_21  and  O_66
   13  A    between atoms: C_24  and  C_25
   14  A    between atoms: C_24  and  C_60
   15  A    between atoms: O_26  and  C_53
   16  A    between atoms: O_26  and  C_63
   17  A    between atoms: C_31  and  C_33
   18  A    between atoms: C_33  and  O_66
   19  A    between atoms: O_35  and  C_58
   20  A    between atoms: O_35  and  C_67
   21  A    between atoms: C_39  and  C_65
   22  A    between atoms: N_41  and  C_50
   23  A    between atoms: C_42  and  C_49
   24  A    between atoms: C_45  and  C_49
   25  A    between atoms: C_45  and  C_65
   26  A    between atoms: C_46  and  C_58
   27  A    between atoms: C_60  and  C_65
                            x       y       z     vdW  Elec       q    Type
                         _______ _______ _______ _____ _____    ______ ____

>  <TORSDO>
F 27

$$$$
=
 OpenBabel10232410063D

 68 76  0  0  1  0  0  0  0  0999 V2000
  182.5210  179.3530  143.4430 C   0  0  0  0  0  1  0  0  0  0  0  0
  184.1470  178.2740  140.2390 O   0  0  0  0  0  0  0  0  0  0  0  0
  185.0020  179.2050  142.7570 C   0  0  2  0  0  3  0  0  0  0  0  0
  183.5460  178.9650  142.4330 C   0  0  0  0  0  0  0  0  0  0  0  0
  185.8890  179.0160  141.6080 N   0  0  0  0  0  0  0  0  0  0  0  0
  183.1770  178.5240  141.2220 C   0  0  0  0  0  0  0  0  0  0  0  0
  185.4970  178.5750  140.4550 C   0  0  0  0  0  0  0  0  0  0  0  0
  186.4440  178.4340  139.4420 O   0  0  0  0  0  0  0  0  0  0  0  0
  186.2120  178.8390  138.1010 C   0  0  0  0  0  2  0  0  0  0  0  0
  185.9620  177.6100  137.2310 C   0  0  0  0  0  2  0  0  0  0  0  0
  186.8240  176.4220  137.6360 C   0  0  0  0  0  2  0  0  0  0  0  0
  187.5330  174.3370  136.3800 C   0  0  1  0  0  0  0  0  0  0  0  0
  186.8870  175.2620  135.5470 O   0  0  0  0  0  0  0  0  0  0  0  0
  186.4010  175.1730  136.8670 C   0  0  2  0  0  3  0  0  0  0  0  0
  187.1680  172.9070  135.9570 C   0  0  1  0  0  0  0  0  0  0  0  0
  188.1830  171.9880  136.2610 O   0  0  0  0  0  0  0  0  0  0  0  0
  187.0790  172.0200  137.1290 C   0  0  2  0  0  3  0  0  0  0  0  0
  185.9350  172.5160  136.4910 O   0  0  0  0  0  0  0  0  0  0  0  0
  188.9900  174.7570  136.5970 C   0  0  0  0  0  2  0  0  0  0  0  0
  189.7800  174.3270  135.5280 O   0  0  0  0  0  0  0  0  0  0  0  0
  192.9210  173.4090  136.1790 C   0  0  0  0  0  2  0  0  0  0  0  0
  193.9240  175.2080  137.2810 C   0  0  0  0  0  2  0  0  0  0  0  0
  191.0210  174.9370  135.7260 C   0  0  1  0  0  3  0  0  0  0  0  0
  190.8180  176.3520  136.2330 C   0  0  0  0  0  2  0  0  0  0  0  0
  192.4570  175.2210  137.6700 C   0  0  1  0  0  3  0  0  0  0  0  0
  194.1510  174.1970  136.2460 N   0  0  2  0  0  0  0  0  0  0  0  0
  191.8420  176.5680  137.3410 C   0  0  0  0  0  2  0  0  0  0  0  0
  191.7900  174.1930  136.8010 C   0  0  2  0  0  3  0  0  0  0  0  0
  195.2080  177.1200  135.4460 C   0  0  0  0  0  3  0  0  0  0  0  0
  195.7740  174.5730  134.3460 C   0  0  2  0  0  3  0  0  0  0  0  0
  196.2500  173.2030  134.4520 N   0  0  0  0  0  0  0  0  0  0  0  0
  194.2280  176.3310  135.0850 N   0  0  0  0  0  0  0  0  0  0  0  0
  197.7140  174.5250  135.5900 N   0  0  0  0  0  0  0  0  0  0  0  0
  196.7790  175.2920  135.1450 C   0  0  0  0  0  0  0  0  0  0  0  0
  197.3620  173.2300  135.1190 C   0  0  0  0  0  3  0  0  0  0  0  0
  194.3750  174.8640  134.9440 C   0  0  2  0  0  3  0  0  0  0  0  0
  196.5330  176.6040  135.6310 N   0  0  0  0  0  2  0  0  0  0  0  0
  185.4590  178.3180  143.9150 C   0  0  0  0  0  2  0  0  0  0  0  0
  185.7560  179.1360  145.1700 C   0  0  0  0  0  2  0  0  0  0  0  0
  185.9370  178.2540  146.4000 C   0  0  2  0  0  3  0  0  0  0  0  0
  184.6080  177.9490  147.0720 C   0  0  0  0  0  1  0  0  0  0  0  0
  186.9540  178.8430  147.3790 C   0  0  0  0  0  2  0  0  0  0  0  0
  187.7690  177.8090  148.0930 C   0  0  0  0  0  0  0  0  0  0  0  0
  187.5670  177.5870  149.2780 O   0  0  0  0  0  0  0  0  0  0  0  0
  188.2170  176.4610  146.2090 O   0  0  0  0  0  1  0  0  0  0  0  0
  188.7980  177.0300  147.3410 C   0  0  1  0  0  3  0  0  0  0  0  0
  189.9900  177.9020  146.9390 C   0  0  1  0  0  3  0  0  0  0  0  0
  190.4960  178.6100  148.0360 O   0  0  0  0  0  1  0  0  0  0  0  0
  191.0840  177.0620  146.2680 C   0  0  2  0  0  3  0  0  0  0  0  0
  192.0080  177.3360  144.0600 O   0  0  0  0  0  1  0  0  0  0  0  0
  190.8890  176.8730  144.7540 C   0  0  2  0  0  3  0  0  0  0  0  0
  189.6510  177.6050  144.2510 C   0  0  0  0  0  2  0  0  0  0  0  0
  189.3000  177.8880  141.8140 C   0  0  0  0  0  1  0  0  0  0  0  0
  187.7480  176.6640  143.1370 O   0  0  0  0  0  1  0  0  0  0  0  0
  189.1100  176.9500  142.9900 C   0  0  2  0  0  3  0  0  0  0  0  0
  191.1610  175.7170  146.9710 C   0  0  0  0  0  2  0  0  0  0  0  0
  192.2390  175.7330  147.9970 C   0  0  0  0  0  0  0  0  0  0  0  0
  192.8550  176.9310  148.3410 O   0  0  0  0  0  0  0  0  0  0  0  0
  192.5680  174.6680  148.5870 O   0  0  0  0  0  1  0  0  0  0  0  0
  181.8230  178.3220  140.9410 O   0  0  0  0  0  0  0  0  0  0  0  0
  181.3640  177.3070  140.0560 C   0  0  0  0  0  2  0  0  0  0  0  0
  179.9930  177.0290  138.0200 C   0  0  0  0  0  2  0  0  0  0  0  0
  180.0640  177.7100  139.3690 C   0  0  2  0  0  3  0  0  0  0  0  0
  180.1350  179.2070  137.5130 C   0  0  1  0  0  3  0  0  0  0  0  0
  180.4570  177.9250  137.0410 O   0  0  0  0  0  0  0  0  0  0  0  0
  180.0900  179.1730  139.0230 C   0  0  0  0  0  2  0  0  0  0  0  0
  181.1890  180.2020  137.0720 C   0  0  0  0  0  2  0  0  0  0  0  0
  182.0050  180.5490  138.1470 O   0  0  0  0  0  1  0  0  0  0  0  0
  2  7  1  0  0  0  0
  2  6  1  0  0  0  0
  3 38  1  1  0  0  0
  4  3  1  0  0  0  0
  4  1  1  0  0  0  0
  5  3  1  0  0  0  0
  6  4  2  0  0  0  0
  7  5  2  0  0  0  0
  8  7  1  0  0  0  0
  9  8  1  0  0  0  0
 10 11  1  0  0  0  0
 10  9  1  0  0  0  0
 12 19  1  1  0  0  0
 12 14  1  0  0  0  0
 13 12  1  0  0  0  0
 13 14  1  0  0  0  0
 14 11  1  1  0  0  0
 15 16  1  6  0  0  0
 15 12  1  0  0  0  0
 15 18  1  0  0  0  0
 15 17  1  0  0  0  0
 17 16  1  6  0  0  0
 18 17  1  0  0  0  0
 20 19  1  0  0  0  0
 23 20  1  1  0  0  0
 23 24  1  0  0  0  0
 23 28  1  0  0  0  0
 24 27  1  0  0  0  0
 25 22  1  6  0  0  0
 26 21  1  6  0  0  0
 26 22  1  0  0  0  0
 27 25  1  0  0  0  0
 28 21  1  6  0  0  0
 28 25  1  0  0  0  0
 29 37  1  0  0  0  0
 30 31  1  1  0  0  0
 30 36  1  0  0  0  0
 30 34  1  0  0  0  0
 31 35  2  0  0  0  0
 32 29  2  0  0  0  0
 34 33  2  0  0  0  0
 34 37  1  0  0  0  0
 35 33  1  0  0  0  0
 36 32  1  1  0  0  0
 36 26  1  0  0  0  0
 38 39  1  0  0  0  0
 39 40  1  0  0  0  0
 40 41  1  1  0  0  0
 40 42  1  0  0  0  0
 42 43  1  0  0  0  0
 43 44  2  0  0  0  0
 46 45  1  6  0  0  0
 46 43  1  0  0  0  0
 47 46  1  0  0  0  0
 47 48  1  1  0  0  0
 49 47  1  0  0  0  0
 49 56  1  1  0  0  0
 51 50  1  6  0  0  0
 51 49  1  0  0  0  0
 52 51  1  0  0  0  0
 55 53  1  6  0  0  0
 55 54  1  0  0  0  0
 55 52  1  0  0  0  0
 56 57  1  0  0  0  0
 57 58  2  0  0  0  0
 57 59  1  0  0  0  0
 60  6  1  0  0  0  0
 61 60  1  0  0  0  0
 62 63  1  0  0  0  0
 63 61  1  6  0  0  0
 64 67  1  1  0  0  0
 64 66  1  0  0  0  0
 65 64  1  0  0  0  0
 65 62  1  0  0  0  0
 66 63  1  0  0  0  0
 67 68  1  0  0  0  0
M  END
>  <MODEL>
4

>  <REMARK>
 VINA RESULT:      -5.1      1.902      2.861
  Name = 
  27 active torsions:
  status: ('A' for Active; 'I' for Inactive)
    1  A    between atoms: C_2  and  C_39
    2  A    between atoms: C_5  and  C_22
    3  A    between atoms: C_5  and  C_42
    4  A    between atoms: C_6  and  C_31
    5  A    between atoms: C_8  and  C_22
    6  A    between atoms: C_8  and  C_59
    7  A    between atoms: C_11  and  C_46
    8  A    between atoms: C_11  and  C_57
    9  A    between atoms: C_15  and  C_63
   10  A    between atoms: C_16  and  C_32
   11  A    between atoms: C_18  and  C_59
   12  A    between atoms: C_21  and  O_66
   13  A    between atoms: C_24  and  C_25
   14  A    between atoms: C_24  and  C_60
   15  A    between atoms: O_26  and  C_53
   16  A    between atoms: O_26  and  C_63
   17  A    between atoms: C_31  and  C_33
   18  A    between atoms: C_33  and  O_66
   19  A    between atoms: O_35  and  C_58
   20  A    between atoms: O_35  and  C_67
   21  A    between atoms: C_39  and  C_65
   22  A    between atoms: N_41  and  C_50
   23  A    between atoms: C_42  and  C_49
   24  A    between atoms: C_45  and  C_49
   25  A    between atoms: C_45  and  C_65
   26  A    between atoms: C_46  and  C_58
   27  A    between atoms: C_60  and  C_65
                            x       y       z     vdW  Elec       q    Type
                         _______ _______ _______ _____ _____    ______ ____

>  <TORSDO>
F 27

$$$$
=
 OpenBabel10232410063D

 68 76  0  0  1  0  0  0  0  0999 V2000
  187.8120  176.4970  143.8020 C   0  0  0  0  0  1  0  0  0  0  0  0
  191.2370  177.4370  142.5970 O   0  0  0  0  0  0  0  0  0  0  0  0
  188.6840  177.1030  141.4530 C   0  0  2  0  0  3  0  0  0  0  0  0
  188.9340  176.9560  142.9360 C   0  0  0  0  0  0  0  0  0  0  0  0
  189.9080  177.3200  140.6790 N   0  0  0  0  0  0  0  0  0  0  0  0
  190.1640  177.1200  143.4430 C   0  0  0  0  0  0  0  0  0  0  0  0
  191.0780  177.4870  141.2060 C   0  0  0  0  0  0  0  0  0  0  0  0
  192.1650  177.6900  140.3580 O   0  0  0  0  0  0  0  0  0  0  0  0
  192.5700  176.7470  139.3760 C   0  0  0  0  0  2  0  0  0  0  0  0
  191.5140  176.6660  138.2780 C   0  0  0  0  0  2  0  0  0  0  0  0
  192.0600  176.0810  136.9830 C   0  0  0  0  0  2  0  0  0  0  0  0
  191.3370  174.6340  135.0300 C   0  0  1  0  0  0  0  0  0  0  0  0
  191.1340  175.9990  134.7800 O   0  0  0  0  0  0  0  0  0  0  0  0
  190.9180  175.5740  136.1060 C   0  0  2  0  0  3  0  0  0  0  0  0
  190.2090  173.8110  134.3910 C   0  0  1  0  0  0  0  0  0  0  0  0
  190.3100  172.4460  134.6950 O   0  0  0  0  0  0  0  0  0  0  0  0
  189.3650  173.1880  135.4240 C   0  0  2  0  0  3  0  0  0  0  0  0
  188.9510  174.3270  134.7220 O   0  0  0  0  0  0  0  0  0  0  0  0
  192.8100  174.2750  134.8100 C   0  0  0  0  0  2  0  0  0  0  0  0
  193.1070  173.0580  135.4280 O   0  0  0  0  0  0  0  0  0  0  0  0
  195.2370  171.6970  137.6060 C   0  0  0  0  0  2  0  0  0  0  0  0
  196.9750  173.2330  137.8840 C   0  0  0  0  0  2  0  0  0  0  0  0
  194.4680  173.1300  135.7340 C   0  0  1  0  0  3  0  0  0  0  0  0
  195.0180  174.4750  135.3000 C   0  0  0  0  0  2  0  0  0  0  0  0
  195.7180  174.0400  137.6130 C   0  0  1  0  0  3  0  0  0  0  0  0
  196.6920  171.8060  137.7140 N   0  0  2  0  0  0  0  0  0  0  0  0
  195.9330  174.9540  136.4210 C   0  0  0  0  0  2  0  0  0  0  0  0
  194.6610  173.0430  137.2360 C   0  0  2  0  0  3  0  0  0  0  0  0
  199.6730  171.9980  136.5420 C   0  0  0  0  0  3  0  0  0  0  0  0
  197.8130  169.8630  136.5520 C   0  0  2  0  0  3  0  0  0  0  0  0
  196.9380  168.9220  137.2330 N   0  0  0  0  0  0  0  0  0  0  0  0
  198.4590  172.1860  136.0900 N   0  0  0  0  0  0  0  0  0  0  0  0
  198.8980  168.9960  138.3910 N   0  0  0  0  0  0  0  0  0  0  0  0
  199.0020  169.8330  137.4180 C   0  0  0  0  0  0  0  0  0  0  0  0
  197.6040  168.4280  138.2310 C   0  0  0  0  0  3  0  0  0  0  0  0
  197.3120  171.3260  136.4590 C   0  0  2  0  0  3  0  0  0  0  0  0
  199.9810  170.8610  137.3590 N   0  0  0  0  0  2  0  0  0  0  0  0
  187.6900  178.2310  141.1740 C   0  0  0  0  0  2  0  0  0  0  0  0
  186.7970  178.5070  142.3820 C   0  0  0  0  0  2  0  0  0  0  0  0
  185.4660  179.1310  141.9800 C   0  0  2  0  0  3  0  0  0  0  0  0
  184.5860  179.4010  143.1910 C   0  0  0  0  0  1  0  0  0  0  0  0
  184.7430  178.3000  140.9190 C   0  0  0  0  0  2  0  0  0  0  0  0
  184.0150  179.1260  139.9030 C   0  0  0  0  0  0  0  0  0  0  0  0
  184.5550  180.1080  139.4180 O   0  0  0  0  0  0  0  0  0  0  0  0
  181.7600  179.7790  139.6580 O   0  0  0  0  0  1  0  0  0  0  0  0
  182.6470  178.7190  139.4630 C   0  0  1  0  0  3  0  0  0  0  0  0
  182.6260  178.2790  137.9980 C   0  0  1  0  0  3  0  0  0  0  0  0
  183.8370  177.6790  137.6300 O   0  0  0  0  0  1  0  0  0  0  0  0
  181.4390  177.3490  137.7190 C   0  0  2  0  0  3  0  0  0  0  0  0
  182.4370  176.3970  135.7440 O   0  0  0  0  0  1  0  0  0  0  0  0
  181.8110  176.0720  136.9480 C   0  0  2  0  0  3  0  0  0  0  0  0
  180.5860  175.2140  136.6580 C   0  0  0  0  0  2  0  0  0  0  0  0
  179.9940  173.2820  138.0930 C   0  0  0  0  0  1  0  0  0  0  0  0
  182.2150  173.5720  137.2930 O   0  0  0  0  0  1  0  0  0  0  0  0
  180.8700  173.7480  136.9470 C   0  0  2  0  0  3  0  0  0  0  0  0
  180.3740  178.1350  136.9720 C   0  0  0  0  0  2  0  0  0  0  0  0
  180.9950  179.2630  136.2250 C   0  0  0  0  0  0  0  0  0  0  0  0
  181.5090  179.0540  134.9500 O   0  0  0  0  0  0  0  0  0  0  0  0
  181.0210  180.4180  136.7290 O   0  0  0  0  0  1  0  0  0  0  0  0
  190.3730  176.9650  144.8160 O   0  0  0  0  0  0  0  0  0  0  0  0
  190.4540  178.0680  145.7120 C   0  0  0  0  0  2  0  0  0  0  0  0
  189.6290  176.2370  147.1500 C   0  0  0  0  0  2  0  0  0  0  0  0
  190.2020  177.6370  147.1520 C   0  0  2  0  0  3  0  0  0  0  0  0
  187.9620  177.4970  147.9580 C   0  0  1  0  0  3  0  0  0  0  0  0
  188.2290  176.3260  147.2310 O   0  0  0  0  0  0  0  0  0  0  0  0
  189.1040  178.4660  147.7590 C   0  0  0  0  0  2  0  0  0  0  0  0
  186.6790  178.1350  147.4620 C   0  0  0  0  0  2  0  0  0  0  0  0
  186.6250  179.4720  147.8490 O   0  0  0  0  0  1  0  0  0  0  0  0
  2  6  1  0  0  0  0
  3 38  1  1  0  0  0
  3  4  1  0  0  0  0
  4  6  2  0  0  0  0
  4  1  1  0  0  0  0
  5  7  2  0  0  0  0
  5  3  1  0  0  0  0
  6 60  1  0  0  0  0
  7  2  1  0  0  0  0
  8  7  1  0  0  0  0
  9  8  1  0  0  0  0
 10  9  1  0  0  0  0
 11 10  1  0  0  0  0
 12 19  1  1  0  0  0
 12 14  1  0  0  0  0
 13 12  1  0  0  0  0
 13 14  1  0  0  0  0
 14 11  1  1  0  0  0
 15 16  1  6  0  0  0
 15 18  1  0  0  0  0
 15 12  1  0  0  0  0
 15 17  1  0  0  0  0
 17 16  1  6  0  0  0
 18 17  1  0  0  0  0
 19 20  1  0  0  0  0
 23 20  1  1  0  0  0
 23 28  1  0  0  0  0
 24 23  1  0  0  0  0
 24 27  1  0  0  0  0
 25 27  1  6  0  0  0
 25 22  1  0  0  0  0
 26 21  1  6  0  0  0
 26 22  1  0  0  0  0
 28 21  1  6  0  0  0
 28 25  1  0  0  0  0
 29 37  1  0  0  0  0
 30 31  1  1  0  0  0
 30 34  1  0  0  0  0
 31 35  2  0  0  0  0
 32 29  2  0  0  0  0
 34 33  2  0  0  0  0
 35 33  1  0  0  0  0
 36 32  1  1  0  0  0
 36 30  1  0  0  0  0
 36 26  1  0  0  0  0
 37 34  1  0  0  0  0
 38 39  1  0  0  0  0
 40 39  1  0  0  0  0
 40 41  1  1  0  0  0
 42 40  1  0  0  0  0
 43 42  1  0  0  0  0
 44 43  2  0  0  0  0
 46 45  1  6  0  0  0
 46 43  1  0  0  0  0
 47 48  1  1  0  0  0
 47 46  1  0  0  0  0
 49 56  1  6  0  0  0
 49 47  1  0  0  0  0
 51 50  1  6  0  0  0
 51 49  1  0  0  0  0
 52 55  1  0  0  0  0
 52 51  1  0  0  0  0
 55 54  1  0  0  0  0
 55 53  1  1  0  0  0
 57 59  1  0  0  0  0
 57 56  1  0  0  0  0
 58 57  2  0  0  0  0
 60 61  1  0  0  0  0
 62 63  1  0  0  0  0
 62 65  1  0  0  0  0
 63 61  1  6  0  0  0
 63 66  1  0  0  0  0
 64 67  1  6  0  0  0
 65 64  1  0  0  0  0
 66 64  1  0  0  0  0
 67 68  1  0  0  0  0
M  END
>  <MODEL>
5

>  <REMARK>
 VINA RESULT:      -5.0      2.282      8.177
  Name = 
  27 active torsions:
  status: ('A' for Active; 'I' for Inactive)
    1  A    between atoms: C_2  and  C_39
    2  A    between atoms: C_5  and  C_22
    3  A    between atoms: C_5  and  C_42
    4  A    between atoms: C_6  and  C_31
    5  A    between atoms: C_8  and  C_22
    6  A    between atoms: C_8  and  C_59
    7  A    between atoms: C_11  and  C_46
    8  A    between atoms: C_11  and  C_57
    9  A    between atoms: C_15  and  C_63
   10  A    between atoms: C_16  and  C_32
   11  A    between atoms: C_18  and  C_59
   12  A    between atoms: C_21  and  O_66
   13  A    between atoms: C_24  and  C_25
   14  A    between atoms: C_24  and  C_60
   15  A    between atoms: O_26  and  C_53
   16  A    between atoms: O_26  and  C_63
   17  A    between atoms: C_31  and  C_33
   18  A    between atoms: C_33  and  O_66
   19  A    between atoms: O_35  and  C_58
   20  A    between atoms: O_35  and  C_67
   21  A    between atoms: C_39  and  C_65
   22  A    between atoms: N_41  and  C_50
   23  A    between atoms: C_42  and  C_49
   24  A    between atoms: C_45  and  C_49
   25  A    between atoms: C_45  and  C_65
   26  A    between atoms: C_46  and  C_58
   27  A    between atoms: C_60  and  C_65
                            x       y       z     vdW  Elec       q    Type
                         _______ _______ _______ _____ _____    ______ ____

>  <TORSDO>
F 27

$$$$
=
 OpenBabel10232410063D

 68 76  0  0  1  0  0  0  0  0999 V2000
  192.4090  177.3170  140.8540 C   0  0  0  0  0  1  0  0  0  0  0  0
  188.7480  176.9920  140.1050 O   0  0  0  0  0  0  0  0  0  0  0  0
  191.1390  177.1040  138.6200 C   0  0  2  0  0  3  0  0  0  0  0  0
  191.1210  177.1150  140.1310 C   0  0  0  0  0  0  0  0  0  0  0  0
  189.8030  177.1450  138.0260 N   0  0  0  0  0  0  0  0  0  0  0  0
  189.9620  177.0630  140.8030 C   0  0  0  0  0  0  0  0  0  0  0  0
  188.7040  177.0800  138.7080 C   0  0  0  0  0  0  0  0  0  0  0  0
  187.4920  177.1230  138.0210 O   0  0  0  0  0  0  0  0  0  0  0  0
  187.3940  177.4410  136.6400 C   0  0  0  0  0  2  0  0  0  0  0  0
  187.0210  176.1890  135.8510 C   0  0  0  0  0  2  0  0  0  0  0  0
  187.2740  174.9080  136.6350 C   0  0  0  0  0  2  0  0  0  0  0  0
  185.2800  173.5900  135.7900 C   0  0  1  0  0  0  0  0  0  0  0  0
  186.0340  172.8660  136.7250 O   0  0  0  0  0  0  0  0  0  0  0  0
  186.7640  173.7000  135.8540 C   0  0  2  0  0  3  0  0  0  0  0  0
  184.7310  172.6420  134.7130 C   0  0  1  0  0  0  0  0  0  0  0  0
  185.2080  171.3320  134.8660 O   0  0  0  0  0  0  0  0  0  0  0  0
  183.9020  171.5860  135.3190 C   0  0  2  0  0  3  0  0  0  0  0  0
  183.3330  172.6840  134.6620 O   0  0  0  0  0  0  0  0  0  0  0  0
  184.3710  174.5890  136.5110 C   0  0  0  0  0  2  0  0  0  0  0  0
  183.2370  174.8540  135.7380 O   0  0  0  0  0  0  0  0  0  0  0  0
  182.9630  175.5780  138.9850 C   0  0  0  0  0  2  0  0  0  0  0  0
  180.7080  176.0450  139.3730 C   0  0  0  0  0  2  0  0  0  0  0  0
  182.4000  175.6030  136.5690 C   0  0  1  0  0  3  0  0  0  0  0  0
  181.0310  175.7320  135.9310 C   0  0  0  0  0  2  0  0  0  0  0  0
  180.7540  175.0120  138.2620 C   0  0  1  0  0  3  0  0  0  0  0  0
  182.0660  176.4960  139.6850 N   0  0  2  0  0  0  0  0  0  0  0  0
  180.0100  175.5230  137.0430 C   0  0  0  0  0  2  0  0  0  0  0  0
  182.2020  174.8750  137.8860 C   0  0  2  0  0  3  0  0  0  0  0  0
  180.2020  179.1080  139.6510 C   0  0  0  0  0  3  0  0  0  0  0  0
  182.9680  178.8050  140.1740 C   0  0  2  0  0  3  0  0  0  0  0  0
  184.0830  178.2370  140.9160 N   0  0  0  0  0  0  0  0  0  0  0  0
  180.9630  178.4710  138.7980 N   0  0  0  0  0  0  0  0  0  0  0  0
  182.4920  178.8450  142.4290 N   0  0  0  0  0  0  0  0  0  0  0  0
  182.0230  179.1110  141.2600 C   0  0  0  0  0  0  0  0  0  0  0  0
  183.7910  178.3210  142.1770 C   0  0  0  0  0  3  0  0  0  0  0  0
  182.2640  177.8660  139.1620 C   0  0  2  0  0  3  0  0  0  0  0  0
  180.6470  179.3450  140.9930 N   0  0  0  0  0  2  0  0  0  0  0  0
  191.9040  175.8910  138.0900 C   0  0  0  0  0  2  0  0  0  0  0  0
  191.2510  175.3170  136.8340 C   0  0  0  0  0  2  0  0  0  0  0  0
  192.1870  174.3830  136.0760 C   0  0  2  0  0  3  0  0  0  0  0  0
  191.4150  173.3870  135.2240 C   0  0  0  0  0  1  0  0  0  0  0  0
  193.1810  173.6900  137.0100 C   0  0  0  0  0  2  0  0  0  0  0  0
  194.4810  174.4210  137.1510 C   0  0  0  0  0  0  0  0  0  0  0  0
  194.7330  175.3620  136.4130 O   0  0  0  0  0  0  0  0  0  0  0  0
  195.1480  172.7230  138.6480 O   0  0  0  0  0  1  0  0  0  0  0  0
  195.4450  174.0160  138.2170 C   0  0  1  0  0  3  0  0  0  0  0  0
  196.8940  174.0880  137.7320 C   0  0  1  0  0  3  0  0  0  0  0  0
  197.7930  174.0770  138.8060 O   0  0  0  0  0  1  0  0  0  0  0  0
  197.2000  172.9560  136.7430 C   0  0  2  0  0  3  0  0  0  0  0  0
  199.0330  171.6400  137.5880 O   0  0  0  0  0  1  0  0  0  0  0  0
  197.6480  171.6450  137.4100 C   0  0  2  0  0  3  0  0  0  0  0  0
  197.2480  170.4290  136.5830 C   0  0  0  0  0  2  0  0  0  0  0  0
  195.5310  168.6410  136.5940 C   0  0  0  0  0  1  0  0  0  0  0  0
  195.0260  170.8130  135.7660 O   0  0  0  0  0  1  0  0  0  0  0  0
  195.7640  170.1330  136.7400 C   0  0  2  0  0  3  0  0  0  0  0  0
  198.2510  173.4430  135.7590 C   0  0  0  0  0  2  0  0  0  0  0  0
  197.8520  174.7590  135.1880 C   0  0  0  0  0  0  0  0  0  0  0  0
  196.7460  174.8470  134.3490 O   0  0  0  0  0  0  0  0  0  0  0  0
  198.4890  175.8030  135.4950 O   0  0  0  0  0  1  0  0  0  0  0  0
  189.9700  177.0880  142.2000 O   0  0  0  0  0  0  0  0  0  0  0  0
  188.8240  177.4320  142.9700 C   0  0  0  0  0  2  0  0  0  0  0  0
  190.5220  178.8850  144.0210 C   0  0  0  0  0  2  0  0  0  0  0  0
  189.2100  178.1670  144.2490 C   0  0  2  0  0  3  0  0  0  0  0  0
  191.0150  177.3460  145.5740 C   0  0  1  0  0  3  0  0  0  0  0  0
  191.5640  178.0770  144.5090 O   0  0  0  0  0  0  0  0  0  0  0  0
  189.5310  177.1830  145.3390 C   0  0  0  0  0  2  0  0  0  0  0  0
  191.6570  175.9750  145.6480 C   0  0  0  0  0  2  0  0  0  0  0  0
  191.9240  175.4970  144.3660 O   0  0  0  0  0  1  0  0  0  0  0  0
  2  6  1  0  0  0  0
  3 38  1  1  0  0  0
  3  4  1  0  0  0  0
  4  6  2  0  0  0  0
  4  1  1  0  0  0  0
  5  3  1  0  0  0  0
  5  7  2  0  0  0  0
  6 60  1  0  0  0  0
  7  2  1  0  0  0  0
  8  7  1  0  0  0  0
  9  8  1  0  0  0  0
 10 11  1  0  0  0  0
 10  9  1  0  0  0  0
 12 14  1  0  0  0  0
 12 19  1  1  0  0  0
 12 13  1  0  0  0  0
 14 11  1  1  0  0  0
 14 13  1  0  0  0  0
 15 18  1  6  0  0  0
 15 16  1  0  0  0  0
 15 17  1  0  0  0  0
 15 12  1  0  0  0  0
 16 17  1  0  0  0  0
 17 18  1  6  0  0  0
 20 19  1  0  0  0  0
 22 26  1  0  0  0  0
 23 20  1  6  0  0  0
 23 28  1  0  0  0  0
 24 23  1  0  0  0  0
 24 27  1  0  0  0  0
 25 27  1  6  0  0  0
 25 22  1  0  0  0  0
 26 21  1  6  0  0  0
 28 25  1  0  0  0  0
 28 21  1  1  0  0  0
 29 37  1  0  0  0  0
 30 31  1  1  0  0  0
 30 34  1  0  0  0  0
 31 35  2  0  0  0  0
 32 29  2  0  0  0  0
 34 33  2  0  0  0  0
 35 33  1  0  0  0  0
 36 32  1  1  0  0  0
 36 26  1  0  0  0  0
 36 30  1  0  0  0  0
 37 34  1  0  0  0  0
 39 38  1  0  0  0  0
 40 41  1  1  0  0  0
 40 39  1  0  0  0  0
 40 42  1  0  0  0  0
 42 43  1  0  0  0  0
 43 46  1  0  0  0  0
 44 43  2  0  0  0  0
 46 45  1  6  0  0  0
 47 46  1  0  0  0  0
 47 48  1  1  0  0  0
 49 56  1  6  0  0  0
 49 51  1  0  0  0  0
 49 47  1  0  0  0  0
 51 50  1  6  0  0  0
 52 55  1  0  0  0  0
 52 51  1  0  0  0  0
 54 55  1  0  0  0  0
 55 53  1  6  0  0  0
 57 59  1  0  0  0  0
 57 56  1  0  0  0  0
 58 57  2  0  0  0  0
 60 61  1  0  0  0  0
 62 63  1  0  0  0  0
 62 65  1  0  0  0  0
 63 61  1  6  0  0  0
 63 66  1  0  0  0  0
 64 67  1  6  0  0  0
 65 64  1  0  0  0  0
 66 64  1  0  0  0  0
 68 67  1  0  0  0  0
M  END
>  <MODEL>
6

>  <REMARK>
 VINA RESULT:      -5.0      3.004     10.880
  Name = 
  27 active torsions:
  status: ('A' for Active; 'I' for Inactive)
    1  A    between atoms: C_2  and  C_39
    2  A    between atoms: C_5  and  C_22
    3  A    between atoms: C_5  and  C_42
    4  A    between atoms: C_6  and  C_31
    5  A    between atoms: C_8  and  C_22
    6  A    between atoms: C_8  and  C_59
    7  A    between atoms: C_11  and  C_46
    8  A    between atoms: C_11  and  C_57
    9  A    between atoms: C_15  and  C_63
   10  A    between atoms: C_16  and  C_32
   11  A    between atoms: C_18  and  C_59
   12  A    between atoms: C_21  and  O_66
   13  A    between atoms: C_24  and  C_25
   14  A    between atoms: C_24  and  C_60
   15  A    between atoms: O_26  and  C_53
   16  A    between atoms: O_26  and  C_63
   17  A    between atoms: C_31  and  C_33
   18  A    between atoms: C_33  and  O_66
   19  A    between atoms: O_35  and  C_58
   20  A    between atoms: O_35  and  C_67
   21  A    between atoms: C_39  and  C_65
   22  A    between atoms: N_41  and  C_50
   23  A    between atoms: C_42  and  C_49
   24  A    between atoms: C_45  and  C_49
   25  A    between atoms: C_45  and  C_65
   26  A    between atoms: C_46  and  C_58
   27  A    between atoms: C_60  and  C_65
                            x       y       z     vdW  Elec       q    Type
                         _______ _______ _______ _____ _____    ______ ____

>  <TORSDO>
F 27

$$$$
=
 OpenBabel10232410063D

 68 76  0  0  1  0  0  0  0  0999 V2000
  185.9610  174.6700  136.7680 C   0  0  0  0  0  1  0  0  0  0  0  0
  183.9560  177.7860  137.3530 O   0  0  0  0  0  0  0  0  0  0  0  0
  186.6060  176.9420  137.8030 C   0  0  2  0  0  3  0  0  0  0  0  0
  185.5840  176.0700  137.1120 C   0  0  0  0  0  0  0  0  0  0  0  0
  186.0500  178.1990  138.3040 N   0  0  0  0  0  0  0  0  0  0  0  0
  184.3310  176.5060  136.9180 C   0  0  0  0  0  0  0  0  0  0  0  0
  184.8360  178.5930  138.0860 C   0  0  0  0  0  0  0  0  0  0  0  0
  184.4290  179.8160  138.6160 O   0  0  0  0  0  0  0  0  0  0  0  0
  183.5730  179.9270  139.7440 C   0  0  0  0  0  2  0  0  0  0  0  0
  183.9980  178.9210  140.8100 C   0  0  0  0  0  2  0  0  0  0  0  0
  184.9640  179.5170  141.8250 C   0  0  0  0  0  2  0  0  0  0  0  0
  185.5610  178.8330  144.1920 C   0  0  1  0  0  0  0  0  0  0  0  0
  184.7490  177.8820  143.5570 O   0  0  0  0  0  0  0  0  0  0  0  0
  184.4830  179.2310  143.2450 C   0  0  2  0  0  3  0  0  0  0  0  0
  185.2010  178.9170  145.6830 C   0  0  1  0  0  0  0  0  0  0  0  0
  184.6890  177.7080  146.1740 O   0  0  0  0  0  0  0  0  0  0  0  0
  186.0320  177.9950  146.4750 C   0  0  2  0  0  3  0  0  0  0  0  0
  186.2830  179.3730  146.4440 O   0  0  0  0  0  0  0  0  0  0  0  0
  187.0130  178.6720  143.7310 C   0  0  0  0  0  2  0  0  0  0  0  0
  187.1700  177.4650  143.0450 O   0  0  0  0  0  0  0  0  0  0  0  0
  189.6960  178.4280  145.0020 C   0  0  0  0  0  2  0  0  0  0  0  0
  191.6430  177.5580  144.0500 C   0  0  0  0  0  2  0  0  0  0  0  0
  188.4520  177.0220  143.3820 C   0  0  1  0  0  3  0  0  0  0  0  0
  189.0130  176.1780  142.2530 C   0  0  0  0  0  2  0  0  0  0  0  0
  190.6900  177.8480  142.9050 C   0  0  1  0  0  3  0  0  0  0  0  0
  190.9580  177.7640  145.3280 N   0  0  2  0  0  0  0  0  0  0  0  0
  190.4690  176.5950  142.0800 C   0  0  0  0  0  2  0  0  0  0  0  0
  189.3790  178.2110  143.5410 C   0  0  2  0  0  3  0  0  0  0  0  0
  192.7210  175.7770  147.1290 C   0  0  0  0  0  3  0  0  0  0  0  0
  190.0140  176.5800  147.3500 C   0  0  2  0  0  3  0  0  0  0  0  0
  188.9800  177.5930  147.4890 N   0  0  0  0  0  0  0  0  0  0  0  0
  191.9200  175.6700  146.0980 N   0  0  0  0  0  0  0  0  0  0  0  0
  190.6570  178.1260  148.9340 N   0  0  0  0  0  0  0  0  0  0  0  0
  191.0270  177.0680  148.2990 C   0  0  0  0  0  0  0  0  0  0  0  0
  189.3630  178.4120  148.4180 C   0  0  0  0  0  3  0  0  0  0  0  0
  190.6730  176.4540  145.9530 C   0  0  2  0  0  3  0  0  0  0  0  0
  192.3700  176.6070  148.2440 N   0  0  0  0  0  2  0  0  0  0  0  0
  187.7910  177.2330  136.8810 C   0  0  0  0  0  2  0  0  0  0  0  0
  189.0060  176.3790  137.2370 C   0  0  0  0  0  2  0  0  0  0  0  0
  189.6230  175.7180  136.0100 C   0  0  2  0  0  3  0  0  0  0  0  0
  189.4370  174.2090  136.0340 C   0  0  0  0  0  1  0  0  0  0  0  0
  191.0900  176.1120  135.8270 C   0  0  0  0  0  2  0  0  0  0  0  0
  192.0300  175.3580  136.7160 C   0  0  0  0  0  0  0  0  0  0  0  0
  191.6060  174.8060  137.7210 O   0  0  0  0  0  0  0  0  0  0  0  0
  193.7120  175.9880  135.1860 O   0  0  0  0  0  1  0  0  0  0  0  0
  193.4740  175.2550  136.3480 C   0  0  1  0  0  3  0  0  0  0  0  0
  194.3850  175.7450  137.4750 C   0  0  1  0  0  3  0  0  0  0  0  0
  193.6410  176.1960  138.5730 O   0  0  0  0  0  1  0  0  0  0  0  0
  195.3810  174.6550  137.8910 C   0  0  2  0  0  3  0  0  0  0  0  0
  195.0050  172.6780  139.2160 O   0  0  0  0  0  1  0  0  0  0  0  0
  194.7720  173.2440  137.9620 C   0  0  2  0  0  3  0  0  0  0  0  0
  195.3470  172.3300  136.8880 C   0  0  0  0  0  2  0  0  0  0  0  0
  196.3080  170.0450  136.9000 C   0  0  0  0  0  1  0  0  0  0  0  0
  193.9950  170.3940  136.4650 O   0  0  0  0  0  1  0  0  0  0  0  0
  195.0750  170.8700  137.2170 C   0  0  2  0  0  3  0  0  0  0  0  0
  195.9920  175.0420  139.2270 C   0  0  0  0  0  2  0  0  0  0  0  0
  197.4780  175.0360  139.1340 C   0  0  0  0  0  0  0  0  0  0  0  0
  198.2430  174.6430  140.2270 O   0  0  0  0  0  1  0  0  0  0  0  0
  198.0460  175.3500  138.0530 O   0  0  0  0  0  0  0  0  0  0  0  0
  183.3980  175.6770  136.2890 O   0  0  0  0  0  0  0  0  0  0  0  0
  182.6360  174.7030  136.9930 C   0  0  0  0  0  2  0  0  0  0  0  0
  180.8250  173.0290  136.8520 C   0  0  0  0  0  2  0  0  0  0  0  0
  181.8040  173.8500  136.0420 C   0  0  2  0  0  3  0  0  0  0  0  0
  182.1830  171.4980  135.9410 C   0  0  1  0  0  3  0  0  0  0  0  0
  181.3760  171.7530  137.0610 O   0  0  0  0  0  0  0  0  0  0  0  0
  182.6680  172.8140  135.3790 C   0  0  0  0  0  2  0  0  0  0  0  0
  183.3800  170.6600  136.3440 C   0  0  0  0  0  2  0  0  0  0  0  0
  184.4870  171.4770  136.5650 O   0  0  0  0  0  1  0  0  0  0  0  0
  1  4  1  0  0  0  0
  2  7  1  0  0  0  0
  3 38  1  6  0  0  0
  3  5  1  0  0  0  0
  4  3  1  0  0  0  0
  6  4  2  0  0  0  0
  6  2  1  0  0  0  0
  7  5  2  0  0  0  0
  7  8  1  0  0  0  0
  8  9  1  0  0  0  0
  9 10  1  0  0  0  0
 10 11  1  0  0  0  0
 12 19  1  6  0  0  0
 12 15  1  0  0  0  0
 13 12  1  0  0  0  0
 14 11  1  6  0  0  0
 14 13  1  0  0  0  0
 14 12  1  0  0  0  0
 15 16  1  1  0  0  0
 15 18  1  0  0  0  0
 15 17  1  0  0  0  0
 17 16  1  1  0  0  0
 18 17  1  0  0  0  0
 20 19  1  0  0  0  0
 21 26  1  0  0  0  0
 23 20  1  6  0  0  0
 23 28  1  0  0  0  0
 24 23  1  0  0  0  0
 25 27  1  6  0  0  0
 25 28  1  0  0  0  0
 25 22  1  0  0  0  0
 26 22  1  6  0  0  0
 26 36  1  0  0  0  0
 27 24  1  0  0  0  0
 28 21  1  1  0  0  0
 29 37  1  0  0  0  0
 30 31  1  6  0  0  0
 30 34  1  0  0  0  0
 31 35  2  0  0  0  0
 32 29  2  0  0  0  0
 34 33  2  0  0  0  0
 35 33  1  0  0  0  0
 36 32  1  1  0  0  0
 36 30  1  0  0  0  0
 37 34  1  0  0  0  0
 38 39  1  0  0  0  0
 40 41  1  1  0  0  0
 40 39  1  0  0  0  0
 42 40  1  0  0  0  0
 42 43  1  0  0  0  0
 43 44  2  0  0  0  0
 46 45  1  6  0  0  0
 46 43  1  0  0  0  0
 46 47  1  0  0  0  0
 47 49  1  0  0  0  0
 47 48  1  1  0  0  0
 49 51  1  0  0  0  0
 49 56  1  1  0  0  0
 51 50  1  1  0  0  0
 52 55  1  0  0  0  0
 52 51  1  0  0  0  0
 54 55  1  0  0  0  0
 55 53  1  6  0  0  0
 57 56  1  0  0  0  0
 57 58  1  0  0  0  0
 59 57  2  0  0  0  0
 60  6  1  0  0  0  0
 60 61  1  0  0  0  0
 62 65  1  0  0  0  0
 63 62  1  0  0  0  0
 63 61  1  1  0  0  0
 64 67  1  1  0  0  0
 64 65  1  0  0  0  0
 66 64  1  0  0  0  0
 66 63  1  0  0  0  0
 67 68  1  0  0  0  0
M  END
>  <MODEL>
7

>  <REMARK>
 VINA RESULT:      -4.9      3.694      8.991
  Name = 
  27 active torsions:
  status: ('A' for Active; 'I' for Inactive)
    1  A    between atoms: C_2  and  C_39
    2  A    between atoms: C_5  and  C_22
    3  A    between atoms: C_5  and  C_42
    4  A    between atoms: C_6  and  C_31
    5  A    between atoms: C_8  and  C_22
    6  A    between atoms: C_8  and  C_59
    7  A    between atoms: C_11  and  C_46
    8  A    between atoms: C_11  and  C_57
    9  A    between atoms: C_15  and  C_63
   10  A    between atoms: C_16  and  C_32
   11  A    between atoms: C_18  and  C_59
   12  A    between atoms: C_21  and  O_66
   13  A    between atoms: C_24  and  C_25
   14  A    between atoms: C_24  and  C_60
   15  A    between atoms: O_26  and  C_53
   16  A    between atoms: O_26  and  C_63
   17  A    between atoms: C_31  and  C_33
   18  A    between atoms: C_33  and  O_66
   19  A    between atoms: O_35  and  C_58
   20  A    between atoms: O_35  and  C_67
   21  A    between atoms: C_39  and  C_65
   22  A    between atoms: N_41  and  C_50
   23  A    between atoms: C_42  and  C_49
   24  A    between atoms: C_45  and  C_49
   25  A    between atoms: C_45  and  C_65
   26  A    between atoms: C_46  and  C_58
   27  A    between atoms: C_60  and  C_65
                            x       y       z     vdW  Elec       q    Type
                         _______ _______ _______ _____ _____    ______ ____

>  <TORSDO>
F 27

$$$$
=
 OpenBabel10232410063D

 68 76  0  0  1  0  0  0  0  0999 V2000
  182.7460  179.5150  143.4470 C   0  0  0  0  0  1  0  0  0  0  0  0
  184.4120  178.3030  140.3130 O   0  0  0  0  0  0  0  0  0  0  0  0
  185.2350  179.3480  142.7970 C   0  0  2  0  0  3  0  0  0  0  0  0
  183.7830  179.0870  142.4670 C   0  0  0  0  0  0  0  0  0  0  0  0
  186.1360  179.1120  141.6680 N   0  0  0  0  0  0  0  0  0  0  0  0
  183.4300  178.5920  141.2720 C   0  0  0  0  0  0  0  0  0  0  0  0
  185.7590  178.6190  140.5310 C   0  0  0  0  0  0  0  0  0  0  0  0
  186.7180  178.4370  139.5360 O   0  0  0  0  0  0  0  0  0  0  0  0
  186.5440  178.8840  138.2000 C   0  0  0  0  0  2  0  0  0  0  0  0
  186.4410  177.6800  137.2670 C   0  0  0  0  0  2  0  0  0  0  0  0
  187.3390  176.5280  137.6980 C   0  0  0  0  0  2  0  0  0  0  0  0
  188.0580  174.5450  136.2930 C   0  0  1  0  0  0  0  0  0  0  0  0
  187.1850  175.3950  135.5990 O   0  0  0  0  0  0  0  0  0  0  0  0
  186.9360  175.2440  136.9780 C   0  0  2  0  0  3  0  0  0  0  0  0
  187.7890  173.0850  135.9000 C   0  0  1  0  0  0  0  0  0  0  0  0
  188.8530  172.2380  136.2450 O   0  0  0  0  0  0  0  0  0  0  0  0
  187.7320  172.2230  137.0930 C   0  0  2  0  0  3  0  0  0  0  0  0
  186.5730  172.6320  136.4230 O   0  0  0  0  0  0  0  0  0  0  0  0
  189.4750  175.1260  136.2790 C   0  0  0  0  0  2  0  0  0  0  0  0
  190.2380  174.5130  135.2820 O   0  0  0  0  0  0  0  0  0  0  0  0
  192.9390  172.8110  136.2550 C   0  0  0  0  0  2  0  0  0  0  0  0
  194.2480  174.2950  137.4950 C   0  0  0  0  0  2  0  0  0  0  0  0
  191.5660  174.7790  135.6270 C   0  0  1  0  0  3  0  0  0  0  0  0
  191.6850  176.2020  136.1370 C   0  0  0  0  0  2  0  0  0  0  0  0
  192.8020  174.6950  137.7220 C   0  0  1  0  0  3  0  0  0  0  0  0
  194.3170  173.2500  136.4710 N   0  0  2  0  0  0  0  0  0  0  0  0
  192.6000  176.1530  137.3550 C   0  0  0  0  0  2  0  0  0  0  0  0
  191.9900  173.8700  136.7650 C   0  0  2  0  0  3  0  0  0  0  0  0
  196.9100  175.0220  135.8100 C   0  0  0  0  0  3  0  0  0  0  0  0
  195.7510  172.8360  134.4330 C   0  0  2  0  0  3  0  0  0  0  0  0
  195.2910  171.4580  134.3610 N   0  0  0  0  0  0  0  0  0  0  0  0
  195.6380  175.0440  135.5000 N   0  0  0  0  0  0  0  0  0  0  0  0
  197.3030  171.4530  135.4300 N   0  0  0  0  0  0  0  0  0  0  0  0
  197.0170  172.6810  135.1670 C   0  0  0  0  0  0  0  0  0  0  0  0
  196.2120  170.7150  134.8920 C   0  0  0  0  0  3  0  0  0  0  0  0
  194.8490  173.8230  135.2160 C   0  0  2  0  0  3  0  0  0  0  0  0
  197.6460  173.7920  135.7910 N   0  0  0  0  0  2  0  0  0  0  0  0
  185.6820  178.5150  143.9980 C   0  0  0  0  0  2  0  0  0  0  0  0
  185.5890  179.3070  145.3000 C   0  0  0  0  0  2  0  0  0  0  0  0
  185.9070  178.4470  146.5180 C   0  0  2  0  0  3  0  0  0  0  0  0
  184.6410  177.9650  147.2090 C   0  0  0  0  0  1  0  0  0  0  0  0
  186.8540  179.1580  147.4870 C   0  0  0  0  0  2  0  0  0  0  0  0
  187.8160  178.2360  148.1710 C   0  0  0  0  0  0  0  0  0  0  0  0
  187.7600  178.0890  149.3830 O   0  0  0  0  0  0  0  0  0  0  0  0
  188.3530  176.1730  147.1580 O   0  0  0  0  0  1  0  0  0  0  0  0
  188.8120  177.4740  147.3610 C   0  0  1  0  0  3  0  0  0  0  0  0
  189.0890  178.1490  146.0160 C   0  0  1  0  0  3  0  0  0  0  0  0
  189.9310  179.2580  146.1660 O   0  0  0  0  0  1  0  0  0  0  0  0
  189.6630  177.1490  145.0050 C   0  0  2  0  0  3  0  0  0  0  0  0
  191.5290  175.6670  144.6490 O   0  0  0  0  0  1  0  0  0  0  0  0
  191.1800  176.9290  145.1340 C   0  0  2  0  0  3  0  0  0  0  0  0
  191.6460  177.0550  146.5790 C   0  0  0  0  0  2  0  0  0  0  0  0
  191.3310  174.7180  147.3410 C   0  0  0  0  0  1  0  0  0  0  0  0
  193.1210  176.0430  148.1750 O   0  0  0  0  0  1  0  0  0  0  0  0
  192.3580  175.7900  147.0300 C   0  0  2  0  0  3  0  0  0  0  0  0
  189.3060  177.6170  143.6040 C   0  0  0  0  0  2  0  0  0  0  0  0
  189.3620  176.4750  142.6500 C   0  0  0  0  0  0  0  0  0  0  0  0
  188.6330  175.3190  142.9050 O   0  0  0  0  0  1  0  0  0  0  0  0
  190.0370  176.5680  141.5900 O   0  0  0  0  0  0  0  0  0  0  0  0
  182.0810  178.3720  140.9850 O   0  0  0  0  0  0  0  0  0  0  0  0
  181.5240  177.0690  140.8560 C   0  0  0  0  0  2  0  0  0  0  0  0
  180.6570  175.8680  138.8790 C   0  0  0  0  0  2  0  0  0  0  0  0
  180.4150  177.0370  139.8090 C   0  0  2  0  0  3  0  0  0  0  0  0
  180.9090  177.6630  137.5610 C   0  0  1  0  0  3  0  0  0  0  0  0
  181.3320  176.3360  137.7380 O   0  0  0  0  0  0  0  0  0  0  0  0
  180.5180  178.2330  138.9050 C   0  0  0  0  0  2  0  0  0  0  0  0
  182.0350  178.4930  136.9790 C   0  0  0  0  0  2  0  0  0  0  0  0
  183.0880  177.6700  136.5850 O   0  0  0  0  0  1  0  0  0  0  0  0
  2  7  1  0  0  0  0
  2  6  1  0  0  0  0
  3 38  1  1  0  0  0
  4  3  1  0  0  0  0
  4  1  1  0  0  0  0
  5  3  1  0  0  0  0
  6  4  2  0  0  0  0
  7  5  2  0  0  0  0
  8  7  1  0  0  0  0
  9  8  1  0  0  0  0
 10 11  1  0  0  0  0
 10  9  1  0  0  0  0
 12 19  1  1  0  0  0
 12 14  1  0  0  0  0
 13 12  1  0  0  0  0
 13 14  1  0  0  0  0
 14 11  1  1  0  0  0
 15 16  1  6  0  0  0
 15 12  1  0  0  0  0
 15 18  1  0  0  0  0
 15 17  1  0  0  0  0
 17 16  1  6  0  0  0
 18 17  1  0  0  0  0
 20 19  1  0  0  0  0
 22 25  1  0  0  0  0
 23 20  1  1  0  0  0
 23 24  1  0  0  0  0
 23 28  1  0  0  0  0
 24 27  1  0  0  0  0
 25 27  1  6  0  0  0
 26 21  1  6  0  0  0
 26 22  1  0  0  0  0
 28 21  1  6  0  0  0
 28 25  1  0  0  0  0
 30 31  1  1  0  0  0
 30 34  1  0  0  0  0
 30 36  1  0  0  0  0
 31 35  2  0  0  0  0
 32 29  2  0  0  0  0
 34 33  2  0  0  0  0
 34 37  1  0  0  0  0
 35 33  1  0  0  0  0
 36 32  1  1  0  0  0
 36 26  1  0  0  0  0
 37 29  1  0  0  0  0
 38 39  1  0  0  0  0
 39 40  1  0  0  0  0
 40 41  1  1  0  0  0
 40 42  1  0  0  0  0
 42 43  1  0  0  0  0
 43 44  2  0  0  0  0
 46 45  1  6  0  0  0
 46 43  1  0  0  0  0
 47 48  1  1  0  0  0
 47 46  1  0  0  0  0
 49 56  1  6  0  0  0
 49 51  1  0  0  0  0
 49 47  1  0  0  0  0
 51 50  1  1  0  0  0
 51 52  1  0  0  0  0
 52 55  1  0  0  0  0
 55 53  1  1  0  0  0
 55 54  1  0  0  0  0
 57 58  1  0  0  0  0
 57 56  1  0  0  0  0
 59 57  2  0  0  0  0
 60  6  1  0  0  0  0
 61 60  1  0  0  0  0
 62 63  1  0  0  0  0
 63 61  1  1  0  0  0
 64 67  1  1  0  0  0
 64 65  1  0  0  0  0
 64 66  1  0  0  0  0
 65 62  1  0  0  0  0
 66 63  1  0  0  0  0
 68 67  1  0  0  0  0
M  END
>  <MODEL>
8

>  <REMARK>
 VINA RESULT:      -4.9      1.678      2.851
  Name = 
  27 active torsions:
  status: ('A' for Active; 'I' for Inactive)
    1  A    between atoms: C_2  and  C_39
    2  A    between atoms: C_5  and  C_22
    3  A    between atoms: C_5  and  C_42
    4  A    between atoms: C_6  and  C_31
    5  A    between atoms: C_8  and  C_22
    6  A    between atoms: C_8  and  C_59
    7  A    between atoms: C_11  and  C_46
    8  A    between atoms: C_11  and  C_57
    9  A    between atoms: C_15  and  C_63
   10  A    between atoms: C_16  and  C_32
   11  A    between atoms: C_18  and  C_59
   12  A    between atoms: C_21  and  O_66
   13  A    between atoms: C_24  and  C_25
   14  A    between atoms: C_24  and  C_60
   15  A    between atoms: O_26  and  C_53
   16  A    between atoms: O_26  and  C_63
   17  A    between atoms: C_31  and  C_33
   18  A    between atoms: C_33  and  O_66
   19  A    between atoms: O_35  and  C_58
   20  A    between atoms: O_35  and  C_67
   21  A    between atoms: C_39  and  C_65
   22  A    between atoms: N_41  and  C_50
   23  A    between atoms: C_42  and  C_49
   24  A    between atoms: C_45  and  C_49
   25  A    between atoms: C_45  and  C_65
   26  A    between atoms: C_46  and  C_58
   27  A    between atoms: C_60  and  C_65
                            x       y       z     vdW  Elec       q    Type
                         _______ _______ _______ _____ _____    ______ ____

>  <TORSDO>
F 27

$$$$
=
 OpenBabel10232410063D

 68 76  0  0  1  0  0  0  0  0999 V2000
  182.0480  178.7890  141.7330 C   0  0  0  0  0  1  0  0  0  0  0  0
  184.4890  177.6050  139.1420 O   0  0  0  0  0  0  0  0  0  0  0  0
  184.5520  179.3020  141.3910 C   0  0  2  0  0  3  0  0  0  0  0  0
  183.3130  178.5370  140.9860 C   0  0  0  0  0  0  0  0  0  0  0  0
  185.6560  179.1570  140.4420 N   0  0  0  0  0  0  0  0  0  0  0  0
  183.3210  177.7410  139.9070 C   0  0  0  0  0  0  0  0  0  0  0  0
  185.6320  178.3670  139.4160 C   0  0  0  0  0  0  0  0  0  0  0  0
  186.7530  178.3160  138.5900 O   0  0  0  0  0  0  0  0  0  0  0  0
  188.0130  177.8240  139.0210 C   0  0  0  0  0  2  0  0  0  0  0  0
  188.8870  177.5230  137.8070 C   0  0  0  0  0  2  0  0  0  0  0  0
  188.0790  177.3850  136.5240 C   0  0  0  0  0  2  0  0  0  0  0  0
  187.5590  174.9130  136.3080 C   0  0  1  0  0  0  0  0  0  0  0  0
  186.8260  175.6880  135.3970 O   0  0  0  0  0  0  0  0  0  0  0  0
  187.0490  176.2670  136.6630 C   0  0  2  0  0  3  0  0  0  0  0  0
  186.7050  173.7340  136.7970 C   0  0  1  0  0  0  0  0  0  0  0  0
  186.4060  172.8320  135.7650 O   0  0  0  0  0  0  0  0  0  0  0  0
  187.4340  172.4630  136.6500 C   0  0  2  0  0  3  0  0  0  0  0  0
  187.2960  173.0950  137.8920 O   0  0  0  0  0  0  0  0  0  0  0  0
  188.9850  174.7040  135.7910 C   0  0  0  0  0  2  0  0  0  0  0  0
  189.8190  174.2870  136.8310 O   0  0  0  0  0  0  0  0  0  0  0  0
  192.8320  175.3370  137.8070 C   0  0  0  0  0  2  0  0  0  0  0  0
  193.9950  175.9160  135.8660 C   0  0  0  0  0  2  0  0  0  0  0  0
  191.1130  174.3620  136.3090 C   0  0  1  0  0  3  0  0  0  0  0  0
  191.0500  174.4230  134.7960 C   0  0  0  0  0  2  0  0  0  0  0  0
  192.5300  176.2090  135.6010 C   0  0  1  0  0  3  0  0  0  0  0  0
  194.1370  175.2340  137.1550 N   0  0  2  0  0  0  0  0  0  0  0  0
  192.0670  175.4710  134.3590 C   0  0  0  0  0  2  0  0  0  0  0  0
  191.7770  175.6450  136.7710 C   0  0  2  0  0  3  0  0  0  0  0  0
  196.1070  173.7410  135.1070 C   0  0  0  0  0  3  0  0  0  0  0  0
  195.5820  173.2820  137.8510 C   0  0  2  0  0  3  0  0  0  0  0  0
  195.5290  173.7100  139.2410 N   0  0  0  0  0  0  0  0  0  0  0  0
  194.8740  173.5920  135.5220 N   0  0  0  0  0  0  0  0  0  0  0  0
  197.4840  174.4800  138.3610 N   0  0  0  0  0  0  0  0  0  0  0  0
  196.8570  173.8730  137.4140 C   0  0  0  0  0  0  0  0  0  0  0  0
  196.6350  174.3390  139.4940 C   0  0  0  0  0  3  0  0  0  0  0  0
  194.4560  173.8070  136.9260 C   0  0  2  0  0  3  0  0  0  0  0  0
  197.1600  174.0310  136.0350 N   0  0  0  0  0  2  0  0  0  0  0  0
  185.0150  178.8930  142.7890 C   0  0  0  0  0  2  0  0  0  0  0  0
  184.0260  179.3390  143.8640 C   0  0  0  0  0  2  0  0  0  0  0  0
  184.4960  178.9670  145.2660 C   0  0  2  0  0  3  0  0  0  0  0  0
  185.3200  180.0800  145.8940 C   0  0  0  0  0  1  0  0  0  0  0  0
  185.2330  177.6270  145.2840 C   0  0  0  0  0  2  0  0  0  0  0  0
  186.5180  177.6590  146.0530 C   0  0  0  0  0  0  0  0  0  0  0  0
  186.5230  177.3720  147.2410 O   0  0  0  0  0  0  0  0  0  0  0  0
  188.8360  178.0460  146.2750 O   0  0  0  0  0  1  0  0  0  0  0  0
  187.7900  178.0080  145.3520 C   0  0  1  0  0  3  0  0  0  0  0  0
  188.1130  177.0170  144.2320 C   0  0  1  0  0  3  0  0  0  0  0  0
  187.5700  177.4350  143.0100 O   0  0  0  0  0  1  0  0  0  0  0  0
  189.6250  176.7890  144.1180 C   0  0  2  0  0  3  0  0  0  0  0  0
  191.2710  175.2380  143.2860 O   0  0  0  0  0  1  0  0  0  0  0  0
  190.0290  175.8100  143.0030 C   0  0  2  0  0  3  0  0  0  0  0  0
  190.0950  176.4990  141.6460 C   0  0  0  0  0  2  0  0  0  0  0  0
  191.6850  177.6550  140.1370 C   0  0  0  0  0  1  0  0  0  0  0  0
  192.3570  176.9470  142.3060 O   0  0  0  0  0  1  0  0  0  0  0  0
  191.2740  177.4580  141.5830 C   0  0  2  0  0  3  0  0  0  0  0  0
  190.1460  176.3140  145.4640 C   0  0  0  0  0  2  0  0  0  0  0  0
  191.4530  176.9590  145.7670 C   0  0  0  0  0  0  0  0  0  0  0  0
  191.8920  178.0350  145.0030 O   0  0  0  0  0  0  0  0  0  0  0  0
  192.1470  176.5590  146.7400 O   0  0  0  0  0  1  0  0  0  0  0  0
  182.1590  177.0550  139.5440 O   0  0  0  0  0  0  0  0  0  0  0  0
  181.2980  177.4960  138.5000 C   0  0  0  0  0  2  0  0  0  0  0  0
  180.9820  179.3690  136.9220 C   0  0  0  0  0  2  0  0  0  0  0  0
  182.0110  178.4610  137.5590 C   0  0  2  0  0  3  0  0  0  0  0  0
  181.7860  178.1790  135.2020 C   0  0  1  0  0  3  0  0  0  0  0  0
  180.6390  178.8430  135.6640 O   0  0  0  0  0  0  0  0  0  0  0  0
  182.5930  177.7150  136.3920 C   0  0  0  0  0  2  0  0  0  0  0  0
  181.3890  176.9740  134.3730 C   0  0  0  0  0  2  0  0  0  0  0  0
  180.4920  176.1760  135.0810 O   0  0  0  0  0  1  0  0  0  0  0  0
  2  7  1  0  0  0  0
  2  6  1  0  0  0  0
  3 38  1  1  0  0  0
  4  3  1  0  0  0  0
  4  1  1  0  0  0  0
  5  3  1  0  0  0  0
  6  4  2  0  0  0  0
  7  5  2  0  0  0  0
  8  9  1  0  0  0  0
  8  7  1  0  0  0  0
 10  9  1  0  0  0  0
 11 10  1  0  0  0  0
 12 19  1  6  0  0  0
 12 14  1  0  0  0  0
 12 15  1  0  0  0  0
 13 12  1  0  0  0  0
 13 14  1  0  0  0  0
 14 11  1  6  0  0  0
 15 16  1  6  0  0  0
 15 18  1  0  0  0  0
 17 16  1  1  0  0  0
 17 15  1  0  0  0  0
 17 18  1  0  0  0  0
 19 20  1  0  0  0  0
 23 28  1  0  0  0  0
 23 20  1  1  0  0  0
 24 23  1  0  0  0  0
 25 27  1  6  0  0  0
 25 22  1  0  0  0  0
 25 28  1  0  0  0  0
 26 22  1  6  0  0  0
 26 21  1  0  0  0  0
 27 24  1  0  0  0  0
 28 21  1  1  0  0  0
 29 32  2  0  0  0  0
 29 37  1  0  0  0  0
 30 34  1  6  0  0  0
 30 31  1  0  0  0  0
 31 35  2  0  0  0  0
 33 35  1  0  0  0  0
 34 33  2  0  0  0  0
 36 32  1  6  0  0  0
 36 26  1  0  0  0  0
 36 30  1  0  0  0  0
 37 34  1  0  0  0  0
 38 39  1  0  0  0  0
 39 40  1  0  0  0  0
 40 42  1  0  0  0  0
 40 41  1  6  0  0  0
 42 43  1  0  0  0  0
 43 44  2  0  0  0  0
 46 43  1  0  0  0  0
 46 45  1  1  0  0  0
 47 48  1  6  0  0  0
 47 46  1  0  0  0  0
 49 47  1  0  0  0  0
 49 56  1  1  0  0  0
 51 50  1  1  0  0  0
 51 49  1  0  0  0  0
 52 51  1  0  0  0  0
 55 53  1  6  0  0  0
 55 52  1  0  0  0  0
 55 54  1  0  0  0  0
 56 57  1  0  0  0  0
 57 59  1  0  0  0  0
 58 57  2  0  0  0  0
 60  6  1  0  0  0  0
 61 60  1  0  0  0  0
 62 63  1  0  0  0  0
 63 61  1  1  0  0  0
 64 67  1  1  0  0  0
 64 65  1  0  0  0  0
 64 66  1  0  0  0  0
 65 62  1  0  0  0  0
 66 63  1  0  0  0  0
 67 68  1  0  0  0  0
M  END
>  <MODEL>
9

>  <REMARK>
 VINA RESULT:      -4.7      1.466      2.195
  Name = 
  27 active torsions:
  status: ('A' for Active; 'I' for Inactive)
    1  A    between atoms: C_2  and  C_39
    2  A    between atoms: C_5  and  C_22
    3  A    between atoms: C_5  and  C_42
    4  A    between atoms: C_6  and  C_31
    5  A    between atoms: C_8  and  C_22
    6  A    between atoms: C_8  and  C_59
    7  A    between atoms: C_11  and  C_46
    8  A    between atoms: C_11  and  C_57
    9  A    between atoms: C_15  and  C_63
   10  A    between atoms: C_16  and  C_32
   11  A    between atoms: C_18  and  C_59
   12  A    between atoms: C_21  and  O_66
   13  A    between atoms: C_24  and  C_25
   14  A    between atoms: C_24  and  C_60
   15  A    between atoms: O_26  and  C_53
   16  A    between atoms: O_26  and  C_63
   17  A    between atoms: C_31  and  C_33
   18  A    between atoms: C_33  and  O_66
   19  A    between atoms: O_35  and  C_58
   20  A    between atoms: O_35  and  C_67
   21  A    between atoms: C_39  and  C_65
   22  A    between atoms: N_41  and  C_50
   23  A    between atoms: C_42  and  C_49
   24  A    between atoms: C_45  and  C_49
   25  A    between atoms: C_45  and  C_65
   26  A    between atoms: C_46  and  C_58
   27  A    between atoms: C_60  and  C_65
                            x       y       z     vdW  Elec       q    Type
                         _______ _______ _______ _____ _____    ______ ____

>  <TORSDO>
F 27

$$$$
