=
 OpenBabel10232410293D

 43 48  0  0  1  0  0  0  0  0999 V2000
  188.4760  177.3600  144.0780 C   0  0  0  0  0  0  0  0  0  0  0  0
  184.3690  178.5090  143.9630 C   0  0  0  0  0  0  0  0  0  0  0  0
  189.1430  177.3040  145.3430 C   0  0  0  0  0  0  0  0  0  0  0  0
  185.0710  178.4370  145.1780 C   0  0  0  0  0  3  0  0  0  0  0  0
  187.0870  178.0510  146.4310 C   0  0  0  0  0  3  0  0  0  0  0  0
  192.4060  176.4880  147.0100 O   0  0  0  0  0  1  0  0  0  0  0  0
  187.1090  177.7630  144.0240 C   0  0  0  0  0  0  0  0  0  0  0  0
  191.0840  176.8760  146.7990 C   0  0  0  0  0  0  0  0  0  0  0  0
  185.0480  178.2340  142.7790 C   0  0  0  0  0  3  0  0  0  0  0  0
  190.5020  176.8720  145.5030 C   0  0  0  0  0  0  0  0  0  0  0  0
  188.4190  177.6740  146.5100 C   0  0  0  0  0  0  0  0  0  0  0  0
  186.4210  178.0850  145.2120 C   0  0  0  0  0  0  0  0  0  0  0  0
  189.0190  177.6620  147.7650 C   0  0  0  0  0  3  0  0  0  0  0  0
  186.4040  177.8700  142.8100 C   0  0  0  0  0  3  0  0  0  0  0  0
  190.3390  177.2700  147.9070 C   0  0  0  0  0  3  0  0  0  0  0  0
  182.9600  178.7470  143.9020 N   0  0  0  0  0  0  0  0  0  0  0  0
  182.2380  178.9030  142.8310 C   0  0  0  0  0  0  0  0  0  0  0  0
  180.7930  179.1900  143.0010 C   0  0  0  0  0  0  0  0  0  0  0  0
  179.9820  178.2910  143.3400 O   0  0  0  0  0  1  0  0  0  0  0  0
  180.3290  180.4820  142.7900 O   0  0  0  0  0  0  0  0  0  0  0  0
  182.8160  178.7380  141.5620 O   0  0  0  0  0  0  0  0  0  0  0  0
  182.6330  176.5790  139.8380 C   0  0  0  0  0  2  0  0  0  0  0  0
  181.2210  175.7650  138.0710 O   0  0  0  0  0  0  0  0  0  0  0  0
  181.2410  178.1550  138.2680 C   0  0  0  0  0  2  0  0  0  0  0  0
  182.1150  178.9110  140.3850 N   0  0  0  0  0  0  0  0  0  0  0  0
  182.0500  177.9420  139.5140 C   0  0  0  0  0  0  0  0  0  0  0  0
  181.3470  176.9650  137.3420 C   0  0  0  0  0  2  0  0  0  0  0  0
  182.4730  175.5930  138.6900 C   0  0  0  0  0  2  0  0  0  0  0  0
  191.6490  175.1610  144.0600 C   0  0  0  0  0  2  0  0  0  0  0  0
  191.2950  176.4130  144.3280 C   0  0  0  0  0  3  0  0  0  0  0  0
  189.1950  177.0370  142.9080 O   0  0  0  0  0  0  0  0  0  0  0  0
  190.5890  177.7750  141.1040 C   0  0  0  0  0  2  0  0  0  0  0  0
  189.1990  177.7990  141.7090 C   0  0  1  0  0  3  0  0  0  0  0  0
  189.5000  176.8720  140.5390 C   0  0  1  0  0  3  0  0  0  0  0  0
  188.9020  177.4400  139.2870 C   0  0  0  0  0  0  0  0  0  0  0  0
  187.8260  178.6640  136.9970 C   0  0  0  0  0  3  0  0  0  0  0  0
  186.9720  178.2390  138.0300 C   0  0  0  0  0  0  0  0  0  0  0  0
  189.2090  178.4850  137.1090 C   0  0  0  0  0  3  0  0  0  0  0  0
  189.7450  177.8790  138.2520 C   0  0  0  0  0  3  0  0  0  0  0  0
  187.5180  177.6350  139.1750 C   0  0  0  0  0  3  0  0  0  0  0  0
  184.7590  177.6500  137.0670 O   0  0  0  0  0  0  0  0  0  0  0  0
  184.9420  179.3170  138.6420 O   0  0  0  0  0  1  0  0  0  0  0  0
  185.5170  178.4450  137.9310 C   0  0  0  0  0  0  0  0  0  0  0  0
  1  3  1  0  0  0  0
  2  4  2  0  0  0  0
  3 10  2  0  0  0  0
  3 11  1  0  0  0  0
  4 12  1  0  0  0  0
  5 11  1  0  0  0  0
  7  1  2  0  0  0  0
  7 12  1  0  0  0  0
  8  6  1  0  0  0  0
  8 15  2  0  0  0  0
  9 14  2  0  0  0  0
  9  2  1  0  0  0  0
 10  8  1  0  0  0  0
 11 13  2  0  0  0  0
 12  5  2  0  0  0  0
 13 15  1  0  0  0  0
 14  7  1  0  0  0  0
 16  2  1  0  0  0  0
 17 18  1  0  0  0  0
 17 16  2  0  0  0  0
 18 19  1  0  0  0  0
 20 18  2  0  0  0  0
 21 17  1  0  0  0  0
 23 28  1  0  0  0  0
 24 26  1  0  0  0  0
 25 21  1  0  0  0  0
 26 22  1  0  0  0  0
 26 25  2  0  0  0  0
 27 23  1  0  0  0  0
 27 24  1  0  0  0  0
 28 22  1  0  0  0  0
 29 30  2  0  0  0  0
 30 10  1  0  0  0  0
 31  1  1  0  0  0  0
 32 33  1  0  0  0  0
 33 31  1  1  0  0  0
 34 35  1  6  0  0  0
 34 32  1  0  0  0  0
 34 33  1  0  0  0  0
 36 38  2  0  0  0  0
 36 37  1  0  0  0  0
 37 40  2  0  0  0  0
 38 39  1  0  0  0  0
 39 35  2  0  0  0  0
 40 35  1  0  0  0  0
 41 43  2  0  0  0  0
 43 37  1  0  0  0  0
 43 42  1  0  0  0  0
M  END
>  <MODEL>
1

>  <REMARK>
 VINA RESULT:     -10.6      0.000      0.000
  Name = 
  9 active torsions:
  status: ('A' for Active; 'I' for Inactive)
    1  A    between atoms: C_2  and  O_43
    2  A    between atoms: C_3  and  N_10
    3  A    between atoms: C_6  and  C_36
    4  A    between atoms: C_11  and  O_43
    5  A    between atoms: C_18  and  C_31
    6  A    between atoms: C_19  and  C_32
    7  A    between atoms: C_20  and  C_38
    8  A    between atoms: N_22  and  O_35
    9  A    between atoms: C_31  and  O_35
                            x       y       z     vdW  Elec       q    Type
                         _______ _______ _______ _____ _____    ______ ____

>  <TORSDO>
F 9

$$$$
=
 OpenBabel10232410293D

 43 48  0  0  1  0  0  0  0  0999 V2000
  188.0990  177.9870  143.9860 C   0  0  0  0  0  0  0  0  0  0  0  0
  190.6640  177.2810  140.6510 C   0  0  0  0  0  0  0  0  0  0  0  0
  188.5910  177.7280  145.3050 C   0  0  0  0  0  0  0  0  0  0  0  0
  191.0980  177.0450  141.9670 C   0  0  0  0  0  3  0  0  0  0  0  0
  190.7080  176.9820  144.3390 C   0  0  0  0  0  3  0  0  0  0  0  0
  187.7090  177.8830  148.9500 O   0  0  0  0  0  1  0  0  0  0  0  0
  188.9390  177.7350  142.8620 C   0  0  0  0  0  0  0  0  0  0  0  0
  188.4050  177.6730  147.7600 C   0  0  0  0  0  0  0  0  0  0  0  0
  189.3590  177.7180  140.4440 C   0  0  0  0  0  3  0  0  0  0  0  0
  187.8370  177.9880  146.4970 C   0  0  0  0  0  0  0  0  0  0  0  0
  189.9070  177.2060  145.4480 C   0  0  0  0  0  0  0  0  0  0  0  0
  190.2500  177.2520  143.0560 C   0  0  0  0  0  0  0  0  0  0  0  0
  190.4340  176.9130  146.7020 C   0  0  0  0  0  3  0  0  0  0  0  0
  188.5050  177.9380  141.5380 C   0  0  0  0  0  3  0  0  0  0  0  0
  189.6880  177.1420  147.8460 C   0  0  0  0  0  3  0  0  0  0  0  0
  191.5410  177.1960  139.5250 N   0  0  0  0  0  0  0  0  0  0  0  0
  191.5280  176.2930  138.5890 C   0  0  0  0  0  0  0  0  0  0  0  0
  192.5680  176.3690  137.5340 C   0  0  0  0  0  0  0  0  0  0  0  0
  193.7740  176.5830  137.8160 O   0  0  0  0  0  1  0  0  0  0  0  0
  192.2010  176.1900  136.2060 O   0  0  0  0  0  0  0  0  0  0  0  0
  190.5140  175.3220  138.5610 O   0  0  0  0  0  0  0  0  0  0  0  0
  188.2700  174.9990  136.9700 C   0  0  0  0  0  2  0  0  0  0  0  0
  187.6430  173.9960  134.8780 O   0  0  0  0  0  0  0  0  0  0  0  0
  189.4910  172.9100  135.9530 C   0  0  0  0  0  2  0  0  0  0  0  0
  190.5030  174.2680  137.6690 N   0  0  0  0  0  0  0  0  0  0  0  0
  189.4460  174.0390  136.9410 C   0  0  0  0  0  0  0  0  0  0  0  0
  188.1580  172.7410  135.2610 C   0  0  0  0  0  2  0  0  0  0  0  0
  187.1320  174.5470  136.0680 C   0  0  0  0  0  2  0  0  0  0  0  0
  185.3460  178.0380  146.8410 C   0  0  0  0  0  2  0  0  0  0  0  0
  186.4770  178.5920  146.4180 C   0  0  0  0  0  3  0  0  0  0  0  0
  186.7810  178.4640  143.8280 O   0  0  0  0  0  0  0  0  0  0  0  0
  184.4400  178.4140  143.3190 C   0  0  0  0  0  2  0  0  0  0  0  0
  185.8240  177.9460  142.9140 C   0  0  1  0  0  3  0  0  0  0  0  0
  185.1710  179.1080  142.1770 C   0  0  1  0  0  3  0  0  0  0  0  0
  184.6840  178.6380  140.8390 C   0  0  0  0  0  0  0  0  0  0  0  0
  183.8030  177.5920  138.3830 C   0  0  0  0  0  3  0  0  0  0  0  0
  185.0860  178.1580  138.4830 C   0  0  0  0  0  0  0  0  0  0  0  0
  182.9660  177.5440  139.5030 C   0  0  0  0  0  3  0  0  0  0  0  0
  183.4080  178.0610  140.7280 C   0  0  0  0  0  3  0  0  0  0  0  0
  185.5220  178.6720  139.7160 C   0  0  0  0  0  3  0  0  0  0  0  0
  187.2420  178.7880  137.4210 O   0  0  0  0  0  1  0  0  0  0  0  0
  185.6330  177.6630  136.2210 O   0  0  0  0  0  0  0  0  0  0  0  0
  185.9820  178.1930  137.3140 C   0  0  0  0  0  0  0  0  0  0  0  0
  1  3  1  0  0  0  0
  2  4  2  0  0  0  0
  3 11  2  0  0  0  0
  3 10  1  0  0  0  0
  4 12  1  0  0  0  0
  5 11  1  0  0  0  0
  7 12  1  0  0  0  0
  7  1  2  0  0  0  0
  8 15  1  0  0  0  0
  8  6  1  0  0  0  0
  9  2  1  0  0  0  0
  9 14  2  0  0  0  0
 10  8  2  0  0  0  0
 11 13  1  0  0  0  0
 12  5  2  0  0  0  0
 13 15  2  0  0  0  0
 14  7  1  0  0  0  0
 16  2  1  0  0  0  0
 17 16  2  0  0  0  0
 18 19  1  0  0  0  0
 18 17  1  0  0  0  0
 20 18  2  0  0  0  0
 21 17  1  0  0  0  0
 23 27  1  0  0  0  0
 23 28  1  0  0  0  0
 24 26  1  0  0  0  0
 25 21  1  0  0  0  0
 26 22  1  0  0  0  0
 26 25  2  0  0  0  0
 27 24  1  0  0  0  0
 28 22  1  0  0  0  0
 30 10  1  0  0  0  0
 30 29  2  0  0  0  0
 31  1  1  0  0  0  0
 33 32  1  0  0  0  0
 33 31  1  1  0  0  0
 34 35  1  6  0  0  0
 34 33  1  0  0  0  0
 34 32  1  0  0  0  0
 36 37  2  0  0  0  0
 36 38  1  0  0  0  0
 37 40  1  0  0  0  0
 38 39  2  0  0  0  0
 39 35  1  0  0  0  0
 40 35  2  0  0  0  0
 42 43  2  0  0  0  0
 43 41  1  0  0  0  0
 43 37  1  0  0  0  0
M  END
>  <MODEL>
2

>  <REMARK>
 VINA RESULT:     -10.5      3.585      6.697
  Name = 
  9 active torsions:
  status: ('A' for Active; 'I' for Inactive)
    1  A    between atoms: C_2  and  O_43
    2  A    between atoms: C_3  and  N_10
    3  A    between atoms: C_6  and  C_36
    4  A    between atoms: C_11  and  O_43
    5  A    between atoms: C_18  and  C_31
    6  A    between atoms: C_19  and  C_32
    7  A    between atoms: C_20  and  C_38
    8  A    between atoms: N_22  and  O_35
    9  A    between atoms: C_31  and  O_35
                            x       y       z     vdW  Elec       q    Type
                         _______ _______ _______ _____ _____    ______ ____

>  <TORSDO>
F 9

$$$$
=
 OpenBabel10232410293D

 43 48  0  0  1  0  0  0  0  0999 V2000
  188.3820  177.8170  144.0180 C   0  0  0  0  0  0  0  0  0  0  0  0
  188.1170  178.0390  139.7660 C   0  0  0  0  0  0  0  0  0  0  0  0
  189.5570  177.2520  144.6100 C   0  0  0  0  0  0  0  0  0  0  0  0
  189.2490  177.4950  140.3980 C   0  0  0  0  0  3  0  0  0  0  0  0
  190.4490  176.8330  142.3740 C   0  0  0  0  0  3  0  0  0  0  0  0
  191.2210  176.4700  147.8830 O   0  0  0  0  0  1  0  0  0  0  0  0
  188.2720  177.8770  142.5980 C   0  0  0  0  0  0  0  0  0  0  0  0
  190.9650  176.5830  146.5160 C   0  0  0  0  0  0  0  0  0  0  0  0
  187.0550  178.4740  140.5530 C   0  0  0  0  0  3  0  0  0  0  0  0
  189.7770  177.1850  146.0260 C   0  0  0  0  0  0  0  0  0  0  0  0
  190.5750  176.7510  143.7520 C   0  0  0  0  0  0  0  0  0  0  0  0
  189.3240  177.4000  141.7890 C   0  0  0  0  0  0  0  0  0  0  0  0
  191.7300  176.1710  144.2670 C   0  0  0  0  0  3  0  0  0  0  0  0
  187.1300  178.3900  141.9530 C   0  0  0  0  0  3  0  0  0  0  0  0
  191.9210  176.0850  145.6360 C   0  0  0  0  0  3  0  0  0  0  0  0
  188.0570  178.2620  138.3550 N   0  0  0  0  0  0  0  0  0  0  0  0
  188.1520  177.3680  137.4160 C   0  0  0  0  0  0  0  0  0  0  0  0
  188.1120  177.8300  136.0070 C   0  0  0  0  0  0  0  0  0  0  0  0
  187.0300  178.1520  135.4540 O   0  0  0  0  0  1  0  0  0  0  0  0
  189.2970  177.9170  135.2880 O   0  0  0  0  0  0  0  0  0  0  0  0
  188.2260  176.0050  137.7470 O   0  0  0  0  0  0  0  0  0  0  0  0
  190.9450  175.4980  137.8710 C   0  0  0  0  0  2  0  0  0  0  0  0
  192.5040  173.7460  137.3440 O   0  0  0  0  0  0  0  0  0  0  0  0
  190.5420  173.7400  135.9650 C   0  0  0  0  0  2  0  0  0  0  0  0
  188.7430  175.0490  136.8950 N   0  0  0  0  0  0  0  0  0  0  0  0
  190.0260  174.8170  136.8740 C   0  0  0  0  0  0  0  0  0  0  0  0
  192.0510  173.6680  136.0110 C   0  0  0  0  0  2  0  0  0  0  0  0
  192.4030  175.1110  137.6730 C   0  0  0  0  0  2  0  0  0  0  0  0
  188.1360  177.0830  147.9300 C   0  0  0  0  0  2  0  0  0  0  0  0
  188.7770  177.7490  146.9760 C   0  0  0  0  0  3  0  0  0  0  0  0
  187.3460  178.2790  144.8570 O   0  0  0  0  0  0  0  0  0  0  0  0
  185.2230  178.3700  145.9640 C   0  0  0  0  0  2  0  0  0  0  0  0
  185.9670  177.9750  144.7040 C   0  0  1  0  0  3  0  0  0  0  0  0
  185.1710  179.2730  144.7380 C   0  0  1  0  0  3  0  0  0  0  0  0
  183.8960  179.0960  143.9710 C   0  0  0  0  0  0  0  0  0  0  0  0
  181.5060  178.5940  142.5780 C   0  0  0  0  0  3  0  0  0  0  0  0
  182.7180  178.7060  141.8720 C   0  0  0  0  0  0  0  0  0  0  0  0
  181.4880  178.7260  143.9700 C   0  0  0  0  0  3  0  0  0  0  0  0
  182.6800  178.9720  144.6640 C   0  0  0  0  0  3  0  0  0  0  0  0
  183.9090  178.9490  142.5770 C   0  0  0  0  0  3  0  0  0  0  0  0
  183.6280  179.3170  139.6430 O   0  0  0  0  0  0  0  0  0  0  0  0
  182.0080  177.6950  139.8400 O   0  0  0  0  0  1  0  0  0  0  0  0
  182.7490  178.5460  140.4090 C   0  0  0  0  0  0  0  0  0  0  0  0
  1  3  1  0  0  0  0
  1 31  1  0  0  0  0
  2  4  2  0  0  0  0
  2  9  1  0  0  0  0
  3 10  1  0  0  0  0
  4 12  1  0  0  0  0
  5 11  1  0  0  0  0
  7  1  2  0  0  0  0
  8  6  1  0  0  0  0
  9 14  2  0  0  0  0
 10  8  2  0  0  0  0
 10 30  1  0  0  0  0
 11 13  1  0  0  0  0
 11  3  2  0  0  0  0
 12  5  2  0  0  0  0
 12  7  1  0  0  0  0
 13 15  2  0  0  0  0
 14  7  1  0  0  0  0
 15  8  1  0  0  0  0
 16  2  1  0  0  0  0
 17 21  1  0  0  0  0
 17 16  2  0  0  0  0
 18 17  1  0  0  0  0
 19 18  1  0  0  0  0
 20 18  2  0  0  0  0
 23 28  1  0  0  0  0
 24 27  1  0  0  0  0
 24 26  1  0  0  0  0
 25 21  1  0  0  0  0
 26 25  2  0  0  0  0
 26 22  1  0  0  0  0
 27 23  1  0  0  0  0
 28 22  1  0  0  0  0
 30 29  2  0  0  0  0
 33 34  1  0  0  0  0
 33 31  1  1  0  0  0
 33 32  1  0  0  0  0
 34 35  1  6  0  0  0
 34 32  1  0  0  0  0
 35 39  1  0  0  0  0
 36 38  1  0  0  0  0
 37 40  1  0  0  0  0
 37 36  2  0  0  0  0
 38 39  2  0  0  0  0
 40 35  2  0  0  0  0
 41 43  2  0  0  0  0
 42 43  1  0  0  0  0
 43 37  1  0  0  0  0
M  END
>  <MODEL>
3

>  <REMARK>
 VINA RESULT:     -10.3      2.843      6.822
  Name = 
  9 active torsions:
  status: ('A' for Active; 'I' for Inactive)
    1  A    between atoms: C_2  and  O_43
    2  A    between atoms: C_3  and  N_10
    3  A    between atoms: C_6  and  C_36
    4  A    between atoms: C_11  and  O_43
    5  A    between atoms: C_18  and  C_31
    6  A    between atoms: C_19  and  C_32
    7  A    between atoms: C_20  and  C_38
    8  A    between atoms: N_22  and  O_35
    9  A    between atoms: C_31  and  O_35
                            x       y       z     vdW  Elec       q    Type
                         _______ _______ _______ _____ _____    ______ ____

>  <TORSDO>
F 9

$$$$
=
 OpenBabel10232410293D

 43 48  0  0  1  0  0  0  0  0999 V2000
  188.3820  177.8100  143.9510 C   0  0  0  0  0  0  0  0  0  0  0  0
  188.1480  178.0230  139.6970 C   0  0  0  0  0  0  0  0  0  0  0  0
  189.5500  177.2420  144.5520 C   0  0  0  0  0  0  0  0  0  0  0  0
  189.2730  177.4780  140.3380 C   0  0  0  0  0  3  0  0  0  0  0  0
  190.4570  176.8150  142.3240 C   0  0  0  0  0  3  0  0  0  0  0  0
  191.1890  176.4610  147.8390 O   0  0  0  0  0  1  0  0  0  0  0  0
  188.2820  177.8670  142.5310 C   0  0  0  0  0  0  0  0  0  0  0  0
  190.9430  176.5720  146.4700 C   0  0  0  0  0  0  0  0  0  0  0  0
  187.0820  178.4640  140.4750 C   0  0  0  0  0  3  0  0  0  0  0  0
  189.7600  177.1770  145.9700 C   0  0  0  0  0  0  0  0  0  0  0  0
  190.5730  176.7360  143.7030 C   0  0  0  0  0  0  0  0  0  0  0  0
  189.3380  177.3850  141.7290 C   0  0  0  0  0  0  0  0  0  0  0  0
  191.7220  176.1530  144.2270 C   0  0  0  0  0  3  0  0  0  0  0  0
  187.1470  178.3830  141.8760 C   0  0  0  0  0  3  0  0  0  0  0  0
  191.9040  176.0700  145.5970 C   0  0  0  0  0  3  0  0  0  0  0  0
  188.0990  178.2440  138.2850 N   0  0  0  0  0  0  0  0  0  0  0  0
  187.9540  177.3460  137.3560 C   0  0  0  0  0  0  0  0  0  0  0  0
  187.9800  177.7940  135.9430 C   0  0  0  0  0  0  0  0  0  0  0  0
  186.9350  178.1740  135.3570 O   0  0  0  0  0  1  0  0  0  0  0  0
  189.1860  177.8010  135.2560 O   0  0  0  0  0  0  0  0  0  0  0  0
  187.7180  176.0050  137.7050 O   0  0  0  0  0  0  0  0  0  0  0  0
  185.8660  173.9780  137.3430 C   0  0  0  0  0  2  0  0  0  0  0  0
  185.3430  172.2410  135.7660 O   0  0  0  0  0  0  0  0  0  0  0  0
  187.6690  172.8210  135.8260 C   0  0  0  0  0  2  0  0  0  0  0  0
  188.0750  174.9430  136.8990 N   0  0  0  0  0  0  0  0  0  0  0  0
  187.2610  173.9360  136.7450 C   0  0  0  0  0  0  0  0  0  0  0  0
  186.6460  171.7090  135.8350 C   0  0  0  0  0  2  0  0  0  0  0  0
  185.0800  172.7050  137.0690 C   0  0  0  0  0  2  0  0  0  0  0  0
  188.1320  177.0930  147.8860 C   0  0  0  0  0  2  0  0  0  0  0  0
  188.7550  177.7470  146.9120 C   0  0  0  0  0  3  0  0  0  0  0  0
  187.3420  178.2770  144.7820 O   0  0  0  0  0  0  0  0  0  0  0  0
  185.2250  178.3200  145.9030 C   0  0  0  0  0  2  0  0  0  0  0  0
  185.9650  177.9640  144.6290 C   0  0  1  0  0  3  0  0  0  0  0  0
  185.1570  179.2540  144.7020 C   0  0  1  0  0  3  0  0  0  0  0  0
  183.8780  179.0840  143.9380 C   0  0  0  0  0  0  0  0  0  0  0  0
  181.4840  178.5960  142.5480 C   0  0  0  0  0  3  0  0  0  0  0  0
  182.6910  178.7320  141.8380 C   0  0  0  0  0  0  0  0  0  0  0  0
  181.4730  178.6970  143.9430 C   0  0  0  0  0  3  0  0  0  0  0  0
  182.6680  178.9360  144.6360 C   0  0  0  0  0  3  0  0  0  0  0  0
  183.8840  178.9680  142.5410 C   0  0  0  0  0  3  0  0  0  0  0  0
  183.7100  179.2510  139.6330 O   0  0  0  0  0  0  0  0  0  0  0  0
  181.8600  177.8900  139.7750 O   0  0  0  0  0  1  0  0  0  0  0  0
  182.7150  178.6040  140.3720 C   0  0  0  0  0  0  0  0  0  0  0  0
  1  3  1  0  0  0  0
  1 31  1  0  0  0  0
  2  4  2  0  0  0  0
  2  9  1  0  0  0  0
  3 10  1  0  0  0  0
  4 12  1  0  0  0  0
  5 11  1  0  0  0  0
  7  1  2  0  0  0  0
  8  6  1  0  0  0  0
  9 14  2  0  0  0  0
 10  8  2  0  0  0  0
 10 30  1  0  0  0  0
 11 13  1  0  0  0  0
 11  3  2  0  0  0  0
 12  5  2  0  0  0  0
 12  7  1  0  0  0  0
 13 15  2  0  0  0  0
 14  7  1  0  0  0  0
 15  8  1  0  0  0  0
 16  2  1  0  0  0  0
 17 21  1  0  0  0  0
 17 16  2  0  0  0  0
 18 17  1  0  0  0  0
 19 18  1  0  0  0  0
 20 18  2  0  0  0  0
 23 27  1  0  0  0  0
 23 28  1  0  0  0  0
 24 27  1  0  0  0  0
 24 26  1  0  0  0  0
 25 21  1  0  0  0  0
 26 25  2  0  0  0  0
 26 22  1  0  0  0  0
 28 22  1  0  0  0  0
 30 29  2  0  0  0  0
 33 34  1  0  0  0  0
 33 31  1  1  0  0  0
 33 32  1  0  0  0  0
 34 35  1  6  0  0  0
 34 32  1  0  0  0  0
 35 39  1  0  0  0  0
 36 38  1  0  0  0  0
 37 40  1  0  0  0  0
 37 36  2  0  0  0  0
 38 39  2  0  0  0  0
 40 35  2  0  0  0  0
 41 43  2  0  0  0  0
 42 43  1  0  0  0  0
 43 37  1  0  0  0  0
M  END
>  <MODEL>
4

>  <REMARK>
 VINA RESULT:     -10.3      2.885      6.144
  Name = 
  9 active torsions:
  status: ('A' for Active; 'I' for Inactive)
    1  A    between atoms: C_2  and  O_43
    2  A    between atoms: C_3  and  N_10
    3  A    between atoms: C_6  and  C_36
    4  A    between atoms: C_11  and  O_43
    5  A    between atoms: C_18  and  C_31
    6  A    between atoms: C_19  and  C_32
    7  A    between atoms: C_20  and  C_38
    8  A    between atoms: N_22  and  O_35
    9  A    between atoms: C_31  and  O_35
                            x       y       z     vdW  Elec       q    Type
                         _______ _______ _______ _____ _____    ______ ____

>  <TORSDO>
F 9

$$$$
=
 OpenBabel10232410293D

 43 48  0  0  1  0  0  0  0  0999 V2000
  188.1030  178.0040  143.9600 C   0  0  0  0  0  0  0  0  0  0  0  0
  190.6000  177.3000  140.5740 C   0  0  0  0  0  0  0  0  0  0  0  0
  188.6210  177.7420  145.2690 C   0  0  0  0  0  0  0  0  0  0  0  0
  191.0600  177.0610  141.8800 C   0  0  0  0  0  3  0  0  0  0  0  0
  190.7170  176.9950  144.2600 C   0  0  0  0  0  3  0  0  0  0  0  0
  187.8110  177.8930  148.9310 O   0  0  0  0  0  1  0  0  0  0  0  0
  188.9200  177.7530  142.8200 C   0  0  0  0  0  0  0  0  0  0  0  0
  188.4830  177.6830  147.7270 C   0  0  0  0  0  0  0  0  0  0  0  0
  189.2920  177.7390  140.3940 C   0  0  0  0  0  3  0  0  0  0  0  0
  187.8910  178.0010  146.4770 C   0  0  0  0  0  0  0  0  0  0  0  0
  189.9390  177.2190  145.3850 C   0  0  0  0  0  0  0  0  0  0  0  0
  190.2340  177.2680  142.9860 C   0  0  0  0  0  0  0  0  0  0  0  0
  190.4900  176.9230  146.6270 C   0  0  0  0  0  3  0  0  0  0  0  0
  188.4600  177.9590  141.5040 C   0  0  0  0  0  3  0  0  0  0  0  0
  189.7670  177.1500  147.7870 C   0  0  0  0  0  3  0  0  0  0  0  0
  191.4540  177.2160  139.4310 N   0  0  0  0  0  0  0  0  0  0  0  0
  191.5000  176.2540  138.5560 C   0  0  0  0  0  0  0  0  0  0  0  0
  192.5040  176.3480  137.4690 C   0  0  0  0  0  0  0  0  0  0  0  0
  192.1580  176.4960  136.2690 O   0  0  0  0  0  0  0  0  0  0  0  0
  193.8540  176.2790  137.7840 O   0  0  0  0  0  1  0  0  0  0  0  0
  190.5760  175.1970  138.6230 O   0  0  0  0  0  0  0  0  0  0  0  0
  188.1690  175.7290  137.3620 C   0  0  0  0  0  2  0  0  0  0  0  0
  187.1210  175.4260  135.2200 O   0  0  0  0  0  0  0  0  0  0  0  0
  188.7730  173.7640  135.7310 C   0  0  0  0  0  2  0  0  0  0  0  0
  190.2360  174.4240  137.5320 N   0  0  0  0  0  0  0  0  0  0  0  0
  189.0860  174.5960  136.9410 C   0  0  0  0  0  0  0  0  0  0  0  0
  187.3740  174.0390  135.2310 C   0  0  0  0  0  2  0  0  0  0  0  0
  186.8720  175.7510  136.5670 C   0  0  0  0  0  2  0  0  0  0  0  0
  185.4050  178.0480  146.8530 C   0  0  0  0  0  2  0  0  0  0  0  0
  186.5310  178.6080  146.4250 C   0  0  0  0  0  3  0  0  0  0  0  0
  186.7830  178.4840  143.8290 O   0  0  0  0  0  0  0  0  0  0  0  0
  184.4250  178.4240  143.4040 C   0  0  0  0  0  2  0  0  0  0  0  0
  185.7930  177.9410  142.9660 C   0  0  1  0  0  3  0  0  0  0  0  0
  185.1170  179.0810  142.2160 C   0  0  1  0  0  3  0  0  0  0  0  0
  184.5830  178.5710  140.9110 C   0  0  0  0  0  0  0  0  0  0  0  0
  183.5370  177.7800  138.4250 C   0  0  0  0  0  3  0  0  0  0  0  0
  182.7920  177.5660  139.5980 C   0  0  0  0  0  0  0  0  0  0  0  0
  184.7950  178.3910  138.4910 C   0  0  0  0  0  3  0  0  0  0  0  0
  185.3130  178.7890  139.7300 C   0  0  0  0  0  3  0  0  0  0  0  0
  183.3190  177.9710  140.8360 C   0  0  0  0  0  3  0  0  0  0  0  0
  180.3360  177.7340  139.2650 O   0  0  0  0  0  0  0  0  0  0  0  0
  181.3210  175.6990  139.6940 O   0  0  0  0  0  1  0  0  0  0  0  0
  181.4590  176.9450  139.5340 C   0  0  0  0  0  0  0  0  0  0  0  0
  1  3  1  0  0  0  0
  2  4  2  0  0  0  0
  3 11  2  0  0  0  0
  3 10  1  0  0  0  0
  4 12  1  0  0  0  0
  5 11  1  0  0  0  0
  7 12  1  0  0  0  0
  7  1  2  0  0  0  0
  8 15  1  0  0  0  0
  8  6  1  0  0  0  0
  9  2  1  0  0  0  0
  9 14  2  0  0  0  0
 10  8  2  0  0  0  0
 11 13  1  0  0  0  0
 12  5  2  0  0  0  0
 13 15  2  0  0  0  0
 14  7  1  0  0  0  0
 16  2  1  0  0  0  0
 17 21  1  0  0  0  0
 17 16  2  0  0  0  0
 18 20  1  0  0  0  0
 18 17  1  0  0  0  0
 19 18  2  0  0  0  0
 23 27  1  0  0  0  0
 23 28  1  0  0  0  0
 24 26  1  0  0  0  0
 25 21  1  0  0  0  0
 26 22  1  0  0  0  0
 26 25  2  0  0  0  0
 27 24  1  0  0  0  0
 28 22  1  0  0  0  0
 30 10  1  0  0  0  0
 30 29  2  0  0  0  0
 31  1  1  0  0  0  0
 33 32  1  0  0  0  0
 33 31  1  1  0  0  0
 34 35  1  6  0  0  0
 34 33  1  0  0  0  0
 34 32  1  0  0  0  0
 36 38  2  0  0  0  0
 36 37  1  0  0  0  0
 37 40  2  0  0  0  0
 38 39  1  0  0  0  0
 39 35  2  0  0  0  0
 40 35  1  0  0  0  0
 41 43  2  0  0  0  0
 43 37  1  0  0  0  0
 43 42  1  0  0  0  0
M  END
>  <MODEL>
5

>  <REMARK>
 VINA RESULT:     -10.2      3.396      6.641
  Name = 
  9 active torsions:
  status: ('A' for Active; 'I' for Inactive)
    1  A    between atoms: C_2  and  O_43
    2  A    between atoms: C_3  and  N_10
    3  A    between atoms: C_6  and  C_36
    4  A    between atoms: C_11  and  O_43
    5  A    between atoms: C_18  and  C_31
    6  A    between atoms: C_19  and  C_32
    7  A    between atoms: C_20  and  C_38
    8  A    between atoms: N_22  and  O_35
    9  A    between atoms: C_31  and  O_35
                            x       y       z     vdW  Elec       q    Type
                         _______ _______ _______ _____ _____    ______ ____

>  <TORSDO>
F 9

$$$$
=
 OpenBabel10232410293D

 43 48  0  0  1  0  0  0  0  0999 V2000
  186.9670  178.2870  142.5730 C   0  0  0  0  0  0  0  0  0  0  0  0
  190.4650  177.2610  140.3570 C   0  0  0  0  0  0  0  0  0  0  0  0
  186.9690  178.1030  143.9920 C   0  0  0  0  0  0  0  0  0  0  0  0
  190.4150  177.1020  141.7520 C   0  0  0  0  0  3  0  0  0  0  0  0
  189.2420  177.2190  143.8490 C   0  0  0  0  0  3  0  0  0  0  0  0
  184.9150  178.5430  147.1040 O   0  0  0  0  0  1  0  0  0  0  0  0
  188.1220  177.9280  141.8190 C   0  0  0  0  0  0  0  0  0  0  0  0
  185.9600  178.2260  146.2360 C   0  0  0  0  0  0  0  0  0  0  0  0
  189.3340  177.7270  139.6940 C   0  0  0  0  0  3  0  0  0  0  0  0
  185.8720  178.4720  144.8400 C   0  0  0  0  0  0  0  0  0  0  0  0
  188.1270  177.5480  144.6040 C   0  0  0  0  0  0  0  0  0  0  0  0
  189.2610  177.4150  142.4740 C   0  0  0  0  0  0  0  0  0  0  0  0
  188.1810  177.3250  145.9760 C   0  0  0  0  0  3  0  0  0  0  0  0
  188.1740  178.0530  140.4170 C   0  0  0  0  0  3  0  0  0  0  0  0
  187.1060  177.6580  146.7830 C   0  0  0  0  0  3  0  0  0  0  0  0
  191.6650  177.0670  139.6040 N   0  0  0  0  0  0  0  0  0  0  0  0
  191.8980  176.1350  138.7270 C   0  0  0  0  0  0  0  0  0  0  0  0
  193.2390  176.0910  138.0960 C   0  0  0  0  0  0  0  0  0  0  0  0
  193.5710  176.9140  137.2060 O   0  0  0  0  0  0  0  0  0  0  0  0
  194.1500  175.1260  138.5050 O   0  0  0  0  0  1  0  0  0  0  0  0
  190.8750  175.2460  138.3570 O   0  0  0  0  0  0  0  0  0  0  0  0
  188.5970  174.3470  137.0650 C   0  0  0  0  0  2  0  0  0  0  0  0
  187.9590  173.3200  134.9880 O   0  0  0  0  0  0  0  0  0  0  0  0
  190.1910  172.7860  135.6840 C   0  0  0  0  0  2  0  0  0  0  0  0
  191.0280  174.2890  137.3740 N   0  0  0  0  0  0  0  0  0  0  0  0
  189.9800  173.7920  136.7780 C   0  0  0  0  0  0  0  0  0  0  0  0
  188.8710  172.2600  135.1680 C   0  0  0  0  0  2  0  0  0  0  0  0
  187.5090  173.6240  136.2860 C   0  0  0  0  0  2  0  0  0  0  0  0
  183.3980  178.7340  144.4660 C   0  0  0  0  0  2  0  0  0  0  0  0
  184.6550  179.1160  144.2690 C   0  0  0  0  0  3  0  0  0  0  0  0
  185.8100  178.7970  141.9490 O   0  0  0  0  0  0  0  0  0  0  0  0
  183.7110  178.7880  140.7920 C   0  0  0  0  0  2  0  0  0  0  0  0
  185.0810  178.1500  140.9150 C   0  0  1  0  0  3  0  0  0  0  0  0
  184.8100  179.1560  139.8030 C   0  0  1  0  0  3  0  0  0  0  0  0
  184.6510  178.4280  138.5020 C   0  0  0  0  0  0  0  0  0  0  0  0
  184.3560  176.9140  136.1520 C   0  0  0  0  0  3  0  0  0  0  0  0
  185.6130  177.4460  136.4880 C   0  0  0  0  0  0  0  0  0  0  0  0
  183.2540  177.1310  136.9860 C   0  0  0  0  0  3  0  0  0  0  0  0
  183.4030  177.8820  138.1600 C   0  0  0  0  0  3  0  0  0  0  0  0
  185.7540  178.1960  137.6680 C   0  0  0  0  0  3  0  0  0  0  0  0
  186.6360  176.4790  134.4410 O   0  0  0  0  0  0  0  0  0  0  0  0
  187.9170  177.6670  135.9390 O   0  0  0  0  0  1  0  0  0  0  0  0
  186.7830  177.2030  135.6280 C   0  0  0  0  0  0  0  0  0  0  0  0
  1  3  1  0  0  0  0
  2  4  2  0  0  0  0
  3 11  2  0  0  0  0
  3 10  1  0  0  0  0
  4 12  1  0  0  0  0
  5 11  1  0  0  0  0
  7 12  1  0  0  0  0
  7  1  2  0  0  0  0
  8 15  1  0  0  0  0
  8  6  1  0  0  0  0
  9  2  1  0  0  0  0
  9 14  2  0  0  0  0
 10  8  2  0  0  0  0
 11 13  1  0  0  0  0
 12  5  2  0  0  0  0
 13 15  2  0  0  0  0
 14  7  1  0  0  0  0
 16  2  1  0  0  0  0
 17 16  2  0  0  0  0
 18 20  1  0  0  0  0
 18 17  1  0  0  0  0
 19 18  2  0  0  0  0
 21 17  1  0  0  0  0
 23 27  1  0  0  0  0
 23 28  1  0  0  0  0
 24 26  1  0  0  0  0
 25 21  1  0  0  0  0
 26 22  1  0  0  0  0
 26 25  2  0  0  0  0
 27 24  1  0  0  0  0
 28 22  1  0  0  0  0
 30 29  2  0  0  0  0
 30 10  1  0  0  0  0
 31  1  1  0  0  0  0
 32 33  1  0  0  0  0
 33 31  1  1  0  0  0
 34 35  1  6  0  0  0
 34 32  1  0  0  0  0
 34 33  1  0  0  0  0
 36 37  2  0  0  0  0
 36 38  1  0  0  0  0
 37 40  1  0  0  0  0
 38 39  2  0  0  0  0
 39 35  1  0  0  0  0
 40 35  2  0  0  0  0
 41 43  2  0  0  0  0
 43 42  1  0  0  0  0
 43 37  1  0  0  0  0
M  END
>  <MODEL>
6

>  <REMARK>
 VINA RESULT:      -9.9      3.849      7.167
  Name = 
  9 active torsions:
  status: ('A' for Active; 'I' for Inactive)
    1  A    between atoms: C_2  and  O_43
    2  A    between atoms: C_3  and  N_10
    3  A    between atoms: C_6  and  C_36
    4  A    between atoms: C_11  and  O_43
    5  A    between atoms: C_18  and  C_31
    6  A    between atoms: C_19  and  C_32
    7  A    between atoms: C_20  and  C_38
    8  A    between atoms: N_22  and  O_35
    9  A    between atoms: C_31  and  O_35
                            x       y       z     vdW  Elec       q    Type
                         _______ _______ _______ _____ _____    ______ ____

>  <TORSDO>
F 9

$$$$
=
 OpenBabel10232410293D

 43 48  0  0  1  0  0  0  0  0999 V2000
  188.3320  177.4770  144.8490 C   0  0  0  0  0  0  0  0  0  0  0  0
  184.2700  178.6140  144.2120 C   0  0  0  0  0  0  0  0  0  0  0  0
  188.8750  177.5630  146.1710 C   0  0  0  0  0  0  0  0  0  0  0  0
  184.8520  178.6780  145.4900 C   0  0  0  0  0  3  0  0  0  0  0  0
  186.7340  178.4310  146.9660 C   0  0  0  0  0  3  0  0  0  0  0  0
  191.9540  176.9340  148.2250 O   0  0  0  0  0  1  0  0  0  0  0  0
  186.9820  177.8740  144.6200 C   0  0  0  0  0  0  0  0  0  0  0  0
  190.6620  177.2980  147.8450 C   0  0  0  0  0  0  0  0  0  0  0  0
  185.0550  178.2060  143.1380 C   0  0  0  0  0  3  0  0  0  0  0  0
  190.2070  177.1500  146.5090 C   0  0  0  0  0  0  0  0  0  0  0  0
  188.0470  178.0630  147.2140 C   0  0  0  0  0  0  0  0  0  0  0  0
  186.1880  178.3290  145.6930 C   0  0  0  0  0  0  0  0  0  0  0  0
  188.5250  178.1910  148.5150 C   0  0  0  0  0  3  0  0  0  0  0  0
  186.3970  177.8450  143.3390 C   0  0  0  0  0  3  0  0  0  0  0  0
  189.8210  177.8150  148.8260 C   0  0  0  0  0  3  0  0  0  0  0  0
  182.8770  178.8460  143.9890 N   0  0  0  0  0  0  0  0  0  0  0  0
  182.2790  178.9860  142.8430 C   0  0  0  0  0  0  0  0  0  0  0  0
  180.8240  179.2700  142.8450 C   0  0  0  0  0  0  0  0  0  0  0  0
  179.9960  178.4440  143.3070 O   0  0  0  0  0  1  0  0  0  0  0  0
  180.3680  180.4780  142.3350 O   0  0  0  0  0  0  0  0  0  0  0  0
  182.9970  178.8080  141.6480 O   0  0  0  0  0  0  0  0  0  0  0  0
  184.6000  178.6070  139.3990 C   0  0  0  0  0  2  0  0  0  0  0  0
  185.1960  176.9970  137.7170 O   0  0  0  0  0  0  0  0  0  0  0  0
  183.0020  176.6720  138.6310 C   0  0  0  0  0  2  0  0  0  0  0  0
  182.6720  177.8500  140.7090 N   0  0  0  0  0  0  0  0  0  0  0  0
  183.3610  177.7560  139.6060 C   0  0  0  0  0  0  0  0  0  0  0  0
  183.8460  176.7670  137.3800 C   0  0  0  0  0  2  0  0  0  0  0  0
  185.2510  178.3640  138.0450 C   0  0  0  0  0  2  0  0  0  0  0  0
  191.9930  175.5920  145.6650 C   0  0  0  0  0  2  0  0  0  0  0  0
  191.1030  176.5590  145.4740 C   0  0  0  0  0  3  0  0  0  0  0  0
  189.1550  177.0230  143.7980 O   0  0  0  0  0  0  0  0  0  0  0  0
  190.8840  178.0350  142.4830 C   0  0  0  0  0  2  0  0  0  0  0  0
  189.4040  177.7250  142.5880 C   0  0  1  0  0  3  0  0  0  0  0  0
  190.2970  176.8680  141.6990 C   0  0  1  0  0  3  0  0  0  0  0  0
  190.0610  177.2280  140.2630 C   0  0  0  0  0  0  0  0  0  0  0  0
  189.4780  177.7950  137.5720 C   0  0  0  0  0  3  0  0  0  0  0  0
  190.5130  176.8980  137.8900 C   0  0  0  0  0  0  0  0  0  0  0  0
  188.7340  178.4010  138.5900 C   0  0  0  0  0  3  0  0  0  0  0  0
  189.0220  178.1140  139.9310 C   0  0  0  0  0  3  0  0  0  0  0  0
  190.7930  176.6140  139.2370 C   0  0  0  0  0  3  0  0  0  0  0  0
  192.6820  176.2130  136.8900 O   0  0  0  0  0  1  0  0  0  0  0  0
  190.6970  175.6690  135.8620 O   0  0  0  0  0  0  0  0  0  0  0  0
  191.2860  176.2380  136.8240 C   0  0  0  0  0  0  0  0  0  0  0  0
  1  3  1  0  0  0  0
  2  4  2  0  0  0  0
  3 10  2  0  0  0  0
  3 11  1  0  0  0  0
  4 12  1  0  0  0  0
  5 11  1  0  0  0  0
  7  1  2  0  0  0  0
  7 12  1  0  0  0  0
  8  6  1  0  0  0  0
  8 15  2  0  0  0  0
  9 14  2  0  0  0  0
  9  2  1  0  0  0  0
 10  8  1  0  0  0  0
 11 13  2  0  0  0  0
 12  5  2  0  0  0  0
 13 15  1  0  0  0  0
 14  7  1  0  0  0  0
 16  2  1  0  0  0  0
 17 18  1  0  0  0  0
 17 16  2  0  0  0  0
 18 19  1  0  0  0  0
 20 18  2  0  0  0  0
 21 17  1  0  0  0  0
 22 26  1  0  0  0  0
 23 28  1  0  0  0  0
 24 26  1  0  0  0  0
 25 21  1  0  0  0  0
 26 25  2  0  0  0  0
 27 23  1  0  0  0  0
 27 24  1  0  0  0  0
 28 22  1  0  0  0  0
 30 29  2  0  0  0  0
 30 10  1  0  0  0  0
 31  1  1  0  0  0  0
 32 33  1  0  0  0  0
 33 31  1  1  0  0  0
 34 35  1  6  0  0  0
 34 32  1  0  0  0  0
 34 33  1  0  0  0  0
 36 37  2  0  0  0  0
 36 38  1  0  0  0  0
 37 40  1  0  0  0  0
 38 39  2  0  0  0  0
 39 35  1  0  0  0  0
 40 35  2  0  0  0  0
 42 43  2  0  0  0  0
 43 41  1  0  0  0  0
 43 37  1  0  0  0  0
M  END
>  <MODEL>
7

>  <REMARK>
 VINA RESULT:      -9.9      1.784      2.526
  Name = 
  9 active torsions:
  status: ('A' for Active; 'I' for Inactive)
    1  A    between atoms: C_2  and  O_43
    2  A    between atoms: C_3  and  N_10
    3  A    between atoms: C_6  and  C_36
    4  A    between atoms: C_11  and  O_43
    5  A    between atoms: C_18  and  C_31
    6  A    between atoms: C_19  and  C_32
    7  A    between atoms: C_20  and  C_38
    8  A    between atoms: N_22  and  O_35
    9  A    between atoms: C_31  and  O_35
                            x       y       z     vdW  Elec       q    Type
                         _______ _______ _______ _____ _____    ______ ____

>  <TORSDO>
F 9

$$$$
=
 OpenBabel10232410293D

 43 48  0  0  1  0  0  0  0  0999 V2000
  187.2930  178.1300  144.1770 C   0  0  0  0  0  0  0  0  0  0  0  0
  188.8830  177.7300  140.2390 C   0  0  0  0  0  0  0  0  0  0  0  0
  188.0800  177.6910  145.2890 C   0  0  0  0  0  0  0  0  0  0  0  0
  189.6150  177.3160  141.3650 C   0  0  0  0  0  3  0  0  0  0  0  0
  189.8280  176.9790  143.7370 C   0  0  0  0  0  3  0  0  0  0  0  0
  188.1530  177.4360  149.0340 O   0  0  0  0  0  1  0  0  0  0  0  0
  187.8040  177.9820  142.8550 C   0  0  0  0  0  0  0  0  0  0  0  0
  188.5120  177.3430  147.6900 C   0  0  0  0  0  0  0  0  0  0  0  0
  187.6030  178.2430  140.4230 C   0  0  0  0  0  3  0  0  0  0  0  0
  187.6700  177.8340  146.6570 C   0  0  0  0  0  0  0  0  0  0  0  0
  189.3490  177.1010  145.0320 C   0  0  0  0  0  0  0  0  0  0  0  0
  189.0840  177.4240  142.6520 C   0  0  0  0  0  0  0  0  0  0  0  0
  190.1500  176.6340  146.0690 C   0  0  0  0  0  3  0  0  0  0  0  0
  187.0680  178.3640  141.7170 C   0  0  0  0  0  3  0  0  0  0  0  0
  189.7340  176.7520  147.3840 C   0  0  0  0  0  3  0  0  0  0  0  0
  189.4410  177.7460  138.9230 N   0  0  0  0  0  0  0  0  0  0  0  0
  189.0290  177.0730  137.8890 C   0  0  0  0  0  0  0  0  0  0  0  0
  189.7910  177.2040  136.6230 C   0  0  0  0  0  0  0  0  0  0  0  0
  189.4120  177.9760  135.7070 O   0  0  0  0  0  0  0  0  0  0  0  0
  190.9540  176.4640  136.4520 O   0  0  0  0  0  1  0  0  0  0  0  0
  187.8590  176.3010  137.9720 O   0  0  0  0  0  0  0  0  0  0  0  0
  186.5750  173.9260  137.3560 C   0  0  0  0  0  2  0  0  0  0  0  0
  184.4920  173.1600  136.4340 O   0  0  0  0  0  0  0  0  0  0  0  0
  185.1620  175.3220  135.6400 C   0  0  0  0  0  2  0  0  0  0  0  0
  186.8630  176.3360  137.0170 N   0  0  0  0  0  0  0  0  0  0  0  0
  186.2700  175.2340  136.6500 C   0  0  0  0  0  0  0  0  0  0  0  0
  184.6510  173.9470  135.2750 C   0  0  0  0  0  2  0  0  0  0  0  0
  185.7980  172.7570  136.7700 C   0  0  0  0  0  2  0  0  0  0  0  0
  186.2350  179.6250  147.6870 C   0  0  0  0  0  2  0  0  0  0  0  0
  186.3800  178.5010  146.9950 C   0  0  0  0  0  3  0  0  0  0  0  0
  186.0160  178.6780  144.4160 O   0  0  0  0  0  0  0  0  0  0  0  0
  183.6380  178.7310  144.7120 C   0  0  0  0  0  2  0  0  0  0  0  0
  184.7920  178.1610  143.9110 C   0  0  1  0  0  3  0  0  0  0  0  0
  183.9710  179.3110  143.3430 C   0  0  1  0  0  3  0  0  0  0  0  0
  183.0510  178.7890  142.2800 C   0  0  0  0  0  0  0  0  0  0  0  0
  181.3060  177.6650  140.3840 C   0  0  0  0  0  3  0  0  0  0  0  0
  182.6940  177.6450  140.1570 C   0  0  0  0  0  0  0  0  0  0  0  0
  180.7930  178.2380  141.5530 C   0  0  0  0  0  3  0  0  0  0  0  0
  181.6640  178.7940  142.4990 C   0  0  0  0  0  3  0  0  0  0  0  0
  183.5600  178.2010  141.1140 C   0  0  0  0  0  3  0  0  0  0  0  0
  182.9800  175.6780  138.6670 O   0  0  0  0  0  1  0  0  0  0  0  0
  183.9330  177.7010  138.1280 O   0  0  0  0  0  0  0  0  0  0  0  0
  183.2450  177.0230  138.9420 C   0  0  0  0  0  0  0  0  0  0  0  0
  1 31  1  0  0  0  0
  1  3  1  0  0  0  0
  2  9  1  0  0  0  0
  2  4  2  0  0  0  0
  3 10  1  0  0  0  0
  4 12  1  0  0  0  0
  5 11  1  0  0  0  0
  7  1  2  0  0  0  0
  8  6  1  0  0  0  0
  9 14  2  0  0  0  0
 10 30  1  0  0  0  0
 10  8  2  0  0  0  0
 11  3  2  0  0  0  0
 11 13  1  0  0  0  0
 12  7  1  0  0  0  0
 12  5  2  0  0  0  0
 13 15  2  0  0  0  0
 14  7  1  0  0  0  0
 15  8  1  0  0  0  0
 16  2  1  0  0  0  0
 17 21  1  0  0  0  0
 17 16  2  0  0  0  0
 18 17  1  0  0  0  0
 19 18  2  0  0  0  0
 20 18  1  0  0  0  0
 23 28  1  0  0  0  0
 24 26  1  0  0  0  0
 25 21  1  0  0  0  0
 26 25  2  0  0  0  0
 26 22  1  0  0  0  0
 27 24  1  0  0  0  0
 27 23  1  0  0  0  0
 28 22  1  0  0  0  0
 30 29  2  0  0  0  0
 33 31  1  1  0  0  0
 33 32  1  0  0  0  0
 34 35  1  6  0  0  0
 34 33  1  0  0  0  0
 34 32  1  0  0  0  0
 35 39  1  0  0  0  0
 36 38  1  0  0  0  0
 37 36  2  0  0  0  0
 37 40  1  0  0  0  0
 38 39  2  0  0  0  0
 40 35  2  0  0  0  0
 41 43  1  0  0  0  0
 42 43  2  0  0  0  0
 43 37  1  0  0  0  0
M  END
>  <MODEL>
8

>  <REMARK>
 VINA RESULT:      -9.6      2.905      6.067
  Name = 
  9 active torsions:
  status: ('A' for Active; 'I' for Inactive)
    1  A    between atoms: C_2  and  O_43
    2  A    between atoms: C_3  and  N_10
    3  A    between atoms: C_6  and  C_36
    4  A    between atoms: C_11  and  O_43
    5  A    between atoms: C_18  and  C_31
    6  A    between atoms: C_19  and  C_32
    7  A    between atoms: C_20  and  C_38
    8  A    between atoms: N_22  and  O_35
    9  A    between atoms: C_31  and  O_35
                            x       y       z     vdW  Elec       q    Type
                         _______ _______ _______ _____ _____    ______ ____

>  <TORSDO>
F 9

$$$$
=
 OpenBabel10232410293D

 43 48  0  0  1  0  0  0  0  0999 V2000
  187.8950  177.5590  144.0260 C   0  0  0  0  0  0  0  0  0  0  0  0
  184.0120  178.8030  142.7720 C   0  0  0  0  0  0  0  0  0  0  0  0
  188.2070  177.5690  145.4230 C   0  0  0  0  0  0  0  0  0  0  0  0
  184.3690  178.7930  144.1320 C   0  0  0  0  0  3  0  0  0  0  0  0
  185.9710  178.4370  145.8900 C   0  0  0  0  0  3  0  0  0  0  0  0
  190.8860  176.7800  147.9320 O   0  0  0  0  0  1  0  0  0  0  0  0
  186.6080  177.9930  143.5930 C   0  0  0  0  0  0  0  0  0  0  0  0
  189.6820  177.1880  147.3590 C   0  0  0  0  0  0  0  0  0  0  0  0
  184.9630  178.4340  141.8260 C   0  0  0  0  0  3  0  0  0  0  0  0
  189.4580  177.1140  145.9590 C   0  0  0  0  0  0  0  0  0  0  0  0
  187.2200  178.0320  146.3360 C   0  0  0  0  0  0  0  0  0  0  0  0
  185.6480  178.4090  144.5390 C   0  0  0  0  0  0  0  0  0  0  0  0
  187.4710  178.0870  147.7040 C   0  0  0  0  0  3  0  0  0  0  0  0
  186.2480  178.0380  142.2320 C   0  0  0  0  0  3  0  0  0  0  0  0
  188.6920  177.6710  148.2090 C   0  0  0  0  0  3  0  0  0  0  0  0
  182.6790  179.0730  142.3300 N   0  0  0  0  0  0  0  0  0  0  0  0
  182.1070  178.6280  141.2500 C   0  0  0  0  0  0  0  0  0  0  0  0
  180.7240  179.0760  140.9590 C   0  0  0  0  0  0  0  0  0  0  0  0
  179.9820  178.4390  140.1690 O   0  0  0  0  0  0  0  0  0  0  0  0
  180.2360  180.2180  141.5800 O   0  0  0  0  0  1  0  0  0  0  0  0
  182.7750  177.7040  140.4290 O   0  0  0  0  0  0  0  0  0  0  0  0
  182.9730  175.4830  138.7870 C   0  0  0  0  0  2  0  0  0  0  0  0
  182.7060  174.8910  136.4730 O   0  0  0  0  0  0  0  0  0  0  0  0
  183.3590  177.1730  136.8170 C   0  0  0  0  0  2  0  0  0  0  0  0
  183.0000  177.9160  139.0840 N   0  0  0  0  0  0  0  0  0  0  0  0
  183.1600  176.9010  138.2800 C   0  0  0  0  0  0  0  0  0  0  0  0
  183.6080  175.8910  136.0560 C   0  0  0  0  0  2  0  0  0  0  0  0
  183.2190  174.4430  137.7050 C   0  0  0  0  0  2  0  0  0  0  0  0
  191.6580  177.1450  144.7390 C   0  0  0  0  0  2  0  0  0  0  0  0
  190.5100  176.5590  145.0610 C   0  0  0  0  0  3  0  0  0  0  0  0
  188.8800  177.1420  143.1070 O   0  0  0  0  0  0  0  0  0  0  0  0
  190.5530  178.0590  141.6570 C   0  0  0  0  0  2  0  0  0  0  0  0
  189.0890  177.7010  141.8170 C   0  0  1  0  0  3  0  0  0  0  0  0
  190.0120  176.7820  141.0280 C   0  0  1  0  0  3  0  0  0  0  0  0
  189.7500  176.9520  139.5620 C   0  0  0  0  0  0  0  0  0  0  0  0
  189.3470  177.4240  136.8200 C   0  0  0  0  0  3  0  0  0  0  0  0
  188.3040  177.6630  137.7330 C   0  0  0  0  0  0  0  0  0  0  0  0
  190.5860  176.9580  137.2740 C   0  0  0  0  0  3  0  0  0  0  0  0
  190.7880  176.7280  138.6410 C   0  0  0  0  0  3  0  0  0  0  0  0
  188.5160  177.4320  139.1020 C   0  0  0  0  0  3  0  0  0  0  0  0
  186.1330  178.7880  138.1720 O   0  0  0  0  0  1  0  0  0  0  0  0
  186.6810  178.0920  136.0480 O   0  0  0  0  0  0  0  0  0  0  0  0
  187.0050  178.1750  137.2670 C   0  0  0  0  0  0  0  0  0  0  0  0
  1  3  1  0  0  0  0
  2  4  2  0  0  0  0
  3 10  2  0  0  0  0
  3 11  1  0  0  0  0
  4 12  1  0  0  0  0
  5 11  1  0  0  0  0
  7  1  2  0  0  0  0
  7 12  1  0  0  0  0
  8  6  1  0  0  0  0
  8 15  2  0  0  0  0
  9 14  2  0  0  0  0
  9  2  1  0  0  0  0
 10  8  1  0  0  0  0
 11 13  2  0  0  0  0
 12  5  2  0  0  0  0
 13 15  1  0  0  0  0
 14  7  1  0  0  0  0
 16  2  1  0  0  0  0
 17 16  2  0  0  0  0
 18 17  1  0  0  0  0
 18 20  1  0  0  0  0
 19 18  2  0  0  0  0
 21 17  1  0  0  0  0
 23 28  1  0  0  0  0
 24 26  1  0  0  0  0
 25 21  1  0  0  0  0
 26 22  1  0  0  0  0
 26 25  2  0  0  0  0
 27 23  1  0  0  0  0
 27 24  1  0  0  0  0
 28 22  1  0  0  0  0
 29 30  2  0  0  0  0
 30 10  1  0  0  0  0
 31  1  1  0  0  0  0
 32 33  1  0  0  0  0
 33 31  1  1  0  0  0
 34 35  1  6  0  0  0
 34 32  1  0  0  0  0
 34 33  1  0  0  0  0
 36 38  2  0  0  0  0
 36 37  1  0  0  0  0
 37 40  2  0  0  0  0
 38 39  1  0  0  0  0
 39 35  2  0  0  0  0
 40 35  1  0  0  0  0
 42 43  2  0  0  0  0
 43 37  1  0  0  0  0
 43 41  1  0  0  0  0
M  END
>  <MODEL>
9

>  <REMARK>
 VINA RESULT:      -9.6      1.380      1.674
  Name = 
  9 active torsions:
  status: ('A' for Active; 'I' for Inactive)
    1  A    between atoms: C_2  and  O_43
    2  A    between atoms: C_3  and  N_10
    3  A    between atoms: C_6  and  C_36
    4  A    between atoms: C_11  and  O_43
    5  A    between atoms: C_18  and  C_31
    6  A    between atoms: C_19  and  C_32
    7  A    between atoms: C_20  and  C_38
    8  A    between atoms: N_22  and  O_35
    9  A    between atoms: C_31  and  O_35
                            x       y       z     vdW  Elec       q    Type
                         _______ _______ _______ _____ _____    ______ ____

>  <TORSDO>
F 9

$$$$
