=
 OpenBabel10232411063D

 39 42  0  0  1  0  0  0  0  0999 V2000
  189.6150  177.5840  140.1240 C   0  0  1  0  0  3  0  0  0  0  0  0
  187.9780  177.4700  144.0750 C   0  0  0  0  0  0  0  0  0  0  0  0
  189.8990  177.4010  142.6050 C   0  0  0  0  0  3  0  0  0  0  0  0
  189.9190  177.2590  145.1230 C   0  0  0  0  0  0  0  0  0  0  0  0
  189.0300  177.5320  141.5050 C   0  0  0  0  0  0  0  0  0  0  0  0
  191.3740  177.1320  145.4220 C   0  0  0  0  0  1  0  0  0  0  0  0
  188.8710  177.2910  146.0360 C   0  0  0  0  0  0  0  0  0  0  0  0
  187.6860  177.4210  145.3900 N   0  0  0  0  0  0  0  0  0  0  0  0
  187.0910  177.6080  143.0060 C   0  0  0  0  0  3  0  0  0  0  0  0
  189.0160  177.2070  147.5200 C   0  0  0  0  0  1  0  0  0  0  0  0
  189.3340  177.3730  143.8780 C   0  0  0  0  0  0  0  0  0  0  0  0
  187.6330  177.6410  141.7100 C   0  0  0  0  0  3  0  0  0  0  0  0
  186.3580  177.4700  145.9950 C   0  0  0  0  0  2  0  0  0  0  0  0
  185.9490  178.9110  146.2820 C   0  0  0  0  0  2  0  0  0  0  0  0
  183.7560  178.7830  145.0950 C   0  0  0  0  0  1  0  0  0  0  0  0
  185.1000  179.4840  145.1570 C   0  0  0  0  0  2  0  0  0  0  0  0
  189.1260  178.7520  139.4040 N   0  0  0  0  0  2  0  0  0  0  0  0
  188.7300  178.3140  138.0750 C   0  0  0  0  0  2  0  0  0  0  0  0
  187.3630  177.6410  138.1230 C   0  0  0  0  0  2  0  0  0  0  0  0
  186.3800  178.3020  137.1630 C   0  0  0  0  0  2  0  0  0  0  0  0
  185.3330  177.3160  136.6610 C   0  0  0  0  0  2  0  0  0  0  0  0
  183.9720  176.0420  138.1340 O   0  0  0  0  0  0  0  0  0  0  0  0
  184.1980  177.1740  137.6290 C   0  0  0  0  0  0  0  0  0  0  0  0
  183.2830  178.2480  137.8880 N   0  0  0  0  0  0  0  0  0  0  0  0
  183.2680  179.0660  138.9010 C   0  0  0  0  0  3  0  0  0  0  0  0
  185.1930  179.5970  140.2070 O   0  0  0  0  0  0  0  0  0  0  0  0
  183.7190  178.0150  141.1810 C   0  0  0  0  0  1  0  0  0  0  0  0
  184.1090  178.9660  140.1060 C   0  0  0  0  0  0  0  0  0  0  0  0
  191.1400  177.6080  140.1650 C   0  0  0  0  0  2  0  0  0  0  0  0
  190.2530  173.2620  136.2370 C   0  0  0  0  0  3  0  0  0  0  0  0
  193.0650  176.7630  138.9580 N   0  0  0  0  0  0  0  0  0  0  0  0
  190.8300  175.8410  138.5360 N   0  0  0  0  0  2  0  0  0  0  0  0
  193.9110  176.1040  138.1730 N   0  0  0  0  0  2  0  0  0  0  0  0
  191.7140  176.6850  139.1430 C   0  0  0  0  0  0  0  0  0  0  0  0
  189.7760  174.1620  137.1800 C   0  0  0  0  0  2  0  0  0  0  0  0
  191.5860  173.3940  136.0810 N   0  0  0  0  0  0  0  0  0  0  0  0
  191.9550  174.3740  136.9200 C   0  0  0  0  0  0  0  0  0  0  0  0
  193.5380  174.8860  137.0930 S   0  0  0  0  0  0  0  0  0  0  0  0
  190.8850  174.8610  137.6020 C   0  0  0  0  0  0  0  0  0  0  0  0
  1 29  1  1  0  0  0
  1  5  1  0  0  0  0
  2  8  1  0  0  0  0
  3 11  2  0  0  0  0
  4  6  1  0  0  0  0
  4  7  2  0  0  0  0
  5 12  2  0  0  0  0
  5  3  1  0  0  0  0
  7 10  1  0  0  0  0
  8 13  1  0  0  0  0
  8  7  1  0  0  0  0
  9  2  2  0  0  0  0
 11  2  1  0  0  0  0
 11  4  1  0  0  0  0
 12  9  1  0  0  0  0
 13 14  1  0  0  0  0
 15 16  1  0  0  0  0
 16 14  1  0  0  0  0
 17  1  1  0  0  0  0
 18 19  1  0  0  0  0
 18 17  1  0  0  0  0
 20 19  1  0  0  0  0
 21 20  1  0  0  0  0
 21 23  1  0  0  0  0
 23 24  1  0  0  0  0
 23 22  2  0  0  0  0
 24 25  2  0  0  0  0
 25 28  1  0  0  0  0
 28 26  2  0  0  0  0
 28 27  1  0  0  0  0
 30 35  1  0  0  0  0
 31 34  2  0  0  0  0
 32 34  1  0  0  0  0
 33 31  1  0  0  0  0
 34 29  1  0  0  0  0
 35 39  1  0  0  0  0
 36 30  2  0  0  0  0
 36 37  1  0  0  0  0
 37 38  1  0  0  0  0
 37 39  2  0  0  0  0
 38 33  1  0  0  0  0
 39 32  1  0  0  0  0
M  END
>  <MODEL>
1

>  <REMARK>
 VINA RESULT:      -8.0      0.000      0.000
  Name = 
  14 active torsions:
  status: ('A' for Active; 'I' for Inactive)
    1  A    between atoms: N_1  and  C_11
    2  A    between atoms: N_1  and  C_24
    3  A    between atoms: C_3  and  C_4
    4  A    between atoms: C_3  and  N_29
    5  A    between atoms: C_4  and  C_22
    6  A    between atoms: N_6  and  C_33
    7  A    between atoms: C_7  and  C_24
    8  A    between atoms: C_7  and  C_34
    9  A    between atoms: C_11  and  C_23
   10  A    between atoms: C_11  and  C_39
   11  A    between atoms: C_12  and  C_39
   12  A    between atoms: C_15  and  C_27
   13  A    between atoms: C_33  and  C_37
   14  A    between atoms: C_34  and  C_37
                            x       y       z     vdW  Elec       q    Type
                         _______ _______ _______ _____ _____    ______ ____

>  <TORSDO>
F 14

$$$$
=
 OpenBabel10232411063D

 39 42  0  0  1  0  0  0  0  0999 V2000
  189.3320  177.5520  140.0210 C   0  0  1  0  0  3  0  0  0  0  0  0
  188.0400  177.4690  144.0990 C   0  0  0  0  0  0  0  0  0  0  0  0
  189.8240  177.3610  142.4690 C   0  0  0  0  0  3  0  0  0  0  0  0
  190.0590  177.2170  144.9760 C   0  0  0  0  0  0  0  0  0  0  0  0
  188.8670  177.5110  141.4480 C   0  0  0  0  0  0  0  0  0  0  0  0
  191.5320  177.0600  145.1480 C   0  0  0  0  0  1  0  0  0  0  0  0
  189.0940  177.2710  145.9760 C   0  0  0  0  0  0  0  0  0  0  0  0
  187.8610  177.4260  145.4350 N   0  0  0  0  0  0  0  0  0  0  0  0
  187.0670  177.6260  143.1110 C   0  0  0  0  0  3  0  0  0  0  0  0
  189.3660  177.1830  147.4430 C   0  0  0  0  0  1  0  0  0  0  0  0
  189.3710  177.3450  143.7860 C   0  0  0  0  0  0  0  0  0  0  0  0
  187.4950  177.6490  141.7720 C   0  0  0  0  0  3  0  0  0  0  0  0
  186.5920  177.5020  146.1520 C   0  0  0  0  0  2  0  0  0  0  0  0
  185.9420  178.8680  145.9540 C   0  0  0  0  0  2  0  0  0  0  0  0
  184.0730  179.5540  144.4460 C   0  0  0  0  0  1  0  0  0  0  0  0
  184.4530  178.7400  145.6690 C   0  0  0  0  0  2  0  0  0  0  0  0
  188.9700  178.8190  139.4010 N   0  0  0  0  0  2  0  0  0  0  0  0
  188.5770  178.5390  138.0280 C   0  0  0  0  0  2  0  0  0  0  0  0
  187.3620  177.6190  138.0010 C   0  0  0  0  0  2  0  0  0  0  0  0
  186.1250  178.3430  137.4820 C   0  0  0  0  0  2  0  0  0  0  0  0
  184.8720  177.9410  138.2510 C   0  0  0  0  0  2  0  0  0  0  0  0
  184.5410  180.1710  139.0020 O   0  0  0  0  0  0  0  0  0  0  0  0
  184.5240  178.9480  139.3050 C   0  0  0  0  0  0  0  0  0  0  0  0
  184.3100  178.5710  140.6730 N   0  0  0  0  0  0  0  0  0  0  0  0
  183.2000  178.1920  141.2390 C   0  0  0  0  0  3  0  0  0  0  0  0
  181.0850  179.1950  140.7750 O   0  0  0  0  0  0  0  0  0  0  0  0
  181.3820  177.0140  139.8930 C   0  0  0  0  0  1  0  0  0  0  0  0
  181.8620  178.2170  140.6230 C   0  0  0  0  0  0  0  0  0  0  0  0
  190.8390  177.3410  139.9200 C   0  0  0  0  0  2  0  0  0  0  0  0
  194.5140  175.8100  135.5330 C   0  0  0  0  0  3  0  0  0  0  0  0
  190.2700  175.3940  138.5950 N   0  0  0  0  0  0  0  0  0  0  0  0
  192.3160  176.6630  138.1230 N   0  0  0  0  0  2  0  0  0  0  0  0
  190.2150  174.4040  137.7100 N   0  0  0  0  0  2  0  0  0  0  0  0
  191.1710  176.3960  138.8150 C   0  0  0  0  0  0  0  0  0  0  0  0
  194.1640  176.6390  136.5880 C   0  0  0  0  0  2  0  0  0  0  0  0
  193.6020  174.8290  135.3710 N   0  0  0  0  0  0  0  0  0  0  0  0
  192.6770  175.0330  136.3220 C   0  0  0  0  0  0  0  0  0  0  0  0
  191.3240  174.0670  136.5080 S   0  0  0  0  0  0  0  0  0  0  0  0
  192.9840  176.1210  137.0770 C   0  0  0  0  0  0  0  0  0  0  0  0
  1 29  1  1  0  0  0
  1  5  1  0  0  0  0
  2  8  1  0  0  0  0
  3 11  2  0  0  0  0
  4  6  1  0  0  0  0
  4  7  2  0  0  0  0
  5 12  2  0  0  0  0
  5  3  1  0  0  0  0
  7 10  1  0  0  0  0
  8  7  1  0  0  0  0
  8 13  1  0  0  0  0
  9  2  2  0  0  0  0
 11  2  1  0  0  0  0
 11  4  1  0  0  0  0
 12  9  1  0  0  0  0
 14 13  1  0  0  0  0
 15 16  1  0  0  0  0
 16 14  1  0  0  0  0
 17  1  1  0  0  0  0
 18 17  1  0  0  0  0
 19 18  1  0  0  0  0
 20 19  1  0  0  0  0
 20 21  1  0  0  0  0
 21 23  1  0  0  0  0
 22 23  2  0  0  0  0
 23 24  1  0  0  0  0
 24 25  2  0  0  0  0
 27 28  1  0  0  0  0
 28 26  2  0  0  0  0
 28 25  1  0  0  0  0
 30 35  1  0  0  0  0
 31 34  2  0  0  0  0
 32 34  1  0  0  0  0
 33 31  1  0  0  0  0
 34 29  1  0  0  0  0
 35 39  1  0  0  0  0
 36 30  2  0  0  0  0
 36 37  1  0  0  0  0
 37 38  1  0  0  0  0
 37 39  2  0  0  0  0
 38 33  1  0  0  0  0
 39 32  1  0  0  0  0
M  END
>  <MODEL>
2

>  <REMARK>
 VINA RESULT:      -7.9      1.521      2.140
  Name = 
  14 active torsions:
  status: ('A' for Active; 'I' for Inactive)
    1  A    between atoms: N_1  and  C_11
    2  A    between atoms: N_1  and  C_24
    3  A    between atoms: C_3  and  C_4
    4  A    between atoms: C_3  and  N_29
    5  A    between atoms: C_4  and  C_22
    6  A    between atoms: N_6  and  C_33
    7  A    between atoms: C_7  and  C_24
    8  A    between atoms: C_7  and  C_34
    9  A    between atoms: C_11  and  C_23
   10  A    between atoms: C_11  and  C_39
   11  A    between atoms: C_12  and  C_39
   12  A    between atoms: C_15  and  C_27
   13  A    between atoms: C_33  and  C_37
   14  A    between atoms: C_34  and  C_37
                            x       y       z     vdW  Elec       q    Type
                         _______ _______ _______ _____ _____    ______ ____

>  <TORSDO>
F 14

$$$$
=
 OpenBabel10232411063D

 39 42  0  0  1  0  0  0  0  0999 V2000
  189.7160  177.3450  140.2050 C   0  0  1  0  0  3  0  0  0  0  0  0
  188.0290  177.4140  144.1360 C   0  0  0  0  0  0  0  0  0  0  0  0
  189.9660  177.2520  142.6950 C   0  0  0  0  0  3  0  0  0  0  0  0
  189.9530  177.2060  145.2160 C   0  0  0  0  0  0  0  0  0  0  0  0
  189.1130  177.3580  141.5800 C   0  0  0  0  0  0  0  0  0  0  0  0
  191.4020  177.0630  145.5380 C   0  0  0  0  0  1  0  0  0  0  0  0
  188.8950  177.2930  146.1140 C   0  0  0  0  0  0  0  0  0  0  0  0
  187.7200  177.4210  145.4480 N   0  0  0  0  0  0  0  0  0  0  0  0
  187.1580  177.5280  143.0520 C   0  0  0  0  0  3  0  0  0  0  0  0
  189.0210  177.2640  147.6020 C   0  0  0  0  0  1  0  0  0  0  0  0
  189.3850  177.2840  143.9610 C   0  0  0  0  0  0  0  0  0  0  0  0
  187.7160  177.5010  141.7620 C   0  0  0  0  0  3  0  0  0  0  0  0
  186.3870  177.5180  146.0340 C   0  0  0  0  0  2  0  0  0  0  0  0
  185.9950  178.9780  146.2440 C   0  0  0  0  0  2  0  0  0  0  0  0
  183.7420  178.7840  145.1840 C   0  0  0  0  0  1  0  0  0  0  0  0
  185.0900  179.4780  145.1280 C   0  0  0  0  0  2  0  0  0  0  0  0
  189.3340  178.5420  139.4680 N   0  0  0  0  0  2  0  0  0  0  0  0
  188.2760  178.1680  138.5420 C   0  0  0  0  0  2  0  0  0  0  0  0
  188.8140  178.1110  137.1170 C   0  0  0  0  0  2  0  0  0  0  0  0
  188.1690  176.9820  136.3210 C   0  0  0  0  0  2  0  0  0  0  0  0
  187.2690  176.1180  137.1970 C   0  0  0  0  0  2  0  0  0  0  0  0
  186.1730  175.4320  135.2030 O   0  0  0  0  0  0  0  0  0  0  0  0
  186.0700  175.6290  136.4440 C   0  0  0  0  0  0  0  0  0  0  0  0
  184.7800  175.5130  137.0630 N   0  0  0  0  0  0  0  0  0  0  0  0
  184.2440  174.4620  137.6150 C   0  0  0  0  0  3  0  0  0  0  0  0
  185.9180  172.8250  138.0780 O   0  0  0  0  0  0  0  0  0  0  0  0
  184.0410  172.0330  136.8620 C   0  0  0  0  0  1  0  0  0  0  0  0
  184.7920  173.0950  137.5850 C   0  0  0  0  0  0  0  0  0  0  0  0
  191.2360  177.2420  140.2640 C   0  0  0  0  0  2  0  0  0  0  0  0
  190.5550  173.1920  135.9940 C   0  0  0  0  0  3  0  0  0  0  0  0
  192.9950  177.0340  138.6100 N   0  0  0  0  0  0  0  0  0  0  0  0
  191.0010  175.6110  138.4870 N   0  0  0  0  0  2  0  0  0  0  0  0
  193.7810  176.6900  137.5940 N   0  0  0  0  0  2  0  0  0  0  0  0
  191.7730  176.5950  139.0310 C   0  0  0  0  0  0  0  0  0  0  0  0
  190.0980  173.8480  137.1270 C   0  0  0  0  0  2  0  0  0  0  0  0
  191.7550  173.6760  135.6110 N   0  0  0  0  0  0  0  0  0  0  0  0
  192.0580  174.6370  136.4960 C   0  0  0  0  0  0  0  0  0  0  0  0
  193.4770  175.5210  136.4400 S   0  0  0  0  0  0  0  0  0  0  0  0
  191.0780  174.7680  137.4300 C   0  0  0  0  0  0  0  0  0  0  0  0
  1 29  1  1  0  0  0
  1  5  1  0  0  0  0
  2  8  1  0  0  0  0
  3 11  2  0  0  0  0
  4  6  1  0  0  0  0
  4  7  2  0  0  0  0
  5 12  2  0  0  0  0
  5  3  1  0  0  0  0
  7 10  1  0  0  0  0
  8 13  1  0  0  0  0
  8  7  1  0  0  0  0
  9  2  2  0  0  0  0
 11  2  1  0  0  0  0
 11  4  1  0  0  0  0
 12  9  1  0  0  0  0
 13 14  1  0  0  0  0
 16 15  1  0  0  0  0
 16 14  1  0  0  0  0
 17  1  1  0  0  0  0
 18 17  1  0  0  0  0
 19 18  1  0  0  0  0
 20 19  1  0  0  0  0
 20 21  1  0  0  0  0
 22 23  2  0  0  0  0
 23 24  1  0  0  0  0
 23 21  1  0  0  0  0
 24 25  2  0  0  0  0
 27 28  1  0  0  0  0
 28 25  1  0  0  0  0
 28 26  2  0  0  0  0
 30 35  1  0  0  0  0
 31 34  2  0  0  0  0
 32 34  1  0  0  0  0
 33 31  1  0  0  0  0
 34 29  1  0  0  0  0
 35 39  1  0  0  0  0
 36 30  2  0  0  0  0
 36 37  1  0  0  0  0
 37 39  2  0  0  0  0
 38 37  1  0  0  0  0
 38 33  1  0  0  0  0
 39 32  1  0  0  0  0
M  END
>  <MODEL>
3

>  <REMARK>
 VINA RESULT:      -7.6      1.936      2.377
  Name = 
  14 active torsions:
  status: ('A' for Active; 'I' for Inactive)
    1  A    between atoms: N_1  and  C_11
    2  A    between atoms: N_1  and  C_24
    3  A    between atoms: C_3  and  C_4
    4  A    between atoms: C_3  and  N_29
    5  A    between atoms: C_4  and  C_22
    6  A    between atoms: N_6  and  C_33
    7  A    between atoms: C_7  and  C_24
    8  A    between atoms: C_7  and  C_34
    9  A    between atoms: C_11  and  C_23
   10  A    between atoms: C_11  and  C_39
   11  A    between atoms: C_12  and  C_39
   12  A    between atoms: C_15  and  C_27
   13  A    between atoms: C_33  and  C_37
   14  A    between atoms: C_34  and  C_37
                            x       y       z     vdW  Elec       q    Type
                         _______ _______ _______ _____ _____    ______ ____

>  <TORSDO>
F 14

$$$$
=
 OpenBabel10232411063D

 39 42  0  0  1  0  0  0  0  0999 V2000
  189.5780  177.5580  139.7790 C   0  0  1  0  0  3  0  0  0  0  0  0
  188.7440  177.8150  143.9670 C   0  0  0  0  0  0  0  0  0  0  0  0
  187.9580  177.7380  141.6800 C   0  0  0  0  0  3  0  0  0  0  0  0
  186.5390  177.8950  143.7580 C   0  0  0  0  0  0  0  0  0  0  0  0
  189.2960  177.6610  141.2500 C   0  0  0  0  0  0  0  0  0  0  0  0
  185.1580  177.9200  143.1980 C   0  0  0  0  0  1  0  0  0  0  0  0
  186.9060  177.9440  145.0990 C   0  0  0  0  0  0  0  0  0  0  0  0
  188.2550  177.8940  145.2210 N   0  0  0  0  0  0  0  0  0  0  0  0
  190.0800  177.7340  143.5730 C   0  0  0  0  0  3  0  0  0  0  0  0
  185.9580  178.0270  146.2500 C   0  0  0  0  0  1  0  0  0  0  0  0
  187.7210  177.8140  143.0500 C   0  0  0  0  0  0  0  0  0  0  0  0
  190.3500  177.6530  142.1960 C   0  0  0  0  0  3  0  0  0  0  0  0
  189.0260  177.9440  146.4600 C   0  0  0  0  0  2  0  0  0  0  0  0
  189.6390  176.5820  146.7690 C   0  0  0  0  0  2  0  0  0  0  0  0
  192.0350  175.8980  146.6080 C   0  0  0  0  0  1  0  0  0  0  0  0
  191.0230  176.7200  147.3840 C   0  0  0  0  0  2  0  0  0  0  0  0
  189.0280  178.7060  139.0710 N   0  0  0  0  0  2  0  0  0  0  0  0
  188.5180  178.2300  137.7930 C   0  0  0  0  0  2  0  0  0  0  0  0
  187.2120  177.4720  137.9930 C   0  0  0  0  0  2  0  0  0  0  0  0
  186.0030  178.3790  137.7930 C   0  0  0  0  0  2  0  0  0  0  0  0
  184.7850  177.8720  138.5570 C   0  0  0  0  0  2  0  0  0  0  0  0
  185.2100  179.6210  140.1090 O   0  0  0  0  0  0  0  0  0  0  0  0
  184.3520  178.8430  139.6130 C   0  0  0  0  0  0  0  0  0  0  0  0
  183.0300  178.8170  140.1700 N   0  0  0  0  0  0  0  0  0  0  0  0
  181.9360  179.3210  139.6720 C   0  0  0  0  0  3  0  0  0  0  0  0
  182.1120  181.4070  138.5280 O   0  0  0  0  0  0  0  0  0  0  0  0
  181.3210  179.5990  137.2130 C   0  0  0  0  0  1  0  0  0  0  0  0
  181.8440  180.1790  138.4790 C   0  0  0  0  0  0  0  0  0  0  0  0
  191.0750  177.4540  139.5040 C   0  0  0  0  0  2  0  0  0  0  0  0
  194.4950  175.4430  135.1040 C   0  0  0  0  0  3  0  0  0  0  0  0
  190.4730  175.3430  138.4770 N   0  0  0  0  0  0  0  0  0  0  0  0
  192.4490  176.5790  137.7100 N   0  0  0  0  0  2  0  0  0  0  0  0
  190.3870  174.2470  137.7300 N   0  0  0  0  0  2  0  0  0  0  0  0
  191.3590  176.3810  138.5060 C   0  0  0  0  0  0  0  0  0  0  0  0
  194.1930  176.3930  136.0690 C   0  0  0  0  0  2  0  0  0  0  0  0
  193.6010  174.4320  135.1310 N   0  0  0  0  0  0  0  0  0  0  0  0
  192.7350  174.7390  136.1080 C   0  0  0  0  0  0  0  0  0  0  0  0
  191.4240  173.7800  136.5070 S   0  0  0  0  0  0  0  0  0  0  0  0
  193.0620  175.9200  136.6980 C   0  0  0  0  0  0  0  0  0  0  0  0
  1 29  1  1  0  0  0
  1  5  1  0  0  0  0
  2  8  1  0  0  0  0
  3 11  1  0  0  0  0
  4  7  2  0  0  0  0
  5  3  2  0  0  0  0
  5 12  1  0  0  0  0
  6  4  1  0  0  0  0
  7  8  1  0  0  0  0
  7 10  1  0  0  0  0
  8 13  1  0  0  0  0
  9  2  1  0  0  0  0
 11  4  1  0  0  0  0
 11  2  2  0  0  0  0
 12  9  2  0  0  0  0
 13 14  1  0  0  0  0
 14 16  1  0  0  0  0
 15 16  1  0  0  0  0
 17  1  1  0  0  0  0
 18 19  1  0  0  0  0
 18 17  1  0  0  0  0
 20 19  1  0  0  0  0
 20 21  1  0  0  0  0
 21 23  1  0  0  0  0
 23 22  2  0  0  0  0
 23 24  1  0  0  0  0
 25 24  2  0  0  0  0
 27 28  1  0  0  0  0
 28 26  2  0  0  0  0
 28 25  1  0  0  0  0
 30 36  2  0  0  0  0
 30 35  1  0  0  0  0
 31 34  2  0  0  0  0
 32 34  1  0  0  0  0
 33 31  1  0  0  0  0
 34 29  1  0  0  0  0
 35 39  1  0  0  0  0
 36 37  1  0  0  0  0
 37 38  1  0  0  0  0
 37 39  2  0  0  0  0
 38 33  1  0  0  0  0
 39 32  1  0  0  0  0
M  END
>  <MODEL>
4

>  <REMARK>
 VINA RESULT:      -7.6      1.608      3.366
  Name = 
  14 active torsions:
  status: ('A' for Active; 'I' for Inactive)
    1  A    between atoms: N_1  and  C_11
    2  A    between atoms: N_1  and  C_24
    3  A    between atoms: C_3  and  C_4
    4  A    between atoms: C_3  and  N_29
    5  A    between atoms: C_4  and  C_22
    6  A    between atoms: N_6  and  C_33
    7  A    between atoms: C_7  and  C_24
    8  A    between atoms: C_7  and  C_34
    9  A    between atoms: C_11  and  C_23
   10  A    between atoms: C_11  and  C_39
   11  A    between atoms: C_12  and  C_39
   12  A    between atoms: C_15  and  C_27
   13  A    between atoms: C_33  and  C_37
   14  A    between atoms: C_34  and  C_37
                            x       y       z     vdW  Elec       q    Type
                         _______ _______ _______ _____ _____    ______ ____

>  <TORSDO>
F 14

$$$$
=
 OpenBabel10232411063D

 39 42  0  0  1  0  0  0  0  0999 V2000
  187.3530  178.3880  142.3960 C   0  0  1  0  0  3  0  0  0  0  0  0
  189.7330  177.3700  138.9900 C   0  0  0  0  0  0  0  0  0  0  0  0
  187.6700  178.2280  139.9170 C   0  0  0  0  0  3  0  0  0  0  0  0
  188.2410  177.9870  137.4730 C   0  0  0  0  0  0  0  0  0  0  0  0
  188.1910  178.0160  141.2080 C   0  0  0  0  0  0  0  0  0  0  0  0
  187.0100  178.5010  136.8080 C   0  0  0  0  0  1  0  0  0  0  0  0
  189.3930  177.5080  136.8590 C   0  0  0  0  0  0  0  0  0  0  0  0
  190.3040  177.1330  137.7920 N   0  0  0  0  0  0  0  0  0  0  0  0
  190.2810  177.1540  140.2550 C   0  0  0  0  0  3  0  0  0  0  0  0
  189.6150  177.4260  135.3840 C   0  0  0  0  0  1  0  0  0  0  0  0
  188.4730  177.8920  138.8300 C   0  0  0  0  0  0  0  0  0  0  0  0
  189.4940  177.4860  141.3720 C   0  0  0  0  0  3  0  0  0  0  0  0
  191.6240  176.5610  137.5470 C   0  0  0  0  0  2  0  0  0  0  0  0
  191.6280  175.0650  137.8450 C   0  0  0  0  0  2  0  0  0  0  0  0
  189.7580  173.6720  136.9510 C   0  0  0  0  0  1  0  0  0  0  0  0
  191.1250  174.2590  136.6570 C   0  0  0  0  0  2  0  0  0  0  0  0
  186.1250  179.0450  141.9710 N   0  0  0  0  0  2  0  0  0  0  0  0
  185.2580  179.1510  143.1350 C   0  0  0  0  0  2  0  0  0  0  0  0
  183.8360  178.7350  142.7770 C   0  0  0  0  0  2  0  0  0  0  0  0
  183.7680  178.1170  141.3850 C   0  0  0  0  0  2  0  0  0  0  0  0
  182.7920  178.8650  140.4840 C   0  0  0  0  0  2  0  0  0  0  0  0
  184.4280  179.9480  139.1450 O   0  0  0  0  0  0  0  0  0  0  0  0
  183.4100  179.2060  139.1630 C   0  0  0  0  0  0  0  0  0  0  0  0
  182.7980  178.8310  137.9200 N   0  0  0  0  0  0  0  0  0  0  0  0
  182.7610  177.6530  137.3650 C   0  0  0  0  0  3  0  0  0  0  0  0
  184.5890  176.1190  137.3210 O   0  0  0  0  0  0  0  0  0  0  0  0
  182.8480  175.5710  138.8350 C   0  0  0  0  0  1  0  0  0  0  0  0
  183.4860  176.4570  137.8250 C   0  0  0  0  0  0  0  0  0  0  0  0
  187.0140  177.1660  143.2440 C   0  0  0  0  0  2  0  0  0  0  0  0
  191.9090  176.5390  146.5230 C   0  0  0  0  0  3  0  0  0  0  0  0
  186.8460  177.5990  145.6230 N   0  0  0  0  0  0  0  0  0  0  0  0
  188.9900  176.9390  144.6280 N   0  0  0  0  0  2  0  0  0  0  0  0
  187.0540  177.7510  146.9260 N   0  0  0  0  0  2  0  0  0  0  0  0
  187.6630  177.2530  144.5850 C   0  0  0  0  0  0  0  0  0  0  0  0
  191.2550  176.5010  145.3000 C   0  0  0  0  0  3  0  0  0  0  0  0
  191.0620  176.9030  147.5080 N   0  0  0  0  0  2  0  0  0  0  0  0
  189.8750  177.0960  146.9140 C   0  0  0  0  0  0  0  0  0  0  0  0
  188.4960  177.5460  147.7460 S   0  0  0  0  0  0  0  0  0  0  0  0
  189.9540  176.8610  145.5770 C   0  0  0  0  0  0  0  0  0  0  0  0
  1 29  1  6  0  0  0
  2  9  1  0  0  0  0
  3  5  2  0  0  0  0
  4 11  1  0  0  0  0
  5 12  1  0  0  0  0
  5  1  1  0  0  0  0
  6  4  1  0  0  0  0
  7  4  2  0  0  0  0
  7  8  1  0  0  0  0
  8  2  1  0  0  0  0
  9 12  2  0  0  0  0
 10  7  1  0  0  0  0
 11  2  2  0  0  0  0
 11  3  1  0  0  0  0
 13  8  1  0  0  0  0
 13 14  1  0  0  0  0
 16 15  1  0  0  0  0
 16 14  1  0  0  0  0
 17  1  1  0  0  0  0
 17 18  1  0  0  0  0
 19 18  1  0  0  0  0
 20 19  1  0  0  0  0
 21 20  1  0  0  0  0
 22 23  2  0  0  0  0
 23 21  1  0  0  0  0
 24 23  1  0  0  0  0
 25 28  1  0  0  0  0
 25 24  2  0  0  0  0
 26 28  2  0  0  0  0
 28 27  1  0  0  0  0
 29 34  1  0  0  0  0
 30 36  1  0  0  0  0
 31 33  1  0  0  0  0
 32 39  1  0  0  0  0
 33 38  1  0  0  0  0
 34 32  1  0  0  0  0
 34 31  2  0  0  0  0
 35 39  1  0  0  0  0
 35 30  2  0  0  0  0
 37 36  1  0  0  0  0
 37 38  1  0  0  0  0
 39 37  2  0  0  0  0
M  END
>  <MODEL>
5

>  <REMARK>
 VINA RESULT:      -7.4      2.529      7.572
  Name = 
  14 active torsions:
  status: ('A' for Active; 'I' for Inactive)
    1  A    between atoms: N_1  and  C_11
    2  A    between atoms: N_1  and  C_24
    3  A    between atoms: C_3  and  C_4
    4  A    between atoms: C_3  and  N_29
    5  A    between atoms: C_4  and  C_22
    6  A    between atoms: N_6  and  C_33
    7  A    between atoms: C_7  and  C_24
    8  A    between atoms: C_7  and  C_34
    9  A    between atoms: C_11  and  C_23
   10  A    between atoms: C_11  and  C_39
   11  A    between atoms: C_12  and  C_39
   12  A    between atoms: C_15  and  C_27
   13  A    between atoms: C_33  and  C_37
   14  A    between atoms: C_34  and  C_37
                            x       y       z     vdW  Elec       q    Type
                         _______ _______ _______ _____ _____    ______ ____

>  <TORSDO>
F 14

$$$$
=
 OpenBabel10232411063D

 39 42  0  0  1  0  0  0  0  0999 V2000
  188.2910  177.4950  141.2790 C   0  0  1  0  0  3  0  0  0  0  0  0
  191.2400  176.6110  138.3090 C   0  0  0  0  0  0  0  0  0  0  0  0
  188.9210  176.9190  138.9250 C   0  0  0  0  0  3  0  0  0  0  0  0
  189.8120  176.3600  136.6330 C   0  0  0  0  0  0  0  0  0  0  0  0
  189.3320  177.1730  140.2470 C   0  0  0  0  0  0  0  0  0  0  0  0
  188.5660  176.2840  135.8180 C   0  0  0  0  0  1  0  0  0  0  0  0
  191.1180  176.1680  136.1960 C   0  0  0  0  0  0  0  0  0  0  0  0
  191.9880  176.3230  137.2250 N   0  0  0  0  0  0  0  0  0  0  0  0
  191.6810  176.8650  139.6080 C   0  0  0  0  0  3  0  0  0  0  0  0
  191.5210  175.8480  134.7930 C   0  0  0  0  0  1  0  0  0  0  0  0
  189.9070  176.6410  137.9810 C   0  0  0  0  0  0  0  0  0  0  0  0
  190.7080  177.1510  140.5820 C   0  0  0  0  0  3  0  0  0  0  0  0
  193.4400  176.1800  137.1740 C   0  0  0  0  0  2  0  0  0  0  0  0
  193.8480  174.7310  137.4240 C   0  0  0  0  0  2  0  0  0  0  0  0
  195.5690  173.2500  138.4620 C   0  0  0  0  0  1  0  0  0  0  0  0
  194.9490  174.6350  138.4690 C   0  0  0  0  0  2  0  0  0  0  0  0
  188.8450  177.3740  142.6200 N   0  0  0  0  0  2  0  0  0  0  0  0
  188.2700  176.1820  143.2260 C   0  0  0  0  0  2  0  0  0  0  0  0
  187.1200  176.5590  144.1520 C   0  0  0  0  0  2  0  0  0  0  0  0
  187.4710  177.7640  145.0170 C   0  0  0  0  0  2  0  0  0  0  0  0
  187.8380  177.3490  146.4380 C   0  0  0  0  0  2  0  0  0  0  0  0
  189.6900  177.4640  147.9220 O   0  0  0  0  0  0  0  0  0  0  0  0
  189.2740  177.6440  146.7460 C   0  0  0  0  0  0  0  0  0  0  0  0
  190.1470  178.2540  145.7840 N   0  0  0  0  0  0  0  0  0  0  0  0
  191.1030  177.6960  145.0960 C   0  0  0  0  0  3  0  0  0  0  0  0
  192.0780  175.9320  146.3740 O   0  0  0  0  0  0  0  0  0  0  0  0
  191.6620  175.4180  144.0970 C   0  0  0  0  0  1  0  0  0  0  0  0
  191.6090  176.3250  145.2740 C   0  0  0  0  0  0  0  0  0  0  0  0
  187.7250  178.8980  141.0820 C   0  0  0  0  0  2  0  0  0  0  0  0
  182.6170  178.8330  144.0830 C   0  0  0  0  0  3  0  0  0  0  0  0
  185.6660  178.7940  139.8080 N   0  0  0  0  0  0  0  0  0  0  0  0
  185.6080  178.8840  142.2590 N   0  0  0  0  0  2  0  0  0  0  0  0
  184.4050  178.7290  139.3930 N   0  0  0  0  0  2  0  0  0  0  0  0
  186.2340  178.8700  141.0480 C   0  0  0  0  0  0  0  0  0  0  0  0
  184.0030  178.8830  144.0470 C   0  0  0  0  0  2  0  0  0  0  0  0
  182.1080  178.7770  142.8340 N   0  0  0  0  0  0  0  0  0  0  0  0
  183.1660  178.7920  142.0100 C   0  0  0  0  0  0  0  0  0  0  0  0
  183.0320  178.7200  140.3440 S   0  0  0  0  0  0  0  0  0  0  0  0
  184.3310  178.8550  142.7090 C   0  0  0  0  0  0  0  0  0  0  0  0
  1 29  1  6  0  0  0
  1 17  1  0  0  0  0
  2  9  1  0  0  0  0
  3  5  2  0  0  0  0
  4 11  1  0  0  0  0
  5 12  1  0  0  0  0
  5  1  1  0  0  0  0
  6  4  1  0  0  0  0
  7  4  2  0  0  0  0
  7  8  1  0  0  0  0
  8  2  1  0  0  0  0
  9 12  2  0  0  0  0
 10  7  1  0  0  0  0
 11  2  2  0  0  0  0
 11  3  1  0  0  0  0
 13  8  1  0  0  0  0
 13 14  1  0  0  0  0
 14 16  1  0  0  0  0
 15 16  1  0  0  0  0
 17 18  1  0  0  0  0
 18 19  1  0  0  0  0
 19 20  1  0  0  0  0
 20 21  1  0  0  0  0
 21 23  1  0  0  0  0
 23 22  2  0  0  0  0
 24 23  1  0  0  0  0
 25 28  1  0  0  0  0
 25 24  2  0  0  0  0
 27 28  1  0  0  0  0
 28 26  2  0  0  0  0
 31 34  2  0  0  0  0
 32 39  1  0  0  0  0
 33 31  1  0  0  0  0
 33 38  1  0  0  0  0
 34 29  1  0  0  0  0
 34 32  1  0  0  0  0
 35 30  1  0  0  0  0
 36 30  2  0  0  0  0
 37 39  2  0  0  0  0
 37 36  1  0  0  0  0
 38 37  1  0  0  0  0
 39 35  1  0  0  0  0
M  END
>  <MODEL>
6

>  <REMARK>
 VINA RESULT:      -7.4      3.616      9.243
  Name = 
  14 active torsions:
  status: ('A' for Active; 'I' for Inactive)
    1  A    between atoms: N_1  and  C_11
    2  A    between atoms: N_1  and  C_24
    3  A    between atoms: C_3  and  C_4
    4  A    between atoms: C_3  and  N_29
    5  A    between atoms: C_4  and  C_22
    6  A    between atoms: N_6  and  C_33
    7  A    between atoms: C_7  and  C_24
    8  A    between atoms: C_7  and  C_34
    9  A    between atoms: C_11  and  C_23
   10  A    between atoms: C_11  and  C_39
   11  A    between atoms: C_12  and  C_39
   12  A    between atoms: C_15  and  C_27
   13  A    between atoms: C_33  and  C_37
   14  A    between atoms: C_34  and  C_37
                            x       y       z     vdW  Elec       q    Type
                         _______ _______ _______ _____ _____    ______ ____

>  <TORSDO>
F 14

$$$$
=
 OpenBabel10232411063D

 39 42  0  0  1  0  0  0  0  0999 V2000
  188.2990  178.0310  142.0820 C   0  0  1  0  0  3  0  0  0  0  0  0
  190.1100  176.9450  138.3620 C   0  0  0  0  0  0  0  0  0  0  0  0
  188.3500  178.0730  139.5790 C   0  0  0  0  0  3  0  0  0  0  0  0
  188.6360  177.9860  137.0760 C   0  0  0  0  0  0  0  0  0  0  0  0
  188.9350  177.6340  140.7820 C   0  0  0  0  0  0  0  0  0  0  0  0
  187.4750  178.7880  136.5950 C   0  0  0  0  0  1  0  0  0  0  0  0
  189.6100  177.3660  136.3010 C   0  0  0  0  0  0  0  0  0  0  0  0
  190.5100  176.7320  137.0920 N   0  0  0  0  0  0  0  0  0  0  0  0
  190.7180  176.5000  139.5360 C   0  0  0  0  0  3  0  0  0  0  0  0
  189.6750  177.3980  134.8080 C   0  0  0  0  0  1  0  0  0  0  0  0
  188.9680  177.7080  138.3860 C   0  0  0  0  0  0  0  0  0  0  0  0
  190.1170  176.8550  140.7560 C   0  0  0  0  0  3  0  0  0  0  0  0
  191.6640  175.9510  136.6560 C   0  0  0  0  0  2  0  0  0  0  0  0
  192.9550  176.5360  137.2210 C   0  0  0  0  0  2  0  0  0  0  0  0
  193.3800  174.0780  137.3430 C   0  0  0  0  0  1  0  0  0  0  0  0
  193.8630  175.4490  137.7760 C   0  0  0  0  0  2  0  0  0  0  0  0
  187.0490  178.7410  141.8460 N   0  0  0  0  0  2  0  0  0  0  0  0
  186.0590  178.2050  142.7670 C   0  0  0  0  0  2  0  0  0  0  0  0
  184.6830  178.7860  142.4640 C   0  0  0  0  0  2  0  0  0  0  0  0
  184.0020  178.0410  141.3210 C   0  0  0  0  0  2  0  0  0  0  0  0
  182.9060  178.8810  140.6740 C   0  0  0  0  0  2  0  0  0  0  0  0
  184.2260  180.2140  139.2160 O   0  0  0  0  0  0  0  0  0  0  0  0
  183.3070  179.3570  139.3120 C   0  0  0  0  0  0  0  0  0  0  0  0
  182.5850  178.9750  138.1320 N   0  0  0  0  0  0  0  0  0  0  0  0
  182.5480  177.8070  137.5550 C   0  0  0  0  0  3  0  0  0  0  0  0
  182.9850  175.7780  138.7310 O   0  0  0  0  0  0  0  0  0  0  0  0
  184.7530  176.5440  137.3480 C   0  0  0  0  0  1  0  0  0  0  0  0
  183.3780  176.6420  137.9050 C   0  0  0  0  0  0  0  0  0  0  0  0
  188.0400  176.8170  142.9700 C   0  0  0  0  0  2  0  0  0  0  0  0
  188.2230  178.1580  148.7370 C   0  0  0  0  0  3  0  0  0  0  0  0
  190.1560  176.5640  144.1230 N   0  0  0  0  0  0  0  0  0  0  0  0
  188.1660  177.3370  145.3320 N   0  0  0  0  0  2  0  0  0  0  0  0
  191.1550  176.5370  144.9990 N   0  0  0  0  0  2  0  0  0  0  0  0
  188.8360  176.8990  144.2280 C   0  0  0  0  0  0  0  0  0  0  0  0
  187.5310  178.0360  147.5420 C   0  0  0  0  0  3  0  0  0  0  0  0
  189.5140  177.7980  148.5820 N   0  0  0  0  0  2  0  0  0  0  0  0
  189.6410  177.4480  147.2930 C   0  0  0  0  0  0  0  0  0  0  0  0
  191.0850  176.9400  146.6180 S   0  0  0  0  0  0  0  0  0  0  0  0
  188.4600  177.5810  146.6320 C   0  0  0  0  0  0  0  0  0  0  0  0
  1 29  1  1  0  0  0
  2 11  2  0  0  0  0
  2  9  1  0  0  0  0
  3  5  2  0  0  0  0
  4 11  1  0  0  0  0
  5  1  1  0  0  0  0
  6  4  1  0  0  0  0
  7  4  2  0  0  0  0
  7  8  1  0  0  0  0
  8  2  1  0  0  0  0
  9 12  2  0  0  0  0
 10  7  1  0  0  0  0
 11  3  1  0  0  0  0
 12  5  1  0  0  0  0
 13  8  1  0  0  0  0
 13 14  1  0  0  0  0
 14 16  1  0  0  0  0
 15 16  1  0  0  0  0
 17  1  1  0  0  0  0
 17 18  1  0  0  0  0
 19 18  1  0  0  0  0
 20 19  1  0  0  0  0
 21 20  1  0  0  0  0
 22 23  2  0  0  0  0
 23 21  1  0  0  0  0
 24 23  1  0  0  0  0
 25 28  1  0  0  0  0
 25 24  2  0  0  0  0
 27 28  1  0  0  0  0
 28 26  2  0  0  0  0
 29 34  1  0  0  0  0
 31 34  2  0  0  0  0
 31 33  1  0  0  0  0
 32 39  1  0  0  0  0
 33 38  1  0  0  0  0
 34 32  1  0  0  0  0
 35 30  2  0  0  0  0
 36 30  1  0  0  0  0
 37 36  1  0  0  0  0
 38 37  1  0  0  0  0
 39 37  2  0  0  0  0
 39 35  1  0  0  0  0
M  END
>  <MODEL>
7

>  <REMARK>
 VINA RESULT:      -7.2      2.439      7.842
  Name = 
  14 active torsions:
  status: ('A' for Active; 'I' for Inactive)
    1  A    between atoms: N_1  and  C_11
    2  A    between atoms: N_1  and  C_24
    3  A    between atoms: C_3  and  C_4
    4  A    between atoms: C_3  and  N_29
    5  A    between atoms: C_4  and  C_22
    6  A    between atoms: N_6  and  C_33
    7  A    between atoms: C_7  and  C_24
    8  A    between atoms: C_7  and  C_34
    9  A    between atoms: C_11  and  C_23
   10  A    between atoms: C_11  and  C_39
   11  A    between atoms: C_12  and  C_39
   12  A    between atoms: C_15  and  C_27
   13  A    between atoms: C_33  and  C_37
   14  A    between atoms: C_34  and  C_37
                            x       y       z     vdW  Elec       q    Type
                         _______ _______ _______ _____ _____    ______ ____

>  <TORSDO>
F 14

$$$$
=
 OpenBabel10232411063D

 39 42  0  0  1  0  0  0  0  0999 V2000
  187.1070  178.0550  141.0760 C   0  0  1  0  0  3  0  0  0  0  0  0
  188.4680  177.3370  145.0670 C   0  0  0  0  0  0  0  0  0  0  0  0
  186.7920  178.2050  143.5550 C   0  0  0  0  0  3  0  0  0  0  0  0
  186.7020  178.2150  146.0750 C   0  0  0  0  0  0  0  0  0  0  0  0
  187.6000  177.8100  142.4730 C   0  0  0  0  0  0  0  0  0  0  0  0
  185.3890  178.8700  146.3430 C   0  0  0  0  0  1  0  0  0  0  0  0
  187.6140  177.7410  147.0120 C   0  0  0  0  0  0  0  0  0  0  0  0
  188.6920  177.2040  146.3900 N   0  0  0  0  0  0  0  0  0  0  0  0
  189.2900  176.9280  144.0160 C   0  0  0  0  0  3  0  0  0  0  0  0
  187.4370  177.7980  148.4940 C   0  0  0  0  0  1  0  0  0  0  0  0
  187.2610  177.9510  144.8420 C   0  0  0  0  0  0  0  0  0  0  0  0
  188.8400  177.1690  142.7060 C   0  0  0  0  0  3  0  0  0  0  0  0
  189.8710  176.6240  147.0260 C   0  0  0  0  0  2  0  0  0  0  0  0
  191.1210  176.8950  146.1940 C   0  0  0  0  0  2  0  0  0  0  0  0
  192.5040  175.7080  147.9000 C   0  0  0  0  0  1  0  0  0  0  0  0
  192.1850  175.8320  146.4230 C   0  0  0  0  0  2  0  0  0  0  0  0
  186.0570  179.0640  141.0730 N   0  0  0  0  0  2  0  0  0  0  0  0
  184.8890  178.4790  140.4320 C   0  0  0  0  0  2  0  0  0  0  0  0
  184.1880  179.5140  139.5600 C   0  0  0  0  0  2  0  0  0  0  0  0
  182.7960  179.0480  139.1480 C   0  0  0  0  0  2  0  0  0  0  0  0
  182.4160  177.7390  139.8310 C   0  0  0  0  0  2  0  0  0  0  0  0
  180.3480  176.8130  140.5460 O   0  0  0  0  0  0  0  0  0  0  0  0
  181.0830  177.8360  140.5080 C   0  0  0  0  0  0  0  0  0  0  0  0
  180.5650  179.0850  140.9870 N   0  0  0  0  0  0  0  0  0  0  0  0
  180.6740  179.5970  142.1800 C   0  0  0  0  0  3  0  0  0  0  0  0
  180.4970  178.3070  144.1800 O   0  0  0  0  0  0  0  0  0  0  0  0
  182.6840  179.0590  143.6550 C   0  0  0  0  0  1  0  0  0  0  0  0
  181.2320  178.9210  143.3640 C   0  0  0  0  0  0  0  0  0  0  0  0
  188.2410  178.4920  140.1530 C   0  0  0  0  0  2  0  0  0  0  0  0
  192.0190  174.7920  137.4810 C   0  0  0  0  0  3  0  0  0  0  0  0
  187.4260  177.2110  138.2650 N   0  0  0  0  0  0  0  0  0  0  0  0
  189.7410  176.9530  139.0340 N   0  0  0  0  0  2  0  0  0  0  0  0
  187.2720  176.4050  137.2190 N   0  0  0  0  0  2  0  0  0  0  0  0
  188.4820  177.4750  139.0890 C   0  0  0  0  0  0  0  0  0  0  0  0
  191.7260  175.7250  138.4650 C   0  0  0  0  0  2  0  0  0  0  0  0
  190.9390  174.5560  136.7090 N   0  0  0  0  0  0  0  0  0  0  0  0
  189.9630  175.3330  137.2010 C   0  0  0  0  0  0  0  0  0  0  0  0
  188.4230  175.3950  136.5510 S   0  0  0  0  0  0  0  0  0  0  0  0
  190.4040  176.0570  138.2650 C   0  0  0  0  0  0  0  0  0  0  0  0
  1 29  1  6  0  0  0
  1  5  1  0  0  0  0
  2  8  1  0  0  0  0
  3 11  2  0  0  0  0
  4  6  1  0  0  0  0
  4  7  2  0  0  0  0
  5 12  2  0  0  0  0
  5  3  1  0  0  0  0
  7 10  1  0  0  0  0
  8  7  1  0  0  0  0
  8 13  1  0  0  0  0
  9  2  2  0  0  0  0
 11  2  1  0  0  0  0
 11  4  1  0  0  0  0
 12  9  1  0  0  0  0
 14 16  1  0  0  0  0
 14 13  1  0  0  0  0
 16 15  1  0  0  0  0
 17  1  1  0  0  0  0
 18 17  1  0  0  0  0
 19 18  1  0  0  0  0
 20 19  1  0  0  0  0
 20 21  1  0  0  0  0
 21 23  1  0  0  0  0
 23 22  2  0  0  0  0
 23 24  1  0  0  0  0
 24 25  2  0  0  0  0
 25 28  1  0  0  0  0
 28 27  1  0  0  0  0
 28 26  2  0  0  0  0
 30 35  1  0  0  0  0
 31 34  2  0  0  0  0
 32 34  1  0  0  0  0
 33 31  1  0  0  0  0
 34 29  1  0  0  0  0
 36 37  1  0  0  0  0
 36 30  2  0  0  0  0
 37 39  2  0  0  0  0
 38 37  1  0  0  0  0
 38 33  1  0  0  0  0
 39 35  1  0  0  0  0
 39 32  1  0  0  0  0
M  END
>  <MODEL>
8

>  <REMARK>
 VINA RESULT:      -7.2      2.369      4.169
  Name = 
  14 active torsions:
  status: ('A' for Active; 'I' for Inactive)
    1  A    between atoms: N_1  and  C_11
    2  A    between atoms: N_1  and  C_24
    3  A    between atoms: C_3  and  C_4
    4  A    between atoms: C_3  and  N_29
    5  A    between atoms: C_4  and  C_22
    6  A    between atoms: N_6  and  C_33
    7  A    between atoms: C_7  and  C_24
    8  A    between atoms: C_7  and  C_34
    9  A    between atoms: C_11  and  C_23
   10  A    between atoms: C_11  and  C_39
   11  A    between atoms: C_12  and  C_39
   12  A    between atoms: C_15  and  C_27
   13  A    between atoms: C_33  and  C_37
   14  A    between atoms: C_34  and  C_37
                            x       y       z     vdW  Elec       q    Type
                         _______ _______ _______ _____ _____    ______ ____

>  <TORSDO>
F 14

$$$$
=
 OpenBabel10232411063D

 39 42  0  0  1  0  0  0  0  0999 V2000
  188.4760  178.3240  139.9160 C   0  0  1  0  0  3  0  0  0  0  0  0
  184.3330  178.7020  140.9120 C   0  0  0  0  0  0  0  0  0  0  0  0
  186.6380  178.4750  141.6100 C   0  0  0  0  0  3  0  0  0  0  0  0
  184.6190  178.6670  143.1080 C   0  0  0  0  0  0  0  0  0  0  0  0
  187.0190  178.4440  140.2550 C   0  0  0  0  0  0  0  0  0  0  0  0
  185.2270  178.6070  144.4690 C   0  0  0  0  0  1  0  0  0  0  0  0
  183.2710  178.8000  142.7930 C   0  0  0  0  0  0  0  0  0  0  0  0
  183.1010  178.8220  141.4480 N   0  0  0  0  0  0  0  0  0  0  0  0
  184.6780  178.6820  139.5600 C   0  0  0  0  0  3  0  0  0  0  0  0
  182.1600  178.9160  143.7850 C   0  0  0  0  0  1  0  0  0  0  0  0
  185.2820  178.6050  141.9000 C   0  0  0  0  0  0  0  0  0  0  0  0
  186.0400  178.5530  139.2370 C   0  0  0  0  0  3  0  0  0  0  0  0
  181.8370  178.9260  140.7260 C   0  0  0  0  0  2  0  0  0  0  0  0
  181.1960  177.5520  140.5600 C   0  0  0  0  0  2  0  0  0  0  0  0
  182.4270  175.8000  139.2750 C   0  0  0  0  0  1  0  0  0  0  0  0
  181.4690  176.9730  139.1800 C   0  0  0  0  0  2  0  0  0  0  0  0
  189.0200  177.0750  140.4320 N   0  0  0  0  0  2  0  0  0  0  0  0
  190.1280  177.4110  141.3130 C   0  0  0  0  0  2  0  0  0  0  0  0
  190.2990  176.3380  142.3830 C   0  0  0  0  0  2  0  0  0  0  0  0
  189.0530  176.2130  143.2520 C   0  0  0  0  0  2  0  0  0  0  0  0
  188.8050  177.4780  144.0670 C   0  0  0  0  0  2  0  0  0  0  0  0
  190.6460  178.8640  144.6440 O   0  0  0  0  0  0  0  0  0  0  0  0
  189.9870  177.8260  144.9200 C   0  0  0  0  0  0  0  0  0  0  0  0
  190.4680  176.9460  145.9450 N   0  0  0  0  0  0  0  0  0  0  0  0
  190.0310  176.8160  147.1660 C   0  0  0  0  0  3  0  0  0  0  0  0
  189.3540  178.5240  148.6890 O   0  0  0  0  0  0  0  0  0  0  0  0
  187.5880  177.4530  147.5230 C   0  0  0  0  0  1  0  0  0  0  0  0
  189.0290  177.6730  147.8200 C   0  0  0  0  0  0  0  0  0  0  0  0
  188.7060  178.4010  138.4100 C   0  0  0  0  0  2  0  0  0  0  0  0
  187.1290  173.0040  136.5450 C   0  0  0  0  0  3  0  0  0  0  0  0
  190.4650  176.8860  137.7120 N   0  0  0  0  0  0  0  0  0  0  0  0
  188.1150  176.1870  137.6240 N   0  0  0  0  0  2  0  0  0  0  0  0
  191.1920  175.8570  137.2890 N   0  0  0  0  0  2  0  0  0  0  0  0
  189.1210  177.0750  137.8670 C   0  0  0  0  0  0  0  0  0  0  0  0
  186.8050  174.2630  137.0270 C   0  0  0  0  0  2  0  0  0  0  0  0
  188.4640  172.8780  136.3940 N   0  0  0  0  0  0  0  0  0  0  0  0
  188.9850  174.0520  136.7770 C   0  0  0  0  0  0  0  0  0  0  0  0
  190.6280  174.3690  136.7810 S   0  0  0  0  0  0  0  0  0  0  0  0
  188.0100  174.9160  137.1680 C   0  0  0  0  0  0  0  0  0  0  0  0
  1 29  1  6  0  0  0
  1  5  1  0  0  0  0
  1 17  1  0  0  0  0
  2  8  1  0  0  0  0
  2 11  1  0  0  0  0
  3 11  2  0  0  0  0
  4  6  1  0  0  0  0
  5  3  1  0  0  0  0
  7  4  2  0  0  0  0
  7 10  1  0  0  0  0
  8  7  1  0  0  0  0
  9  2  2  0  0  0  0
 11  4  1  0  0  0  0
 12  9  1  0  0  0  0
 12  5  2  0  0  0  0
 13  8  1  0  0  0  0
 14 13  1  0  0  0  0
 16 15  1  0  0  0  0
 16 14  1  0  0  0  0
 17 18  1  0  0  0  0
 18 19  1  0  0  0  0
 19 20  1  0  0  0  0
 20 21  1  0  0  0  0
 21 23  1  0  0  0  0
 22 23  2  0  0  0  0
 23 24  1  0  0  0  0
 24 25  2  0  0  0  0
 25 28  1  0  0  0  0
 27 28  1  0  0  0  0
 28 26  2  0  0  0  0
 30 35  1  0  0  0  0
 31 34  2  0  0  0  0
 32 34  1  0  0  0  0
 33 31  1  0  0  0  0
 34 29  1  0  0  0  0
 35 39  1  0  0  0  0
 36 30  2  0  0  0  0
 36 37  1  0  0  0  0
 37 38  1  0  0  0  0
 37 39  2  0  0  0  0
 38 33  1  0  0  0  0
 39 32  1  0  0  0  0
M  END
>  <MODEL>
9

>  <REMARK>
 VINA RESULT:      -7.2      2.704      6.066
  Name = 
  14 active torsions:
  status: ('A' for Active; 'I' for Inactive)
    1  A    between atoms: N_1  and  C_11
    2  A    between atoms: N_1  and  C_24
    3  A    between atoms: C_3  and  C_4
    4  A    between atoms: C_3  and  N_29
    5  A    between atoms: C_4  and  C_22
    6  A    between atoms: N_6  and  C_33
    7  A    between atoms: C_7  and  C_24
    8  A    between atoms: C_7  and  C_34
    9  A    between atoms: C_11  and  C_23
   10  A    between atoms: C_11  and  C_39
   11  A    between atoms: C_12  and  C_39
   12  A    between atoms: C_15  and  C_27
   13  A    between atoms: C_33  and  C_37
   14  A    between atoms: C_34  and  C_37
                            x       y       z     vdW  Elec       q    Type
                         _______ _______ _______ _____ _____    ______ ____

>  <TORSDO>
F 14

$$$$
