=
 OpenBabel10232412003D

 41 46  0  0  1  0  0  0  0  0999 V2000
  188.8610  177.4150  138.3830 C   0  0  1  0  0  0  0  0  0  0  0  0
  190.1740  176.8630  138.8900 C   0  0  0  0  0  2  0  0  0  0  0  0
  188.7550  177.3760  140.7810 N   0  0  0  0  0  0  0  0  0  0  0  0
  190.0910  176.9060  140.4160 C   0  0  0  0  0  2  0  0  0  0  0  0
  188.2260  178.0540  139.6070 C   0  0  0  0  0  2  0  0  0  0  0  0
  188.9070  179.7440  137.7320 O   0  0  0  0  0  1  0  0  0  0  0  0
  189.1110  178.4400  137.2750 C   0  0  0  0  0  2  0  0  0  0  0  0
  188.9310  178.3900  141.8100 C   0  0  0  0  0  2  0  0  0  0  0  0
  189.3130  177.7390  143.1400 C   0  0  0  0  0  2  0  0  0  0  0  0
  188.2000  176.9460  143.6530 N   0  0  0  0  0  2  0  0  0  0  0  0
  187.6320  177.6520  144.8010 C   0  0  1  0  0  3  0  0  0  0  0  0
  185.1680  179.3030  143.8220 C   0  0  1  0  0  3  0  0  0  0  0  0
  183.3270  178.9280  145.1880 C   0  0  0  0  0  3  0  0  0  0  0  0
  186.1660  177.6140  144.7600 N   0  0  0  0  0  0  0  0  0  0  0  0
  185.7320  177.9590  143.4040 C   0  0  0  0  0  2  0  0  0  0  0  0
  184.4620  178.7330  146.0160 N   0  0  0  0  0  2  0  0  0  0  0  0
  183.6770  179.2440  143.9530 C   0  0  0  0  0  3  0  0  0  0  0  0
  185.6640  178.9140  145.2120 C   0  0  2  0  0  3  0  0  0  0  0  0
  188.1340  177.0780  146.0590 N   0  0  0  0  0  2  0  0  0  0  0  0
  189.3190  177.8080  146.5070 C   0  0  0  0  0  2  0  0  0  0  0  0
  189.2100  178.1070  147.9930 C   0  0  0  0  0  2  0  0  0  0  0  0
  187.8840  177.6080  148.5360 C   0  0  0  0  0  1  0  0  0  0  0  0
  188.0520  176.2980  137.8840 N   0  0  0  0  0  2  0  0  0  0  0  0
  187.2720  176.6910  136.7120 C   0  0  0  0  0  2  0  0  0  0  0  0
  186.0050  174.6130  135.9500 C   0  0  1  0  0  0  0  0  0  0  0  0
  185.1410  173.3730  135.7010 C   0  0  2  0  0  3  0  0  0  0  0  0
  186.0380  174.7060  137.4470 N   0  0  0  0  0  2  0  0  0  0  0  0
  185.9620  175.9230  136.6850 C   0  0  1  0  0  0  0  0  0  0  0  0
  184.7190  174.6270  135.3220 O   0  0  0  0  0  0  0  0  0  0  0  0
  184.2050  172.8140  136.7960 C   0  0  0  0  0  0  0  0  0  0  0  0
  184.9350  172.5600  137.9460 F   0  0  0  0  0  0  0  0  0  0  0  0
  183.1570  173.6770  137.1010 F   0  0  0  0  0  0  0  0  0  0  0  0
  183.6770  171.6220  136.3410 F   0  0  0  0  0  0  0  0  0  0  0  0
  184.6500  176.6820  136.9590 C   0  0  0  0  0  2  0  0  0  0  0  0
  182.0620  177.8140  138.5120 C   0  0  0  0  0  0  0  0  0  0  0  0
  184.3630  178.3860  138.8150 C   0  0  1  0  0  3  0  0  0  0  0  0
  182.7620  176.2200  138.9060 S   0  0  0  0  0  0  0  0  0  0  0  0
  184.3920  176.8970  138.4540 C   0  0  1  0  0  3  0  0  0  0  0  0
  185.3840  179.1000  138.1790 O   0  0  0  0  0  1  0  0  0  0  0  0
  180.8820  177.9470  138.2300 O   0  0  0  0  0  0  0  0  0  0  0  0
  183.0030  178.9580  138.4580 C   0  0  0  0  0  2  0  0  0  0  0  0
  1  7  1  6  0  0  0
  1  2  1  0  0  0  0
  1  5  1  0  0  0  0
  2  4  1  0  0  0  0
  3  8  1  0  0  0  0
  4  3  1  0  0  0  0
  5  3  1  0  0  0  0
  7  6  1  0  0  0  0
  8  9  1  0  0  0  0
  9 10  1  0  0  0  0
 11 10  1  6  0  0  0
 11 19  1  0  0  0  0
 12 15  1  6  0  0  0
 12 17  1  0  0  0  0
 12 18  1  0  0  0  0
 13 16  1  0  0  0  0
 14 11  1  0  0  0  0
 14 18  1  0  0  0  0
 15 14  1  0  0  0  0
 17 13  2  0  0  0  0
 18 16  1  1  0  0  0
 19 20  1  0  0  0  0
 20 21  1  0  0  0  0
 21 22  1  0  0  0  0
 23  1  1  0  0  0  0
 24 23  1  0  0  0  0
 25 29  1  1  0  0  0
 25 28  1  0  0  0  0
 25 27  1  0  0  0  0
 26 25  1  0  0  0  0
 26 30  1  1  0  0  0
 28 24  1  6  0  0  0
 28 34  1  0  0  0  0
 28 27  1  0  0  0  0
 29 26  1  0  0  0  0
 30 32  1  0  0  0  0
 30 31  1  0  0  0  0
 33 30  1  0  0  0  0
 35 37  1  0  0  0  0
 36 39  1  6  0  0  0
 38 34  1  6  0  0  0
 38 36  1  0  0  0  0
 38 37  1  0  0  0  0
 40 35  2  0  0  0  0
 41 35  1  0  0  0  0
 41 36  1  0  0  0  0
M  END
>  <MODEL>
1

>  <REMARK>
 VINA RESULT:      -7.0      0.000      0.000
  Name = 
  15 active torsions:
  status: ('A' for Active; 'I' for Inactive)
    1  A    between atoms: C_2  and  N_26
    2  A    between atoms: C_2  and  C_30
    3  A    between atoms: C_5  and  C_32
    4  A    between atoms: C_6  and  C_7
    5  A    between atoms: N_11  and  C_31
    6  A    between atoms: C_12  and  C_19
    7  A    between atoms: C_12  and  N_21
    8  A    between atoms: C_15  and  N_21
    9  A    between atoms: C_15  and  C_39
   10  A    between atoms: C_19  and  C_41
   11  A    between atoms: C_23  and  C_41
   12  A    between atoms: C_30  and  N_34
   13  A    between atoms: C_31  and  N_34
   14  A    between atoms: C_31  and  N_40
   15  A    between atoms: C_32  and  N_40
                            x       y       z     vdW  Elec       q    Type
                         _______ _______ _______ _____ _____    ______ ____

>  <TORSDO>
F 15

$$$$
=
 OpenBabel10232412003D

 41 46  0  0  1  0  0  0  0  0999 V2000
  188.8840  177.3940  137.9470 C   0  0  1  0  0  0  0  0  0  0  0  0
  190.3000  177.0280  138.3280 C   0  0  0  0  0  2  0  0  0  0  0  0
  188.9440  177.1160  140.3300 N   0  0  0  0  0  0  0  0  0  0  0  0
  190.3120  176.9150  139.8530 C   0  0  0  0  0  2  0  0  0  0  0  0
  188.2340  177.8000  139.2590 C   0  0  0  0  0  2  0  0  0  0  0  0
  188.9690  179.7830  137.5780 O   0  0  0  0  0  1  0  0  0  0  0  0
  188.8880  178.5440  136.9370 C   0  0  0  0  0  2  0  0  0  0  0  0
  189.0180  178.0460  141.4470 C   0  0  0  0  0  2  0  0  0  0  0  0
  187.7380  177.9790  142.2820 C   0  0  0  0  0  2  0  0  0  0  0  0
  187.8890  177.0090  143.3610 N   0  0  0  0  0  2  0  0  0  0  0  0
  186.9230  177.3430  144.4080 C   0  0  1  0  0  3  0  0  0  0  0  0
  188.9430  176.9470  146.7580 C   0  0  1  0  0  3  0  0  0  0  0  0
  188.4570  178.3850  148.5160 C   0  0  0  0  0  3  0  0  0  0  0  0
  187.5740  178.0750  145.5000 N   0  0  0  0  0  0  0  0  0  0  0  0
  189.0050  177.7620  145.4790 C   0  0  0  0  0  2  0  0  0  0  0  0
  187.2190  178.1450  147.8670 N   0  0  0  0  0  2  0  0  0  0  0  0
  189.4480  177.7380  147.9250 C   0  0  0  0  0  3  0  0  0  0  0  0
  187.4530  177.2750  146.7210 C   0  0  2  0  0  3  0  0  0  0  0  0
  185.8070  178.1220  143.8510 N   0  0  0  0  0  2  0  0  0  0  0  0
  185.3390  179.1010  144.8300 C   0  0  0  0  0  2  0  0  0  0  0  0
  183.9020  178.7950  145.2200 C   0  0  0  0  0  2  0  0  0  0  0  0
  182.9850  178.9480  144.0200 C   0  0  0  0  0  1  0  0  0  0  0  0
  188.2380  176.2060  137.3760 N   0  0  0  0  0  2  0  0  0  0  0  0
  187.2860  176.5720  136.3290 C   0  0  0  0  0  2  0  0  0  0  0  0
  186.0250  174.3930  135.9210 C   0  0  1  0  0  0  0  0  0  0  0  0
  185.1820  173.1150  135.8890 C   0  0  2  0  0  3  0  0  0  0  0  0
  186.1770  174.6610  137.3890 N   0  0  0  0  0  2  0  0  0  0  0  0
  186.0030  175.7790  136.5010 C   0  0  1  0  0  0  0  0  0  0  0  0
  184.6920  174.3070  135.4060 O   0  0  0  0  0  0  0  0  0  0  0  0
  184.3550  172.6690  137.1160 C   0  0  0  0  0  0  0  0  0  0  0  0
  185.1550  172.6940  138.2490 F   0  0  0  0  0  0  0  0  0  0  0  0
  183.2350  173.4660  137.3300 F   0  0  0  0  0  0  0  0  0  0  0  0
  183.9390  171.3690  136.9040 F   0  0  0  0  0  0  0  0  0  0  0  0
  184.6950  176.5380  136.7960 C   0  0  0  0  0  2  0  0  0  0  0  0
  182.1370  177.6820  138.3900 C   0  0  0  0  0  0  0  0  0  0  0  0
  184.4450  178.2490  138.6500 C   0  0  1  0  0  3  0  0  0  0  0  0
  182.8410  176.0880  138.7780 S   0  0  0  0  0  0  0  0  0  0  0  0
  184.4640  176.7580  138.2950 C   0  0  1  0  0  3  0  0  0  0  0  0
  185.4560  178.9580  137.9940 O   0  0  0  0  0  1  0  0  0  0  0  0
  180.9530  177.8170  138.1290 O   0  0  0  0  0  0  0  0  0  0  0  0
  183.0810  178.8240  138.3160 C   0  0  0  0  0  2  0  0  0  0  0  0
  1  7  1  6  0  0  0
  1  2  1  0  0  0  0
  1  5  1  0  0  0  0
  2  4  1  0  0  0  0
  3  8  1  0  0  0  0
  4  3  1  0  0  0  0
  5  3  1  0  0  0  0
  7  6  1  0  0  0  0
  8  9  1  0  0  0  0
  9 10  1  0  0  0  0
 11 10  1  6  0  0  0
 11 14  1  0  0  0  0
 12 15  1  6  0  0  0
 12 17  1  0  0  0  0
 14 18  1  0  0  0  0
 15 14  1  0  0  0  0
 16 13  1  0  0  0  0
 17 13  2  0  0  0  0
 18 12  1  0  0  0  0
 18 16  1  1  0  0  0
 19 11  1  0  0  0  0
 19 20  1  0  0  0  0
 20 21  1  0  0  0  0
 22 21  1  0  0  0  0
 23  1  1  0  0  0  0
 24 23  1  0  0  0  0
 25 29  1  1  0  0  0
 25 28  1  0  0  0  0
 25 27  1  0  0  0  0
 26 25  1  0  0  0  0
 26 30  1  1  0  0  0
 28 24  1  6  0  0  0
 28 34  1  0  0  0  0
 28 27  1  0  0  0  0
 29 26  1  0  0  0  0
 30 32  1  0  0  0  0
 30 31  1  0  0  0  0
 33 30  1  0  0  0  0
 35 37  1  0  0  0  0
 36 39  1  6  0  0  0
 38 34  1  6  0  0  0
 38 36  1  0  0  0  0
 38 37  1  0  0  0  0
 40 35  2  0  0  0  0
 41 35  1  0  0  0  0
 41 36  1  0  0  0  0
M  END
>  <MODEL>
2

>  <REMARK>
 VINA RESULT:      -7.0      0.777      2.600
  Name = 
  15 active torsions:
  status: ('A' for Active; 'I' for Inactive)
    1  A    between atoms: C_2  and  N_26
    2  A    between atoms: C_2  and  C_30
    3  A    between atoms: C_5  and  C_32
    4  A    between atoms: C_6  and  C_7
    5  A    between atoms: N_11  and  C_31
    6  A    between atoms: C_12  and  C_19
    7  A    between atoms: C_12  and  N_21
    8  A    between atoms: C_15  and  N_21
    9  A    between atoms: C_15  and  C_39
   10  A    between atoms: C_19  and  C_41
   11  A    between atoms: C_23  and  C_41
   12  A    between atoms: C_30  and  N_34
   13  A    between atoms: C_31  and  N_34
   14  A    between atoms: C_31  and  N_40
   15  A    between atoms: C_32  and  N_40
                            x       y       z     vdW  Elec       q    Type
                         _______ _______ _______ _____ _____    ______ ____

>  <TORSDO>
F 15

$$$$
=
 OpenBabel10232412003D

 41 46  0  0  1  0  0  0  0  0999 V2000
  188.4330  177.4580  137.7460 C   0  0  1  0  0  0  0  0  0  0  0  0
  189.8410  177.0140  137.4250 C   0  0  0  0  0  2  0  0  0  0  0  0
  189.4760  176.8070  139.8070 N   0  0  0  0  0  0  0  0  0  0  0  0
  190.4910  176.6620  138.7630 C   0  0  0  0  0  2  0  0  0  0  0  0
  188.4380  177.6630  139.2520 C   0  0  0  0  0  2  0  0  0  0  0  0
  188.9370  179.7980  137.4020 O   0  0  0  0  0  1  0  0  0  0  0  0
  188.1030  178.7520  136.9990 C   0  0  0  0  0  2  0  0  0  0  0  0
  190.0940  177.5480  140.8970 C   0  0  0  0  0  2  0  0  0  0  0  0
  191.0710  176.6540  141.6620 C   0  0  0  0  0  2  0  0  0  0  0  0
  190.4160  176.0750  142.8310 N   0  0  0  0  0  2  0  0  0  0  0  0
  190.0740  177.1650  143.7450 C   0  0  1  0  0  3  0  0  0  0  0  0
  187.0910  177.9310  144.2680 C   0  0  1  0  0  3  0  0  0  0  0  0
  186.5120  177.5330  146.4820 C   0  0  0  0  0  3  0  0  0  0  0  0
  188.9230  176.8010  144.5790 N   0  0  0  0  0  0  0  0  0  0  0  0
  187.7460  176.6790  143.7150 C   0  0  0  0  0  2  0  0  0  0  0  0
  187.9040  177.8100  146.4960 N   0  0  0  0  0  2  0  0  0  0  0  0
  186.0190  177.5860  145.2560 C   0  0  0  0  0  3  0  0  0  0  0  0
  188.3490  178.0330  145.1260 C   0  0  2  0  0  3  0  0  0  0  0  0
  191.2310  177.5220  144.5800 N   0  0  0  0  0  2  0  0  0  0  0  0
  191.6580  176.3660  145.3670 C   0  0  0  0  0  2  0  0  0  0  0  0
  191.5740  176.6920  146.8490 C   0  0  0  0  0  2  0  0  0  0  0  0
  192.3680  175.6810  147.6570 C   0  0  0  0  0  1  0  0  0  0  0  0
  187.5100  176.3850  137.3560 N   0  0  0  0  0  2  0  0  0  0  0  0
  186.3740  176.9120  136.6030 C   0  0  0  0  0  2  0  0  0  0  0  0
  184.8160  175.0500  135.8210 C   0  0  1  0  0  0  0  0  0  0  0  0
  183.8750  173.8670  135.5740 C   0  0  2  0  0  3  0  0  0  0  0  0
  185.4760  174.6910  137.1190 N   0  0  0  0  0  2  0  0  0  0  0  0
  185.1410  176.0690  136.8760 C   0  0  1  0  0  0  0  0  0  0  0  0
  183.3880  175.1320  135.8130 O   0  0  0  0  0  0  0  0  0  0  0  0
  183.4580  172.9200  136.7220 C   0  0  0  0  0  0  0  0  0  0  0  0
  182.7430  171.8510  136.2050 F   0  0  0  0  0  0  0  0  0  0  0  0
  184.5450  172.4370  137.4440 F   0  0  0  0  0  0  0  0  0  0  0  0
  182.6350  173.6230  137.5790 F   0  0  0  0  0  0  0  0  0  0  0  0
  184.0980  176.5840  137.8860 C   0  0  0  0  0  2  0  0  0  0  0  0
  183.0150  178.5760  140.1770 C   0  0  0  0  0  0  0  0  0  0  0  0
  182.5780  178.6130  137.8270 C   0  0  1  0  0  3  0  0  0  0  0  0
  184.6700  178.7190  139.5230 S   0  0  0  0  0  0  0  0  0  0  0  0
  184.0230  178.1140  137.9310 C   0  0  1  0  0  3  0  0  0  0  0  0
  181.8490  177.9130  136.8610 O   0  0  0  0  0  1  0  0  0  0  0  0
  182.8030  178.4730  141.3740 O   0  0  0  0  0  0  0  0  0  0  0  0
  181.9140  178.5020  139.1880 C   0  0  0  0  0  2  0  0  0  0  0  0
  1  7  1  6  0  0  0
  1  5  1  0  0  0  0
  2  1  1  0  0  0  0
  2  4  1  0  0  0  0
  3  8  1  0  0  0  0
  4  3  1  0  0  0  0
  5  3  1  0  0  0  0
  7  6  1  0  0  0  0
  8  9  1  0  0  0  0
  9 10  1  0  0  0  0
 11 10  1  6  0  0  0
 11 14  1  0  0  0  0
 11 19  1  0  0  0  0
 12 15  1  6  0  0  0
 12 18  1  0  0  0  0
 12 17  1  0  0  0  0
 13 16  1  0  0  0  0
 14 18  1  0  0  0  0
 15 14  1  0  0  0  0
 17 13  2  0  0  0  0
 18 16  1  1  0  0  0
 19 20  1  0  0  0  0
 20 21  1  0  0  0  0
 21 22  1  0  0  0  0
 23  1  1  0  0  0  0
 24 23  1  0  0  0  0
 25 29  1  1  0  0  0
 25 28  1  0  0  0  0
 25 27  1  0  0  0  0
 26 29  1  0  0  0  0
 26 25  1  0  0  0  0
 26 30  1  1  0  0  0
 28 24  1  6  0  0  0
 28 27  1  0  0  0  0
 28 34  1  0  0  0  0
 30 32  1  0  0  0  0
 30 33  1  0  0  0  0
 31 30  1  0  0  0  0
 35 40  2  0  0  0  0
 36 39  1  6  0  0  0
 36 38  1  0  0  0  0
 36 41  1  0  0  0  0
 37 35  1  0  0  0  0
 38 34  1  1  0  0  0
 38 37  1  0  0  0  0
 41 35  1  0  0  0  0
M  END
>  <MODEL>
3

>  <REMARK>
 VINA RESULT:      -6.8      1.706      2.377
  Name = 
  15 active torsions:
  status: ('A' for Active; 'I' for Inactive)
    1  A    between atoms: C_2  and  N_26
    2  A    between atoms: C_2  and  C_30
    3  A    between atoms: C_5  and  C_32
    4  A    between atoms: C_6  and  C_7
    5  A    between atoms: N_11  and  C_31
    6  A    between atoms: C_12  and  C_19
    7  A    between atoms: C_12  and  N_21
    8  A    between atoms: C_15  and  N_21
    9  A    between atoms: C_15  and  C_39
   10  A    between atoms: C_19  and  C_41
   11  A    between atoms: C_23  and  C_41
   12  A    between atoms: C_30  and  N_34
   13  A    between atoms: C_31  and  N_34
   14  A    between atoms: C_31  and  N_40
   15  A    between atoms: C_32  and  N_40
                            x       y       z     vdW  Elec       q    Type
                         _______ _______ _______ _____ _____    ______ ____

>  <TORSDO>
F 15

$$$$
=
 OpenBabel10232412003D

 41 46  0  0  1  0  0  0  0  0999 V2000
  188.4510  177.4160  138.2240 C   0  0  1  0  0  0  0  0  0  0  0  0
  189.8150  176.8710  138.5780 C   0  0  0  0  0  2  0  0  0  0  0  0
  188.5620  177.2370  140.6140 N   0  0  0  0  0  0  0  0  0  0  0  0
  189.8700  176.8250  140.1050 C   0  0  0  0  0  2  0  0  0  0  0  0
  187.9150  177.9670  139.5350 C   0  0  0  0  0  2  0  0  0  0  0  0
  188.9130  179.7390  137.7310 O   0  0  0  0  0  1  0  0  0  0  0  0
  188.5780  178.5080  137.1600 C   0  0  0  0  0  2  0  0  0  0  0  0
  188.8080  178.1950  141.6820 C   0  0  0  0  0  2  0  0  0  0  0  0
  189.3240  177.4800  142.9320 C   0  0  0  0  0  2  0  0  0  0  0  0
  188.2080  176.9350  143.6990 N   0  0  0  0  0  2  0  0  0  0  0  0
  187.5400  178.0440  144.3780 C   0  0  1  0  0  3  0  0  0  0  0  0
  184.8640  179.4000  143.5070 C   0  0  1  0  0  3  0  0  0  0  0  0
  183.1380  178.8250  144.9520 C   0  0  0  0  0  3  0  0  0  0  0  0
  186.0880  177.8400  144.4010 N   0  0  0  0  0  0  0  0  0  0  0  0
  185.5590  178.1250  143.0640 C   0  0  0  0  0  2  0  0  0  0  0  0
  184.3230  178.7640  145.7290 N   0  0  0  0  0  2  0  0  0  0  0  0
  183.3960  179.1720  143.7020 C   0  0  0  0  0  3  0  0  0  0  0  0
  185.4610  179.0770  144.8730 C   0  0  2  0  0  3  0  0  0  0  0  0
  188.0660  178.2060  145.7420 N   0  0  0  0  0  2  0  0  0  0  0  0
  188.8120  177.0130  146.1370 C   0  0  0  0  0  2  0  0  0  0  0  0
  189.2450  177.1320  147.5900 C   0  0  0  0  0  2  0  0  0  0  0  0
  188.3540  178.1160  148.3260 C   0  0  0  0  0  1  0  0  0  0  0  0
  187.6240  176.3080  137.7320 N   0  0  0  0  0  2  0  0  0  0  0  0
  186.7060  176.7550  136.6870 C   0  0  0  0  0  2  0  0  0  0  0  0
  184.6840  177.8410  137.7980 C   0  0  1  0  0  0  0  0  0  0  0  0
  183.3430  178.3780  138.3080 C   0  0  2  0  0  3  0  0  0  0  0  0
  184.3650  177.4180  136.3940 N   0  0  0  0  0  2  0  0  0  0  0  0
  185.2730  176.6120  137.1670 C   0  0  1  0  0  0  0  0  0  0  0  0
  183.9150  177.2500  138.8500 O   0  0  0  0  0  0  0  0  0  0  0  0
  182.0140  178.0070  137.6130 C   0  0  0  0  0  0  0  0  0  0  0  0
  181.9220  178.6730  136.4000 F   0  0  0  0  0  0  0  0  0  0  0  0
  181.8830  176.6390  137.3940 F   0  0  0  0  0  0  0  0  0  0  0  0
  180.9750  178.4270  138.4210 F   0  0  0  0  0  0  0  0  0  0  0  0
  184.7080  175.1990  137.4100 C   0  0  0  0  0  2  0  0  0  0  0  0
  183.0450  172.7090  136.2160 C   0  0  0  0  0  0  0  0  0  0  0  0
  185.3600  172.8250  136.8020 C   0  0  1  0  0  3  0  0  0  0  0  0
  183.5960  174.0480  135.1720 S   0  0  0  0  0  0  0  0  0  0  0  0
  185.0370  174.2270  136.2720 C   0  0  1  0  0  3  0  0  0  0  0  0
  186.1780  172.8680  137.9350 O   0  0  0  0  0  1  0  0  0  0  0  0
  181.8760  172.3610  136.2530 O   0  0  0  0  0  0  0  0  0  0  0  0
  184.0620  172.0960  137.1030 C   0  0  0  0  0  2  0  0  0  0  0  0
  1  7  1  6  0  0  0
  1  2  1  0  0  0  0
  1  5  1  0  0  0  0
  2  4  1  0  0  0  0
  3  8  1  0  0  0  0
  4  3  1  0  0  0  0
  5  3  1  0  0  0  0
  7  6  1  0  0  0  0
  8  9  1  0  0  0  0
  9 10  1  0  0  0  0
 11 10  1  1  0  0  0
 11 14  1  0  0  0  0
 11 19  1  0  0  0  0
 12 15  1  6  0  0  0
 12 17  1  0  0  0  0
 12 18  1  0  0  0  0
 13 16  1  0  0  0  0
 14 18  1  0  0  0  0
 15 14  1  0  0  0  0
 17 13  2  0  0  0  0
 18 16  1  1  0  0  0
 19 20  1  0  0  0  0
 20 21  1  0  0  0  0
 21 22  1  0  0  0  0
 23  1  1  0  0  0  0
 24 23  1  0  0  0  0
 25 27  1  6  0  0  0
 25 26  1  0  0  0  0
 25 29  1  0  0  0  0
 26 30  1  6  0  0  0
 26 29  1  0  0  0  0
 27 28  1  0  0  0  0
 28 24  1  6  0  0  0
 28 34  1  0  0  0  0
 28 25  1  0  0  0  0
 30 33  1  0  0  0  0
 31 30  1  0  0  0  0
 32 30  1  0  0  0  0
 35 40  2  0  0  0  0
 35 41  1  0  0  0  0
 36 41  1  0  0  0  0
 36 39  1  1  0  0  0
 37 35  1  0  0  0  0
 37 38  1  0  0  0  0
 38 36  1  0  0  0  0
 38 34  1  1  0  0  0
M  END
>  <MODEL>
4

>  <REMARK>
 VINA RESULT:      -6.8      1.892      3.379
  Name = 
  15 active torsions:
  status: ('A' for Active; 'I' for Inactive)
    1  A    between atoms: C_2  and  N_26
    2  A    between atoms: C_2  and  C_30
    3  A    between atoms: C_5  and  C_32
    4  A    between atoms: C_6  and  C_7
    5  A    between atoms: N_11  and  C_31
    6  A    between atoms: C_12  and  C_19
    7  A    between atoms: C_12  and  N_21
    8  A    between atoms: C_15  and  N_21
    9  A    between atoms: C_15  and  C_39
   10  A    between atoms: C_19  and  C_41
   11  A    between atoms: C_23  and  C_41
   12  A    between atoms: C_30  and  N_34
   13  A    between atoms: C_31  and  N_34
   14  A    between atoms: C_31  and  N_40
   15  A    between atoms: C_32  and  N_40
                            x       y       z     vdW  Elec       q    Type
                         _______ _______ _______ _____ _____    ______ ____

>  <TORSDO>
F 15

$$$$
=
 OpenBabel10232412003D

 41 46  0  0  1  0  0  0  0  0999 V2000
  189.2420  177.8180  138.4970 C   0  0  1  0  0  0  0  0  0  0  0  0
  189.1870  178.8400  137.3840 C   0  0  0  0  0  2  0  0  0  0  0  0
  187.1520  177.5330  137.3540 N   0  0  0  0  0  0  0  0  0  0  0  0
  187.8720  178.5910  136.6460 C   0  0  0  0  0  2  0  0  0  0  0  0
  188.1430  176.8270  138.1520 C   0  0  0  0  0  2  0  0  0  0  0  0
  190.5140  175.7910  138.8480 O   0  0  0  0  0  1  0  0  0  0  0  0
  190.6170  177.1490  138.5330 C   0  0  0  0  0  2  0  0  0  0  0  0
  186.6790  176.5960  136.3450 C   0  0  0  0  0  2  0  0  0  0  0  0
  185.3130  177.0310  135.8120 C   0  0  0  0  0  2  0  0  0  0  0  0
  184.3250  175.9810  136.0350 N   0  0  0  0  0  2  0  0  0  0  0  0
  184.1300  175.8420  137.4780 C   0  0  1  0  0  3  0  0  0  0  0  0
  182.8430  177.0400  140.0590 C   0  0  1  0  0  3  0  0  0  0  0  0
  180.5340  177.1820  139.8420 C   0  0  0  0  0  3  0  0  0  0  0  0
  182.9860  176.6440  137.9260 N   0  0  0  0  0  0  0  0  0  0  0  0
  183.4760  177.6800  138.8390 C   0  0  0  0  0  2  0  0  0  0  0  0
  180.9280  176.0950  139.0200 N   0  0  0  0  0  2  0  0  0  0  0  0
  181.5740  177.7420  140.4380 C   0  0  0  0  0  3  0  0  0  0  0  0
  182.3800  175.9690  139.0760 C   0  0  2  0  0  3  0  0  0  0  0  0
  183.9500  174.4280  137.8410 N   0  0  0  0  0  2  0  0  0  0  0  0
  184.6750  173.5720  136.9030 C   0  0  0  0  0  2  0  0  0  0  0  0
  185.8380  172.8990  137.6130 C   0  0  0  0  0  2  0  0  0  0  0  0
  186.9850  172.6700  136.6450 C   0  0  0  0  0  1  0  0  0  0  0  0
  188.9660  178.5030  139.7660 N   0  0  0  0  0  2  0  0  0  0  0  0
  188.0440  177.7300  140.5950 C   0  0  0  0  0  2  0  0  0  0  0  0
  189.6020  176.4690  142.1720 C   0  0  1  0  0  0  0  0  0  0  0  0
  190.5870  175.9200  143.2080 C   0  0  2  0  0  3  0  0  0  0  0  0
  190.0120  177.9060  142.0440 N   0  0  0  0  0  2  0  0  0  0  0  0
  188.6110  177.5840  141.9960 C   0  0  1  0  0  0  0  0  0  0  0  0
  189.2400  176.0050  143.4770 O   0  0  0  0  0  0  0  0  0  0  0  0
  191.3680  176.8630  144.1510 C   0  0  0  0  0  0  0  0  0  0  0  0
  192.1120  176.1120  145.0480 F   0  0  0  0  0  0  0  0  0  0  0  0
  192.2160  177.7290  143.4660 F   0  0  0  0  0  0  0  0  0  0  0  0
  190.4530  177.6130  144.8630 F   0  0  0  0  0  0  0  0  0  0  0  0
  187.8440  178.2120  143.1760 C   0  0  0  0  0  2  0  0  0  0  0  0
  184.9390  179.1880  144.1740 C   0  0  0  0  0  0  0  0  0  0  0  0
  186.3360  177.4690  145.0740 C   0  0  1  0  0  3  0  0  0  0  0  0
  185.1270  178.1220  142.7550 S   0  0  0  0  0  0  0  0  0  0  0  0
  186.5970  177.4120  143.5640 C   0  0  1  0  0  3  0  0  0  0  0  0
  187.5120  177.3210  145.8160 O   0  0  0  0  0  1  0  0  0  0  0  0
  184.3180  180.2370  144.1140 O   0  0  0  0  0  0  0  0  0  0  0  0
  185.6480  178.7800  145.4110 C   0  0  0  0  0  2  0  0  0  0  0  0
  1  7  1  1  0  0  0
  1 23  1  0  0  0  0
  2  1  1  0  0  0  0
  3  5  1  0  0  0  0
  4  3  1  0  0  0  0
  4  2  1  0  0  0  0
  5  1  1  0  0  0  0
  7  6  1  0  0  0  0
  8  3  1  0  0  0  0
  9 10  1  0  0  0  0
  9  8  1  0  0  0  0
 11 10  1  6  0  0  0
 11 19  1  0  0  0  0
 11 14  1  0  0  0  0
 12 15  1  6  0  0  0
 12 17  1  0  0  0  0
 13 17  2  0  0  0  0
 14 15  1  0  0  0  0
 14 18  1  0  0  0  0
 16 13  1  0  0  0  0
 18 16  1  6  0  0  0
 18 12  1  0  0  0  0
 20 21  1  0  0  0  0
 20 19  1  0  0  0  0
 22 21  1  0  0  0  0
 23 24  1  0  0  0  0
 25 27  1  1  0  0  0
 25 26  1  0  0  0  0
 25 29  1  0  0  0  0
 26 29  1  0  0  0  0
 26 30  1  1  0  0  0
 28 24  1  6  0  0  0
 28 27  1  0  0  0  0
 28 25  1  0  0  0  0
 28 34  1  0  0  0  0
 30 33  1  0  0  0  0
 30 31  1  0  0  0  0
 32 30  1  0  0  0  0
 35 41  1  0  0  0  0
 36 41  1  0  0  0  0
 36 39  1  1  0  0  0
 37 38  1  0  0  0  0
 37 35  1  0  0  0  0
 38 34  1  1  0  0  0
 38 36  1  0  0  0  0
 40 35  2  0  0  0  0
M  END
>  <MODEL>
5

>  <REMARK>
 VINA RESULT:      -6.7      4.273      7.644
  Name = 
  15 active torsions:
  status: ('A' for Active; 'I' for Inactive)
    1  A    between atoms: C_2  and  N_26
    2  A    between atoms: C_2  and  C_30
    3  A    between atoms: C_5  and  C_32
    4  A    between atoms: C_6  and  C_7
    5  A    between atoms: N_11  and  C_31
    6  A    between atoms: C_12  and  C_19
    7  A    between atoms: C_12  and  N_21
    8  A    between atoms: C_15  and  N_21
    9  A    between atoms: C_15  and  C_39
   10  A    between atoms: C_19  and  C_41
   11  A    between atoms: C_23  and  C_41
   12  A    between atoms: C_30  and  N_34
   13  A    between atoms: C_31  and  N_34
   14  A    between atoms: C_31  and  N_40
   15  A    between atoms: C_32  and  N_40
                            x       y       z     vdW  Elec       q    Type
                         _______ _______ _______ _____ _____    ______ ____

>  <TORSDO>
F 15

$$$$
=
 OpenBabel10232412003D

 41 46  0  0  1  0  0  0  0  0999 V2000
  190.6030  176.9000  141.9100 C   0  0  1  0  0  0  0  0  0  0  0  0
  190.2040  175.8250  142.8950 C   0  0  0  0  0  2  0  0  0  0  0  0
  188.2350  177.0780  142.2580 N   0  0  0  0  0  0  0  0  0  0  0  0
  188.7040  176.0050  143.1340 C   0  0  0  0  0  2  0  0  0  0  0  0
  189.4130  177.8450  141.8850 C   0  0  0  0  0  2  0  0  0  0  0  0
  191.8460  177.8380  143.7620 O   0  0  0  0  0  1  0  0  0  0  0  0
  191.8760  177.6040  142.3840 C   0  0  0  0  0  2  0  0  0  0  0  0
  187.4020  177.9530  143.0710 C   0  0  0  0  0  2  0  0  0  0  0  0
  185.9490  177.8940  142.6000 C   0  0  0  0  0  2  0  0  0  0  0  0
  185.5280  179.1970  142.0940 N   0  0  0  0  0  2  0  0  0  0  0  0
  184.0710  179.1850  141.9690 C   0  0  1  0  0  3  0  0  0  0  0  0
  182.6770  179.5320  139.1960 C   0  0  1  0  0  3  0  0  0  0  0  0
  181.5360  177.5990  138.5960 C   0  0  0  0  0  3  0  0  0  0  0  0
  183.6570  178.4210  140.7870 N   0  0  0  0  0  0  0  0  0  0  0  0
  184.0900  179.1480  139.5910 C   0  0  0  0  0  2  0  0  0  0  0  0
  181.5380  177.6170  140.0150 N   0  0  0  0  0  2  0  0  0  0  0  0
  182.1660  178.6500  138.0980 C   0  0  0  0  0  3  0  0  0  0  0  0
  182.2760  178.7900  140.4670 C   0  0  2  0  0  3  0  0  0  0  0  0
  183.4530  178.6370  143.1870 N   0  0  0  0  0  2  0  0  0  0  0  0
  183.6690  179.5450  144.3120 C   0  0  0  0  0  2  0  0  0  0  0  0
  183.8370  178.7480  145.5940 C   0  0  0  0  0  2  0  0  0  0  0  0
  185.2760  178.8170  146.0730 C   0  0  0  0  0  1  0  0  0  0  0  0
  190.8150  176.2720  140.6010 N   0  0  0  0  0  2  0  0  0  0  0  0
  191.1280  177.2680  139.5800 C   0  0  0  0  0  2  0  0  0  0  0  0
  192.5140  176.0720  137.8050 C   0  0  1  0  0  0  0  0  0  0  0  0
  193.1590  175.2200  136.7070 C   0  0  2  0  0  3  0  0  0  0  0  0
  191.4080  175.1930  138.3080 N   0  0  0  0  0  2  0  0  0  0  0  0
  191.1720  176.6080  138.2130 C   0  0  1  0  0  0  0  0  0  0  0  0
  192.5090  176.3960  136.4110 O   0  0  0  0  0  0  0  0  0  0  0  0
  192.4060  174.0320  136.0680 C   0  0  0  0  0  0  0  0  0  0  0  0
  192.4410  172.9440  136.9270 F   0  0  0  0  0  0  0  0  0  0  0  0
  191.0820  174.3320  135.7650 F   0  0  0  0  0  0  0  0  0  0  0  0
  193.0600  173.6870  134.9010 F   0  0  0  0  0  0  0  0  0  0  0  0
  190.0580  176.9290  137.1980 C   0  0  0  0  0  2  0  0  0  0  0  0
  187.1070  177.0090  135.9040 C   0  0  0  0  0  0  0  0  0  0  0  0
  188.0520  178.4330  137.5760 C   0  0  1  0  0  3  0  0  0  0  0  0
  187.5420  175.8190  137.1620 S   0  0  0  0  0  0  0  0  0  0  0  0
  188.6800  177.0630  137.8530 C   0  0  1  0  0  3  0  0  0  0  0  0
  188.9810  179.4710  137.7000 O   0  0  0  0  0  1  0  0  0  0  0  0
  186.6290  176.6690  134.8340 O   0  0  0  0  0  0  0  0  0  0  0  0
  187.4350  178.4260  136.1890 C   0  0  0  0  0  2  0  0  0  0  0  0
  1  7  1  1  0  0  0
  1  2  1  0  0  0  0
  2  4  1  0  0  0  0
  3  8  1  0  0  0  0
  3  4  1  0  0  0  0
  5  1  1  0  0  0  0
  5  3  1  0  0  0  0
  7  6  1  0  0  0  0
  9  8  1  0  0  0  0
 10  9  1  0  0  0  0
 11 10  1  1  0  0  0
 11 19  1  0  0  0  0
 12 17  1  6  0  0  0
 12 15  1  0  0  0  0
 12 18  1  0  0  0  0
 13 16  1  0  0  0  0
 14 11  1  0  0  0  0
 15 14  1  0  0  0  0
 17 13  2  0  0  0  0
 18 16  1  6  0  0  0
 18 14  1  0  0  0  0
 19 20  1  0  0  0  0
 20 21  1  0  0  0  0
 21 22  1  0  0  0  0
 23  1  1  0  0  0  0
 24 23  1  0  0  0  0
 25 29  1  6  0  0  0
 25 28  1  0  0  0  0
 25 27  1  0  0  0  0
 26 30  1  6  0  0  0
 26 25  1  0  0  0  0
 28 34  1  6  0  0  0
 28 27  1  0  0  0  0
 28 24  1  0  0  0  0
 29 26  1  0  0  0  0
 30 31  1  0  0  0  0
 32 30  1  0  0  0  0
 33 30  1  0  0  0  0
 35 41  1  0  0  0  0
 35 37  1  0  0  0  0
 36 39  1  6  0  0  0
 36 38  1  0  0  0  0
 37 38  1  0  0  0  0
 38 34  1  6  0  0  0
 40 35  2  0  0  0  0
 41 36  1  0  0  0  0
M  END
>  <MODEL>
6

>  <REMARK>
 VINA RESULT:      -6.6      3.446      5.669
  Name = 
  15 active torsions:
  status: ('A' for Active; 'I' for Inactive)
    1  A    between atoms: C_2  and  N_26
    2  A    between atoms: C_2  and  C_30
    3  A    between atoms: C_5  and  C_32
    4  A    between atoms: C_6  and  C_7
    5  A    between atoms: N_11  and  C_31
    6  A    between atoms: C_12  and  C_19
    7  A    between atoms: C_12  and  N_21
    8  A    between atoms: C_15  and  N_21
    9  A    between atoms: C_15  and  C_39
   10  A    between atoms: C_19  and  C_41
   11  A    between atoms: C_23  and  C_41
   12  A    between atoms: C_30  and  N_34
   13  A    between atoms: C_31  and  N_34
   14  A    between atoms: C_31  and  N_40
   15  A    between atoms: C_32  and  N_40
                            x       y       z     vdW  Elec       q    Type
                         _______ _______ _______ _____ _____    ______ ____

>  <TORSDO>
F 15

$$$$
=
 OpenBabel10232412003D

 41 46  0  0  1  0  0  0  0  0999 V2000
  190.1490  177.2550  141.7400 C   0  0  1  0  0  0  0  0  0  0  0  0
  189.2630  176.4460  142.6580 C   0  0  0  0  0  2  0  0  0  0  0  0
  187.8760  177.8830  141.2930 N   0  0  0  0  0  0  0  0  0  0  0  0
  187.8330  176.9120  142.3860 C   0  0  0  0  0  2  0  0  0  0  0  0
  189.2470  178.3680  141.2310 C   0  0  0  0  0  2  0  0  0  0  0  0
  191.8960  176.8410  143.3610 O   0  0  0  0  0  1  0  0  0  0  0  0
  191.3490  177.8070  142.5130 C   0  0  0  0  0  2  0  0  0  0  0  0
  187.0490  179.0100  141.6950 C   0  0  0  0  0  2  0  0  0  0  0  0
  185.6290  178.5410  142.0180 C   0  0  0  0  0  2  0  0  0  0  0  0
  185.0610  179.3510  143.0910 N   0  0  0  0  0  2  0  0  0  0  0  0
  184.9630  178.5150  144.2870 C   0  0  1  0  0  3  0  0  0  0  0  0
  186.6390  177.3030  146.6270 C   0  0  1  0  0  3  0  0  0  0  0  0
  187.2020  178.9410  148.1760 C   0  0  0  0  0  3  0  0  0  0  0  0
  186.0110  178.8660  145.2520 N   0  0  0  0  0  0  0  0  0  0  0  0
  187.0200  177.8030  145.2460 C   0  0  0  0  0  2  0  0  0  0  0  0
  185.9820  179.3700  147.5920 N   0  0  0  0  0  2  0  0  0  0  0  0
  187.6070  177.7920  147.6620 C   0  0  0  0  0  3  0  0  0  0  0  0
  185.5850  178.4040  146.5750 C   0  0  2  0  0  3  0  0  0  0  0  0
  183.6300  178.6400  144.8960 N   0  0  0  0  0  2  0  0  0  0  0  0
  182.7960  179.5390  144.1010 C   0  0  0  0  0  2  0  0  0  0  0  0
  181.5730  178.7930  143.5930 C   0  0  0  0  0  2  0  0  0  0  0  0
  181.5510  178.7890  142.0750 C   0  0  0  0  0  1  0  0  0  0  0  0
  190.5950  176.3860  140.6440 N   0  0  0  0  0  2  0  0  0  0  0  0
  191.3140  177.1460  139.6240 C   0  0  0  0  0  2  0  0  0  0  0  0
  192.2200  175.5920  137.8160 C   0  0  1  0  0  0  0  0  0  0  0  0
  192.5460  174.5870  136.7070 C   0  0  2  0  0  3  0  0  0  0  0  0
  190.9230  175.0790  138.3680 N   0  0  0  0  0  2  0  0  0  0  0  0
  191.1110  176.5010  138.2640 C   0  0  1  0  0  0  0  0  0  0  0  0
  192.2610  175.9020  136.4200 O   0  0  0  0  0  0  0  0  0  0  0  0
  191.4540  173.6720  136.1080 C   0  0  0  0  0  0  0  0  0  0  0  0
  192.0500  172.6200  135.4290 F   0  0  0  0  0  0  0  0  0  0  0  0
  190.5890  173.1630  137.0720 F   0  0  0  0  0  0  0  0  0  0  0  0
  190.7200  174.4150  135.2040 F   0  0  0  0  0  0  0  0  0  0  0  0
  190.1060  177.1350  137.2840 C   0  0  0  0  0  2  0  0  0  0  0  0
  187.2990  177.0090  135.7050 C   0  0  0  0  0  0  0  0  0  0  0  0
  187.9290  178.4100  137.5370 C   0  0  1  0  0  3  0  0  0  0  0  0
  187.7320  175.7900  136.9350 S   0  0  0  0  0  0  0  0  0  0  0  0
  188.6650  177.0920  137.8030 C   0  0  1  0  0  3  0  0  0  0  0  0
  188.7300  179.5230  137.8110 O   0  0  0  0  0  1  0  0  0  0  0  0
  186.9620  176.6930  134.5760 O   0  0  0  0  0  0  0  0  0  0  0  0
  187.4510  178.4310  136.0970 C   0  0  0  0  0  2  0  0  0  0  0  0
  1  7  1  1  0  0  0
  1  2  1  0  0  0  0
  3  8  1  0  0  0  0
  3  4  1  0  0  0  0
  4  2  1  0  0  0  0
  5  3  1  0  0  0  0
  5  1  1  0  0  0  0
  7  6  1  0  0  0  0
  8  9  1  0  0  0  0
  9 10  1  0  0  0  0
 11 10  1  6  0  0  0
 11 19  1  0  0  0  0
 11 14  1  0  0  0  0
 12 15  1  6  0  0  0
 12 17  1  0  0  0  0
 14 18  1  0  0  0  0
 15 14  1  0  0  0  0
 16 13  1  0  0  0  0
 17 13  2  0  0  0  0
 18 12  1  0  0  0  0
 18 16  1  1  0  0  0
 20 19  1  0  0  0  0
 21 20  1  0  0  0  0
 22 21  1  0  0  0  0
 23  1  1  0  0  0  0
 24 23  1  0  0  0  0
 25 29  1  6  0  0  0
 25 28  1  0  0  0  0
 25 27  1  0  0  0  0
 26 30  1  6  0  0  0
 26 25  1  0  0  0  0
 28 34  1  6  0  0  0
 28 27  1  0  0  0  0
 28 24  1  0  0  0  0
 29 26  1  0  0  0  0
 30 32  1  0  0  0  0
 31 30  1  0  0  0  0
 33 30  1  0  0  0  0
 35 41  1  0  0  0  0
 35 37  1  0  0  0  0
 36 38  1  0  0  0  0
 36 39  1  6  0  0  0
 37 38  1  0  0  0  0
 38 34  1  6  0  0  0
 40 35  2  0  0  0  0
 41 36  1  0  0  0  0
M  END
>  <MODEL>
7

>  <REMARK>
 VINA RESULT:      -6.5      3.302      5.372
  Name = 
  15 active torsions:
  status: ('A' for Active; 'I' for Inactive)
    1  A    between atoms: C_2  and  N_26
    2  A    between atoms: C_2  and  C_30
    3  A    between atoms: C_5  and  C_32
    4  A    between atoms: C_6  and  C_7
    5  A    between atoms: N_11  and  C_31
    6  A    between atoms: C_12  and  C_19
    7  A    between atoms: C_12  and  N_21
    8  A    between atoms: C_15  and  N_21
    9  A    between atoms: C_15  and  C_39
   10  A    between atoms: C_19  and  C_41
   11  A    between atoms: C_23  and  C_41
   12  A    between atoms: C_30  and  N_34
   13  A    between atoms: C_31  and  N_34
   14  A    between atoms: C_31  and  N_40
   15  A    between atoms: C_32  and  N_40
                            x       y       z     vdW  Elec       q    Type
                         _______ _______ _______ _____ _____    ______ ____

>  <TORSDO>
F 15

$$$$
=
 OpenBabel10232412003D

 41 46  0  0  1  0  0  0  0  0999 V2000
  189.9930  177.4420  142.4750 C   0  0  1  0  0  0  0  0  0  0  0  0
  189.4580  176.0380  142.6380 C   0  0  0  0  0  2  0  0  0  0  0  0
  187.8320  177.6050  143.5040 N   0  0  0  0  0  0  0  0  0  0  0  0
  188.1100  176.1780  143.3460 C   0  0  0  0  0  2  0  0  0  0  0  0
  189.1110  178.2880  143.3780 C   0  0  0  0  0  2  0  0  0  0  0  0
  191.6130  177.1670  144.2500 O   0  0  0  0  0  1  0  0  0  0  0  0
  191.4620  177.5000  142.9020 C   0  0  0  0  0  2  0  0  0  0  0  0
  187.3850  177.7990  144.8760 C   0  0  0  0  0  2  0  0  0  0  0  0
  186.1430  178.6900  144.9120 C   0  0  0  0  0  2  0  0  0  0  0  0
  185.0370  178.0420  144.2140 N   0  0  0  0  0  2  0  0  0  0  0  0
  184.6470  178.8970  143.0930 C   0  0  1  0  0  3  0  0  0  0  0  0
  184.4920  179.2890  139.9980 C   0  0  1  0  0  3  0  0  0  0  0  0
  183.4860  177.4570  138.9820 C   0  0  0  0  0  3  0  0  0  0  0  0
  184.6530  178.1390  141.8360 N   0  0  0  0  0  0  0  0  0  0  0  0
  185.5910  178.7820  140.9120 C   0  0  0  0  0  2  0  0  0  0  0  0
  182.9350  177.5200  140.2880 N   0  0  0  0  0  2  0  0  0  0  0  0
  184.3650  178.4250  138.7800 C   0  0  0  0  0  3  0  0  0  0  0  0
  183.5520  178.6300  141.0030 C   0  0  2  0  0  3  0  0  0  0  0  0
  183.3250  179.4950  143.3340 N   0  0  0  0  0  2  0  0  0  0  0  0
  182.6230  178.7550  144.3810 C   0  0  0  0  0  2  0  0  0  0  0  0
  181.1280  178.7650  144.1050 C   0  0  0  0  0  2  0  0  0  0  0  0
  180.8310  179.5420  142.8350 C   0  0  0  0  0  1  0  0  0  0  0  0
  189.8470  177.8320  141.0680 N   0  0  0  0  0  2  0  0  0  0  0  0
  190.5990  176.9380  140.1900 C   0  0  0  0  0  2  0  0  0  0  0  0
  188.5130  177.0110  138.7250 C   0  0  1  0  0  0  0  0  0  0  0  0
  187.3800  177.2020  137.7120 C   0  0  2  0  0  3  0  0  0  0  0  0
  189.3600  178.2320  138.5180 N   0  0  0  0  0  2  0  0  0  0  0  0
  190.0130  176.9800  138.7900 C   0  0  1  0  0  0  0  0  0  0  0  0
  188.2850  176.1730  137.5880 O   0  0  0  0  0  0  0  0  0  0  0  0
  187.5260  178.1730  136.5180 C   0  0  0  0  0  0  0  0  0  0  0  0
  187.5800  179.4780  136.9850 F   0  0  0  0  0  0  0  0  0  0  0  0
  188.6570  177.9160  135.7500 F   0  0  0  0  0  0  0  0  0  0  0  0
  186.4080  178.0410  135.7180 F   0  0  0  0  0  0  0  0  0  0  0  0
  190.8890  176.5290  137.6040 C   0  0  0  0  0  2  0  0  0  0  0  0
  193.3790  175.3260  135.9480 C   0  0  0  0  0  0  0  0  0  0  0  0
  191.8130  174.1820  137.3470 C   0  0  1  0  0  3  0  0  0  0  0  0
  193.6150  176.1800  137.4980 S   0  0  0  0  0  0  0  0  0  0  0  0
  191.9890  175.5480  138.0210 C   0  0  1  0  0  3  0  0  0  0  0  0
  190.4780  173.7660  137.3450 O   0  0  0  0  0  1  0  0  0  0  0  0
  193.9740  175.6530  134.9350 O   0  0  0  0  0  0  0  0  0  0  0  0
  192.3570  174.2520  135.9310 C   0  0  0  0  0  2  0  0  0  0  0  0
  1  2  1  0  0  0  0
  1  7  1  1  0  0  0
  1  5  1  0  0  0  0
  2  4  1  0  0  0  0
  3  8  1  0  0  0  0
  4  3  1  0  0  0  0
  5  3  1  0  0  0  0
  7  6  1  0  0  0  0
  8  9  1  0  0  0  0
 10  9  1  0  0  0  0
 11 19  1  1  0  0  0
 11 10  1  0  0  0  0
 12 17  1  6  0  0  0
 12 15  1  0  0  0  0
 12 18  1  0  0  0  0
 13 16  1  0  0  0  0
 14 11  1  0  0  0  0
 15 14  1  0  0  0  0
 17 13  2  0  0  0  0
 18 16  1  6  0  0  0
 18 14  1  0  0  0  0
 19 20  1  0  0  0  0
 21 20  1  0  0  0  0
 22 21  1  0  0  0  0
 23  1  1  0  0  0  0
 24 23  1  0  0  0  0
 25 29  1  6  0  0  0
 25 28  1  0  0  0  0
 26 30  1  6  0  0  0
 26 25  1  0  0  0  0
 27 25  1  0  0  0  0
 27 28  1  0  0  0  0
 28 34  1  6  0  0  0
 28 24  1  0  0  0  0
 29 26  1  0  0  0  0
 30 31  1  0  0  0  0
 32 30  1  0  0  0  0
 33 30  1  0  0  0  0
 35 37  1  0  0  0  0
 36 39  1  6  0  0  0
 36 38  1  0  0  0  0
 37 38  1  0  0  0  0
 38 34  1  6  0  0  0
 40 35  2  0  0  0  0
 41 35  1  0  0  0  0
 41 36  1  0  0  0  0
M  END
>  <MODEL>
8

>  <REMARK>
 VINA RESULT:      -6.4      3.755      6.565
  Name = 
  15 active torsions:
  status: ('A' for Active; 'I' for Inactive)
    1  A    between atoms: C_2  and  N_26
    2  A    between atoms: C_2  and  C_30
    3  A    between atoms: C_5  and  C_32
    4  A    between atoms: C_6  and  C_7
    5  A    between atoms: N_11  and  C_31
    6  A    between atoms: C_12  and  C_19
    7  A    between atoms: C_12  and  N_21
    8  A    between atoms: C_15  and  N_21
    9  A    between atoms: C_15  and  C_39
   10  A    between atoms: C_19  and  C_41
   11  A    between atoms: C_23  and  C_41
   12  A    between atoms: C_30  and  N_34
   13  A    between atoms: C_31  and  N_34
   14  A    between atoms: C_31  and  N_40
   15  A    between atoms: C_32  and  N_40
                            x       y       z     vdW  Elec       q    Type
                         _______ _______ _______ _____ _____    ______ ____

>  <TORSDO>
F 15

$$$$
=
 OpenBabel10232412003D

 41 46  0  0  1  0  0  0  0  0999 V2000
  189.0920  177.2240  138.1680 C   0  0  1  0  0  0  0  0  0  0  0  0
  188.9310  178.6850  137.8140 C   0  0  0  0  0  2  0  0  0  0  0  0
  187.3080  177.3910  136.5710 N   0  0  0  0  0  0  0  0  0  0  0  0
  187.8290  178.7450  136.7560 C   0  0  0  0  0  2  0  0  0  0  0  0
  188.3300  176.4880  137.0790 C   0  0  0  0  0  2  0  0  0  0  0  0
  190.7520  175.5030  138.5350 O   0  0  0  0  0  1  0  0  0  0  0  0
  190.5740  176.8430  138.1800 C   0  0  0  0  0  2  0  0  0  0  0  0
  187.2210  177.1640  135.1360 C   0  0  0  0  0  2  0  0  0  0  0  0
  185.9250  176.4280  134.7910 C   0  0  0  0  0  2  0  0  0  0  0  0
  184.7720  177.2730  135.0840 N   0  0  0  0  0  2  0  0  0  0  0  0
  183.8640  176.5160  135.9450 C   0  0  1  0  0  3  0  0  0  0  0  0
  182.7580  173.7260  136.8120 C   0  0  1  0  0  3  0  0  0  0  0  0
  184.4950  172.2770  137.3410 C   0  0  0  0  0  3  0  0  0  0  0  0
  184.2070  175.0890  135.9340 N   0  0  0  0  0  0  0  0  0  0  0  0
  183.0450  174.3370  135.4540 C   0  0  0  0  0  2  0  0  0  0  0  0
  184.9850  173.5780  137.6210 N   0  0  0  0  0  2  0  0  0  0  0  0
  183.2550  172.3140  136.8830 C   0  0  0  0  0  3  0  0  0  0  0  0
  183.9560  174.5510  137.2730 C   0  0  2  0  0  3  0  0  0  0  0  0
  183.8890  177.0480  137.3160 N   0  0  0  0  0  2  0  0  0  0  0  0
  182.8570  178.0700  137.4780 C   0  0  0  0  0  2  0  0  0  0  0  0
  181.5510  177.5850  136.8700 C   0  0  0  0  0  2  0  0  0  0  0  0
  180.7750  178.7520  136.2870 C   0  0  0  0  0  1  0  0  0  0  0  0
  188.4890  177.0010  139.4880 N   0  0  0  0  0  2  0  0  0  0  0  0
  188.7730  178.1110  140.3940 C   0  0  0  0  0  2  0  0  0  0  0  0
  189.2530  177.0400  142.6590 C   0  0  1  0  0  0  0  0  0  0  0  0
  189.4260  176.5770  144.1090 C   0  0  2  0  0  3  0  0  0  0  0  0
  188.9830  178.5090  142.8030 N   0  0  0  0  0  2  0  0  0  0  0  0
  188.2740  177.7760  141.7890 C   0  0  1  0  0  0  0  0  0  0  0  0
  188.3700  176.1430  143.3400 O   0  0  0  0  0  0  0  0  0  0  0  0
  188.8990  177.4240  145.2890 C   0  0  0  0  0  0  0  0  0  0  0  0
  189.6710  178.5680  145.4210 F   0  0  0  0  0  0  0  0  0  0  0  0
  187.5650  177.7880  145.1380 F   0  0  0  0  0  0  0  0  0  0  0  0
  189.0260  176.6760  146.4430 F   0  0  0  0  0  0  0  0  0  0  0  0
  186.7560  177.7690  142.0520 C   0  0  0  0  0  2  0  0  0  0  0  0
  183.7600  178.7900  142.6630 C   0  0  0  0  0  0  0  0  0  0  0  0
  185.1470  179.2530  140.7710 C   0  0  1  0  0  3  0  0  0  0  0  0
  185.1770  179.5350  143.4520 S   0  0  0  0  0  0  0  0  0  0  0  0
  186.1300  179.1640  141.9440 C   0  0  1  0  0  3  0  0  0  0  0  0
  185.6410  178.6250  139.6240 O   0  0  0  0  0  1  0  0  0  0  0  0
  182.8190  178.3550  143.3060 O   0  0  0  0  0  0  0  0  0  0  0  0
  183.8190  178.6470  141.1880 C   0  0  0  0  0  2  0  0  0  0  0  0
  1  7  1  6  0  0  0
  1 23  1  0  0  0  0
  2  1  1  0  0  0  0
  3  4  1  0  0  0  0
  3  5  1  0  0  0  0
  4  2  1  0  0  0  0
  5  1  1  0  0  0  0
  7  6  1  0  0  0  0
  8  3  1  0  0  0  0
  9 10  1  0  0  0  0
  9  8  1  0  0  0  0
 11 10  1  6  0  0  0
 11 19  1  0  0  0  0
 12 15  1  6  0  0  0
 12 17  1  0  0  0  0
 12 18  1  0  0  0  0
 13 16  1  0  0  0  0
 14 11  1  0  0  0  0
 14 18  1  0  0  0  0
 15 14  1  0  0  0  0
 17 13  2  0  0  0  0
 18 16  1  6  0  0  0
 19 20  1  0  0  0  0
 21 20  1  0  0  0  0
 22 21  1  0  0  0  0
 23 24  1  0  0  0  0
 25 27  1  1  0  0  0
 25 29  1  0  0  0  0
 25 26  1  0  0  0  0
 26 30  1  1  0  0  0
 28 24  1  6  0  0  0
 28 34  1  0  0  0  0
 28 25  1  0  0  0  0
 28 27  1  0  0  0  0
 29 26  1  0  0  0  0
 30 31  1  0  0  0  0
 30 33  1  0  0  0  0
 32 30  1  0  0  0  0
 35 40  2  0  0  0  0
 35 37  1  0  0  0  0
 36 39  1  6  0  0  0
 36 41  1  0  0  0  0
 36 38  1  0  0  0  0
 38 34  1  1  0  0  0
 38 37  1  0  0  0  0
 41 35  1  0  0  0  0
M  END
>  <MODEL>
9

>  <REMARK>
 VINA RESULT:      -6.3      3.778      8.016
  Name = 
  15 active torsions:
  status: ('A' for Active; 'I' for Inactive)
    1  A    between atoms: C_2  and  N_26
    2  A    between atoms: C_2  and  C_30
    3  A    between atoms: C_5  and  C_32
    4  A    between atoms: C_6  and  C_7
    5  A    between atoms: N_11  and  C_31
    6  A    between atoms: C_12  and  C_19
    7  A    between atoms: C_12  and  N_21
    8  A    between atoms: C_15  and  N_21
    9  A    between atoms: C_15  and  C_39
   10  A    between atoms: C_19  and  C_41
   11  A    between atoms: C_23  and  C_41
   12  A    between atoms: C_30  and  N_34
   13  A    between atoms: C_31  and  N_34
   14  A    between atoms: C_31  and  N_40
   15  A    between atoms: C_32  and  N_40
                            x       y       z     vdW  Elec       q    Type
                         _______ _______ _______ _____ _____    ______ ____

>  <TORSDO>
F 15

$$$$
