=
 OpenBabel10232407543D

 26 29  0  0  0  0  0  0  0  0999 V2000
  185.2370  178.5480  145.7040 C   0  0  0  0  0  0  0  0  0  0  0  0
  190.6740  176.9970  146.2310 C   0  0  0  0  0  3  0  0  0  0  0  0
  188.6010  177.5660  145.7130 C   0  0  0  0  0  0  0  0  0  0  0  0
  186.9080  178.3210  147.1700 N   0  0  0  0  0  0  0  0  0  0  0  0
  186.7310  177.6610  143.4190 S   0  0  0  0  0  0  0  0  0  0  0  0
  189.1500  177.1740  144.5150 C   0  0  0  0  0  0  0  0  0  0  0  0
  187.3230  177.9950  145.9450 C   0  0  0  0  0  0  0  0  0  0  0  0
  189.4770  177.4640  146.7430 C   0  0  0  0  0  0  0  0  0  0  0  0
  185.6020  178.6670  147.0610 C   0  0  0  0  0  3  0  0  0  0  0  0
  190.4750  176.8230  144.8430 C   0  0  0  0  0  0  0  0  0  0  0  0
  187.7390  178.2450  148.2570 C   0  0  0  0  0  3  0  0  0  0  0  0
  189.0830  177.8030  148.0580 C   0  0  0  0  0  3  0  0  0  0  0  0
  186.3580  178.1050  145.0190 C   0  0  0  0  0  0  0  0  0  0  0  0
  188.3880  177.1460  143.3110 C   0  0  0  0  0  0  0  0  0  0  0  0
  192.0130  175.1960  144.0220 O   0  0  0  0  0  1  0  0  0  0  0  0
  192.0510  177.2240  142.9760 O   0  0  0  0  0  0  0  0  0  0  0  0
  191.5570  176.3660  143.9530 C   0  0  0  0  0  0  0  0  0  0  0  0
  188.9340  176.6740  142.0780 N   0  0  0  0  0  2  0  0  0  0  0  0
  189.1320  177.5320  140.9210 C   0  0  0  0  0  1  0  0  0  0  0  0
  183.8790  178.7620  145.1340 C   0  0  0  0  0  2  0  0  0  0  0  0
  183.9860  179.4440  143.8570 N   0  0  0  0  0  2  0  0  0  0  0  0
  183.0160  178.8260  142.9710 C   0  0  0  0  0  2  0  0  0  0  0  0
  185.2710  179.2870  139.9300 N   0  0  0  0  0  1  0  0  0  0  0  0
  183.1980  177.6850  140.8890 O   0  0  0  0  0  0  0  0  0  0  0  0
  184.6830  179.4590  141.1890 N   0  0  0  0  0  2  0  0  0  0  0  0
  183.6290  178.6070  141.6320 C   0  0  0  0  0  0  0  0  0  0  0  0
  1  9  2  0  0  0  0
  2  8  1  0  0  0  0
  3  7  1  0  0  0  0
  3  8  2  0  0  0  0
  4 11  1  0  0  0  0
  5 13  1  0  0  0  0
  6 10  1  0  0  0  0
  6  3  1  0  0  0  0
  7  4  1  0  0  0  0
  8 12  1  0  0  0  0
  9  4  1  0  0  0  0
 10  2  2  0  0  0  0
 12 11  2  0  0  0  0
 13  1  1  0  0  0  0
 13  7  2  0  0  0  0
 14  5  1  0  0  0  0
 14  6  2  0  0  0  0
 16 17  2  0  0  0  0
 17 15  1  0  0  0  0
 17 10  1  0  0  0  0
 18 14  1  0  0  0  0
 19 18  1  0  0  0  0
 20  1  1  0  0  0  0
 21 20  1  0  0  0  0
 22 21  1  0  0  0  0
 23 25  1  0  0  0  0
 24 26  2  0  0  0  0
 25 26  1  0  0  0  0
 26 22  1  0  0  0  0
M  END
>  <MODEL>
1

>  <REMARK>
 VINA RESULT:      -9.2      0.000      0.000
  Name = 
  6 active torsions:
  status: ('A' for Active; 'I' for Inactive)
    1  A    between atoms: N_3  and  C_25
    2  A    between atoms: C_5  and  C_10
    3  A    between atoms: C_9  and  C_16
    4  A    between atoms: C_9  and  N_26
    5  A    between atoms: C_10  and  N_26
    6  A    between atoms: C_18  and  C_21
                            x       y       z     vdW  Elec       q    Type
                         _______ _______ _______ _____ _____    ______ ____

>  <TORSDO>
F 6

$$$$
=
 OpenBabel10232407543D

 26 29  0  0  0  0  0  0  0  0999 V2000
  185.1900  178.2880  143.0960 C   0  0  0  0  0  0  0  0  0  0  0  0
  188.8130  177.5790  147.4100 C   0  0  0  0  0  3  0  0  0  0  0  0
  187.6480  177.7800  145.5420 C   0  0  0  0  0  0  0  0  0  0  0  0
  185.4180  178.5120  145.3070 N   0  0  0  0  0  0  0  0  0  0  0  0
  187.8350  177.2750  142.6300 S   0  0  0  0  0  0  0  0  0  0  0  0
  188.8620  177.2880  145.1270 C   0  0  0  0  0  0  0  0  0  0  0  0
  186.5540  178.0630  144.7710 C   0  0  0  0  0  0  0  0  0  0  0  0
  187.5890  177.9540  146.8860 C   0  0  0  0  0  0  0  0  0  0  0  0
  184.5360  178.6590  144.2880 C   0  0  0  0  0  3  0  0  0  0  0  0
  189.6090  177.1720  146.3160 C   0  0  0  0  0  0  0  0  0  0  0  0
  185.2890  178.7140  146.6560 C   0  0  0  0  0  3  0  0  0  0  0  0
  186.4080  178.4310  147.4990 C   0  0  0  0  0  3  0  0  0  0  0  0
  186.4760  177.9010  143.4400 C   0  0  0  0  0  0  0  0  0  0  0  0
  189.1220  176.9760  143.7610 C   0  0  0  0  0  0  0  0  0  0  0  0
  191.9510  177.3000  145.8830 O   0  0  0  0  0  0  0  0  0  0  0  0
  191.2990  175.7120  147.3870 O   0  0  0  0  0  1  0  0  0  0  0  0
  191.0070  176.7350  146.4910 C   0  0  0  0  0  0  0  0  0  0  0  0
  190.3580  176.4010  143.3360 N   0  0  0  0  0  2  0  0  0  0  0  0
  191.2910  177.0900  142.4580 C   0  0  0  0  0  1  0  0  0  0  0  0
  184.5820  178.2290  141.7380 C   0  0  0  0  0  2  0  0  0  0  0  0
  185.1410  179.2790  140.9060 N   0  0  0  0  0  2  0  0  0  0  0  0
  184.5440  179.1320  139.5910 C   0  0  0  0  0  2  0  0  0  0  0  0
  187.8090  177.8190  138.1210 N   0  0  0  0  0  1  0  0  0  0  0  0
  185.0550  177.8140  137.6740 O   0  0  0  0  0  0  0  0  0  0  0  0
  186.8910  178.4640  138.9600 N   0  0  0  0  0  2  0  0  0  0  0  0
  185.4910  178.4240  138.6870 C   0  0  0  0  0  0  0  0  0  0  0  0
  1 13  1  0  0  0  0
  1  9  2  0  0  0  0
  3  8  2  0  0  0  0
  4 11  1  0  0  0  0
  5 13  1  0  0  0  0
  5 14  1  0  0  0  0
  6  3  1  0  0  0  0
  6 10  1  0  0  0  0
  7  4  1  0  0  0  0
  7  3  1  0  0  0  0
  8  2  1  0  0  0  0
  8 12  1  0  0  0  0
  9  4  1  0  0  0  0
 10 17  1  0  0  0  0
 10  2  2  0  0  0  0
 11 12  2  0  0  0  0
 13  7  2  0  0  0  0
 14  6  2  0  0  0  0
 15 17  2  0  0  0  0
 17 16  1  0  0  0  0
 18 14  1  0  0  0  0
 19 18  1  0  0  0  0
 20  1  1  0  0  0  0
 21 20  1  0  0  0  0
 22 21  1  0  0  0  0
 23 25  1  0  0  0  0
 24 26  2  0  0  0  0
 26 25  1  0  0  0  0
 26 22  1  0  0  0  0
M  END
>  <MODEL>
2

>  <REMARK>
 VINA RESULT:      -8.9      1.915      2.716
  Name = 
  6 active torsions:
  status: ('A' for Active; 'I' for Inactive)
    1  A    between atoms: N_3  and  C_25
    2  A    between atoms: C_5  and  C_10
    3  A    between atoms: C_9  and  C_16
    4  A    between atoms: C_9  and  N_26
    5  A    between atoms: C_10  and  N_26
    6  A    between atoms: C_18  and  C_21
                            x       y       z     vdW  Elec       q    Type
                         _______ _______ _______ _____ _____    ______ ____

>  <TORSDO>
F 6

$$$$
=
 OpenBabel10232407543D

 26 29  0  0  0  0  0  0  0  0999 V2000
  190.3510  176.6480  142.1360 C   0  0  0  0  0  0  0  0  0  0  0  0
  188.1990  177.8330  147.2560 C   0  0  0  0  0  3  0  0  0  0  0  0
  188.7430  177.4240  145.1530 C   0  0  0  0  0  0  0  0  0  0  0  0
  190.8200  176.6780  144.3210 N   0  0  0  0  0  0  0  0  0  0  0  0
  187.6530  177.5900  142.4040 S   0  0  0  0  0  0  0  0  0  0  0  0
  187.4410  177.8600  145.0820 C   0  0  0  0  0  0  0  0  0  0  0  0
  189.5580  177.0580  144.1170 C   0  0  0  0  0  0  0  0  0  0  0  0
  189.2180  177.4050  146.4230 C   0  0  0  0  0  0  0  0  0  0  0  0
  191.3530  176.4190  143.1020 C   0  0  0  0  0  3  0  0  0  0  0  0
  187.0910  178.1090  146.4250 C   0  0  0  0  0  0  0  0  0  0  0  0
  191.3640  176.6330  145.5780 C   0  0  0  0  0  3  0  0  0  0  0  0
  190.5470  177.0060  146.6890 C   0  0  0  0  0  3  0  0  0  0  0  0
  189.2180  177.0670  142.8170 C   0  0  0  0  0  0  0  0  0  0  0  0
  186.7640  178.0120  143.8380 C   0  0  0  0  0  0  0  0  0  0  0  0
  184.7880  177.8090  146.9680 O   0  0  0  0  0  0  0  0  0  0  0  0
  185.7010  179.8130  147.5620 O   0  0  0  0  0  1  0  0  0  0  0  0
  185.7980  178.5570  146.9740 C   0  0  0  0  0  0  0  0  0  0  0  0
  185.4350  178.5300  143.7560 N   0  0  0  0  0  2  0  0  0  0  0  0
  184.8730  179.0730  142.5300 C   0  0  0  0  0  1  0  0  0  0  0  0
  190.5110  176.5540  140.6600 C   0  0  0  0  0  2  0  0  0  0  0  0
  190.2520  177.8490  140.0570 N   0  0  0  0  0  2  0  0  0  0  0  0
  189.9610  177.6060  138.6550 C   0  0  0  0  0  2  0  0  0  0  0  0
  186.3660  178.7940  138.2000 N   0  0  0  0  0  1  0  0  0  0  0  0
  188.9910  179.4730  137.5390 O   0  0  0  0  0  0  0  0  0  0  0  0
  187.4790  178.0410  138.5930 N   0  0  0  0  0  2  0  0  0  0  0  0
  188.8010  178.4370  138.2330 C   0  0  0  0  0  0  0  0  0  0  0  0
  1 13  1  0  0  0  0
  1  9  2  0  0  0  0
  3  8  2  0  0  0  0
  4 11  1  0  0  0  0
  5 13  1  0  0  0  0
  5 14  1  0  0  0  0
  6  3  1  0  0  0  0
  6 10  1  0  0  0  0
  7  4  1  0  0  0  0
  7  3  1  0  0  0  0
  8 12  1  0  0  0  0
  8  2  1  0  0  0  0
  9  4  1  0  0  0  0
 10 17  1  0  0  0  0
 10  2  2  0  0  0  0
 11 12  2  0  0  0  0
 13  7  2  0  0  0  0
 14  6  2  0  0  0  0
 15 17  2  0  0  0  0
 17 16  1  0  0  0  0
 18 14  1  0  0  0  0
 19 18  1  0  0  0  0
 20  1  1  0  0  0  0
 21 20  1  0  0  0  0
 22 21  1  0  0  0  0
 23 25  1  0  0  0  0
 24 26  2  0  0  0  0
 26 25  1  0  0  0  0
 26 22  1  0  0  0  0
M  END
>  <MODEL>
3

>  <REMARK>
 VINA RESULT:      -8.6      2.885      5.305
  Name = 
  6 active torsions:
  status: ('A' for Active; 'I' for Inactive)
    1  A    between atoms: N_3  and  C_25
    2  A    between atoms: C_5  and  C_10
    3  A    between atoms: C_9  and  C_16
    4  A    between atoms: C_9  and  N_26
    5  A    between atoms: C_10  and  N_26
    6  A    between atoms: C_18  and  C_21
                            x       y       z     vdW  Elec       q    Type
                         _______ _______ _______ _____ _____    ______ ____

>  <TORSDO>
F 6

$$$$
=
 OpenBabel10232407543D

 26 29  0  0  0  0  0  0  0  0999 V2000
  189.9600  177.4900  141.2610 C   0  0  0  0  0  0  0  0  0  0  0  0
  186.9810  177.8180  146.0850 C   0  0  0  0  0  3  0  0  0  0  0  0
  188.3980  177.6780  144.3940 C   0  0  0  0  0  0  0  0  0  0  0  0
  187.9080  177.8020  142.0900 N   0  0  0  0  0  0  0  0  0  0  0  0
  191.2590  177.1900  143.8040 S   0  0  0  0  0  0  0  0  0  0  0  0
  189.1880  177.5110  145.5060 C   0  0  0  0  0  0  0  0  0  0  0  0
  188.7870  177.6550  143.0820 C   0  0  0  0  0  0  0  0  0  0  0  0
  187.0900  177.8530  144.7060 C   0  0  0  0  0  0  0  0  0  0  0  0
  188.6050  177.6980  140.9320 C   0  0  0  0  0  3  0  0  0  0  0  0
  188.2860  177.6130  146.5850 C   0  0  0  0  0  0  0  0  0  0  0  0
  186.5720  177.9860  142.3330 C   0  0  0  0  0  3  0  0  0  0  0  0
  186.1230  178.0180  143.6890 C   0  0  0  0  0  3  0  0  0  0  0  0
  190.0410  177.4550  142.6450 C   0  0  0  0  0  0  0  0  0  0  0  0
  190.5860  177.2550  145.4060 C   0  0  0  0  0  0  0  0  0  0  0  0
  188.0530  176.6740  148.7640 O   0  0  0  0  0  1  0  0  0  0  0  0
  189.4590  178.4630  148.5930 O   0  0  0  0  0  0  0  0  0  0  0  0
  188.5660  177.5570  148.0310 C   0  0  0  0  0  0  0  0  0  0  0  0
  191.3980  177.0130  146.5560 N   0  0  0  0  0  2  0  0  0  0  0  0
  192.1290  175.7730  146.7610 C   0  0  0  0  0  1  0  0  0  0  0  0
  191.0740  177.2510  140.3030 C   0  0  0  0  0  2  0  0  0  0  0  0
  190.6890  176.2230  139.3540 N   0  0  0  0  0  2  0  0  0  0  0  0
  190.8180  176.8070  138.0300 C   0  0  0  0  0  2  0  0  0  0  0  0
  187.9950  179.1570  137.0050 N   0  0  0  0  0  1  0  0  0  0  0  0
  188.5790  176.4450  137.3040 O   0  0  0  0  0  0  0  0  0  0  0  0
  189.2400  178.6790  137.4310 N   0  0  0  0  0  2  0  0  0  0  0  0
  189.4870  177.2800  137.5610 C   0  0  0  0  0  0  0  0  0  0  0  0
  1 13  1  0  0  0  0
  2 10  2  0  0  0  0
  3  8  2  0  0  0  0
  3  6  1  0  0  0  0
  4 11  1  0  0  0  0
  4  7  1  0  0  0  0
  5 14  1  0  0  0  0
  6 10  1  0  0  0  0
  7  3  1  0  0  0  0
  8  2  1  0  0  0  0
  9  1  2  0  0  0  0
  9  4  1  0  0  0  0
 10 17  1  0  0  0  0
 11 12  2  0  0  0  0
 12  8  1  0  0  0  0
 13  7  2  0  0  0  0
 13  5  1  0  0  0  0
 14  6  2  0  0  0  0
 14 18  1  0  0  0  0
 17 16  2  0  0  0  0
 17 15  1  0  0  0  0
 18 19  1  0  0  0  0
 20  1  1  0  0  0  0
 21 20  1  0  0  0  0
 22 21  1  0  0  0  0
 23 25  1  0  0  0  0
 24 26  2  0  0  0  0
 25 26  1  0  0  0  0
 26 22  1  0  0  0  0
M  END
>  <MODEL>
4

>  <REMARK>
 VINA RESULT:      -8.6      3.181      5.709
  Name = 
  6 active torsions:
  status: ('A' for Active; 'I' for Inactive)
    1  A    between atoms: N_3  and  C_25
    2  A    between atoms: C_5  and  C_10
    3  A    between atoms: C_9  and  C_16
    4  A    between atoms: C_9  and  N_26
    5  A    between atoms: C_10  and  N_26
    6  A    between atoms: C_18  and  C_21
                            x       y       z     vdW  Elec       q    Type
                         _______ _______ _______ _____ _____    ______ ____

>  <TORSDO>
F 6

$$$$
=
 OpenBabel10232407543D

 26 29  0  0  0  0  0  0  0  0999 V2000
  190.0420  177.4630  141.2190 C   0  0  0  0  0  0  0  0  0  0  0  0
  187.0190  177.8050  146.0130 C   0  0  0  0  0  3  0  0  0  0  0  0
  188.4510  177.6600  144.3360 C   0  0  0  0  0  0  0  0  0  0  0  0
  187.9830  177.7780  142.0280 N   0  0  0  0  0  0  0  0  0  0  0  0
  191.3170  177.1710  143.7740 S   0  0  0  0  0  0  0  0  0  0  0  0
  189.2310  177.4970  145.4570 C   0  0  0  0  0  0  0  0  0  0  0  0
  188.8520  177.6340  143.0290 C   0  0  0  0  0  0  0  0  0  0  0  0
  187.1400  177.8370  144.6360 C   0  0  0  0  0  0  0  0  0  0  0  0
  188.6900  177.6710  140.8760 C   0  0  0  0  0  3  0  0  0  0  0  0
  188.3190  177.6020  146.5260 C   0  0  0  0  0  0  0  0  0  0  0  0
  186.6450  177.9630  142.2580 C   0  0  0  0  0  3  0  0  0  0  0  0
  186.1820  177.9990  143.6090 C   0  0  0  0  0  3  0  0  0  0  0  0
  190.1100  177.4330  142.6040 C   0  0  0  0  0  0  0  0  0  0  0  0
  190.6290  177.2400  145.3700 C   0  0  0  0  0  0  0  0  0  0  0  0
  188.1410  176.6160  148.6900 O   0  0  0  0  0  1  0  0  0  0  0  0
  189.3890  178.5210  148.5610 O   0  0  0  0  0  0  0  0  0  0  0  0
  188.5850  177.5490  147.9760 C   0  0  0  0  0  0  0  0  0  0  0  0
  191.4300  177.0010  146.5290 N   0  0  0  0  0  2  0  0  0  0  0  0
  192.0610  175.7200  146.8030 C   0  0  0  0  0  1  0  0  0  0  0  0
  191.1650  177.2220  140.2730 C   0  0  0  0  0  2  0  0  0  0  0  0
  190.8020  176.1680  139.3430 N   0  0  0  0  0  2  0  0  0  0  0  0
  191.3030  176.5690  138.0400 C   0  0  0  0  0  2  0  0  0  0  0  0
  194.8600  175.7010  136.9760 N   0  0  0  0  0  1  0  0  0  0  0  0
  192.4520  174.5080  137.7250 O   0  0  0  0  0  0  0  0  0  0  0  0
  193.7130  176.4280  137.3160 N   0  0  0  0  0  2  0  0  0  0  0  0
  192.5080  175.7670  137.6980 C   0  0  0  0  0  0  0  0  0  0  0  0
  1 13  1  0  0  0  0
  2 10  2  0  0  0  0
  3  8  2  0  0  0  0
  3  6  1  0  0  0  0
  4 11  1  0  0  0  0
  4  7  1  0  0  0  0
  5 14  1  0  0  0  0
  6 10  1  0  0  0  0
  7  3  1  0  0  0  0
  8  2  1  0  0  0  0
  9  1  2  0  0  0  0
  9  4  1  0  0  0  0
 10 17  1  0  0  0  0
 11 12  2  0  0  0  0
 12  8  1  0  0  0  0
 13  7  2  0  0  0  0
 13  5  1  0  0  0  0
 14  6  2  0  0  0  0
 14 18  1  0  0  0  0
 17 16  2  0  0  0  0
 17 15  1  0  0  0  0
 18 19  1  0  0  0  0
 20  1  1  0  0  0  0
 21 20  1  0  0  0  0
 22 21  1  0  0  0  0
 23 25  1  0  0  0  0
 25 26  1  0  0  0  0
 26 24  2  0  0  0  0
 26 22  1  0  0  0  0
M  END
>  <MODEL>
5

>  <REMARK>
 VINA RESULT:      -8.5      3.620      6.632
  Name = 
  6 active torsions:
  status: ('A' for Active; 'I' for Inactive)
    1  A    between atoms: N_3  and  C_25
    2  A    between atoms: C_5  and  C_10
    3  A    between atoms: C_9  and  C_16
    4  A    between atoms: C_9  and  N_26
    5  A    between atoms: C_10  and  N_26
    6  A    between atoms: C_18  and  C_21
                            x       y       z     vdW  Elec       q    Type
                         _______ _______ _______ _____ _____    ______ ____

>  <TORSDO>
F 6

$$$$
=
 OpenBabel10232407543D

 26 29  0  0  0  0  0  0  0  0999 V2000
  190.1190  176.6170  144.5510 C   0  0  0  0  0  0  0  0  0  0  0  0
  185.3480  178.8870  146.6320 C   0  0  0  0  0  3  0  0  0  0  0  0
  187.0460  177.9760  145.5480 C   0  0  0  0  0  0  0  0  0  0  0  0
  189.1430  177.3470  146.4240 N   0  0  0  0  0  0  0  0  0  0  0  0
  187.8940  177.1760  142.8250 S   0  0  0  0  0  0  0  0  0  0  0  0
  186.0940  178.1710  144.5750 C   0  0  0  0  0  0  0  0  0  0  0  0
  188.3020  177.4560  145.3950 C   0  0  0  0  0  0  0  0  0  0  0  0
  186.6350  178.3970  146.7690 C   0  0  0  0  0  0  0  0  0  0  0  0
  190.2970  176.8310  145.9330 C   0  0  0  0  0  3  0  0  0  0  0  0
  185.0070  178.7400  145.2690 C   0  0  0  0  0  0  0  0  0  0  0  0
  188.7930  177.7490  147.6860 C   0  0  0  0  0  3  0  0  0  0  0  0
  187.4900  178.2980  147.8910 C   0  0  0  0  0  3  0  0  0  0  0  0
  188.8360  177.0380  144.2350 C   0  0  0  0  0  0  0  0  0  0  0  0
  186.3380  177.8530  143.2080 C   0  0  0  0  0  0  0  0  0  0  0  0
  183.5200  180.1770  144.0820 O   0  0  0  0  0  0  0  0  0  0  0  0
  182.5930  178.2860  144.9600 O   0  0  0  0  0  1  0  0  0  0  0  0
  183.6810  179.1260  144.7520 C   0  0  0  0  0  0  0  0  0  0  0  0
  185.3780  178.1170  142.1840 N   0  0  0  0  0  2  0  0  0  0  0  0
  185.5780  179.1210  141.1520 C   0  0  0  0  0  1  0  0  0  0  0  0
  191.1490  176.1270  143.5950 C   0  0  0  0  0  2  0  0  0  0  0  0
  191.9650  177.2390  143.1440 N   0  0  0  0  0  2  0  0  0  0  0  0
  191.2200  177.9050  142.0890 C   0  0  0  0  0  2  0  0  0  0  0  0
  190.8010  175.8260  138.9200 N   0  0  0  0  0  1  0  0  0  0  0  0
  192.6580  177.4260  140.2530 O   0  0  0  0  0  0  0  0  0  0  0  0
  190.5400  176.4520  140.1450 N   0  0  0  0  0  2  0  0  0  0  0  0
  191.5240  177.2650  140.7810 C   0  0  0  0  0  0  0  0  0  0  0  0
  1  9  2  0  0  0  0
  2  8  1  0  0  0  0
  3  8  2  0  0  0  0
  4 11  1  0  0  0  0
  5 14  1  0  0  0  0
  5 13  1  0  0  0  0
  6 10  1  0  0  0  0
  6  3  1  0  0  0  0
  7  3  1  0  0  0  0
  7  4  1  0  0  0  0
  8 12  1  0  0  0  0
  9  4  1  0  0  0  0
 10  2  2  0  0  0  0
 11 12  2  0  0  0  0
 13  1  1  0  0  0  0
 13  7  2  0  0  0  0
 14  6  2  0  0  0  0
 15 17  2  0  0  0  0
 17 16  1  0  0  0  0
 17 10  1  0  0  0  0
 18 14  1  0  0  0  0
 19 18  1  0  0  0  0
 20  1  1  0  0  0  0
 21 20  1  0  0  0  0
 22 21  1  0  0  0  0
 23 25  1  0  0  0  0
 24 26  2  0  0  0  0
 25 26  1  0  0  0  0
 26 22  1  0  0  0  0
M  END
>  <MODEL>
6

>  <REMARK>
 VINA RESULT:      -8.5      2.040      5.900
  Name = 
  6 active torsions:
  status: ('A' for Active; 'I' for Inactive)
    1  A    between atoms: N_3  and  C_25
    2  A    between atoms: C_5  and  C_10
    3  A    between atoms: C_9  and  C_16
    4  A    between atoms: C_9  and  N_26
    5  A    between atoms: C_10  and  N_26
    6  A    between atoms: C_18  and  C_21
                            x       y       z     vdW  Elec       q    Type
                         _______ _______ _______ _____ _____    ______ ____

>  <TORSDO>
F 6

$$$$
=
 OpenBabel10232407543D

 26 29  0  0  0  0  0  0  0  0999 V2000
  187.9440  177.4940  145.8170 C   0  0  0  0  0  0  0  0  0  0  0  0
  183.4610  179.0060  142.6770 C   0  0  0  0  0  3  0  0  0  0  0  0
  185.3520  178.3600  143.6230 C   0  0  0  0  0  0  0  0  0  0  0  0
  185.7930  178.0890  145.9240 N   0  0  0  0  0  0  0  0  0  0  0  0
  188.1520  177.6610  142.9590 S   0  0  0  0  0  0  0  0  0  0  0  0
  185.6410  178.3840  142.2790 C   0  0  0  0  0  0  0  0  0  0  0  0
  186.1950  178.0440  144.6530 C   0  0  0  0  0  0  0  0  0  0  0  0
  184.0740  178.7300  143.8860 C   0  0  0  0  0  0  0  0  0  0  0  0
  186.8630  177.7560  146.6850 C   0  0  0  0  0  3  0  0  0  0  0  0
  184.4320  178.7830  141.6750 C   0  0  0  0  0  0  0  0  0  0  0  0
  184.5150  178.4510  146.2620 C   0  0  0  0  0  3  0  0  0  0  0  0
  183.6010  178.7880  145.2170 C   0  0  0  0  0  3  0  0  0  0  0  0
  187.4860  177.6980  144.5250 C   0  0  0  0  0  0  0  0  0  0  0  0
  186.9430  178.0860  141.7830 C   0  0  0  0  0  0  0  0  0  0  0  0
  184.4820  179.9660  139.6050 O   0  0  0  0  0  1  0  0  0  0  0  0
  183.4700  177.9210  139.5630 O   0  0  0  0  0  0  0  0  0  0  0  0
  184.1230  178.9430  140.2420 C   0  0  0  0  0  0  0  0  0  0  0  0
  187.2660  178.1760  140.3950 N   0  0  0  0  0  2  0  0  0  0  0  0
  188.6300  178.2990  139.9060 C   0  0  0  0  0  1  0  0  0  0  0  0
  189.3370  177.1580  146.2200 C   0  0  0  0  0  2  0  0  0  0  0  0
  190.2690  178.0200  145.5160 N   0  0  0  0  0  2  0  0  0  0  0  0
  191.4980  177.2620  145.3550 C   0  0  0  0  0  2  0  0  0  0  0  0
  191.7290  177.2870  141.5490 N   0  0  0  0  0  1  0  0  0  0  0  0
  191.6440  175.5370  143.7210 O   0  0  0  0  0  0  0  0  0  0  0  0
  191.6410  177.7140  142.8800 N   0  0  0  0  0  2  0  0  0  0  0  0
  191.6070  176.7750  143.9540 C   0  0  0  0  0  0  0  0  0  0  0  0
  1 20  1  0  0  0  0
  1  9  2  0  0  0  0
  2  8  1  0  0  0  0
  3  8  2  0  0  0  0
  3  7  1  0  0  0  0
  4 11  1  0  0  0  0
  4  9  1  0  0  0  0
  5 13  1  0  0  0  0
  6  3  1  0  0  0  0
  7  4  1  0  0  0  0
  8 12  1  0  0  0  0
 10  6  1  0  0  0  0
 10  2  2  0  0  0  0
 12 11  2  0  0  0  0
 13  7  2  0  0  0  0
 13  1  1  0  0  0  0
 14  6  2  0  0  0  0
 14  5  1  0  0  0  0
 15 17  1  0  0  0  0
 16 17  2  0  0  0  0
 17 10  1  0  0  0  0
 18 14  1  0  0  0  0
 19 18  1  0  0  0  0
 21 20  1  0  0  0  0
 22 21  1  0  0  0  0
 23 25  1  0  0  0  0
 24 26  2  0  0  0  0
 25 26  1  0  0  0  0
 26 22  1  0  0  0  0
M  END
>  <MODEL>
7

>  <REMARK>
 VINA RESULT:      -8.4      1.739      6.073
  Name = 
  6 active torsions:
  status: ('A' for Active; 'I' for Inactive)
    1  A    between atoms: N_3  and  C_25
    2  A    between atoms: C_5  and  C_10
    3  A    between atoms: C_9  and  C_16
    4  A    between atoms: C_9  and  N_26
    5  A    between atoms: C_10  and  N_26
    6  A    between atoms: C_18  and  C_21
                            x       y       z     vdW  Elec       q    Type
                         _______ _______ _______ _____ _____    ______ ____

>  <TORSDO>
F 6

$$$$
=
 OpenBabel10232407543D

 26 29  0  0  0  0  0  0  0  0999 V2000
  187.7580  178.4290  140.7710 C   0  0  0  0  0  0  0  0  0  0  0  0
  186.0460  177.8720  146.1570 C   0  0  0  0  0  3  0  0  0  0  0  0
  187.0080  178.0590  144.1750 C   0  0  0  0  0  0  0  0  0  0  0  0
  185.9700  178.5200  142.1080 N   0  0  0  0  0  0  0  0  0  0  0  0
  189.6400  177.7920  142.8440 S   0  0  0  0  0  0  0  0  0  0  0  0
  188.0460  177.7550  145.0230 C   0  0  0  0  0  0  0  0  0  0  0  0
  187.0650  178.2570  142.8230 C   0  0  0  0  0  0  0  0  0  0  0  0
  185.8150  178.1270  144.8170 C   0  0  0  0  0  0  0  0  0  0  0  0
  186.3630  178.6280  140.8150 C   0  0  0  0  0  3  0  0  0  0  0  0
  187.4350  177.6480  146.2880 C   0  0  0  0  0  0  0  0  0  0  0  0
  184.7330  178.6060  142.6910 C   0  0  0  0  0  3  0  0  0  0  0  0
  184.6280  178.4060  144.1020 C   0  0  0  0  0  3  0  0  0  0  0  0
  188.1750  178.1830  142.0700 C   0  0  0  0  0  0  0  0  0  0  0  0
  189.3780  177.5770  144.5500 C   0  0  0  0  0  0  0  0  0  0  0  0
  188.4930  176.2370  147.8930 O   0  0  0  0  0  0  0  0  0  0  0  0
  188.2250  178.4190  148.5040 O   0  0  0  0  0  1  0  0  0  0  0  0
  188.0600  177.3790  147.5970 C   0  0  0  0  0  0  0  0  0  0  0  0
  190.4470  177.1940  145.4160 N   0  0  0  0  0  2  0  0  0  0  0  0
  191.6060  176.4450  144.9580 C   0  0  0  0  0  1  0  0  0  0  0  0
  188.6050  178.3910  139.5480 C   0  0  0  0  0  2  0  0  0  0  0  0
  189.1830  177.0680  139.3950 N   0  0  0  0  0  2  0  0  0  0  0  0
  190.6200  177.2510  139.2790 C   0  0  0  0  0  2  0  0  0  0  0  0
  190.9030  173.9720  137.3520 N   0  0  0  0  0  1  0  0  0  0  0  0
  192.4200  176.1720  138.1540 O   0  0  0  0  0  0  0  0  0  0  0  0
  190.3820  175.0370  138.0960 N   0  0  0  0  0  2  0  0  0  0  0  0
  191.2020  176.1420  138.4750 C   0  0  0  0  0  0  0  0  0  0  0  0
  1  9  2  0  0  0  0
  1 13  1  0  0  0  0
  2 10  2  0  0  0  0
  3  8  2  0  0  0  0
  3  6  1  0  0  0  0
  4 11  1  0  0  0  0
  4  7  1  0  0  0  0
  5 14  1  0  0  0  0
  6 10  1  0  0  0  0
  7  3  1  0  0  0  0
  8  2  1  0  0  0  0
  9  4  1  0  0  0  0
 10 17  1  0  0  0  0
 11 12  2  0  0  0  0
 12  8  1  0  0  0  0
 13  7  2  0  0  0  0
 13  5  1  0  0  0  0
 14  6  2  0  0  0  0
 14 18  1  0  0  0  0
 17 15  2  0  0  0  0
 17 16  1  0  0  0  0
 19 18  1  0  0  0  0
 20  1  1  0  0  0  0
 21 20  1  0  0  0  0
 22 21  1  0  0  0  0
 23 25  1  0  0  0  0
 24 26  2  0  0  0  0
 25 26  1  0  0  0  0
 26 22  1  0  0  0  0
M  END
>  <MODEL>
8

>  <REMARK>
 VINA RESULT:      -8.2      2.991      5.819
  Name = 
  6 active torsions:
  status: ('A' for Active; 'I' for Inactive)
    1  A    between atoms: N_3  and  C_25
    2  A    between atoms: C_5  and  C_10
    3  A    between atoms: C_9  and  C_16
    4  A    between atoms: C_9  and  N_26
    5  A    between atoms: C_10  and  N_26
    6  A    between atoms: C_18  and  C_21
                            x       y       z     vdW  Elec       q    Type
                         _______ _______ _______ _____ _____    ______ ____

>  <TORSDO>
F 6

$$$$
=
 OpenBabel10232407543D

 26 29  0  0  0  0  0  0  0  0999 V2000
  189.8820  177.1660  141.3330 C   0  0  0  0  0  0  0  0  0  0  0  0
  188.1220  177.7550  146.6990 C   0  0  0  0  0  3  0  0  0  0  0  0
  188.5090  177.6000  144.5290 C   0  0  0  0  0  0  0  0  0  0  0  0
  190.4960  176.9060  143.4650 N   0  0  0  0  0  0  0  0  0  0  0  0
  187.2450  178.1460  141.9060 S   0  0  0  0  0  0  0  0  0  0  0  0
  187.2230  178.0790  144.6060 C   0  0  0  0  0  0  0  0  0  0  0  0
  189.2390  177.3450  143.4000 C   0  0  0  0  0  0  0  0  0  0  0  0
  189.0660  177.4070  145.7500 C   0  0  0  0  0  0  0  0  0  0  0  0
  190.9370  176.7880  142.1890 C   0  0  0  0  0  3  0  0  0  0  0  0
  186.9720  178.1660  145.9900 C   0  0  0  0  0  0  0  0  0  0  0  0
  191.1210  176.6860  144.6650 C   0  0  0  0  0  3  0  0  0  0  0  0
  190.3940  176.9380  145.8690 C   0  0  0  0  0  3  0  0  0  0  0  0
  188.8140  177.5290  142.1390 C   0  0  0  0  0  0  0  0  0  0  0  0
  186.4700  178.4080  143.4410 C   0  0  0  0  0  0  0  0  0  0  0  0
  185.6900  179.6300  147.3680 O   0  0  0  0  0  1  0  0  0  0  0  0
  184.5800  177.8220  146.5280 O   0  0  0  0  0  0  0  0  0  0  0  0
  185.7370  178.5790  146.6810 C   0  0  0  0  0  0  0  0  0  0  0  0
  185.1600  178.9700  143.5180 N   0  0  0  0  0  2  0  0  0  0  0  0
  184.0210  178.4240  142.7970 C   0  0  0  0  0  1  0  0  0  0  0  0
  189.9400  177.2560  139.8490 C   0  0  0  0  0  2  0  0  0  0  0  0
  190.6670  176.1160  139.3190 N   0  0  0  0  0  2  0  0  0  0  0  0
  191.4660  176.6090  138.2110 C   0  0  0  0  0  2  0  0  0  0  0  0
  194.9660  175.0970  138.1180 N   0  0  0  0  0  1  0  0  0  0  0  0
  193.4990  177.1360  139.3330 O   0  0  0  0  0  0  0  0  0  0  0  0
  193.6110  175.3330  137.8560 N   0  0  0  0  0  2  0  0  0  0  0  0
  192.9100  176.3950  138.5010 C   0  0  0  0  0  0  0  0  0  0  0  0
  1 13  1  0  0  0  0
  1  9  2  0  0  0  0
  3  6  1  0  0  0  0
  3  8  2  0  0  0  0
  4 11  1  0  0  0  0
  5 13  1  0  0  0  0
  5 14  1  0  0  0  0
  6 10  1  0  0  0  0
  7  4  1  0  0  0  0
  7  3  1  0  0  0  0
  8 12  1  0  0  0  0
  8  2  1  0  0  0  0
  9  4  1  0  0  0  0
 10 17  1  0  0  0  0
 10  2  2  0  0  0  0
 11 12  2  0  0  0  0
 13  7  2  0  0  0  0
 14 18  1  0  0  0  0
 14  6  2  0  0  0  0
 16 17  2  0  0  0  0
 17 15  1  0  0  0  0
 19 18  1  0  0  0  0
 20  1  1  0  0  0  0
 21 20  1  0  0  0  0
 22 26  1  0  0  0  0
 22 21  1  0  0  0  0
 25 23  1  0  0  0  0
 25 26  1  0  0  0  0
 26 24  2  0  0  0  0
M  END
>  <MODEL>
9

>  <REMARK>
 VINA RESULT:      -8.2      3.214      6.611
  Name = 
  6 active torsions:
  status: ('A' for Active; 'I' for Inactive)
    1  A    between atoms: N_3  and  C_25
    2  A    between atoms: C_5  and  C_10
    3  A    between atoms: C_9  and  C_16
    4  A    between atoms: C_9  and  N_26
    5  A    between atoms: C_10  and  N_26
    6  A    between atoms: C_18  and  C_21
                            x       y       z     vdW  Elec       q    Type
                         _______ _______ _______ _____ _____    ______ ____

>  <TORSDO>
F 6

$$$$
