=
 OpenBabel10232411513D

 31 35  0  0  1  0  0  0  0  0999 V2000
  190.4540  178.8790  143.5980 C   0  0  0  0  0  1  0  0  0  0  0  0
  188.6090  177.9270  139.2620 C   0  0  0  0  0  0  0  0  0  0  0  0
  186.3230  178.0500  140.2460 C   0  0  0  0  0  2  0  0  0  0  0  0
  188.6930  178.5620  137.9140 C   0  0  0  0  0  2  0  0  0  0  0  0
  185.5940  178.7640  141.3620 C   0  0  2  0  0  3  0  0  0  0  0  0
  188.4050  177.3420  141.4910 C   0  0  0  0  0  0  0  0  0  0  0  0
  187.9240  177.1260  142.9040 C   0  0  0  0  0  2  0  0  0  0  0  0
  191.4970  176.0840  138.6420 O   0  0  0  0  0  0  0  0  0  0  0  0
  185.5880  177.9550  142.6610 C   0  0  1  0  0  3  0  0  0  0  0  0
  190.4830  176.8170  138.5150 C   0  0  0  0  0  0  0  0  0  0  0  0
  183.9470  178.2870  144.4310 O   0  0  0  0  0  0  0  0  0  0  0  0
  186.6610  177.8160  144.8730 N   0  0  0  0  0  2  0  0  0  0  0  0
  190.4570  175.6830  142.9970 C   0  0  0  0  0  2  0  0  0  0  0  0
  187.3860  179.4300  143.3610 O   0  0  0  0  0  1  0  0  0  0  0  0
  186.8990  178.1220  143.4610 C   0  0  1  0  0  0  0  0  0  0  0  0
  190.0900  177.7340  137.0290 S   0  0  0  0  0  0  0  0  0  0  0  0
  190.1700  177.2410  145.5400 C   0  0  0  0  0  3  0  0  0  0  0  0
  191.5580  176.5990  143.5260 C   0  0  0  0  0  2  0  0  0  0  0  0
  184.3420  178.4800  143.2510 C   0  0  0  0  0  0  0  0  0  0  0  0
  187.6360  177.7880  145.9310 C   0  0  0  0  0  0  0  0  0  0  0  0
  191.0380  177.7350  144.4120 C   0  0  1  0  0  3  0  0  0  0  0  0
  190.3350  175.8120  141.5850 O   0  0  0  0  0  0  0  0  0  0  0  0
  183.5650  179.1360  142.2750 N   0  0  0  0  0  2  0  0  0  0  0  0
  189.5280  177.0660  139.5600 C   0  0  0  0  0  0  0  0  0  0  0  0
  189.4490  176.6960  140.9540 C   0  0  0  0  0  0  0  0  0  0  0  0
  184.2070  179.1020  141.0280 N   0  0  0  0  0  2  0  0  0  0  0  0
  187.8080  178.2900  140.4650 C   0  0  1  0  0  3  0  0  0  0  0  0
  188.9040  177.5420  145.7050 C   0  0  0  0  0  0  0  0  0  0  0  0
  188.2990  178.2950  148.2550 C   0  0  0  0  0  1  0  0  0  0  0  0
  187.1740  177.8320  147.3500 C   0  0  0  0  0  3  0  0  0  0  0  0
  185.9810  178.7580  147.4980 C   0  0  0  0  0  1  0  0  0  0  0  0
  2 24  2  0  0  0  0
  2 27  1  0  0  0  0
  4  2  1  0  0  0  0
  5  3  1  6  0  0  0
  5  9  1  0  0  0  0
  6  7  1  0  0  0  0
  7 15  1  0  0  0  0
  9 19  1  1  0  0  0
  9 15  1  0  0  0  0
 10  8  2  0  0  0  0
 10 24  1  0  0  0  0
 12 20  1  0  0  0  0
 13 18  1  0  0  0  0
 15 14  1  6  0  0  0
 15 12  1  0  0  0  0
 16  4  1  0  0  0  0
 16 10  1  0  0  0  0
 17 28  2  0  0  0  0
 18 21  1  0  0  0  0
 19 11  2  0  0  0  0
 20 30  1  0  0  0  0
 21  1  1  6  0  0  0
 21 17  1  0  0  0  0
 22 13  1  0  0  0  0
 23 19  1  0  0  0  0
 24 25  1  0  0  0  0
 25  6  2  0  0  0  0
 25 22  1  0  0  0  0
 26  5  1  0  0  0  0
 26 23  1  0  0  0  0
 27  3  1  6  0  0  0
 27  6  1  0  0  0  0
 28 20  2  0  0  0  0
 30 31  1  0  0  0  0
 30 29  1  0  0  0  0
M  END
>  <MODEL>
1

>  <REMARK>
 VINA RESULT:      -8.7      0.000      0.000
  Name = 
  1 active torsions:
  status: ('A' for Active; 'I' for Inactive)
    1  A    between atoms: C_21  and  C_30
                            x       y       z     vdW  Elec       q    Type
                         _______ _______ _______ _____ _____    ______ ____

>  <TORSDO>
F 1

$$$$
=
 OpenBabel10232411513D

 31 35  0  0  1  0  0  0  0  0999 V2000
  190.0440  175.8110  142.5980 C   0  0  0  0  0  1  0  0  0  0  0  0
  187.3790  177.6870  146.1320 C   0  0  0  0  0  0  0  0  0  0  0  0
  185.8360  178.6330  144.4200 C   0  0  0  0  0  2  0  0  0  0  0  0
  186.6600  177.1390  147.3190 C   0  0  0  0  0  2  0  0  0  0  0  0
  185.3330  178.3120  143.0290 C   0  0  2  0  0  3  0  0  0  0  0  0
  188.3060  178.2150  144.0790 C   0  0  0  0  0  0  0  0  0  0  0  0
  188.5370  178.5820  142.6350 C   0  0  0  0  0  2  0  0  0  0  0  0
  190.3280  177.9510  147.9640 O   0  0  0  0  0  0  0  0  0  0  0  0
  186.1780  178.9770  141.9410 C   0  0  1  0  0  3  0  0  0  0  0  0
  189.1260  177.7950  147.6280 C   0  0  0  0  0  0  0  0  0  0  0  0
  185.3520  179.4030  139.6880 O   0  0  0  0  0  0  0  0  0  0  0  0
  187.9280  178.5060  140.2750 N   0  0  0  0  0  2  0  0  0  0  0  0
  191.2800  178.6380  143.6250 C   0  0  0  0  0  2  0  0  0  0  0  0
  187.2210  176.7990  141.6890 O   0  0  0  0  0  1  0  0  0  0  0  0
  187.4590  178.1760  141.6220 C   0  0  1  0  0  0  0  0  0  0  0  0
  187.8400  177.2320  148.7390 S   0  0  0  0  0  0  0  0  0  0  0  0
  191.2780  177.3130  140.9380 C   0  0  0  0  0  3  0  0  0  0  0  0
  191.9490  177.2890  143.3760 C   0  0  0  0  0  2  0  0  0  0  0  0
  185.1480  179.0890  140.8900 C   0  0  0  0  0  0  0  0  0  0  0  0
  189.1220  178.0270  139.6290 C   0  0  0  0  0  0  0  0  0  0  0  0
  191.3390  176.5070  142.2100 C   0  0  1  0  0  3  0  0  0  0  0  0
  190.6000  178.6350  144.8750 O   0  0  0  0  0  0  0  0  0  0  0  0
  183.8590  178.9200  141.4350 N   0  0  0  0  0  2  0  0  0  0  0  0
  188.6260  177.9940  146.2960 C   0  0  0  0  0  0  0  0  0  0  0  0
  189.2460  178.3040  145.0290 C   0  0  0  0  0  0  0  0  0  0  0  0
  183.9330  178.6890  142.8170 N   0  0  0  0  0  2  0  0  0  0  0  0
  187.0110  177.7060  144.6880 C   0  0  1  0  0  3  0  0  0  0  0  0
  190.1770  177.6460  140.3080 C   0  0  0  0  0  0  0  0  0  0  0  0
  189.9580  176.9430  137.5740 C   0  0  0  0  0  1  0  0  0  0  0  0
  189.2530  178.1560  138.1470 C   0  0  0  0  0  3  0  0  0  0  0  0
  187.8890  178.3130  137.4990 C   0  0  0  0  0  1  0  0  0  0  0  0
  2 24  2  0  0  0  0
  2  4  1  0  0  0  0
  4 16  1  0  0  0  0
  5  3  1  1  0  0  0
  6 27  1  0  0  0  0
  6 25  2  0  0  0  0
  7  6  1  0  0  0  0
  9 19  1  6  0  0  0
  9  5  1  0  0  0  0
 10  8  2  0  0  0  0
 10 16  1  0  0  0  0
 11 19  2  0  0  0  0
 12 15  1  0  0  0  0
 13 22  1  0  0  0  0
 15 14  1  1  0  0  0
 15  9  1  0  0  0  0
 15  7  1  0  0  0  0
 17 21  1  0  0  0  0
 18 13  1  0  0  0  0
 19 23  1  0  0  0  0
 20 12  1  0  0  0  0
 20 28  2  0  0  0  0
 21  1  1  1  0  0  0
 21 18  1  0  0  0  0
 22 25  1  0  0  0  0
 23 26  1  0  0  0  0
 24 10  1  0  0  0  0
 25 24  1  0  0  0  0
 26  5  1  0  0  0  0
 27  3  1  1  0  0  0
 27  2  1  0  0  0  0
 28 17  2  0  0  0  0
 29 30  1  0  0  0  0
 30 20  1  0  0  0  0
 31 30  1  0  0  0  0
M  END
>  <MODEL>
2

>  <REMARK>
 VINA RESULT:      -8.3      2.887      5.978
  Name = 
  1 active torsions:
  status: ('A' for Active; 'I' for Inactive)
    1  A    between atoms: C_21  and  C_30
                            x       y       z     vdW  Elec       q    Type
                         _______ _______ _______ _____ _____    ______ ____

>  <TORSDO>
F 1

$$$$
=
 OpenBabel10232411513D

 31 35  0  0  1  0  0  0  0  0999 V2000
  185.5170  180.1650  144.9270 C   0  0  0  0  0  1  0  0  0  0  0  0
  189.4850  178.1080  143.1580 C   0  0  0  0  0  0  0  0  0  0  0  0
  188.3400  177.8690  140.9590 C   0  0  0  0  0  2  0  0  0  0  0  0
  190.9160  178.5120  143.0240 C   0  0  0  0  0  2  0  0  0  0  0  0
  187.2850  178.5740  140.1340 C   0  0  2  0  0  3  0  0  0  0  0  0
  187.1840  177.8730  143.2070 C   0  0  0  0  0  0  0  0  0  0  0  0
  185.7190  177.7910  142.8590 C   0  0  0  0  0  2  0  0  0  0  0  0
  190.0650  176.8960  146.3700 O   0  0  0  0  0  0  0  0  0  0  0  0
  185.8840  178.0130  140.3840 C   0  0  1  0  0  3  0  0  0  0  0  0
  190.2140  177.3470  145.2050 C   0  0  0  0  0  0  0  0  0  0  0  0
  184.0500  178.2520  138.7980 O   0  0  0  0  0  0  0  0  0  0  0  0
  183.7770  178.4930  141.5640 N   0  0  0  0  0  2  0  0  0  0  0  0
  185.6270  177.0000  145.6660 C   0  0  0  0  0  2  0  0  0  0  0  0
  185.5710  179.9540  141.8090 O   0  0  0  0  0  1  0  0  0  0  0  0
  185.2330  178.6050  141.6540 C   0  0  1  0  0  0  0  0  0  0  0  0
  191.7820  177.8890  144.5340 S   0  0  0  0  0  0  0  0  0  0  0  0
  183.3330  178.8530  145.1360 C   0  0  0  0  0  3  0  0  0  0  0  0
  185.3380  178.2180  146.5390 C   0  0  0  0  0  2  0  0  0  0  0  0
  185.2750  178.3310  139.0780 C   0  0  0  0  0  0  0  0  0  0  0  0
  182.8130  178.8640  142.5670 C   0  0  0  0  0  0  0  0  0  0  0  0
  184.5930  179.3360  145.8060 C   0  0  1  0  0  3  0  0  0  0  0  0
  187.0260  176.8610  145.4490 O   0  0  0  0  0  0  0  0  0  0  0  0
  186.2690  178.6200  138.1210 N   0  0  0  0  0  2  0  0  0  0  0  0
  189.1410  177.5420  144.2700 C   0  0  0  0  0  0  0  0  0  0  0  0
  187.7060  177.4010  144.3480 C   0  0  0  0  0  0  0  0  0  0  0  0
  187.5470  178.5260  138.6930 N   0  0  0  0  0  2  0  0  0  0  0  0
  188.2870  178.4750  142.3530 C   0  0  1  0  0  3  0  0  0  0  0  0
  183.1070  178.8810  143.8450 C   0  0  0  0  0  0  0  0  0  0  0  0
  181.1030  178.3190  140.8710 C   0  0  0  0  0  1  0  0  0  0  0  0
  181.3830  179.0390  142.1750 C   0  0  0  0  0  3  0  0  0  0  0  0
  180.4610  178.5140  143.2610 C   0  0  0  0  0  1  0  0  0  0  0  0
  2 24  2  0  0  0  0
  4  2  1  0  0  0  0
  4 16  1  0  0  0  0
  5  9  1  0  0  0  0
  5  3  1  1  0  0  0
  6 25  2  0  0  0  0
  7  6  1  0  0  0  0
  9 19  1  6  0  0  0
  9 15  1  0  0  0  0
 10  8  2  0  0  0  0
 11 19  2  0  0  0  0
 12 15  1  0  0  0  0
 12 20  1  0  0  0  0
 13 18  1  0  0  0  0
 15 14  1  1  0  0  0
 15  7  1  0  0  0  0
 16 10  1  0  0  0  0
 17 21  1  0  0  0  0
 20 28  2  0  0  0  0
 21  1  1  6  0  0  0
 21 18  1  0  0  0  0
 22 13  1  0  0  0  0
 23 26  1  0  0  0  0
 23 19  1  0  0  0  0
 24 25  1  0  0  0  0
 24 10  1  0  0  0  0
 25 22  1  0  0  0  0
 26  5  1  0  0  0  0
 27  3  1  6  0  0  0
 27  2  1  0  0  0  0
 27  6  1  0  0  0  0
 28 17  2  0  0  0  0
 29 30  1  0  0  0  0
 30 20  1  0  0  0  0
 30 31  1  0  0  0  0
M  END
>  <MODEL>
3

>  <REMARK>
 VINA RESULT:      -8.0      2.851      5.470
  Name = 
  1 active torsions:
  status: ('A' for Active; 'I' for Inactive)
    1  A    between atoms: C_21  and  C_30
                            x       y       z     vdW  Elec       q    Type
                         _______ _______ _______ _____ _____    ______ ____

>  <TORSDO>
F 1

$$$$
=
 OpenBabel10232411513D

 31 35  0  0  1  0  0  0  0  0999 V2000
  186.2370  176.3580  145.6010 C   0  0  0  0  0  1  0  0  0  0  0  0
  184.3520  178.3280  141.6420 C   0  0  0  0  0  0  0  0  0  0  0  0
  186.6310  178.4130  140.6400 C   0  0  0  0  0  2  0  0  0  0  0  0
  183.3020  177.9290  140.6590 C   0  0  0  0  0  2  0  0  0  0  0  0
  187.9350  177.6460  140.6930 C   0  0  2  0  0  3  0  0  0  0  0  0
  186.1240  178.5470  143.1130 C   0  0  0  0  0  0  0  0  0  0  0  0
  187.4860  178.5930  143.7570 C   0  0  0  0  0  2  0  0  0  0  0  0
  181.9490  179.7540  143.7200 O   0  0  0  0  0  0  0  0  0  0  0  0
  188.8960  178.2100  141.7400 C   0  0  1  0  0  3  0  0  0  0  0  0
  182.5400  179.2280  142.7410 C   0  0  0  0  0  0  0  0  0  0  0  0
  191.3050  177.8510  141.6680 O   0  0  0  0  0  0  0  0  0  0  0  0
  189.7760  177.7910  144.0010 N   0  0  0  0  0  2  0  0  0  0  0  0
  185.8410  179.5660  145.9610 C   0  0  0  0  0  2  0  0  0  0  0  0
  188.1560  176.3640  143.1330 O   0  0  0  0  0  1  0  0  0  0  0  0
  188.5800  177.6970  143.1630 C   0  0  1  0  0  0  0  0  0  0  0  0
  181.7130  178.6570  141.2610 S   0  0  0  0  0  0  0  0  0  0  0  0
  187.8700  177.6620  147.0730 C   0  0  0  0  0  3  0  0  0  0  0  0
  185.4610  178.4050  146.8770 C   0  0  0  0  0  2  0  0  0  0  0  0
  190.1720  177.8020  141.1220 C   0  0  0  0  0  0  0  0  0  0  0  0
  189.8810  177.4780  145.4020 C   0  0  0  0  0  0  0  0  0  0  0  0
  186.4470  177.2350  146.8260 C   0  0  1  0  0  3  0  0  0  0  0  0
  184.8930  179.7030  144.9080 O   0  0  0  0  0  0  0  0  0  0  0  0
  189.9830  177.4600  139.7670 N   0  0  0  0  0  2  0  0  0  0  0  0
  183.9510  178.9640  142.6960 C   0  0  0  0  0  0  0  0  0  0  0  0
  185.0270  179.0960  143.6510 C   0  0  0  0  0  0  0  0  0  0  0  0
  188.6350  177.6010  139.4050 N   0  0  0  0  0  2  0  0  0  0  0  0
  185.7720  177.8990  141.7840 C   0  0  1  0  0  3  0  0  0  0  0  0
  188.8520  177.5480  146.2120 C   0  0  0  0  0  0  0  0  0  0  0  0
  191.1040  176.9110  147.4720 C   0  0  0  0  0  1  0  0  0  0  0  0
  191.2320  177.2660  146.0030 C   0  0  0  0  0  3  0  0  0  0  0  0
  191.9800  176.1670  145.2710 C   0  0  0  0  0  1  0  0  0  0  0  0
  2 27  1  0  0  0  0
  2 24  2  0  0  0  0
  4 16  1  0  0  0  0
  4  2  1  0  0  0  0
  5  3  1  6  0  0  0
  5  9  1  0  0  0  0
  6 25  2  0  0  0  0
  6  7  1  0  0  0  0
  9 19  1  6  0  0  0
  9 15  1  0  0  0  0
 10  8  2  0  0  0  0
 12 20  1  0  0  0  0
 13 18  1  0  0  0  0
 15 14  1  6  0  0  0
 15  7  1  0  0  0  0
 15 12  1  0  0  0  0
 16 10  1  0  0  0  0
 19 11  2  0  0  0  0
 20 30  1  0  0  0  0
 20 28  2  0  0  0  0
 21  1  1  6  0  0  0
 21 18  1  0  0  0  0
 21 17  1  0  0  0  0
 22 13  1  0  0  0  0
 23 19  1  0  0  0  0
 24 10  1  0  0  0  0
 24 25  1  0  0  0  0
 25 22  1  0  0  0  0
 26 23  1  0  0  0  0
 26  5  1  0  0  0  0
 27  3  1  6  0  0  0
 27  6  1  0  0  0  0
 28 17  2  0  0  0  0
 30 29  1  0  0  0  0
 31 30  1  0  0  0  0
M  END
>  <MODEL>
4

>  <REMARK>
 VINA RESULT:      -7.3      2.803      5.621
  Name = 
  1 active torsions:
  status: ('A' for Active; 'I' for Inactive)
    1  A    between atoms: C_21  and  C_30
                            x       y       z     vdW  Elec       q    Type
                         _______ _______ _______ _____ _____    ______ ____

>  <TORSDO>
F 1

$$$$
=
 OpenBabel10232411513D

 31 35  0  0  1  0  0  0  0  0999 V2000
  186.1510  176.4380  145.0780 C   0  0  0  0  0  1  0  0  0  0  0  0
  183.5390  178.3920  141.5460 C   0  0  0  0  0  0  0  0  0  0  0  0
  185.6210  178.6700  140.2070 C   0  0  0  0  0  2  0  0  0  0  0  0
  182.3760  177.9490  140.7220 C   0  0  0  0  0  2  0  0  0  0  0  0
  186.9630  177.9980  140.0240 C   0  0  2  0  0  3  0  0  0  0  0  0
  185.5030  178.6900  142.7320 C   0  0  0  0  0  0  0  0  0  0  0  0
  186.9440  178.8130  143.1580 C   0  0  0  0  0  2  0  0  0  0  0  0
  181.4060  179.5750  144.0310 O   0  0  0  0  0  0  0  0  0  0  0  0
  188.0390  178.5960  140.9320 C   0  0  1  0  0  3  0  0  0  0  0  0
  181.8680  179.1250  142.9510 C   0  0  0  0  0  0  0  0  0  0  0  0
  190.4250  178.4130  140.4710 O   0  0  0  0  0  0  0  0  0  0  0  0
  189.2910  178.1700  143.0090 N   0  0  0  0  0  2  0  0  0  0  0  0
  185.6070  179.5960  145.6300 C   0  0  0  0  0  2  0  0  0  0  0  0
  187.6520  176.6590  142.3440 O   0  0  0  0  0  1  0  0  0  0  0  0
  187.9860  178.0170  142.3630 C   0  0  1  0  0  0  0  0  0  0  0  0
  180.8570  178.5420  141.5940 S   0  0  0  0  0  0  0  0  0  0  0  0
  187.9070  177.8090  146.3320 C   0  0  0  0  0  3  0  0  0  0  0  0
  185.4530  178.3830  146.5440 C   0  0  0  0  0  2  0  0  0  0  0  0
  189.2250  178.3000  140.1060 C   0  0  0  0  0  0  0  0  0  0  0  0
  189.6360  177.8210  144.3620 C   0  0  0  0  0  0  0  0  0  0  0  0
  186.4930  177.2880  146.2910 C   0  0  1  0  0  3  0  0  0  0  0  0
  184.4980  179.6970  144.7440 O   0  0  0  0  0  0  0  0  0  0  0  0
  188.8480  177.9880  138.7840 N   0  0  0  0  0  2  0  0  0  0  0  0
  183.2690  178.9630  142.6760 C   0  0  0  0  0  0  0  0  0  0  0  0
  184.4710  179.1420  143.4570 C   0  0  0  0  0  0  0  0  0  0  0  0
  187.4530  178.0440  138.6430 N   0  0  0  0  0  2  0  0  0  0  0  0
  184.9880  178.0610  141.4480 C   0  0  1  0  0  3  0  0  0  0  0  0
  188.7460  177.7920  145.3240 C   0  0  0  0  0  0  0  0  0  0  0  0
  191.6070  176.3330  144.3120 C   0  0  0  0  0  1  0  0  0  0  0  0
  191.0760  177.6880  144.7370 C   0  0  0  0  0  3  0  0  0  0  0  0
  191.9020  178.7880  144.0960 C   0  0  0  0  0  1  0  0  0  0  0  0
  2 24  2  0  0  0  0
  4  2  1  0  0  0  0
  4 16  1  0  0  0  0
  5  3  1  6  0  0  0
  5  9  1  0  0  0  0
  6  7  1  0  0  0  0
  6 25  2  0  0  0  0
  9 19  1  6  0  0  0
  9 15  1  0  0  0  0
 10  8  2  0  0  0  0
 12 20  1  0  0  0  0
 13 18  1  0  0  0  0
 15 14  1  6  0  0  0
 15 12  1  0  0  0  0
 15  7  1  0  0  0  0
 16 10  1  0  0  0  0
 19 11  2  0  0  0  0
 20 30  1  0  0  0  0
 20 28  2  0  0  0  0
 21  1  1  6  0  0  0
 21 17  1  0  0  0  0
 21 18  1  0  0  0  0
 22 13  1  0  0  0  0
 23 19  1  0  0  0  0
 24 10  1  0  0  0  0
 24 25  1  0  0  0  0
 25 22  1  0  0  0  0
 26 23  1  0  0  0  0
 26  5  1  0  0  0  0
 27  3  1  6  0  0  0
 27  2  1  0  0  0  0
 27  6  1  0  0  0  0
 28 17  2  0  0  0  0
 29 30  1  0  0  0  0
 31 30  1  0  0  0  0
M  END
>  <MODEL>
5

>  <REMARK>
 VINA RESULT:      -7.0      2.758      5.809
  Name = 
  1 active torsions:
  status: ('A' for Active; 'I' for Inactive)
    1  A    between atoms: C_21  and  C_30
                            x       y       z     vdW  Elec       q    Type
                         _______ _______ _______ _____ _____    ______ ____

>  <TORSDO>
F 1

$$$$
=
 OpenBabel10232411513D

 31 35  0  0  1  0  0  0  0  0999 V2000
  186.0070  176.6410  143.7510 C   0  0  0  0  0  1  0  0  0  0  0  0
  185.8800  178.1070  139.1750 C   0  0  0  0  0  0  0  0  0  0  0  0
  188.3690  178.0310  139.1170 C   0  0  0  0  0  2  0  0  0  0  0  0
  185.2560  177.5970  137.9180 C   0  0  0  0  0  2  0  0  0  0  0  0
  189.5070  177.2610  139.7510 C   0  0  2  0  0  3  0  0  0  0  0  0
  186.9760  178.4900  141.1750 C   0  0  0  0  0  0  0  0  0  0  0  0
  187.9940  178.6020  142.2820 C   0  0  0  0  0  2  0  0  0  0  0  0
  182.9630  179.8200  139.9990 O   0  0  0  0  0  0  0  0  0  0  0  0
  190.0350  177.9430  141.0140 C   0  0  1  0  0  3  0  0  0  0  0  0
  183.8460  179.1650  139.3880 C   0  0  0  0  0  0  0  0  0  0  0  0
  192.2660  177.5470  141.9090 O   0  0  0  0  0  0  0  0  0  0  0  0
  189.9690  177.8080  143.4720 N   0  0  0  0  0  2  0  0  0  0  0  0
  185.7020  179.8720  143.5630 C   0  0  0  0  0  2  0  0  0  0  0  0
  188.7120  176.3020  142.2210 O   0  0  0  0  0  1  0  0  0  0  0  0
  189.1750  177.6220  142.2570 C   0  0  1  0  0  0  0  0  0  0  0  0
  183.6050  178.4180  137.7800 S   0  0  0  0  0  0  0  0  0  0  0  0
  187.0410  178.1030  145.5760 C   0  0  0  0  0  3  0  0  0  0  0  0
  184.9350  178.8450  144.3900 C   0  0  0  0  0  2  0  0  0  0  0  0
  191.4220  177.4420  140.9810 C   0  0  0  0  0  0  0  0  0  0  0  0
  189.5190  177.6780  144.8320 C   0  0  0  0  0  0  0  0  0  0  0  0
  185.7930  177.6660  144.8540 C   0  0  1  0  0  3  0  0  0  0  0  0
  185.2320  179.8850  142.2200 O   0  0  0  0  0  0  0  0  0  0  0  0
  191.7370  176.9300  139.7060 N   0  0  0  0  0  2  0  0  0  0  0  0
  185.1510  178.8780  139.9160 C   0  0  0  0  0  0  0  0  0  0  0  0
  185.7930  179.1190  141.1870 C   0  0  0  0  0  0  0  0  0  0  0  0
  190.6370  177.0410  138.8430 N   0  0  0  0  0  2  0  0  0  0  0  0
  187.1110  177.6810  139.8970 C   0  0  1  0  0  3  0  0  0  0  0  0
  188.2660  177.8650  145.1740 C   0  0  0  0  0  0  0  0  0  0  0  0
  189.8540  177.0680  147.2020 C   0  0  0  0  0  1  0  0  0  0  0  0
  190.5270  177.5280  145.9240 C   0  0  0  0  0  3  0  0  0  0  0  0
  191.6070  176.5390  145.5260 C   0  0  0  0  0  1  0  0  0  0  0  0
  2 27  1  0  0  0  0
  2 24  2  0  0  0  0
  4  2  1  0  0  0  0
  5  3  1  6  0  0  0
  5  9  1  0  0  0  0
  6 25  2  0  0  0  0
  6  7  1  0  0  0  0
  9 19  1  1  0  0  0
  9 15  1  0  0  0  0
 10 24  1  0  0  0  0
 10  8  2  0  0  0  0
 12 20  1  0  0  0  0
 13 18  1  0  0  0  0
 15 14  1  6  0  0  0
 15  7  1  0  0  0  0
 15 12  1  0  0  0  0
 16  4  1  0  0  0  0
 16 10  1  0  0  0  0
 18 21  1  0  0  0  0
 19 11  2  0  0  0  0
 20 28  2  0  0  0  0
 20 30  1  0  0  0  0
 21  1  1  6  0  0  0
 21 17  1  0  0  0  0
 22 13  1  0  0  0  0
 23 19  1  0  0  0  0
 24 25  1  0  0  0  0
 25 22  1  0  0  0  0
 26 23  1  0  0  0  0
 26  5  1  0  0  0  0
 27  3  1  6  0  0  0
 27  6  1  0  0  0  0
 28 17  2  0  0  0  0
 30 29  1  0  0  0  0
 31 30  1  0  0  0  0
M  END
>  <MODEL>
6

>  <REMARK>
 VINA RESULT:      -6.7      2.835      5.248
  Name = 
  1 active torsions:
  status: ('A' for Active; 'I' for Inactive)
    1  A    between atoms: C_21  and  C_30
                            x       y       z     vdW  Elec       q    Type
                         _______ _______ _______ _____ _____    ______ ____

>  <TORSDO>
F 1

$$$$
=
 OpenBabel10232411513D

 31 35  0  0  1  0  0  0  0  0999 V2000
  185.9810  180.2880  144.1910 C   0  0  0  0  0  1  0  0  0  0  0  0
  189.7900  177.5240  145.1680 C   0  0  0  0  0  0  0  0  0  0  0  0
  190.0200  177.0390  142.7350 C   0  0  0  0  0  2  0  0  0  0  0  0
  191.1050  177.7360  145.8420 C   0  0  0  0  0  2  0  0  0  0  0  0
  189.7480  177.7050  141.4040 C   0  0  2  0  0  3  0  0  0  0  0  0
  187.8460  177.5610  143.9160 C   0  0  0  0  0  0  0  0  0  0  0  0
  186.8290  177.5860  142.8020 C   0  0  0  0  0  2  0  0  0  0  0  0
  188.2690  176.8270  148.2210 O   0  0  0  0  0  0  0  0  0  0  0  0
  188.3640  177.3570  140.8540 C   0  0  1  0  0  3  0  0  0  0  0  0
  189.1150  177.0510  147.3180 C   0  0  0  0  0  0  0  0  0  0  0  0
  187.7880  177.5230  138.4930 O   0  0  0  0  0  0  0  0  0  0  0  0
  186.0920  178.2670  140.5800 N   0  0  0  0  0  2  0  0  0  0  0  0
  185.0630  177.3060  145.1070 C   0  0  0  0  0  2  0  0  0  0  0  0
  187.6960  179.5380  141.6880 O   0  0  0  0  0  1  0  0  0  0  0  0
  187.2500  178.2290  141.4750 C   0  0  1  0  0  0  0  0  0  0  0  0
  190.8630  177.2890  147.6200 S   0  0  0  0  0  0  0  0  0  0  0  0
  183.8390  179.2860  143.2200 C   0  0  0  0  0  3  0  0  0  0  0  0
  184.5800  178.6810  145.5610 C   0  0  0  0  0  2  0  0  0  0  0  0
  188.6450  177.5110  139.4140 C   0  0  0  0  0  0  0  0  0  0  0  0
  184.8290  178.9120  140.8220 C   0  0  0  0  0  0  0  0  0  0  0  0
  184.5890  179.7330  144.4480 C   0  0  1  0  0  3  0  0  0  0  0  0
  186.2940  176.9750  145.7390 O   0  0  0  0  0  0  0  0  0  0  0  0
  190.0350  177.5170  139.1750 N   0  0  0  0  0  2  0  0  0  0  0  0
  188.7920  177.2000  145.9260 C   0  0  0  0  0  0  0  0  0  0  0  0
  187.5540  177.2380  145.1830 C   0  0  0  0  0  0  0  0  0  0  0  0
  190.7440  177.3800  140.3780 N   0  0  0  0  0  2  0  0  0  0  0  0
  189.3270  177.8780  143.7970 C   0  0  1  0  0  3  0  0  0  0  0  0
  184.3700  179.1160  142.0330 C   0  0  0  0  0  0  0  0  0  0  0  0
  184.3760  178.4160  138.4450 C   0  0  0  0  0  1  0  0  0  0  0  0
  183.9120  179.1750  139.6730 C   0  0  0  0  0  3  0  0  0  0  0  0
  182.4890  178.7760  140.0180 C   0  0  0  0  0  1  0  0  0  0  0  0
  2  4  1  0  0  0  0
  2 24  2  0  0  0  0
  4 16  1  0  0  0  0
  5  3  1  1  0  0  0
  6 25  2  0  0  0  0
  7  6  1  0  0  0  0
  9 19  1  6  0  0  0
  9  5  1  0  0  0  0
  9 15  1  0  0  0  0
 10 16  1  0  0  0  0
 10  8  2  0  0  0  0
 11 19  2  0  0  0  0
 12 20  1  0  0  0  0
 12 15  1  0  0  0  0
 13 18  1  0  0  0  0
 13 22  1  0  0  0  0
 15 14  1  1  0  0  0
 15  7  1  0  0  0  0
 17 21  1  0  0  0  0
 20 28  2  0  0  0  0
 21  1  1  6  0  0  0
 21 18  1  0  0  0  0
 23 19  1  0  0  0  0
 23 26  1  0  0  0  0
 24 10  1  0  0  0  0
 25 22  1  0  0  0  0
 25 24  1  0  0  0  0
 26  5  1  0  0  0  0
 27  3  1  6  0  0  0
 27  6  1  0  0  0  0
 27  2  1  0  0  0  0
 28 17  2  0  0  0  0
 29 30  1  0  0  0  0
 30 31  1  0  0  0  0
 30 20  1  0  0  0  0
M  END
>  <MODEL>
7

>  <REMARK>
 VINA RESULT:      -6.4      3.195      6.514
  Name = 
  1 active torsions:
  status: ('A' for Active; 'I' for Inactive)
    1  A    between atoms: C_21  and  C_30
                            x       y       z     vdW  Elec       q    Type
                         _______ _______ _______ _____ _____    ______ ____

>  <TORSDO>
F 1

$$$$
=
 OpenBabel10232411513D

 31 35  0  0  1  0  0  0  0  0999 V2000
  188.3270  178.3740  135.4690 C   0  0  0  0  0  1  0  0  0  0  0  0
  184.7800  178.4860  138.7130 C   0  0  0  0  0  0  0  0  0  0  0  0
  186.4620  178.1160  140.5140 C   0  0  0  0  0  2  0  0  0  0  0  0
  183.7300  179.4740  139.0970 C   0  0  0  0  0  2  0  0  0  0  0  0
  187.9150  178.4210  140.8040 C   0  0  2  0  0  3  0  0  0  0  0  0
  186.6750  177.2920  138.1330 C   0  0  0  0  0  0  0  0  0  0  0  0
  188.0390  176.6500  138.0960 C   0  0  0  0  0  2  0  0  0  0  0  0
  182.7220  177.1680  136.2330 O   0  0  0  0  0  0  0  0  0  0  0  0
  188.8440  177.2880  140.3640 C   0  0  1  0  0  3  0  0  0  0  0  0
  183.1610  177.8090  137.2230 C   0  0  0  0  0  0  0  0  0  0  0  0
  191.0760  176.9620  141.2860 O   0  0  0  0  0  0  0  0  0  0  0  0
  190.4270  176.6460  138.5910 N   0  0  0  0  0  2  0  0  0  0  0  0
  186.8550  175.4830  135.6980 C   0  0  0  0  0  2  0  0  0  0  0  0
  189.3010  178.6760  138.4240 O   0  0  0  0  0  1  0  0  0  0  0  0
  189.1710  177.3510  138.8560 C   0  0  1  0  0  0  0  0  0  0  0  0
  182.2280  179.0590  138.1010 S   0  0  0  0  0  0  0  0  0  0  0  0
  189.6840  176.2440  135.0730 C   0  0  0  0  0  3  0  0  0  0  0  0
  187.2280  176.3180  134.4760 C   0  0  0  0  0  2  0  0  0  0  0  0
  189.9430  177.5090  141.3240 C   0  0  0  0  0  0  0  0  0  0  0  0
  191.0410  176.4190  137.3090 C   0  0  0  0  0  0  0  0  0  0  0  0
  188.5270  177.1100  134.6470 C   0  0  1  0  0  3  0  0  0  0  0  0
  185.6680  175.9850  136.3020 O   0  0  0  0  0  0  0  0  0  0  0  0
  189.5190  178.3320  142.3870 N   0  0  0  0  0  2  0  0  0  0  0  0
  184.4890  177.6670  137.7530 C   0  0  0  0  0  0  0  0  0  0  0  0
  185.6560  176.9210  137.3460 C   0  0  0  0  0  0  0  0  0  0  0  0
  188.1770  178.7060  142.2180 N   0  0  0  0  0  2  0  0  0  0  0  0
  186.2320  178.4250  139.0420 C   0  0  1  0  0  3  0  0  0  0  0  0
  190.3430  176.3670  136.2000 C   0  0  0  0  0  0  0  0  0  0  0  0
  193.2170  176.5380  138.4710 C   0  0  0  0  0  1  0  0  0  0  0  0
  192.4800  176.0250  137.2490 C   0  0  0  0  0  3  0  0  0  0  0  0
  192.6220  174.5170  137.1580 C   0  0  0  0  0  1  0  0  0  0  0  0
  2 27  1  0  0  0  0
  2  4  1  0  0  0  0
  5  3  1  1  0  0  0
  5 26  1  0  0  0  0
  6 27  1  0  0  0  0
  7  6  1  0  0  0  0
  7 15  1  0  0  0  0
  8 10  2  0  0  0  0
  9  5  1  0  0  0  0
  9 19  1  1  0  0  0
 10 24  1  0  0  0  0
 10 16  1  0  0  0  0
 11 19  2  0  0  0  0
 12 15  1  0  0  0  0
 13 22  1  0  0  0  0
 15 14  1  6  0  0  0
 15  9  1  0  0  0  0
 16  4  1  0  0  0  0
 17 28  2  0  0  0  0
 18 21  1  0  0  0  0
 18 13  1  0  0  0  0
 19 23  1  0  0  0  0
 20 12  1  0  0  0  0
 21 17  1  0  0  0  0
 21  1  1  1  0  0  0
 22 25  1  0  0  0  0
 24  2  2  0  0  0  0
 25 24  1  0  0  0  0
 25  6  2  0  0  0  0
 26 23  1  0  0  0  0
 27  3  1  1  0  0  0
 28 20  2  0  0  0  0
 30 20  1  0  0  0  0
 30 29  1  0  0  0  0
 31 30  1  0  0  0  0
M  END
>  <MODEL>
8

>  <REMARK>
 VINA RESULT:      -6.2      3.991      7.488
  Name = 
  1 active torsions:
  status: ('A' for Active; 'I' for Inactive)
    1  A    between atoms: C_21  and  C_30
                            x       y       z     vdW  Elec       q    Type
                         _______ _______ _______ _____ _____    ______ ____

>  <TORSDO>
F 1

$$$$
=
 OpenBabel10232411513D

 31 35  0  0  1  0  0  0  0  0999 V2000
  190.0410  175.4290  143.3290 C   0  0  0  0  0  1  0  0  0  0  0  0
  186.1900  178.0560  144.5070 C   0  0  0  0  0  0  0  0  0  0  0  0
  186.0240  178.8120  142.1390 C   0  0  0  0  0  2  0  0  0  0  0  0
  184.8590  177.7660  145.1160 C   0  0  0  0  0  2  0  0  0  0  0  0
  186.3350  178.3010  140.7490 C   0  0  2  0  0  3  0  0  0  0  0  0
  188.1680  178.1660  143.3120 C   0  0  0  0  0  0  0  0  0  0  0  0
  189.2140  178.2700  142.2320 C   0  0  0  0  0  2  0  0  0  0  0  0
  187.6250  178.4070  147.6600 O   0  0  0  0  0  0  0  0  0  0  0  0
  187.7320  178.7130  140.2800 C   0  0  1  0  0  3  0  0  0  0  0  0
  186.8040  178.2850  146.7140 C   0  0  0  0  0  0  0  0  0  0  0  0
  188.3730  178.8160  137.9320 O   0  0  0  0  0  0  0  0  0  0  0  0
  190.0150  177.8460  139.9680 N   0  0  0  0  0  2  0  0  0  0  0  0
  190.9160  178.2910  144.6010 C   0  0  0  0  0  2  0  0  0  0  0  0
  188.3890  176.4540  140.8800 O   0  0  0  0  0  1  0  0  0  0  0  0
  188.8330  177.7790  140.8290 C   0  0  1  0  0  0  0  0  0  0  0  0
  185.0500  178.0090  146.9390 S   0  0  0  0  0  0  0  0  0  0  0  0
  192.2020  176.5410  142.5370 C   0  0  0  0  0  3  0  0  0  0  0  0
  191.3940  176.8750  144.9100 C   0  0  0  0  0  2  0  0  0  0  0  0
  187.4900  178.7220  138.8250 C   0  0  0  0  0  0  0  0  0  0  0  0
  191.2750  177.1810  140.1700 C   0  0  0  0  0  0  0  0  0  0  0  0
  191.4220  175.9560  143.6860 C   0  0  1  0  0  3  0  0  0  0  0  0
  189.6660  178.5460  145.2320 O   0  0  0  0  0  0  0  0  0  0  0  0
  186.1080  178.7400  138.5480 N   0  0  0  0  0  2  0  0  0  0  0  0
  187.1660  178.2940  145.3240 C   0  0  0  0  0  0  0  0  0  0  0  0
  188.4230  178.3440  144.6150 C   0  0  0  0  0  0  0  0  0  0  0  0
  185.3660  178.7380  139.7390 N   0  0  0  0  0  2  0  0  0  0  0  0
  186.6930  177.8600  143.1180 C   0  0  1  0  0  3  0  0  0  0  0  0
  191.7030  176.8430  141.3630 C   0  0  0  0  0  0  0  0  0  0  0  0
  193.6480  176.9300  139.5310 C   0  0  0  0  0  1  0  0  0  0  0  0
  192.2240  177.0520  139.0240 C   0  0  0  0  0  3  0  0  0  0  0  0
  191.8770  175.8450  138.1720 C   0  0  0  0  0  1  0  0  0  0  0  0
  2  4  1  0  0  0  0
  2 24  2  0  0  0  0
  4 16  1  0  0  0  0
  5  3  1  1  0  0  0
  6 25  2  0  0  0  0
  7  6  1  0  0  0  0
  9 19  1  6  0  0  0
  9  5  1  0  0  0  0
  9 15  1  0  0  0  0
 10 16  1  0  0  0  0
 10  8  2  0  0  0  0
 11 19  2  0  0  0  0
 12 20  1  0  0  0  0
 12 15  1  0  0  0  0
 13 18  1  0  0  0  0
 13 22  1  0  0  0  0
 15 14  1  1  0  0  0
 15  7  1  0  0  0  0
 17 21  1  0  0  0  0
 20 28  2  0  0  0  0
 21  1  1  6  0  0  0
 21 18  1  0  0  0  0
 23 19  1  0  0  0  0
 23 26  1  0  0  0  0
 24 10  1  0  0  0  0
 25 22  1  0  0  0  0
 25 24  1  0  0  0  0
 26  5  1  0  0  0  0
 27  3  1  6  0  0  0
 27  6  1  0  0  0  0
 27  2  1  0  0  0  0
 28 17  2  0  0  0  0
 30 29  1  0  0  0  0
 30 20  1  0  0  0  0
 31 30  1  0  0  0  0
M  END
>  <MODEL>
9

>  <REMARK>
 VINA RESULT:      -6.2      2.952      6.076
  Name = 
  1 active torsions:
  status: ('A' for Active; 'I' for Inactive)
    1  A    between atoms: C_21  and  C_30
                            x       y       z     vdW  Elec       q    Type
                         _______ _______ _______ _____ _____    ______ ____

>  <TORSDO>
F 1

$$$$
