=
 OpenBabel10232412203D

 51 57  0  0  1  0  0  0  0  0999 V2000
  189.2050  177.9150  139.7330 C   0  0  0  0  0  2  0  0  0  0  0  0
  190.4740  176.6860  136.4700 C   0  0  0  0  0  0  0  0  0  0  0  0
  190.3150  176.9650  140.1590 C   0  0  1  0  0  3  0  0  0  0  0  0
  190.1670  176.9410  137.7660 C   0  0  0  0  0  0  0  0  0  0  0  0
  191.0230  176.4940  138.9000 C   0  0  0  0  0  2  0  0  0  0  0  0
  188.9900  177.7190  138.2420 C   0  0  1  0  0  3  0  0  0  0  0  0
  193.9830  174.2520  135.9400 C   0  0  1  0  0  0  0  0  0  0  0  0
  192.6680  176.3250  135.4960 C   0  0  0  0  0  3  0  0  0  0  0  0
  195.1780  173.4410  135.6820 C   0  0  1  0  0  3  0  0  0  0  0  0
  195.1270  174.3390  136.8820 N   0  0  0  0  0  0  0  0  0  0  0  0
  191.6130  175.8060  136.1430 C   0  0  0  0  0  0  0  0  0  0  0  0
  191.6020  174.3780  136.5630 C   0  0  0  0  0  0  0  0  0  0  0  0
  193.8440  175.4920  135.0670 C   0  0  0  0  0  2  0  0  0  0  0  0
  192.7000  173.6290  136.4520 C   0  0  0  0  0  3  0  0  0  0  0  0
  190.3540  173.7430  137.0760 C   0  0  0  0  0  1  0  0  0  0  0  0
  194.9710  171.9380  135.9570 C   0  0  0  0  0  2  0  0  0  0  0  0
  197.3300  171.9500  135.0520 C   0  0  0  0  0  1  0  0  0  0  0  0
  196.2260  171.1060  135.6740 C   0  0  1  0  0  3  0  0  0  0  0  0
  196.7210  170.3110  136.8890 C   0  0  0  0  0  0  0  0  0  0  0  0
  195.8120  168.5220  137.6280 C   0  0  0  0  0  2  0  0  0  0  0  0
  197.8570  170.8510  137.4940 O   0  0  0  0  0  1  0  0  0  0  0  0
  195.6350  170.0050  137.8990 C   0  0  0  0  0  2  0  0  0  0  0  0
  196.8920  168.8330  136.6060 C   0  0  0  0  0  2  0  0  0  0  0  0
  194.9070  173.6010  138.1320 C   0  0  0  0  0  2  0  0  0  0  0  0
  197.2620  174.2010  138.5750 C   0  0  0  0  0  1  0  0  0  0  0  0
  195.4880  175.2950  139.7140 O   0  0  0  0  0  1  0  0  0  0  0  0
  195.8880  174.0620  139.1960 C   0  0  1  0  0  3  0  0  0  0  0  0
  186.4300  178.8580  137.3360 O   0  0  0  0  0  0  0  0  0  0  0  0
  187.7310  177.0170  137.9830 N   0  0  0  0  0  2  0  0  0  0  0  0
  186.5090  177.6140  137.5230 C   0  0  0  0  0  0  0  0  0  0  0  0
  185.0330  176.3390  136.0550 C   0  0  0  0  0  3  0  0  0  0  0  0
  185.3280  176.7850  137.2720 C   0  0  0  0  0  3  0  0  0  0  0  0
  183.8180  175.5020  135.8260 C   0  0  0  0  0  2  0  0  0  0  0  0
  184.1410  174.0080  135.8090 C   0  0  0  0  0  0  0  0  0  0  0  0
  183.2950  173.2610  134.7960 C   0  0  0  0  0  2  0  0  0  0  0  0
  184.7780  173.4860  134.5380 C   0  0  0  0  0  2  0  0  0  0  0  0
  183.9950  173.9250  138.2230 F   0  0  0  0  0  0  0  0  0  0  0  0
  183.7140  171.8830  137.0950 C   0  0  0  0  0  1  0  0  0  0  0  0
  185.9220  172.9850  137.2590 C   0  0  0  0  0  1  0  0  0  0  0  0
  184.4300  173.2240  137.1090 C   0  0  0  0  0  0  0  0  0  0  0  0
  189.7700  177.2220  135.3780 O   0  0  0  0  0  0  0  0  0  0  0  0
  188.7710  176.5400  134.6330 C   0  0  0  0  0  1  0  0  0  0  0  0
  191.2500  177.6600  141.0310 N   0  0  0  0  0  2  0  0  0  0  0  0
  188.0410  177.8040  142.9450 C   0  0  0  0  0  2  0  0  0  0  0  0
  189.3190  177.2220  143.4980 C   0  0  0  0  0  0  0  0  0  0  0  0
  190.0270  178.0200  144.4110 O   0  0  0  0  0  0  0  0  0  0  0  0
  190.0920  176.2110  142.6640 C   0  0  0  0  0  2  0  0  0  0  0  0
  192.0060  177.5960  143.2810 O   0  0  0  0  0  0  0  0  0  0  0  0
  191.0940  178.5920  143.6950 C   0  0  0  0  0  2  0  0  0  0  0  0
  187.9960  176.7300  144.0290 C   0  0  0  0  0  2  0  0  0  0  0  0
  191.4150  176.8480  142.2350 C   0  0  2  0  0  3  0  0  0  0  0  0
  1  3  1  0  0  0  0
  2  4  2  0  0  0  0
  3 43  1  1  0  0  0
  4  6  1  0  0  0  0
  4  5  1  0  0  0  0
  5  3  1  0  0  0  0
  6 29  1  1  0  0  0
  6  1  1  0  0  0  0
  7 13  1  6  0  0  0
  7 14  1  0  0  0  0
  7 10  1  0  0  0  0
  8 11  2  0  0  0  0
  9  7  1  0  0  0  0
  9 16  1  1  0  0  0
  9 10  1  0  0  0  0
 10 24  1  0  0  0  0
 11  2  1  0  0  0  0
 11 12  1  0  0  0  0
 12 15  1  0  0  0  0
 13  8  1  0  0  0  0
 14 12  2  0  0  0  0
 18 17  1  1  0  0  0
 18 16  1  0  0  0  0
 18 19  1  0  0  0  0
 19 21  1  0  0  0  0
 19 22  1  0  0  0  0
 20 22  1  0  0  0  0
 23 19  1  0  0  0  0
 23 20  1  0  0  0  0
 24 27  1  0  0  0  0
 27 25  1  6  0  0  0
 27 26  1  0  0  0  0
 28 30  2  0  0  0  0
 30 29  1  0  0  0  0
 31 32  2  0  0  0  0
 32 30  1  0  0  0  0
 33 31  1  0  0  0  0
 34 33  1  0  0  0  0
 34 40  1  0  0  0  0
 35 34  1  0  0  0  0
 36 35  1  0  0  0  0
 36 34  1  0  0  0  0
 38 40  1  0  0  0  0
 40 39  1  0  0  0  0
 40 37  1  0  0  0  0
 41  2  1  0  0  0  0
 42 41  1  0  0  0  0
 44 45  1  0  0  0  0
 44 50  1  0  0  0  0
 45 50  1  0  0  0  0
 45 46  1  0  0  0  0
 47 45  1  0  0  0  0
 48 49  1  0  0  0  0
 49 46  1  0  0  0  0
 51 43  1  6  0  0  0
 51 47  1  0  0  0  0
 51 48  1  0  0  0  0
M  END
>  <MODEL>
1

>  <REMARK>
 VINA RESULT:      -7.1      0.000      0.000
  Name = 
  14 active torsions:
  status: ('A' for Active; 'I' for Inactive)
    1  A    between atoms: C_9  and  C_15
    2  A    between atoms: C_9  and  C_22
    3  A    between atoms: C_10  and  C_12
    4  A    between atoms: C_10  and  C_27
    5  A    between atoms: C_11  and  O_14
    6  A    between atoms: C_11  and  C_31
    7  A    between atoms: C_15  and  C_37
    8  A    between atoms: C_17  and  C_27
    9  A    between atoms: N_19  and  C_23
   10  A    between atoms: N_19  and  C_44
   11  A    between atoms: N_29  and  C_38
   12  A    between atoms: C_35  and  C_50
   13  A    between atoms: C_38  and  C_45
   14  A    between atoms: N_43  and  C_47
                            x       y       z     vdW  Elec       q    Type
                         _______ _______ _______ _____ _____    ______ ____

>  <TORSDO>
F 14

$$$$
=
 OpenBabel10232412203D

 51 57  0  0  1  0  0  0  0  0999 V2000
  188.2600  178.1870  140.5440 C   0  0  0  0  0  2  0  0  0  0  0  0
  190.4330  177.0350  137.7670 C   0  0  0  0  0  0  0  0  0  0  0  0
  189.0830  177.0960  141.2140 C   0  0  1  0  0  3  0  0  0  0  0  0
  189.7360  177.2390  138.9110 C   0  0  0  0  0  0  0  0  0  0  0  0
  190.1270  176.6310  140.2140 C   0  0  0  0  0  2  0  0  0  0  0  0
  188.5360  178.1100  139.0520 C   0  0  1  0  0  3  0  0  0  0  0  0
  193.7900  174.3850  137.2840 C   0  0  1  0  0  0  0  0  0  0  0  0
  191.3480  174.8770  137.1340 C   0  0  0  0  0  3  0  0  0  0  0  0
  194.8890  173.4230  137.1500 C   0  0  1  0  0  3  0  0  0  0  0  0
  194.5770  174.3640  136.0260 N   0  0  0  0  0  0  0  0  0  0  0  0
  191.5390  176.0570  137.7440 C   0  0  0  0  0  0  0  0  0  0  0  0
  192.8530  176.3970  138.3550 C   0  0  0  0  0  0  0  0  0  0  0  0
  192.3950  173.7970  137.1150 C   0  0  0  0  0  2  0  0  0  0  0  0
  193.9140  175.6100  138.1680 C   0  0  0  0  0  3  0  0  0  0  0  0
  193.0030  177.6000  139.2230 C   0  0  0  0  0  1  0  0  0  0  0  0
  196.1240  173.7800  138.0030 C   0  0  0  0  0  2  0  0  0  0  0  0
  196.9710  171.7680  136.7300 C   0  0  0  0  0  1  0  0  0  0  0  0
  197.3290  172.8830  137.7030 C   0  0  1  0  0  3  0  0  0  0  0  0
  198.5760  173.6590  137.2590 C   0  0  0  0  0  0  0  0  0  0  0  0
  200.1570  172.8500  136.0690 C   0  0  0  0  0  2  0  0  0  0  0  0
  198.6000  174.9860  137.6930 O   0  0  0  0  0  1  0  0  0  0  0  0
  199.8770  172.9450  137.5580 C   0  0  0  0  0  2  0  0  0  0  0  0
  198.8450  173.5570  135.7720 C   0  0  0  0  0  2  0  0  0  0  0  0
  195.5410  175.4670  135.9260 C   0  0  0  0  0  2  0  0  0  0  0  0
  193.6880  176.1240  134.4290 C   0  0  0  0  0  1  0  0  0  0  0  0
  195.1280  177.7560  135.3790 O   0  0  0  0  0  1  0  0  0  0  0  0
  195.1000  176.4590  134.8630 C   0  0  1  0  0  3  0  0  0  0  0  0
  187.0400  179.3370  136.8330 O   0  0  0  0  0  0  0  0  0  0  0  0
  187.3810  177.5670  138.3340 N   0  0  0  0  0  2  0  0  0  0  0  0
  186.6930  178.1960  137.2410 C   0  0  0  0  0  0  0  0  0  0  0  0
  185.0190  176.4260  137.1000 C   0  0  0  0  0  3  0  0  0  0  0  0
  185.5680  177.5230  136.5890 C   0  0  0  0  0  3  0  0  0  0  0  0
  183.8770  175.7550  136.4100 C   0  0  0  0  0  2  0  0  0  0  0  0
  184.2300  174.3400  135.9540 C   0  0  0  0  0  0  0  0  0  0  0  0
  183.9440  174.1370  134.4780 C   0  0  0  0  0  2  0  0  0  0  0  0
  185.3800  174.2310  134.9740 C   0  0  0  0  0  2  0  0  0  0  0  0
  184.4990  173.2590  138.1020 F   0  0  0  0  0  0  0  0  0  0  0  0
  182.4510  172.9000  137.0080 C   0  0  0  0  0  1  0  0  0  0  0  0
  184.5490  171.8600  136.2140 C   0  0  0  0  0  1  0  0  0  0  0  0
  183.9470  173.1050  136.8390 C   0  0  0  0  0  0  0  0  0  0  0  0
  190.1780  177.7130  136.5620 O   0  0  0  0  0  0  0  0  0  0  0  0
  189.5670  177.1410  135.4150 C   0  0  0  0  0  1  0  0  0  0  0  0
  189.7300  177.6280  142.4050 N   0  0  0  0  0  2  0  0  0  0  0  0
  186.6710  178.4410  144.3960 C   0  0  0  0  0  2  0  0  0  0  0  0
  187.6940  177.4150  144.8170 C   0  0  0  0  0  0  0  0  0  0  0  0
  188.5890  177.8000  145.8280 O   0  0  0  0  0  0  0  0  0  0  0  0
  188.1420  176.3630  143.8120 C   0  0  0  0  0  2  0  0  0  0  0  0
  190.3710  176.9760  144.5950 O   0  0  0  0  0  0  0  0  0  0  0  0
  189.7980  178.1240  145.1860 C   0  0  0  0  0  2  0  0  0  0  0  0
  186.2710  177.2740  145.2940 C   0  0  0  0  0  2  0  0  0  0  0  0
  189.6060  176.6230  143.4580 C   0  0  2  0  0  3  0  0  0  0  0  0
  1  3  1  0  0  0  0
  2  4  2  0  0  0  0
  3 43  1  1  0  0  0
  4  6  1  0  0  0  0
  4  5  1  0  0  0  0
  5  3  1  0  0  0  0
  6 29  1  6  0  0  0
  6  1  1  0  0  0  0
  7 13  1  6  0  0  0
  7 14  1  0  0  0  0
  8 11  2  0  0  0  0
  9  7  1  0  0  0  0
  9 16  1  1  0  0  0
 10  9  1  0  0  0  0
 10  7  1  0  0  0  0
 11  2  1  0  0  0  0
 11 12  1  0  0  0  0
 12 15  1  0  0  0  0
 13  8  1  0  0  0  0
 14 12  2  0  0  0  0
 18 17  1  6  0  0  0
 18 16  1  0  0  0  0
 19 22  1  0  0  0  0
 19 21  1  0  0  0  0
 19 18  1  0  0  0  0
 20 22  1  0  0  0  0
 23 20  1  0  0  0  0
 23 19  1  0  0  0  0
 24 10  1  0  0  0  0
 27 25  1  1  0  0  0
 27 26  1  0  0  0  0
 27 24  1  0  0  0  0
 28 30  2  0  0  0  0
 30 29  1  0  0  0  0
 32 31  2  0  0  0  0
 32 30  1  0  0  0  0
 33 31  1  0  0  0  0
 34 33  1  0  0  0  0
 34 40  1  0  0  0  0
 35 36  1  0  0  0  0
 35 34  1  0  0  0  0
 36 34  1  0  0  0  0
 39 40  1  0  0  0  0
 40 38  1  0  0  0  0
 40 37  1  0  0  0  0
 41  2  1  0  0  0  0
 42 41  1  0  0  0  0
 44 45  1  0  0  0  0
 44 50  1  0  0  0  0
 45 50  1  0  0  0  0
 45 46  1  0  0  0  0
 47 45  1  0  0  0  0
 48 49  1  0  0  0  0
 49 46  1  0  0  0  0
 51 43  1  6  0  0  0
 51 47  1  0  0  0  0
 51 48  1  0  0  0  0
M  END
>  <MODEL>
2

>  <REMARK>
 VINA RESULT:      -6.9      1.698      2.717
  Name = 
  14 active torsions:
  status: ('A' for Active; 'I' for Inactive)
    1  A    between atoms: C_9  and  C_15
    2  A    between atoms: C_9  and  C_22
    3  A    between atoms: C_10  and  C_12
    4  A    between atoms: C_10  and  C_27
    5  A    between atoms: C_11  and  O_14
    6  A    between atoms: C_11  and  C_31
    7  A    between atoms: C_15  and  C_37
    8  A    between atoms: C_17  and  C_27
    9  A    between atoms: N_19  and  C_23
   10  A    between atoms: N_19  and  C_44
   11  A    between atoms: N_29  and  C_38
   12  A    between atoms: C_35  and  C_50
   13  A    between atoms: C_38  and  C_45
   14  A    between atoms: N_43  and  C_47
                            x       y       z     vdW  Elec       q    Type
                         _______ _______ _______ _____ _____    ______ ____

>  <TORSDO>
F 14

$$$$
=
 OpenBabel10232412203D

 51 57  0  0  1  0  0  0  0  0999 V2000
  188.2840  178.2140  140.6530 C   0  0  0  0  0  2  0  0  0  0  0  0
  190.4060  177.0650  137.8340 C   0  0  0  0  0  0  0  0  0  0  0  0
  189.0990  177.1030  141.2990 C   0  0  1  0  0  3  0  0  0  0  0  0
  189.7260  177.2650  138.9900 C   0  0  0  0  0  0  0  0  0  0  0  0
  190.1250  176.6360  140.2800 C   0  0  0  0  0  2  0  0  0  0  0  0
  188.5410  178.1520  139.1570 C   0  0  1  0  0  3  0  0  0  0  0  0
  193.7180  174.3740  137.2780 C   0  0  1  0  0  0  0  0  0  0  0  0
  191.2820  174.9020  137.1640 C   0  0  0  0  0  3  0  0  0  0  0  0
  194.8020  173.3980  137.1180 C   0  0  1  0  0  3  0  0  0  0  0  0
  194.4890  174.3580  136.0100 N   0  0  0  0  0  0  0  0  0  0  0  0
  191.4970  176.0720  137.7860 C   0  0  0  0  0  0  0  0  0  0  0  0
  192.8230  176.3850  138.3850 C   0  0  0  0  0  0  0  0  0  0  0  0
  192.3130  173.8080  137.1180 C   0  0  0  0  0  2  0  0  0  0  0  0
  193.8700  175.5860  138.1750 C   0  0  0  0  0  3  0  0  0  0  0  0
  193.0010  177.5750  139.2660 C   0  0  0  0  0  1  0  0  0  0  0  0
  196.0510  173.7260  137.9610 C   0  0  0  0  0  2  0  0  0  0  0  0
  196.8440  171.6970  136.6790 C   0  0  0  0  0  1  0  0  0  0  0  0
  197.2380  172.8120  137.6390 C   0  0  1  0  0  3  0  0  0  0  0  0
  198.4850  173.5700  137.1650 C   0  0  0  0  0  0  0  0  0  0  0  0
  200.0210  172.7400  135.9310 C   0  0  0  0  0  2  0  0  0  0  0  0
  198.5420  174.8950  137.6020 O   0  0  0  0  0  1  0  0  0  0  0  0
  199.7820  172.8340  137.4270 C   0  0  0  0  0  2  0  0  0  0  0  0
  198.7130  173.4680  135.6710 C   0  0  0  0  0  2  0  0  0  0  0  0
  195.4680  175.4470  135.9120 C   0  0  0  0  0  2  0  0  0  0  0  0
  193.5970  176.1720  134.4700 C   0  0  0  0  0  1  0  0  0  0  0  0
  195.1210  177.7510  135.3780 O   0  0  0  0  0  1  0  0  0  0  0  0
  195.0310  176.4560  134.8630 C   0  0  1  0  0  3  0  0  0  0  0  0
  187.1490  179.3370  136.8490 O   0  0  0  0  0  0  0  0  0  0  0  0
  187.3690  177.6340  138.4460 N   0  0  0  0  0  2  0  0  0  0  0  0
  186.7340  178.2400  137.3100 C   0  0  0  0  0  0  0  0  0  0  0  0
  184.7640  176.8000  137.3530 C   0  0  0  0  0  3  0  0  0  0  0  0
  185.5840  177.5950  136.6730 C   0  0  0  0  0  3  0  0  0  0  0  0
  183.6030  176.1480  136.6770 C   0  0  0  0  0  2  0  0  0  0  0  0
  182.2680  176.5650  137.2930 C   0  0  0  0  0  0  0  0  0  0  0  0
  181.1970  175.5120  137.0820 C   0  0  0  0  0  2  0  0  0  0  0  0
  181.7930  175.7320  138.4650 C   0  0  0  0  0  2  0  0  0  0  0  0
  182.6710  178.8990  137.7880 F   0  0  0  0  0  0  0  0  0  0  0  0
  181.5480  178.4440  135.7760 C   0  0  0  0  0  1  0  0  0  0  0  0
  180.4470  178.1600  137.9720 C   0  0  0  0  0  1  0  0  0  0  0  0
  181.7590  178.0230  137.2210 C   0  0  0  0  0  0  0  0  0  0  0  0
  190.1460  177.7610  136.6420 O   0  0  0  0  0  0  0  0  0  0  0  0
  189.5260  177.2080  135.4900 C   0  0  0  0  0  1  0  0  0  0  0  0
  189.7690  177.6120  142.4880 N   0  0  0  0  0  2  0  0  0  0  0  0
  186.6700  178.4680  144.3980 C   0  0  0  0  0  2  0  0  0  0  0  0
  187.6710  177.4340  144.8490 C   0  0  0  0  0  0  0  0  0  0  0  0
  188.5450  177.8150  145.8810 O   0  0  0  0  0  0  0  0  0  0  0  0
  188.1320  176.3720  143.8610 C   0  0  0  0  0  2  0  0  0  0  0  0
  190.3480  176.9650  144.6970 O   0  0  0  0  0  0  0  0  0  0  0  0
  189.7730  178.1220  145.2670 C   0  0  0  0  0  2  0  0  0  0  0  0
  186.2360  177.3110  145.2920 C   0  0  0  0  0  2  0  0  0  0  0  0
  189.6080  176.6140  143.5430 C   0  0  2  0  0  3  0  0  0  0  0  0
  1  3  1  0  0  0  0
  2  4  2  0  0  0  0
  3 43  1  1  0  0  0
  4  6  1  0  0  0  0
  4  5  1  0  0  0  0
  5  3  1  0  0  0  0
  6 29  1  6  0  0  0
  6  1  1  0  0  0  0
  7 13  1  6  0  0  0
  7 14  1  0  0  0  0
  8 11  2  0  0  0  0
  9  7  1  0  0  0  0
  9 16  1  1  0  0  0
 10  9  1  0  0  0  0
 10  7  1  0  0  0  0
 11  2  1  0  0  0  0
 11 12  1  0  0  0  0
 12 15  1  0  0  0  0
 13  8  1  0  0  0  0
 14 12  2  0  0  0  0
 18 17  1  6  0  0  0
 18 16  1  0  0  0  0
 19 22  1  0  0  0  0
 19 21  1  0  0  0  0
 19 18  1  0  0  0  0
 20 22  1  0  0  0  0
 23 20  1  0  0  0  0
 23 19  1  0  0  0  0
 24 10  1  0  0  0  0
 27 25  1  1  0  0  0
 27 26  1  0  0  0  0
 27 24  1  0  0  0  0
 28 30  2  0  0  0  0
 30 29  1  0  0  0  0
 32 30  1  0  0  0  0
 32 31  2  0  0  0  0
 33 34  1  0  0  0  0
 33 31  1  0  0  0  0
 34 36  1  0  0  0  0
 35 34  1  0  0  0  0
 35 36  1  0  0  0  0
 38 40  1  0  0  0  0
 40 34  1  0  0  0  0
 40 37  1  0  0  0  0
 40 39  1  0  0  0  0
 41  2  1  0  0  0  0
 42 41  1  0  0  0  0
 44 45  1  0  0  0  0
 44 50  1  0  0  0  0
 45 50  1  0  0  0  0
 45 46  1  0  0  0  0
 47 45  1  0  0  0  0
 48 49  1  0  0  0  0
 49 46  1  0  0  0  0
 51 43  1  6  0  0  0
 51 47  1  0  0  0  0
 51 48  1  0  0  0  0
M  END
>  <MODEL>
3

>  <REMARK>
 VINA RESULT:      -6.7      2.175      3.387
  Name = 
  14 active torsions:
  status: ('A' for Active; 'I' for Inactive)
    1  A    between atoms: C_9  and  C_15
    2  A    between atoms: C_9  and  C_22
    3  A    between atoms: C_10  and  C_12
    4  A    between atoms: C_10  and  C_27
    5  A    between atoms: C_11  and  O_14
    6  A    between atoms: C_11  and  C_31
    7  A    between atoms: C_15  and  C_37
    8  A    between atoms: C_17  and  C_27
    9  A    between atoms: N_19  and  C_23
   10  A    between atoms: N_19  and  C_44
   11  A    between atoms: N_29  and  C_38
   12  A    between atoms: C_35  and  C_50
   13  A    between atoms: C_38  and  C_45
   14  A    between atoms: N_43  and  C_47
                            x       y       z     vdW  Elec       q    Type
                         _______ _______ _______ _____ _____    ______ ____

>  <TORSDO>
F 14

$$$$
=
 OpenBabel10232412203D

 51 57  0  0  1  0  0  0  0  0999 V2000
  189.2500  178.0480  139.7700 C   0  0  0  0  0  2  0  0  0  0  0  0
  190.4130  176.7550  136.4920 C   0  0  0  0  0  0  0  0  0  0  0  0
  190.2810  177.0080  140.1850 C   0  0  1  0  0  3  0  0  0  0  0  0
  190.1290  177.0200  137.7910 C   0  0  0  0  0  0  0  0  0  0  0  0
  190.9480  176.4950  138.9190 C   0  0  0  0  0  2  0  0  0  0  0  0
  189.0180  177.8850  138.2770 C   0  0  1  0  0  3  0  0  0  0  0  0
  193.7360  174.0820  135.9130 C   0  0  1  0  0  0  0  0  0  0  0  0
  192.5280  176.2120  135.4320 C   0  0  0  0  0  3  0  0  0  0  0  0
  194.8640  173.1860  135.6380 C   0  0  1  0  0  3  0  0  0  0  0  0
  194.9290  174.1400  136.7930 N   0  0  0  0  0  0  0  0  0  0  0  0
  191.4780  175.7900  136.1550 C   0  0  0  0  0  0  0  0  0  0  0  0
  191.4020  174.3870  136.6440 C   0  0  0  0  0  0  0  0  0  0  0  0
  193.6280  175.2870  134.9880 C   0  0  0  0  0  2  0  0  0  0  0  0
  192.4450  173.5650  136.5170 C   0  0  0  0  0  3  0  0  0  0  0  0
  190.1460  173.8560  137.2470 C   0  0  0  0  0  1  0  0  0  0  0  0
  194.5800  171.7130  135.9960 C   0  0  0  0  0  2  0  0  0  0  0  0
  196.8190  171.4950  134.8450 C   0  0  0  0  0  1  0  0  0  0  0  0
  195.7630  170.7900  135.6850 C   0  0  1  0  0  3  0  0  0  0  0  0
  196.3640  170.1240  136.9300 C   0  0  0  0  0  0  0  0  0  0  0  0
  195.6200  168.3350  137.8340 C   0  0  0  0  0  2  0  0  0  0  0  0
  197.4800  170.7870  137.4420 O   0  0  0  0  0  1  0  0  0  0  0  0
  195.3460  169.8180  138.0080 C   0  0  0  0  0  2  0  0  0  0  0  0
  196.6320  168.6450  136.7440 C   0  0  0  0  0  2  0  0  0  0  0  0
  194.7300  173.4750  138.0870 C   0  0  0  0  0  2  0  0  0  0  0  0
  197.0960  174.0970  138.4340 C   0  0  0  0  0  1  0  0  0  0  0  0
  195.3540  175.2340  139.5790 O   0  0  0  0  0  1  0  0  0  0  0  0
  195.7410  173.9810  139.1010 C   0  0  1  0  0  3  0  0  0  0  0  0
  186.8170  178.9800  136.6570 O   0  0  0  0  0  0  0  0  0  0  0  0
  187.7060  177.2870  138.0140 N   0  0  0  0  0  2  0  0  0  0  0  0
  186.6680  177.8520  137.1990 C   0  0  0  0  0  0  0  0  0  0  0  0
  184.4300  177.1660  137.8870 C   0  0  0  0  0  3  0  0  0  0  0  0
  185.4120  177.1290  136.9930 C   0  0  0  0  0  3  0  0  0  0  0  0
  183.1610  176.4110  137.6550 C   0  0  0  0  0  2  0  0  0  0  0  0
  182.1410  177.2270  136.8620 C   0  0  0  0  0  0  0  0  0  0  0  0
  182.4500  177.2240  135.3770 C   0  0  0  0  0  2  0  0  0  0  0  0
  181.2600  176.4400  135.9140 C   0  0  0  0  0  2  0  0  0  0  0  0
  182.5750  179.3450  137.9510 F   0  0  0  0  0  0  0  0  0  0  0  0
  180.9280  179.3570  136.2750 C   0  0  0  0  0  1  0  0  0  0  0  0
  180.5370  178.2970  138.4750 C   0  0  0  0  0  1  0  0  0  0  0  0
  181.5730  178.5610  137.3980 C   0  0  0  0  0  0  0  0  0  0  0  0
  189.7520  177.3570  135.4070 O   0  0  0  0  0  0  0  0  0  0  0  0
  188.8990  176.6840  134.4930 C   0  0  0  0  0  1  0  0  0  0  0  0
  191.2700  177.6180  141.0620 N   0  0  0  0  0  2  0  0  0  0  0  0
  188.0320  177.8090  142.9230 C   0  0  0  0  0  2  0  0  0  0  0  0
  189.2820  177.1750  143.4820 C   0  0  0  0  0  0  0  0  0  0  0  0
  189.9970  177.9270  144.4280 O   0  0  0  0  0  0  0  0  0  0  0  0
  190.0390  176.1630  142.6350 C   0  0  0  0  0  2  0  0  0  0  0  0
  191.9820  177.4730  143.3210 O   0  0  0  0  0  0  0  0  0  0  0  0
  191.0940  178.4850  143.7460 C   0  0  0  0  0  2  0  0  0  0  0  0
  187.9360  176.7100  143.9770 C   0  0  0  0  0  2  0  0  0  0  0  0
  191.3880  176.7700  142.2460 C   0  0  2  0  0  3  0  0  0  0  0  0
  1  3  1  0  0  0  0
  2  4  2  0  0  0  0
  3 43  1  1  0  0  0
  4  6  1  0  0  0  0
  4  5  1  0  0  0  0
  5  3  1  0  0  0  0
  6 29  1  1  0  0  0
  6  1  1  0  0  0  0
  7 13  1  6  0  0  0
  7 14  1  0  0  0  0
  7 10  1  0  0  0  0
  8 11  2  0  0  0  0
  9  7  1  0  0  0  0
  9 16  1  1  0  0  0
  9 10  1  0  0  0  0
 10 24  1  0  0  0  0
 11  2  1  0  0  0  0
 11 12  1  0  0  0  0
 12 15  1  0  0  0  0
 13  8  1  0  0  0  0
 14 12  2  0  0  0  0
 18 17  1  1  0  0  0
 18 16  1  0  0  0  0
 18 19  1  0  0  0  0
 19 21  1  0  0  0  0
 19 22  1  0  0  0  0
 20 22  1  0  0  0  0
 23 19  1  0  0  0  0
 23 20  1  0  0  0  0
 24 27  1  0  0  0  0
 27 25  1  6  0  0  0
 27 26  1  0  0  0  0
 28 30  2  0  0  0  0
 30 29  1  0  0  0  0
 32 30  1  0  0  0  0
 32 31  2  0  0  0  0
 33 31  1  0  0  0  0
 34 40  1  0  0  0  0
 34 33  1  0  0  0  0
 35 36  1  0  0  0  0
 35 34  1  0  0  0  0
 36 34  1  0  0  0  0
 38 40  1  0  0  0  0
 40 37  1  0  0  0  0
 40 39  1  0  0  0  0
 41  2  1  0  0  0  0
 42 41  1  0  0  0  0
 44 45  1  0  0  0  0
 44 50  1  0  0  0  0
 45 50  1  0  0  0  0
 45 46  1  0  0  0  0
 47 45  1  0  0  0  0
 48 49  1  0  0  0  0
 49 46  1  0  0  0  0
 51 43  1  6  0  0  0
 51 47  1  0  0  0  0
 51 48  1  0  0  0  0
M  END
>  <MODEL>
4

>  <REMARK>
 VINA RESULT:      -6.3      1.643      2.255
  Name = 
  14 active torsions:
  status: ('A' for Active; 'I' for Inactive)
    1  A    between atoms: C_9  and  C_15
    2  A    between atoms: C_9  and  C_22
    3  A    between atoms: C_10  and  C_12
    4  A    between atoms: C_10  and  C_27
    5  A    between atoms: C_11  and  O_14
    6  A    between atoms: C_11  and  C_31
    7  A    between atoms: C_15  and  C_37
    8  A    between atoms: C_17  and  C_27
    9  A    between atoms: N_19  and  C_23
   10  A    between atoms: N_19  and  C_44
   11  A    between atoms: N_29  and  C_38
   12  A    between atoms: C_35  and  C_50
   13  A    between atoms: C_38  and  C_45
   14  A    between atoms: N_43  and  C_47
                            x       y       z     vdW  Elec       q    Type
                         _______ _______ _______ _____ _____    ______ ____

>  <TORSDO>
F 14

$$$$
=
 OpenBabel10232412203D

 51 57  0  0  1  0  0  0  0  0999 V2000
  189.6480  176.5430  136.4100 C   0  0  0  0  0  2  0  0  0  0  0  0
  190.4240  177.1540  139.9860 C   0  0  0  0  0  0  0  0  0  0  0  0
  188.3300  176.1970  137.0860 C   0  0  1  0  0  3  0  0  0  0  0  0
  189.9130  176.8200  138.7760 C   0  0  0  0  0  0  0  0  0  0  0  0
  188.4660  176.5450  138.5590 C   0  0  0  0  0  2  0  0  0  0  0  0
  190.6850  176.7230  137.5060 C   0  0  1  0  0  3  0  0  0  0  0  0
  188.3200  177.0820  143.7400 C   0  0  1  0  0  0  0  0  0  0  0  0
  189.3720  175.9240  141.7960 C   0  0  0  0  0  3  0  0  0  0  0  0
  187.5560  176.9990  144.9900 C   0  0  1  0  0  3  0  0  0  0  0  0
  189.0520  177.0840  145.0300 N   0  0  0  0  0  0  0  0  0  0  0  0
  189.5650  177.1040  141.1860 C   0  0  0  0  0  0  0  0  0  0  0  0
  188.9600  178.3510  141.7270 C   0  0  0  0  0  0  0  0  0  0  0  0
  188.4650  175.7670  142.9850 C   0  0  0  0  0  2  0  0  0  0  0  0
  188.3510  178.3520  142.9140 C   0  0  0  0  0  3  0  0  0  0  0  0
  188.9820  179.6160  140.9370 C   0  0  0  0  0  1  0  0  0  0  0  0
  186.7980  178.2980  145.3320 C   0  0  0  0  0  2  0  0  0  0  0  0
  184.5210  178.3750  146.4250 C   0  0  0  0  0  1  0  0  0  0  0  0
  185.2850  178.1720  145.1240 C   0  0  1  0  0  3  0  0  0  0  0  0
  184.7460  179.0560  143.9920 C   0  0  0  0  0  0  0  0  0  0  0  0
  183.3720  178.4090  142.4880 C   0  0  0  0  0  2  0  0  0  0  0  0
  185.2250  180.3670  144.0220 O   0  0  0  0  0  1  0  0  0  0  0  0
  184.8840  178.4370  142.6170 C   0  0  0  0  0  2  0  0  0  0  0  0
  183.2370  179.0190  143.8720 C   0  0  0  0  0  2  0  0  0  0  0  0
  189.5330  178.4150  145.4220 C   0  0  0  0  0  2  0  0  0  0  0  0
  191.6010  177.1230  145.0290 C   0  0  0  0  0  1  0  0  0  0  0  0
  191.3180  179.2880  144.0950 O   0  0  0  0  0  1  0  0  0  0  0  0
  191.0360  178.5140  145.2220 C   0  0  1  0  0  3  0  0  0  0  0  0
  193.6240  176.8220  137.6580 O   0  0  0  0  0  0  0  0  0  0  0  0
  191.6260  175.6000  137.5240 N   0  0  0  0  0  2  0  0  0  0  0  0
  193.0560  175.6970  137.6180 C   0  0  0  0  0  0  0  0  0  0  0  0
  194.9840  174.4180  138.3950 C   0  0  0  0  0  3  0  0  0  0  0  0
  193.8790  174.4870  137.6600 C   0  0  0  0  0  3  0  0  0  0  0  0
  195.8100  173.1740  138.4120 C   0  0  0  0  0  2  0  0  0  0  0  0
  197.0920  173.3210  137.5940 C   0  0  0  0  0  0  0  0  0  0  0  0
  197.2130  174.7030  136.9830 C   0  0  0  0  0  2  0  0  0  0  0  0
  198.1140  174.2970  138.1410 C   0  0  0  0  0  2  0  0  0  0  0  0
  197.0870  170.9550  137.0860 F   0  0  0  0  0  0  0  0  0  0  0  0
  197.2580  172.4110  135.2500 C   0  0  0  0  0  1  0  0  0  0  0  0
  199.1360  172.0770  136.8240 C   0  0  0  0  0  1  0  0  0  0  0  0
  197.6260  172.1750  136.7060 C   0  0  0  0  0  0  0  0  0  0  0  0
  191.7530  177.5650  140.1900 O   0  0  0  0  0  0  0  0  0  0  0  0
  192.5100  177.3320  141.3680 C   0  0  0  0  0  1  0  0  0  0  0  0
  187.2510  176.9680  136.4860 N   0  0  0  0  0  2  0  0  0  0  0  0
  183.5530  177.4720  136.7240 C   0  0  0  0  0  2  0  0  0  0  0  0
  184.1970  176.3870  135.8970 C   0  0  0  0  0  0  0  0  0  0  0  0
  184.1660  175.0890  136.4320 O   0  0  0  0  0  0  0  0  0  0  0  0
  185.3290  176.7560  134.9480 C   0  0  0  0  0  2  0  0  0  0  0  0
  186.4170  174.8120  135.9480 O   0  0  0  0  0  0  0  0  0  0  0  0
  185.4440  174.8510  136.9710 C   0  0  0  0  0  2  0  0  0  0  0  0
  182.8400  176.9070  135.4990 C   0  0  0  0  0  2  0  0  0  0  0  0
  186.6220  176.1270  135.4700 C   0  0  2  0  0  3  0  0  0  0  0  0
  1  3  1  0  0  0  0
  1  6  1  0  0  0  0
  2 41  1  0  0  0  0
  2 11  1  0  0  0  0
  3 43  1  6  0  0  0
  3  5  1  0  0  0  0
  4  2  2  0  0  0  0
  5  4  1  0  0  0  0
  6 29  1  1  0  0  0
  6  4  1  0  0  0  0
  7 14  1  6  0  0  0
  7  9  1  0  0  0  0
  7 10  1  0  0  0  0
  8 13  1  0  0  0  0
  9 10  1  0  0  0  0
  9 16  1  1  0  0  0
 10 24  1  0  0  0  0
 11 12  1  0  0  0  0
 11  8  2  0  0  0  0
 12 14  2  0  0  0  0
 13  7  1  0  0  0  0
 15 12  1  0  0  0  0
 18 16  1  0  0  0  0
 18 17  1  1  0  0  0
 19 21  1  0  0  0  0
 19 18  1  0  0  0  0
 20 22  1  0  0  0  0
 20 23  1  0  0  0  0
 22 19  1  0  0  0  0
 23 19  1  0  0  0  0
 26 27  1  0  0  0  0
 27 25  1  6  0  0  0
 27 24  1  0  0  0  0
 29 30  1  0  0  0  0
 30 28  2  0  0  0  0
 30 32  1  0  0  0  0
 31 33  1  0  0  0  0
 32 31  2  0  0  0  0
 34 36  1  0  0  0  0
 34 33  1  0  0  0  0
 35 34  1  0  0  0  0
 35 36  1  0  0  0  0
 38 40  1  0  0  0  0
 40 39  1  0  0  0  0
 40 37  1  0  0  0  0
 40 34  1  0  0  0  0
 41 42  1  0  0  0  0
 45 46  1  0  0  0  0
 45 44  1  0  0  0  0
 46 49  1  0  0  0  0
 47 51  1  0  0  0  0
 47 45  1  0  0  0  0
 48 49  1  0  0  0  0
 50 45  1  0  0  0  0
 50 44  1  0  0  0  0
 51 48  1  0  0  0  0
 51 43  1  1  0  0  0
M  END
>  <MODEL>
5

>  <REMARK>
 VINA RESULT:      -6.1      3.106     10.695
  Name = 
  14 active torsions:
  status: ('A' for Active; 'I' for Inactive)
    1  A    between atoms: C_9  and  C_15
    2  A    between atoms: C_9  and  C_22
    3  A    between atoms: C_10  and  C_12
    4  A    between atoms: C_10  and  C_27
    5  A    between atoms: C_11  and  O_14
    6  A    between atoms: C_11  and  C_31
    7  A    between atoms: C_15  and  C_37
    8  A    between atoms: C_17  and  C_27
    9  A    between atoms: N_19  and  C_23
   10  A    between atoms: N_19  and  C_44
   11  A    between atoms: N_29  and  C_38
   12  A    between atoms: C_35  and  C_50
   13  A    between atoms: C_38  and  C_45
   14  A    between atoms: N_43  and  C_47
                            x       y       z     vdW  Elec       q    Type
                         _______ _______ _______ _____ _____    ______ ____

>  <TORSDO>
F 14

$$$$
=
 OpenBabel10232412203D

 51 57  0  0  1  0  0  0  0  0999 V2000
  190.5910  175.5270  135.9120 C   0  0  0  0  0  2  0  0  0  0  0  0
  191.1160  176.7700  139.3680 C   0  0  0  0  0  0  0  0  0  0  0  0
  189.3740  174.9730  136.6380 C   0  0  1  0  0  3  0  0  0  0  0  0
  190.7270  176.1690  138.2170 C   0  0  0  0  0  0  0  0  0  0  0  0
  189.3890  175.5360  138.0490 C   0  0  0  0  0  2  0  0  0  0  0  0
  191.5310  176.0880  136.9650 C   0  0  1  0  0  3  0  0  0  0  0  0
  188.9770  176.7470  143.1020 C   0  0  1  0  0  0  0  0  0  0  0  0
  190.4160  175.6330  141.3950 C   0  0  0  0  0  3  0  0  0  0  0  0
  188.2230  176.6650  144.3580 C   0  0  1  0  0  3  0  0  0  0  0  0
  189.6170  177.2150  144.3560 N   0  0  0  0  0  0  0  0  0  0  0  0
  190.2630  176.6800  140.5690 C   0  0  0  0  0  0  0  0  0  0  0  0
  189.2810  177.7560  140.8740 C   0  0  0  0  0  0  0  0  0  0  0  0
  189.5510  175.4250  142.6070 C   0  0  0  0  0  2  0  0  0  0  0  0
  188.6520  177.7880  142.0500 C   0  0  0  0  0  3  0  0  0  0  0  0
  188.9480  178.7960  139.8590 C   0  0  0  0  0  1  0  0  0  0  0  0
  187.0880  177.7050  144.4600 C   0  0  0  0  0  2  0  0  0  0  0  0
  187.3780  177.6100  146.9690 C   0  0  0  0  0  1  0  0  0  0  0  0
  186.3820  177.6770  145.8200 C   0  0  1  0  0  3  0  0  0  0  0  0
  185.3620  178.8080  146.0040 C   0  0  0  0  0  0  0  0  0  0  0  0
  183.6830  179.1570  144.7260 C   0  0  0  0  0  2  0  0  0  0  0  0
  185.6100  179.6180  147.1130 O   0  0  0  0  0  1  0  0  0  0  0  0
  185.1270  179.6260  144.7510 C   0  0  0  0  0  2  0  0  0  0  0  0
  183.9270  178.3290  145.9760 C   0  0  0  0  0  2  0  0  0  0  0  0
  189.6480  178.6780  144.4800 C   0  0  0  0  0  2  0  0  0  0  0  0
  191.9780  178.1120  143.8840 C   0  0  0  0  0  1  0  0  0  0  0  0
  191.1840  180.3440  143.7220 O   0  0  0  0  0  1  0  0  0  0  0  0
  191.0830  179.1770  144.4820 C   0  0  1  0  0  3  0  0  0  0  0  0
  194.3530  176.7670  136.4730 O   0  0  0  0  0  0  0  0  0  0  0  0
  192.7070  175.2300  137.1270 N   0  0  0  0  0  2  0  0  0  0  0  0
  194.0710  175.6120  136.8920 C   0  0  0  0  0  0  0  0  0  0  0  0
  194.9820  173.5670  137.8630 C   0  0  0  0  0  3  0  0  0  0  0  0
  195.1580  174.6590  137.1270 C   0  0  0  0  0  3  0  0  0  0  0  0
  196.1110  172.6150  138.0930 C   0  0  0  0  0  2  0  0  0  0  0  0
  196.0310  171.3930  137.1790 C   0  0  0  0  0  0  0  0  0  0  0  0
  195.6320  170.1450  137.9440 C   0  0  0  0  0  2  0  0  0  0  0  0
  194.6480  170.8040  136.9860 C   0  0  0  0  0  2  0  0  0  0  0  0
  197.7100  169.9430  136.2130 F   0  0  0  0  0  0  0  0  0  0  0  0
  196.3630  171.1270  134.6960 C   0  0  0  0  0  1  0  0  0  0  0  0
  198.1020  172.2550  136.0450 C   0  0  0  0  0  1  0  0  0  0  0  0
  197.0560  171.1540  136.0480 C   0  0  0  0  0  0  0  0  0  0  0  0
  192.3060  177.5050  139.5040 O   0  0  0  0  0  0  0  0  0  0  0  0
  193.4720  177.0570  140.1800 C   0  0  0  0  0  1  0  0  0  0  0  0
  188.1600  175.3840  135.9480 N   0  0  0  0  0  2  0  0  0  0  0  0
  184.6320  175.9900  134.8660 C   0  0  0  0  0  2  0  0  0  0  0  0
  185.4850  177.0270  135.5550 C   0  0  0  0  0  0  0  0  0  0  0  0
  186.0250  178.0360  134.7410 O   0  0  0  0  0  0  0  0  0  0  0  0
  186.2270  176.6450  136.8280 C   0  0  0  0  0  2  0  0  0  0  0  0
  188.1040  177.7460  135.7230 O   0  0  0  0  0  0  0  0  0  0  0  0
  187.3700  177.6900  134.5180 C   0  0  0  0  0  2  0  0  0  0  0  0
  183.9850  177.1000  135.6900 C   0  0  0  0  0  2  0  0  0  0  0  0
  187.7270  176.6500  136.5340 C   0  0  2  0  0  3  0  0  0  0  0  0
  1  3  1  0  0  0  0
  1  6  1  0  0  0  0
  2 41  1  0  0  0  0
  2 11  1  0  0  0  0
  3 43  1  6  0  0  0
  3  5  1  0  0  0  0
  4  2  2  0  0  0  0
  5  4  1  0  0  0  0
  6 29  1  1  0  0  0
  6  4  1  0  0  0  0
  7 14  1  6  0  0  0
  7 10  1  0  0  0  0
  7  9  1  0  0  0  0
  8 13  1  0  0  0  0
  9 16  1  6  0  0  0
 10  9  1  0  0  0  0
 10 24  1  0  0  0  0
 11 12  1  0  0  0  0
 11  8  2  0  0  0  0
 12 14  2  0  0  0  0
 13  7  1  0  0  0  0
 15 12  1  0  0  0  0
 16 18  1  0  0  0  0
 18 19  1  0  0  0  0
 18 17  1  1  0  0  0
 19 21  1  0  0  0  0
 20 22  1  0  0  0  0
 20 23  1  0  0  0  0
 22 19  1  0  0  0  0
 23 19  1  0  0  0  0
 24 27  1  0  0  0  0
 26 27  1  0  0  0  0
 27 25  1  6  0  0  0
 28 30  2  0  0  0  0
 30 32  1  0  0  0  0
 30 29  1  0  0  0  0
 31 33  1  0  0  0  0
 32 31  2  0  0  0  0
 34 35  1  0  0  0  0
 34 33  1  0  0  0  0
 36 34  1  0  0  0  0
 36 35  1  0  0  0  0
 38 40  1  0  0  0  0
 39 40  1  0  0  0  0
 40 37  1  0  0  0  0
 40 34  1  0  0  0  0
 41 42  1  0  0  0  0
 44 45  1  0  0  0  0
 44 50  1  0  0  0  0
 45 50  1  0  0  0  0
 45 47  1  0  0  0  0
 46 45  1  0  0  0  0
 48 51  1  0  0  0  0
 49 46  1  0  0  0  0
 49 48  1  0  0  0  0
 51 43  1  6  0  0  0
 51 47  1  0  0  0  0
M  END
>  <MODEL>
6

>  <REMARK>
 VINA RESULT:      -6.0      3.014     10.421
  Name = 
  14 active torsions:
  status: ('A' for Active; 'I' for Inactive)
    1  A    between atoms: C_9  and  C_15
    2  A    between atoms: C_9  and  C_22
    3  A    between atoms: C_10  and  C_12
    4  A    between atoms: C_10  and  C_27
    5  A    between atoms: C_11  and  O_14
    6  A    between atoms: C_11  and  C_31
    7  A    between atoms: C_15  and  C_37
    8  A    between atoms: C_17  and  C_27
    9  A    between atoms: N_19  and  C_23
   10  A    between atoms: N_19  and  C_44
   11  A    between atoms: N_29  and  C_38
   12  A    between atoms: C_35  and  C_50
   13  A    between atoms: C_38  and  C_45
   14  A    between atoms: N_43  and  C_47
                            x       y       z     vdW  Elec       q    Type
                         _______ _______ _______ _____ _____    ______ ____

>  <TORSDO>
F 14

$$$$
=
 OpenBabel10232412203D

 51 57  0  0  1  0  0  0  0  0999 V2000
  190.1680  176.9930  136.9930 C   0  0  0  0  0  2  0  0  0  0  0  0
  190.5580  177.2330  140.6750 C   0  0  0  0  0  0  0  0  0  0  0  0
  188.7580  176.6970  137.4840 C   0  0  1  0  0  3  0  0  0  0  0  0
  190.1710  177.0460  139.3890 C   0  0  0  0  0  0  0  0  0  0  0  0
  188.7430  176.9060  138.9880 C   0  0  0  0  0  2  0  0  0  0  0  0
  191.0780  176.9960  138.2090 C   0  0  1  0  0  3  0  0  0  0  0  0
  188.0250  177.0390  144.1490 C   0  0  1  0  0  0  0  0  0  0  0  0
  189.2700  175.9480  142.2810 C   0  0  0  0  0  3  0  0  0  0  0  0
  187.1170  176.9170  145.2950 C   0  0  1  0  0  3  0  0  0  0  0  0
  188.6000  176.9550  145.5140 N   0  0  0  0  0  0  0  0  0  0  0  0
  189.5630  177.1510  141.7620 C   0  0  0  0  0  0  0  0  0  0  0  0
  188.9290  178.3870  142.2940 C   0  0  0  0  0  0  0  0  0  0  0  0
  188.2250  175.7590  143.3470 C   0  0  0  0  0  2  0  0  0  0  0  0
  188.1850  178.3470  143.4000 C   0  0  0  0  0  3  0  0  0  0  0  0
  189.0760  179.6880  141.5810 C   0  0  0  0  0  1  0  0  0  0  0  0
  186.3560  178.2210  145.6150 C   0  0  0  0  0  2  0  0  0  0  0  0
  183.9500  178.4760  146.3430 C   0  0  0  0  0  1  0  0  0  0  0  0
  184.8870  178.1680  145.1830 C   0  0  1  0  0  3  0  0  0  0  0  0
  184.5800  179.0270  143.9490 C   0  0  0  0  0  0  0  0  0  0  0  0
  183.3390  178.4180  142.3180 C   0  0  0  0  0  2  0  0  0  0  0  0
  185.1810  180.2870  143.9730 O   0  0  0  0  0  1  0  0  0  0  0  0
  184.8200  178.3120  142.6360 C   0  0  0  0  0  2  0  0  0  0  0  0
  183.1010  179.1230  143.6420 C   0  0  0  0  0  2  0  0  0  0  0  0
  189.0630  178.2490  146.0290 C   0  0  0  0  0  2  0  0  0  0  0  0
  188.8040  178.1590  148.4850 C   0  0  0  0  0  1  0  0  0  0  0  0
  190.4110  176.8070  147.3760 O   0  0  0  0  0  1  0  0  0  0  0  0
  189.7970  178.0600  147.3460 C   0  0  1  0  0  3  0  0  0  0  0  0
  193.8870  176.7630  137.3590 O   0  0  0  0  0  0  0  0  0  0  0  0
  191.9310  175.8040  138.2260 N   0  0  0  0  0  2  0  0  0  0  0  0
  193.3060  175.7430  137.8170 C   0  0  0  0  0  0  0  0  0  0  0  0
  195.3660  174.4390  137.7220 C   0  0  0  0  0  3  0  0  0  0  0  0
  194.0530  174.4880  137.9180 C   0  0  0  0  0  3  0  0  0  0  0  0
  196.1030  173.1440  137.8230 C   0  0  0  0  0  2  0  0  0  0  0  0
  196.5290  172.6140  136.4540 C   0  0  0  0  0  0  0  0  0  0  0  0
  195.6210  171.4960  135.9770 C   0  0  0  0  0  2  0  0  0  0  0  0
  195.5590  172.8670  135.3180 C   0  0  0  0  0  2  0  0  0  0  0  0
  198.4170  173.4050  135.1650 F   0  0  0  0  0  0  0  0  0  0  0  0
  198.9000  172.5690  137.3070 C   0  0  0  0  0  1  0  0  0  0  0  0
  198.2440  171.0770  135.4460 C   0  0  0  0  0  1  0  0  0  0  0  0
  198.0170  172.4400  136.0760 C   0  0  0  0  0  0  0  0  0  0  0  0
  191.8790  177.5190  141.0620 O   0  0  0  0  0  0  0  0  0  0  0  0
  192.3140  177.7230  142.3980 C   0  0  0  0  0  1  0  0  0  0  0  0
  187.8130  177.6000  136.8420 N   0  0  0  0  0  2  0  0  0  0  0  0
  187.7360  174.7760  134.3920 C   0  0  0  0  0  2  0  0  0  0  0  0
  186.5120  175.2990  135.1030 C   0  0  0  0  0  0  0  0  0  0  0  0
  185.6540  176.1200  134.3520 O   0  0  0  0  0  0  0  0  0  0  0  0
  186.5580  175.4840  136.6130 C   0  0  0  0  0  2  0  0  0  0  0  0
  185.5620  177.6510  136.0900 O   0  0  0  0  0  0  0  0  0  0  0  0
  185.9280  177.4440  134.7420 C   0  0  0  0  0  2  0  0  0  0  0  0
  186.5350  173.8660  134.6360 C   0  0  0  0  0  2  0  0  0  0  0  0
  186.4920  176.9810  136.9200 C   0  0  2  0  0  3  0  0  0  0  0  0
  1  3  1  0  0  0  0
  1  6  1  0  0  0  0
  2 41  1  0  0  0  0
  2 11  1  0  0  0  0
  3 43  1  6  0  0  0
  3  5  1  0  0  0  0
  4  2  2  0  0  0  0
  5  4  1  0  0  0  0
  6 29  1  1  0  0  0
  6  4  1  0  0  0  0
  7 13  1  6  0  0  0
  7  9  1  0  0  0  0
  7 10  1  0  0  0  0
  8 13  1  0  0  0  0
  9 10  1  0  0  0  0
  9 16  1  1  0  0  0
 10 24  1  0  0  0  0
 11  8  2  0  0  0  0
 11 12  1  0  0  0  0
 12 14  2  0  0  0  0
 14  7  1  0  0  0  0
 15 12  1  0  0  0  0
 18 16  1  0  0  0  0
 18 17  1  1  0  0  0
 19 21  1  0  0  0  0
 19 18  1  0  0  0  0
 20 22  1  0  0  0  0
 20 23  1  0  0  0  0
 22 19  1  0  0  0  0
 23 19  1  0  0  0  0
 24 27  1  0  0  0  0
 27 26  1  0  0  0  0
 27 25  1  1  0  0  0
 28 30  2  0  0  0  0
 30 32  1  0  0  0  0
 30 29  1  0  0  0  0
 31 33  1  0  0  0  0
 31 32  2  0  0  0  0
 34 33  1  0  0  0  0
 35 34  1  0  0  0  0
 36 35  1  0  0  0  0
 36 34  1  0  0  0  0
 37 40  1  0  0  0  0
 39 40  1  0  0  0  0
 40 34  1  0  0  0  0
 40 38  1  0  0  0  0
 41 42  1  0  0  0  0
 44 50  1  0  0  0  0
 44 45  1  0  0  0  0
 45 47  1  0  0  0  0
 46 49  1  0  0  0  0
 46 45  1  0  0  0  0
 47 51  1  0  0  0  0
 48 51  1  0  0  0  0
 49 48  1  0  0  0  0
 50 45  1  0  0  0  0
 51 43  1  6  0  0  0
M  END
>  <MODEL>
7

>  <REMARK>
 VINA RESULT:      -5.9      3.330     10.956
  Name = 
  14 active torsions:
  status: ('A' for Active; 'I' for Inactive)
    1  A    between atoms: C_9  and  C_15
    2  A    between atoms: C_9  and  C_22
    3  A    between atoms: C_10  and  C_12
    4  A    between atoms: C_10  and  C_27
    5  A    between atoms: C_11  and  O_14
    6  A    between atoms: C_11  and  C_31
    7  A    between atoms: C_15  and  C_37
    8  A    between atoms: C_17  and  C_27
    9  A    between atoms: N_19  and  C_23
   10  A    between atoms: N_19  and  C_44
   11  A    between atoms: N_29  and  C_38
   12  A    between atoms: C_35  and  C_50
   13  A    between atoms: C_38  and  C_45
   14  A    between atoms: N_43  and  C_47
                            x       y       z     vdW  Elec       q    Type
                         _______ _______ _______ _____ _____    ______ ____

>  <TORSDO>
F 14

$$$$
=
 OpenBabel10232412203D

 51 57  0  0  1  0  0  0  0  0999 V2000
  188.1120  178.2510  141.4610 C   0  0  0  0  0  2  0  0  0  0  0  0
  190.0010  177.3300  138.4040 C   0  0  0  0  0  0  0  0  0  0  0  0
  188.6910  176.8950  141.8400 C   0  0  1  0  0  3  0  0  0  0  0  0
  189.3610  177.4110  139.5960 C   0  0  0  0  0  0  0  0  0  0  0  0
  189.6170  176.4630  140.7160 C   0  0  0  0  0  2  0  0  0  0  0  0
  188.3670  178.4530  139.9780 C   0  0  1  0  0  3  0  0  0  0  0  0
  192.6610  174.1870  137.1520 C   0  0  1  0  0  0  0  0  0  0  0  0
  190.3680  175.1150  137.4820 C   0  0  0  0  0  3  0  0  0  0  0  0
  193.5190  173.0640  136.7590 C   0  0  1  0  0  3  0  0  0  0  0  0
  193.2060  174.1480  135.7720 N   0  0  0  0  0  0  0  0  0  0  0  0
  190.8800  176.1800  138.1190 C   0  0  0  0  0  0  0  0  0  0  0  0
  192.3190  176.2230  138.4980 C   0  0  0  0  0  0  0  0  0  0  0  0
  191.1720  173.8740  137.2050 C   0  0  0  0  0  2  0  0  0  0  0  0
  193.1630  175.2820  138.0720 C   0  0  0  0  0  3  0  0  0  0  0  0
  192.8390  177.2930  139.3970 C   0  0  0  0  0  1  0  0  0  0  0  0
  194.9240  173.1150  137.3930 C   0  0  0  0  0  2  0  0  0  0  0  0
  194.6690  170.6310  136.9990 C   0  0  0  0  0  1  0  0  0  0  0  0
  195.6230  171.7510  137.3920 C   0  0  1  0  0  3  0  0  0  0  0  0
  196.9160  171.7250  136.5670 C   0  0  0  0  0  0  0  0  0  0  0  0
  198.8530  172.2300  137.3180 C   0  0  0  0  0  2  0  0  0  0  0  0
  196.7340  171.3220  135.2430 O   0  0  0  0  0  1  0  0  0  0  0  0
  197.7240  173.0030  136.6610 C   0  0  0  0  0  2  0  0  0  0  0  0
  198.0340  170.9530  137.2340 C   0  0  0  0  0  2  0  0  0  0  0  0
  194.3320  175.0670  135.5660 C   0  0  0  0  0  2  0  0  0  0  0  0
  192.4850  176.2050  134.3840 C   0  0  0  0  0  1  0  0  0  0  0  0
  194.5280  177.3310  134.8280 O   0  0  0  0  0  1  0  0  0  0  0  0
  193.9910  176.0880  134.4930 C   0  0  1  0  0  3  0  0  0  0  0  0
  185.6740  179.3780  140.7260 O   0  0  0  0  0  0  0  0  0  0  0  0
  187.1240  178.3280  139.2120 N   0  0  0  0  0  2  0  0  0  0  0  0
  185.8330  178.8130  139.6110 C   0  0  0  0  0  0  0  0  0  0  0  0
  183.8410  177.6240  138.8560 C   0  0  0  0  0  3  0  0  0  0  0  0
  184.6760  178.6500  138.7290 C   0  0  0  0  0  3  0  0  0  0  0  0
  182.6720  177.4760  137.9370 C   0  0  0  0  0  2  0  0  0  0  0  0
  181.8850  176.1950  138.2060 C   0  0  0  0  0  0  0  0  0  0  0  0
  181.9260  175.8070  139.6720 C   0  0  0  0  0  2  0  0  0  0  0  0
  180.6430  176.3510  139.0600 C   0  0  0  0  0  2  0  0  0  0  0  0
  181.0530  173.9940  137.6390 F   0  0  0  0  0  0  0  0  0  0  0  0
  181.4750  175.4420  135.8370 C   0  0  0  0  0  1  0  0  0  0  0  0
  183.3110  174.4200  137.1410 C   0  0  0  0  0  1  0  0  0  0  0  0
  181.9110  175.0020  137.2250 C   0  0  0  0  0  0  0  0  0  0  0  0
  189.8920  178.2960  137.3880 O   0  0  0  0  0  0  0  0  0  0  0  0
  188.9700  178.2490  136.3100 C   0  0  0  0  0  1  0  0  0  0  0  0
  189.4330  177.0080  143.0870 N   0  0  0  0  0  2  0  0  0  0  0  0
  190.0570  176.4190  146.7260 C   0  0  0  0  0  2  0  0  0  0  0  0
  189.1670  177.5170  146.1980 C   0  0  0  0  0  0  0  0  0  0  0  0
  187.7820  177.2980  146.2870 O   0  0  0  0  0  0  0  0  0  0  0  0
  189.6890  178.4250  145.0940 C   0  0  0  0  0  2  0  0  0  0  0  0
  187.5110  177.9770  144.0870 O   0  0  0  0  0  0  0  0  0  0  0  0
  187.3570  176.9130  145.0020 C   0  0  0  0  0  2  0  0  0  0  0  0
  189.8350  177.6930  147.5370 C   0  0  0  0  0  2  0  0  0  0  0  0
  188.8900  178.1490  143.8200 C   0  0  2  0  0  3  0  0  0  0  0  0
  1  3  1  0  0  0  0
  2  4  2  0  0  0  0
  3 43  1  1  0  0  0
  4  6  1  0  0  0  0
  4  5  1  0  0  0  0
  5  3  1  0  0  0  0
  6 29  1  6  0  0  0
  6  1  1  0  0  0  0
  7 13  1  1  0  0  0
  7 14  1  0  0  0  0
  8 11  2  0  0  0  0
  9  7  1  0  0  0  0
  9 16  1  1  0  0  0
 10  9  1  0  0  0  0
 10  7  1  0  0  0  0
 11  2  1  0  0  0  0
 11 12  1  0  0  0  0
 12 15  1  0  0  0  0
 13  8  1  0  0  0  0
 14 12  2  0  0  0  0
 18 17  1  6  0  0  0
 18 16  1  0  0  0  0
 19 22  1  0  0  0  0
 19 23  1  0  0  0  0
 19 18  1  0  0  0  0
 21 19  1  0  0  0  0
 22 20  1  0  0  0  0
 23 20  1  0  0  0  0
 24 10  1  0  0  0  0
 27 25  1  1  0  0  0
 27 26  1  0  0  0  0
 27 24  1  0  0  0  0
 29 30  1  0  0  0  0
 30 28  2  0  0  0  0
 32 31  2  0  0  0  0
 32 30  1  0  0  0  0
 33 34  1  0  0  0  0
 33 31  1  0  0  0  0
 34 36  1  0  0  0  0
 34 35  1  0  0  0  0
 36 35  1  0  0  0  0
 38 40  1  0  0  0  0
 39 40  1  0  0  0  0
 40 37  1  0  0  0  0
 40 34  1  0  0  0  0
 41  2  1  0  0  0  0
 42 41  1  0  0  0  0
 44 50  1  0  0  0  0
 45 46  1  0  0  0  0
 45 44  1  0  0  0  0
 45 50  1  0  0  0  0
 47 45  1  0  0  0  0
 48 49  1  0  0  0  0
 49 46  1  0  0  0  0
 51 43  1  1  0  0  0
 51 48  1  0  0  0  0
 51 47  1  0  0  0  0
M  END
>  <MODEL>
8

>  <REMARK>
 VINA RESULT:      -5.8      2.304      3.470
  Name = 
  14 active torsions:
  status: ('A' for Active; 'I' for Inactive)
    1  A    between atoms: C_9  and  C_15
    2  A    between atoms: C_9  and  C_22
    3  A    between atoms: C_10  and  C_12
    4  A    between atoms: C_10  and  C_27
    5  A    between atoms: C_11  and  O_14
    6  A    between atoms: C_11  and  C_31
    7  A    between atoms: C_15  and  C_37
    8  A    between atoms: C_17  and  C_27
    9  A    between atoms: N_19  and  C_23
   10  A    between atoms: N_19  and  C_44
   11  A    between atoms: N_29  and  C_38
   12  A    between atoms: C_35  and  C_50
   13  A    between atoms: C_38  and  C_45
   14  A    between atoms: N_43  and  C_47
                            x       y       z     vdW  Elec       q    Type
                         _______ _______ _______ _____ _____    ______ ____

>  <TORSDO>
F 14

$$$$
=
 OpenBabel10232412203D

 51 57  0  0  1  0  0  0  0  0999 V2000
  187.9950  178.3970  139.8580 C   0  0  0  0  0  2  0  0  0  0  0  0
  188.6790  177.3190  136.3740 C   0  0  0  0  0  0  0  0  0  0  0  0
  189.0810  177.3490  140.0560 C   0  0  1  0  0  3  0  0  0  0  0  0
  188.5840  177.5020  137.7140 C   0  0  0  0  0  0  0  0  0  0  0  0
  189.5610  176.9230  138.6790 C   0  0  0  0  0  2  0  0  0  0  0  0
  187.5510  178.3200  138.4070 C   0  0  1  0  0  3  0  0  0  0  0  0
  191.8890  174.7170  135.1720 C   0  0  1  0  0  0  0  0  0  0  0  0
  190.6530  176.8800  135.0310 C   0  0  0  0  0  3  0  0  0  0  0  0
  192.9710  173.8520  134.6870 C   0  0  1  0  0  3  0  0  0  0  0  0
  193.1770  174.6950  135.9090 N   0  0  0  0  0  0  0  0  0  0  0  0
  189.6890  176.3920  135.8290 C   0  0  0  0  0  0  0  0  0  0  0  0
  189.6580  174.9490  136.1930 C   0  0  0  0  0  0  0  0  0  0  0  0
  191.6860  176.0020  134.3800 C   0  0  0  0  0  2  0  0  0  0  0  0
  190.6720  174.1450  135.8710 C   0  0  0  0  0  3  0  0  0  0  0  0
  188.4750  174.3630  136.8860 C   0  0  0  0  0  1  0  0  0  0  0  0
  192.7160  172.3520  134.9390 C   0  0  0  0  0  2  0  0  0  0  0  0
  195.2070  172.1580  134.5580 C   0  0  0  0  0  1  0  0  0  0  0  0
  193.8570  171.4650  134.4290 C   0  0  1  0  0  3  0  0  0  0  0  0
  193.8660  170.0620  135.0490 C   0  0  0  0  0  0  0  0  0  0  0  0
  195.4640  169.2550  136.2180 C   0  0  0  0  0  2  0  0  0  0  0  0
  192.7080  169.3250  134.7970 O   0  0  0  0  0  1  0  0  0  0  0  0
  195.1180  169.2680  134.7410 C   0  0  0  0  0  2  0  0  0  0  0  0
  194.2140  170.0620  136.5230 C   0  0  0  0  0  2  0  0  0  0  0  0
  193.1220  173.9140  137.1510 C   0  0  0  0  0  2  0  0  0  0  0  0
  195.2020  173.1360  138.2330 C   0  0  0  0  0  1  0  0  0  0  0  0
  194.9580  175.3930  137.5370 O   0  0  0  0  0  1  0  0  0  0  0  0
  194.2600  174.3110  138.0750 C   0  0  1  0  0  3  0  0  0  0  0  0
  184.9630  179.5030  139.1660 O   0  0  0  0  0  0  0  0  0  0  0  0
  186.2180  177.7210  138.2990 N   0  0  0  0  0  2  0  0  0  0  0  0
  184.9780  178.3460  138.6660 C   0  0  0  0  0  0  0  0  0  0  0  0
  183.5220  176.8040  137.4590 C   0  0  0  0  0  3  0  0  0  0  0  0
  183.7090  177.6410  138.4740 C   0  0  0  0  0  3  0  0  0  0  0  0
  182.2140  176.1040  137.2810 C   0  0  0  0  0  2  0  0  0  0  0  0
  182.0750  175.4870  135.8900 C   0  0  0  0  0  0  0  0  0  0  0  0
  181.0360  176.2120  135.0560 C   0  0  0  0  0  2  0  0  0  0  0  0
  182.5170  176.3610  134.7340 C   0  0  0  0  0  2  0  0  0  0  0  0
  180.9060  173.4790  135.2120 F   0  0  0  0  0  0  0  0  0  0  0  0
  183.1810  173.6020  134.6360 C   0  0  0  0  0  1  0  0  0  0  0  0
  182.4480  173.2490  136.9720 C   0  0  0  0  0  1  0  0  0  0  0  0
  182.1240  173.9580  135.6690 C   0  0  0  0  0  0  0  0  0  0  0  0
  187.8660  177.9750  135.4340 O   0  0  0  0  0  0  0  0  0  0  0  0
  187.1840  177.3450  134.3600 C   0  0  0  0  0  1  0  0  0  0  0  0
  190.1820  177.9190  140.8170 N   0  0  0  0  0  2  0  0  0  0  0  0
  187.9920  178.1310  143.8400 C   0  0  0  0  0  2  0  0  0  0  0  0
  189.2580  177.3120  143.7810 C   0  0  0  0  0  0  0  0  0  0  0  0
  190.3850  177.8530  144.4230 O   0  0  0  0  0  0  0  0  0  0  0  0
  189.4740  176.3690  142.6060 C   0  0  0  0  0  2  0  0  0  0  0  0
  191.6940  177.3860  142.5680 O   0  0  0  0  0  0  0  0  0  0  0  0
  191.1930  178.4020  143.4120 C   0  0  0  0  0  2  0  0  0  0  0  0
  188.1620  176.9040  144.7320 C   0  0  0  0  0  2  0  0  0  0  0  0
  190.6340  176.9030  141.7640 C   0  0  2  0  0  3  0  0  0  0  0  0
  1  3  1  0  0  0  0
  2  4  2  0  0  0  0
  3 43  1  1  0  0  0
  4  6  1  0  0  0  0
  4  5  1  0  0  0  0
  5  3  1  0  0  0  0
  6 29  1  1  0  0  0
  6  1  1  0  0  0  0
  7 13  1  6  0  0  0
  7 14  1  0  0  0  0
  7 10  1  0  0  0  0
  8 11  2  0  0  0  0
  9 16  1  1  0  0  0
  9  7  1  0  0  0  0
  9 10  1  0  0  0  0
 10 24  1  0  0  0  0
 11 12  1  0  0  0  0
 11  2  1  0  0  0  0
 12 15  1  0  0  0  0
 13  8  1  0  0  0  0
 14 12  2  0  0  0  0
 18 17  1  1  0  0  0
 18 16  1  0  0  0  0
 18 19  1  0  0  0  0
 19 23  1  0  0  0  0
 20 23  1  0  0  0  0
 21 19  1  0  0  0  0
 22 19  1  0  0  0  0
 22 20  1  0  0  0  0
 24 27  1  0  0  0  0
 26 27  1  0  0  0  0
 27 25  1  6  0  0  0
 29 30  1  0  0  0  0
 30 28  2  0  0  0  0
 31 32  2  0  0  0  0
 32 30  1  0  0  0  0
 33 31  1  0  0  0  0
 34 33  1  0  0  0  0
 35 34  1  0  0  0  0
 36 35  1  0  0  0  0
 36 34  1  0  0  0  0
 37 40  1  0  0  0  0
 38 40  1  0  0  0  0
 40 34  1  0  0  0  0
 40 39  1  0  0  0  0
 41  2  1  0  0  0  0
 42 41  1  0  0  0  0
 44 50  1  0  0  0  0
 45 44  1  0  0  0  0
 45 46  1  0  0  0  0
 45 50  1  0  0  0  0
 47 45  1  0  0  0  0
 48 49  1  0  0  0  0
 49 46  1  0  0  0  0
 51 43  1  1  0  0  0
 51 48  1  0  0  0  0
 51 47  1  0  0  0  0
M  END
>  <MODEL>
9

>  <REMARK>
 VINA RESULT:      -5.5      1.892      2.370
  Name = 
  14 active torsions:
  status: ('A' for Active; 'I' for Inactive)
    1  A    between atoms: C_9  and  C_15
    2  A    between atoms: C_9  and  C_22
    3  A    between atoms: C_10  and  C_12
    4  A    between atoms: C_10  and  C_27
    5  A    between atoms: C_11  and  O_14
    6  A    between atoms: C_11  and  C_31
    7  A    between atoms: C_15  and  C_37
    8  A    between atoms: C_17  and  C_27
    9  A    between atoms: N_19  and  C_23
   10  A    between atoms: N_19  and  C_44
   11  A    between atoms: N_29  and  C_38
   12  A    between atoms: C_35  and  C_50
   13  A    between atoms: C_38  and  C_45
   14  A    between atoms: N_43  and  C_47
                            x       y       z     vdW  Elec       q    Type
                         _______ _______ _______ _____ _____    ______ ____

>  <TORSDO>
F 14

$$$$
