=
 OpenBabel10232409453D

 25 28  0  0  1  0  0  0  0  0999 V2000
  192.3910  176.0110  147.3670 N   0  0  0  0  0  0  0  0  0  0  0  0
  187.9110  176.5230  143.6640 C   0  0  0  0  0  3  0  0  0  0  0  0
  191.9700  174.6730  147.7510 C   0  0  0  0  0  1  0  0  0  0  0  0
  187.8210  178.0790  147.8290 C   0  0  0  0  0  3  0  0  0  0  0  0
  189.2200  178.1770  144.9390 C   0  0  1  0  0  3  0  0  0  0  0  0
  185.6650  177.2140  145.1640 O   0  0  0  0  0  0  0  0  0  0  0  0
  191.6380  177.6580  141.3760 C   0  0  0  0  0  2  0  0  0  0  0  0
  190.7550  177.3120  146.7070 C   0  0  0  0  0  0  0  0  0  0  0  0
  191.5810  176.6790  142.5450 C   0  0  0  0  0  2  0  0  0  0  0  0
  190.8320  177.1560  140.2160 C   0  0  0  0  0  0  0  0  0  0  0  0
  186.8130  177.3970  145.6490 C   0  0  0  0  0  0  0  0  0  0  0  0
  189.0230  176.4420  142.6680 C   0  0  1  0  0  3  0  0  0  0  0  0
  187.9790  177.3310  144.7310 C   0  0  0  0  0  0  0  0  0  0  0  0
  191.7320  176.3230  146.1240 C   0  0  0  0  0  2  0  0  0  0  0  0
  189.7540  178.1160  146.3290 C   0  0  0  0  0  0  0  0  0  0  0  0
  189.4990  177.0230  140.2840 C   0  0  0  0  0  3  0  0  0  0  0  0
  188.9800  178.8810  147.3330 C   0  0  0  0  0  2  0  0  0  0  0  0
  186.9190  177.5080  147.0820 N   0  0  0  0  0  0  0  0  0  0  0  0
  190.2170  178.1440  143.9240 O   0  0  0  0  0  0  0  0  0  0  0  0
  188.7020  177.3750  141.5030 C   0  0  0  0  0  2  0  0  0  0  0  0
  191.4730  176.9380  147.9790 C   0  0  0  0  0  2  0  0  0  0  0  0
  190.3160  176.8420  143.3890 C   0  0  2  0  0  3  0  0  0  0  0  0
  191.5490  176.7780  138.9590 C   0  0  0  0  0  2  0  0  0  0  0  0
  191.1760  174.5800  138.0950 O   0  0  0  0  0  1  0  0  0  0  0  0
  190.6880  175.8870  138.0750 C   0  0  0  0  0  2  0  0  0  0  0  0
  1  3  1  0  0  0  0
  1 21  1  0  0  0  0
  2 13  2  0  0  0  0
  5 19  1  6  0  0  0
  5 15  1  0  0  0  0
  6 11  2  0  0  0  0
  7  9  1  0  0  0  0
  8 21  1  0  0  0  0
 10 16  2  0  0  0  0
 10  7  1  0  0  0  0
 11 18  1  0  0  0  0
 12 20  1  6  0  0  0
 12 22  1  0  0  0  0
 12  2  1  0  0  0  0
 13  5  1  0  0  0  0
 13 11  1  0  0  0  0
 14  8  1  0  0  0  0
 14  1  1  0  0  0  0
 15  8  2  0  0  0  0
 15 17  1  0  0  0  0
 16 20  1  0  0  0  0
 17  4  1  0  0  0  0
 18  4  2  0  0  0  0
 22  9  1  6  0  0  0
 22 19  1  0  0  0  0
 23 10  1  0  0  0  0
 25 24  1  0  0  0  0
 25 23  1  0  0  0  0
M  END
>  <MODEL>
1

>  <REMARK>
 VINA RESULT:      -7.1      0.000      0.000
  Name = 
  2 active torsions:
  status: ('A' for Active; 'I' for Inactive)
    1  A    between atoms: C_10  and  C_21
    2  A    between atoms: C_19  and  C_21
                            x       y       z     vdW  Elec       q    Type
                         _______ _______ _______ _____ _____    ______ ____

>  <TORSDO>
F 2

$$$$
=
 OpenBabel10232409453D

 25 28  0  0  1  0  0  0  0  0999 V2000
  192.5760  174.4940  144.7000 N   0  0  0  0  0  0  0  0  0  0  0  0
  187.4550  177.0580  143.5830 C   0  0  0  0  0  3  0  0  0  0  0  0
  191.9260  173.2150  144.9410 C   0  0  0  0  0  1  0  0  0  0  0  0
  189.4160  177.1640  147.5730 C   0  0  0  0  0  3  0  0  0  0  0  0
  189.5960  177.9140  144.4540 C   0  0  1  0  0  3  0  0  0  0  0  0
  186.2710  177.6580  146.0350 O   0  0  0  0  0  0  0  0  0  0  0  0
  190.2200  178.1100  140.1670 C   0  0  0  0  0  2  0  0  0  0  0  0
  191.3170  176.2360  145.1270 C   0  0  0  0  0  0  0  0  0  0  0  0
  190.2930  176.8370  141.0040 C   0  0  0  0  0  2  0  0  0  0  0  0
  188.9260  178.1820  139.4120 C   0  0  0  0  0  0  0  0  0  0  0  0
  187.5110  177.4410  145.9830 C   0  0  0  0  0  0  0  0  0  0  0  0
  188.0300  177.0860  142.2030 C   0  0  1  0  0  3  0  0  0  0  0  0
  188.1670  177.4460  144.6500 C   0  0  0  0  0  0  0  0  0  0  0  0
  191.6390  175.3160  143.9770 C   0  0  0  0  0  2  0  0  0  0  0  0
  190.5580  177.3010  145.4130 C   0  0  0  0  0  0  0  0  0  0  0  0
  187.7470  178.3020  140.0380 C   0  0  0  0  0  3  0  0  0  0  0  0
  190.4990  177.8360  146.7920 C   0  0  0  0  0  2  0  0  0  0  0  0
  188.1700  177.0570  147.2060 N   0  0  0  0  0  0  0  0  0  0  0  0
  190.0790  178.0150  143.1200 O   0  0  0  0  0  0  0  0  0  0  0  0
  187.6140  178.3910  141.5280 C   0  0  0  0  0  2  0  0  0  0  0  0
  192.2960  175.3340  145.8360 C   0  0  0  0  0  2  0  0  0  0  0  0
  189.5540  176.9640  142.3370 C   0  0  2  0  0  3  0  0  0  0  0  0
  188.9660  178.0970  137.9190 C   0  0  0  0  0  2  0  0  0  0  0  0
  187.4530  179.5300  136.7460 O   0  0  0  0  0  1  0  0  0  0  0  0
  187.5790  178.2620  137.3170 C   0  0  0  0  0  2  0  0  0  0  0  0
  1  3  1  0  0  0  0
  1 21  1  0  0  0  0
  2 13  2  0  0  0  0
  5 19  1  6  0  0  0
  5 13  1  0  0  0  0
  5 15  1  0  0  0  0
  7  9  1  0  0  0  0
  8 15  2  0  0  0  0
  8 21  1  0  0  0  0
 10 16  2  0  0  0  0
 10  7  1  0  0  0  0
 11  6  2  0  0  0  0
 11 18  1  0  0  0  0
 12 20  1  1  0  0  0
 12 22  1  0  0  0  0
 12  2  1  0  0  0  0
 13 11  1  0  0  0  0
 14  1  1  0  0  0  0
 14  8  1  0  0  0  0
 15 17  1  0  0  0  0
 16 20  1  0  0  0  0
 17  4  1  0  0  0  0
 18  4  2  0  0  0  0
 22  9  1  6  0  0  0
 22 19  1  0  0  0  0
 23 10  1  0  0  0  0
 24 25  1  0  0  0  0
 25 23  1  0  0  0  0
M  END
>  <MODEL>
2

>  <REMARK>
 VINA RESULT:      -6.6      2.095      2.371
  Name = 
  2 active torsions:
  status: ('A' for Active; 'I' for Inactive)
    1  A    between atoms: C_10  and  C_21
    2  A    between atoms: C_19  and  C_21
                            x       y       z     vdW  Elec       q    Type
                         _______ _______ _______ _____ _____    ______ ____

>  <TORSDO>
F 2

$$$$
=
 OpenBabel10232409453D

 25 28  0  0  1  0  0  0  0  0999 V2000
  194.3020  175.8000  136.8520 N   0  0  0  0  0  0  0  0  0  0  0  0
  189.0000  177.8450  138.1730 C   0  0  0  0  0  3  0  0  0  0  0  0
  194.5590  176.9270  135.9690 C   0  0  0  0  0  1  0  0  0  0  0  0
  189.7210  174.8060  135.0070 C   0  0  0  0  0  3  0  0  0  0  0  0
  189.9460  175.5700  138.1200 C   0  0  1  0  0  3  0  0  0  0  0  0
  187.2890  177.1320  136.0900 O   0  0  0  0  0  0  0  0  0  0  0  0
  191.0600  176.9220  142.0860 C   0  0  0  0  0  2  0  0  0  0  0  0
  192.1820  175.2790  137.0510 C   0  0  0  0  0  0  0  0  0  0  0  0
  191.7590  177.3330  140.7940 C   0  0  0  0  0  2  0  0  0  0  0  0
  190.1630  178.0160  142.5820 C   0  0  0  0  0  0  0  0  0  0  0  0
  188.3790  176.5170  136.2340 C   0  0  0  0  0  0  0  0  0  0  0  0
  189.6660  178.0690  139.4920 C   0  0  1  0  0  3  0  0  0  0  0  0
  189.1120  176.6830  137.5150 C   0  0  0  0  0  0  0  0  0  0  0  0
  193.2040  176.1720  137.7080 C   0  0  0  0  0  2  0  0  0  0  0  0
  190.8910  174.9440  137.1530 C   0  0  0  0  0  0  0  0  0  0  0  0
  189.0770  178.4060  141.8980 C   0  0  0  0  0  3  0  0  0  0  0  0
  190.2680  174.0340  136.1640 C   0  0  0  0  0  2  0  0  0  0  0  0
  188.9030  175.8170  135.0880 N   0  0  0  0  0  0  0  0  0  0  0  0
  190.4880  175.7840  139.4180 O   0  0  0  0  0  0  0  0  0  0  0  0
  188.6570  177.7820  140.6020 C   0  0  0  0  0  2  0  0  0  0  0  0
  193.3650  174.9370  136.1790 C   0  0  0  0  0  2  0  0  0  0  0  0
  190.8800  177.1320  139.5590 C   0  0  2  0  0  3  0  0  0  0  0  0
  190.5110  178.6980  143.8680 C   0  0  0  0  0  2  0  0  0  0  0  0
  191.7090  177.4970  145.5530 O   0  0  0  0  0  1  0  0  0  0  0  0
  190.4310  177.7350  145.0440 C   0  0  0  0  0  2  0  0  0  0  0  0
  1 14  1  0  0  0  0
  3  1  1  0  0  0  0
  4 18  2  0  0  0  0
  4 17  1  0  0  0  0
  5 15  1  6  0  0  0
  5 19  1  0  0  0  0
  6 11  2  0  0  0  0
  7 10  1  0  0  0  0
  8 15  2  0  0  0  0
  8 14  1  0  0  0  0
  9  7  1  0  0  0  0
 10 23  1  0  0  0  0
 11 13  1  0  0  0  0
 12  2  1  6  0  0  0
 12 22  1  0  0  0  0
 12 20  1  0  0  0  0
 13  5  1  0  0  0  0
 13  2  2  0  0  0  0
 16 10  2  0  0  0  0
 17 15  1  0  0  0  0
 18 11  1  0  0  0  0
 19 22  1  0  0  0  0
 20 16  1  0  0  0  0
 21  1  1  0  0  0  0
 21  8  1  0  0  0  0
 22  9  1  1  0  0  0
 23 25  1  0  0  0  0
 25 24  1  0  0  0  0
M  END
>  <MODEL>
3

>  <REMARK>
 VINA RESULT:      -6.5      4.071      8.230
  Name = 
  2 active torsions:
  status: ('A' for Active; 'I' for Inactive)
    1  A    between atoms: C_10  and  C_21
    2  A    between atoms: C_19  and  C_21
                            x       y       z     vdW  Elec       q    Type
                         _______ _______ _______ _____ _____    ______ ____

>  <TORSDO>
F 2

$$$$
=
 OpenBabel10232409453D

 25 28  0  0  1  0  0  0  0  0999 V2000
  185.1990  177.3480  137.3800 N   0  0  0  0  0  0  0  0  0  0  0  0
  188.5660  176.6290  142.0900 C   0  0  0  0  0  3  0  0  0  0  0  0
  185.1360  175.9120  137.1580 C   0  0  0  0  0  1  0  0  0  0  0  0
  190.1910  177.4910  138.0420 C   0  0  0  0  0  3  0  0  0  0  0  0
  188.3320  178.4720  140.4720 C   0  0  1  0  0  3  0  0  0  0  0  0
  191.1780  176.2370  141.1970 O   0  0  0  0  0  0  0  0  0  0  0  0
  185.1730  179.3520  143.3080 C   0  0  0  0  0  2  0  0  0  0  0  0
  187.0210  178.0210  138.3970 C   0  0  0  0  0  0  0  0  0  0  0  0
  185.1020  178.2810  142.2250 C   0  0  0  0  0  2  0  0  0  0  0  0
  185.4350  178.7400  144.6520 C   0  0  0  0  0  0  0  0  0  0  0  0
  190.3340  176.7700  140.4280 C   0  0  0  0  0  0  0  0  0  0  0  0
  187.3190  177.0960  142.7700 C   0  0  1  0  0  3  0  0  0  0  0  0
  189.0610  177.2600  141.0170 C   0  0  0  0  0  0  0  0  0  0  0  0
  185.6310  177.5490  138.7400 C   0  0  0  0  0  2  0  0  0  0  0  0
  188.1440  178.4360  138.9940 C   0  0  0  0  0  0  0  0  0  0  0  0
  186.5870  178.1140  144.9320 C   0  0  0  0  0  3  0  0  0  0  0  0
  189.3600  178.7230  138.1980 C   0  0  0  0  0  2  0  0  0  0  0  0
  190.6040  176.7260  139.0120 N   0  0  0  0  0  0  0  0  0  0  0  0
  187.2020  178.9430  141.1970 O   0  0  0  0  0  0  0  0  0  0  0  0
  187.7100  177.9850  143.9490 C   0  0  0  0  0  2  0  0  0  0  0  0
  186.5190  177.7800  136.9950 C   0  0  0  0  0  2  0  0  0  0  0  0
  186.4830  177.8520  141.7290 C   0  0  2  0  0  3  0  0  0  0  0  0
  184.3640  178.8200  145.6940 C   0  0  0  0  0  2  0  0  0  0  0  0
  185.6160  179.5940  147.5790 O   0  0  0  0  0  1  0  0  0  0  0  0
  184.9110  178.4990  147.0770 C   0  0  0  0  0  2  0  0  0  0  0  0
  1 14  1  0  0  0  0
  3  1  1  0  0  0  0
  4 17  1  0  0  0  0
  4 18  2  0  0  0  0
  5 15  1  6  0  0  0
  5 13  1  0  0  0  0
  5 19  1  0  0  0  0
  7 10  1  0  0  0  0
  8 14  1  0  0  0  0
  8 15  2  0  0  0  0
  9  7  1  0  0  0  0
 10 16  2  0  0  0  0
 10 23  1  0  0  0  0
 11 13  1  0  0  0  0
 11  6  2  0  0  0  0
 12  2  1  6  0  0  0
 12 20  1  0  0  0  0
 13  2  2  0  0  0  0
 17 15  1  0  0  0  0
 18 11  1  0  0  0  0
 19 22  1  0  0  0  0
 20 16  1  0  0  0  0
 21  1  1  0  0  0  0
 21  8  1  0  0  0  0
 22  9  1  1  0  0  0
 22 12  1  0  0  0  0
 23 25  1  0  0  0  0
 25 24  1  0  0  0  0
M  END
>  <MODEL>
4

>  <REMARK>
 VINA RESULT:      -6.5      3.822      8.182
  Name = 
  2 active torsions:
  status: ('A' for Active; 'I' for Inactive)
    1  A    between atoms: C_10  and  C_21
    2  A    between atoms: C_19  and  C_21
                            x       y       z     vdW  Elec       q    Type
                         _______ _______ _______ _____ _____    ______ ____

>  <TORSDO>
F 2

$$$$
=
 OpenBabel10232409453D

 25 28  0  0  1  0  0  0  0  0999 V2000
  186.6470  177.4630  137.4670 N   0  0  0  0  0  0  0  0  0  0  0  0
  187.8580  176.4940  143.0920 C   0  0  0  0  0  3  0  0  0  0  0  0
  186.4600  176.0420  137.2230 C   0  0  0  0  0  1  0  0  0  0  0  0
  190.9890  176.9340  139.9650 C   0  0  0  0  0  3  0  0  0  0  0  0
  188.5220  178.2760  141.5240 C   0  0  1  0  0  3  0  0  0  0  0  0
  190.5250  175.6990  143.2450 O   0  0  0  0  0  0  0  0  0  0  0  0
  184.6960  179.7200  142.9690 C   0  0  0  0  0  2  0  0  0  0  0  0
  188.0320  177.9190  139.1030 C   0  0  0  0  0  0  0  0  0  0  0  0
  184.8790  178.6210  141.9270 C   0  0  0  0  0  2  0  0  0  0  0  0
  184.3430  179.1390  144.3050 C   0  0  0  0  0  0  0  0  0  0  0  0
  190.1190  176.3090  142.2200 C   0  0  0  0  0  0  0  0  0  0  0  0
  186.5300  177.1620  143.2550 C   0  0  1  0  0  3  0  0  0  0  0  0
  188.8060  177.0000  142.2910 C   0  0  0  0  0  0  0  0  0  0  0  0
  186.5610  177.6640  138.8910 C   0  0  0  0  0  2  0  0  0  0  0  0
  188.8980  178.2000  140.0840 C   0  0  0  0  0  0  0  0  0  0  0  0
  185.2000  178.3710  144.9930 C   0  0  0  0  0  3  0  0  0  0  0  0
  190.3510  178.2760  139.8090 C   0  0  0  0  0  2  0  0  0  0  0  0
  190.8910  176.1630  141.0110 N   0  0  0  0  0  0  0  0  0  0  0  0
  187.2850  178.9340  141.7750 O   0  0  0  0  0  0  0  0  0  0  0  0
  186.5780  178.0400  144.5040 C   0  0  0  0  0  2  0  0  0  0  0  0
  188.0620  177.6880  137.6130 C   0  0  0  0  0  2  0  0  0  0  0  0
  186.2670  177.9800  141.9840 C   0  0  2  0  0  3  0  0  0  0  0  0
  182.9840  179.4160  144.8670 C   0  0  0  0  0  2  0  0  0  0  0  0
  181.2140  179.7780  143.3010 O   0  0  0  0  0  1  0  0  0  0  0  0
  181.8920  178.7880  144.0140 C   0  0  0  0  0  2  0  0  0  0  0  0
  1 21  1  0  0  0  0
  1 14  1  0  0  0  0
  3  1  1  0  0  0  0
  4 18  2  0  0  0  0
  5 15  1  6  0  0  0
  5 19  1  0  0  0  0
  5 13  1  0  0  0  0
  7 10  1  0  0  0  0
  8 15  2  0  0  0  0
  9  7  1  0  0  0  0
 10 23  1  0  0  0  0
 10 16  2  0  0  0  0
 11 13  1  0  0  0  0
 11  6  2  0  0  0  0
 12  2  1  6  0  0  0
 12 20  1  0  0  0  0
 13  2  2  0  0  0  0
 14  8  1  0  0  0  0
 17  4  1  0  0  0  0
 17 15  1  0  0  0  0
 18 11  1  0  0  0  0
 19 22  1  0  0  0  0
 20 16  1  0  0  0  0
 21  8  1  0  0  0  0
 22  9  1  1  0  0  0
 22 12  1  0  0  0  0
 24 25  1  0  0  0  0
 25 23  1  0  0  0  0
M  END
>  <MODEL>
5

>  <REMARK>
 VINA RESULT:      -6.4      3.704      7.732
  Name = 
  2 active torsions:
  status: ('A' for Active; 'I' for Inactive)
    1  A    between atoms: C_10  and  C_21
    2  A    between atoms: C_19  and  C_21
                            x       y       z     vdW  Elec       q    Type
                         _______ _______ _______ _____ _____    ______ ____

>  <TORSDO>
F 2

$$$$
=
 OpenBabel10232409453D

 25 28  0  0  1  0  0  0  0  0999 V2000
  185.1080  178.8470  141.9140 N   0  0  0  0  0  0  0  0  0  0  0  0
  190.0730  175.7890  141.7170 C   0  0  0  0  0  3  0  0  0  0  0  0
  184.3190  177.6550  141.6430 C   0  0  0  0  0  1  0  0  0  0  0  0
  188.4510  178.0290  138.2350 C   0  0  0  0  0  3  0  0  0  0  0  0
  189.5480  178.1520  141.2520 C   0  0  1  0  0  3  0  0  0  0  0  0
  190.7420  175.4570  139.0310 O   0  0  0  0  0  0  0  0  0  0  0  0
  190.1620  178.1890  145.5450 C   0  0  0  0  0  2  0  0  0  0  0  0
  187.1390  178.7840  141.0930 C   0  0  0  0  0  0  0  0  0  0  0  0
  188.9040  177.6850  144.8460 C   0  0  0  0  0  2  0  0  0  0  0  0
  191.0170  177.0440  146.0020 C   0  0  0  0  0  0  0  0  0  0  0  0
  189.9380  176.3690  139.3610 C   0  0  0  0  0  0  0  0  0  0  0  0
  190.0500  176.0940  143.1810 C   0  0  1  0  0  3  0  0  0  0  0  0
  189.8470  176.7360  140.7970 C   0  0  0  0  0  0  0  0  0  0  0  0
  186.4070  178.4040  142.3540 C   0  0  0  0  0  2  0  0  0  0  0  0
  188.3710  178.7590  140.5700 C   0  0  0  0  0  0  0  0  0  0  0  0
  191.6060  176.2100  145.1340 C   0  0  0  0  0  3  0  0  0  0  0  0
  188.6050  179.1840  139.1710 C   0  0  0  0  0  2  0  0  0  0  0  0
  189.0610  176.8820  138.3390 N   0  0  0  0  0  0  0  0  0  0  0  0
  189.6260  178.4260  142.6460 O   0  0  0  0  0  0  0  0  0  0  0  0
  191.4820  176.3510  143.6470 C   0  0  0  0  0  2  0  0  0  0  0  0
  185.7550  179.2180  140.6810 C   0  0  0  0  0  2  0  0  0  0  0  0
  189.1490  177.3190  143.3810 C   0  0  2  0  0  3  0  0  0  0  0  0
  191.1920  176.8270  147.4720 C   0  0  0  0  0  2  0  0  0  0  0  0
  193.1240  176.2480  148.7560 O   0  0  0  0  0  1  0  0  0  0  0  0
  192.2680  175.7890  147.7550 C   0  0  0  0  0  2  0  0  0  0  0  0
  1 14  1  0  0  0  0
  3  1  1  0  0  0  0
  4 18  2  0  0  0  0
  4 17  1  0  0  0  0
  5 15  1  1  0  0  0
  5 19  1  0  0  0  0
  6 11  2  0  0  0  0
  7 10  1  0  0  0  0
  8 14  1  0  0  0  0
  9  7  1  0  0  0  0
 10 23  1  0  0  0  0
 11 13  1  0  0  0  0
 12  2  1  6  0  0  0
 12 22  1  0  0  0  0
 12 20  1  0  0  0  0
 13  5  1  0  0  0  0
 13  2  2  0  0  0  0
 15  8  2  0  0  0  0
 16 10  2  0  0  0  0
 17 15  1  0  0  0  0
 18 11  1  0  0  0  0
 19 22  1  0  0  0  0
 20 16  1  0  0  0  0
 21  8  1  0  0  0  0
 21  1  1  0  0  0  0
 22  9  1  1  0  0  0
 23 25  1  0  0  0  0
 25 24  1  0  0  0  0
M  END
>  <MODEL>
6

>  <REMARK>
 VINA RESULT:      -6.4      2.997      6.981
  Name = 
  2 active torsions:
  status: ('A' for Active; 'I' for Inactive)
    1  A    between atoms: C_10  and  C_21
    2  A    between atoms: C_19  and  C_21
                            x       y       z     vdW  Elec       q    Type
                         _______ _______ _______ _____ _____    ______ ____

>  <TORSDO>
F 2

$$$$
=
 OpenBabel10232409453D

 25 28  0  0  1  0  0  0  0  0999 V2000
  184.5580  179.2790  143.8020 N   0  0  0  0  0  0  0  0  0  0  0  0
  190.3130  178.3670  143.4980 C   0  0  0  0  0  3  0  0  0  0  0  0
  184.7600  180.6580  144.2180 C   0  0  0  0  0  1  0  0  0  0  0  0
  187.8660  177.3280  147.0620 C   0  0  0  0  0  3  0  0  0  0  0  0
  188.4060  176.8670  143.9290 C   0  0  1  0  0  3  0  0  0  0  0  0
  191.2190  177.8840  146.0900 O   0  0  0  0  0  0  0  0  0  0  0  0
  188.5500  176.9260  139.5950 C   0  0  0  0  0  2  0  0  0  0  0  0
  186.1870  177.9240  144.3630 C   0  0  0  0  0  0  0  0  0  0  0  0
  187.9790  178.0400  140.4660 C   0  0  0  0  0  2  0  0  0  0  0  0
  189.9110  177.2920  139.0820 C   0  0  0  0  0  0  0  0  0  0  0  0
  189.9940  177.7500  145.8270 C   0  0  0  0  0  0  0  0  0  0  0  0
  189.9960  178.3160  142.0380 C   0  0  1  0  0  3  0  0  0  0  0  0
  189.5870  177.6940  144.4000 C   0  0  0  0  0  0  0  0  0  0  0  0
  185.7970  178.8260  143.2200 C   0  0  0  0  0  2  0  0  0  0  0  0
  187.1690  177.0900  144.7280 C   0  0  0  0  0  0  0  0  0  0  0  0
  190.9600  177.4450  139.9020 C   0  0  0  0  0  3  0  0  0  0  0  0
  187.1630  176.4600  146.0680 C   0  0  0  0  0  2  0  0  0  0  0  0
  189.0670  177.8130  146.9300 N   0  0  0  0  0  0  0  0  0  0  0  0
  188.1900  176.7670  142.5260 O   0  0  0  0  0  0  0  0  0  0  0  0
  190.8760  177.2510  141.3850 C   0  0  0  0  0  2  0  0  0  0  0  0
  184.8880  178.4420  144.9280 C   0  0  0  0  0  2  0  0  0  0  0  0
  188.5030  177.9930  141.9020 C   0  0  2  0  0  3  0  0  0  0  0  0
  190.0840  177.5080  137.6110 C   0  0  0  0  0  2  0  0  0  0  0  0
  189.0120  179.6320  137.3680 O   0  0  0  0  0  1  0  0  0  0  0  0
  188.9140  178.2830  137.0230 C   0  0  0  0  0  2  0  0  0  0  0  0
  1  3  1  0  0  0  0
  1 21  1  0  0  0  0
  2 13  2  0  0  0  0
  5 19  1  6  0  0  0
  5 13  1  0  0  0  0
  5 15  1  0  0  0  0
  7  9  1  0  0  0  0
  8 15  2  0  0  0  0
  8 21  1  0  0  0  0
 10  7  1  0  0  0  0
 10 16  2  0  0  0  0
 11  6  2  0  0  0  0
 11 18  1  0  0  0  0
 12 20  1  6  0  0  0
 12  2  1  0  0  0  0
 13 11  1  0  0  0  0
 14  1  1  0  0  0  0
 14  8  1  0  0  0  0
 15 17  1  0  0  0  0
 16 20  1  0  0  0  0
 17  4  1  0  0  0  0
 18  4  2  0  0  0  0
 22  9  1  6  0  0  0
 22 12  1  0  0  0  0
 22 19  1  0  0  0  0
 23 10  1  0  0  0  0
 25 24  1  0  0  0  0
 25 23  1  0  0  0  0
M  END
>  <MODEL>
7

>  <REMARK>
 VINA RESULT:      -6.2      2.296      4.508
  Name = 
  2 active torsions:
  status: ('A' for Active; 'I' for Inactive)
    1  A    between atoms: C_10  and  C_21
    2  A    between atoms: C_19  and  C_21
                            x       y       z     vdW  Elec       q    Type
                         _______ _______ _______ _____ _____    ______ ____

>  <TORSDO>
F 2

$$$$
=
 OpenBabel10232409453D

 25 28  0  0  1  0  0  0  0  0999 V2000
  181.4040  180.5140  138.0890 N   0  0  0  0  0  0  0  0  0  0  0  0
  184.9370  179.3530  142.5850 C   0  0  0  0  0  3  0  0  0  0  0  0
  181.3150  181.9150  138.4710 C   0  0  0  0  0  1  0  0  0  0  0  0
  180.5370  178.7210  142.7160 C   0  0  0  0  0  3  0  0  0  0  0  0
  183.3330  177.9720  141.3230 C   0  0  1  0  0  3  0  0  0  0  0  0
  183.3370  179.0590  144.8490 O   0  0  0  0  0  0  0  0  0  0  0  0
  186.9120  177.6530  138.8940 C   0  0  0  0  0  2  0  0  0  0  0  0
  181.7810  179.1490  139.7620 C   0  0  0  0  0  0  0  0  0  0  0  0
  185.9790  178.8590  138.9220 C   0  0  0  0  0  2  0  0  0  0  0  0
  188.1560  177.9190  139.6870 C   0  0  0  0  0  0  0  0  0  0  0  0
  182.8180  178.9520  143.7060 C   0  0  0  0  0  0  0  0  0  0  0  0
  185.9220  179.1890  141.4720 C   0  0  1  0  0  3  0  0  0  0  0  0
  183.7230  178.7890  142.5390 C   0  0  0  0  0  0  0  0  0  0  0  0
  182.5560  179.9640  138.7580 C   0  0  0  0  0  2  0  0  0  0  0  0
  181.9850  178.3120  140.7860 C   0  0  0  0  0  0  0  0  0  0  0  0
  188.1250  178.1010  141.0140 C   0  0  0  0  0  3  0  0  0  0  0  0
  180.8450  177.8000  141.5800 C   0  0  0  0  0  2  0  0  0  0  0  0
  181.3930  179.1450  143.6020 N   0  0  0  0  0  0  0  0  0  0  0  0
  184.3270  177.7600  140.3260 O   0  0  0  0  0  0  0  0  0  0  0  0
  186.8640  178.0380  141.8210 C   0  0  0  0  0  2  0  0  0  0  0  0
  180.6140  179.7650  139.0330 C   0  0  0  0  0  2  0  0  0  0  0  0
  185.1260  178.9150  140.1900 C   0  0  2  0  0  3  0  0  0  0  0  0
  189.4620  178.0020  138.9590 C   0  0  0  0  0  2  0  0  0  0  0  0
  188.9820  179.7030  137.3490 O   0  0  0  0  0  1  0  0  0  0  0  0
  189.2570  178.3420  137.4900 C   0  0  0  0  0  2  0  0  0  0  0  0
  1  3  1  0  0  0  0
  1 14  1  0  0  0  0
  1 21  1  0  0  0  0
  4 18  2  0  0  0  0
  5 19  1  6  0  0  0
  5 13  1  0  0  0  0
  7  9  1  0  0  0  0
  7 10  1  0  0  0  0
  8 15  2  0  0  0  0
 10 16  2  0  0  0  0
 11  6  2  0  0  0  0
 12 20  1  1  0  0  0
 12  2  1  0  0  0  0
 13  2  2  0  0  0  0
 13 11  1  0  0  0  0
 14  8  1  0  0  0  0
 15  5  1  0  0  0  0
 15 17  1  0  0  0  0
 16 20  1  0  0  0  0
 17  4  1  0  0  0  0
 18 11  1  0  0  0  0
 21  8  1  0  0  0  0
 22  9  1  6  0  0  0
 22 19  1  0  0  0  0
 22 12  1  0  0  0  0
 23 10  1  0  0  0  0
 24 25  1  0  0  0  0
 25 23  1  0  0  0  0
M  END
>  <MODEL>
8

>  <REMARK>
 VINA RESULT:      -6.2      5.688      8.135
  Name = 
  2 active torsions:
  status: ('A' for Active; 'I' for Inactive)
    1  A    between atoms: C_10  and  C_21
    2  A    between atoms: C_19  and  C_21
                            x       y       z     vdW  Elec       q    Type
                         _______ _______ _______ _____ _____    ______ ____

>  <TORSDO>
F 2

$$$$
=
 OpenBabel10232409453D

 25 28  0  0  1  0  0  0  0  0999 V2000
  188.8740  178.0920  141.4620 N   0  0  0  0  0  0  0  0  0  0  0  0
  189.3610  174.3590  137.0040 C   0  0  0  0  0  3  0  0  0  0  0  0
  188.2700  177.0700  142.3010 C   0  0  0  0  0  1  0  0  0  0  0  0
  185.9550  177.1820  137.4590 C   0  0  0  0  0  3  0  0  0  0  0  0
  189.1270  176.8100  137.1100 C   0  0  1  0  0  3  0  0  0  0  0  0
  186.8720  174.2220  135.7560 O   0  0  0  0  0  0  0  0  0  0  0  0
  193.4100  176.2890  137.5450 C   0  0  0  0  0  2  0  0  0  0  0  0
  188.5260  177.8130  139.3160 C   0  0  0  0  0  0  0  0  0  0  0  0
  192.3850  176.0600  138.6500 C   0  0  0  0  0  2  0  0  0  0  0  0
  193.8810  174.9870  136.9700 C   0  0  0  0  0  0  0  0  0  0  0  0
  187.1390  175.2040  136.4980 C   0  0  0  0  0  0  0  0  0  0  0  0
  190.8110  174.5040  137.3400 C   0  0  1  0  0  3  0  0  0  0  0  0
  188.5560  175.4230  136.8860 C   0  0  0  0  0  0  0  0  0  0  0  0
  189.5270  177.4140  140.3700 C   0  0  0  0  0  2  0  0  0  0  0  0
  188.2920  177.6580  138.0070 C   0  0  0  0  0  0  0  0  0  0  0  0
  193.0570  174.1710  136.2960 C   0  0  0  0  0  3  0  0  0  0  0  0
  187.0540  178.1920  137.3940 C   0  0  0  0  0  2  0  0  0  0  0  0
  186.0290  175.9510  137.0360 N   0  0  0  0  0  0  0  0  0  0  0  0
  190.5280  176.9170  137.3370 O   0  0  0  0  0  0  0  0  0  0  0  0
  191.6150  174.4900  136.0420 C   0  0  0  0  0  2  0  0  0  0  0  0
  187.8810  178.4930  140.4970 C   0  0  0  0  0  2  0  0  0  0  0  0
  190.9750  175.8220  138.1070 C   0  0  2  0  0  3  0  0  0  0  0  0
  195.3080  174.5880  137.1800 C   0  0  0  0  0  2  0  0  0  0  0  0
  195.2870  172.9050  138.8790 O   0  0  0  0  0  1  0  0  0  0  0  0
  195.5800  174.2480  138.6380 C   0  0  0  0  0  2  0  0  0  0  0  0
  1  3  1  0  0  0  0
  2 12  1  0  0  0  0
  5 13  1  1  0  0  0
  5 19  1  0  0  0  0
  5 15  1  0  0  0  0
  6 11  2  0  0  0  0
  7  9  1  0  0  0  0
  8 14  1  0  0  0  0
  8 21  1  0  0  0  0
 10 23  1  0  0  0  0
 10  7  1  0  0  0  0
 11 13  1  0  0  0  0
 11 18  1  0  0  0  0
 12 20  1  6  0  0  0
 12 22  1  0  0  0  0
 13  2  2  0  0  0  0
 14  1  1  0  0  0  0
 15  8  2  0  0  0  0
 16 10  2  0  0  0  0
 17  4  1  0  0  0  0
 17 15  1  0  0  0  0
 18  4  2  0  0  0  0
 19 22  1  0  0  0  0
 20 16  1  0  0  0  0
 21  1  1  0  0  0  0
 22  9  1  6  0  0  0
 23 25  1  0  0  0  0
 25 24  1  0  0  0  0
M  END
>  <MODEL>
9

>  <REMARK>
 VINA RESULT:      -6.1      4.496      7.353
  Name = 
  2 active torsions:
  status: ('A' for Active; 'I' for Inactive)
    1  A    between atoms: C_10  and  C_21
    2  A    between atoms: C_19  and  C_21
                            x       y       z     vdW  Elec       q    Type
                         _______ _______ _______ _____ _____    ______ ____

>  <TORSDO>
F 2

$$$$
