=
 OpenBabel10232408113D

 38 44  0  0  1  0  0  0  0  0999 V2000
  189.2350  176.9720  142.7920 C   0  0  2  0  0  3  0  0  0  0  0  0
  187.8940  175.9210  143.4380 S   0  0  0  0  0  0  0  0  0  0  0  0
  188.5130  178.0350  144.9460 C   0  0  2  0  0  3  0  0  0  0  0  0
  187.3890  177.2530  144.4720 N   0  0  0  0  0  0  0  0  0  0  0  0
  189.4840  178.1390  143.7630 C   0  0  1  0  0  3  0  0  0  0  0  0
  186.0600  177.7960  144.4180 C   0  0  0  0  0  0  0  0  0  0  0  0
  184.0480  178.3360  143.1750 C   0  0  0  0  0  0  0  0  0  0  0  0
  181.4050  179.4890  143.1900 C   0  0  0  0  0  2  0  0  0  0  0  0
  185.3340  177.7980  143.2210 C   0  0  0  0  0  3  0  0  0  0  0  0
  183.4900  178.8820  144.3520 C   0  0  0  0  0  0  0  0  0  0  0  0
  182.0180  178.8790  141.9660 C   0  0  0  0  0  0  0  0  0  0  0  0
  185.4680  178.3510  145.5600 C   0  0  0  0  0  3  0  0  0  0  0  0
  181.3750  178.8520  140.8850 O   0  0  0  0  0  0  0  0  0  0  0  0
  182.2920  179.3980  144.3580 N   0  0  0  0  0  0  0  0  0  0  0  0
  183.3710  178.3210  142.0280 C   0  0  0  0  0  3  0  0  0  0  0  0
  184.2130  178.8710  145.5030 N   0  0  0  0  0  0  0  0  0  0  0  0
  191.4570  179.6370  144.0090 C   0  0  0  0  0  2  0  0  0  0  0  0
  191.7960  178.5890  142.9740 C   0  0  0  0  0  2  0  0  0  0  0  0
  190.9510  178.2170  144.1740 C   0  0  0  0  0  3  0  0  0  0  0  0
  189.0990  177.3810  146.0360 O   0  0  0  0  0  0  0  0  0  0  0  0
  189.6150  177.7400  148.3230 C   0  0  0  0  0  2  0  0  0  0  0  0
  188.1850  177.2610  148.2210 C   0  0  0  0  0  2  0  0  0  0  0  0
  188.7600  178.1570  147.1440 C   0  0  0  0  0  3  0  0  0  0  0  0
  188.8880  177.4520  141.3780 C   0  0  2  0  0  3  0  0  0  0  0  0
  189.8710  176.5500  139.3160 C   0  0  1  0  0  3  0  0  0  0  0  0
  190.6270  176.1210  140.4230 O   0  0  0  0  0  0  0  0  0  0  0  0
  190.1140  177.4290  140.4810 C   0  0  2  0  0  3  0  0  0  0  0  0
  190.8040  176.9280  138.1680 C   0  0  1  0  0  3  0  0  0  0  0  0
  191.5840  175.6970  137.6600 C   0  0  2  0  0  0  0  0  0  0  0  0
  190.8280  174.3790  137.5440 C   0  0  0  0  0  1  0  0  0  0  0  0
  193.1060  175.6690  137.8370 C   0  0  2  0  0  3  0  0  0  0  0  0
  192.4910  175.9630  136.4760 C   0  0  0  0  0  2  0  0  0  0  0  0
  193.6910  174.2650  137.8320 C   0  0  0  0  0  1  0  0  0  0  0  0
  190.0300  177.6600  137.0690 C   0  0  0  0  0  2  0  0  0  0  0  0
  188.6490  177.0590  136.8880 C   0  0  0  0  0  1  0  0  0  0  0  0
  188.3150  178.7920  141.4020 N   0  0  0  0  0  2  0  0  0  0  0  0
  187.0440  178.6310  139.4570 O   0  0  0  0  0  1  0  0  0  0  0  0
  186.9730  178.7030  140.8480 C   0  0  0  0  0  2  0  0  0  0  0  0
  1 24  1  6  0  0  0
  1  2  1  0  0  0  0
  1  5  1  0  0  0  0
  2  4  1  0  0  0  0
  3 20  1  1  0  0  0
  4  3  1  0  0  0  0
  5 19  1  1  0  0  0
  5  3  1  0  0  0  0
  6  4  1  0  0  0  0
  6 12  1  0  0  0  0
  7  9  1  0  0  0  0
  7 10  1  0  0  0  0
  8 14  1  0  0  0  0
  9  6  2  0  0  0  0
 10 14  2  0  0  0  0
 10 16  1  0  0  0  0
 11 15  1  0  0  0  0
 11  8  1  0  0  0  0
 13 11  2  0  0  0  0
 15  7  2  0  0  0  0
 16 12  2  0  0  0  0
 17 19  1  0  0  0  0
 18 17  1  0  0  0  0
 18 19  1  0  0  0  0
 20 23  1  0  0  0  0
 22 21  1  0  0  0  0
 23 22  1  0  0  0  0
 23 21  1  0  0  0  0
 24 36  1  1  0  0  0
 25 28  1  6  0  0  0
 25 26  1  0  0  0  0
 25 27  1  0  0  0  0
 26 27  1  0  0  0  0
 27 24  1  1  0  0  0
 28 34  1  6  0  0  0
 29 30  1  1  0  0  0
 29 31  1  0  0  0  0
 29 28  1  0  0  0  0
 31 33  1  6  0  0  0
 32 29  1  0  0  0  0
 32 31  1  0  0  0  0
 35 34  1  0  0  0  0
 37 38  1  0  0  0  0
 38 36  1  0  0  0  0
M  END
>  <MODEL>
1

>  <REMARK>
 VINA RESULT:      -7.6      0.000      0.000
  Name = 
  11 active torsions:
  status: ('A' for Active; 'I' for Inactive)
    1  A    between atoms: C_1  and  N_31
    2  A    between atoms: C_3  and  C_24
    3  A    between atoms: C_7  and  C_24
    4  A    between atoms: O_11  and  C_22
    5  A    between atoms: O_11  and  C_29
    6  A    between atoms: C_12  and  C_24
    7  A    between atoms: C_14  and  C_26
    8  A    between atoms: N_17  and  C_26
    9  A    between atoms: N_17  and  C_38
   10  A    between atoms: C_23  and  C_26
   11  A    between atoms: C_33  and  C_34
                            x       y       z     vdW  Elec       q    Type
                         _______ _______ _______ _____ _____    ______ ____

>  <TORSDO>
F 11

$$$$
=
 OpenBabel10232408113D

 38 44  0  0  1  0  0  0  0  0999 V2000
  189.4500  177.3200  139.1660 C   0  0  2  0  0  3  0  0  0  0  0  0
  188.7170  178.9780  139.3570 S   0  0  0  0  0  0  0  0  0  0  0  0
  187.3480  177.3000  137.7970 C   0  0  2  0  0  3  0  0  0  0  0  0
  187.1780  178.3280  138.8030 N   0  0  0  0  0  0  0  0  0  0  0  0
  188.5600  176.4710  138.2410 C   0  0  1  0  0  3  0  0  0  0  0  0
  185.9840  178.4200  139.5970 C   0  0  0  0  0  0  0  0  0  0  0  0
  184.8900  178.7930  141.7300 C   0  0  0  0  0  0  0  0  0  0  0  0
  182.4240  178.9100  143.2210 C   0  0  0  0  0  2  0  0  0  0  0  0
  186.0530  178.7160  140.9630 C   0  0  0  0  0  3  0  0  0  0  0  0
  183.6420  178.5640  141.1090 C   0  0  0  0  0  0  0  0  0  0  0  0
  183.7630  179.1720  143.8430 C   0  0  0  0  0  0  0  0  0  0  0  0
  184.7270  178.1970  139.0240 C   0  0  0  0  0  3  0  0  0  0  0  0
  183.8450  179.4600  145.0640 O   0  0  0  0  0  0  0  0  0  0  0  0
  182.5280  178.6230  141.7830 N   0  0  0  0  0  0  0  0  0  0  0  0
  184.9760  179.0850  143.0260 C   0  0  0  0  0  3  0  0  0  0  0  0
  183.5990  178.2760  139.7800 N   0  0  0  0  0  0  0  0  0  0  0  0
  189.0150  174.4170  136.9100 C   0  0  0  0  0  2  0  0  0  0  0  0
  190.2980  174.8130  137.6060 C   0  0  0  0  0  2  0  0  0  0  0  0
  189.3620  175.8840  137.0840 C   0  0  0  0  0  3  0  0  0  0  0  0
  187.5670  177.9060  136.5540 O   0  0  0  0  0  0  0  0  0  0  0  0
  186.7880  176.6220  134.7190 C   0  0  0  0  0  2  0  0  0  0  0  0
  186.6300  178.0870  134.3840 C   0  0  0  0  0  2  0  0  0  0  0  0
  186.4260  177.6120  135.8070 C   0  0  0  0  0  3  0  0  0  0  0  0
  189.6470  176.6740  140.5420 C   0  0  2  0  0  3  0  0  0  0  0  0
  189.2860  176.9330  142.9570 C   0  0  1  0  0  3  0  0  0  0  0  0
  188.0710  177.1390  142.2770 O   0  0  0  0  0  0  0  0  0  0  0  0
  189.2320  177.6260  141.6510 C   0  0  2  0  0  3  0  0  0  0  0  0
  189.4250  177.9500  144.0870 C   0  0  1  0  0  3  0  0  0  0  0  0
  188.5610  177.5480  145.3020 C   0  0  2  0  0  0  0  0  0  0  0  0
  187.1530  177.0340  145.0290 C   0  0  0  0  0  1  0  0  0  0  0  0
  188.8720  178.1790  146.6640 C   0  0  2  0  0  3  0  0  0  0  0  0
  189.2880  176.7450  146.3620 C   0  0  0  0  0  2  0  0  0  0  0  0
  187.6900  178.1690  147.6210 C   0  0  0  0  0  1  0  0  0  0  0  0
  190.9000  178.1710  144.4300 C   0  0  0  0  0  2  0  0  0  0  0  0
  191.3620  179.5400  143.9700 C   0  0  0  0  0  1  0  0  0  0  0  0
  191.0300  176.2570  140.7360 N   0  0  0  0  0  2  0  0  0  0  0  0
  192.9470  177.1380  139.7500 O   0  0  0  0  0  1  0  0  0  0  0  0
  191.8670  177.4370  140.5790 C   0  0  0  0  0  2  0  0  0  0  0  0
  1  2  1  0  0  0  0
  1 24  1  1  0  0  0
  3 20  1  6  0  0  0
  3  5  1  0  0  0  0
  3  4  1  0  0  0  0
  4  2  1  0  0  0  0
  4  6  1  0  0  0  0
  5 19  1  6  0  0  0
  5  1  1  0  0  0  0
  6  9  2  0  0  0  0
  7 15  2  0  0  0  0
  8 11  1  0  0  0  0
  9  7  1  0  0  0  0
 10  7  1  0  0  0  0
 10 14  2  0  0  0  0
 11 13  2  0  0  0  0
 12  6  1  0  0  0  0
 12 16  2  0  0  0  0
 14  8  1  0  0  0  0
 15 11  1  0  0  0  0
 16 10  1  0  0  0  0
 17 19  1  0  0  0  0
 17 18  1  0  0  0  0
 19 18  1  0  0  0  0
 21 23  1  0  0  0  0
 22 21  1  0  0  0  0
 22 23  1  0  0  0  0
 23 20  1  0  0  0  0
 24 36  1  1  0  0  0
 25 28  1  1  0  0  0
 26 25  1  0  0  0  0
 27 24  1  6  0  0  0
 27 26  1  0  0  0  0
 27 25  1  0  0  0  0
 28 34  1  1  0  0  0
 28 29  1  0  0  0  0
 29 30  1  6  0  0  0
 29 32  1  0  0  0  0
 29 31  1  0  0  0  0
 31 33  1  1  0  0  0
 32 31  1  0  0  0  0
 35 34  1  0  0  0  0
 37 38  1  0  0  0  0
 38 36  1  0  0  0  0
M  END
>  <MODEL>
2

>  <REMARK>
 VINA RESULT:      -6.6      2.333      7.062
  Name = 
  11 active torsions:
  status: ('A' for Active; 'I' for Inactive)
    1  A    between atoms: C_1  and  N_31
    2  A    between atoms: C_3  and  C_24
    3  A    between atoms: C_7  and  C_24
    4  A    between atoms: O_11  and  C_22
    5  A    between atoms: O_11  and  C_29
    6  A    between atoms: C_12  and  C_24
    7  A    between atoms: C_14  and  C_26
    8  A    between atoms: N_17  and  C_26
    9  A    between atoms: N_17  and  C_38
   10  A    between atoms: C_23  and  C_26
   11  A    between atoms: C_33  and  C_34
                            x       y       z     vdW  Elec       q    Type
                         _______ _______ _______ _____ _____    ______ ____

>  <TORSDO>
F 11

$$$$
=
 OpenBabel10232408113D

 38 44  0  0  1  0  0  0  0  0999 V2000
  189.4810  177.3900  142.9530 C   0  0  2  0  0  3  0  0  0  0  0  0
  188.1100  176.2020  143.1310 S   0  0  0  0  0  0  0  0  0  0  0  0
  188.2410  178.0820  145.0210 C   0  0  2  0  0  3  0  0  0  0  0  0
  187.3030  177.3400  144.2040 N   0  0  0  0  0  0  0  0  0  0  0  0
  189.4330  178.4030  144.1100 C   0  0  1  0  0  3  0  0  0  0  0  0
  185.9810  177.8330  143.9340 C   0  0  0  0  0  0  0  0  0  0  0  0
  184.1590  178.2530  142.3890 C   0  0  0  0  0  0  0  0  0  0  0  0
  181.5100  179.3120  141.9680 C   0  0  0  0  0  2  0  0  0  0  0  0
  185.4390  177.7620  142.6450 C   0  0  0  0  0  3  0  0  0  0  0  0
  183.4180  178.8250  143.4460 C   0  0  0  0  0  0  0  0  0  0  0  0
  182.3130  178.6760  140.8740 C   0  0  0  0  0  0  0  0  0  0  0  0
  185.2120  178.4110  144.9510 C   0  0  0  0  0  3  0  0  0  0  0  0
  181.8370  178.5840  139.7140 O   0  0  0  0  0  0  0  0  0  0  0  0
  182.2180  179.2980  143.2550 N   0  0  0  0  0  0  0  0  0  0  0  0
  183.6580  178.1680  141.1570 C   0  0  0  0  0  3  0  0  0  0  0  0
  183.9640  178.8840  144.6900 N   0  0  0  0  0  0  0  0  0  0  0  0
  191.6610  179.5100  144.1880 C   0  0  0  0  0  2  0  0  0  0  0  0
  191.8820  178.0400  143.9130 C   0  0  0  0  0  2  0  0  0  0  0  0
  190.7680  178.4730  144.8430 C   0  0  0  0  0  3  0  0  0  0  0  0
  188.6260  177.2910  146.1100 O   0  0  0  0  0  0  0  0  0  0  0  0
  189.1110  178.0890  148.2910 C   0  0  0  0  0  2  0  0  0  0  0  0
  188.1090  176.9620  148.4010 C   0  0  0  0  0  2  0  0  0  0  0  0
  188.0530  177.9100  147.2220 C   0  0  0  0  0  3  0  0  0  0  0  0
  189.4100  178.0670  141.5800 C   0  0  2  0  0  3  0  0  0  0  0  0
  188.5270  177.9050  139.2940 C   0  0  1  0  0  3  0  0  0  0  0  0
  187.4670  178.1330  140.1910 O   0  0  0  0  0  0  0  0  0  0  0  0
  188.5000  177.2930  140.6410 C   0  0  2  0  0  3  0  0  0  0  0  0
  188.1030  176.8820  138.2430 C   0  0  1  0  0  3  0  0  0  0  0  0
  186.8930  177.3910  137.4310 C   0  0  2  0  0  0  0  0  0  0  0  0
  186.9950  178.7750  136.8020 C   0  0  0  0  0  1  0  0  0  0  0  0
  185.5070  176.8150  137.7410 C   0  0  2  0  0  3  0  0  0  0  0  0
  186.2720  176.3650  136.5040 C   0  0  0  0  0  2  0  0  0  0  0  0
  184.3640  177.7260  137.3230 C   0  0  0  0  0  1  0  0  0  0  0  0
  189.2980  176.4800  137.3750 C   0  0  0  0  0  2  0  0  0  0  0  0
  189.5370  174.9840  137.4420 C   0  0  0  0  0  1  0  0  0  0  0  0
  190.7360  178.2010  140.9890 N   0  0  0  0  0  2  0  0  0  0  0  0
  191.9820  176.9370  139.4810 O   0  0  0  0  0  1  0  0  0  0  0  0
  191.1880  176.8670  140.6250 C   0  0  0  0  0  2  0  0  0  0  0  0
  1 24  1  6  0  0  0
  1  2  1  0  0  0  0
  1  5  1  0  0  0  0
  2  4  1  0  0  0  0
  3 20  1  1  0  0  0
  4  3  1  0  0  0  0
  5 19  1  1  0  0  0
  5  3  1  0  0  0  0
  6  4  1  0  0  0  0
  6 12  1  0  0  0  0
  7  9  1  0  0  0  0
  7 10  1  0  0  0  0
  8 14  1  0  0  0  0
  9  6  2  0  0  0  0
 10 16  1  0  0  0  0
 11 15  1  0  0  0  0
 11  8  1  0  0  0  0
 13 11  2  0  0  0  0
 14 10  2  0  0  0  0
 15  7  2  0  0  0  0
 16 12  2  0  0  0  0
 17 19  1  0  0  0  0
 18 17  1  0  0  0  0
 18 19  1  0  0  0  0
 20 23  1  0  0  0  0
 21 22  1  0  0  0  0
 23 21  1  0  0  0  0
 23 22  1  0  0  0  0
 24 36  1  6  0  0  0
 25 28  1  6  0  0  0
 25 26  1  0  0  0  0
 25 27  1  0  0  0  0
 26 27  1  0  0  0  0
 27 24  1  1  0  0  0
 28 34  1  6  0  0  0
 29 30  1  6  0  0  0
 29 31  1  0  0  0  0
 29 28  1  0  0  0  0
 31 33  1  6  0  0  0
 32 29  1  0  0  0  0
 32 31  1  0  0  0  0
 34 35  1  0  0  0  0
 37 38  1  0  0  0  0
 38 36  1  0  0  0  0
M  END
>  <MODEL>
3

>  <REMARK>
 VINA RESULT:      -6.6      1.522      3.082
  Name = 
  11 active torsions:
  status: ('A' for Active; 'I' for Inactive)
    1  A    between atoms: C_1  and  N_31
    2  A    between atoms: C_3  and  C_24
    3  A    between atoms: C_7  and  C_24
    4  A    between atoms: O_11  and  C_22
    5  A    between atoms: O_11  and  C_29
    6  A    between atoms: C_12  and  C_24
    7  A    between atoms: C_14  and  C_26
    8  A    between atoms: N_17  and  C_26
    9  A    between atoms: N_17  and  C_38
   10  A    between atoms: C_23  and  C_26
   11  A    between atoms: C_33  and  C_34
                            x       y       z     vdW  Elec       q    Type
                         _______ _______ _______ _____ _____    ______ ____

>  <TORSDO>
F 11

$$$$
=
 OpenBabel10232408113D

 38 44  0  0  1  0  0  0  0  0999 V2000
  189.3430  176.8410  144.0290 C   0  0  2  0  0  3  0  0  0  0  0  0
  187.9020  175.9450  143.3640 S   0  0  0  0  0  0  0  0  0  0  0  0
  187.3280  178.1210  144.8000 C   0  0  2  0  0  3  0  0  0  0  0  0
  186.9270  177.3880  143.6170 N   0  0  0  0  0  0  0  0  0  0  0  0
  188.8610  178.0600  144.8350 C   0  0  1  0  0  3  0  0  0  0  0  0
  186.2120  178.0200  142.5420 C   0  0  0  0  0  0  0  0  0  0  0  0
  184.1350  178.5150  141.3910 C   0  0  0  0  0  0  0  0  0  0  0  0
  182.8230  179.7980  139.1670 C   0  0  0  0  0  2  0  0  0  0  0  0
  184.8210  177.9070  142.4420 C   0  0  0  0  0  3  0  0  0  0  0  0
  184.8650  179.2430  140.4260 C   0  0  0  0  0  0  0  0  0  0  0  0
  182.0770  179.0380  140.2220 C   0  0  0  0  0  0  0  0  0  0  0  0
  186.8950  178.7500  141.5620 C   0  0  0  0  0  3  0  0  0  0  0  0
  180.8240  178.9420  140.1620 O   0  0  0  0  0  0  0  0  0  0  0  0
  184.2690  179.8280  139.4240 N   0  0  0  0  0  0  0  0  0  0  0  0
  182.8100  178.4020  141.3190 C   0  0  0  0  0  3  0  0  0  0  0  0
  186.2170  179.3400  140.5420 N   0  0  0  0  0  0  0  0  0  0  0  0
  190.9420  177.8180  146.1790 C   0  0  0  0  0  2  0  0  0  0  0  0
  190.0070  176.6930  146.5630 C   0  0  0  0  0  2  0  0  0  0  0  0
  189.4460  178.0630  146.2430 C   0  0  0  0  0  3  0  0  0  0  0  0
  186.7640  177.5140  145.9280 O   0  0  0  0  0  0  0  0  0  0  0  0
  184.7380  178.2050  146.9500 C   0  0  0  0  0  2  0  0  0  0  0  0
  185.0570  179.1560  145.8190 C   0  0  0  0  0  2  0  0  0  0  0  0
  186.1790  178.5590  146.6430 C   0  0  0  0  0  3  0  0  0  0  0  0
  190.2880  177.2310  142.8870 C   0  0  2  0  0  3  0  0  0  0  0  0
  190.5240  177.3670  140.4470 C   0  0  1  0  0  3  0  0  0  0  0  0
  189.2680  177.8770  140.8250 O   0  0  0  0  0  0  0  0  0  0  0  0
  189.7400  176.7670  141.5480 C   0  0  2  0  0  3  0  0  0  0  0  0
  190.3810  176.5270  139.1800 C   0  0  1  0  0  3  0  0  0  0  0  0
  189.3730  177.1670  138.2020 C   0  0  2  0  0  0  0  0  0  0  0  0
  189.4440  178.6760  138.0010 C   0  0  0  0  0  1  0  0  0  0  0  0
  188.0500  176.4420  137.9320 C   0  0  2  0  0  3  0  0  0  0  0  0
  189.1750  176.4080  136.9050 C   0  0  0  0  0  2  0  0  0  0  0  0
  186.9450  177.3610  137.4360 C   0  0  0  0  0  1  0  0  0  0  0  0
  191.7530  176.2580  138.5580 C   0  0  0  0  0  2  0  0  0  0  0  0
  192.8330  177.0520  139.2690 C   0  0  0  0  0  1  0  0  0  0  0  0
  191.6220  176.6820  143.0960 N   0  0  0  0  0  2  0  0  0  0  0  0
  192.3270  174.9770  144.5170 O   0  0  0  0  0  1  0  0  0  0  0  0
  191.4650  175.2840  143.4630 C   0  0  0  0  0  2  0  0  0  0  0  0
  1 24  1  6  0  0  0
  1  5  1  0  0  0  0
  2  4  1  0  0  0  0
  2  1  1  0  0  0  0
  3  5  1  0  0  0  0
  3 20  1  1  0  0  0
  4  3  1  0  0  0  0
  5 19  1  1  0  0  0
  6  4  1  0  0  0  0
  7  9  1  0  0  0  0
  8 14  1  0  0  0  0
  8 11  1  0  0  0  0
  9  6  2  0  0  0  0
 10 16  1  0  0  0  0
 10  7  1  0  0  0  0
 11 15  1  0  0  0  0
 12  6  1  0  0  0  0
 13 11  2  0  0  0  0
 14 10  2  0  0  0  0
 15  7  2  0  0  0  0
 16 12  2  0  0  0  0
 17 19  1  0  0  0  0
 17 18  1  0  0  0  0
 19 18  1  0  0  0  0
 20 23  1  0  0  0  0
 22 23  1  0  0  0  0
 22 21  1  0  0  0  0
 23 21  1  0  0  0  0
 24 36  1  1  0  0  0
 25 28  1  6  0  0  0
 25 26  1  0  0  0  0
 25 27  1  0  0  0  0
 26 27  1  0  0  0  0
 27 24  1  1  0  0  0
 28 34  1  6  0  0  0
 29 30  1  6  0  0  0
 29 28  1  0  0  0  0
 31 33  1  6  0  0  0
 31 29  1  0  0  0  0
 32 31  1  0  0  0  0
 32 29  1  0  0  0  0
 34 35  1  0  0  0  0
 36 38  1  0  0  0  0
 38 37  1  0  0  0  0
M  END
>  <MODEL>
4

>  <REMARK>
 VINA RESULT:      -6.6      1.931      3.667
  Name = 
  11 active torsions:
  status: ('A' for Active; 'I' for Inactive)
    1  A    between atoms: C_1  and  N_31
    2  A    between atoms: C_3  and  C_24
    3  A    between atoms: C_7  and  C_24
    4  A    between atoms: O_11  and  C_22
    5  A    between atoms: O_11  and  C_29
    6  A    between atoms: C_12  and  C_24
    7  A    between atoms: C_14  and  C_26
    8  A    between atoms: N_17  and  C_26
    9  A    between atoms: N_17  and  C_38
   10  A    between atoms: C_23  and  C_26
   11  A    between atoms: C_33  and  C_34
                            x       y       z     vdW  Elec       q    Type
                         _______ _______ _______ _____ _____    ______ ____

>  <TORSDO>
F 11

$$$$
=
 OpenBabel10232408113D

 38 44  0  0  1  0  0  0  0  0999 V2000
  183.1890  178.1110  138.5100 C   0  0  2  0  0  3  0  0  0  0  0  0
  184.0950  179.5480  139.1710 S   0  0  0  0  0  0  0  0  0  0  0  0
  182.8290  178.0620  140.9920 C   0  0  2  0  0  3  0  0  0  0  0  0
  184.0530  178.8020  140.7650 N   0  0  0  0  0  0  0  0  0  0  0  0
  182.5090  177.3580  139.6670 C   0  0  1  0  0  3  0  0  0  0  0  0
  185.2530  178.5250  141.5060 C   0  0  0  0  0  0  0  0  0  0  0  0
  186.3750  178.0300  143.5980 C   0  0  0  0  0  0  0  0  0  0  0  0
  188.8570  177.5230  144.9770 C   0  0  0  0  0  2  0  0  0  0  0  0
  185.2050  178.2880  142.8840 C   0  0  0  0  0  3  0  0  0  0  0  0
  187.6090  178.0150  142.9120 C   0  0  0  0  0  0  0  0  0  0  0  0
  187.5280  177.5220  145.6700 C   0  0  0  0  0  0  0  0  0  0  0  0
  186.4980  178.5030  140.8660 C   0  0  0  0  0  3  0  0  0  0  0  0
  187.4610  177.2920  146.9050 O   0  0  0  0  0  0  0  0  0  0  0  0
  188.7300  177.7790  143.5360 N   0  0  0  0  0  0  0  0  0  0  0  0
  186.3070  177.7990  144.9080 C   0  0  0  0  0  3  0  0  0  0  0  0
  187.6330  178.2480  141.5720 N   0  0  0  0  0  0  0  0  0  0  0  0
  180.5350  175.8940  140.0630 C   0  0  0  0  0  2  0  0  0  0  0  0
  180.7920  175.9350  138.5730 C   0  0  0  0  0  2  0  0  0  0  0  0
  181.0160  177.1770  139.4110 C   0  0  0  0  0  3  0  0  0  0  0  0
  181.8150  178.9550  141.3580 O   0  0  0  0  0  0  0  0  0  0  0  0
  180.4910  179.5090  143.2460 C   0  0  0  0  0  2  0  0  0  0  0  0
  181.8840  179.1650  143.7190 C   0  0  0  0  0  2  0  0  0  0  0  0
  181.2850  178.4320  142.5370 C   0  0  0  0  0  3  0  0  0  0  0  0
  184.1420  177.2150  137.7100 C   0  0  2  0  0  3  0  0  0  0  0  0
  184.3690  174.9460  136.7990 C   0  0  1  0  0  3  0  0  0  0  0  0
  183.0100  175.3080  136.8210 O   0  0  0  0  0  0  0  0  0  0  0  0
  183.7940  175.7480  137.9010 C   0  0  2  0  0  3  0  0  0  0  0  0
  184.5240  173.4910  137.2330 C   0  0  1  0  0  3  0  0  0  0  0  0
  183.7310  172.5480  136.3020 C   0  0  2  0  0  0  0  0  0  0  0  0
  183.7350  172.8610  134.8110 C   0  0  0  0  0  1  0  0  0  0  0  0
  182.5680  171.7430  136.8910 C   0  0  2  0  0  3  0  0  0  0  0  0
  183.9030  171.0720  136.5960 C   0  0  0  0  0  2  0  0  0  0  0  0
  181.5460  171.3070  135.8530 C   0  0  0  0  0  1  0  0  0  0  0  0
  186.0050  173.1240  137.3600 C   0  0  0  0  0  2  0  0  0  0  0  0
  186.8760  174.1440  136.6510 C   0  0  0  0  0  1  0  0  0  0  0  0
  185.5290  177.4510  138.0890 N   0  0  0  0  0  2  0  0  0  0  0  0
  187.1060  178.9100  137.1900 O   0  0  0  0  0  1  0  0  0  0  0  0
  186.2470  177.8530  136.8900 C   0  0  0  0  0  2  0  0  0  0  0  0
  1 24  1  1  0  0  0
  1  2  1  0  0  0  0
  1  5  1  0  0  0  0
  2  4  1  0  0  0  0
  3 20  1  6  0  0  0
  4  3  1  0  0  0  0
  4  6  1  0  0  0  0
  5 19  1  6  0  0  0
  5  3  1  0  0  0  0
  6  9  2  0  0  0  0
  7 15  2  0  0  0  0
  8 11  1  0  0  0  0
  9  7  1  0  0  0  0
 10 14  2  0  0  0  0
 10  7  1  0  0  0  0
 11 13  2  0  0  0  0
 12  6  1  0  0  0  0
 12 16  2  0  0  0  0
 14  8  1  0  0  0  0
 15 11  1  0  0  0  0
 16 10  1  0  0  0  0
 18 19  1  0  0  0  0
 18 17  1  0  0  0  0
 19 17  1  0  0  0  0
 20 23  1  0  0  0  0
 21 22  1  0  0  0  0
 23 21  1  0  0  0  0
 23 22  1  0  0  0  0
 24 36  1  1  0  0  0
 25 26  1  0  0  0  0
 25 28  1  1  0  0  0
 25 27  1  0  0  0  0
 26 27  1  0  0  0  0
 27 24  1  6  0  0  0
 28 34  1  6  0  0  0
 29 30  1  6  0  0  0
 29 32  1  0  0  0  0
 29 31  1  0  0  0  0
 29 28  1  0  0  0  0
 31 33  1  6  0  0  0
 32 31  1  0  0  0  0
 35 34  1  0  0  0  0
 38 37  1  0  0  0  0
 38 36  1  0  0  0  0
M  END
>  <MODEL>
5

>  <REMARK>
 VINA RESULT:      -6.0      4.121      7.580
  Name = 
  11 active torsions:
  status: ('A' for Active; 'I' for Inactive)
    1  A    between atoms: C_1  and  N_31
    2  A    between atoms: C_3  and  C_24
    3  A    between atoms: C_7  and  C_24
    4  A    between atoms: O_11  and  C_22
    5  A    between atoms: O_11  and  C_29
    6  A    between atoms: C_12  and  C_24
    7  A    between atoms: C_14  and  C_26
    8  A    between atoms: N_17  and  C_26
    9  A    between atoms: N_17  and  C_38
   10  A    between atoms: C_23  and  C_26
   11  A    between atoms: C_33  and  C_34
                            x       y       z     vdW  Elec       q    Type
                         _______ _______ _______ _____ _____    ______ ____

>  <TORSDO>
F 11

$$$$
=
 OpenBabel10232408113D

 38 44  0  0  1  0  0  0  0  0999 V2000
  182.7130  178.0140  138.7230 C   0  0  2  0  0  3  0  0  0  0  0  0
  183.7010  179.4670  139.2060 S   0  0  0  0  0  0  0  0  0  0  0  0
  182.4950  178.1910  141.2160 C   0  0  2  0  0  3  0  0  0  0  0  0
  183.7280  178.8630  140.8590 N   0  0  0  0  0  0  0  0  0  0  0  0
  182.0770  177.3890  139.9770 C   0  0  1  0  0  3  0  0  0  0  0  0
  184.9580  178.6070  141.5550 C   0  0  0  0  0  0  0  0  0  0  0  0
  186.1600  178.0850  143.5960 C   0  0  0  0  0  0  0  0  0  0  0  0
  188.6990  177.6250  144.8850 C   0  0  0  0  0  2  0  0  0  0  0  0
  184.9610  178.3230  142.9250 C   0  0  0  0  0  3  0  0  0  0  0  0
  187.3720  178.1380  142.8740 C   0  0  0  0  0  0  0  0  0  0  0  0
  187.3920  177.5520  145.6160 C   0  0  0  0  0  0  0  0  0  0  0  0
  186.1840  178.6520  140.8790 C   0  0  0  0  0  3  0  0  0  0  0  0
  187.3700  177.2780  146.8430 O   0  0  0  0  0  0  0  0  0  0  0  0
  188.5190  177.9240  143.4570 N   0  0  0  0  0  0  0  0  0  0  0  0
  186.1400  177.8080  144.8990 C   0  0  0  0  0  3  0  0  0  0  0  0
  187.3470  178.4160  141.5430 N   0  0  0  0  0  0  0  0  0  0  0  0
  180.1250  175.8900  140.3490 C   0  0  0  0  0  2  0  0  0  0  0  0
  180.2650  176.1090  138.8600 C   0  0  0  0  0  2  0  0  0  0  0  0
  180.5670  177.2410  139.8200 C   0  0  0  0  0  3  0  0  0  0  0  0
  181.5330  179.1500  141.5570 O   0  0  0  0  0  0  0  0  0  0  0  0
  180.1180  178.3960  143.3040 C   0  0  0  0  0  2  0  0  0  0  0  0
  180.2420  179.9000  143.3990 C   0  0  0  0  0  2  0  0  0  0  0  0
  181.4250  179.0710  142.9450 C   0  0  0  0  0  3  0  0  0  0  0  0
  183.5890  177.0180  137.9550 C   0  0  2  0  0  3  0  0  0  0  0  0
  185.7700  176.6550  136.8850 C   0  0  1  0  0  3  0  0  0  0  0  0
  185.9620  177.0000  138.2360 O   0  0  0  0  0  0  0  0  0  0  0  0
  184.9140  177.6520  137.5640 C   0  0  2  0  0  3  0  0  0  0  0  0
  186.8120  177.3580  136.0190 C   0  0  1  0  0  3  0  0  0  0  0  0
  188.2420  176.9490  136.4310 C   0  0  2  0  0  0  0  0  0  0  0  0
  188.5350  175.4610  136.5830 C   0  0  0  0  0  1  0  0  0  0  0  0
  189.1030  177.9590  137.1960 C   0  0  2  0  0  3  0  0  0  0  0  0
  189.3490  177.6980  135.7160 C   0  0  0  0  0  2  0  0  0  0  0  0
  190.2130  177.3150  138.0120 C   0  0  0  0  0  1  0  0  0  0  0  0
  186.5130  177.1330  134.5340 C   0  0  0  0  0  2  0  0  0  0  0  0
  185.5550  175.9720  134.3460 C   0  0  0  0  0  1  0  0  0  0  0  0
  182.9060  176.5220  136.7670 N   0  0  0  0  0  2  0  0  0  0  0  0
  181.6140  177.3510  135.0150 O   0  0  0  0  0  1  0  0  0  0  0  0
  182.6390  177.6650  135.9080 C   0  0  0  0  0  2  0  0  0  0  0  0
  1 24  1  1  0  0  0
  1  2  1  0  0  0  0
  1  5  1  0  0  0  0
  2  4  1  0  0  0  0
  3 20  1  6  0  0  0
  4  3  1  0  0  0  0
  4  6  1  0  0  0  0
  5 19  1  6  0  0  0
  5  3  1  0  0  0  0
  6  9  2  0  0  0  0
  7 15  2  0  0  0  0
  8 11  1  0  0  0  0
  9  7  1  0  0  0  0
 10 14  2  0  0  0  0
 10  7  1  0  0  0  0
 11 13  2  0  0  0  0
 12 16  2  0  0  0  0
 12  6  1  0  0  0  0
 14  8  1  0  0  0  0
 15 11  1  0  0  0  0
 16 10  1  0  0  0  0
 18 19  1  0  0  0  0
 18 17  1  0  0  0  0
 19 17  1  0  0  0  0
 20 23  1  0  0  0  0
 21 22  1  0  0  0  0
 23 21  1  0  0  0  0
 23 22  1  0  0  0  0
 24 36  1  6  0  0  0
 25 28  1  6  0  0  0
 25 27  1  0  0  0  0
 25 26  1  0  0  0  0
 27 24  1  1  0  0  0
 27 26  1  0  0  0  0
 28 34  1  6  0  0  0
 28 29  1  0  0  0  0
 29 30  1  1  0  0  0
 29 31  1  0  0  0  0
 31 33  1  1  0  0  0
 32 29  1  0  0  0  0
 32 31  1  0  0  0  0
 35 34  1  0  0  0  0
 37 38  1  0  0  0  0
 38 36  1  0  0  0  0
M  END
>  <MODEL>
6

>  <REMARK>
 VINA RESULT:      -5.9      3.103      6.858
  Name = 
  11 active torsions:
  status: ('A' for Active; 'I' for Inactive)
    1  A    between atoms: C_1  and  N_31
    2  A    between atoms: C_3  and  C_24
    3  A    between atoms: C_7  and  C_24
    4  A    between atoms: O_11  and  C_22
    5  A    between atoms: O_11  and  C_29
    6  A    between atoms: C_12  and  C_24
    7  A    between atoms: C_14  and  C_26
    8  A    between atoms: N_17  and  C_26
    9  A    between atoms: N_17  and  C_38
   10  A    between atoms: C_23  and  C_26
   11  A    between atoms: C_33  and  C_34
                            x       y       z     vdW  Elec       q    Type
                         _______ _______ _______ _____ _____    ______ ____

>  <TORSDO>
F 11

$$$$
=
 OpenBabel10232408113D

 38 44  0  0  1  0  0  0  0  0999 V2000
  188.4080  177.0570  136.8790 C   0  0  2  0  0  3  0  0  0  0  0  0
  189.2350  178.4170  137.7670 S   0  0  0  0  0  0  0  0  0  0  0  0
  186.9180  177.6120  138.8190 C   0  0  2  0  0  3  0  0  0  0  0  0
  188.2500  178.0540  139.1790 N   0  0  0  0  0  0  0  0  0  0  0  0
  187.0910  176.7070  137.5930 C   0  0  1  0  0  3  0  0  0  0  0  0
  188.8350  177.7340  140.4520 C   0  0  0  0  0  0  0  0  0  0  0  0
  188.6690  177.5480  142.8650 C   0  0  0  0  0  0  0  0  0  0  0  0
  189.9700  176.9130  145.3590 C   0  0  0  0  0  2  0  0  0  0  0  0
  188.0920  177.8510  141.6320 C   0  0  0  0  0  3  0  0  0  0  0  0
  190.0170  177.1260  142.9060 C   0  0  0  0  0  0  0  0  0  0  0  0
  188.5350  177.3390  145.2760 C   0  0  0  0  0  0  0  0  0  0  0  0
  190.1680  177.3160  140.5400 C   0  0  0  0  0  3  0  0  0  0  0  0
  187.8430  177.4300  146.3230 O   0  0  0  0  0  0  0  0  0  0  0  0
  190.6010  176.8340  144.0350 N   0  0  0  0  0  0  0  0  0  0  0  0
  187.9420  177.6570  143.9750 C   0  0  0  0  0  3  0  0  0  0  0  0
  190.7210  177.0210  141.7480 N   0  0  0  0  0  0  0  0  0  0  0  0
  184.9230  175.6470  136.9820 C   0  0  0  0  0  2  0  0  0  0  0  0
  185.8730  175.4640  135.8200 C   0  0  0  0  0  2  0  0  0  0  0  0
  185.9090  176.7440  136.6290 C   0  0  0  0  0  3  0  0  0  0  0  0
  186.1280  178.7300  138.5260 O   0  0  0  0  0  0  0  0  0  0  0  0
  184.1060  179.7330  139.2530 C   0  0  0  0  0  2  0  0  0  0  0  0
  184.7850  179.0990  140.4450 C   0  0  0  0  0  2  0  0  0  0  0  0
  184.8820  178.4440  139.0830 C   0  0  0  0  0  3  0  0  0  0  0  0
  189.3520  175.8540  136.7700 C   0  0  2  0  0  3  0  0  0  0  0  0
  191.6810  175.1060  136.9890 C   0  0  1  0  0  3  0  0  0  0  0  0
  191.1160  175.2620  138.2690 O   0  0  0  0  0  0  0  0  0  0  0  0
  190.7350  176.2020  137.2950 C   0  0  2  0  0  3  0  0  0  0  0  0
  193.1140  175.6330  136.9880 C   0  0  1  0  0  3  0  0  0  0  0  0
  194.1250  174.4890  137.2140 C   0  0  2  0  0  0  0  0  0  0  0  0
  193.7250  173.0920  136.7550 C   0  0  0  0  0  1  0  0  0  0  0  0
  195.1630  174.6370  138.3310 C   0  0  2  0  0  3  0  0  0  0  0  0
  195.5610  174.8320  136.8740 C   0  0  0  0  0  2  0  0  0  0  0  0
  195.7120  173.3080  138.8280 C   0  0  0  0  0  1  0  0  0  0  0  0
  193.3830  176.4480  135.7210 C   0  0  0  0  0  2  0  0  0  0  0  0
  192.9780  175.6720  134.4820 C   0  0  0  0  0  1  0  0  0  0  0  0
  189.4470  175.3810  135.3950 N   0  0  0  0  0  2  0  0  0  0  0  0
  189.8230  173.2710  134.4820 O   0  0  0  0  0  1  0  0  0  0  0  0
  189.0340  173.9860  135.3840 C   0  0  0  0  0  2  0  0  0  0  0  0
  1 24  1  1  0  0  0
  1  5  1  0  0  0  0
  1  2  1  0  0  0  0
  2  4  1  0  0  0  0
  3 20  1  6  0  0  0
  3  4  1  0  0  0  0
  4  6  1  0  0  0  0
  5 19  1  6  0  0  0
  5  3  1  0  0  0  0
  6 12  1  0  0  0  0
  6  9  2  0  0  0  0
  7 10  1  0  0  0  0
  7 15  2  0  0  0  0
  9  7  1  0  0  0  0
 10 14  2  0  0  0  0
 11  8  1  0  0  0  0
 11 13  2  0  0  0  0
 12 16  2  0  0  0  0
 14  8  1  0  0  0  0
 15 11  1  0  0  0  0
 16 10  1  0  0  0  0
 18 19  1  0  0  0  0
 18 17  1  0  0  0  0
 19 17  1  0  0  0  0
 20 23  1  0  0  0  0
 21 22  1  0  0  0  0
 23 21  1  0  0  0  0
 23 22  1  0  0  0  0
 24 36  1  6  0  0  0
 25 28  1  1  0  0  0
 25 27  1  0  0  0  0
 25 26  1  0  0  0  0
 27 24  1  6  0  0  0
 27 26  1  0  0  0  0
 28 34  1  6  0  0  0
 28 29  1  0  0  0  0
 29 30  1  6  0  0  0
 29 31  1  0  0  0  0
 31 33  1  6  0  0  0
 32 29  1  0  0  0  0
 32 31  1  0  0  0  0
 35 34  1  0  0  0  0
 37 38  1  0  0  0  0
 38 36  1  0  0  0  0
M  END
>  <MODEL>
7

>  <REMARK>
 VINA RESULT:      -5.7      3.005      6.599
  Name = 
  11 active torsions:
  status: ('A' for Active; 'I' for Inactive)
    1  A    between atoms: C_1  and  N_31
    2  A    between atoms: C_3  and  C_24
    3  A    between atoms: C_7  and  C_24
    4  A    between atoms: O_11  and  C_22
    5  A    between atoms: O_11  and  C_29
    6  A    between atoms: C_12  and  C_24
    7  A    between atoms: C_14  and  C_26
    8  A    between atoms: N_17  and  C_26
    9  A    between atoms: N_17  and  C_38
   10  A    between atoms: C_23  and  C_26
   11  A    between atoms: C_33  and  C_34
                            x       y       z     vdW  Elec       q    Type
                         _______ _______ _______ _____ _____    ______ ____

>  <TORSDO>
F 11

$$$$
=
 OpenBabel10232408113D

 38 44  0  0  1  0  0  0  0  0999 V2000
  188.3480  176.8430  137.5130 C   0  0  2  0  0  3  0  0  0  0  0  0
  188.0260  178.5900  137.9220 S   0  0  0  0  0  0  0  0  0  0  0  0
  185.8540  177.0600  137.6680 C   0  0  2  0  0  3  0  0  0  0  0  0
  186.4140  178.1350  138.4610 N   0  0  0  0  0  0  0  0  0  0  0  0
  187.0120  176.0910  137.3930 C   0  0  1  0  0  3  0  0  0  0  0  0
  185.9510  178.4130  139.7920 C   0  0  0  0  0  0  0  0  0  0  0  0
  184.1460  178.6320  141.3980 C   0  0  0  0  0  0  0  0  0  0  0  0
  183.3410  179.2490  144.0970 C   0  0  0  0  0  2  0  0  0  0  0  0
  184.5880  178.3510  140.1050 C   0  0  0  0  0  3  0  0  0  0  0  0
  185.0910  178.9840  142.3850 C   0  0  0  0  0  0  0  0  0  0  0  0
  182.3670  178.8470  143.0310 C   0  0  0  0  0  0  0  0  0  0  0  0
  186.8530  178.7700  140.8020 C   0  0  0  0  0  3  0  0  0  0  0  0
  181.1400  178.7650  143.2960 O   0  0  0  0  0  0  0  0  0  0  0  0
  184.7260  179.2570  143.6070 N   0  0  0  0  0  0  0  0  0  0  0  0
  182.8450  178.5580  141.6760 C   0  0  0  0  0  3  0  0  0  0  0  0
  186.4100  179.0400  142.0590 N   0  0  0  0  0  0  0  0  0  0  0  0
  186.3890  173.9530  136.2820 C   0  0  0  0  0  2  0  0  0  0  0  0
  187.8620  174.1920  136.0370 C   0  0  0  0  0  2  0  0  0  0  0  0
  186.9010  175.3630  136.0570 C   0  0  0  0  0  3  0  0  0  0  0  0
  185.3330  177.5890  136.4810 O   0  0  0  0  0  0  0  0  0  0  0  0
  183.2880  177.6640  135.2820 C   0  0  0  0  0  2  0  0  0  0  0  0
  182.9840  177.7510  136.7600 C   0  0  0  0  0  2  0  0  0  0  0  0
  184.1380  176.9000  136.2750 C   0  0  0  0  0  3  0  0  0  0  0  0
  189.2760  176.2240  138.5640 C   0  0  2  0  0  3  0  0  0  0  0  0
  190.4720  176.6020  140.6750 C   0  0  1  0  0  3  0  0  0  0  0  0
  189.0970  176.8270  140.8690 O   0  0  0  0  0  0  0  0  0  0  0  0
  189.6330  177.2390  139.6370 C   0  0  2  0  0  3  0  0  0  0  0  0
  191.2800  177.6600  141.4220 C   0  0  1  0  0  3  0  0  0  0  0  0
  191.0390  177.5690  142.9440 C   0  0  2  0  0  0  0  0  0  0  0  0
  191.3300  176.2390  143.6280 C   0  0  0  0  0  1  0  0  0  0  0  0
  190.0350  178.5320  143.5870 C   0  0  2  0  0  3  0  0  0  0  0  0
  191.5320  178.7610  143.7390 C   0  0  0  0  0  2  0  0  0  0  0  0
  189.4670  178.0260  144.9040 C   0  0  0  0  0  1  0  0  0  0  0  0
  192.7570  177.5810  141.0300 C   0  0  0  0  0  2  0  0  0  0  0  0
  192.9080  177.2990  139.5470 C   0  0  0  0  0  1  0  0  0  0  0  0
  190.4900  175.6980  137.9520 N   0  0  0  0  0  2  0  0  0  0  0  0
  191.5750  175.7250  135.8920 O   0  0  0  0  0  1  0  0  0  0  0  0
  190.7170  176.4440  136.7240 C   0  0  0  0  0  2  0  0  0  0  0  0
  1  2  1  0  0  0  0
  1 24  1  1  0  0  0
  2  4  1  0  0  0  0
  3 20  1  6  0  0  0
  3  4  1  0  0  0  0
  4  6  1  0  0  0  0
  5 19  1  6  0  0  0
  5  1  1  0  0  0  0
  5  3  1  0  0  0  0
  6  9  2  0  0  0  0
  6 12  1  0  0  0  0
  7 15  2  0  0  0  0
  7 10  1  0  0  0  0
  9  7  1  0  0  0  0
 10 14  2  0  0  0  0
 11 13  2  0  0  0  0
 11  8  1  0  0  0  0
 12 16  2  0  0  0  0
 14  8  1  0  0  0  0
 15 11  1  0  0  0  0
 16 10  1  0  0  0  0
 18 19  1  0  0  0  0
 18 17  1  0  0  0  0
 19 17  1  0  0  0  0
 21 23  1  0  0  0  0
 21 22  1  0  0  0  0
 23 20  1  0  0  0  0
 23 22  1  0  0  0  0
 24 36  1  6  0  0  0
 25 26  1  0  0  0  0
 25 28  1  1  0  0  0
 27 24  1  6  0  0  0
 27 25  1  0  0  0  0
 27 26  1  0  0  0  0
 28 34  1  1  0  0  0
 28 29  1  0  0  0  0
 29 31  1  0  0  0  0
 29 30  1  1  0  0  0
 29 32  1  0  0  0  0
 31 32  1  0  0  0  0
 31 33  1  1  0  0  0
 35 34  1  0  0  0  0
 37 38  1  0  0  0  0
 38 36  1  0  0  0  0
M  END
>  <MODEL>
8

>  <REMARK>
 VINA RESULT:      -5.5      2.770      6.631
  Name = 
  11 active torsions:
  status: ('A' for Active; 'I' for Inactive)
    1  A    between atoms: C_1  and  N_31
    2  A    between atoms: C_3  and  C_24
    3  A    between atoms: C_7  and  C_24
    4  A    between atoms: O_11  and  C_22
    5  A    between atoms: O_11  and  C_29
    6  A    between atoms: C_12  and  C_24
    7  A    between atoms: C_14  and  C_26
    8  A    between atoms: N_17  and  C_26
    9  A    between atoms: N_17  and  C_38
   10  A    between atoms: C_23  and  C_26
   11  A    between atoms: C_33  and  C_34
                            x       y       z     vdW  Elec       q    Type
                         _______ _______ _______ _____ _____    ______ ____

>  <TORSDO>
F 11

$$$$
=
 OpenBabel10232408113D

 38 44  0  0  1  0  0  0  0  0999 V2000
  182.1340  178.4240  139.0770 C   0  0  2  0  0  3  0  0  0  0  0  0
  183.3250  179.8000  138.9740 S   0  0  0  0  0  0  0  0  0  0  0  0
  183.6580  178.1580  141.0520 C   0  0  2  0  0  3  0  0  0  0  0  0
  184.3920  178.9180  140.0610 N   0  0  0  0  0  0  0  0  0  0  0  0
  182.4430  177.5710  140.3200 C   0  0  1  0  0  3  0  0  0  0  0  0
  185.7400  178.5800  139.6960 C   0  0  0  0  0  0  0  0  0  0  0  0
  187.3910  178.0070  138.0140 C   0  0  0  0  0  0  0  0  0  0  0  0
  190.1220  177.3000  137.4150 C   0  0  0  0  0  2  0  0  0  0  0  0
  186.0820  178.3440  138.3590 C   0  0  0  0  0  3  0  0  0  0  0  0
  188.3640  177.9030  139.0310 C   0  0  0  0  0  0  0  0  0  0  0  0
  189.0690  177.4430  136.3570 C   0  0  0  0  0  0  0  0  0  0  0  0
  186.7360  178.4640  140.6720 C   0  0  0  0  0  3  0  0  0  0  0  0
  189.3600  177.2550  135.1490 O   0  0  0  0  0  0  0  0  0  0  0  0
  189.6000  177.5900  138.7580 N   0  0  0  0  0  0  0  0  0  0  0  0
  187.6980  177.7940  136.7350 C   0  0  0  0  0  3  0  0  0  0  0  0
  188.0090  178.1360  140.3230 N   0  0  0  0  0  0  0  0  0  0  0  0
  180.2640  176.3990  140.5840 C   0  0  0  0  0  2  0  0  0  0  0  0
  179.9820  177.8780  140.4530 C   0  0  0  0  0  2  0  0  0  0  0  0
  181.2110  177.4090  141.2040 C   0  0  0  0  0  3  0  0  0  0  0  0
  183.2680  179.0130  142.0900 O   0  0  0  0  0  0  0  0  0  0  0  0
  183.1990  178.8280  144.4540 C   0  0  0  0  0  2  0  0  0  0  0  0
  184.3010  179.7920  144.0770 C   0  0  0  0  0  2  0  0  0  0  0  0
  184.0100  178.5960  143.1950 C   0  0  0  0  0  3  0  0  0  0  0  0
  182.1700  177.6040  137.7830 C   0  0  2  0  0  3  0  0  0  0  0  0
  182.9790  175.5390  136.7270 C   0  0  1  0  0  3  0  0  0  0  0  0
  182.2670  175.2190  137.8980 O   0  0  0  0  0  0  0  0  0  0  0  0
  183.0580  176.3810  137.9410 C   0  0  2  0  0  3  0  0  0  0  0  0
  184.2190  174.6550  136.6180 C   0  0  1  0  0  3  0  0  0  0  0  0
  183.8520  173.2480  136.0990 C   0  0  2  0  0  0  0  0  0  0  0  0
  182.7520  173.1470  135.0490 C   0  0  0  0  0  1  0  0  0  0  0  0
  184.1420  172.0380  136.9920 C   0  0  2  0  0  3  0  0  0  0  0  0
  185.0360  172.3520  135.8010 C   0  0  0  0  0  2  0  0  0  0  0  0
  183.2810  170.8260  136.6700 C   0  0  0  0  0  1  0  0  0  0  0  0
  185.3010  175.3520  135.7890 C   0  0  0  0  0  2  0  0  0  0  0  0
  184.6820  176.1820  134.6800 C   0  0  0  0  0  1  0  0  0  0  0  0
  182.6310  178.4110  136.6600 N   0  0  0  0  0  2  0  0  0  0  0  0
  181.0790  180.0070  135.9790 O   0  0  0  0  0  1  0  0  0  0  0  0
  181.4790  178.6810  135.8150 C   0  0  0  0  0  2  0  0  0  0  0  0
  1 24  1  6  0  0  0
  1  5  1  0  0  0  0
  2  1  1  0  0  0  0
  2  4  1  0  0  0  0
  3 20  1  1  0  0  0
  4  3  1  0  0  0  0
  5  3  1  0  0  0  0
  5 19  1  1  0  0  0
  6  4  1  0  0  0  0
  6 12  1  0  0  0  0
  7  9  1  0  0  0  0
  7 10  1  0  0  0  0
  8 14  1  0  0  0  0
  9  6  2  0  0  0  0
 10 16  1  0  0  0  0
 11 15  1  0  0  0  0
 11  8  1  0  0  0  0
 13 11  2  0  0  0  0
 14 10  2  0  0  0  0
 15  7  2  0  0  0  0
 16 12  2  0  0  0  0
 17 19  1  0  0  0  0
 18 17  1  0  0  0  0
 18 19  1  0  0  0  0
 20 23  1  0  0  0  0
 22 21  1  0  0  0  0
 23 22  1  0  0  0  0
 23 21  1  0  0  0  0
 24 36  1  6  0  0  0
 25 28  1  1  0  0  0
 25 26  1  0  0  0  0
 25 27  1  0  0  0  0
 26 27  1  0  0  0  0
 27 24  1  6  0  0  0
 28 34  1  6  0  0  0
 29 30  1  6  0  0  0
 29 28  1  0  0  0  0
 29 31  1  0  0  0  0
 31 33  1  6  0  0  0
 32 29  1  0  0  0  0
 32 31  1  0  0  0  0
 35 34  1  0  0  0  0
 38 37  1  0  0  0  0
 38 36  1  0  0  0  0
M  END
>  <MODEL>
9

>  <REMARK>
 VINA RESULT:      -5.5      4.270      7.966
  Name = 
  11 active torsions:
  status: ('A' for Active; 'I' for Inactive)
    1  A    between atoms: C_1  and  N_31
    2  A    between atoms: C_3  and  C_24
    3  A    between atoms: C_7  and  C_24
    4  A    between atoms: O_11  and  C_22
    5  A    between atoms: O_11  and  C_29
    6  A    between atoms: C_12  and  C_24
    7  A    between atoms: C_14  and  C_26
    8  A    between atoms: N_17  and  C_26
    9  A    between atoms: N_17  and  C_38
   10  A    between atoms: C_23  and  C_26
   11  A    between atoms: C_33  and  C_34
                            x       y       z     vdW  Elec       q    Type
                         _______ _______ _______ _____ _____    ______ ____

>  <TORSDO>
F 11

$$$$
