=
 OpenBabel10232411433D

 27 30  0  0  0  0  0  0  0  0999 V2000
  189.9380  176.9250  144.2340 C   0  0  0  0  0  0  0  0  0  0  0  0
  191.2270  176.5330  144.6110 C   0  0  0  0  0  3  0  0  0  0  0  0
  187.3180  178.0930  147.8520 C   0  0  0  0  0  3  0  0  0  0  0  0
  188.9920  177.3200  145.2160 C   0  0  0  0  0  0  0  0  0  0  0  0
  185.4000  178.4740  144.8850 C   0  0  0  0  0  0  0  0  0  0  0  0
  190.6870  176.9060  146.9200 C   0  0  0  0  0  3  0  0  0  0  0  0
  185.0380  178.4710  143.4390 C   0  0  0  0  0  1  0  0  0  0  0  0
  187.7340  177.6920  144.7270 C   0  0  0  0  0  3  0  0  0  0  0  0
  186.6200  178.1180  145.4210 C   0  0  0  0  0  0  0  0  0  0  0  0
  186.4190  178.3030  146.8340 C   0  0  0  0  0  0  0  0  0  0  0  0
  188.6260  177.6510  147.7170 C   0  0  0  0  0  3  0  0  0  0  0  0
  191.6010  176.5230  145.9470 C   0  0  0  0  0  3  0  0  0  0  0  0
  189.3870  177.3060  146.5930 C   0  0  0  0  0  0  0  0  0  0  0  0
  184.5480  178.8370  145.8650 N   0  0  0  0  0  0  0  0  0  0  0  0
  185.1600  178.7350  147.0370 N   0  0  0  0  0  0  0  0  0  0  0  0
  190.3800  177.3280  141.9390 N   0  0  0  0  0  0  0  0  0  0  0  0
  189.5780  176.9270  142.8430 N   0  0  0  0  0  0  0  0  0  0  0  0
  190.5580  176.9890  138.2140 C   0  0  0  0  0  3  0  0  0  0  0  0
  189.2490  177.3280  137.8580 C   0  0  0  0  0  0  0  0  0  0  0  0
  190.0140  177.3260  140.5580 C   0  0  0  0  0  0  0  0  0  0  0  0
  188.3210  177.6720  138.8520 C   0  0  0  0  0  0  0  0  0  0  0  0
  188.8910  177.3200  136.5510 F   0  0  0  0  0  0  0  0  0  0  0  0
  188.7060  177.6630  140.1970 C   0  0  0  0  0  3  0  0  0  0  0  0
  190.9410  176.9890  139.5580 C   0  0  0  0  0  3  0  0  0  0  0  0
  186.9140  178.0120  138.4950 C   0  0  0  0  0  2  0  0  0  0  0  0
  186.3120  178.6970  139.5510 O   0  0  0  0  0  0  0  0  0  0  0  0
  184.9500  178.6630  139.2580 C   0  0  0  0  0  1  0  0  0  0  0  0
  1  2  2  0  0  0  0
  1  4  1  0  0  0  0
  2 12  1  0  0  0  0
  4 13  1  0  0  0  0
  5  9  2  0  0  0  0
  5 14  1  0  0  0  0
  7  5  1  0  0  0  0
  8  4  2  0  0  0  0
  8  9  1  0  0  0  0
  9 10  1  0  0  0  0
 10 15  1  0  0  0  0
 10  3  2  0  0  0  0
 11  3  1  0  0  0  0
 12  6  2  0  0  0  0
 13  6  1  0  0  0  0
 13 11  2  0  0  0  0
 14 15  2  0  0  0  0
 16 17  2  0  0  0  0
 17  1  1  0  0  0  0
 18 24  1  0  0  0  0
 19 18  2  0  0  0  0
 19 21  1  0  0  0  0
 20 16  1  0  0  0  0
 21 23  2  0  0  0  0
 22 19  1  0  0  0  0
 23 20  1  0  0  0  0
 24 20  2  0  0  0  0
 25 21  1  0  0  0  0
 25 26  1  0  0  0  0
 27 26  1  0  0  0  0
M  END
>  <MODEL>
1

>  <REMARK>
 VINA RESULT:     -10.6      0.000      0.000
  Name = 
  4 active torsions:
  status: ('A' for Active; 'I' for Inactive)
    1  A    between atoms: N_2  and  C_13
    2  A    between atoms: C_3  and  N_9
    3  A    between atoms: C_16  and  C_21
    4  A    between atoms: C_21  and  O_22
                            x       y       z     vdW  Elec       q    Type
                         _______ _______ _______ _____ _____    ______ ____

>  <TORSDO>
F 4

$$$$
=
 OpenBabel10232411433D

 27 30  0  0  0  0  0  0  0  0999 V2000
  190.0110  176.8260  144.4800 C   0  0  0  0  0  0  0  0  0  0  0  0
  191.2970  176.4470  144.8800 C   0  0  0  0  0  3  0  0  0  0  0  0
  187.4050  178.2380  148.0210 C   0  0  0  0  0  3  0  0  0  0  0  0
  189.0700  177.2890  145.4360 C   0  0  0  0  0  0  0  0  0  0  0  0
  185.4880  178.4520  145.0360 C   0  0  0  0  0  0  0  0  0  0  0  0
  190.7640  176.9670  147.1620 C   0  0  0  0  0  3  0  0  0  0  0  0
  185.1240  178.3620  143.5940 C   0  0  0  0  0  1  0  0  0  0  0  0
  187.8150  177.6410  144.9260 C   0  0  0  0  0  3  0  0  0  0  0  0
  186.7050  178.1190  145.5930 C   0  0  0  0  0  0  0  0  0  0  0  0
  186.5080  178.3920  146.9920 C   0  0  0  0  0  0  0  0  0  0  0  0
  188.7100  177.7760  147.9120 C   0  0  0  0  0  3  0  0  0  0  0  0
  191.6730  176.5160  146.2140 C   0  0  0  0  0  3  0  0  0  0  0  0
  189.4660  177.3570  146.8120 C   0  0  0  0  0  0  0  0  0  0  0  0
  184.6400  178.8820  145.9920 N   0  0  0  0  0  0  0  0  0  0  0  0
  185.2530  178.8460  147.1690 N   0  0  0  0  0  0  0  0  0  0  0  0
  190.0510  177.6020  142.2390 N   0  0  0  0  0  0  0  0  0  0  0  0
  189.6510  176.7450  143.0920 N   0  0  0  0  0  0  0  0  0  0  0  0
  188.2220  178.0770  139.0070 C   0  0  0  0  0  3  0  0  0  0  0  0
  189.0130  177.3130  138.1440 C   0  0  0  0  0  0  0  0  0  0  0  0
  189.6870  177.5120  140.8600 C   0  0  0  0  0  0  0  0  0  0  0  0
  190.1400  176.6420  138.6400 C   0  0  0  0  0  0  0  0  0  0  0  0
  188.6790  177.2290  136.8330 F   0  0  0  0  0  0  0  0  0  0  0  0
  190.4760  176.7500  139.9930 C   0  0  0  0  0  3  0  0  0  0  0  0
  188.5550  178.1760  140.3600 C   0  0  0  0  0  3  0  0  0  0  0  0
  191.0110  175.8420  137.7310 C   0  0  0  0  0  2  0  0  0  0  0  0
  190.9570  174.4960  138.0910 O   0  0  0  0  0  0  0  0  0  0  0  0
  190.3900  173.8610  136.9870 C   0  0  0  0  0  1  0  0  0  0  0  0
  1  2  2  0  0  0  0
  1  4  1  0  0  0  0
  2 12  1  0  0  0  0
  4 13  1  0  0  0  0
  5  9  2  0  0  0  0
  5 14  1  0  0  0  0
  7  5  1  0  0  0  0
  8  4  2  0  0  0  0
  8  9  1  0  0  0  0
  9 10  1  0  0  0  0
 10 15  1  0  0  0  0
 10  3  2  0  0  0  0
 11  3  1  0  0  0  0
 12  6  2  0  0  0  0
 13  6  1  0  0  0  0
 13 11  2  0  0  0  0
 14 15  2  0  0  0  0
 16 17  2  0  0  0  0
 17  1  1  0  0  0  0
 18 24  1  0  0  0  0
 19 21  1  0  0  0  0
 19 18  2  0  0  0  0
 20 16  1  0  0  0  0
 21 23  2  0  0  0  0
 22 19  1  0  0  0  0
 23 20  1  0  0  0  0
 24 20  2  0  0  0  0
 25 26  1  0  0  0  0
 25 21  1  0  0  0  0
 27 26  1  0  0  0  0
M  END
>  <MODEL>
2

>  <REMARK>
 VINA RESULT:     -10.6      1.460      2.328
  Name = 
  4 active torsions:
  status: ('A' for Active; 'I' for Inactive)
    1  A    between atoms: N_2  and  C_13
    2  A    between atoms: C_3  and  N_9
    3  A    between atoms: C_16  and  C_21
    4  A    between atoms: C_21  and  O_22
                            x       y       z     vdW  Elec       q    Type
                         _______ _______ _______ _____ _____    ______ ____

>  <TORSDO>
F 4

$$$$
=
 OpenBabel10232411433D

 27 30  0  0  0  0  0  0  0  0999 V2000
  186.5910  177.9000  144.1340 C   0  0  0  0  0  0  0  0  0  0  0  0
  185.2660  178.3230  144.2930 C   0  0  0  0  0  3  0  0  0  0  0  0
  188.8830  177.7310  148.1380 C   0  0  0  0  0  3  0  0  0  0  0  0
  187.4480  177.7880  145.2590 C   0  0  0  0  0  0  0  0  0  0  0  0
  191.0720  176.7210  145.5270 C   0  0  0  0  0  0  0  0  0  0  0  0
  185.5960  178.5350  146.6610 C   0  0  0  0  0  3  0  0  0  0  0  0
  191.5650  176.3910  144.1600 C   0  0  0  0  0  1  0  0  0  0  0  0
  188.7510  177.3560  144.9850 C   0  0  0  0  0  3  0  0  0  0  0  0
  189.8030  177.1500  145.8540 C   0  0  0  0  0  0  0  0  0  0  0  0
  189.8750  177.3170  147.2820 C   0  0  0  0  0  0  0  0  0  0  0  0
  187.5860  178.0800  147.7880 C   0  0  0  0  0  3  0  0  0  0  0  0
  184.7700  178.6390  145.5500 C   0  0  0  0  0  3  0  0  0  0  0  0
  186.9270  178.1170  146.5540 C   0  0  0  0  0  0  0  0  0  0  0  0
  191.8360  176.6350  146.6350 N   0  0  0  0  0  0  0  0  0  0  0  0
  191.1160  176.9930  147.6910 N   0  0  0  0  0  0  0  0  0  0  0  0
  187.3020  178.4760  141.9460 N   0  0  0  0  0  0  0  0  0  0  0  0
  187.0760  177.5790  142.8210 N   0  0  0  0  0  0  0  0  0  0  0  0
  187.4980  178.0360  138.2330 C   0  0  0  0  0  3  0  0  0  0  0  0
  188.7780  177.4900  138.1020 C   0  0  0  0  0  0  0  0  0  0  0  0
  187.7860  178.1470  140.6430 C   0  0  0  0  0  0  0  0  0  0  0  0
  189.5620  177.2660  139.2430 C   0  0  0  0  0  0  0  0  0  0  0  0
  189.2470  177.1820  136.8680 F   0  0  0  0  0  0  0  0  0  0  0  0
  189.0660  177.6010  140.5060 C   0  0  0  0  0  3  0  0  0  0  0  0
  187.0010  178.3630  139.4980 C   0  0  0  0  0  3  0  0  0  0  0  0
  190.9400  176.7070  139.1220 C   0  0  0  0  0  2  0  0  0  0  0  0
  190.8740  175.3670  138.7410 O   0  0  0  0  0  0  0  0  0  0  0  0
  191.8760  175.2270  137.7830 C   0  0  0  0  0  1  0  0  0  0  0  0
  1  2  2  0  0  0  0
  1  4  1  0  0  0  0
  2 12  1  0  0  0  0
  4 13  1  0  0  0  0
  5  9  2  0  0  0  0
  5 14  1  0  0  0  0
  7  5  1  0  0  0  0
  8  4  2  0  0  0  0
  8  9  1  0  0  0  0
  9 10  1  0  0  0  0
 10 15  1  0  0  0  0
 10  3  2  0  0  0  0
 11  3  1  0  0  0  0
 12  6  2  0  0  0  0
 13  6  1  0  0  0  0
 13 11  2  0  0  0  0
 14 15  2  0  0  0  0
 16 17  2  0  0  0  0
 17  1  1  0  0  0  0
 18 24  1  0  0  0  0
 19 18  2  0  0  0  0
 19 21  1  0  0  0  0
 20 16  1  0  0  0  0
 21 23  2  0  0  0  0
 22 19  1  0  0  0  0
 23 20  1  0  0  0  0
 24 20  2  0  0  0  0
 25 21  1  0  0  0  0
 26 25  1  0  0  0  0
 27 26  1  0  0  0  0
M  END
>  <MODEL>
3

>  <REMARK>
 VINA RESULT:     -10.4      2.027      4.375
  Name = 
  4 active torsions:
  status: ('A' for Active; 'I' for Inactive)
    1  A    between atoms: N_2  and  C_13
    2  A    between atoms: C_3  and  N_9
    3  A    between atoms: C_16  and  C_21
    4  A    between atoms: C_21  and  O_22
                            x       y       z     vdW  Elec       q    Type
                         _______ _______ _______ _____ _____    ______ ____

>  <TORSDO>
F 4

$$$$
=
 OpenBabel10232411433D

 27 30  0  0  0  0  0  0  0  0999 V2000
  186.8020  177.8470  143.7930 C   0  0  0  0  0  0  0  0  0  0  0  0
  185.4640  178.2560  143.8170 C   0  0  0  0  0  3  0  0  0  0  0  0
  188.6800  177.6980  148.0080 C   0  0  0  0  0  3  0  0  0  0  0  0
  187.5420  177.7430  144.9990 C   0  0  0  0  0  0  0  0  0  0  0  0
  191.1320  176.7140  145.6300 C   0  0  0  0  0  0  0  0  0  0  0  0
  185.5510  178.4690  146.2070 C   0  0  0  0  0  3  0  0  0  0  0  0
  191.7640  176.3900  144.3200 C   0  0  0  0  0  1  0  0  0  0  0  0
  188.8700  177.3250  144.8570 C   0  0  0  0  0  3  0  0  0  0  0  0
  189.8320  177.1290  145.8280 C   0  0  0  0  0  0  0  0  0  0  0  0
  189.7580  177.2950  147.2560 C   0  0  0  0  0  0  0  0  0  0  0  0
  187.4220  178.0330  147.5280 C   0  0  0  0  0  3  0  0  0  0  0  0
  184.8400  178.5660  145.0170 C   0  0  0  0  0  3  0  0  0  0  0  0
  186.8900  178.0650  146.2340 C   0  0  0  0  0  0  0  0  0  0  0  0
  191.7810  176.6340  146.8100 N   0  0  0  0  0  0  0  0  0  0  0  0
  190.9550  176.9840  147.7880 N   0  0  0  0  0  0  0  0  0  0  0  0
  188.4410  178.1650  142.1080 N   0  0  0  0  0  0  0  0  0  0  0  0
  187.4210  177.5330  142.5350 N   0  0  0  0  0  0  0  0  0  0  0  0
  190.6660  176.6020  139.5340 C   0  0  0  0  0  3  0  0  0  0  0  0
  190.2140  177.2410  138.3750 C   0  0  0  0  0  0  0  0  0  0  0  0
  189.0500  177.8440  140.8560 C   0  0  0  0  0  0  0  0  0  0  0  0
  189.1820  178.1880  138.4560 C   0  0  0  0  0  0  0  0  0  0  0  0
  190.7820  176.9360  137.1820 F   0  0  0  0  0  0  0  0  0  0  0  0
  188.6010  178.4800  139.6940 C   0  0  0  0  0  3  0  0  0  0  0  0
  190.0880  176.9020  140.7700 C   0  0  0  0  0  3  0  0  0  0  0  0
  188.6690  178.8620  137.2290 C   0  0  0  0  0  2  0  0  0  0  0  0
  187.2840  178.9980  137.3100 O   0  0  0  0  0  0  0  0  0  0  0  0
  186.7870  178.0380  136.4300 C   0  0  0  0  0  1  0  0  0  0  0  0
  1  2  2  0  0  0  0
  1  4  1  0  0  0  0
  2 12  1  0  0  0  0
  4 13  1  0  0  0  0
  5  9  2  0  0  0  0
  5 14  1  0  0  0  0
  6 13  1  0  0  0  0
  7  5  1  0  0  0  0
  8  4  2  0  0  0  0
  8  9  1  0  0  0  0
  9 10  1  0  0  0  0
 10 15  1  0  0  0  0
 10  3  2  0  0  0  0
 11  3  1  0  0  0  0
 12  6  2  0  0  0  0
 13 11  2  0  0  0  0
 14 15  2  0  0  0  0
 16 17  2  0  0  0  0
 17  1  1  0  0  0  0
 18 24  1  0  0  0  0
 19 21  1  0  0  0  0
 19 18  2  0  0  0  0
 20 16  1  0  0  0  0
 21 23  2  0  0  0  0
 22 19  1  0  0  0  0
 23 20  1  0  0  0  0
 24 20  2  0  0  0  0
 25 26  1  0  0  0  0
 25 21  1  0  0  0  0
 27 26  1  0  0  0  0
M  END
>  <MODEL>
4

>  <REMARK>
 VINA RESULT:     -10.3      1.847      3.819
  Name = 
  4 active torsions:
  status: ('A' for Active; 'I' for Inactive)
    1  A    between atoms: N_2  and  C_13
    2  A    between atoms: C_3  and  N_9
    3  A    between atoms: C_16  and  C_21
    4  A    between atoms: C_21  and  O_22
                            x       y       z     vdW  Elec       q    Type
                         _______ _______ _______ _____ _____    ______ ____

>  <TORSDO>
F 4

$$$$
=
 OpenBabel10232411433D

 27 30  0  0  0  0  0  0  0  0999 V2000
  189.0840  177.1000  144.4720 C   0  0  0  0  0  0  0  0  0  0  0  0
  190.2150  176.7850  145.2330 C   0  0  0  0  0  3  0  0  0  0  0  0
  185.5660  178.5840  147.0670 C   0  0  0  0  0  3  0  0  0  0  0  0
  187.9040  177.5740  145.1020 C   0  0  0  0  0  0  0  0  0  0  0  0
  184.5540  178.5920  143.6600 C   0  0  0  0  0  0  0  0  0  0  0  0
  189.0550  177.3920  147.2450 C   0  0  0  0  0  3  0  0  0  0  0  0
  184.6090  178.4230  142.1810 C   0  0  0  0  0  1  0  0  0  0  0  0
  186.8350  177.8580  144.2450 C   0  0  0  0  0  3  0  0  0  0  0  0
  185.5730  178.3280  144.5500 C   0  0  0  0  0  0  0  0  0  0  0  0
  184.9880  178.6590  145.8220 C   0  0  0  0  0  0  0  0  0  0  0  0
  186.8570  178.1640  147.3500 C   0  0  0  0  0  3  0  0  0  0  0  0
  190.2020  176.9290  146.6130 C   0  0  0  0  0  3  0  0  0  0  0  0
  187.8990  177.7200  146.5280 C   0  0  0  0  0  0  0  0  0  0  0  0
  183.4640  179.0360  144.3180 N   0  0  0  0  0  0  0  0  0  0  0  0
  183.7240  179.0770  145.6180 N   0  0  0  0  0  0  0  0  0  0  0  0
  189.5920  177.8460  142.2780 N   0  0  0  0  0  0  0  0  0  0  0  0
  189.1270  176.9420  143.0450 N   0  0  0  0  0  0  0  0  0  0  0  0
  188.7100  178.0730  138.6470 C   0  0  0  0  0  3  0  0  0  0  0  0
  189.7500  177.3300  138.0790 C   0  0  0  0  0  0  0  0  0  0  0  0
  189.6310  177.6790  140.8600 C   0  0  0  0  0  0  0  0  0  0  0  0
  190.7290  176.7550  138.9020 C   0  0  0  0  0  0  0  0  0  0  0  0
  189.7970  177.1730  136.7330 F   0  0  0  0  0  0  0  0  0  0  0  0
  190.6690  176.9380  140.2870 C   0  0  0  0  0  3  0  0  0  0  0  0
  188.6490  178.2470  140.0320 C   0  0  0  0  0  3  0  0  0  0  0  0
  191.8590  175.9810  138.3140 C   0  0  0  0  0  2  0  0  0  0  0  0
  191.4580  174.6660  138.0790 O   0  0  0  0  0  0  0  0  0  0  0  0
  192.2150  174.2600  136.9810 C   0  0  0  0  0  1  0  0  0  0  0  0
  1  4  2  0  0  0  0
  1  2  1  0  0  0  0
  2 12  2  0  0  0  0
  3 11  2  0  0  0  0
  4 13  1  0  0  0  0
  5 14  2  0  0  0  0
  5  9  1  0  0  0  0
  7  5  1  0  0  0  0
  8  9  2  0  0  0  0
  8  4  1  0  0  0  0
  9 10  1  0  0  0  0
 10  3  1  0  0  0  0
 12  6  1  0  0  0  0
 13  6  2  0  0  0  0
 13 11  1  0  0  0  0
 14 15  1  0  0  0  0
 15 10  2  0  0  0  0
 16 17  2  0  0  0  0
 17  1  1  0  0  0  0
 18 24  1  0  0  0  0
 19 18  2  0  0  0  0
 19 21  1  0  0  0  0
 20 16  1  0  0  0  0
 21 23  2  0  0  0  0
 22 19  1  0  0  0  0
 23 20  1  0  0  0  0
 24 20  2  0  0  0  0
 25 21  1  0  0  0  0
 26 25  1  0  0  0  0
 27 26  1  0  0  0  0
M  END
>  <MODEL>
5

>  <REMARK>
 VINA RESULT:     -10.3      1.708      2.811
  Name = 
  4 active torsions:
  status: ('A' for Active; 'I' for Inactive)
    1  A    between atoms: N_2  and  C_13
    2  A    between atoms: C_3  and  N_9
    3  A    between atoms: C_16  and  C_21
    4  A    between atoms: C_21  and  O_22
                            x       y       z     vdW  Elec       q    Type
                         _______ _______ _______ _____ _____    ______ ____

>  <TORSDO>
F 4

$$$$
=
 OpenBabel10232411433D

 27 30  0  0  0  0  0  0  0  0999 V2000
  187.1140  177.7530  145.6920 C   0  0  0  0  0  0  0  0  0  0  0  0
  186.8430  177.7850  147.0640 C   0  0  0  0  0  3  0  0  0  0  0  0
  191.6130  177.2390  144.7910 C   0  0  0  0  0  3  0  0  0  0  0  0
  188.4460  177.6000  145.2270 C   0  0  0  0  0  0  0  0  0  0  0  0
  189.8490  177.4370  141.7130 C   0  0  0  0  0  0  0  0  0  0  0  0
  189.1790  177.5180  147.5520 C   0  0  0  0  0  3  0  0  0  0  0  0
  188.7180  177.5650  140.7510 C   0  0  0  0  0  1  0  0  0  0  0  0
  188.6020  177.5810  143.8360 C   0  0  0  0  0  3  0  0  0  0  0  0
  189.7540  177.4490  143.0880 C   0  0  0  0  0  0  0  0  0  0  0  0
  191.1220  177.2940  143.5090 C   0  0  0  0  0  0  0  0  0  0  0  0
  190.8720  177.3250  145.9610 C   0  0  0  0  0  3  0  0  0  0  0  0
  187.8700  177.6680  147.9910 C   0  0  0  0  0  3  0  0  0  0  0  0
  189.5000  177.4810  146.1910 C   0  0  0  0  0  0  0  0  0  0  0  0
  191.1350  177.2900  141.3350 N   0  0  0  0  0  0  0  0  0  0  0  0
  191.9010  177.2040  142.4150 N   0  0  0  0  0  0  0  0  0  0  0  0
  185.0250  178.6210  144.9810 N   0  0  0  0  0  0  0  0  0  0  0  0
  186.0320  177.8750  144.7560 N   0  0  0  0  0  0  0  0  0  0  0  0
  181.5950  179.0190  143.5340 C   0  0  0  0  0  3  0  0  0  0  0  0
  181.8800  178.9640  142.1660 C   0  0  0  0  0  0  0  0  0  0  0  0
  183.9530  178.7370  144.0430 C   0  0  0  0  0  0  0  0  0  0  0  0
  183.2030  178.7890  141.7350 C   0  0  0  0  0  0  0  0  0  0  0  0
  180.8700  179.0800  141.2700 F   0  0  0  0  0  0  0  0  0  0  0  0
  184.2340  178.6820  142.6750 C   0  0  0  0  0  3  0  0  0  0  0  0
  182.6260  178.9050  144.4700 C   0  0  0  0  0  3  0  0  0  0  0  0
  183.5310  178.7520  140.2810 C   0  0  0  0  0  2  0  0  0  0  0  0
  184.6670  179.5230  140.0350 O   0  0  0  0  0  0  0  0  0  0  0  0
  185.3910  178.7900  139.0970 C   0  0  0  0  0  1  0  0  0  0  0  0
  1  2  1  0  0  0  0
  2 12  2  0  0  0  0
  3 11  2  0  0  0  0
  4  1  2  0  0  0  0
  4 13  1  0  0  0  0
  5  9  1  0  0  0  0
  6 12  1  0  0  0  0
  7  5  1  0  0  0  0
  8  4  1  0  0  0  0
  9 10  1  0  0  0  0
  9  8  2  0  0  0  0
 10  3  1  0  0  0  0
 11 13  1  0  0  0  0
 13  6  2  0  0  0  0
 14  5  2  0  0  0  0
 14 15  1  0  0  0  0
 15 10  2  0  0  0  0
 17 16  2  0  0  0  0
 17  1  1  0  0  0  0
 18 24  1  0  0  0  0
 19 18  2  0  0  0  0
 20 24  2  0  0  0  0
 20 16  1  0  0  0  0
 21 19  1  0  0  0  0
 21 23  2  0  0  0  0
 22 19  1  0  0  0  0
 23 20  1  0  0  0  0
 25 21  1  0  0  0  0
 26 25  1  0  0  0  0
 27 26  1  0  0  0  0
M  END
>  <MODEL>
6

>  <REMARK>
 VINA RESULT:      -9.9      2.410      5.778
  Name = 
  4 active torsions:
  status: ('A' for Active; 'I' for Inactive)
    1  A    between atoms: N_2  and  C_13
    2  A    between atoms: C_3  and  N_9
    3  A    between atoms: C_16  and  C_21
    4  A    between atoms: C_21  and  O_22
                            x       y       z     vdW  Elec       q    Type
                         _______ _______ _______ _____ _____    ______ ____

>  <TORSDO>
F 4

$$$$
=
 OpenBabel10232411433D

 27 30  0  0  0  0  0  0  0  0999 V2000
  187.6580  177.5310  143.8920 C   0  0  0  0  0  0  0  0  0  0  0  0
  188.5220  177.3950  144.9840 C   0  0  0  0  0  3  0  0  0  0  0  0
  183.4420  178.9420  145.1370 C   0  0  0  0  0  3  0  0  0  0  0  0
  186.3180  177.9560  144.0850 C   0  0  0  0  0  0  0  0  0  0  0  0
  183.5090  178.5220  141.6090 C   0  0  0  0  0  0  0  0  0  0  0  0
  186.7750  178.0910  146.4770 C   0  0  0  0  0  3  0  0  0  0  0  0
  184.0190  178.2130  140.2430 C   0  0  0  0  0  1  0  0  0  0  0  0
  185.5440  178.0570  142.9230 C   0  0  0  0  0  3  0  0  0  0  0  0
  184.2250  178.4400  142.7840 C   0  0  0  0  0  0  0  0  0  0  0  0
  183.2640  178.8410  143.7780 C   0  0  0  0  0  0  0  0  0  0  0  0
  184.6090  178.6690  145.8360 C   0  0  0  0  0  3  0  0  0  0  0  0
  188.0840  177.6730  146.2710 C   0  0  0  0  0  3  0  0  0  0  0  0
  185.8740  178.2410  145.4170 C   0  0  0  0  0  0  0  0  0  0  0  0
  182.2480  178.9300  141.8570 N   0  0  0  0  0  0  0  0  0  0  0  0
  182.1010  179.1220  143.1620 N   0  0  0  0  0  0  0  0  0  0  0  0
  188.9160  178.0280  141.9430 N   0  0  0  0  0  0  0  0  0  0  0  0
  188.1400  177.2370  142.5710 N   0  0  0  0  0  0  0  0  0  0  0  0
  190.8390  176.4870  139.1240 C   0  0  0  0  0  3  0  0  0  0  0  0
  190.2860  177.1610  138.0310 C   0  0  0  0  0  0  0  0  0  0  0  0
  189.3890  177.7260  140.6290 C   0  0  0  0  0  0  0  0  0  0  0  0
  189.2870  178.1230  138.2370 C   0  0  0  0  0  0  0  0  0  0  0  0
  190.7250  176.8750  136.7810 F   0  0  0  0  0  0  0  0  0  0  0  0
  188.8390  178.3970  139.5330 C   0  0  0  0  0  3  0  0  0  0  0  0
  190.3950  176.7680  140.4190 C   0  0  0  0  0  3  0  0  0  0  0  0
  188.6660  178.8350  137.0820 C   0  0  0  0  0  2  0  0  0  0  0  0
  187.3080  179.0350  137.3270 O   0  0  0  0  0  0  0  0  0  0  0  0
  186.6750  177.9890  136.6590 C   0  0  0  0  0  1  0  0  0  0  0  0
  1  4  2  0  0  0  0
  1  2  1  0  0  0  0
  2 12  2  0  0  0  0
  3 11  2  0  0  0  0
  4 13  1  0  0  0  0
  5 14  2  0  0  0  0
  5  9  1  0  0  0  0
  7  5  1  0  0  0  0
  8  4  1  0  0  0  0
  9  8  2  0  0  0  0
  9 10  1  0  0  0  0
 10  3  1  0  0  0  0
 12  6  1  0  0  0  0
 13 11  1  0  0  0  0
 13  6  2  0  0  0  0
 14 15  1  0  0  0  0
 15 10  2  0  0  0  0
 16 17  2  0  0  0  0
 17  1  1  0  0  0  0
 18 24  1  0  0  0  0
 19 21  1  0  0  0  0
 19 18  2  0  0  0  0
 20 16  1  0  0  0  0
 21 23  2  0  0  0  0
 22 19  1  0  0  0  0
 23 20  1  0  0  0  0
 24 20  2  0  0  0  0
 25 26  1  0  0  0  0
 25 21  1  0  0  0  0
 27 26  1  0  0  0  0
M  END
>  <MODEL>
7

>  <REMARK>
 VINA RESULT:      -9.9      1.937      3.108
  Name = 
  4 active torsions:
  status: ('A' for Active; 'I' for Inactive)
    1  A    between atoms: N_2  and  C_13
    2  A    between atoms: C_3  and  N_9
    3  A    between atoms: C_16  and  C_21
    4  A    between atoms: C_21  and  O_22
                            x       y       z     vdW  Elec       q    Type
                         _______ _______ _______ _____ _____    ______ ____

>  <TORSDO>
F 4

$$$$
=
 OpenBabel10232411433D

 27 30  0  0  0  0  0  0  0  0999 V2000
  186.1380  178.0430  143.3180 C   0  0  0  0  0  0  0  0  0  0  0  0
  184.8430  178.3950  142.9230 C   0  0  0  0  0  3  0  0  0  0  0  0
  186.7470  178.3790  147.8820 C   0  0  0  0  0  3  0  0  0  0  0  0
  186.5080  178.0870  144.6870 C   0  0  0  0  0  0  0  0  0  0  0  0
  189.7850  177.2790  146.4040 C   0  0  0  0  0  0  0  0  0  0  0  0
  184.2460  178.8380  145.2060 C   0  0  0  0  0  3  0  0  0  0  0  0
  190.7680  176.8590  145.3650 C   0  0  0  0  0  1  0  0  0  0  0  0
  187.8270  177.7150  144.9680 C   0  0  0  0  0  3  0  0  0  0  0  0
  188.4770  177.6540  146.1850 C   0  0  0  0  0  0  0  0  0  0  0  0
  187.9990  177.9530  147.5090 C   0  0  0  0  0  0  0  0  0  0  0  0
  185.6710  178.6120  147.0370 C   0  0  0  0  0  3  0  0  0  0  0  0
  183.9000  178.7910  143.8610 C   0  0  0  0  0  3  0  0  0  0  0  0
  185.5280  178.4970  145.6500 C   0  0  0  0  0  0  0  0  0  0  0  0
  190.0750  177.3410  147.7200 N   0  0  0  0  0  0  0  0  0  0  0  0
  189.0000  177.7460  148.3850 N   0  0  0  0  0  0  0  0  0  0  0  0
  187.5960  178.4610  141.4940 N   0  0  0  0  0  0  0  0  0  0  0  0
  187.0930  177.6370  142.3250 N   0  0  0  0  0  0  0  0  0  0  0  0
  190.5940  176.9050  139.8800 C   0  0  0  0  0  3  0  0  0  0  0  0
  190.3810  177.2510  138.5430 C   0  0  0  0  0  0  0  0  0  0  0  0
  188.5450  178.0470  140.5100 C   0  0  0  0  0  0  0  0  0  0  0  0
  189.2510  178.0020  138.1880 C   0  0  0  0  0  0  0  0  0  0  0  0
  191.2730  176.8550  137.6020 F   0  0  0  0  0  0  0  0  0  0  0  0
  188.3360  178.3910  139.1710 C   0  0  0  0  0  3  0  0  0  0  0  0
  189.6820  177.3010  140.8620 C   0  0  0  0  0  3  0  0  0  0  0  0
  188.9920  178.3600  136.7630 C   0  0  0  0  0  2  0  0  0  0  0  0
  188.3850  177.2880  136.1100 O   0  0  0  0  0  0  0  0  0  0  0  0
  187.1790  177.8030  135.6400 C   0  0  0  0  0  1  0  0  0  0  0  0
  1  4  1  0  0  0  0
  2  1  2  0  0  0  0
  2 12  1  0  0  0  0
  4  8  1  0  0  0  0
  4 13  2  0  0  0  0
  5 14  2  0  0  0  0
  6 13  1  0  0  0  0
  7  5  1  0  0  0  0
  8  9  2  0  0  0  0
  9  5  1  0  0  0  0
  9 10  1  0  0  0  0
 10  3  1  0  0  0  0
 10 15  2  0  0  0  0
 11  3  2  0  0  0  0
 12  6  2  0  0  0  0
 13 11  1  0  0  0  0
 14 15  1  0  0  0  0
 16 17  2  0  0  0  0
 17  1  1  0  0  0  0
 18 24  1  0  0  0  0
 19 18  2  0  0  0  0
 20 24  2  0  0  0  0
 20 16  1  0  0  0  0
 21 19  1  0  0  0  0
 21 23  2  0  0  0  0
 22 19  1  0  0  0  0
 23 20  1  0  0  0  0
 25 21  1  0  0  0  0
 26 25  1  0  0  0  0
 27 26  1  0  0  0  0
M  END
>  <MODEL>
8

>  <REMARK>
 VINA RESULT:      -9.9      1.976      3.943
  Name = 
  4 active torsions:
  status: ('A' for Active; 'I' for Inactive)
    1  A    between atoms: N_2  and  C_13
    2  A    between atoms: C_3  and  N_9
    3  A    between atoms: C_16  and  C_21
    4  A    between atoms: C_21  and  O_22
                            x       y       z     vdW  Elec       q    Type
                         _______ _______ _______ _____ _____    ______ ____

>  <TORSDO>
F 4

$$$$
=
 OpenBabel10232411433D

 27 30  0  0  0  0  0  0  0  0999 V2000
  184.5670  178.7680  144.1940 C   0  0  0  0  0  0  0  0  0  0  0  0
  183.3480  178.8650  144.8730 C   0  0  0  0  0  3  0  0  0  0  0  0
  184.0310  178.6370  139.6100 C   0  0  0  0  0  3  0  0  0  0  0  0
  184.5970  178.7160  142.7760 C   0  0  0  0  0  0  0  0  0  0  0  0
  187.5000  178.4570  140.3590 C   0  0  0  0  0  0  0  0  0  0  0  0
  182.1620  178.8620  142.7860 C   0  0  0  0  0  3  0  0  0  0  0  0
  188.7640  178.4100  141.1470 C   0  0  0  0  0  1  0  0  0  0  0  0
  185.8700  178.6190  142.2020 C   0  0  0  0  0  3  0  0  0  0  0  0
  186.2230  178.5520  140.8700 C   0  0  0  0  0  0  0  0  0  0  0  0
  185.4010  178.5580  139.6890 C   0  0  0  0  0  0  0  0  0  0  0  0
  183.1500  178.7270  140.6780 C   0  0  0  0  0  3  0  0  0  0  0  0
  182.1500  178.9120  144.1740 C   0  0  0  0  0  3  0  0  0  0  0  0
  183.3550  178.7650  142.0620 C   0  0  0  0  0  0  0  0  0  0  0  0
  187.4620  178.4110  139.0110 N   0  0  0  0  0  0  0  0  0  0  0  0
  186.1990  178.4720  138.6080 N   0  0  0  0  0  0  0  0  0  0  0  0
  186.2400  177.6380  145.4390 N   0  0  0  0  0  0  0  0  0  0  0  0
  185.7910  178.7220  144.9440 N   0  0  0  0  0  0  0  0  0  0  0  0
  188.6700  177.7090  148.2860 C   0  0  0  0  0  3  0  0  0  0  0  0
  189.8760  177.5200  147.6060 C   0  0  0  0  0  0  0  0  0  0  0  0
  187.4590  177.6020  146.1830 C   0  0  0  0  0  0  0  0  0  0  0  0
  189.8760  177.3790  146.2100 C   0  0  0  0  0  0  0  0  0  0  0  0
  191.0360  177.4780  148.3060 F   0  0  0  0  0  0  0  0  0  0  0  0
  188.6680  177.4140  145.5070 C   0  0  0  0  0  3  0  0  0  0  0  0
  187.4650  177.7510  147.5800 C   0  0  0  0  0  3  0  0  0  0  0  0
  191.1500  177.1520  145.4680 C   0  0  0  0  0  2  0  0  0  0  0  0
  190.8790  176.9770  144.1110 O   0  0  0  0  0  0  0  0  0  0  0  0
  191.5860  175.8290  143.7590 C   0  0  0  0  0  1  0  0  0  0  0  0
  1  2  1  0  0  0  0
  1 17  1  0  0  0  0
  3 10  1  0  0  0  0
  3 11  2  0  0  0  0
  4  1  2  0  0  0  0
  5  9  1  0  0  0  0
  5  7  1  0  0  0  0
  6 12  1  0  0  0  0
  8  4  1  0  0  0  0
  9  8  2  0  0  0  0
 10  9  1  0  0  0  0
 11 13  1  0  0  0  0
 12  2  2  0  0  0  0
 13  4  1  0  0  0  0
 13  6  2  0  0  0  0
 14  5  2  0  0  0  0
 15 14  1  0  0  0  0
 15 10  2  0  0  0  0
 16 20  1  0  0  0  0
 17 16  2  0  0  0  0
 19 18  1  0  0  0  0
 19 22  1  0  0  0  0
 20 24  1  0  0  0  0
 21 19  2  0  0  0  0
 23 20  2  0  0  0  0
 23 21  1  0  0  0  0
 24 18  2  0  0  0  0
 25 21  1  0  0  0  0
 26 25  1  0  0  0  0
 27 26  1  0  0  0  0
M  END
>  <MODEL>
9

>  <REMARK>
 VINA RESULT:      -9.7      3.300      7.633
  Name = 
  4 active torsions:
  status: ('A' for Active; 'I' for Inactive)
    1  A    between atoms: N_2  and  C_13
    2  A    between atoms: C_3  and  N_9
    3  A    between atoms: C_16  and  C_21
    4  A    between atoms: C_21  and  O_22
                            x       y       z     vdW  Elec       q    Type
                         _______ _______ _______ _____ _____    ______ ____

>  <TORSDO>
F 4

$$$$
