=
 OpenBabel10232408213D

 30 34  0  0  1  0  0  0  0  0999 V2000
  189.8650  176.4570  139.4240 C   0  0  0  0  0  0  0  0  0  0  0  0
  188.4720  176.7910  137.3450 C   0  0  0  0  0  0  0  0  0  0  0  0
  185.8610  179.0460  142.2490 C   0  0  2  0  0  3  0  0  0  0  0  0
  189.1210  176.3270  146.1460 C   0  0  0  0  0  1  0  0  0  0  0  0
  187.0330  178.3670  138.2420 N   0  0  0  0  0  0  0  0  0  0  0  0
  188.7920  177.5400  141.4500 C   0  0  1  0  0  3  0  0  0  0  0  0
  188.7740  176.9790  138.6120 C   0  0  2  0  0  3  0  0  0  0  0  0
  187.2970  177.6450  136.9930 C   0  0  0  0  0  3  0  0  0  0  0  0
  189.9310  176.8780  140.7890 N   0  0  0  0  0  2  0  0  0  0  0  0
  190.9880  179.1560  144.2470 C   0  0  0  0  0  2  0  0  0  0  0  0
  189.7040  177.0380  144.9370 C   0  0  2  0  0  3  0  0  0  0  0  0
  190.6930  178.5940  142.8590 C   0  0  0  0  0  2  0  0  0  0  0  0
  185.7340  177.7850  143.0890 C   0  0  0  0  0  2  0  0  0  0  0  0
  190.6900  178.1400  145.3590 C   0  0  1  0  0  3  0  0  0  0  0  0
  187.8570  177.9420  139.1440 C   0  0  0  0  0  0  0  0  0  0  0  0
  189.2030  178.2410  142.7470 C   0  0  2  0  0  3  0  0  0  0  0  0
  191.8830  177.5610  145.7900 O   0  0  0  0  0  1  0  0  0  0  0  0
  187.6310  178.4900  144.6510 C   0  0  0  0  0  2  0  0  0  0  0  0
  189.1490  175.9480  136.4750 O   0  0  0  0  0  1  0  0  0  0  0  0
  185.2200  178.8630  141.0180 C   0  0  0  0  0  0  0  0  0  0  0  0
  186.6560  178.7590  141.1340 C   0  0  0  0  0  0  0  0  0  0  0  0
  190.7490  175.7000  138.9410 O   0  0  0  0  0  0  0  0  0  0  0  0
  188.0030  178.5080  140.5310 C   0  0  1  0  0  3  0  0  0  0  0  0
  186.1850  178.0080  144.5300 C   0  0  0  0  0  2  0  0  0  0  0  0
  188.6120  177.5340  143.9750 C   0  0  2  0  0  3  0  0  0  0  0  0
  184.0350  178.8020  140.2290 N   0  0  0  0  0  2  0  0  0  0  0  0
  181.5900  178.6760  139.9570 N   0  0  0  0  0  2  0  0  0  0  0  0
  180.2380  178.6070  140.4850 C   0  0  0  0  0  1  0  0  0  0  0  0
  182.5920  178.7300  142.0630 O   0  0  0  0  0  0  0  0  0  0  0  0
  182.7320  178.7360  140.8100 C   0  0  0  0  0  0  0  0  0  0  0  0
  1  9  1  0  0  0  0
  3 13  1  1  0  0  0
  5 15  2  0  0  0  0
  6  9  1  6  0  0  0
  6 16  1  0  0  0  0
  7  2  1  6  0  0  0
  7 15  1  0  0  0  0
  7  1  1  0  0  0  0
  8  2  2  0  0  0  0
  8  5  1  0  0  0  0
 10 14  1  0  0  0  0
 11 14  1  0  0  0  0
 11  4  1  1  0  0  0
 12 10  1  0  0  0  0
 13 24  1  0  0  0  0
 14 17  1  6  0  0  0
 16 12  1  1  0  0  0
 16 25  1  0  0  0  0
 19  2  1  0  0  0  0
 20 21  2  0  0  0  0
 20  3  1  0  0  0  0
 21  3  1  0  0  0  0
 22  1  2  0  0  0  0
 23 15  1  6  0  0  0
 23 21  1  0  0  0  0
 23  6  1  0  0  0  0
 24 18  1  0  0  0  0
 25 18  1  1  0  0  0
 25 11  1  0  0  0  0
 26 30  1  0  0  0  0
 26 20  1  0  0  0  0
 27 28  1  0  0  0  0
 27 30  1  0  0  0  0
 30 29  2  0  0  0  0
M  END
>  <MODEL>
1

>  <REMARK>
 VINA RESULT:      -8.7      0.000      0.000
  Name = 
  1 active torsions:
  status: ('A' for Active; 'I' for Inactive)
    1  A    between atoms: N_2  and  C_24
                            x       y       z     vdW  Elec       q    Type
                         _______ _______ _______ _____ _____    ______ ____

>  <TORSDO>
F 1

$$$$
=
 OpenBabel10232408213D

 30 34  0  0  1  0  0  0  0  0999 V2000
  186.5420  178.5230  139.9160 C   0  0  0  0  0  0  0  0  0  0  0  0
  188.5840  178.4100  141.3950 C   0  0  0  0  0  0  0  0  0  0  0  0
  183.4800  178.5800  144.5350 C   0  0  2  0  0  3  0  0  0  0  0  0
  180.0360  180.3420  140.2640 C   0  0  0  0  0  1  0  0  0  0  0  0
  187.4700  177.8400  143.3420 N   0  0  0  0  0  0  0  0  0  0  0  0
  184.4020  178.4570  141.2740 C   0  0  1  0  0  3  0  0  0  0  0  0
  187.2910  178.3740  141.1560 C   0  0  0  0  0  0  0  0  0  0  0  0
  188.8220  178.1020  142.8380 C   0  0  0  0  0  2  0  0  0  0  0  0
  185.1180  178.4060  139.9870 N   0  0  0  0  0  2  0  0  0  0  0  0
  181.2190  176.6600  139.8990 C   0  0  0  0  0  2  0  0  0  0  0  0
  181.0430  179.2170  140.0980 C   0  0  2  0  0  3  0  0  0  0  0  0
  182.7060  176.9950  139.9720 C   0  0  0  0  0  2  0  0  0  0  0  0
  182.9200  179.9130  144.0650 C   0  0  0  0  0  2  0  0  0  0  0  0
  180.3530  177.9080  139.6790 C   0  0  1  0  0  3  0  0  0  0  0  0
  186.6280  178.0390  142.3810 C   0  0  0  0  0  0  0  0  0  0  0  0
  182.9690  177.9310  141.1610 C   0  0  2  0  0  3  0  0  0  0  0  0
  179.9820  177.9840  138.3370 O   0  0  0  0  0  1  0  0  0  0  0  0
  181.1450  178.7890  142.6080 C   0  0  0  0  0  2  0  0  0  0  0  0
  189.5690  178.6750  140.4520 O   0  0  0  0  0  1  0  0  0  0  0  0
  184.7560  178.7660  145.0790 C   0  0  0  0  0  0  0  0  0  0  0  0
  184.5840  178.2560  143.7390 C   0  0  0  0  0  0  0  0  0  0  0  0
  187.1170  178.7020  138.8100 O   0  0  0  0  0  0  0  0  0  0  0  0
  185.1490  177.7640  142.4430 C   0  0  1  0  0  3  0  0  0  0  0  0
  181.4400  179.8170  143.7000 C   0  0  0  0  0  2  0  0  0  0  0  0
  181.9450  179.0610  141.3350 C   0  0  2  0  0  3  0  0  0  0  0  0
  185.6060  179.1740  146.1480 N   0  0  0  0  0  2  0  0  0  0  0  0
  187.3320  178.7540  147.8540 N   0  0  0  0  0  2  0  0  0  0  0  0
  188.2730  177.8920  148.5490 C   0  0  0  0  0  1  0  0  0  0  0  0
  186.5850  177.0720  146.4210 O   0  0  0  0  0  0  0  0  0  0  0  0
  186.5120  178.2750  146.7900 C   0  0  0  0  0  0  0  0  0  0  0  0
  1  9  1  0  0  0  0
  1  7  1  0  0  0  0
  2  8  1  0  0  0  0
  3 13  1  6  0  0  0
  3 20  1  0  0  0  0
  6  9  1  6  0  0  0
  6 23  1  0  0  0  0
  7  2  2  0  0  0  0
  7 15  1  0  0  0  0
  8  5  1  0  0  0  0
 10 12  1  0  0  0  0
 11  4  1  1  0  0  0
 11 25  1  0  0  0  0
 14 17  1  6  0  0  0
 14 10  1  0  0  0  0
 14 11  1  0  0  0  0
 15  5  2  0  0  0  0
 16 12  1  6  0  0  0
 16  6  1  0  0  0  0
 16 25  1  0  0  0  0
 18 24  1  0  0  0  0
 19  2  1  0  0  0  0
 20 26  1  0  0  0  0
 21  3  1  0  0  0  0
 21 20  2  0  0  0  0
 22  1  2  0  0  0  0
 23 15  1  1  0  0  0
 23 21  1  0  0  0  0
 24 13  1  0  0  0  0
 25 18  1  1  0  0  0
 26 30  1  0  0  0  0
 27 28  1  0  0  0  0
 29 30  2  0  0  0  0
 30 27  1  0  0  0  0
M  END
>  <MODEL>
2

>  <REMARK>
 VINA RESULT:      -7.7      2.999      7.222
  Name = 
  1 active torsions:
  status: ('A' for Active; 'I' for Inactive)
    1  A    between atoms: N_2  and  C_24
                            x       y       z     vdW  Elec       q    Type
                         _______ _______ _______ _____ _____    ______ ____

>  <TORSDO>
F 1

$$$$
=
 OpenBabel10232408213D

 30 34  0  0  1  0  0  0  0  0999 V2000
  184.0500  177.9110  139.3640 C   0  0  0  0  0  0  0  0  0  0  0  0
  182.8100  178.4130  141.5050 C   0  0  0  0  0  0  0  0  0  0  0  0
  188.7380  178.0400  142.3170 C   0  0  2  0  0  3  0  0  0  0  0  0
  190.0100  175.4390  137.3340 C   0  0  0  0  0  1  0  0  0  0  0  0
  184.6580  179.0740  142.7320 N   0  0  0  0  0  0  0  0  0  0  0  0
  186.5590  177.8940  139.7220 C   0  0  1  0  0  3  0  0  0  0  0  0
  183.8890  178.2800  140.7640 C   0  0  0  0  0  0  0  0  0  0  0  0
  183.2070  178.9080  142.8590 C   0  0  0  0  0  2  0  0  0  0  0  0
  185.3790  177.8770  138.8390 N   0  0  0  0  0  2  0  0  0  0  0  0
  188.9820  179.1630  136.9340 C   0  0  0  0  0  2  0  0  0  0  0  0
  189.0870  176.6420  137.4220 C   0  0  2  0  0  3  0  0  0  0  0  0
  187.6430  179.0040  137.6470 C   0  0  0  0  0  2  0  0  0  0  0  0
  188.9810  176.6090  141.8640 C   0  0  0  0  0  2  0  0  0  0  0  0
  189.6110  177.8110  136.5720 C   0  0  1  0  0  3  0  0  0  0  0  0
  185.0160  178.6770  141.5540 C   0  0  0  0  0  0  0  0  0  0  0  0
  187.8440  178.2430  138.9660 C   0  0  2  0  0  3  0  0  0  0  0  0
  189.3900  177.5430  135.2210 O   0  0  0  0  0  1  0  0  0  0  0  0
  190.0530  177.3590  139.6680 C   0  0  0  0  0  2  0  0  0  0  0  0
  181.5110  178.1530  141.0880 O   0  0  0  0  0  1  0  0  0  0  0  0
  187.7930  178.0580  143.3480 C   0  0  0  0  0  0  0  0  0  0  0  0
  187.4230  178.3910  141.9920 C   0  0  0  0  0  0  0  0  0  0  0  0
  183.0600  177.6720  138.6230 O   0  0  0  0  0  0  0  0  0  0  0  0
  186.4000  178.7930  140.9760 C   0  0  1  0  0  3  0  0  0  0  0  0
  190.1810  176.5000  140.9260 C   0  0  0  0  0  2  0  0  0  0  0  0
  188.7860  177.0350  138.8790 C   0  0  2  0  0  3  0  0  0  0  0  0
  187.4400  177.8700  144.7160 N   0  0  0  0  0  2  0  0  0  0  0  0
  187.9840  177.6740  147.1110 N   0  0  0  0  0  2  0  0  0  0  0  0
  188.9210  177.6630  148.2210 C   0  0  0  0  0  1  0  0  0  0  0  0
  189.6330  178.0400  145.5010 O   0  0  0  0  0  0  0  0  0  0  0  0
  188.4110  177.8700  145.7630 C   0  0  0  0  0  0  0  0  0  0  0  0
  1  7  1  0  0  0  0
  2  8  1  0  0  0  0
  3 13  1  6  0  0  0
  3 20  1  0  0  0  0
  5  8  1  0  0  0  0
  6  9  1  6  0  0  0
  6 23  1  0  0  0  0
  7  2  2  0  0  0  0
  7 15  1  0  0  0  0
  9  1  1  0  0  0  0
 10 12  1  0  0  0  0
 11  4  1  1  0  0  0
 11 25  1  0  0  0  0
 14 17  1  6  0  0  0
 14 10  1  0  0  0  0
 14 11  1  0  0  0  0
 15  5  2  0  0  0  0
 16 12  1  6  0  0  0
 16  6  1  0  0  0  0
 18 24  1  0  0  0  0
 19  2  1  0  0  0  0
 20 26  1  0  0  0  0
 21  3  1  0  0  0  0
 21 20  2  0  0  0  0
 22  1  2  0  0  0  0
 23 15  1  1  0  0  0
 23 21  1  0  0  0  0
 24 13  1  0  0  0  0
 25 16  1  0  0  0  0
 25 18  1  6  0  0  0
 26 30  1  0  0  0  0
 27 28  1  0  0  0  0
 29 30  2  0  0  0  0
 30 27  1  0  0  0  0
M  END
>  <MODEL>
3

>  <REMARK>
 VINA RESULT:      -7.4      2.214      6.699
  Name = 
  1 active torsions:
  status: ('A' for Active; 'I' for Inactive)
    1  A    between atoms: N_2  and  C_24
                            x       y       z     vdW  Elec       q    Type
                         _______ _______ _______ _____ _____    ______ ____

>  <TORSDO>
F 1

$$$$
=
 OpenBabel10232408213D

 30 34  0  0  1  0  0  0  0  0999 V2000
  183.4540  176.6820  137.7070 C   0  0  0  0  0  0  0  0  0  0  0  0
  181.4760  177.2920  139.1530 C   0  0  0  0  0  0  0  0  0  0  0  0
  186.6800  179.1650  141.4670 C   0  0  2  0  0  3  0  0  0  0  0  0
  190.1550  175.9110  138.2180 C   0  0  0  0  0  1  0  0  0  0  0  0
  182.5820  178.8380  140.4740 N   0  0  0  0  0  0  0  0  0  0  0  0
  185.6180  177.6070  138.6490 C   0  0  1  0  0  3  0  0  0  0  0  0
  182.7420  177.3360  138.7970 C   0  0  0  0  0  0  0  0  0  0  0  0
  181.2580  178.2330  140.2930 C   0  0  0  0  0  2  0  0  0  0  0  0
  184.8500  176.9590  137.5710 N   0  0  0  0  0  2  0  0  0  0  0  0
  188.4700  178.8220  136.2740 C   0  0  0  0  0  2  0  0  0  0  0  0
  188.9990  176.7110  137.6420 C   0  0  2  0  0  3  0  0  0  0  0  0
  187.0470  178.4190  136.6460 C   0  0  0  0  0  2  0  0  0  0  0  0
  187.3950  177.8340  141.6310 C   0  0  0  0  0  2  0  0  0  0  0  0
  189.4880  177.7150  136.5850 C   0  0  1  0  0  3  0  0  0  0  0  0
  183.4030  178.2840  139.6430 C   0  0  0  0  0  0  0  0  0  0  0  0
  186.9610  178.1520  138.1560 C   0  0  2  0  0  3  0  0  0  0  0  0
  189.8110  177.0380  135.4100 O   0  0  0  0  0  1  0  0  0  0  0  0
  188.9420  178.2840  139.6450 C   0  0  0  0  0  2  0  0  0  0  0  0
  180.4990  176.5090  138.5530 O   0  0  0  0  0  1  0  0  0  0  0  0
  185.4640  179.1400  142.1590 C   0  0  0  0  0  0  0  0  0  0  0  0
  185.5110  178.9540  140.7280 C   0  0  0  0  0  0  0  0  0  0  0  0
  182.8630  175.9350  136.8820 O   0  0  0  0  0  0  0  0  0  0  0  0
  184.8320  178.7000  139.4180 C   0  0  1  0  0  3  0  0  0  0  0  0
  188.8330  177.8880  141.1170 C   0  0  0  0  0  2  0  0  0  0  0  0
  188.1350  177.3540  138.7400 C   0  0  2  0  0  3  0  0  0  0  0  0
  184.7210  179.2170  143.3730 N   0  0  0  0  0  2  0  0  0  0  0  0
  184.4270  178.8270  145.7880 N   0  0  0  0  0  2  0  0  0  0  0  0
  184.8830  178.3400  147.0780 C   0  0  0  0  0  1  0  0  0  0  0  0
  186.3690  178.1840  144.6670 O   0  0  0  0  0  0  0  0  0  0  0  0
  185.2270  178.7170  144.6120 C   0  0  0  0  0  0  0  0  0  0  0  0
  1  7  1  0  0  0  0
  2  8  1  0  0  0  0
  3 13  1  1  0  0  0
  3 20  1  0  0  0  0
  6  9  1  6  0  0  0
  6 23  1  0  0  0  0
  7  2  2  0  0  0  0
  7 15  1  0  0  0  0
  8  5  1  0  0  0  0
  9  1  1  0  0  0  0
 10 14  1  0  0  0  0
 10 12  1  0  0  0  0
 11  4  1  1  0  0  0
 11 25  1  0  0  0  0
 14 17  1  6  0  0  0
 14 11  1  0  0  0  0
 15  5  2  0  0  0  0
 16 12  1  6  0  0  0
 16  6  1  0  0  0  0
 16 25  1  0  0  0  0
 18 24  1  0  0  0  0
 19  2  1  0  0  0  0
 20 26  1  0  0  0  0
 21  3  1  0  0  0  0
 21 20  2  0  0  0  0
 22  1  2  0  0  0  0
 23 15  1  1  0  0  0
 23 21  1  0  0  0  0
 24 13  1  0  0  0  0
 25 18  1  6  0  0  0
 26 30  1  0  0  0  0
 27 28  1  0  0  0  0
 30 29  2  0  0  0  0
 30 27  1  0  0  0  0
M  END
>  <MODEL>
4

>  <REMARK>
 VINA RESULT:      -7.2      2.777      6.155
  Name = 
  1 active torsions:
  status: ('A' for Active; 'I' for Inactive)
    1  A    between atoms: N_2  and  C_24
                            x       y       z     vdW  Elec       q    Type
                         _______ _______ _______ _____ _____    ______ ____

>  <TORSDO>
F 1

$$$$
=
 OpenBabel10232408213D

 30 34  0  0  1  0  0  0  0  0999 V2000
  188.6090  177.6580  140.7140 C   0  0  0  0  0  0  0  0  0  0  0  0
  190.7740  177.6850  142.0130 C   0  0  0  0  0  0  0  0  0  0  0  0
  191.4110  175.3400  136.5320 C   0  0  2  0  0  3  0  0  0  0  0  0
  185.8200  174.4780  135.4360 C   0  0  0  0  0  1  0  0  0  0  0  0
  192.1700  177.2880  140.2090 N   0  0  0  0  0  0  0  0  0  0  0  0
  188.9460  176.7850  138.3580 C   0  0  1  0  0  3  0  0  0  0  0  0
  190.0440  177.5240  140.9300 C   0  0  0  0  0  0  0  0  0  0  0  0
  192.2160  177.5160  141.6570 C   0  0  0  0  0  2  0  0  0  0  0  0
  188.1180  177.4340  139.3900 N   0  0  0  0  0  2  0  0  0  0  0  0
  186.8640  178.2190  135.3810 C   0  0  0  0  0  2  0  0  0  0  0  0
  186.3550  175.7790  136.0090 C   0  0  2  0  0  3  0  0  0  0  0  0
  187.4560  178.2080  136.7870 C   0  0  0  0  0  2  0  0  0  0  0  0
  190.4490  174.1670  136.6290 C   0  0  0  0  0  2  0  0  0  0  0  0
  186.0170  176.9700  135.0980 C   0  0  1  0  0  3  0  0  0  0  0  0
  190.9310  177.2600  139.8370 C   0  0  0  0  0  0  0  0  0  0  0  0
  188.3860  176.9970  136.9490 C   0  0  2  0  0  3  0  0  0  0  0  0
  184.6650  177.2880  135.2260 O   0  0  0  0  0  1  0  0  0  0  0  0
  188.7090  175.3180  135.1510 C   0  0  0  0  0  2  0  0  0  0  0  0
  190.2830  177.9830  143.2770 O   0  0  0  0  0  1  0  0  0  0  0  0
  192.3670  175.2560  137.5500 C   0  0  0  0  0  0  0  0  0  0  0  0
  191.2390  176.1500  137.6600 C   0  0  0  0  0  0  0  0  0  0  0  0
  187.8280  178.0030  141.6400 O   0  0  0  0  0  0  0  0  0  0  0  0
  190.4470  177.1710  138.4150 C   0  0  1  0  0  3  0  0  0  0  0  0
  189.5460  174.0630  135.4020 C   0  0  0  0  0  2  0  0  0  0  0  0
  187.8500  175.6850  136.3590 C   0  0  2  0  0  3  0  0  0  0  0  0
  193.5590  174.6940  138.0960 N   0  0  0  0  0  2  0  0  0  0  0  0
  196.0030  174.3970  138.1720 N   0  0  0  0  0  2  0  0  0  0  0  0
  197.3480  174.6630  137.6910 C   0  0  0  0  0  1  0  0  0  0  0  0
  194.9820  175.7860  136.6010 O   0  0  0  0  0  0  0  0  0  0  0  0
  194.8540  174.9970  137.5760 C   0  0  0  0  0  0  0  0  0  0  0  0
  1  7  1  0  0  0  0
  1 22  2  0  0  0  0
  2 19  1  0  0  0  0
  3 13  1  1  0  0  0
  3 20  1  0  0  0  0
  3 21  1  0  0  0  0
  5  8  1  0  0  0  0
  6 23  1  0  0  0  0
  6  9  1  1  0  0  0
  7  2  2  0  0  0  0
  8  2  1  0  0  0  0
  9  1  1  0  0  0  0
 10 12  1  0  0  0  0
 11  4  1  6  0  0  0
 11 25  1  0  0  0  0
 14 17  1  1  0  0  0
 14 10  1  0  0  0  0
 14 11  1  0  0  0  0
 15  5  2  0  0  0  0
 15  7  1  0  0  0  0
 16 12  1  1  0  0  0
 16  6  1  0  0  0  0
 18 24  1  0  0  0  0
 20 21  2  0  0  0  0
 20 26  1  0  0  0  0
 23 21  1  6  0  0  0
 23 15  1  0  0  0  0
 24 13  1  0  0  0  0
 25 18  1  6  0  0  0
 25 16  1  0  0  0  0
 28 27  1  0  0  0  0
 29 30  2  0  0  0  0
 30 26  1  0  0  0  0
 30 27  1  0  0  0  0
M  END
>  <MODEL>
5

>  <REMARK>
 VINA RESULT:      -6.9      3.688      9.105
  Name = 
  1 active torsions:
  status: ('A' for Active; 'I' for Inactive)
    1  A    between atoms: N_2  and  C_24
                            x       y       z     vdW  Elec       q    Type
                         _______ _______ _______ _____ _____    ______ ____

>  <TORSDO>
F 1

$$$$
=
 OpenBabel10232408213D

 30 34  0  0  1  0  0  0  0  0999 V2000
  186.6540  178.4130  139.2610 C   0  0  0  0  0  0  0  0  0  0  0  0
  186.5610  177.7400  136.8300 C   0  0  0  0  0  0  0  0  0  0  0  0
  191.7630  176.2720  139.4260 C   0  0  2  0  0  3  0  0  0  0  0  0
  191.2320  179.6070  144.0960 C   0  0  0  0  0  1  0  0  0  0  0  0
  188.3840  176.3130  136.8810 N   0  0  0  0  0  0  0  0  0  0  0  0
  188.8110  177.6570  140.3570 C   0  0  1  0  0  3  0  0  0  0  0  0
  187.0890  177.7590  138.0350 C   0  0  2  0  0  3  0  0  0  0  0  0
  187.3670  176.8300  135.9600 C   0  0  0  0  0  3  0  0  0  0  0  0
  187.4490  178.2170  140.4330 N   0  0  0  0  0  2  0  0  0  0  0  0
  188.8620  176.5290  144.0960 C   0  0  0  0  0  2  0  0  0  0  0  0
  190.1100  178.7180  143.5870 C   0  0  2  0  0  3  0  0  0  0  0  0
  188.2220  176.8590  142.7500 C   0  0  0  0  0  2  0  0  0  0  0  0
  192.2520  177.6500  139.8440 C   0  0  0  0  0  2  0  0  0  0  0  0
  189.6710  177.7060  144.6590 C   0  0  1  0  0  3  0  0  0  0  0  0
  188.2240  176.8840  138.0310 C   0  0  0  0  0  0  0  0  0  0  0  0
  189.3160  177.1770  141.7200 C   0  0  2  0  0  3  0  0  0  0  0  0
  188.9220  178.3570  145.6380 O   0  0  0  0  0  1  0  0  0  0  0  0
  191.7260  177.2200  142.3090 C   0  0  0  0  0  2  0  0  0  0  0  0
  185.4280  178.4390  136.4380 O   0  0  0  0  0  1  0  0  0  0  0  0
  191.5270  176.2500  138.0470 C   0  0  0  0  0  0  0  0  0  0  0  0
  190.4390  176.3850  138.9870 C   0  0  2  0  0  3  0  0  0  0  0  0
  185.5930  179.0920  139.3110 O   0  0  0  0  0  0  0  0  0  0  0  0
  188.9820  176.5480  139.2870 C   0  0  1  0  0  3  0  0  0  0  0  0
  192.7680  177.6630  141.2810 C   0  0  0  0  0  2  0  0  0  0  0  0
  190.4550  178.0650  142.2380 C   0  0  2  0  0  3  0  0  0  0  0  0
  192.0000  176.1740  136.7040 N   0  0  0  0  0  0  0  0  0  0  0  0
  193.7920  176.0820  135.0160 N   0  0  0  0  0  2  0  0  0  0  0  0
  195.1900  176.0620  134.6230 C   0  0  0  0  0  1  0  0  0  0  0  0
  194.2580  176.2130  137.2980 O   0  0  0  0  0  0  0  0  0  0  0  0
  193.3910  176.1580  136.3840 C   0  0  0  0  0  0  0  0  0  0  0  0
  1 22  2  0  0  0  0
  1  9  1  0  0  0  0
  3 13  1  6  0  0  0
  5 15  2  0  0  0  0
  6  9  1  1  0  0  0
  6 16  1  0  0  0  0
  7  2  1  1  0  0  0
  7  1  1  0  0  0  0
  8  2  2  0  0  0  0
  8  5  1  0  0  0  0
 10 14  1  0  0  0  0
 11  4  1  1  0  0  0
 11 14  1  0  0  0  0
 12 10  1  0  0  0  0
 13 24  1  0  0  0  0
 14 17  1  1  0  0  0
 15  7  1  0  0  0  0
 16 25  1  0  0  0  0
 16 12  1  1  0  0  0
 19  2  1  0  0  0  0
 20  3  1  0  0  0  0
 21 20  1  6  0  0  0
 21 23  1  0  0  0  0
 21  3  1  0  0  0  0
 23 15  1  6  0  0  0
 23  6  1  0  0  0  0
 24 18  1  0  0  0  0
 25 18  1  1  0  0  0
 25 11  1  0  0  0  0
 26 20  2  0  0  0  0
 27 30  1  0  0  0  0
 28 27  1  0  0  0  0
 30 26  1  0  0  0  0
 30 29  2  0  0  0  0
M  END
>  <MODEL>
6

>  <REMARK>
 VINA RESULT:      -6.8      2.937      6.499
  Name = 
  1 active torsions:
  status: ('A' for Active; 'I' for Inactive)
    1  A    between atoms: N_2  and  C_24
                            x       y       z     vdW  Elec       q    Type
                         _______ _______ _______ _____ _____    ______ ____

>  <TORSDO>
F 1

$$$$
=
 OpenBabel10232408213D

 30 34  0  0  1  0  0  0  0  0999 V2000
  186.3510  177.7950  143.4210 C   0  0  0  0  0  0  0  0  0  0  0  0
  188.6760  177.7590  144.4030 C   0  0  0  0  0  0  0  0  0  0  0  0
  188.7140  177.9460  138.4110 C   0  0  2  0  0  3  0  0  0  0  0  0
  183.2120  176.4440  137.5830 C   0  0  0  0  0  1  0  0  0  0  0  0
  189.7870  178.4020  142.4770 N   0  0  0  0  0  0  0  0  0  0  0  0
  186.4080  178.0100  140.8960 C   0  0  1  0  0  3  0  0  0  0  0  0
  187.8040  177.8880  143.4260 C   0  0  0  0  0  0  0  0  0  0  0  0
  190.0450  178.0460  143.8750 C   0  0  0  0  0  2  0  0  0  0  0  0
  185.6800  178.0130  142.1770 N   0  0  0  0  0  2  0  0  0  0  0  0
  183.6550  180.0330  139.0020 C   0  0  0  0  0  2  0  0  0  0  0  0
  183.6350  177.4950  138.5950 C   0  0  2  0  0  3  0  0  0  0  0  0
  184.4740  179.5930  140.2120 C   0  0  0  0  0  2  0  0  0  0  0  0
  187.9700  176.6580  138.0970 C   0  0  0  0  0  2  0  0  0  0  0  0
  182.9710  178.8510  138.3030 C   0  0  1  0  0  3  0  0  0  0  0  0
  188.5210  178.2660  142.2450 C   0  0  0  0  0  0  0  0  0  0  0  0
  185.5900  178.6380  139.7640 C   0  0  2  0  0  3  0  0  0  0  0  0
  181.6280  178.8040  138.6780 O   0  0  0  0  0  1  0  0  0  0  0  0
  185.8500  177.9090  137.4060 C   0  0  0  0  0  2  0  0  0  0  0  0
  188.3690  177.4260  145.7150 O   0  0  0  0  0  1  0  0  0  0  0  0
  189.8320  177.6690  139.2060 C   0  0  0  0  0  0  0  0  0  0  0  0
  188.6170  178.1930  139.7840 C   0  0  0  0  0  0  0  0  0  0  0  0
  185.6960  177.5780  144.4750 O   0  0  0  0  0  0  0  0  0  0  0  0
  187.8210  178.6460  140.9680 C   0  0  1  0  0  3  0  0  0  0  0  0
  186.8970  176.8600  137.0300 C   0  0  0  0  0  2  0  0  0  0  0  0
  185.1650  177.5840  138.7320 C   0  0  2  0  0  3  0  0  0  0  0  0
  191.1690  177.1990  139.3520 N   0  0  0  0  0  2  0  0  0  0  0  0
  193.2100  176.1070  138.5090 N   0  0  0  0  0  2  0  0  0  0  0  0
  193.9800  175.4430  137.4710 C   0  0  0  0  0  1  0  0  0  0  0  0
  191.3180  176.3770  137.1710 O   0  0  0  0  0  0  0  0  0  0  0  0
  191.8730  176.5530  138.2900 C   0  0  0  0  0  0  0  0  0  0  0  0
  1  7  1  0  0  0  0
  1 22  2  0  0  0  0
  2 19  1  0  0  0  0
  3 13  1  1  0  0  0
  3 20  1  0  0  0  0
  3 21  1  0  0  0  0
  5  8  1  0  0  0  0
  6 23  1  0  0  0  0
  6  9  1  1  0  0  0
  7  2  2  0  0  0  0
  8  2  1  0  0  0  0
  9  1  1  0  0  0  0
 10 12  1  0  0  0  0
 11  4  1  6  0  0  0
 11 25  1  0  0  0  0
 14 11  1  0  0  0  0
 14 17  1  1  0  0  0
 14 10  1  0  0  0  0
 15  5  2  0  0  0  0
 15  7  1  0  0  0  0
 16 12  1  1  0  0  0
 16  6  1  0  0  0  0
 20 26  1  0  0  0  0
 20 21  2  0  0  0  0
 23 21  1  6  0  0  0
 23 15  1  0  0  0  0
 24 18  1  0  0  0  0
 24 13  1  0  0  0  0
 25 18  1  6  0  0  0
 25 16  1  0  0  0  0
 28 27  1  0  0  0  0
 29 30  2  0  0  0  0
 30 27  1  0  0  0  0
 30 26  1  0  0  0  0
M  END
>  <MODEL>
7

>  <REMARK>
 VINA RESULT:      -6.7      2.334      7.794
  Name = 
  1 active torsions:
  status: ('A' for Active; 'I' for Inactive)
    1  A    between atoms: N_2  and  C_24
                            x       y       z     vdW  Elec       q    Type
                         _______ _______ _______ _____ _____    ______ ____

>  <TORSDO>
F 1

$$$$
=
 OpenBabel10232408213D

 30 34  0  0  1  0  0  0  0  0999 V2000
  188.4520  177.0770  142.5310 C   0  0  0  0  0  0  0  0  0  0  0  0
  190.3350  177.4250  144.1770 C   0  0  0  0  0  0  0  0  0  0  0  0
  192.2870  176.8950  138.5330 C   0  0  2  0  0  3  0  0  0  0  0  0
  187.4650  174.6830  136.2810 C   0  0  0  0  0  1  0  0  0  0  0  0
  191.9580  177.9560  142.6140 N   0  0  0  0  0  0  0  0  0  0  0  0
  189.3040  176.9920  140.1450 C   0  0  1  0  0  3  0  0  0  0  0  0
  189.8170  177.3350  142.9700 C   0  0  0  0  0  0  0  0  0  0  0  0
  191.7760  177.8030  144.0610 C   0  0  0  0  0  2  0  0  0  0  0  0
  188.2040  177.0650  141.1220 N   0  0  0  0  0  2  0  0  0  0  0  0
  187.1730  178.4440  137.2110 C   0  0  0  0  0  2  0  0  0  0  0  0
  187.4640  175.8900  137.2040 C   0  0  2  0  0  3  0  0  0  0  0  0
  187.5870  178.2490  138.6670 C   0  0  0  0  0  2  0  0  0  0  0  0
  191.7760  175.5020  138.2030 C   0  0  0  0  0  2  0  0  0  0  0  0
  186.8350  177.1150  136.5200 C   0  0  1  0  0  3  0  0  0  0  0  0
  190.8470  177.6490  142.0260 C   0  0  0  0  0  0  0  0  0  0  0  0
  188.8520  177.3810  138.7350 C   0  0  2  0  0  3  0  0  0  0  0  0
  185.4500  176.9600  136.4650 O   0  0  0  0  0  1  0  0  0  0  0  0
  189.9090  176.4090  136.7100 C   0  0  0  0  0  2  0  0  0  0  0  0
  189.6450  177.2200  145.3640 O   0  0  0  0  0  1  0  0  0  0  0  0
  193.1050  176.8450  139.6670 C   0  0  0  0  0  0  0  0  0  0  0  0
  191.7350  177.2920  139.7560 C   0  0  0  0  0  0  0  0  0  0  0  0
  187.5100  176.9140  143.3510 O   0  0  0  0  0  0  0  0  0  0  0  0
  190.5700  177.7900  140.5540 C   0  0  1  0  0  3  0  0  0  0  0  0
  191.0930  175.4500  136.8380 C   0  0  0  0  0  2  0  0  0  0  0  0
  188.8580  176.1690  137.7930 C   0  0  2  0  0  3  0  0  0  0  0  0
  194.3540  176.5530  140.2880 N   0  0  0  0  0  2  0  0  0  0  0  0
  196.5730  175.4850  140.3460 N   0  0  0  0  0  2  0  0  0  0  0  0
  197.6220  174.6630  139.7670 C   0  0  0  0  0  1  0  0  0  0  0  0
  195.1390  175.2410  138.5220 O   0  0  0  0  0  0  0  0  0  0  0  0
  195.3460  175.7360  139.6640 C   0  0  0  0  0  0  0  0  0  0  0  0
  1  7  1  0  0  0  0
  1 22  2  0  0  0  0
  2 19  1  0  0  0  0
  3 13  1  1  0  0  0
  3 20  1  0  0  0  0
  3 21  1  0  0  0  0
  5  8  1  0  0  0  0
  6 23  1  0  0  0  0
  6  9  1  1  0  0  0
  7  2  2  0  0  0  0
  8  2  1  0  0  0  0
  9  1  1  0  0  0  0
 10 12  1  0  0  0  0
 11  4  1  6  0  0  0
 11 25  1  0  0  0  0
 14 17  1  1  0  0  0
 14 11  1  0  0  0  0
 14 10  1  0  0  0  0
 15  5  2  0  0  0  0
 15  7  1  0  0  0  0
 16 12  1  1  0  0  0
 16  6  1  0  0  0  0
 18 24  1  0  0  0  0
 20 21  2  0  0  0  0
 20 26  1  0  0  0  0
 23 21  1  6  0  0  0
 23 15  1  0  0  0  0
 24 13  1  0  0  0  0
 25 18  1  6  0  0  0
 25 16  1  0  0  0  0
 28 27  1  0  0  0  0
 29 30  2  0  0  0  0
 30 26  1  0  0  0  0
 30 27  1  0  0  0  0
M  END
>  <MODEL>
8

>  <REMARK>
 VINA RESULT:      -6.5      3.259      8.720
  Name = 
  1 active torsions:
  status: ('A' for Active; 'I' for Inactive)
    1  A    between atoms: N_2  and  C_24
                            x       y       z     vdW  Elec       q    Type
                         _______ _______ _______ _____ _____    ______ ____

>  <TORSDO>
F 1

$$$$
=
 OpenBabel10232408213D

 30 34  0  0  1  0  0  0  0  0999 V2000
  187.3900  178.4130  140.3120 C   0  0  0  0  0  0  0  0  0  0  0  0
  189.5970  177.8690  139.2120 C   0  0  0  0  0  0  0  0  0  0  0  0
  184.9070  176.6330  135.6880 C   0  0  2  0  0  3  0  0  0  0  0  0
  180.8420  176.8080  139.7690 C   0  0  0  0  0  1  0  0  0  0  0  0
  188.7750  177.6590  137.0590 N   0  0  0  0  0  0  0  0  0  0  0  0
  185.4410  178.0040  138.7430 C   0  0  1  0  0  3  0  0  0  0  0  0
  188.2920  178.0370  139.2310 C   0  0  2  0  0  3  0  0  0  0  0  0
  190.0300  177.5760  137.8120 C   0  0  0  0  0  3  0  0  0  0  0  0
  186.0010  178.5370  139.9980 N   0  0  0  0  0  2  0  0  0  0  0  0
  182.2810  180.2960  138.8460 C   0  0  0  0  0  2  0  0  0  0  0  0
  181.9130  177.8750  139.6280 C   0  0  2  0  0  3  0  0  0  0  0  0
  183.7320  179.9130  139.1210 C   0  0  0  0  0  2  0  0  0  0  0  0
  184.1840  175.6120  136.5520 C   0  0  0  0  0  2  0  0  0  0  0  0
  181.2920  179.2640  139.4050 C   0  0  1  0  0  3  0  0  0  0  0  0
  187.8100  177.8820  137.8910 C   0  0  0  0  0  0  0  0  0  0  0  0
  184.0550  178.5770  138.4380 C   0  0  2  0  0  3  0  0  0  0  0  0
  180.7580  179.7350  140.6050 O   0  0  0  0  0  1  0  0  0  0  0  0
  182.3500  177.2740  137.1910 C   0  0  0  0  0  2  0  0  0  0  0  0
  190.4360  177.9680  140.3140 O   0  0  0  0  0  1  0  0  0  0  0  0
  186.2180  176.2080  135.4470 C   0  0  0  0  0  0  0  0  0  0  0  0
  185.9320  177.2100  136.4460 C   0  0  0  0  0  0  0  0  0  0  0  0
  187.8130  178.6670  141.4710 O   0  0  0  0  0  0  0  0  0  0  0  0
  186.3780  178.1560  137.5170 C   0  0  1  0  0  3  0  0  0  0  0  0
  182.6850  175.8900  136.6350 C   0  0  0  0  0  2  0  0  0  0  0  0
  182.9660  177.5020  138.5700 C   0  0  2  0  0  3  0  0  0  0  0  0
  187.1520  175.3850  134.7520 N   0  0  0  0  0  2  0  0  0  0  0  0
  188.9150  173.6660  134.6660 N   0  0  0  0  0  2  0  0  0  0  0  0
  189.8060  172.7040  135.2910 C   0  0  0  0  0  1  0  0  0  0  0  0
  187.9490  174.3370  136.6810 O   0  0  0  0  0  0  0  0  0  0  0  0
  188.0030  174.4560  135.4270 C   0  0  0  0  0  0  0  0  0  0  0  0
  1 22  2  0  0  0  0
  2  7  1  0  0  0  0
  2 19  1  0  0  0  0
  3 21  1  0  0  0  0
  3 13  1  1  0  0  0
  5  8  1  0  0  0  0
  5 15  2  0  0  0  0
  6  9  1  1  0  0  0
  7 15  1  6  0  0  0
  7  1  1  0  0  0  0
  8  2  2  0  0  0  0
  9  1  1  0  0  0  0
 10 12  1  0  0  0  0
 10 14  1  0  0  0  0
 11  4  1  6  0  0  0
 13 24  1  0  0  0  0
 14 11  1  0  0  0  0
 14 17  1  1  0  0  0
 16 25  1  0  0  0  0
 16  6  1  0  0  0  0
 16 12  1  1  0  0  0
 20  3  1  0  0  0  0
 20 21  2  0  0  0  0
 23 21  1  6  0  0  0
 23 15  1  0  0  0  0
 23  6  1  0  0  0  0
 24 18  1  0  0  0  0
 25 18  1  6  0  0  0
 25 11  1  0  0  0  0
 26 30  1  0  0  0  0
 26 20  1  0  0  0  0
 27 28  1  0  0  0  0
 27 30  1  0  0  0  0
 30 29  2  0  0  0  0
M  END
>  <MODEL>
9

>  <REMARK>
 VINA RESULT:      -6.5      3.407      7.470
  Name = 
  1 active torsions:
  status: ('A' for Active; 'I' for Inactive)
    1  A    between atoms: N_2  and  C_24
                            x       y       z     vdW  Elec       q    Type
                         _______ _______ _______ _____ _____    ______ ____

>  <TORSDO>
F 1

$$$$
