=
 OpenBabel10232412303D

 29 32  0  0  1  0  0  0  0  0999 V2000
  190.3680  177.9270  141.4840 C   0  0  2  0  0  3  0  0  0  0  0  0
  187.2470  177.7530  142.9350 C   0  0  0  0  0  2  0  0  0  0  0  0
  188.2700  178.6730  141.0490 O   0  0  0  0  0  0  0  0  0  0  0  0
  190.8300  177.5310  142.8740 C   0  0  2  0  0  3  0  0  0  0  0  0
  187.0210  178.5180  141.6680 C   0  0  0  0  0  2  0  0  0  0  0  0
  189.5640  177.3150  143.6640 C   0  0  1  0  0  3  0  0  0  0  0  0
  188.5100  177.0210  142.6180 C   0  0  2  0  0  3  0  0  0  0  0  0
  188.9700  177.5320  141.3250 N   0  0  2  0  0  0  0  0  0  0  0  0
  191.7490  173.9170  136.5370 S   0  0  0  0  0  0  0  0  0  0  0  0
  192.5200  175.8320  138.2160 N   0  0  0  0  0  0  0  0  0  0  0  0
  191.2100  177.3010  140.4200 C   0  0  0  0  0  0  0  0  0  0  0  0
  191.2590  175.6960  138.4440 C   0  0  0  0  0  0  0  0  0  0  0  0
  190.5900  176.4130  139.4860 N   0  0  0  0  0  2  0  0  0  0  0  0
  192.4510  177.5190  140.3840 O   0  0  0  0  0  0  0  0  0  0  0  0
  193.0630  175.0290  137.1380 C   0  0  1  0  0  3  0  0  0  0  0  0
  190.5200  174.7410  137.5910 C   0  0  0  0  0  2  0  0  0  0  0  0
  194.2300  174.2300  137.6140 C   0  0  0  0  0  0  0  0  0  0  0  0
  196.0770  172.6280  137.9730 C   0  0  0  0  0  3  0  0  0  0  0  0
  196.1600  173.8210  138.6930 C   0  0  0  0  0  3  0  0  0  0  0  0
  195.1450  174.7040  138.4840 N   0  0  0  0  0  0  0  0  0  0  0  0
  194.6700  172.7110  137.0500 S   0  0  0  0  0  0  0  0  0  0  0  0
  190.9650  179.8060  143.9940 C   0  0  0  0  0  1  0  0  0  0  0  0
  191.7360  178.5880  143.5040 C   0  0  0  0  0  2  0  0  0  0  0  0
  189.7120  176.1720  144.5490 N   0  0  0  0  0  2  0  0  0  0  0  0
  189.9820  176.6920  145.8820 C   0  0  0  0  0  2  0  0  0  0  0  0
  189.0480  177.8510  146.1890 C   0  0  0  0  0  2  0  0  0  0  0  0
  188.1900  177.9950  148.5040 C   0  0  0  0  0  1  0  0  0  0  0  0
  187.9300  177.4260  147.1270 C   0  0  0  0  0  3  0  0  0  0  0  0
  186.5990  177.9390  146.6190 C   0  0  0  0  0  1  0  0  0  0  0  0
  1 11  1  6  0  0  0
  1  4  1  0  0  0  0
  3  5  1  0  0  0  0
  4 23  1  1  0  0  0
  4  6  1  0  0  0  0
  5  2  1  0  0  0  0
  6 24  1  1  0  0  0
  7  2  1  1  0  0  0
  7  6  1  0  0  0  0
  8  3  1  1  0  0  0
  8  1  1  0  0  0  0
  8  7  1  0  0  0  0
  9 15  1  0  0  0  0
  9 16  1  0  0  0  0
 10 12  2  0  0  0  0
 12 13  1  0  0  0  0
 13 11  1  0  0  0  0
 14 11  2  0  0  0  0
 15 17  1  1  0  0  0
 15 10  1  0  0  0  0
 16 12  1  0  0  0  0
 17 20  2  0  0  0  0
 18 19  2  0  0  0  0
 20 19  1  0  0  0  0
 21 17  1  0  0  0  0
 21 18  1  0  0  0  0
 23 22  1  0  0  0  0
 24 25  1  0  0  0  0
 25 26  1  0  0  0  0
 26 28  1  0  0  0  0
 28 27  1  0  0  0  0
 29 28  1  0  0  0  0
M  END
>  <MODEL>
1

>  <REMARK>
 VINA RESULT:      -7.2      0.000      0.000
  Name = 
  7 active torsions:
  status: ('A' for Active; 'I' for Inactive)
    1  A    between atoms: C_1  and  C_27
    2  A    between atoms: C_4  and  C_5
    3  A    between atoms: N_6  and  C_10
    4  A    between atoms: N_6  and  C_21
    5  A    between atoms: C_10  and  C_19
    6  A    between atoms: C_13  and  C_18
    7  A    between atoms: C_19  and  C_22
                            x       y       z     vdW  Elec       q    Type
                         _______ _______ _______ _____ _____    ______ ____

>  <TORSDO>
F 7

$$$$
=
 OpenBabel10232412303D

 29 32  0  0  1  0  0  0  0  0999 V2000
  188.2230  178.6690  141.4550 C   0  0  2  0  0  3  0  0  0  0  0  0
  185.6210  178.4000  143.6980 C   0  0  0  0  0  2  0  0  0  0  0  0
  186.1470  179.5390  141.7300 O   0  0  0  0  0  0  0  0  0  0  0  0
  189.0210  178.0650  142.5960 C   0  0  2  0  0  3  0  0  0  0  0  0
  185.1090  179.3420  142.6530 C   0  0  0  0  0  2  0  0  0  0  0  0
  188.0110  177.7840  143.6800 C   0  0  1  0  0  3  0  0  0  0  0  0
  186.6900  177.6760  142.9470 C   0  0  2  0  0  3  0  0  0  0  0  0
  186.8110  178.3480  141.6510 N   0  0  2  0  0  0  0  0  0  0  0  0
  187.8900  177.4780  135.0580 S   0  0  0  0  0  0  0  0  0  0  0  0
  189.2420  177.3390  137.3450 N   0  0  0  0  0  0  0  0  0  0  0  0
  188.6910  178.1700  140.1270 C   0  0  0  0  0  0  0  0  0  0  0  0
  188.2010  178.0430  137.6310 C   0  0  0  0  0  0  0  0  0  0  0  0
  187.9200  178.4830  138.9630 N   0  0  0  0  0  2  0  0  0  0  0  0
  189.7210  177.4470  140.0480 O   0  0  0  0  0  0  0  0  0  0  0  0
  189.3870  176.9520  135.9560 C   0  0  1  0  0  3  0  0  0  0  0  0
  187.2800  178.3650  136.5210 C   0  0  0  0  0  2  0  0  0  0  0  0
  189.5610  175.4750  135.8360 C   0  0  0  0  0  0  0  0  0  0  0  0
  190.2730  173.1550  135.3680 C   0  0  0  0  0  3  0  0  0  0  0  0
  189.3690  173.3120  136.4210 C   0  0  0  0  0  3  0  0  0  0  0  0
  188.9880  174.5930  136.6800 N   0  0  0  0  0  0  0  0  0  0  0  0
  190.5880  174.6950  134.7610 S   0  0  0  0  0  0  0  0  0  0  0  0
  191.4440  178.2500  143.3360 C   0  0  0  0  0  1  0  0  0  0  0  0
  190.1410  178.9920  143.0710 C   0  0  0  0  0  2  0  0  0  0  0  0
  188.3140  176.5240  144.3350 N   0  0  0  0  0  2  0  0  0  0  0  0
  188.9850  176.8410  145.5880 C   0  0  0  0  0  2  0  0  0  0  0  0
  188.3860  178.0990  146.1960 C   0  0  0  0  0  2  0  0  0  0  0  0
  188.1750  178.0210  148.6590 C   0  0  0  0  0  1  0  0  0  0  0  0
  187.4570  177.7650  147.3530 C   0  0  0  0  0  3  0  0  0  0  0  0
  186.2140  178.6280  147.2900 C   0  0  0  0  0  1  0  0  0  0  0  0
  1 11  1  6  0  0  0
  1  8  1  0  0  0  0
  1  4  1  0  0  0  0
  3  5  1  0  0  0  0
  4 23  1  1  0  0  0
  4  6  1  0  0  0  0
  5  2  1  0  0  0  0
  6 24  1  6  0  0  0
  7  6  1  0  0  0  0
  7  2  1  1  0  0  0
  8  3  1  1  0  0  0
  8  7  1  0  0  0  0
  9 15  1  0  0  0  0
  9 16  1  0  0  0  0
 10 12  2  0  0  0  0
 12 13  1  0  0  0  0
 13 11  1  0  0  0  0
 14 11  2  0  0  0  0
 15 17  1  1  0  0  0
 15 10  1  0  0  0  0
 16 12  1  0  0  0  0
 17 20  2  0  0  0  0
 18 19  2  0  0  0  0
 19 20  1  0  0  0  0
 21 18  1  0  0  0  0
 21 17  1  0  0  0  0
 23 22  1  0  0  0  0
 24 25  1  0  0  0  0
 25 26  1  0  0  0  0
 26 28  1  0  0  0  0
 28 27  1  0  0  0  0
 29 28  1  0  0  0  0
M  END
>  <MODEL>
2

>  <REMARK>
 VINA RESULT:      -7.2      3.063      3.529
  Name = 
  7 active torsions:
  status: ('A' for Active; 'I' for Inactive)
    1  A    between atoms: C_1  and  C_27
    2  A    between atoms: C_4  and  C_5
    3  A    between atoms: N_6  and  C_10
    4  A    between atoms: N_6  and  C_21
    5  A    between atoms: C_10  and  C_19
    6  A    between atoms: C_13  and  C_18
    7  A    between atoms: C_19  and  C_22
                            x       y       z     vdW  Elec       q    Type
                         _______ _______ _______ _____ _____    ______ ____

>  <TORSDO>
F 7

$$$$
=
 OpenBabel10232412303D

 29 32  0  0  1  0  0  0  0  0999 V2000
  185.8610  178.9590  142.1870 C   0  0  2  0  0  3  0  0  0  0  0  0
  186.2860  177.9890  145.4670 C   0  0  0  0  0  2  0  0  0  0  0  0
  185.1820  179.6410  144.2410 O   0  0  0  0  0  0  0  0  0  0  0  0
  187.0920  178.0990  141.9700 C   0  0  2  0  0  3  0  0  0  0  0  0
  185.3560  179.1600  145.5470 C   0  0  0  0  0  2  0  0  0  0  0  0
  187.3950  177.4940  143.3180 C   0  0  1  0  0  3  0  0  0  0  0  0
  186.0750  177.5400  144.0580 C   0  0  2  0  0  3  0  0  0  0  0  0
  185.2130  178.5430  143.4290 N   0  0  2  0  0  0  0  0  0  0  0  0
  180.9150  176.5130  138.7220 S   0  0  0  0  0  0  0  0  0  0  0  0
  182.8420  178.3270  138.9960 N   0  0  0  0  0  0  0  0  0  0  0  0
  184.9070  178.8590  141.0430 C   0  0  0  0  0  0  0  0  0  0  0  0
  182.8470  177.6850  140.1130 C   0  0  0  0  0  0  0  0  0  0  0  0
  183.8160  177.9370  141.1350 N   0  0  0  0  0  2  0  0  0  0  0  0
  185.0930  179.5420  139.9990 O   0  0  0  0  0  0  0  0  0  0  0  0
  181.8100  177.9520  138.0500 C   0  0  1  0  0  3  0  0  0  0  0  0
  181.8130  176.6450  140.2970 C   0  0  0  0  0  2  0  0  0  0  0  0
  182.4080  177.6090  136.7270 C   0  0  0  0  0  0  0  0  0  0  0  0
  183.0220  177.3400  134.3480 C   0  0  0  0  0  3  0  0  0  0  0  0
  184.0160  177.0140  135.2720 C   0  0  0  0  0  3  0  0  0  0  0  0
  183.6750  177.1730  136.5800 N   0  0  0  0  0  0  0  0  0  0  0  0
  181.6790  177.8440  135.2330 S   0  0  0  0  0  0  0  0  0  0  0  0
  188.8300  178.3130  140.1300 C   0  0  0  0  0  1  0  0  0  0  0  0
  188.2680  178.9040  141.4160 C   0  0  0  0  0  2  0  0  0  0  0  0
  187.8280  176.1160  143.1650 N   0  0  0  0  0  2  0  0  0  0  0  0
  189.2830  176.1130  143.2210 C   0  0  0  0  0  2  0  0  0  0  0  0
  189.7630  176.9980  144.3600 C   0  0  0  0  0  2  0  0  0  0  0  0
  191.5970  177.1100  142.7050 C   0  0  0  0  0  1  0  0  0  0  0  0
  191.1090  177.6280  144.0400 C   0  0  0  0  0  3  0  0  0  0  0  0
  190.9770  179.1350  143.9710 C   0  0  0  0  0  1  0  0  0  0  0  0
  1 11  1  6  0  0  0
  1  8  1  0  0  0  0
  2  5  1  0  0  0  0
  3  5  1  0  0  0  0
  4 23  1  1  0  0  0
  4  1  1  0  0  0  0
  4  6  1  0  0  0  0
  6 24  1  6  0  0  0
  6  7  1  0  0  0  0
  7  2  1  1  0  0  0
  8  7  1  0  0  0  0
  8  3  1  1  0  0  0
  9 16  1  0  0  0  0
 10 12  2  0  0  0  0
 11 13  1  0  0  0  0
 12 16  1  0  0  0  0
 12 13  1  0  0  0  0
 14 11  2  0  0  0  0
 15 17  1  6  0  0  0
 15  9  1  0  0  0  0
 15 10  1  0  0  0  0
 18 21  1  0  0  0  0
 18 19  2  0  0  0  0
 19 20  1  0  0  0  0
 20 17  2  0  0  0  0
 21 17  1  0  0  0  0
 22 23  1  0  0  0  0
 24 25  1  0  0  0  0
 25 26  1  0  0  0  0
 27 28  1  0  0  0  0
 28 26  1  0  0  0  0
 29 28  1  0  0  0  0
M  END
>  <MODEL>
3

>  <REMARK>
 VINA RESULT:      -7.1      5.294      7.908
  Name = 
  7 active torsions:
  status: ('A' for Active; 'I' for Inactive)
    1  A    between atoms: C_1  and  C_27
    2  A    between atoms: C_4  and  C_5
    3  A    between atoms: N_6  and  C_10
    4  A    between atoms: N_6  and  C_21
    5  A    between atoms: C_10  and  C_19
    6  A    between atoms: C_13  and  C_18
    7  A    between atoms: C_19  and  C_22
                            x       y       z     vdW  Elec       q    Type
                         _______ _______ _______ _____ _____    ______ ____

>  <TORSDO>
F 7

$$$$
=
 OpenBabel10232412303D

 29 32  0  0  1  0  0  0  0  0999 V2000
  189.7700  177.2980  139.7920 C   0  0  2  0  0  3  0  0  0  0  0  0
  191.8880  175.8170  137.5110 C   0  0  0  0  0  2  0  0  0  0  0  0
  192.0050  177.1150  139.4470 O   0  0  0  0  0  0  0  0  0  0  0  0
  188.7480  177.1000  138.6890 C   0  0  2  0  0  3  0  0  0  0  0  0
  192.8070  176.4450  138.5130 C   0  0  0  0  0  2  0  0  0  0  0  0
  189.4820  176.3630  137.5970 C   0  0  1  0  0  3  0  0  0  0  0  0
  190.6310  175.6800  138.3070 C   0  0  2  0  0  3  0  0  0  0  0  0
  190.8730  176.3620  139.5810 N   0  0  2  0  0  0  0  0  0  0  0  0
  185.6240  178.3410  144.7090 S   0  0  0  0  0  0  0  0  0  0  0  0
  187.6960  177.0070  143.7050 N   0  0  0  0  0  0  0  0  0  0  0  0
  189.1700  177.0980  141.1460 C   0  0  0  0  0  0  0  0  0  0  0  0
  187.2720  177.7260  142.7230 C   0  0  0  0  0  0  0  0  0  0  0  0
  187.9480  177.7710  141.4630 N   0  0  0  0  0  2  0  0  0  0  0  0
  189.7610  176.3860  142.0030 O   0  0  0  0  0  0  0  0  0  0  0  0
  186.9170  177.0750  144.9260 C   0  0  1  0  0  3  0  0  0  0  0  0
  186.0560  178.5330  142.9550 C   0  0  0  0  0  2  0  0  0  0  0  0
  187.7870  177.4270  146.0860 C   0  0  0  0  0  0  0  0  0  0  0  0
  188.7790  178.0540  148.2610 C   0  0  0  0  0  3  0  0  0  0  0  0
  189.6470  177.4480  147.3510 C   0  0  0  0  0  3  0  0  0  0  0  0
  189.0920  177.0960  146.1580 N   0  0  0  0  0  0  0  0  0  0  0  0
  187.2700  178.1380  147.5160 S   0  0  0  0  0  0  0  0  0  0  0  0
  189.0720  179.1470  137.2210 C   0  0  0  0  0  1  0  0  0  0  0  0
  188.1600  178.4250  138.2030 C   0  0  0  0  0  2  0  0  0  0  0  0
  188.6150  175.3670  136.9910 N   0  0  0  0  0  2  0  0  0  0  0  0
  188.3160  175.8200  135.6410 C   0  0  0  0  0  2  0  0  0  0  0  0
  186.8840  175.4660  135.2760 C   0  0  0  0  0  2  0  0  0  0  0  0
  185.3560  177.1410  136.2650 C   0  0  0  0  0  1  0  0  0  0  0  0
  186.0610  176.7140  134.9970 C   0  0  0  0  0  3  0  0  0  0  0  0
  186.9600  177.8380  134.5240 C   0  0  0  0  0  1  0  0  0  0  0  0
  1 11  1  1  0  0  0
  2  5  1  0  0  0  0
  4 23  1  6  0  0  0
  4  1  1  0  0  0  0
  5  3  1  0  0  0  0
  6 24  1  1  0  0  0
  6  7  1  0  0  0  0
  6  4  1  0  0  0  0
  7  2  1  6  0  0  0
  7  8  1  0  0  0  0
  8  3  1  6  0  0  0
  8  1  1  0  0  0  0
  9 15  1  0  0  0  0
 10 15  1  0  0  0  0
 11 13  1  0  0  0  0
 11 14  2  0  0  0  0
 12 16  1  0  0  0  0
 12 10  2  0  0  0  0
 13 12  1  0  0  0  0
 15 17  1  1  0  0  0
 16  9  1  0  0  0  0
 17 20  2  0  0  0  0
 17 21  1  0  0  0  0
 19 18  2  0  0  0  0
 20 19  1  0  0  0  0
 21 18  1  0  0  0  0
 22 23  1  0  0  0  0
 25 24  1  0  0  0  0
 26 25  1  0  0  0  0
 28 26  1  0  0  0  0
 28 27  1  0  0  0  0
 29 28  1  0  0  0  0
M  END
>  <MODEL>
4

>  <REMARK>
 VINA RESULT:      -6.8      4.155      8.730
  Name = 
  7 active torsions:
  status: ('A' for Active; 'I' for Inactive)
    1  A    between atoms: C_1  and  C_27
    2  A    between atoms: C_4  and  C_5
    3  A    between atoms: N_6  and  C_10
    4  A    between atoms: N_6  and  C_21
    5  A    between atoms: C_10  and  C_19
    6  A    between atoms: C_13  and  C_18
    7  A    between atoms: C_19  and  C_22
                            x       y       z     vdW  Elec       q    Type
                         _______ _______ _______ _____ _____    ______ ____

>  <TORSDO>
F 7

$$$$
=
 OpenBabel10232412303D

 29 32  0  0  1  0  0  0  0  0999 V2000
  188.6380  178.1870  142.2750 C   0  0  2  0  0  3  0  0  0  0  0  0
  185.9750  178.1140  144.4620 C   0  0  0  0  0  2  0  0  0  0  0  0
  186.4520  178.7930  142.2800 O   0  0  0  0  0  0  0  0  0  0  0  0
  189.4450  178.0060  143.5470 C   0  0  2  0  0  3  0  0  0  0  0  0
  185.4010  178.6850  143.2020 C   0  0  0  0  0  2  0  0  0  0  0  0
  188.4230  177.8610  144.6470 C   0  0  1  0  0  3  0  0  0  0  0  0
  187.1710  177.3870  143.9390 C   0  0  2  0  0  3  0  0  0  0  0  0
  187.2720  177.7270  142.5180 N   0  0  2  0  0  0  0  0  0  0  0  0
  193.3350  176.3330  138.1580 S   0  0  0  0  0  0  0  0  0  0  0  0
  190.8060  176.1730  138.9670 N   0  0  0  0  0  0  0  0  0  0  0  0
  189.2400  177.4460  141.1260 C   0  0  0  0  0  0  0  0  0  0  0  0
  191.3820  176.8990  139.8620 C   0  0  0  0  0  0  0  0  0  0  0  0
  190.6570  177.5070  140.9350 N   0  0  0  0  0  2  0  0  0  0  0  0
  188.5020  176.8210  140.3180 O   0  0  0  0  0  0  0  0  0  0  0  0
  191.6660  175.6360  137.9310 C   0  0  1  0  0  3  0  0  0  0  0  0
  192.8400  177.1030  139.7270 C   0  0  0  0  0  2  0  0  0  0  0  0
  191.1450  175.9900  136.5780 C   0  0  0  0  0  0  0  0  0  0  0  0
  189.9750  176.9000  134.6000 C   0  0  0  0  0  3  0  0  0  0  0  0
  191.1880  176.2580  134.3460 C   0  0  0  0  0  3  0  0  0  0  0  0
  191.8320  175.7670  135.4400 N   0  0  0  0  0  0  0  0  0  0  0  0
  189.7280  176.8350  136.2660 S   0  0  0  0  0  0  0  0  0  0  0  0
  191.8220  178.7100  144.0980 C   0  0  0  0  0  1  0  0  0  0  0  0
  190.4030  179.1710  143.7930 C   0  0  0  0  0  2  0  0  0  0  0  0
  188.8560  176.8600  145.6060 N   0  0  0  0  0  2  0  0  0  0  0  0
  189.5960  177.5550  146.6490 C   0  0  0  0  0  2  0  0  0  0  0  0
  190.3630  176.5560  147.5000 C   0  0  0  0  0  2  0  0  0  0  0  0
  192.6100  175.7580  148.1550 C   0  0  0  0  0  1  0  0  0  0  0  0
  191.8240  176.4870  147.0880 C   0  0  0  0  0  3  0  0  0  0  0  0
  191.9630  175.7460  145.7740 C   0  0  0  0  0  1  0  0  0  0  0  0
  1 11  1  6  0  0  0
  1  8  1  0  0  0  0
  1  4  1  0  0  0  0
  3  5  1  0  0  0  0
  4 23  1  1  0  0  0
  4  6  1  0  0  0  0
  5  2  1  0  0  0  0
  6 24  1  1  0  0  0
  7  2  1  1  0  0  0
  7  6  1  0  0  0  0
  8  3  1  1  0  0  0
  8  7  1  0  0  0  0
  9 16  1  0  0  0  0
 10 12  2  0  0  0  0
 12 13  1  0  0  0  0
 13 11  1  0  0  0  0
 14 11  2  0  0  0  0
 15 17  1  6  0  0  0
 15  9  1  0  0  0  0
 15 10  1  0  0  0  0
 16 12  1  0  0  0  0
 18 21  1  0  0  0  0
 19 18  2  0  0  0  0
 19 20  1  0  0  0  0
 20 17  2  0  0  0  0
 21 17  1  0  0  0  0
 23 22  1  0  0  0  0
 24 25  1  0  0  0  0
 25 26  1  0  0  0  0
 28 26  1  0  0  0  0
 28 27  1  0  0  0  0
 29 28  1  0  0  0  0
M  END
>  <MODEL>
5

>  <REMARK>
 VINA RESULT:      -6.8      2.430      3.585
  Name = 
  7 active torsions:
  status: ('A' for Active; 'I' for Inactive)
    1  A    between atoms: C_1  and  C_27
    2  A    between atoms: C_4  and  C_5
    3  A    between atoms: N_6  and  C_10
    4  A    between atoms: N_6  and  C_21
    5  A    between atoms: C_10  and  C_19
    6  A    between atoms: C_13  and  C_18
    7  A    between atoms: C_19  and  C_22
                            x       y       z     vdW  Elec       q    Type
                         _______ _______ _______ _____ _____    ______ ____

>  <TORSDO>
F 7

$$$$
=
 OpenBabel10232412303D

 29 32  0  0  1  0  0  0  0  0999 V2000
  183.2470  178.3000  138.5080 C   0  0  2  0  0  3  0  0  0  0  0  0
  180.6570  176.1990  139.3780 C   0  0  0  0  0  2  0  0  0  0  0  0
  182.2810  176.4070  137.7140 O   0  0  0  0  0  0  0  0  0  0  0  0
  182.5330  179.2590  139.4420 C   0  0  2  0  0  3  0  0  0  0  0  0
  181.2480  175.5680  138.1550 C   0  0  0  0  0  2  0  0  0  0  0  0
  181.3800  178.4720  140.0120 C   0  0  1  0  0  3  0  0  0  0  0  0
  181.8010  177.0250  139.8670 C   0  0  2  0  0  3  0  0  0  0  0  0
  182.8430  176.9350  138.8420 N   0  0  2  0  0  0  0  0  0  0  0  0
  189.4740  176.9910  137.1070 S   0  0  0  0  0  0  0  0  0  0  0  0
  187.6840  178.4110  138.4700 N   0  0  0  0  0  0  0  0  0  0  0  0
  184.7310  178.4410  138.5980 C   0  0  0  0  0  0  0  0  0  0  0  0
  186.9790  177.7130  137.6480 C   0  0  0  0  0  0  0  0  0  0  0  0
  185.5480  177.7260  137.6660 N   0  0  0  0  0  2  0  0  0  0  0  0
  185.2480  179.1400  139.5120 O   0  0  0  0  0  0  0  0  0  0  0  0
  189.1220  178.2840  138.3430 C   0  0  1  0  0  3  0  0  0  0  0  0
  187.7120  176.8670  136.6830 C   0  0  0  0  0  2  0  0  0  0  0  0
  189.7360  177.9180  139.6530 C   0  0  0  0  0  0  0  0  0  0  0  0
  190.2630  177.2210  141.9660 C   0  0  0  0  0  3  0  0  0  0  0  0
  191.3280  177.1870  141.0640 C   0  0  0  0  0  3  0  0  0  0  0  0
  191.0290  177.5630  139.7900 N   0  0  0  0  0  0  0  0  0  0  0  0
  188.9110  177.7440  141.1050 S   0  0  0  0  0  0  0  0  0  0  0  0
  181.2380  180.2320  137.4860 C   0  0  0  0  0  1  0  0  0  0  0  0
  182.0730  180.5280  138.7250 C   0  0  0  0  0  2  0  0  0  0  0  0
  181.1970  178.7930  141.4170 N   0  0  0  0  0  2  0  0  0  0  0  0
  182.5090  178.7390  142.0450 C   0  0  0  0  0  2  0  0  0  0  0  0
  182.3920  179.0570  143.5270 C   0  0  0  0  0  2  0  0  0  0  0  0
  183.9960  178.8050  145.3930 C   0  0  0  0  0  1  0  0  0  0  0  0
  183.7200  179.5330  144.0960 C   0  0  0  0  0  3  0  0  0  0  0  0
  184.8390  179.2470  143.1170 C   0  0  0  0  0  1  0  0  0  0  0  0
  1 11  1  1  0  0  0
  1  8  1  0  0  0  0
  1  4  1  0  0  0  0
  3  5  1  0  0  0  0
  4 23  1  6  0  0  0
  4  6  1  0  0  0  0
  5  2  1  0  0  0  0
  6 24  1  1  0  0  0
  7  2  1  6  0  0  0
  7  6  1  0  0  0  0
  8  3  1  6  0  0  0
  8  7  1  0  0  0  0
  9 15  1  0  0  0  0
 11 14  2  0  0  0  0
 12 13  1  0  0  0  0
 12 10  2  0  0  0  0
 13 11  1  0  0  0  0
 15 10  1  0  0  0  0
 15 17  1  1  0  0  0
 16  9  1  0  0  0  0
 16 12  1  0  0  0  0
 17 20  2  0  0  0  0
 17 21  1  0  0  0  0
 19 18  2  0  0  0  0
 20 19  1  0  0  0  0
 21 18  1  0  0  0  0
 22 23  1  0  0  0  0
 24 25  1  0  0  0  0
 25 26  1  0  0  0  0
 26 28  1  0  0  0  0
 28 27  1  0  0  0  0
 29 28  1  0  0  0  0
M  END
>  <MODEL>
6

>  <REMARK>
 VINA RESULT:      -6.8      4.973      7.261
  Name = 
  7 active torsions:
  status: ('A' for Active; 'I' for Inactive)
    1  A    between atoms: C_1  and  C_27
    2  A    between atoms: C_4  and  C_5
    3  A    between atoms: N_6  and  C_10
    4  A    between atoms: N_6  and  C_21
    5  A    between atoms: C_10  and  C_19
    6  A    between atoms: C_13  and  C_18
    7  A    between atoms: C_19  and  C_22
                            x       y       z     vdW  Elec       q    Type
                         _______ _______ _______ _____ _____    ______ ____

>  <TORSDO>
F 7

$$$$
=
 OpenBabel10232412303D

 29 32  0  0  1  0  0  0  0  0999 V2000
  190.4410  177.2550  138.9070 C   0  0  2  0  0  3  0  0  0  0  0  0
  192.4310  175.6990  136.5630 C   0  0  0  0  0  2  0  0  0  0  0  0
  192.6450  176.8200  138.5990 O   0  0  0  0  0  0  0  0  0  0  0  0
  189.4370  177.2720  137.7690 C   0  0  2  0  0  3  0  0  0  0  0  0
  193.3880  176.1280  137.6320 C   0  0  0  0  0  2  0  0  0  0  0  0
  190.1100  176.5350  136.6380 C   0  0  1  0  0  3  0  0  0  0  0  0
  191.1430  175.6610  137.3170 C   0  0  2  0  0  3  0  0  0  0  0  0
  191.4260  176.2070  138.6460 N   0  0  2  0  0  0  0  0  0  0  0  0
  186.1150  178.2570  143.6760 S   0  0  0  0  0  0  0  0  0  0  0  0
  188.1910  176.8970  142.7170 N   0  0  0  0  0  0  0  0  0  0  0  0
  189.7770  177.0280  140.2270 C   0  0  0  0  0  0  0  0  0  0  0  0
  187.8300  177.6590  141.7420 C   0  0  0  0  0  0  0  0  0  0  0  0
  188.5610  177.7260  140.5140 N   0  0  0  0  0  2  0  0  0  0  0  0
  190.3110  176.2730  141.0840 O   0  0  0  0  0  0  0  0  0  0  0  0
  187.3630  176.9470  143.9050 C   0  0  1  0  0  3  0  0  0  0  0  0
  186.6280  178.4930  141.9490 C   0  0  0  0  0  2  0  0  0  0  0  0
  188.1910  177.2370  145.1120 C   0  0  0  0  0  0  0  0  0  0  0  0
  189.1110  177.6830  147.3620 C   0  0  0  0  0  3  0  0  0  0  0  0
  190.0370  177.2850  146.3960 C   0  0  0  0  0  3  0  0  0  0  0  0
  189.5230  177.0320  145.1610 N   0  0  0  0  0  0  0  0  0  0  0  0
  187.6020  177.7080  146.6120 S   0  0  0  0  0  0  0  0  0  0  0  0
  187.5900  178.7830  136.9000 C   0  0  0  0  0  1  0  0  0  0  0  0
  189.0330  178.6930  137.3780 C   0  0  0  0  0  2  0  0  0  0  0  0
  189.1470  175.7050  135.9360 N   0  0  0  0  0  2  0  0  0  0  0  0
  188.6400  174.7310  136.8920 C   0  0  0  0  0  2  0  0  0  0  0  0
  187.1230  174.6700  136.8210 C   0  0  0  0  0  2  0  0  0  0  0  0
  187.7700  172.2900  137.0020 C   0  0  0  0  0  1  0  0  0  0  0  0
  186.6330  173.2370  136.6890 C   0  0  0  0  0  3  0  0  0  0  0  0
  185.4940  172.9830  137.6530 C   0  0  0  0  0  1  0  0  0  0  0  0
  1 11  1  1  0  0  0
  2  5  1  0  0  0  0
  4 23  1  6  0  0  0
  4  1  1  0  0  0  0
  5  3  1  0  0  0  0
  6 24  1  1  0  0  0
  6  7  1  0  0  0  0
  6  4  1  0  0  0  0
  7  2  1  6  0  0  0
  7  8  1  0  0  0  0
  8  3  1  6  0  0  0
  8  1  1  0  0  0  0
  9 15  1  0  0  0  0
 10 15  1  0  0  0  0
 11 13  1  0  0  0  0
 11 14  2  0  0  0  0
 12 16  1  0  0  0  0
 12 10  2  0  0  0  0
 13 12  1  0  0  0  0
 15 17  1  1  0  0  0
 16  9  1  0  0  0  0
 17 20  2  0  0  0  0
 17 21  1  0  0  0  0
 19 18  2  0  0  0  0
 20 19  1  0  0  0  0
 21 18  1  0  0  0  0
 22 23  1  0  0  0  0
 24 25  1  0  0  0  0
 26 25  1  0  0  0  0
 28 26  1  0  0  0  0
 28 27  1  0  0  0  0
 28 29  1  0  0  0  0
M  END
>  <MODEL>
7

>  <REMARK>
 VINA RESULT:      -6.7      3.753      8.314
  Name = 
  7 active torsions:
  status: ('A' for Active; 'I' for Inactive)
    1  A    between atoms: C_1  and  C_27
    2  A    between atoms: C_4  and  C_5
    3  A    between atoms: N_6  and  C_10
    4  A    between atoms: N_6  and  C_21
    5  A    between atoms: C_10  and  C_19
    6  A    between atoms: C_13  and  C_18
    7  A    between atoms: C_19  and  C_22
                            x       y       z     vdW  Elec       q    Type
                         _______ _______ _______ _____ _____    ______ ____

>  <TORSDO>
F 7

$$$$
=
 OpenBabel10232412303D

 29 32  0  0  1  0  0  0  0  0999 V2000
  189.9280  177.2760  138.5110 C   0  0  2  0  0  3  0  0  0  0  0  0
  191.1220  174.8060  136.4250 C   0  0  0  0  0  2  0  0  0  0  0  0
  191.9170  176.6440  137.6230 O   0  0  0  0  0  0  0  0  0  0  0  0
  188.5930  176.8800  137.9060 C   0  0  2  0  0  3  0  0  0  0  0  0
  192.3420  175.5830  136.8110 C   0  0  0  0  0  2  0  0  0  0  0  0
  188.9000  175.7150  136.9990 C   0  0  1  0  0  3  0  0  0  0  0  0
  190.1910  175.1410  137.5440 C   0  0  2  0  0  3  0  0  0  0  0  0
  190.8630  176.1640  138.3470 N   0  0  2  0  0  0  0  0  0  0  0  0
  191.1920  176.9580  144.8950 S   0  0  0  0  0  0  0  0  0  0  0  0
  189.8480  178.0580  142.8790 N   0  0  0  0  0  0  0  0  0  0  0  0
  189.7960  177.6380  139.9540 C   0  0  0  0  0  0  0  0  0  0  0  0
  190.7020  177.2810  142.3070 C   0  0  0  0  0  0  0  0  0  0  0  0
  190.7200  177.0760  140.8910 N   0  0  0  0  0  2  0  0  0  0  0  0
  188.8560  178.3860  140.3370 O   0  0  0  0  0  0  0  0  0  0  0  0
  189.9400  178.1540  144.3220 C   0  0  1  0  0  3  0  0  0  0  0  0
  191.6640  176.5780  143.1820 C   0  0  0  0  0  2  0  0  0  0  0  0
  188.6220  177.8550  144.9540 C   0  0  0  0  0  0  0  0  0  0  0  0
  186.6740  177.5080  146.4370 C   0  0  0  0  0  3  0  0  0  0  0  0
  186.3900  177.6050  145.0740 C   0  0  0  0  0  3  0  0  0  0  0  0
  187.4650  177.8050  144.2630 N   0  0  0  0  0  0  0  0  0  0  0  0
  188.3420  177.6850  146.6010 S   0  0  0  0  0  0  0  0  0  0  0  0
  186.4350  178.1300  137.4280 C   0  0  0  0  0  1  0  0  0  0  0  0
  187.9310  178.0390  137.1610 C   0  0  0  0  0  2  0  0  0  0  0  0
  187.8450  174.7200  137.0830 N   0  0  0  0  0  2  0  0  0  0  0  0
  187.2910  174.5670  135.7460 C   0  0  0  0  0  2  0  0  0  0  0  0
  185.7980  174.2900  135.8280 C   0  0  0  0  0  2  0  0  0  0  0  0
  184.1440  175.1340  137.4610 C   0  0  0  0  0  1  0  0  0  0  0  0
  185.3290  174.2130  137.2720 C   0  0  0  0  0  3  0  0  0  0  0  0
  184.9180  172.7960  137.6130 C   0  0  0  0  0  1  0  0  0  0  0  0
  1 11  1  1  0  0  0
  2  5  1  0  0  0  0
  4 23  1  6  0  0  0
  4  1  1  0  0  0  0
  5  3  1  0  0  0  0
  6 24  1  1  0  0  0
  6  7  1  0  0  0  0
  6  4  1  0  0  0  0
  7  2  1  6  0  0  0
  7  8  1  0  0  0  0
  8  3  1  6  0  0  0
  8  1  1  0  0  0  0
 10 15  1  0  0  0  0
 11 14  2  0  0  0  0
 11 13  1  0  0  0  0
 12 10  2  0  0  0  0
 12 16  1  0  0  0  0
 13 12  1  0  0  0  0
 15  9  1  0  0  0  0
 15 17  1  1  0  0  0
 16  9  1  0  0  0  0
 17 21  1  0  0  0  0
 18 21  1  0  0  0  0
 19 18  2  0  0  0  0
 20 17  2  0  0  0  0
 20 19  1  0  0  0  0
 23 22  1  0  0  0  0
 25 26  1  0  0  0  0
 25 24  1  0  0  0  0
 26 28  1  0  0  0  0
 28 27  1  0  0  0  0
 28 29  1  0  0  0  0
M  END
>  <MODEL>
8

>  <REMARK>
 VINA RESULT:      -6.5      3.951      8.378
  Name = 
  7 active torsions:
  status: ('A' for Active; 'I' for Inactive)
    1  A    between atoms: C_1  and  C_27
    2  A    between atoms: C_4  and  C_5
    3  A    between atoms: N_6  and  C_10
    4  A    between atoms: N_6  and  C_21
    5  A    between atoms: C_10  and  C_19
    6  A    between atoms: C_13  and  C_18
    7  A    between atoms: C_19  and  C_22
                            x       y       z     vdW  Elec       q    Type
                         _______ _______ _______ _____ _____    ______ ____

>  <TORSDO>
F 7

$$$$
=
 OpenBabel10232412303D

 29 32  0  0  1  0  0  0  0  0999 V2000
  189.1500  178.0240  141.6730 C   0  0  2  0  0  3  0  0  0  0  0  0
  187.4520  176.6670  144.3470 C   0  0  0  0  0  2  0  0  0  0  0  0
  187.1420  178.2860  142.6950 O   0  0  0  0  0  0  0  0  0  0  0  0
  190.3520  177.4070  142.3640 C   0  0  2  0  0  3  0  0  0  0  0  0
  186.4890  177.6550  143.7630 C   0  0  0  0  0  2  0  0  0  0  0  0
  189.7880  176.6680  143.5520 C   0  0  1  0  0  3  0  0  0  0  0  0
  188.3450  176.3990  143.1800 C   0  0  2  0  0  3  0  0  0  0  0  0
  187.9440  177.3360  142.1290 N   0  0  2  0  0  0  0  0  0  0  0  0
  187.0400  177.9260  135.5090 S   0  0  0  0  0  0  0  0  0  0  0  0
  189.0590  177.8350  137.2390 N   0  0  0  0  0  0  0  0  0  0  0  0
  189.2640  177.9430  140.1850 C   0  0  0  0  0  0  0  0  0  0  0  0
  188.0280  178.1020  137.9650 C   0  0  0  0  0  0  0  0  0  0  0  0
  188.1000  178.1880  139.3910 N   0  0  0  0  0  2  0  0  0  0  0  0
  190.3590  177.6170  139.6500 O   0  0  0  0  0  0  0  0  0  0  0  0
  188.8310  177.7640  135.8090 C   0  0  1  0  0  3  0  0  0  0  0  0
  186.7430  178.2980  137.2620 C   0  0  0  0  0  2  0  0  0  0  0  0
  189.3260  176.4670  135.2610 C   0  0  0  0  0  0  0  0  0  0  0  0
  190.5550  174.4110  134.6540 C   0  0  0  0  0  3  0  0  0  0  0  0
  189.1880  174.4070  134.3710 C   0  0  0  0  0  3  0  0  0  0  0  0
  188.5150  175.5380  134.7160 N   0  0  0  0  0  0  0  0  0  0  0  0
  190.9020  175.9000  135.3630 S   0  0  0  0  0  0  0  0  0  0  0  0
  190.9590  179.2610  143.9890 C   0  0  0  0  0  1  0  0  0  0  0  0
  191.3860  178.4570  142.7690 C   0  0  0  0  0  2  0  0  0  0  0  0
  190.4910  175.4110  143.7410 N   0  0  0  0  0  2  0  0  0  0  0  0
  191.8100  175.7310  144.2690 C   0  0  0  0  0  2  0  0  0  0  0  0
  191.9680  175.1530  145.6660 C   0  0  0  0  0  2  0  0  0  0  0  0
  190.4800  176.5430  147.0700 C   0  0  0  0  0  1  0  0  0  0  0  0
  191.9220  176.2440  146.7230 C   0  0  0  0  0  3  0  0  0  0  0  0
  192.6510  175.7930  147.9720 C   0  0  0  0  0  1  0  0  0  0  0  0
  1 11  1  6  0  0  0
  1  8  1  0  0  0  0
  1  4  1  0  0  0  0
  3  5  1  0  0  0  0
  4 23  1  1  0  0  0
  4  6  1  0  0  0  0
  5  2  1  0  0  0  0
  6 24  1  6  0  0  0
  7  6  1  0  0  0  0
  7  2  1  1  0  0  0
  8  3  1  1  0  0  0
  8  7  1  0  0  0  0
  9 15  1  0  0  0  0
  9 16  1  0  0  0  0
 10 12  2  0  0  0  0
 12 13  1  0  0  0  0
 13 11  1  0  0  0  0
 14 11  2  0  0  0  0
 15 17  1  1  0  0  0
 15 10  1  0  0  0  0
 16 12  1  0  0  0  0
 17 21  1  0  0  0  0
 18 21  1  0  0  0  0
 19 18  2  0  0  0  0
 19 20  1  0  0  0  0
 20 17  2  0  0  0  0
 23 22  1  0  0  0  0
 24 25  1  0  0  0  0
 25 26  1  0  0  0  0
 26 28  1  0  0  0  0
 28 27  1  0  0  0  0
 28 29  1  0  0  0  0
M  END
>  <MODEL>
9

>  <REMARK>
 VINA RESULT:      -6.4      3.289      4.118
  Name = 
  7 active torsions:
  status: ('A' for Active; 'I' for Inactive)
    1  A    between atoms: C_1  and  C_27
    2  A    between atoms: C_4  and  C_5
    3  A    between atoms: N_6  and  C_10
    4  A    between atoms: N_6  and  C_21
    5  A    between atoms: C_10  and  C_19
    6  A    between atoms: C_13  and  C_18
    7  A    between atoms: C_19  and  C_22
                            x       y       z     vdW  Elec       q    Type
                         _______ _______ _______ _____ _____    ______ ____

>  <TORSDO>
F 7

$$$$
