=
 OpenBabel10222422053D

 31 34  0  0  1  0  0  0  0  0999 V2000
  185.2760  178.3340  142.1260 C   0  0  1  0  0  3  0  0  0  0  0  0
  184.6790  179.1910  143.0320 C   0  0  1  0  0  3  0  0  0  0  0  0
  183.7930  178.4940  142.0510 N   0  0  0  0  0  0  0  0  0  0  0  0
  182.5200  178.1990  141.4820 C   0  0  0  0  0  0  0  0  0  0  0  0
  182.2760  177.2150  140.3970 C   0  0  0  0  0  2  0  0  0  0  0  0
  180.7900  177.3850  140.2620 C   0  0  0  0  0  0  0  0  0  0  0  0
  181.3800  178.7630  141.8310 C   0  0  0  0  0  0  0  0  0  0  0  0
  180.2910  178.2620  141.0730 N   0  0  0  0  0  0  0  0  0  0  0  0
  179.9900  176.6870  139.3580 O   0  0  0  0  0  0  0  0  0  0  0  0
  180.5290  175.7020  138.4910 C   0  0  0  0  0  1  0  0  0  0  0  0
  181.2500  179.7760  142.8260 N   0  0  0  0  0  2  0  0  0  0  0  0
  180.1980  180.6270  142.8080 O   0  0  0  0  0  1  0  0  0  0  0  0
  183.2980  178.9850  145.0880 C   0  0  0  0  0  1  0  0  0  0  0  0
  184.5630  178.5210  144.3970 C   0  0  2  0  0  3  0  0  0  0  0  0
  185.7550  178.8880  145.2710 C   0  0  0  0  0  2  0  0  0  0  0  0
  188.4750  177.8810  147.1210 N   0  0  0  0  0  2  0  0  0  0  0  0
  190.0250  176.5570  143.1690 C   0  0  0  0  0  3  0  0  0  0  0  0
  188.8410  177.6310  145.7800 C   0  0  0  0  0  0  0  0  0  0  0  0
  190.0890  177.7940  145.3420 C   0  0  0  0  0  3  0  0  0  0  0  0
  187.6130  176.6450  143.8470 C   0  0  0  0  0  3  0  0  0  0  0  0
  188.7740  176.0970  143.1170 C   0  0  0  0  0  3  0  0  0  0  0  0
  186.4590  177.6400  145.8010 C   0  0  2  0  0  3  0  0  0  0  0  0
  186.5490  178.9580  147.8670 F   0  0  0  0  0  0  0  0  0  0  0  0
  187.0230  177.8190  147.2350 C   0  0  2  0  0  3  0  0  0  0  0  0
  190.4390  177.8000  143.8890 C   0  0  0  0  0  2  0  0  0  0  0  0
  187.6650  177.3620  144.9750 C   0  0  0  0  0  0  0  0  0  0  0  0
  185.9370  179.1220  140.9990 C   0  0  2  0  0  3  0  0  0  0  0  0
  185.1650  178.9850  139.7250 C   0  0  0  0  0  3  0  0  0  0  0  0
  184.6670  179.9630  139.1920 O   0  0  0  0  0  0  0  0  0  0  0  0
  187.6370  178.4190  139.4400 O   0  0  0  0  0  1  0  0  0  0  0  0
  187.3800  178.6710  140.7900 C   0  0  0  0  0  2  0  0  0  0  0  0
  1 27  1  6  0  0  0
  1  2  1  0  0  0  0
  2 14  1  1  0  0  0
  3  1  1  0  0  0  0
  3  2  1  0  0  0  0
  4  7  2  0  0  0  0
  4  3  1  0  0  0  0
  5  4  1  0  0  0  0
  6  5  1  0  0  0  0
  6  8  2  0  0  0  0
  7 11  1  0  0  0  0
  8  7  1  0  0  0  0
  9  6  1  0  0  0  0
 10  9  1  0  0  0  0
 12 11  1  0  0  0  0
 14 13  1  1  0  0  0
 14 15  1  0  0  0  0
 16 24  1  0  0  0  0
 17 25  1  0  0  0  0
 18 16  1  0  0  0  0
 19 18  2  0  0  0  0
 20 26  2  0  0  0  0
 21 17  2  0  0  0  0
 21 20  1  0  0  0  0
 22 15  1  6  0  0  0
 22 24  1  0  0  0  0
 24 23  1  6  0  0  0
 25 19  1  0  0  0  0
 26 18  1  0  0  0  0
 26 22  1  0  0  0  0
 27 28  1  6  0  0  0
 29 28  2  0  0  0  0
 30 31  1  0  0  0  0
 31 27  1  0  0  0  0
M  END
>  <MODEL>
1

>  <REMARK>
 VINA RESULT:      -8.7      0.000      0.000
  Name = 
  9 active torsions:
  status: ('A' for Active; 'I' for Inactive)
    1  A    between atoms: O_2  and  C_11
    2  A    between atoms: C_4  and  C_25
    3  A    between atoms: C_5  and  C_25
    4  A    between atoms: C_6  and  N_31
    5  A    between atoms: N_7  and  C_20
    6  A    between atoms: C_14  and  C_25
    7  A    between atoms: C_16  and  C_21
    8  A    between atoms: C_18  and  C_21
    9  A    between atoms: C_18  and  C_22
                            x       y       z     vdW  Elec       q    Type
                         _______ _______ _______ _____ _____    ______ ____

>  <TORSDO>
F 9

$$$$
=
 OpenBabel10222422053D

 31 34  0  0  1  0  0  0  0  0999 V2000
  189.3050  178.1270  139.8120 C   0  0  1  0  0  3  0  0  0  0  0  0
  189.3970  177.1430  140.7790 C   0  0  1  0  0  3  0  0  0  0  0  0
  190.3250  177.0540  139.6110 N   0  0  0  0  0  0  0  0  0  0  0  0
  191.3760  176.4350  138.8730 C   0  0  0  0  0  0  0  0  0  0  0  0
  192.8020  176.8480  138.9060 C   0  0  0  0  0  2  0  0  0  0  0  0
  193.3550  175.8390  137.9410 C   0  0  0  0  0  0  0  0  0  0  0  0
  191.2300  175.4150  138.0500 C   0  0  0  0  0  0  0  0  0  0  0  0
  192.4620  175.0340  137.4610 N   0  0  0  0  0  0  0  0  0  0  0  0
  194.6960  175.7480  137.5700 O   0  0  0  0  0  0  0  0  0  0  0  0
  195.2950  174.5060  137.2360 C   0  0  0  0  0  1  0  0  0  0  0  0
  189.9860  174.7830  137.7570 N   0  0  0  0  0  2  0  0  0  0  0  0
  189.9480  173.4910  137.3570 O   0  0  0  0  0  1  0  0  0  0  0  0
  190.9730  176.5510  142.6080 C   0  0  0  0  0  1  0  0  0  0  0  0
  190.1500  177.6670  141.9970 C   0  0  2  0  0  3  0  0  0  0  0  0
  189.1730  178.1790  143.0460 C   0  0  0  0  0  2  0  0  0  0  0  0
  186.3640  177.2670  144.8110 N   0  0  0  0  0  2  0  0  0  0  0  0
  189.0280  177.8010  148.3300 C   0  0  0  0  0  3  0  0  0  0  0  0
  187.3180  177.5910  145.7990 C   0  0  0  0  0  0  0  0  0  0  0  0
  186.9830  178.1850  146.9430 C   0  0  0  0  0  3  0  0  0  0  0  0
  189.7460  177.0760  146.0410 C   0  0  0  0  0  3  0  0  0  0  0  0
  189.8230  177.1060  147.5150 C   0  0  0  0  0  3  0  0  0  0  0  0
  188.5770  177.0290  143.8560 C   0  0  2  0  0  3  0  0  0  0  0  0
  186.5910  177.5290  142.5080 F   0  0  0  0  0  0  0  0  0  0  0  0
  187.0590  176.8270  143.6070 C   0  0  2  0  0  3  0  0  0  0  0  0
  187.9930  178.7770  147.8720 C   0  0  0  0  0  2  0  0  0  0  0  0
  188.6610  177.3480  145.3070 C   0  0  0  0  0  0  0  0  0  0  0  0
  188.1060  177.8740  138.9030 C   0  0  2  0  0  3  0  0  0  0  0  0
  188.3080  178.5020  137.5610 C   0  0  0  0  0  3  0  0  0  0  0  0
  188.9750  179.5160  137.4440 O   0  0  0  0  0  0  0  0  0  0  0  0
  185.8930  178.7680  138.5610 O   0  0  0  0  0  1  0  0  0  0  0  0
  186.8200  178.3940  139.5380 C   0  0  0  0  0  2  0  0  0  0  0  0
  1 27  1  6  0  0  0
  1  2  1  0  0  0  0
  2 14  1  1  0  0  0
  3  1  1  0  0  0  0
  3  2  1  0  0  0  0
  4  5  1  0  0  0  0
  4  3  1  0  0  0  0
  6  5  1  0  0  0  0
  7  4  2  0  0  0  0
  8  6  2  0  0  0  0
  8  7  1  0  0  0  0
  9  6  1  0  0  0  0
 10  9  1  0  0  0  0
 11  7  1  0  0  0  0
 12 11  1  0  0  0  0
 14 13  1  1  0  0  0
 14 15  1  0  0  0  0
 16 18  1  0  0  0  0
 18 19  2  0  0  0  0
 19 25  1  0  0  0  0
 20 21  1  0  0  0  0
 21 17  2  0  0  0  0
 22 15  1  6  0  0  0
 22 26  1  0  0  0  0
 24 23  1  6  0  0  0
 24 22  1  0  0  0  0
 24 16  1  0  0  0  0
 25 17  1  0  0  0  0
 26 18  1  0  0  0  0
 26 20  2  0  0  0  0
 27 28  1  6  0  0  0
 27 31  1  0  0  0  0
 29 28  2  0  0  0  0
 30 31  1  0  0  0  0
M  END
>  <MODEL>
2

>  <REMARK>
 VINA RESULT:      -8.5      4.428      7.726
  Name = 
  9 active torsions:
  status: ('A' for Active; 'I' for Inactive)
    1  A    between atoms: O_2  and  C_11
    2  A    between atoms: C_4  and  C_25
    3  A    between atoms: C_5  and  C_25
    4  A    between atoms: C_6  and  N_31
    5  A    between atoms: N_7  and  C_20
    6  A    between atoms: C_14  and  C_25
    7  A    between atoms: C_16  and  C_21
    8  A    between atoms: C_18  and  C_21
    9  A    between atoms: C_18  and  C_22
                            x       y       z     vdW  Elec       q    Type
                         _______ _______ _______ _____ _____    ______ ____

>  <TORSDO>
F 9

$$$$
=
 OpenBabel10222422053D

 31 34  0  0  1  0  0  0  0  0999 V2000
  188.5520  177.4250  141.9890 C   0  0  1  0  0  3  0  0  0  0  0  0
  187.8720  178.6260  141.9270 C   0  0  1  0  0  3  0  0  0  0  0  0
  188.1610  177.9260  140.6380 N   0  0  0  0  0  0  0  0  0  0  0  0
  188.1040  177.8130  139.2190 C   0  0  0  0  0  0  0  0  0  0  0  0
  186.9070  178.0940  138.3850 C   0  0  0  0  0  2  0  0  0  0  0  0
  187.4890  177.7860  137.0350 C   0  0  0  0  0  0  0  0  0  0  0  0
  189.1020  177.4340  138.4440 C   0  0  0  0  0  0  0  0  0  0  0  0
  188.7280  177.4120  137.0760 N   0  0  0  0  0  0  0  0  0  0  0  0
  186.7930  177.8790  135.8310 O   0  0  0  0  0  0  0  0  0  0  0  0
  187.3110  177.3390  134.6260 C   0  0  0  0  0  1  0  0  0  0  0  0
  190.3940  177.0590  138.9150 N   0  0  0  0  0  2  0  0  0  0  0  0
  190.7190  175.7550  139.0710 O   0  0  0  0  0  1  0  0  0  0  0  0
  185.5210  179.1340  141.3030 C   0  0  0  0  0  1  0  0  0  0  0  0
  186.4090  178.4260  142.3050 C   0  0  2  0  0  3  0  0  0  0  0  0
  186.1350  179.0020  143.6880 C   0  0  0  0  0  2  0  0  0  0  0  0
  185.0110  178.4910  146.8990 N   0  0  0  0  0  2  0  0  0  0  0  0
  189.2580  177.4180  147.6660 C   0  0  0  0  0  3  0  0  0  0  0  0
  186.4080  178.2960  146.9730 C   0  0  0  0  0  0  0  0  0  0  0  0
  187.1220  178.6660  148.0350 C   0  0  0  0  0  3  0  0  0  0  0  0
  188.0290  177.0980  145.5050 C   0  0  0  0  0  3  0  0  0  0  0  0
  189.0290  176.7510  146.5340 C   0  0  0  0  0  3  0  0  0  0  0  0
  185.8270  177.8970  144.6970 C   0  0  2  0  0  3  0  0  0  0  0  0
  183.7980  179.2280  145.0530 F   0  0  0  0  0  0  0  0  0  0  0  0
  184.5600  178.1810  145.5480 C   0  0  2  0  0  3  0  0  0  0  0  0
  188.6160  178.7200  148.0240 C   0  0  0  0  0  2  0  0  0  0  0  0
  186.9220  177.8230  145.7010 C   0  0  0  0  0  0  0  0  0  0  0  0
  190.0420  177.6640  142.2150 C   0  0  2  0  0  3  0  0  0  0  0  0
  190.7560  176.3800  142.4960 C   0  0  0  0  0  3  0  0  0  0  0  0
  190.1320  175.3740  142.7920 O   0  0  0  0  0  0  0  0  0  0  0  0
  191.4040  178.3090  144.0970 O   0  0  0  0  0  1  0  0  0  0  0  0
  190.2700  178.6510  143.3570 C   0  0  0  0  0  2  0  0  0  0  0  0
  1 27  1  6  0  0  0
  2  1  1  0  0  0  0
  2 14  1  1  0  0  0
  3  2  1  0  0  0  0
  3  1  1  0  0  0  0
  4  3  1  0  0  0  0
  5  4  1  0  0  0  0
  6  8  2  0  0  0  0
  6  5  1  0  0  0  0
  7 11  1  0  0  0  0
  7  4  2  0  0  0  0
  8  7  1  0  0  0  0
  9  6  1  0  0  0  0
 10  9  1  0  0  0  0
 11 12  1  0  0  0  0
 14 13  1  6  0  0  0
 14 15  1  0  0  0  0
 16 18  1  0  0  0  0
 17 25  1  0  0  0  0
 18 19  2  0  0  0  0
 20 26  2  0  0  0  0
 20 21  1  0  0  0  0
 21 17  2  0  0  0  0
 22 15  1  6  0  0  0
 22 24  1  0  0  0  0
 22 26  1  0  0  0  0
 24 23  1  6  0  0  0
 24 16  1  0  0  0  0
 25 19  1  0  0  0  0
 26 18  1  0  0  0  0
 27 28  1  1  0  0  0
 27 31  1  0  0  0  0
 28 29  2  0  0  0  0
 31 30  1  0  0  0  0
M  END
>  <MODEL>
3

>  <REMARK>
 VINA RESULT:      -8.2      3.909      5.779
  Name = 
  9 active torsions:
  status: ('A' for Active; 'I' for Inactive)
    1  A    between atoms: O_2  and  C_11
    2  A    between atoms: C_4  and  C_25
    3  A    between atoms: C_5  and  C_25
    4  A    between atoms: C_6  and  N_31
    5  A    between atoms: N_7  and  C_20
    6  A    between atoms: C_14  and  C_25
    7  A    between atoms: C_16  and  C_21
    8  A    between atoms: C_18  and  C_21
    9  A    between atoms: C_18  and  C_22
                            x       y       z     vdW  Elec       q    Type
                         _______ _______ _______ _____ _____    ______ ____

>  <TORSDO>
F 9

$$$$
=
 OpenBabel10222422053D

 31 34  0  0  1  0  0  0  0  0999 V2000
  190.1930  176.5050  139.7010 C   0  0  1  0  0  3  0  0  0  0  0  0
  189.5000  177.6300  140.1080 C   0  0  1  0  0  3  0  0  0  0  0  0
  189.0200  176.9290  138.8780 N   0  0  0  0  0  0  0  0  0  0  0  0
  188.1310  176.7720  137.7760 C   0  0  0  0  0  0  0  0  0  0  0  0
  187.7270  175.4730  137.1810 C   0  0  0  0  0  2  0  0  0  0  0  0
  186.8230  175.9870  136.0970 C   0  0  0  0  0  0  0  0  0  0  0  0
  187.5480  177.7570  137.1210 C   0  0  0  0  0  0  0  0  0  0  0  0
  186.7280  177.2770  136.0680 N   0  0  0  0  0  0  0  0  0  0  0  0
  186.1370  175.1830  135.1880 O   0  0  0  0  0  0  0  0  0  0  0  0
  184.9800  174.4540  135.5620 C   0  0  0  0  0  1  0  0  0  0  0  0
  187.7350  179.1410  137.4080 N   0  0  0  0  0  2  0  0  0  0  0  0
  188.9550  179.7120  137.2810 O   0  0  0  0  0  1  0  0  0  0  0  0
  187.7500  178.5040  141.6400 C   0  0  0  0  0  1  0  0  0  0  0  0
  188.5880  177.2940  141.2820 C   0  0  2  0  0  3  0  0  0  0  0  0
  189.4140  176.9000  142.4990 C   0  0  0  0  0  2  0  0  0  0  0  0
  191.5400  178.0710  144.9370 N   0  0  0  0  0  2  0  0  0  0  0  0
  188.0900  177.2480  147.6190 C   0  0  0  0  0  3  0  0  0  0  0  0
  190.3910  177.6460  145.6380 C   0  0  0  0  0  0  0  0  0  0  0  0
  190.4610  177.0790  146.8410 C   0  0  0  0  0  3  0  0  0  0  0  0
  187.9490  177.9160  145.2070 C   0  0  0  0  0  3  0  0  0  0  0  0
  187.4810  177.8670  146.6070 C   0  0  0  0  0  3  0  0  0  0  0  0
  189.6540  178.0960  143.4180 C   0  0  2  0  0  3  0  0  0  0  0  0
  191.9690  177.8060  142.6630 F   0  0  0  0  0  0  0  0  0  0  0  0
  191.1560  178.4500  143.5820 C   0  0  2  0  0  3  0  0  0  0  0  0
  189.3010  176.3820  147.4750 C   0  0  0  0  0  2  0  0  0  0  0  0
  189.2130  177.7590  144.7980 C   0  0  0  0  0  0  0  0  0  0  0  0
  191.4860  176.9000  138.9940 C   0  0  2  0  0  3  0  0  0  0  0  0
  191.9910  175.7830  138.1350 C   0  0  0  0  0  3  0  0  0  0  0  0
  191.4150  174.7080  138.1130 O   0  0  0  0  0  0  0  0  0  0  0  0
  193.8380  177.1060  139.4850 O   0  0  0  0  0  1  0  0  0  0  0  0
  192.5560  177.3120  140.0010 C   0  0  0  0  0  2  0  0  0  0  0  0
  1 27  1  6  0  0  0
  1  2  1  0  0  0  0
  2 14  1  1  0  0  0
  3  1  1  0  0  0  0
  3  2  1  0  0  0  0
  4  3  1  0  0  0  0
  5  4  1  0  0  0  0
  6  5  1  0  0  0  0
  7 11  1  0  0  0  0
  7  4  2  0  0  0  0
  8  6  2  0  0  0  0
  8  7  1  0  0  0  0
  9 10  1  0  0  0  0
  9  6  1  0  0  0  0
 12 11  1  0  0  0  0
 14 13  1  1  0  0  0
 14 15  1  0  0  0  0
 16 18  1  0  0  0  0
 18 19  2  0  0  0  0
 19 25  1  0  0  0  0
 20 21  1  0  0  0  0
 21 17  2  0  0  0  0
 22 15  1  6  0  0  0
 22 24  1  0  0  0  0
 22 26  1  0  0  0  0
 24 23  1  6  0  0  0
 24 16  1  0  0  0  0
 25 17  1  0  0  0  0
 26 20  2  0  0  0  0
 26 18  1  0  0  0  0
 27 28  1  1  0  0  0
 27 31  1  0  0  0  0
 29 28  2  0  0  0  0
 30 31  1  0  0  0  0
M  END
>  <MODEL>
4

>  <REMARK>
 VINA RESULT:      -8.2      4.779      6.128
  Name = 
  9 active torsions:
  status: ('A' for Active; 'I' for Inactive)
    1  A    between atoms: O_2  and  C_11
    2  A    between atoms: C_4  and  C_25
    3  A    between atoms: C_5  and  C_25
    4  A    between atoms: C_6  and  N_31
    5  A    between atoms: N_7  and  C_20
    6  A    between atoms: C_14  and  C_25
    7  A    between atoms: C_16  and  C_21
    8  A    between atoms: C_18  and  C_21
    9  A    between atoms: C_18  and  C_22
                            x       y       z     vdW  Elec       q    Type
                         _______ _______ _______ _____ _____    ______ ____

>  <TORSDO>
F 9

$$$$
=
 OpenBabel10222422053D

 31 34  0  0  1  0  0  0  0  0999 V2000
  189.3630  178.0530  139.7520 C   0  0  1  0  0  3  0  0  0  0  0  0
  189.4570  177.0380  140.6860 C   0  0  1  0  0  3  0  0  0  0  0  0
  190.3450  176.9590  139.4860 N   0  0  0  0  0  0  0  0  0  0  0  0
  191.3530  176.3350  138.6950 C   0  0  0  0  0  0  0  0  0  0  0  0
  191.1020  175.3790  137.5870 C   0  0  0  0  0  2  0  0  0  0  0  0
  192.5250  175.1020  137.1950 C   0  0  0  0  0  0  0  0  0  0  0  0
  192.6520  176.5100  138.8410 C   0  0  0  0  0  0  0  0  0  0  0  0
  193.3950  175.7420  137.9080 N   0  0  0  0  0  0  0  0  0  0  0  0
  192.9120  174.2410  136.1690 O   0  0  0  0  0  0  0  0  0  0  0  0
  194.1220  174.4300  135.4540 C   0  0  0  0  0  1  0  0  0  0  0  0
  193.2510  177.3430  139.8320 N   0  0  0  0  0  2  0  0  0  0  0  0
  194.4640  177.0380  140.3460 O   0  0  0  0  0  1  0  0  0  0  0  0
  191.0080  176.3270  142.4920 C   0  0  0  0  0  1  0  0  0  0  0  0
  190.2630  177.5020  141.8930 C   0  0  2  0  0  3  0  0  0  0  0  0
  189.3410  178.0820  142.9560 C   0  0  0  0  0  2  0  0  0  0  0  0
  186.4840  177.3900  144.7450 N   0  0  0  0  0  2  0  0  0  0  0  0
  189.2220  177.6650  148.2380 C   0  0  0  0  0  3  0  0  0  0  0  0
  187.4730  177.6240  145.7250 C   0  0  0  0  0  0  0  0  0  0  0  0
  187.2010  178.2320  146.8780 C   0  0  0  0  0  3  0  0  0  0  0  0
  189.8520  176.9060  145.9340 C   0  0  0  0  0  3  0  0  0  0  0  0
  189.9470  176.9140  147.4070 C   0  0  0  0  0  3  0  0  0  0  0  0
  188.6600  176.9780  143.7630 C   0  0  2  0  0  3  0  0  0  0  0  0
  186.7080  177.6560  142.4420 F   0  0  0  0  0  0  0  0  0  0  0  0
  187.1270  176.9060  143.5290 C   0  0  2  0  0  3  0  0  0  0  0  0
  188.2670  178.7290  147.8000 C   0  0  0  0  0  2  0  0  0  0  0  0
  188.7860  177.2740  145.2150 C   0  0  0  0  0  0  0  0  0  0  0  0
  188.1300  177.8630  138.8760 C   0  0  2  0  0  3  0  0  0  0  0  0
  188.3180  178.5040  137.5370 C   0  0  0  0  0  3  0  0  0  0  0  0
  188.9620  179.5340  137.4270 O   0  0  0  0  0  0  0  0  0  0  0  0
  185.9000  178.7440  138.6170 O   0  0  0  0  0  1  0  0  0  0  0  0
  186.8840  178.4230  139.5560 C   0  0  0  0  0  2  0  0  0  0  0  0
  1 27  1  6  0  0  0
  1  2  1  0  0  0  0
  2 14  1  1  0  0  0
  3  1  1  0  0  0  0
  3  2  1  0  0  0  0
  4  7  2  0  0  0  0
  4  3  1  0  0  0  0
  5  4  1  0  0  0  0
  6  5  1  0  0  0  0
  6  8  2  0  0  0  0
  7 11  1  0  0  0  0
  8  7  1  0  0  0  0
  9  6  1  0  0  0  0
 10  9  1  0  0  0  0
 11 12  1  0  0  0  0
 14 13  1  1  0  0  0
 14 15  1  0  0  0  0
 16 18  1  0  0  0  0
 18 19  2  0  0  0  0
 19 25  1  0  0  0  0
 20 21  1  0  0  0  0
 21 17  2  0  0  0  0
 22 15  1  6  0  0  0
 22 26  1  0  0  0  0
 24 23  1  6  0  0  0
 24 22  1  0  0  0  0
 24 16  1  0  0  0  0
 25 17  1  0  0  0  0
 26 18  1  0  0  0  0
 26 20  2  0  0  0  0
 27 28  1  6  0  0  0
 27 31  1  0  0  0  0
 29 28  2  0  0  0  0
 30 31  1  0  0  0  0
M  END
>  <MODEL>
5

>  <REMARK>
 VINA RESULT:      -8.0      4.608      7.767
  Name = 
  9 active torsions:
  status: ('A' for Active; 'I' for Inactive)
    1  A    between atoms: O_2  and  C_11
    2  A    between atoms: C_4  and  C_25
    3  A    between atoms: C_5  and  C_25
    4  A    between atoms: C_6  and  N_31
    5  A    between atoms: N_7  and  C_20
    6  A    between atoms: C_14  and  C_25
    7  A    between atoms: C_16  and  C_21
    8  A    between atoms: C_18  and  C_21
    9  A    between atoms: C_18  and  C_22
                            x       y       z     vdW  Elec       q    Type
                         _______ _______ _______ _____ _____    ______ ____

>  <TORSDO>
F 9

$$$$
=
 OpenBabel10222422053D

 31 34  0  0  1  0  0  0  0  0999 V2000
  189.5950  176.8560  141.7150 C   0  0  1  0  0  3  0  0  0  0  0  0
  189.2520  178.0700  141.1500 C   0  0  1  0  0  3  0  0  0  0  0  0
  190.0950  177.1420  140.3370 N   0  0  0  0  0  0  0  0  0  0  0  0
  190.8140  176.7900  139.1580 C   0  0  0  0  0  0  0  0  0  0  0  0
  190.2050  176.2730  137.9060 C   0  0  0  0  0  2  0  0  0  0  0  0
  191.4570  176.0990  137.0950 C   0  0  0  0  0  0  0  0  0  0  0  0
  192.1230  176.8630  139.0140 C   0  0  0  0  0  0  0  0  0  0  0  0
  192.5360  176.4320  137.7270 N   0  0  0  0  0  0  0  0  0  0  0  0
  191.4950  175.6240  135.7850 O   0  0  0  0  0  0  0  0  0  0  0  0
  190.5540  176.0460  134.8110 C   0  0  0  0  0  1  0  0  0  0  0  0
  193.0260  177.2920  140.0300 N   0  0  0  0  0  2  0  0  0  0  0  0
  194.3240  176.9110  140.0040 O   0  0  0  0  0  1  0  0  0  0  0  0
  187.7270  178.6980  139.2910 C   0  0  0  0  0  1  0  0  0  0  0  0
  187.8130  178.0320  140.6490 C   0  0  2  0  0  3  0  0  0  0  0  0
  186.8960  178.7730  141.6110 C   0  0  0  0  0  2  0  0  0  0  0  0
  183.9470  178.6510  143.3800 N   0  0  0  0  0  2  0  0  0  0  0  0
  186.6540  178.0510  146.8560 C   0  0  0  0  0  3  0  0  0  0  0  0
  184.9570  178.5830  144.3630 C   0  0  0  0  0  0  0  0  0  0  0  0
  184.8280  179.1620  145.5560 C   0  0  0  0  0  3  0  0  0  0  0  0
  187.1020  177.3180  144.5010 C   0  0  0  0  0  3  0  0  0  0  0  0
  187.1880  177.2080  145.9710 C   0  0  0  0  0  3  0  0  0  0  0  0
  185.9710  177.8080  142.3510 C   0  0  2  0  0  3  0  0  0  0  0  0
  184.2390  179.0070  141.0970 F   0  0  0  0  0  0  0  0  0  0  0  0
  184.4660  178.1110  142.1290 C   0  0  2  0  0  3  0  0  0  0  0  0
  185.9760  179.3340  146.4980 C   0  0  0  0  0  2  0  0  0  0  0  0
  186.1550  177.9710  143.8190 C   0  0  0  0  0  0  0  0  0  0  0  0
  190.7290  177.0350  142.7200 C   0  0  2  0  0  3  0  0  0  0  0  0
  190.9330  175.7920  143.5260 C   0  0  0  0  0  3  0  0  0  0  0  0
  191.9840  175.5990  144.1140 O   0  0  0  0  0  0  0  0  0  0  0  0
  191.6400  178.9050  143.9410 O   0  0  0  0  0  1  0  0  0  0  0  0
  190.4590  178.2210  143.6430 C   0  0  0  0  0  2  0  0  0  0  0  0
  1 27  1  1  0  0  0
  2 14  1  6  0  0  0
  2  1  1  0  0  0  0
  3  2  1  0  0  0  0
  3  1  1  0  0  0  0
  4  3  1  0  0  0  0
  5  4  1  0  0  0  0
  6  8  2  0  0  0  0
  6  5  1  0  0  0  0
  7  4  2  0  0  0  0
  7 11  1  0  0  0  0
  8  7  1  0  0  0  0
  9  6  1  0  0  0  0
 10  9  1  0  0  0  0
 12 11  1  0  0  0  0
 14 13  1  6  0  0  0
 14 15  1  0  0  0  0
 16 18  1  0  0  0  0
 18 19  2  0  0  0  0
 19 25  1  0  0  0  0
 20 21  1  0  0  0  0
 21 17  2  0  0  0  0
 22 15  1  6  0  0  0
 22 26  1  0  0  0  0
 24 23  1  6  0  0  0
 24 22  1  0  0  0  0
 24 16  1  0  0  0  0
 25 17  1  0  0  0  0
 26 18  1  0  0  0  0
 26 20  2  0  0  0  0
 27 28  1  1  0  0  0
 27 31  1  0  0  0  0
 28 29  2  0  0  0  0
 31 30  1  0  0  0  0
M  END
>  <MODEL>
6

>  <REMARK>
 VINA RESULT:      -7.8      4.433      7.773
  Name = 
  9 active torsions:
  status: ('A' for Active; 'I' for Inactive)
    1  A    between atoms: O_2  and  C_11
    2  A    between atoms: C_4  and  C_25
    3  A    between atoms: C_5  and  C_25
    4  A    between atoms: C_6  and  N_31
    5  A    between atoms: N_7  and  C_20
    6  A    between atoms: C_14  and  C_25
    7  A    between atoms: C_16  and  C_21
    8  A    between atoms: C_18  and  C_21
    9  A    between atoms: C_18  and  C_22
                            x       y       z     vdW  Elec       q    Type
                         _______ _______ _______ _____ _____    ______ ____

>  <TORSDO>
F 9

$$$$
=
 OpenBabel10222422053D

 31 34  0  0  1  0  0  0  0  0999 V2000
  188.9570  177.7870  143.4170 C   0  0  1  0  0  3  0  0  0  0  0  0
  188.0630  176.8800  143.9560 C   0  0  1  0  0  3  0  0  0  0  0  0
  189.3440  177.1080  144.6900 N   0  0  0  0  0  0  0  0  0  0  0  0
  190.2440  176.8720  145.7700 C   0  0  0  0  0  0  0  0  0  0  0  0
  191.4890  176.0680  145.6860 C   0  0  0  0  0  2  0  0  0  0  0  0
  191.9460  176.2010  147.1110 C   0  0  0  0  0  0  0  0  0  0  0  0
  190.0930  177.3260  146.9990 C   0  0  0  0  0  0  0  0  0  0  0  0
  191.1530  176.9110  147.8470 N   0  0  0  0  0  0  0  0  0  0  0  0
  193.1060  175.6280  147.6290 O   0  0  0  0  0  0  0  0  0  0  0  0
  193.4820  175.8000  148.9860 C   0  0  0  0  0  1  0  0  0  0  0  0
  188.9900  178.1120  147.4420 N   0  0  0  0  0  2  0  0  0  0  0  0
  188.6270  178.1170  148.7460 O   0  0  0  0  0  1  0  0  0  0  0  0
  186.7070  177.0110  146.0340 C   0  0  0  0  0  1  0  0  0  0  0  0
  186.9270  177.6130  144.6610 C   0  0  2  0  0  3  0  0  0  0  0  0
  185.6370  177.4850  143.8640 C   0  0  0  0  0  2  0  0  0  0  0  0
  182.6860  179.2490  143.7220 N   0  0  0  0  0  2  0  0  0  0  0  0
  183.2340  178.8110  139.3300 C   0  0  0  0  0  3  0  0  0  0  0  0
  182.9700  178.9160  142.3790 C   0  0  0  0  0  0  0  0  0  0  0  0
  182.0120  178.6150  141.5040 C   0  0  0  0  0  3  0  0  0  0  0  0
  185.0680  178.9580  141.0320 C   0  0  0  0  0  3  0  0  0  0  0  0
  184.4620  179.1740  139.7030 C   0  0  0  0  0  3  0  0  0  0  0  0
  185.0670  178.8570  143.5080 C   0  0  2  0  0  3  0  0  0  0  0  0
  183.8480  178.5430  145.6120 F   0  0  0  0  0  0  0  0  0  0  0  0
  183.9370  179.3180  144.4670 C   0  0  2  0  0  3  0  0  0  0  0  0
  182.3000  178.0020  140.1720 C   0  0  0  0  0  2  0  0  0  0  0  0
  184.4010  178.7890  142.1790 C   0  0  0  0  0  0  0  0  0  0  0  0
  189.7150  177.1630  142.2500 C   0  0  2  0  0  3  0  0  0  0  0  0
  191.1220  177.6660  142.1930 C   0  0  0  0  0  3  0  0  0  0  0  0
  192.0610  176.9040  142.3560 O   0  0  0  0  0  0  0  0  0  0  0  0
  189.9200  177.7810  139.9280 O   0  0  0  0  0  1  0  0  0  0  0  0
  189.0050  177.4390  140.9270 C   0  0  0  0  0  2  0  0  0  0  0  0
  1 27  1  6  0  0  0
  1  2  1  0  0  0  0
  1  3  1  0  0  0  0
  2 14  1  1  0  0  0
  2  3  1  0  0  0  0
  3  4  1  0  0  0  0
  4  7  2  0  0  0  0
  5  4  1  0  0  0  0
  5  6  1  0  0  0  0
  6  9  1  0  0  0  0
  6  8  2  0  0  0  0
  7 11  1  0  0  0  0
  7  8  1  0  0  0  0
  9 10  1  0  0  0  0
 11 12  1  0  0  0  0
 14 13  1  1  0  0  0
 15 14  1  0  0  0  0
 16 24  1  0  0  0  0
 17 21  2  0  0  0  0
 17 25  1  0  0  0  0
 18 16  1  0  0  0  0
 19 18  2  0  0  0  0
 20 26  2  0  0  0  0
 21 20  1  0  0  0  0
 22 15  1  1  0  0  0
 22 24  1  0  0  0  0
 24 23  1  1  0  0  0
 25 19  1  0  0  0  0
 26 18  1  0  0  0  0
 26 22  1  0  0  0  0
 27 31  1  6  0  0  0
 28 27  1  0  0  0  0
 28 29  2  0  0  0  0
 30 31  1  0  0  0  0
M  END
>  <MODEL>
7

>  <REMARK>
 VINA RESULT:      -7.6      3.278      8.116
  Name = 
  9 active torsions:
  status: ('A' for Active; 'I' for Inactive)
    1  A    between atoms: O_2  and  C_11
    2  A    between atoms: C_4  and  C_25
    3  A    between atoms: C_5  and  C_25
    4  A    between atoms: C_6  and  N_31
    5  A    between atoms: N_7  and  C_20
    6  A    between atoms: C_14  and  C_25
    7  A    between atoms: C_16  and  C_21
    8  A    between atoms: C_18  and  C_21
    9  A    between atoms: C_18  and  C_22
                            x       y       z     vdW  Elec       q    Type
                         _______ _______ _______ _____ _____    ______ ____

>  <TORSDO>
F 9

$$$$
=
 OpenBabel10222422053D

 31 34  0  0  1  0  0  0  0  0999 V2000
  182.7020  179.0460  141.6360 C   0  0  1  0  0  3  0  0  0  0  0  0
  183.7460  178.3070  142.1590 C   0  0  1  0  0  3  0  0  0  0  0  0
  183.3950  178.0890  140.7230 N   0  0  0  0  0  0  0  0  0  0  0  0
  183.5770  177.4630  139.4550 C   0  0  0  0  0  0  0  0  0  0  0  0
  182.9740  176.1690  139.0460 C   0  0  0  0  0  2  0  0  0  0  0  0
  183.5450  176.0780  137.6590 C   0  0  0  0  0  0  0  0  0  0  0  0
  184.3130  177.9380  138.4700 C   0  0  0  0  0  0  0  0  0  0  0  0
  184.3010  177.0790  137.3420 N   0  0  0  0  0  0  0  0  0  0  0  0
  183.3080  175.0290  136.7710 O   0  0  0  0  0  0  0  0  0  0  0  0
  182.3470  174.0230  137.0440 C   0  0  0  0  0  1  0  0  0  0  0  0
  185.0600  179.1520  138.5300 N   0  0  0  0  0  2  0  0  0  0  0  0
  184.4790  180.2970  138.9570 O   0  0  0  0  0  1  0  0  0  0  0  0
  186.1750  178.4230  141.6450 C   0  0  0  0  0  1  0  0  0  0  0  0
  185.0040  179.1630  142.2570 C   0  0  2  0  0  3  0  0  0  0  0  0
  185.3280  179.4650  143.7130 C   0  0  0  0  0  2  0  0  0  0  0  0
  184.8550  178.4240  146.9580 N   0  0  0  0  0  2  0  0  0  0  0  0
  189.1760  177.4030  146.7180 C   0  0  0  0  0  3  0  0  0  0  0  0
  186.2400  178.2710  146.7320 C   0  0  0  0  0  0  0  0  0  0  0  0
  187.1450  178.4990  147.6820 C   0  0  0  0  0  3  0  0  0  0  0  0
  187.5520  177.3750  144.8090 C   0  0  0  0  0  3  0  0  0  0  0  0
  188.7350  176.9100  145.5600 C   0  0  0  0  0  3  0  0  0  0  0  0
  185.2290  178.2070  144.5750 C   0  0  2  0  0  3  0  0  0  0  0  0
  183.3010  179.3910  145.5190 F   0  0  0  0  0  0  0  0  0  0  0  0
  184.1510  178.3100  145.6860 C   0  0  2  0  0  3  0  0  0  0  0  0
  188.6070  178.6090  147.3950 C   0  0  0  0  0  2  0  0  0  0  0  0
  186.5000  178.0190  145.3270 C   0  0  0  0  0  0  0  0  0  0  0  0
  181.3620  178.4620  142.0730 C   0  0  2  0  0  3  0  0  0  0  0  0
  180.3670  178.5080  140.9570 C   0  0  0  0  0  3  0  0  0  0  0  0
  180.4890  179.3130  140.0490 O   0  0  0  0  0  0  0  0  0  0  0  0
  180.3600  180.4740  142.9480 O   0  0  0  0  0  1  0  0  0  0  0  0
  180.8160  179.1990  143.2930 C   0  0  0  0  0  2  0  0  0  0  0  0
  1 27  1  1  0  0  0
  1  2  1  0  0  0  0
  2 14  1  6  0  0  0
  3  1  1  0  0  0  0
  3  2  1  0  0  0  0
  4  3  1  0  0  0  0
  5  4  1  0  0  0  0
  6  5  1  0  0  0  0
  7 11  1  0  0  0  0
  7  4  2  0  0  0  0
  8  6  2  0  0  0  0
  8  7  1  0  0  0  0
  9 10  1  0  0  0  0
  9  6  1  0  0  0  0
 11 12  1  0  0  0  0
 14 13  1  1  0  0  0
 14 15  1  0  0  0  0
 17 25  1  0  0  0  0
 18 16  1  0  0  0  0
 18 19  2  0  0  0  0
 20 26  2  0  0  0  0
 20 21  1  0  0  0  0
 21 17  2  0  0  0  0
 22 15  1  1  0  0  0
 22 26  1  0  0  0  0
 22 24  1  0  0  0  0
 24 23  1  6  0  0  0
 24 16  1  0  0  0  0
 25 19  1  0  0  0  0
 26 18  1  0  0  0  0
 27 28  1  6  0  0  0
 27 31  1  0  0  0  0
 29 28  2  0  0  0  0
 30 31  1  0  0  0  0
M  END
>  <MODEL>
8

>  <REMARK>
 VINA RESULT:      -7.5      2.168      4.036
  Name = 
  9 active torsions:
  status: ('A' for Active; 'I' for Inactive)
    1  A    between atoms: O_2  and  C_11
    2  A    between atoms: C_4  and  C_25
    3  A    between atoms: C_5  and  C_25
    4  A    between atoms: C_6  and  N_31
    5  A    between atoms: N_7  and  C_20
    6  A    between atoms: C_14  and  C_25
    7  A    between atoms: C_16  and  C_21
    8  A    between atoms: C_18  and  C_21
    9  A    between atoms: C_18  and  C_22
                            x       y       z     vdW  Elec       q    Type
                         _______ _______ _______ _____ _____    ______ ____

>  <TORSDO>
F 9

$$$$
=
 OpenBabel10222422053D

 31 34  0  0  1  0  0  0  0  0999 V2000
  186.2350  178.0010  140.8540 C   0  0  1  0  0  3  0  0  0  0  0  0
  185.6740  178.9900  141.6410 C   0  0  1  0  0  3  0  0  0  0  0  0
  184.8150  178.3770  140.5820 N   0  0  0  0  0  0  0  0  0  0  0  0
  183.5910  178.2430  139.8650 C   0  0  0  0  0  0  0  0  0  0  0  0
  182.7510  177.0190  139.8290 C   0  0  0  0  0  2  0  0  0  0  0  0
  181.6570  177.5170  138.9280 C   0  0  0  0  0  0  0  0  0  0  0  0
  183.0340  179.1820  139.1250 C   0  0  0  0  0  0  0  0  0  0  0  0
  181.8240  178.7380  138.5340 N   0  0  0  0  0  0  0  0  0  0  0  0
  180.5520  176.7650  138.5310 O   0  0  0  0  0  0  0  0  0  0  0  0
  180.6710  175.3990  138.1680 C   0  0  0  0  0  1  0  0  0  0  0  0
  183.5870  180.4790  138.9130 N   0  0  0  0  0  2  0  0  0  0  0  0
  182.7830  181.5620  138.8140 O   0  0  0  0  0  1  0  0  0  0  0  0
  184.0700  179.1530  143.5320 C   0  0  0  0  0  1  0  0  0  0  0  0
  185.2900  178.4270  143.0040 C   0  0  2  0  0  3  0  0  0  0  0  0
  186.4300  178.6120  143.9950 C   0  0  0  0  0  2  0  0  0  0  0  0
  188.1040  177.3040  146.7010 N   0  0  0  0  0  2  0  0  0  0  0  0
  191.1310  176.1910  143.6390 C   0  0  0  0  0  3  0  0  0  0  0  0
  188.9910  177.1340  145.6150 C   0  0  0  0  0  0  0  0  0  0  0  0
  190.3110  177.2530  145.7500 C   0  0  0  0  0  3  0  0  0  0  0  0
  188.6600  176.3750  143.2630 C   0  0  0  0  0  3  0  0  0  0  0  0
  190.0060  175.8140  143.0310 C   0  0  0  0  0  3  0  0  0  0  0  0
  186.8190  177.2870  144.6490 C   0  0  2  0  0  3  0  0  0  0  0  0
  186.0690  178.4360  146.6810 F   0  0  0  0  0  0  0  0  0  0  0  0
  186.7360  177.3210  146.1980 C   0  0  2  0  0  3  0  0  0  0  0  0
  191.2360  177.3480  144.5810 C   0  0  0  0  0  2  0  0  0  0  0  0
  188.2520  176.9990  144.3740 C   0  0  0  0  0  0  0  0  0  0  0  0
  187.1420  178.6130  139.7920 C   0  0  2  0  0  3  0  0  0  0  0  0
  186.8630  178.0260  138.4440 C   0  0  0  0  0  3  0  0  0  0  0  0
  186.7690  178.7440  137.4620 O   0  0  0  0  0  0  0  0  0  0  0  0
  189.0550  177.1450  139.7960 O   0  0  0  0  0  1  0  0  0  0  0  0
  188.6130  178.4210  140.1520 C   0  0  0  0  0  2  0  0  0  0  0  0
  1 27  1  6  0  0  0
  1  2  1  0  0  0  0
  2 14  1  1  0  0  0
  3  1  1  0  0  0  0
  3  2  1  0  0  0  0
  4  3  1  0  0  0  0
  5  4  1  0  0  0  0
  6  5  1  0  0  0  0
  7  4  2  0  0  0  0
  8  6  2  0  0  0  0
  8  7  1  0  0  0  0
  9  6  1  0  0  0  0
 10  9  1  0  0  0  0
 11  7  1  0  0  0  0
 12 11  1  0  0  0  0
 14 13  1  1  0  0  0
 14 15  1  0  0  0  0
 17 25  1  0  0  0  0
 18 19  2  0  0  0  0
 18 16  1  0  0  0  0
 20 26  2  0  0  0  0
 21 20  1  0  0  0  0
 21 17  2  0  0  0  0
 22 15  1  6  0  0  0
 22 24  1  0  0  0  0
 24 23  1  6  0  0  0
 24 16  1  0  0  0  0
 25 19  1  0  0  0  0
 26 22  1  0  0  0  0
 26 18  1  0  0  0  0
 27 28  1  6  0  0  0
 27 31  1  0  0  0  0
 29 28  2  0  0  0  0
 30 31  1  0  0  0  0
M  END
>  <MODEL>
9

>  <REMARK>
 VINA RESULT:      -7.5      1.830      2.009
  Name = 
  9 active torsions:
  status: ('A' for Active; 'I' for Inactive)
    1  A    between atoms: O_2  and  C_11
    2  A    between atoms: C_4  and  C_25
    3  A    between atoms: C_5  and  C_25
    4  A    between atoms: C_6  and  N_31
    5  A    between atoms: N_7  and  C_20
    6  A    between atoms: C_14  and  C_25
    7  A    between atoms: C_16  and  C_21
    8  A    between atoms: C_18  and  C_21
    9  A    between atoms: C_18  and  C_22
                            x       y       z     vdW  Elec       q    Type
                         _______ _______ _______ _____ _____    ______ ____

>  <TORSDO>
F 9

$$$$
