=
 OpenBabel10232409373D

 33 36  0  0  1  0  0  0  0  0999 V2000
  192.0940  175.4860  138.1100 C   0  0  0  0  0  1  0  0  0  0  0  0
  190.4900  176.8580  139.4340 C   0  0  1  0  0  3  0  0  0  0  0  0
  192.3290  177.1970  140.8290 N   0  0  0  0  0  0  0  0  0  0  0  0
  192.8460  177.4040  139.4930 C   0  0  0  0  0  2  0  0  0  0  0  0
  191.7530  176.8920  138.5670 C   0  0  1  0  0  3  0  0  0  0  0  0
  188.5270  175.5790  142.9780 O   0  0  0  0  0  0  0  0  0  0  0  0
  190.4270  176.4540  141.9910 N   0  0  0  0  0  2  0  0  0  0  0  0
  189.0300  176.4980  142.2790 C   0  0  0  0  0  0  0  0  0  0  0  0
  191.0660  176.9550  140.8130 C   0  0  0  0  0  0  0  0  0  0  0  0
  188.0980  176.6580  135.9930 C   0  0  2  0  0  3  0  0  0  0  0  0
  189.6760  178.0370  139.1310 N   0  0  1  0  0  0  0  0  0  0  0  0
  189.3420  178.0840  137.6820 C   0  0  2  0  0  3  0  0  0  0  0  0
  188.3670  177.5900  138.6430 C   0  0  2  0  0  3  0  0  0  0  0  0
  186.3750  178.1380  137.2900 C   0  0  2  0  0  3  0  0  0  0  0  0
  188.3580  176.2340  134.6910 O   0  0  0  0  0  1  0  0  0  0  0  0
  187.1400  177.8800  135.9620 C   0  0  0  0  0  2  0  0  0  0  0  0
  189.4410  176.8870  136.7390 C   0  0  0  0  0  2  0  0  0  0  0  0
  187.2710  178.6120  138.4540 C   0  0  0  0  0  2  0  0  0  0  0  0
  185.6340  176.9860  137.6780 O   0  0  0  0  0  0  0  0  0  0  0  0
  183.4510  176.3980  137.0510 C   0  0  0  0  0  2  0  0  0  0  0  0
  184.2550  177.0120  137.9060 C   0  0  0  0  0  0  0  0  0  0  0  0
  183.6660  177.7040  139.0960 C   0  0  0  0  0  2  0  0  0  0  0  0
  182.1960  179.3610  138.2160 O   0  0  0  0  0  0  0  0  0  0  0  0
  183.2980  179.1110  138.7690 C   0  0  0  0  0  0  0  0  0  0  0  0
  184.1640  180.1500  139.0850 O   0  0  0  0  0  1  0  0  0  0  0  0
  188.2690  177.6130  141.9040 O   0  0  0  0  0  0  0  0  0  0  0  0
  184.9160  179.1100  142.3450 C   0  0  0  0  0  3  0  0  0  0  0  0
  184.6630  178.8410  143.6930 C   0  0  0  0  0  0  0  0  0  0  0  0
  187.0860  178.0340  142.5310 C   0  0  0  0  0  0  0  0  0  0  0  0
  183.1440  179.3320  144.4110 Cl  0  0  0  0  0  0  0  0  0  0  0  0
  186.1250  178.7070  141.7680 C   0  0  0  0  0  3  0  0  0  0  0  0
  185.6170  178.1750  144.4640 C   0  0  0  0  0  3  0  0  0  0  0  0
  186.8230  177.7710  143.8860 C   0  0  0  0  0  3  0  0  0  0  0  0
  2  9  1  1  0  0  0
  4  3  1  0  0  0  0
  5  1  1  1  0  0  0
  5  2  1  0  0  0  0
  5  4  1  0  0  0  0
  7  8  1  0  0  0  0
  8  6  2  0  0  0  0
  9  3  2  0  0  0  0
  9  7  1  0  0  0  0
 10 15  1  6  0  0  0
 10 17  1  0  0  0  0
 11  2  1  6  0  0  0
 12 17  1  6  0  0  0
 12 13  1  0  0  0  0
 12 11  1  0  0  0  0
 13 18  1  1  0  0  0
 13 11  1  0  0  0  0
 14 19  1  1  0  0  0
 14 18  1  0  0  0  0
 16 10  1  0  0  0  0
 16 14  1  0  0  0  0
 19 21  1  0  0  0  0
 20 21  2  0  0  0  0
 21 22  1  0  0  0  0
 23 24  2  0  0  0  0
 24 25  1  0  0  0  0
 24 22  1  0  0  0  0
 26  8  1  0  0  0  0
 26 29  1  0  0  0  0
 27 28  1  0  0  0  0
 28 30  1  0  0  0  0
 28 32  2  0  0  0  0
 29 33  2  0  0  0  0
 31 27  2  0  0  0  0
 31 29  1  0  0  0  0
 33 32  1  0  0  0  0
M  END
>  <MODEL>
1

>  <REMARK>
 VINA RESULT:      -7.3      0.000      0.000
  Name = 
  7 active torsions:
  status: ('A' for Active; 'I' for Inactive)
    1  A    between atoms: O_2  and  C_12
    2  A    between atoms: O_2  and  C_31
    3  A    between atoms: N_6  and  C_9
    4  A    between atoms: O_8  and  C_13
    5  A    between atoms: O_8  and  C_19
    6  A    between atoms: C_17  and  C_19
    7  A    between atoms: C_17  and  C_24
                            x       y       z     vdW  Elec       q    Type
                         _______ _______ _______ _____ _____    ______ ____

>  <TORSDO>
F 7

$$$$
=
 OpenBabel10232409373D

 33 36  0  0  1  0  0  0  0  0999 V2000
  185.8250  177.5330  136.3020 C   0  0  0  0  0  1  0  0  0  0  0  0
  188.1440  176.8340  136.8860 C   0  0  1  0  0  3  0  0  0  0  0  0
  188.3030  176.3670  134.6060 N   0  0  0  0  0  0  0  0  0  0  0  0
  187.6840  177.6740  134.6650 C   0  0  0  0  0  2  0  0  0  0  0  0
  187.2960  177.8580  136.1240 C   0  0  1  0  0  3  0  0  0  0  0  0
  189.4280  172.8180  137.4060 O   0  0  0  0  0  0  0  0  0  0  0  0
  188.9570  174.5590  135.9570 N   0  0  0  0  0  2  0  0  0  0  0  0
  189.6690  174.0070  137.0640 C   0  0  0  0  0  0  0  0  0  0  0  0
  188.5980  175.9330  135.7800 C   0  0  0  0  0  0  0  0  0  0  0  0
  187.6490  178.1950  140.8240 C   0  0  2  0  0  3  0  0  0  0  0  0
  189.2870  177.5230  137.4920 N   0  0  1  0  0  0  0  0  0  0  0  0
  188.8350  178.4150  138.5930 C   0  0  2  0  0  3  0  0  0  0  0  0
  189.3960  177.1060  138.8940 C   0  0  2  0  0  3  0  0  0  0  0  0
  190.1920  177.6830  141.1590 C   0  0  2  0  0  3  0  0  0  0  0  0
  186.6180  178.8890  141.4560 O   0  0  0  0  0  1  0  0  0  0  0  0
  189.0170  178.6780  141.3770 C   0  0  0  0  0  2  0  0  0  0  0  0
  187.4780  178.3080  139.2840 C   0  0  0  0  0  2  0  0  0  0  0  0
  190.6150  177.5170  139.6830 C   0  0  0  0  0  2  0  0  0  0  0  0
  189.8910  176.4140  141.7300 O   0  0  0  0  0  0  0  0  0  0  0  0
  188.7920  176.2460  143.7950 C   0  0  0  0  0  2  0  0  0  0  0  0
  189.9210  176.1750  143.1060 C   0  0  0  0  0  0  0  0  0  0  0  0
  191.1910  175.8280  143.8190 C   0  0  0  0  0  2  0  0  0  0  0  0
  191.7810  176.5620  146.0090 O   0  0  0  0  0  1  0  0  0  0  0  0
  191.5500  176.8790  144.8130 C   0  0  0  0  0  0  0  0  0  0  0  0
  191.6440  178.2080  144.4210 O   0  0  0  0  0  0  0  0  0  0  0  0
  190.7070  174.7300  137.6650 O   0  0  0  0  0  0  0  0  0  0  0  0
  193.8100  176.2760  136.3780 C   0  0  0  0  0  3  0  0  0  0  0  0
  194.6380  175.1600  136.2250 C   0  0  0  0  0  0  0  0  0  0  0  0
  192.0130  174.8430  137.1620 C   0  0  0  0  0  0  0  0  0  0  0  0
  196.2800  175.3630  135.6540 Cl  0  0  0  0  0  0  0  0  0  0  0  0
  192.5020  176.1150  136.8450 C   0  0  0  0  0  3  0  0  0  0  0  0
  194.1580  173.8860  136.5340 C   0  0  0  0  0  3  0  0  0  0  0  0
  192.8510  173.7270  137.0020 C   0  0  0  0  0  3  0  0  0  0  0  0
  2  9  1  6  0  0  0
  3  4  1  0  0  0  0
  3  9  2  0  0  0  0
  4  5  1  0  0  0  0
  5  1  1  6  0  0  0
  5  2  1  0  0  0  0
  7  8  1  0  0  0  0
  8  6  2  0  0  0  0
  8 26  1  0  0  0  0
  9  7  1  0  0  0  0
 10 16  1  0  0  0  0
 10 15  1  1  0  0  0
 11  2  1  6  0  0  0
 11 12  1  0  0  0  0
 11 13  1  0  0  0  0
 12 13  1  0  0  0  0
 12 17  1  6  0  0  0
 13 18  1  1  0  0  0
 14 16  1  0  0  0  0
 14 19  1  6  0  0  0
 17 10  1  0  0  0  0
 18 14  1  0  0  0  0
 19 21  1  0  0  0  0
 21 20  2  0  0  0  0
 21 22  1  0  0  0  0
 22 24  1  0  0  0  0
 24 23  1  0  0  0  0
 25 24  2  0  0  0  0
 27 31  1  0  0  0  0
 28 27  2  0  0  0  0
 28 32  1  0  0  0  0
 29 26  1  0  0  0  0
 30 28  1  0  0  0  0
 31 29  2  0  0  0  0
 32 33  2  0  0  0  0
 33 29  1  0  0  0  0
M  END
>  <MODEL>
2

>  <REMARK>
 VINA RESULT:      -7.0      3.947      7.984
  Name = 
  7 active torsions:
  status: ('A' for Active; 'I' for Inactive)
    1  A    between atoms: O_2  and  C_12
    2  A    between atoms: O_2  and  C_31
    3  A    between atoms: N_6  and  C_9
    4  A    between atoms: O_8  and  C_13
    5  A    between atoms: O_8  and  C_19
    6  A    between atoms: C_17  and  C_19
    7  A    between atoms: C_17  and  C_24
                            x       y       z     vdW  Elec       q    Type
                         _______ _______ _______ _____ _____    ______ ____

>  <TORSDO>
F 7

$$$$
=
 OpenBabel10232409373D

 33 36  0  0  1  0  0  0  0  0999 V2000
  190.1560  178.3650  148.5090 C   0  0  0  0  0  1  0  0  0  0  0  0
  189.9110  177.5280  146.1760 C   0  0  1  0  0  3  0  0  0  0  0  0
  192.0870  176.7500  146.4990 N   0  0  0  0  0  0  0  0  0  0  0  0
  191.3830  176.3640  147.7030 C   0  0  0  0  0  2  0  0  0  0  0  0
  190.0640  177.1210  147.6450 C   0  0  1  0  0  3  0  0  0  0  0  0
  191.5100  179.4150  142.7220 O   0  0  0  0  0  0  0  0  0  0  0  0
  191.8540  178.0230  144.5370 N   0  0  0  0  0  2  0  0  0  0  0  0
  191.1660  178.3700  143.3350 C   0  0  0  0  0  0  0  0  0  0  0  0
  191.3020  177.3250  145.6580 C   0  0  0  0  0  0  0  0  0  0  0  0
  185.8760  178.6750  146.0890 C   0  0  2  0  0  3  0  0  0  0  0  0
  188.9790  176.6030  145.5240 N   0  0  1  0  0  0  0  0  0  0  0  0
  187.5960  176.8120  146.0310 C   0  0  2  0  0  3  0  0  0  0  0  0
  188.0030  177.3850  144.7570 C   0  0  2  0  0  3  0  0  0  0  0  0
  185.7390  177.4630  143.7760 C   0  0  2  0  0  3  0  0  0  0  0  0
  185.0250  179.1890  147.0650 O   0  0  0  0  0  1  0  0  0  0  0  0
  185.0870  177.7090  145.1660 C   0  0  0  0  0  2  0  0  0  0  0  0
  187.1320  178.0650  146.7700 C   0  0  0  0  0  2  0  0  0  0  0  0
  187.0580  176.6620  143.8280 C   0  0  0  0  0  2  0  0  0  0  0  0
  185.9370  178.6930  143.0870 O   0  0  0  0  0  0  0  0  0  0  0  0
  183.8640  179.4890  142.3340 C   0  0  0  0  0  2  0  0  0  0  0  0
  185.1060  179.1250  142.0510 C   0  0  0  0  0  0  0  0  0  0  0  0
  185.5850  179.2010  140.6340 C   0  0  0  0  0  2  0  0  0  0  0  0
  184.1240  180.2540  139.0720 O   0  0  0  0  0  0  0  0  0  0  0  0
  184.4380  179.1980  139.6810 C   0  0  0  0  0  0  0  0  0  0  0  0
  183.7220  178.0300  139.4540 O   0  0  0  0  0  1  0  0  0  0  0  0
  190.2250  177.4910  142.7840 O   0  0  0  0  0  0  0  0  0  0  0  0
  188.6100  177.6360  139.4600 C   0  0  0  0  0  3  0  0  0  0  0  0
  189.5540  176.9870  138.6590 C   0  0  0  0  0  0  0  0  0  0  0  0
  190.0140  177.2870  141.4110 C   0  0  0  0  0  0  0  0  0  0  0  0
  189.2710  176.8140  136.9410 Cl  0  0  0  0  0  0  0  0  0  0  0  0
  188.8410  177.7840  140.8310 C   0  0  0  0  0  3  0  0  0  0  0  0
  190.7250  176.4820  139.2290 C   0  0  0  0  0  3  0  0  0  0  0  0
  190.9560  176.6330  140.5990 C   0  0  0  0  0  3  0  0  0  0  0  0
  2  9  1  6  0  0  0
  2  5  1  0  0  0  0
  3  4  1  0  0  0  0
  5  4  1  0  0  0  0
  5  1  1  1  0  0  0
  6  8  2  0  0  0  0
  7  9  1  0  0  0  0
  8  7  1  0  0  0  0
  9  3  2  0  0  0  0
 10 17  1  0  0  0  0
 10 15  1  1  0  0  0
 11 12  1  0  0  0  0
 11  2  1  1  0  0  0
 12 17  1  1  0  0  0
 13 18  1  6  0  0  0
 13 11  1  0  0  0  0
 13 12  1  0  0  0  0
 14 19  1  1  0  0  0
 14 18  1  0  0  0  0
 14 16  1  0  0  0  0
 16 10  1  0  0  0  0
 21 20  2  0  0  0  0
 21 19  1  0  0  0  0
 22 21  1  0  0  0  0
 23 24  2  0  0  0  0
 24 22  1  0  0  0  0
 25 24  1  0  0  0  0
 26  8  1  0  0  0  0
 27 31  1  0  0  0  0
 28 32  1  0  0  0  0
 28 27  2  0  0  0  0
 29 26  1  0  0  0  0
 30 28  1  0  0  0  0
 31 29  2  0  0  0  0
 32 33  2  0  0  0  0
 33 29  1  0  0  0  0
M  END
>  <MODEL>
3

>  <REMARK>
 VINA RESULT:      -6.9      3.433      6.814
  Name = 
  7 active torsions:
  status: ('A' for Active; 'I' for Inactive)
    1  A    between atoms: O_2  and  C_12
    2  A    between atoms: O_2  and  C_31
    3  A    between atoms: N_6  and  C_9
    4  A    between atoms: O_8  and  C_13
    5  A    between atoms: O_8  and  C_19
    6  A    between atoms: C_17  and  C_19
    7  A    between atoms: C_17  and  C_24
                            x       y       z     vdW  Elec       q    Type
                         _______ _______ _______ _____ _____    ______ ____

>  <TORSDO>
F 7

$$$$
=
 OpenBabel10232409373D

 33 36  0  0  1  0  0  0  0  0999 V2000
  191.9510  175.4160  138.1280 C   0  0  0  0  0  1  0  0  0  0  0  0
  190.3240  176.7770  139.4340 C   0  0  1  0  0  3  0  0  0  0  0  0
  192.1860  177.2750  140.7480 N   0  0  0  0  0  0  0  0  0  0  0  0
  192.6510  177.4370  139.3870 C   0  0  0  0  0  2  0  0  0  0  0  0
  191.5560  176.8260  138.5240 C   0  0  1  0  0  3  0  0  0  0  0  0
  188.5350  175.5930  143.1010 O   0  0  0  0  0  0  0  0  0  0  0  0
  190.3590  176.5040  142.0080 N   0  0  0  0  0  2  0  0  0  0  0  0
  188.9710  176.4970  142.3400 C   0  0  0  0  0  0  0  0  0  0  0  0
  190.9370  176.9730  140.7860 C   0  0  0  0  0  0  0  0  0  0  0  0
  187.8640  176.3010  136.0690 C   0  0  2  0  0  3  0  0  0  0  0  0
  189.4440  177.9000  139.0990 N   0  0  1  0  0  0  0  0  0  0  0  0
  189.0740  177.8630  137.6590 C   0  0  2  0  0  3  0  0  0  0  0  0
  188.1480  177.3670  138.6660 C   0  0  2  0  0  3  0  0  0  0  0  0
  186.1000  177.7520  137.3420 C   0  0  2  0  0  3  0  0  0  0  0  0
  188.1140  175.8300  134.7810 O   0  0  0  0  0  1  0  0  0  0  0  0
  186.8450  177.4710  136.0070 C   0  0  0  0  0  2  0  0  0  0  0  0
  189.2110  176.6300  136.7690 C   0  0  0  0  0  2  0  0  0  0  0  0
  186.9980  178.3240  138.4600 C   0  0  0  0  0  2  0  0  0  0  0  0
  185.4270  176.5850  137.8000 O   0  0  0  0  0  0  0  0  0  0  0  0
  183.2540  177.3230  137.3140 C   0  0  0  0  0  2  0  0  0  0  0  0
  184.0900  176.3120  137.4990 C   0  0  0  0  0  0  0  0  0  0  0  0
  183.5810  174.9100  137.3680 C   0  0  0  0  0  2  0  0  0  0  0  0
  185.1120  173.1770  137.9490 O   0  0  0  0  0  1  0  0  0  0  0  0
  184.6920  173.9640  137.0610 C   0  0  0  0  0  0  0  0  0  0  0  0
  185.2580  173.9400  135.7930 O   0  0  0  0  0  0  0  0  0  0  0  0
  188.1450  177.5540  141.9350 O   0  0  0  0  0  0  0  0  0  0  0  0
  184.6990  178.8140  142.3980 C   0  0  0  0  0  3  0  0  0  0  0  0
  184.5380  178.6910  143.7800 C   0  0  0  0  0  0  0  0  0  0  0  0
  186.9620  177.9500  142.5780 C   0  0  0  0  0  0  0  0  0  0  0  0
  183.0190  179.1400  144.5250 Cl  0  0  0  0  0  0  0  0  0  0  0  0
  185.9090  178.4440  141.8010 C   0  0  0  0  0  3  0  0  0  0  0  0
  185.5850  178.2040  144.5660 C   0  0  0  0  0  3  0  0  0  0  0  0
  186.7920  177.8330  143.9680 C   0  0  0  0  0  3  0  0  0  0  0  0
  2  9  1  1  0  0  0
  3  9  2  0  0  0  0
  4  3  1  0  0  0  0
  5  1  1  1  0  0  0
  5  4  1  0  0  0  0
  5  2  1  0  0  0  0
  7  8  1  0  0  0  0
  8  6  2  0  0  0  0
  9  7  1  0  0  0  0
 10 15  1  6  0  0  0
 10 17  1  0  0  0  0
 11  2  1  6  0  0  0
 12 17  1  6  0  0  0
 12 13  1  0  0  0  0
 12 11  1  0  0  0  0
 13 18  1  1  0  0  0
 13 11  1  0  0  0  0
 14 19  1  1  0  0  0
 14 18  1  0  0  0  0
 16 10  1  0  0  0  0
 16 14  1  0  0  0  0
 20 21  2  0  0  0  0
 21 19  1  0  0  0  0
 22 21  1  0  0  0  0
 24 22  1  0  0  0  0
 24 23  1  0  0  0  0
 25 24  2  0  0  0  0
 26  8  1  0  0  0  0
 26 29  1  0  0  0  0
 27 28  1  0  0  0  0
 28 30  1  0  0  0  0
 28 32  2  0  0  0  0
 29 33  2  0  0  0  0
 31 27  2  0  0  0  0
 31 29  1  0  0  0  0
 33 32  1  0  0  0  0
M  END
>  <MODEL>
4

>  <REMARK>
 VINA RESULT:      -6.9      1.190      2.086
  Name = 
  7 active torsions:
  status: ('A' for Active; 'I' for Inactive)
    1  A    between atoms: O_2  and  C_12
    2  A    between atoms: O_2  and  C_31
    3  A    between atoms: N_6  and  C_9
    4  A    between atoms: O_8  and  C_13
    5  A    between atoms: O_8  and  C_19
    6  A    between atoms: C_17  and  C_19
    7  A    between atoms: C_17  and  C_24
                            x       y       z     vdW  Elec       q    Type
                         _______ _______ _______ _____ _____    ______ ____

>  <TORSDO>
F 7

$$$$
=
 OpenBabel10232409373D

 33 36  0  0  1  0  0  0  0  0999 V2000
  191.5320  175.5870  143.7210 C   0  0  0  0  0  1  0  0  0  0  0  0
  189.6190  177.1830  143.7470 C   0  0  1  0  0  3  0  0  0  0  0  0
  190.4290  177.7190  145.8680 N   0  0  0  0  0  0  0  0  0  0  0  0
  191.6070  177.6950  145.0280 C   0  0  0  0  0  2  0  0  0  0  0  0
  191.1460  177.0540  143.7270 C   0  0  1  0  0  3  0  0  0  0  0  0
  185.9250  176.5380  145.7440 O   0  0  0  0  0  0  0  0  0  0  0  0
  188.1360  177.2080  145.8700 N   0  0  0  0  0  2  0  0  0  0  0  0
  186.8200  177.3210  145.3280 C   0  0  0  0  0  0  0  0  0  0  0  0
  189.3600  177.4980  145.1890 C   0  0  0  0  0  0  0  0  0  0  0  0
  190.5820  176.8840  139.6750 C   0  0  2  0  0  3  0  0  0  0  0  0
  189.2280  178.3100  142.8960 N   0  0  1  0  0  0  0  0  0  0  0  0
  190.0760  178.3600  141.6750 C   0  0  2  0  0  3  0  0  0  0  0  0
  188.7420  177.7830  141.6160 C   0  0  2  0  0  3  0  0  0  0  0  0
  188.3800  178.2170  139.2130 C   0  0  2  0  0  3  0  0  0  0  0  0
  191.7460  176.5030  139.0100 O   0  0  0  0  0  1  0  0  0  0  0  0
  189.8920  178.0370  138.8970 C   0  0  0  0  0  2  0  0  0  0  0  0
  190.9130  177.1910  141.1610 C   0  0  0  0  0  2  0  0  0  0  0  0
  188.0880  178.7300  140.6390 C   0  0  0  0  0  2  0  0  0  0  0  0
  187.6660  177.0100  138.9680 O   0  0  0  0  0  0  0  0  0  0  0  0
  187.5440  175.6050  137.0940 C   0  0  0  0  0  2  0  0  0  0  0  0
  187.1180  176.6910  137.7230 C   0  0  0  0  0  0  0  0  0  0  0  0
  186.0560  177.5340  137.0880 C   0  0  0  0  0  2  0  0  0  0  0  0
  184.1090  177.2040  138.4220 O   0  0  0  0  0  0  0  0  0  0  0  0
  185.0500  177.9740  138.0960 C   0  0  0  0  0  0  0  0  0  0  0  0
  185.1530  179.2270  138.6860 O   0  0  0  0  0  1  0  0  0  0  0  0
  186.5060  178.3710  144.4550 O   0  0  0  0  0  0  0  0  0  0  0  0
  183.8970  178.4130  141.8340 C   0  0  0  0  0  3  0  0  0  0  0  0
  182.7840  178.8580  142.5520 C   0  0  0  0  0  0  0  0  0  0  0  0
  185.2600  178.5670  143.8390 C   0  0  0  0  0  0  0  0  0  0  0  0
  181.2370  179.0250  141.7500 Cl  0  0  0  0  0  0  0  0  0  0  0  0
  185.1310  178.2690  142.4780 C   0  0  0  0  0  3  0  0  0  0  0  0
  182.9040  179.1640  143.9090 C   0  0  0  0  0  3  0  0  0  0  0  0
  184.1360  179.0170  144.5520 C   0  0  0  0  0  3  0  0  0  0  0  0
  2  9  1  1  0  0  0
  4  3  1  0  0  0  0
  5  1  1  1  0  0  0
  5  2  1  0  0  0  0
  5  4  1  0  0  0  0
  8  6  2  0  0  0  0
  8  7  1  0  0  0  0
  9  3  2  0  0  0  0
  9  7  1  0  0  0  0
 10 15  1  6  0  0  0
 10 17  1  0  0  0  0
 11  2  1  1  0  0  0
 12 17  1  1  0  0  0
 12 11  1  0  0  0  0
 13 18  1  6  0  0  0
 13 12  1  0  0  0  0
 13 11  1  0  0  0  0
 14 19  1  1  0  0  0
 14 18  1  0  0  0  0
 16 14  1  0  0  0  0
 16 10  1  0  0  0  0
 20 21  2  0  0  0  0
 21 19  1  0  0  0  0
 22 21  1  0  0  0  0
 22 24  1  0  0  0  0
 24 23  2  0  0  0  0
 24 25  1  0  0  0  0
 26  8  1  0  0  0  0
 27 31  2  0  0  0  0
 27 28  1  0  0  0  0
 28 32  2  0  0  0  0
 29 26  1  0  0  0  0
 29 33  2  0  0  0  0
 30 28  1  0  0  0  0
 31 29  1  0  0  0  0
 32 33  1  0  0  0  0
M  END
>  <MODEL>
5

>  <REMARK>
 VINA RESULT:      -6.7      2.401      3.747
  Name = 
  7 active torsions:
  status: ('A' for Active; 'I' for Inactive)
    1  A    between atoms: O_2  and  C_12
    2  A    between atoms: O_2  and  C_31
    3  A    between atoms: N_6  and  C_9
    4  A    between atoms: O_8  and  C_13
    5  A    between atoms: O_8  and  C_19
    6  A    between atoms: C_17  and  C_19
    7  A    between atoms: C_17  and  C_24
                            x       y       z     vdW  Elec       q    Type
                         _______ _______ _______ _____ _____    ______ ____

>  <TORSDO>
F 7

$$$$
=
 OpenBabel10232409373D

 33 36  0  0  1  0  0  0  0  0999 V2000
  189.3570  178.7340  136.5730 C   0  0  0  0  0  1  0  0  0  0  0  0
  187.9220  177.9140  138.4380 C   0  0  1  0  0  3  0  0  0  0  0  0
  186.3870  177.4960  136.7320 N   0  0  0  0  0  0  0  0  0  0  0  0
  187.6400  176.9760  136.2260 C   0  0  0  0  0  2  0  0  0  0  0  0
  188.6980  177.5090  137.1810 C   0  0  1  0  0  3  0  0  0  0  0  0
  184.7530  180.1060  140.2270 O   0  0  0  0  0  0  0  0  0  0  0  0
  185.4730  178.7530  138.4950 N   0  0  0  0  0  2  0  0  0  0  0  0
  185.2630  179.0060  139.8830 C   0  0  0  0  0  0  0  0  0  0  0  0
  186.5150  177.9520  137.9270 C   0  0  0  0  0  0  0  0  0  0  0  0
  191.6540  177.6630  140.3380 C   0  0  2  0  0  3  0  0  0  0  0  0
  188.0760  176.8630  139.4480 N   0  0  1  0  0  0  0  0  0  0  0  0
  189.5110  176.5120  139.6220 C   0  0  2  0  0  3  0  0  0  0  0  0
  188.8540  177.4010  140.5690 C   0  0  2  0  0  3  0  0  0  0  0  0
  190.3470  176.8970  142.4690 C   0  0  2  0  0  3  0  0  0  0  0  0
  192.9600  177.6890  139.8510 O   0  0  0  0  0  1  0  0  0  0  0  0
  191.5610  176.6680  141.5260 C   0  0  0  0  0  2  0  0  0  0  0  0
  190.6720  177.3920  139.1650 C   0  0  0  0  0  2  0  0  0  0  0  0
  188.9780  176.5800  141.8300 C   0  0  0  0  0  2  0  0  0  0  0  0
  190.3530  178.2240  142.9860 O   0  0  0  0  0  0  0  0  0  0  0  0
  191.6070  179.5370  144.4710 C   0  0  0  0  0  2  0  0  0  0  0  0
  190.7650  178.5310  144.2850 C   0  0  0  0  0  0  0  0  0  0  0  0
  190.2710  177.7640  145.4720 C   0  0  0  0  0  2  0  0  0  0  0  0
  191.9820  176.1120  145.3070 O   0  0  0  0  0  0  0  0  0  0  0  0
  191.3520  176.9130  146.0460 C   0  0  0  0  0  0  0  0  0  0  0  0
  191.6750  177.0090  147.3940 O   0  0  0  0  0  1  0  0  0  0  0  0
  185.4950  177.9970  140.8270 O   0  0  0  0  0  0  0  0  0  0  0  0
  183.9790  178.6180  144.1430 C   0  0  0  0  0  3  0  0  0  0  0  0
  185.0640  178.3920  144.9950 C   0  0  0  0  0  0  0  0  0  0  0  0
  185.3840  178.1470  142.2180 C   0  0  0  0  0  0  0  0  0  0  0  0
  184.8560  178.5310  146.7270 Cl  0  0  0  0  0  0  0  0  0  0  0  0
  184.1410  178.4950  142.7580 C   0  0  0  0  0  3  0  0  0  0  0  0
  186.3100  178.0490  144.4650 C   0  0  0  0  0  3  0  0  0  0  0  0
  186.4700  177.9250  143.0820 C   0  0  0  0  0  3  0  0  0  0  0  0
  2  9  1  6  0  0  0
  3  9  2  0  0  0  0
  4  3  1  0  0  0  0
  4  5  1  0  0  0  0
  5  1  1  6  0  0  0
  5  2  1  0  0  0  0
  7  8  1  0  0  0  0
  8  6  2  0  0  0  0
  8 26  1  0  0  0  0
  9  7  1  0  0  0  0
 10 15  1  6  0  0  0
 10 16  1  0  0  0  0
 11  2  1  6  0  0  0
 11 12  1  0  0  0  0
 11 13  1  0  0  0  0
 12 17  1  6  0  0  0
 12 13  1  0  0  0  0
 13 18  1  1  0  0  0
 14 19  1  6  0  0  0
 16 14  1  0  0  0  0
 17 10  1  0  0  0  0
 18 14  1  0  0  0  0
 19 21  1  0  0  0  0
 21 20  2  0  0  0  0
 21 22  1  0  0  0  0
 22 24  1  0  0  0  0
 23 24  2  0  0  0  0
 24 25  1  0  0  0  0
 26 29  1  0  0  0  0
 27 28  1  0  0  0  0
 28 30  1  0  0  0  0
 29 31  1  0  0  0  0
 29 33  2  0  0  0  0
 31 27  2  0  0  0  0
 32 28  2  0  0  0  0
 33 32  1  0  0  0  0
M  END
>  <MODEL>
6

>  <REMARK>
 VINA RESULT:      -6.7      2.624      6.256
  Name = 
  7 active torsions:
  status: ('A' for Active; 'I' for Inactive)
    1  A    between atoms: O_2  and  C_12
    2  A    between atoms: O_2  and  C_31
    3  A    between atoms: N_6  and  C_9
    4  A    between atoms: O_8  and  C_13
    5  A    between atoms: O_8  and  C_19
    6  A    between atoms: C_17  and  C_19
    7  A    between atoms: C_17  and  C_24
                            x       y       z     vdW  Elec       q    Type
                         _______ _______ _______ _____ _____    ______ ____

>  <TORSDO>
F 7

$$$$
=
 OpenBabel10232409373D

 33 36  0  0  1  0  0  0  0  0999 V2000
  180.2110  178.3160  144.0930 C   0  0  0  0  0  1  0  0  0  0  0  0
  181.9670  178.5370  142.3400 C   0  0  1  0  0  3  0  0  0  0  0  0
  180.1730  179.1650  140.9870 N   0  0  0  0  0  0  0  0  0  0  0  0
  179.9820  179.9150  142.2100 C   0  0  0  0  0  2  0  0  0  0  0  0
  180.9540  179.2950  143.2040 C   0  0  1  0  0  3  0  0  0  0  0  0
  182.7580  175.6760  139.3000 O   0  0  0  0  0  0  0  0  0  0  0  0
  181.4760  177.4540  140.0390 N   0  0  0  0  0  2  0  0  0  0  0  0
  182.7330  176.8730  139.6940 C   0  0  0  0  0  0  0  0  0  0  0  0
  181.2520  178.4670  141.0250 C   0  0  0  0  0  0  0  0  0  0  0  0
  184.6670  178.3420  145.5440 C   0  0  2  0  0  3  0  0  0  0  0  0
  183.1850  179.3430  142.2220 N   0  0  1  0  0  0  0  0  0  0  0  0
  183.7480  179.6370  143.5670 C   0  0  2  0  0  3  0  0  0  0  0  0
  184.3110  178.5690  142.7540 C   0  0  2  0  0  3  0  0  0  0  0  0
  186.5620  178.6380  143.7670 C   0  0  2  0  0  3  0  0  0  0  0  0
  184.4930  178.4130  146.9250 O   0  0  0  0  0  1  0  0  0  0  0  0
  185.9870  179.0570  145.1480 C   0  0  0  0  0  2  0  0  0  0  0  0
  183.3890  178.8680  144.8360 C   0  0  0  0  0  2  0  0  0  0  0  0
  185.7130  179.0960  142.5620 C   0  0  0  0  0  2  0  0  0  0  0  0
  186.7720  177.2310  143.7130 O   0  0  0  0  0  0  0  0  0  0  0  0
  188.5130  175.7890  143.0870 C   0  0  0  0  0  2  0  0  0  0  0  0
  188.0110  176.6370  143.9720 C   0  0  0  0  0  0  0  0  0  0  0  0
  188.7890  176.9440  145.2140 C   0  0  0  0  0  2  0  0  0  0  0  0
  190.1730  178.7550  144.5160 O   0  0  0  0  0  0  0  0  0  0  0  0
  190.1090  177.5530  144.8810 C   0  0  0  0  0  0  0  0  0  0  0  0
  191.2710  176.7990  144.9830 O   0  0  0  0  0  1  0  0  0  0  0  0
  183.8900  177.6620  139.6670 O   0  0  0  0  0  0  0  0  0  0  0  0
  185.2740  177.2960  136.2580 C   0  0  0  0  0  3  0  0  0  0  0  0
  186.5250  177.9050  136.3940 C   0  0  0  0  0  0  0  0  0  0  0  0
  184.7970  177.7330  138.5990 C   0  0  0  0  0  0  0  0  0  0  0  0
  187.5930  178.0240  135.0140 Cl  0  0  0  0  0  0  0  0  0  0  0  0
  184.4150  177.2110  137.3580 C   0  0  0  0  0  3  0  0  0  0  0  0
  186.9180  178.4230  137.6300 C   0  0  0  0  0  3  0  0  0  0  0  0
  186.0580  178.3400  138.7280 C   0  0  0  0  0  3  0  0  0  0  0  0
  2  9  1  6  0  0  0
  2  5  1  0  0  0  0
  3  9  2  0  0  0  0
  3  4  1  0  0  0  0
  4  5  1  0  0  0  0
  5  1  1  1  0  0  0
  6  8  2  0  0  0  0
  7  9  1  0  0  0  0
  8  7  1  0  0  0  0
 10 15  1  1  0  0  0
 11  2  1  1  0  0  0
 11 13  1  0  0  0  0
 11 12  1  0  0  0  0
 12 17  1  1  0  0  0
 13 18  1  6  0  0  0
 13 12  1  0  0  0  0
 14 19  1  1  0  0  0
 14 16  1  0  0  0  0
 16 10  1  0  0  0  0
 17 10  1  0  0  0  0
 18 14  1  0  0  0  0
 19 21  1  0  0  0  0
 20 21  2  0  0  0  0
 21 22  1  0  0  0  0
 23 24  2  0  0  0  0
 24 25  1  0  0  0  0
 24 22  1  0  0  0  0
 26  8  1  0  0  0  0
 27 28  2  0  0  0  0
 27 31  1  0  0  0  0
 28 32  1  0  0  0  0
 29 33  1  0  0  0  0
 29 26  1  0  0  0  0
 30 28  1  0  0  0  0
 31 29  2  0  0  0  0
 32 33  2  0  0  0  0
M  END
>  <MODEL>
7

>  <REMARK>
 VINA RESULT:      -6.7      4.136      8.811
  Name = 
  7 active torsions:
  status: ('A' for Active; 'I' for Inactive)
    1  A    between atoms: O_2  and  C_12
    2  A    between atoms: O_2  and  C_31
    3  A    between atoms: N_6  and  C_9
    4  A    between atoms: O_8  and  C_13
    5  A    between atoms: O_8  and  C_19
    6  A    between atoms: C_17  and  C_19
    7  A    between atoms: C_17  and  C_24
                            x       y       z     vdW  Elec       q    Type
                         _______ _______ _______ _____ _____    ______ ____

>  <TORSDO>
F 7

$$$$
=
 OpenBabel10232409373D

 33 36  0  0  1  0  0  0  0  0999 V2000
  191.4240  175.7320  143.3930 C   0  0  0  0  0  1  0  0  0  0  0  0
  189.4960  177.3090  143.3500 C   0  0  1  0  0  3  0  0  0  0  0  0
  190.4500  178.1250  145.3160 N   0  0  0  0  0  0  0  0  0  0  0  0
  191.5630  177.9960  144.4010 C   0  0  0  0  0  2  0  0  0  0  0  0
  191.0180  177.1860  143.2340 C   0  0  1  0  0  3  0  0  0  0  0  0
  185.9660  176.9160  145.6820 O   0  0  0  0  0  0  0  0  0  0  0  0
  188.1700  177.6070  145.5540 N   0  0  0  0  0  2  0  0  0  0  0  0
  186.8170  177.6420  145.1010 C   0  0  0  0  0  0  0  0  0  0  0  0
  189.3380  177.8110  144.7520 C   0  0  0  0  0  0  0  0  0  0  0  0
  190.5750  176.7140  139.3390 C   0  0  2  0  0  3  0  0  0  0  0  0
  189.0270  178.3110  142.3890 N   0  0  1  0  0  0  0  0  0  0  0  0
  189.8960  178.3210  141.1810 C   0  0  2  0  0  3  0  0  0  0  0  0
  188.6190  177.6240  141.1580 C   0  0  2  0  0  3  0  0  0  0  0  0
  188.2760  177.7960  138.7200 C   0  0  2  0  0  3  0  0  0  0  0  0
  191.7830  176.3780  138.7320 O   0  0  0  0  0  1  0  0  0  0  0  0
  189.8040  177.7230  138.4450 C   0  0  0  0  0  2  0  0  0  0  0  0
  190.8440  177.1880  140.7940 C   0  0  0  0  0  2  0  0  0  0  0  0
  187.9070  178.4130  140.0860 C   0  0  0  0  0  2  0  0  0  0  0  0
  187.6760  176.5120  138.5810 O   0  0  0  0  0  0  0  0  0  0  0  0
  186.5360  176.7300  136.5430 C   0  0  0  0  0  2  0  0  0  0  0  0
  187.2820  175.9880  137.3480 C   0  0  0  0  0  0  0  0  0  0  0  0
  187.6900  174.6160  136.9060 C   0  0  0  0  0  2  0  0  0  0  0  0
  189.7010  175.3390  135.8490 O   0  0  0  0  0  0  0  0  0  0  0  0
  189.1600  174.5480  136.6650 C   0  0  0  0  0  0  0  0  0  0  0  0
  189.9370  173.6210  137.3470 O   0  0  0  0  0  1  0  0  0  0  0  0
  186.4250  178.5650  144.1230 O   0  0  0  0  0  0  0  0  0  0  0  0
  183.6660  178.4000  141.6660 C   0  0  0  0  0  3  0  0  0  0  0  0
  182.5720  178.7870  142.4440 C   0  0  0  0  0  0  0  0  0  0  0  0
  185.1340  178.6720  143.5820 C   0  0  0  0  0  0  0  0  0  0  0  0
  180.9720  178.8430  141.7360 Cl  0  0  0  0  0  0  0  0  0  0  0  0
  184.9430  178.3430  142.2350 C   0  0  0  0  0  3  0  0  0  0  0  0
  182.7540  179.1230  143.7880 C   0  0  0  0  0  3  0  0  0  0  0  0
  184.0290  179.0640  144.3550 C   0  0  0  0  0  3  0  0  0  0  0  0
  2  9  1  1  0  0  0
  4  3  1  0  0  0  0
  5  2  1  0  0  0  0
  5  1  1  1  0  0  0
  5  4  1  0  0  0  0
  8  7  1  0  0  0  0
  8  6  2  0  0  0  0
  9  3  2  0  0  0  0
  9  7  1  0  0  0  0
 10 15  1  6  0  0  0
 10 17  1  0  0  0  0
 11  2  1  1  0  0  0
 12 17  1  1  0  0  0
 12 11  1  0  0  0  0
 13 18  1  6  0  0  0
 13 12  1  0  0  0  0
 13 11  1  0  0  0  0
 14 19  1  1  0  0  0
 14 18  1  0  0  0  0
 16 14  1  0  0  0  0
 16 10  1  0  0  0  0
 20 21  2  0  0  0  0
 21 19  1  0  0  0  0
 22 21  1  0  0  0  0
 23 24  2  0  0  0  0
 24 22  1  0  0  0  0
 24 25  1  0  0  0  0
 26  8  1  0  0  0  0
 27 31  2  0  0  0  0
 27 28  1  0  0  0  0
 28 32  2  0  0  0  0
 29 26  1  0  0  0  0
 29 33  2  0  0  0  0
 30 28  1  0  0  0  0
 31 29  1  0  0  0  0
 32 33  1  0  0  0  0
M  END
>  <MODEL>
8

>  <REMARK>
 VINA RESULT:      -6.5      2.537      4.374
  Name = 
  7 active torsions:
  status: ('A' for Active; 'I' for Inactive)
    1  A    between atoms: O_2  and  C_12
    2  A    between atoms: O_2  and  C_31
    3  A    between atoms: N_6  and  C_9
    4  A    between atoms: O_8  and  C_13
    5  A    between atoms: O_8  and  C_19
    6  A    between atoms: C_17  and  C_19
    7  A    between atoms: C_17  and  C_24
                            x       y       z     vdW  Elec       q    Type
                         _______ _______ _______ _____ _____    ______ ____

>  <TORSDO>
F 7

$$$$
=
 OpenBabel10232409373D

 33 36  0  0  1  0  0  0  0  0999 V2000
  181.4410  177.1540  139.0870 C   0  0  0  0  0  1  0  0  0  0  0  0
  183.8560  177.5850  138.6560 C   0  0  1  0  0  3  0  0  0  0  0  0
  183.1800  177.6690  136.4250 N   0  0  0  0  0  0  0  0  0  0  0  0
  182.2040  178.4730  137.1290 C   0  0  0  0  0  2  0  0  0  0  0  0
  182.4470  178.1810  138.6020 C   0  0  1  0  0  3  0  0  0  0  0  0
  186.6510  174.6880  137.2980 O   0  0  0  0  0  0  0  0  0  0  0  0
  184.9830  176.2030  136.7780 N   0  0  0  0  0  2  0  0  0  0  0  0
  186.2520  175.8820  137.3460 C   0  0  0  0  0  0  0  0  0  0  0  0
  184.0920  177.2330  137.2200 C   0  0  0  0  0  0  0  0  0  0  0  0
  184.0850  178.2970  142.7840 C   0  0  2  0  0  3  0  0  0  0  0  0
  184.7940  178.6230  139.0920 N   0  0  1  0  0  0  0  0  0  0  0  0
  184.3940  179.1620  140.4200 C   0  0  2  0  0  3  0  0  0  0  0  0
  185.4550  178.1710  140.3210 C   0  0  2  0  0  3  0  0  0  0  0  0
  186.6160  178.8290  142.3980 C   0  0  2  0  0  3  0  0  0  0  0  0
  183.1090  178.4600  143.7650 O   0  0  0  0  0  1  0  0  0  0  0  0
  185.2800  179.2430  143.0770 C   0  0  0  0  0  2  0  0  0  0  0  0
  183.4390  178.4590  141.3810 C   0  0  0  0  0  2  0  0  0  0  0  0
  186.6160  178.9720  140.8610 C   0  0  0  0  0  2  0  0  0  0  0  0
  186.9820  177.5050  142.7690 O   0  0  0  0  0  0  0  0  0  0  0  0
  188.8950  176.1630  142.9710 C   0  0  0  0  0  2  0  0  0  0  0  0
  188.1900  177.1990  143.4010 C   0  0  0  0  0  0  0  0  0  0  0  0
  188.7140  178.0170  144.5400 C   0  0  0  0  0  2  0  0  0  0  0  0
  188.6170  176.9650  146.6770 O   0  0  0  0  0  1  0  0  0  0  0  0
  188.0240  177.6630  145.8140 C   0  0  0  0  0  0  0  0  0  0  0  0
  186.7320  178.1120  146.0570 O   0  0  0  0  0  0  0  0  0  0  0  0
  187.0880  176.8990  137.8230 O   0  0  0  0  0  0  0  0  0  0  0  0
  190.6690  176.5240  136.9810 C   0  0  0  0  0  3  0  0  0  0  0  0
  191.2690  176.6490  138.2380 C   0  0  0  0  0  0  0  0  0  0  0  0
  188.4770  176.7940  137.9920 C   0  0  0  0  0  0  0  0  0  0  0  0
  193.0110  176.5730  138.3850 Cl  0  0  0  0  0  0  0  0  0  0  0  0
  189.2780  176.5960  136.8610 C   0  0  0  0  0  3  0  0  0  0  0  0
  190.4780  176.8400  139.3730 C   0  0  0  0  0  3  0  0  0  0  0  0
  189.0890  176.9140  139.2520 C   0  0  0  0  0  3  0  0  0  0  0  0
  2  9  1  6  0  0  0
  3  4  1  0  0  0  0
  3  9  2  0  0  0  0
  4  5  1  0  0  0  0
  5  2  1  0  0  0  0
  5  1  1  6  0  0  0
  6  8  2  0  0  0  0
  7  9  1  0  0  0  0
  7  8  1  0  0  0  0
  8 26  1  0  0  0  0
 10 16  1  0  0  0  0
 10 15  1  1  0  0  0
 11  2  1  1  0  0  0
 11 13  1  0  0  0  0
 11 12  1  0  0  0  0
 12 17  1  1  0  0  0
 13 12  1  0  0  0  0
 13 18  1  6  0  0  0
 14 19  1  6  0  0  0
 14 16  1  0  0  0  0
 17 10  1  0  0  0  0
 18 14  1  0  0  0  0
 19 21  1  0  0  0  0
 20 21  2  0  0  0  0
 21 22  1  0  0  0  0
 22 24  1  0  0  0  0
 24 25  2  0  0  0  0
 24 23  1  0  0  0  0
 26 29  1  0  0  0  0
 27 28  1  0  0  0  0
 28 30  1  0  0  0  0
 28 32  2  0  0  0  0
 29 33  2  0  0  0  0
 31 27  2  0  0  0  0
 31 29  1  0  0  0  0
 33 32  1  0  0  0  0
M  END
>  <MODEL>
9

>  <REMARK>
 VINA RESULT:      -6.5      3.440      7.692
  Name = 
  7 active torsions:
  status: ('A' for Active; 'I' for Inactive)
    1  A    between atoms: O_2  and  C_12
    2  A    between atoms: O_2  and  C_31
    3  A    between atoms: N_6  and  C_9
    4  A    between atoms: O_8  and  C_13
    5  A    between atoms: O_8  and  C_19
    6  A    between atoms: C_17  and  C_19
    7  A    between atoms: C_17  and  C_24
                            x       y       z     vdW  Elec       q    Type
                         _______ _______ _______ _____ _____    ______ ____

>  <TORSDO>
F 7

$$$$
