=
 OpenBabel10232410003D

 26 26  0  0  1  0  0  0  0  0999 V2000
  190.3080  177.1450  145.3650 C   0  0  0  0  0  0  0  0  0  0  0  0
  187.9430  177.7070  145.5950 C   0  0  0  0  0  0  0  0  0  0  0  0
  189.0580  177.4160  144.8020 C   0  0  0  0  0  3  0  0  0  0  0  0
  189.3350  177.4280  147.5690 C   0  0  0  0  0  3  0  0  0  0  0  0
  186.9500  177.9230  147.9400 C   0  0  0  0  0  1  0  0  0  0  0  0
  188.0870  177.7010  147.0040 C   0  0  0  0  0  0  0  0  0  0  0  0
  190.4490  177.1550  146.7680 C   0  0  0  0  0  0  0  0  0  0  0  0
  191.7110  176.8860  147.3820 N   0  0  0  0  0  2  0  0  0  0  0  0
  192.1000  175.6240  147.6790 O   0  0  0  0  0  1  0  0  0  0  0  0
  186.7390  177.9740  144.9230 O   0  0  0  0  0  0  0  0  0  0  0  0
  186.5250  177.8000  143.5280 C   0  0  0  0  0  2  0  0  0  0  0  0
  185.6830  178.8720  143.0230 N   0  0  0  0  0  2  0  0  0  0  0  0
  184.4640  178.2570  142.5300 C   0  0  1  0  0  3  0  0  0  0  0  0
  183.2960  178.8200  143.2780 C   0  0  0  0  0  3  0  0  0  0  0  0
  183.3930  179.1250  144.5690 C   0  0  0  0  0  2  0  0  0  0  0  0
  184.3330  178.5300  141.0370 C   0  0  0  0  0  2  0  0  0  0  0  0
  185.1890  179.5650  140.6610 O   0  0  0  0  0  1  0  0  0  0  0  0
  191.4360  176.8340  144.4190 C   0  0  1  0  0  3  0  0  0  0  0  0
  191.4080  175.4450  143.8440 C   0  0  0  0  0  0  0  0  0  0  0  0
  190.3960  175.0480  142.9780 O   0  0  0  0  0  0  0  0  0  0  0  0
  192.3010  174.6220  144.1710 O   0  0  0  0  0  1  0  0  0  0  0  0
  191.7910  177.9820  143.4630 C   0  0  2  0  0  3  0  0  0  0  0  0
  191.3580  179.3530  143.9590 C   0  0  0  0  0  1  0  0  0  0  0  0
  190.0710  177.8910  141.8190 O   0  0  0  0  0  1  0  0  0  0  0  0
  192.1620  177.3310  141.0710 O   0  0  0  0  0  0  0  0  0  0  0  0
  191.2900  177.7260  142.0790 C   0  0  0  0  0  0  0  0  0  0  0  0
  1  7  1  0  0  0  0
  2  6  2  0  0  0  0
  3  1  2  0  0  0  0
  3  2  1  0  0  0  0
  6  4  1  0  0  0  0
  6  5  1  0  0  0  0
  7  8  1  0  0  0  0
  7  4  2  0  0  0  0
  8  9  1  0  0  0  0
 10  2  1  0  0  0  0
 11 10  1  0  0  0  0
 12 11  1  0  0  0  0
 13 16  1  6  0  0  0
 13 12  1  0  0  0  0
 13 14  1  0  0  0  0
 14 15  2  0  0  0  0
 17 16  1  0  0  0  0
 18 19  1  6  0  0  0
 18  1  1  0  0  0  0
 19 21  1  0  0  0  0
 20 19  2  0  0  0  0
 22 23  1  1  0  0  0
 22 18  1  0  0  0  0
 24 26  1  0  0  0  0
 25 26  2  0  0  0  0
 26 22  1  0  0  0  0
M  END
>  <MODEL>
1

>  <REMARK>
 VINA RESULT:      -7.6      0.000      0.000
  Name = 
  11 active torsions:
  status: ('A' for Active; 'I' for Inactive)
    1  A    between atoms: C_1  and  C_21
    2  A    between atoms: C_3  and  O_14
    3  A    between atoms: C_6  and  C_17
    4  A    between atoms: C_6  and  C_21
    5  A    between atoms: C_7  and  CA_24
    6  A    between atoms: C_9  and  C_21
    7  A    between atoms: C_10  and  CA_24
    8  A    between atoms: N_11  and  C_20
    9  A    between atoms: N_11  and  CA_24
   10  A    between atoms: O_14  and  C_20
   11  A    between atoms: N_18  and  C_23
                            x       y       z     vdW  Elec       q    Type
                         _______ _______ _______ _____ _____    ______ ____

>  <TORSDO>
F 11

$$$$
=
 OpenBabel10232410003D

 26 26  0  0  1  0  0  0  0  0999 V2000
  188.1220  177.3670  144.6820 C   0  0  0  0  0  0  0  0  0  0  0  0
  186.0570  178.1730  143.6590 C   0  0  0  0  0  0  0  0  0  0  0  0
  187.3610  177.6760  143.5520 C   0  0  0  0  0  3  0  0  0  0  0  0
  186.2520  178.0290  146.0780 C   0  0  0  0  0  3  0  0  0  0  0  0
  184.0910  178.7890  145.1710 C   0  0  0  0  0  1  0  0  0  0  0  0
  185.4930  178.3400  144.9470 C   0  0  0  0  0  0  0  0  0  0  0  0
  187.5620  177.5500  145.9630 C   0  0  0  0  0  0  0  0  0  0  0  0
  188.3100  177.2480  147.1420 N   0  0  0  0  0  2  0  0  0  0  0  0
  188.6320  178.2080  148.0410 O   0  0  0  0  0  1  0  0  0  0  0  0
  185.3870  178.4590  142.4580 O   0  0  0  0  0  0  0  0  0  0  0  0
  185.9880  179.0300  141.3020 C   0  0  0  0  0  2  0  0  0  0  0  0
  184.9570  179.5490  140.4180 N   0  0  0  0  0  2  0  0  0  0  0  0
  184.1840  178.4100  139.9550 C   0  0  1  0  0  3  0  0  0  0  0  0
  182.7280  178.7020  140.1370 C   0  0  0  0  0  3  0  0  0  0  0  0
  182.1570  178.6160  141.3360 C   0  0  0  0  0  2  0  0  0  0  0  0
  184.5050  178.1500  138.4890 C   0  0  0  0  0  2  0  0  0  0  0  0
  185.6500  178.8540  138.1150 O   0  0  0  0  0  1  0  0  0  0  0  0
  189.5080  176.8300  144.4510 C   0  0  1  0  0  3  0  0  0  0  0  0
  189.7710  176.3510  143.0500 C   0  0  0  0  0  0  0  0  0  0  0  0
  189.5770  177.1890  141.9580 O   0  0  0  0  0  0  0  0  0  0  0  0
  190.1480  175.1650  142.8620 O   0  0  0  0  0  1  0  0  0  0  0  0
  190.6200  177.6390  145.1360 C   0  0  2  0  0  3  0  0  0  0  0  0
  191.4120  178.5240  144.1850 C   0  0  0  0  0  1  0  0  0  0  0  0
  192.0870  175.7800  145.3910 O   0  0  0  0  0  0  0  0  0  0  0  0
  191.7760  177.0420  147.2780 O   0  0  0  0  0  1  0  0  0  0  0  0
  191.5270  176.7640  145.9390 C   0  0  0  0  0  0  0  0  0  0  0  0
  1  7  1  0  0  0  0
  2  6  2  0  0  0  0
  3  2  1  0  0  0  0
  3  1  2  0  0  0  0
  6  5  1  0  0  0  0
  6  4  1  0  0  0  0
  7  4  2  0  0  0  0
  7  8  1  0  0  0  0
  8  9  1  0  0  0  0
 10  2  1  0  0  0  0
 11 10  1  0  0  0  0
 12 11  1  0  0  0  0
 13 16  1  6  0  0  0
 13 14  1  0  0  0  0
 13 12  1  0  0  0  0
 14 15  2  0  0  0  0
 17 16  1  0  0  0  0
 18 19  1  6  0  0  0
 18  1  1  0  0  0  0
 18 22  1  0  0  0  0
 20 19  2  0  0  0  0
 21 19  1  0  0  0  0
 22 23  1  6  0  0  0
 22 26  1  0  0  0  0
 24 26  2  0  0  0  0
 26 25  1  0  0  0  0
M  END
>  <MODEL>
2

>  <REMARK>
 VINA RESULT:      -7.5      1.834      3.190
  Name = 
  11 active torsions:
  status: ('A' for Active; 'I' for Inactive)
    1  A    between atoms: C_1  and  C_21
    2  A    between atoms: C_3  and  O_14
    3  A    between atoms: C_6  and  C_17
    4  A    between atoms: C_6  and  C_21
    5  A    between atoms: C_7  and  CA_24
    6  A    between atoms: C_9  and  C_21
    7  A    between atoms: C_10  and  CA_24
    8  A    between atoms: N_11  and  C_20
    9  A    between atoms: N_11  and  CA_24
   10  A    between atoms: O_14  and  C_20
   11  A    between atoms: N_18  and  C_23
                            x       y       z     vdW  Elec       q    Type
                         _______ _______ _______ _____ _____    ______ ____

>  <TORSDO>
F 11

$$$$
=
 OpenBabel10232410003D

 26 26  0  0  1  0  0  0  0  0999 V2000
  189.6880  177.1420  145.3290 C   0  0  0  0  0  0  0  0  0  0  0  0
  187.6550  177.6990  146.5600 C   0  0  0  0  0  0  0  0  0  0  0  0
  188.3140  177.3960  145.3640 C   0  0  0  0  0  3  0  0  0  0  0  0
  189.7730  177.4660  147.7320 C   0  0  0  0  0  3  0  0  0  0  0  0
  187.7840  177.9600  149.1000 C   0  0  0  0  0  1  0  0  0  0  0  0
  188.4000  177.7230  147.7650 C   0  0  0  0  0  0  0  0  0  0  0  0
  190.4280  177.1810  146.5290 C   0  0  0  0  0  0  0  0  0  0  0  0
  191.8350  176.9300  146.5330 N   0  0  0  0  0  2  0  0  0  0  0  0
  192.3360  175.7130  146.8500 O   0  0  0  0  0  1  0  0  0  0  0  0
  186.2750  177.9480  146.4790 O   0  0  0  0  0  0  0  0  0  0  0  0
  185.6880  179.1520  146.0000 C   0  0  0  0  0  2  0  0  0  0  0  0
  184.2630  178.9560  145.7930 N   0  0  0  0  0  2  0  0  0  0  0  0
  183.9860  179.2810  144.4060 C   0  0  1  0  0  3  0  0  0  0  0  0
  185.0350  178.6570  143.5400 C   0  0  0  0  0  3  0  0  0  0  0  0
  184.7450  178.2240  142.3160 C   0  0  0  0  0  2  0  0  0  0  0  0
  182.6020  178.7650  144.0360 C   0  0  0  0  0  2  0  0  0  0  0  0
  181.8770  179.7610  143.3800 O   0  0  0  0  0  1  0  0  0  0  0  0
  190.2920  176.8150  143.9910 C   0  0  1  0  0  3  0  0  0  0  0  0
  189.6410  175.6680  143.2700 C   0  0  0  0  0  0  0  0  0  0  0  0
  188.2680  175.6370  143.0630 O   0  0  0  0  0  1  0  0  0  0  0  0
  190.3490  174.7060  142.8720 O   0  0  0  0  0  0  0  0  0  0  0  0
  190.6690  178.0460  143.1520 C   0  0  2  0  0  3  0  0  0  0  0  0
  190.7230  179.3410  143.9490 C   0  0  0  0  0  1  0  0  0  0  0  0
  190.1850  177.7560  140.8390 O   0  0  0  0  0  0  0  0  0  0  0  0
  188.5330  178.7710  142.0590 O   0  0  0  0  0  1  0  0  0  0  0  0
  189.7900  178.1880  141.9520 C   0  0  0  0  0  0  0  0  0  0  0  0
  1  3  2  0  0  0  0
  1  7  1  0  0  0  0
  2  6  2  0  0  0  0
  3  2  1  0  0  0  0
  4  6  1  0  0  0  0
  6  5  1  0  0  0  0
  7  8  1  0  0  0  0
  7  4  2  0  0  0  0
  8  9  1  0  0  0  0
 10  2  1  0  0  0  0
 11 10  1  0  0  0  0
 12 11  1  0  0  0  0
 13 14  1  6  0  0  0
 13 12  1  0  0  0  0
 15 14  2  0  0  0  0
 16 13  1  0  0  0  0
 17 16  1  0  0  0  0
 18 19  1  6  0  0  0
 18  1  1  0  0  0  0
 20 19  1  0  0  0  0
 21 19  2  0  0  0  0
 22 23  1  1  0  0  0
 22 18  1  0  0  0  0
 24 26  2  0  0  0  0
 26 25  1  0  0  0  0
 26 22  1  0  0  0  0
M  END
>  <MODEL>
3

>  <REMARK>
 VINA RESULT:      -7.5      1.577      2.063
  Name = 
  11 active torsions:
  status: ('A' for Active; 'I' for Inactive)
    1  A    between atoms: C_1  and  C_21
    2  A    between atoms: C_3  and  O_14
    3  A    between atoms: C_6  and  C_17
    4  A    between atoms: C_6  and  C_21
    5  A    between atoms: C_7  and  CA_24
    6  A    between atoms: C_9  and  C_21
    7  A    between atoms: C_10  and  CA_24
    8  A    between atoms: N_11  and  C_20
    9  A    between atoms: N_11  and  CA_24
   10  A    between atoms: O_14  and  C_20
   11  A    between atoms: N_18  and  C_23
                            x       y       z     vdW  Elec       q    Type
                         _______ _______ _______ _____ _____    ______ ____

>  <TORSDO>
F 11

$$$$
=
 OpenBabel10232410003D

 26 26  0  0  1  0  0  0  0  0999 V2000
  188.0230  177.5880  143.3980 C   0  0  0  0  0  0  0  0  0  0  0  0
  186.9020  178.4390  141.4030 C   0  0  0  0  0  0  0  0  0  0  0  0
  188.0460  177.9640  142.0530 C   0  0  0  0  0  3  0  0  0  0  0  0
  185.6610  178.1380  143.4730 C   0  0  0  0  0  3  0  0  0  0  0  0
  184.3970  178.9350  141.5140 C   0  0  0  0  0  1  0  0  0  0  0  0
  185.6870  178.5150  142.1280 C   0  0  0  0  0  0  0  0  0  0  0  0
  186.8140  177.6800  144.1190 C   0  0  0  0  0  0  0  0  0  0  0  0
  186.7510  177.3090  145.4980 N   0  0  0  0  0  2  0  0  0  0  0  0
  186.7280  178.2380  146.4810 O   0  0  0  0  0  1  0  0  0  0  0  0
  187.0420  178.7980  140.0530 O   0  0  0  0  0  0  0  0  0  0  0  0
  187.6600  177.9970  139.0530 C   0  0  0  0  0  2  0  0  0  0  0  0
  188.6470  178.7840  138.3340 N   0  0  0  0  0  2  0  0  0  0  0  0
  189.6470  177.8570  137.8340 C   0  0  1  0  0  3  0  0  0  0  0  0
  190.0310  176.9150  138.9320 C   0  0  0  0  0  3  0  0  0  0  0  0
  191.2040  176.2890  138.9180 C   0  0  0  0  0  2  0  0  0  0  0  0
  189.0760  177.0980  136.6440 C   0  0  0  0  0  2  0  0  0  0  0  0
  188.8040  177.9800  135.5970 O   0  0  0  0  0  1  0  0  0  0  0  0
  189.3080  177.0810  143.9930 C   0  0  1  0  0  3  0  0  0  0  0  0
  190.2320  176.4110  143.0140 C   0  0  0  0  0  0  0  0  0  0  0  0
  191.1870  177.1400  142.3160 O   0  0  0  0  0  0  0  0  0  0  0  0
  190.1210  175.1750  142.8060 O   0  0  0  0  0  1  0  0  0  0  0  0
  189.9440  178.0290  145.0220 C   0  0  2  0  0  3  0  0  0  0  0  0
  190.9040  179.0410  144.4150 C   0  0  0  0  0  1  0  0  0  0  0  0
  189.8880  176.8890  147.1120 O   0  0  0  0  0  1  0  0  0  0  0  0
  191.9460  176.9850  146.1110 O   0  0  0  0  0  0  0  0  0  0  0  0
  190.5870  177.2780  146.1420 C   0  0  0  0  0  0  0  0  0  0  0  0
  1 18  1  0  0  0  0
  1  7  1  0  0  0  0
  2  3  1  0  0  0  0
  2  6  2  0  0  0  0
  3  1  2  0  0  0  0
  4  7  2  0  0  0  0
  5  6  1  0  0  0  0
  6  4  1  0  0  0  0
  7  8  1  0  0  0  0
  8  9  1  0  0  0  0
 10  2  1  0  0  0  0
 11 10  1  0  0  0  0
 12 11  1  0  0  0  0
 13 16  1  6  0  0  0
 13 12  1  0  0  0  0
 13 14  1  0  0  0  0
 15 14  2  0  0  0  0
 17 16  1  0  0  0  0
 18 19  1  6  0  0  0
 18 22  1  0  0  0  0
 20 19  2  0  0  0  0
 21 19  1  0  0  0  0
 22 23  1  6  0  0  0
 22 26  1  0  0  0  0
 25 26  2  0  0  0  0
 26 24  1  0  0  0  0
M  END
>  <MODEL>
4

>  <REMARK>
 VINA RESULT:      -7.1      2.890      5.230
  Name = 
  11 active torsions:
  status: ('A' for Active; 'I' for Inactive)
    1  A    between atoms: C_1  and  C_21
    2  A    between atoms: C_3  and  O_14
    3  A    between atoms: C_6  and  C_17
    4  A    between atoms: C_6  and  C_21
    5  A    between atoms: C_7  and  CA_24
    6  A    between atoms: C_9  and  C_21
    7  A    between atoms: C_10  and  CA_24
    8  A    between atoms: N_11  and  C_20
    9  A    between atoms: N_11  and  CA_24
   10  A    between atoms: O_14  and  C_20
   11  A    between atoms: N_18  and  C_23
                            x       y       z     vdW  Elec       q    Type
                         _______ _______ _______ _____ _____    ______ ____

>  <TORSDO>
F 11

$$$$
=
 OpenBabel10232410003D

 26 26  0  0  1  0  0  0  0  0999 V2000
  184.0060  178.6020  142.5060 C   0  0  0  0  0  0  0  0  0  0  0  0
  185.6890  177.8660  144.1140 C   0  0  0  0  0  0  0  0  0  0  0  0
  185.2320  177.9990  142.7990 C   0  0  0  0  0  3  0  0  0  0  0  0
  183.6700  178.9870  144.8770 C   0  0  0  0  0  3  0  0  0  0  0  0
  185.3220  178.3600  146.5950 C   0  0  0  0  0  1  0  0  0  0  0  0
  184.8950  178.3810  145.1680 C   0  0  0  0  0  0  0  0  0  0  0  0
  183.2130  179.1000  143.5600 C   0  0  0  0  0  0  0  0  0  0  0  0
  181.9520  179.7210  143.3020 N   0  0  0  0  0  2  0  0  0  0  0  0
  180.7850  179.1240  143.6420 O   0  0  0  0  0  1  0  0  0  0  0  0
  186.9300  177.2340  144.2940 O   0  0  0  0  0  0  0  0  0  0  0  0
  188.1600  177.9030  144.5430 C   0  0  0  0  0  2  0  0  0  0  0  0
  189.1580  176.9460  144.9900 N   0  0  0  0  0  2  0  0  0  0  0  0
  189.8010  177.5190  146.1590 C   0  0  1  0  0  3  0  0  0  0  0  0
  189.0060  177.1650  147.3760 C   0  0  0  0  0  3  0  0  0  0  0  0
  188.6920  178.0880  148.2810 C   0  0  0  0  0  2  0  0  0  0  0  0
  191.2220  176.9800  146.2640 C   0  0  0  0  0  2  0  0  0  0  0  0
  191.3030  176.0350  147.2870 O   0  0  0  0  0  1  0  0  0  0  0  0
  183.6180  178.7020  141.0560 C   0  0  1  0  0  3  0  0  0  0  0  0
  184.6850  179.2600  140.1570 C   0  0  0  0  0  0  0  0  0  0  0  0
  184.3810  180.2020  139.1810 O   0  0  0  0  0  0  0  0  0  0  0  0
  185.8690  178.8480  140.2720 O   0  0  0  0  0  1  0  0  0  0  0  0
  182.8190  177.4980  140.5330 C   0  0  2  0  0  3  0  0  0  0  0  0
  183.4210  176.8520  139.2940 C   0  0  0  0  0  1  0  0  0  0  0  0
  181.0700  178.7340  139.4930 O   0  0  0  0  0  0  0  0  0  0  0  0
  180.3820  177.1580  141.0060 O   0  0  0  0  0  1  0  0  0  0  0  0
  181.3800  177.8380  140.3190 C   0  0  0  0  0  0  0  0  0  0  0  0
  1  3  2  0  0  0  0
  1  7  1  0  0  0  0
  2 10  1  0  0  0  0
  2  6  2  0  0  0  0
  3  2  1  0  0  0  0
  4  6  1  0  0  0  0
  6  5  1  0  0  0  0
  7  4  2  0  0  0  0
  8  7  1  0  0  0  0
  8  9  1  0  0  0  0
 10 11  1  0  0  0  0
 11 12  1  0  0  0  0
 12 13  1  0  0  0  0
 13 16  1  1  0  0  0
 13 14  1  0  0  0  0
 14 15  2  0  0  0  0
 16 17  1  0  0  0  0
 18 19  1  6  0  0  0
 18  1  1  0  0  0  0
 19 21  1  0  0  0  0
 20 19  2  0  0  0  0
 22 23  1  6  0  0  0
 22 18  1  0  0  0  0
 24 26  2  0  0  0  0
 26 22  1  0  0  0  0
 26 25  1  0  0  0  0
M  END
>  <MODEL>
5

>  <REMARK>
 VINA RESULT:      -7.1      2.587      7.895
  Name = 
  11 active torsions:
  status: ('A' for Active; 'I' for Inactive)
    1  A    between atoms: C_1  and  C_21
    2  A    between atoms: C_3  and  O_14
    3  A    between atoms: C_6  and  C_17
    4  A    between atoms: C_6  and  C_21
    5  A    between atoms: C_7  and  CA_24
    6  A    between atoms: C_9  and  C_21
    7  A    between atoms: C_10  and  CA_24
    8  A    between atoms: N_11  and  C_20
    9  A    between atoms: N_11  and  CA_24
   10  A    between atoms: O_14  and  C_20
   11  A    between atoms: N_18  and  C_23
                            x       y       z     vdW  Elec       q    Type
                         _______ _______ _______ _____ _____    ______ ____

>  <TORSDO>
F 11

$$$$
=
 OpenBabel10232410003D

 26 26  0  0  1  0  0  0  0  0999 V2000
  188.8090  177.6390  145.7870 C   0  0  0  0  0  0  0  0  0  0  0  0
  186.6650  177.6850  144.6200 C   0  0  0  0  0  0  0  0  0  0  0  0
  188.0370  177.4090  144.6460 C   0  0  0  0  0  3  0  0  0  0  0  0
  186.8180  178.4140  146.9350 C   0  0  0  0  0  3  0  0  0  0  0  0
  184.5840  178.4430  145.8960 C   0  0  0  0  0  1  0  0  0  0  0  0
  186.0470  178.1870  145.7920 C   0  0  0  0  0  0  0  0  0  0  0  0
  188.1920  178.1520  146.9470 C   0  0  0  0  0  0  0  0  0  0  0  0
  188.9490  178.4030  148.1320 N   0  0  0  0  0  2  0  0  0  0  0  0
  188.4800  178.0650  149.3570 O   0  0  0  0  0  1  0  0  0  0  0  0
  185.9880  177.4270  143.4170 O   0  0  0  0  0  0  0  0  0  0  0  0
  185.6360  178.4080  142.4500 C   0  0  0  0  0  2  0  0  0  0  0  0
  184.1920  178.4400  142.2850 N   0  0  0  0  0  2  0  0  0  0  0  0
  183.9210  178.2110  140.8770 C   0  0  1  0  0  3  0  0  0  0  0  0
  182.5800  178.7840  140.5390 C   0  0  0  0  0  3  0  0  0  0  0  0
  181.5920  178.7850  141.4300 C   0  0  0  0  0  2  0  0  0  0  0  0
  185.0150  178.8650  140.0440 C   0  0  0  0  0  2  0  0  0  0  0  0
  184.4850  179.9140  139.2920 O   0  0  0  0  0  1  0  0  0  0  0  0
  190.2720  177.2960  145.7080 C   0  0  1  0  0  3  0  0  0  0  0  0
  190.8050  176.5380  146.8920 C   0  0  0  0  0  0  0  0  0  0  0  0
  191.9770  176.9300  147.5260 O   0  0  0  0  0  1  0  0  0  0  0  0
  190.1930  175.5150  147.2980 O   0  0  0  0  0  0  0  0  0  0  0  0
  190.7380  176.8410  144.3160 C   0  0  2  0  0  3  0  0  0  0  0  0
  191.6680  175.6370  144.3420 C   0  0  0  0  0  1  0  0  0  0  0  0
  191.3650  177.9050  142.2810 O   0  0  0  0  0  0  0  0  0  0  0  0
  191.8310  179.0920  144.1830 O   0  0  0  0  0  1  0  0  0  0  0  0
  191.3340  177.9670  143.5360 C   0  0  0  0  0  0  0  0  0  0  0  0
  1  7  1  0  0  0  0
  2  3  1  0  0  0  0
  2  6  2  0  0  0  0
  3  1  2  0  0  0  0
  4  7  2  0  0  0  0
  6  5  1  0  0  0  0
  6  4  1  0  0  0  0
  7  8  1  0  0  0  0
  8  9  1  0  0  0  0
 10  2  1  0  0  0  0
 11 10  1  0  0  0  0
 12 11  1  0  0  0  0
 13 16  1  6  0  0  0
 13 12  1  0  0  0  0
 14 13  1  0  0  0  0
 14 15  2  0  0  0  0
 17 16  1  0  0  0  0
 18  1  1  0  0  0  0
 18 19  1  1  0  0  0
 19 21  2  0  0  0  0
 19 20  1  0  0  0  0
 22 23  1  1  0  0  0
 22 18  1  0  0  0  0
 24 26  2  0  0  0  0
 26 25  1  0  0  0  0
 26 22  1  0  0  0  0
M  END
>  <MODEL>
6

>  <REMARK>
 VINA RESULT:      -7.0      1.810      2.740
  Name = 
  11 active torsions:
  status: ('A' for Active; 'I' for Inactive)
    1  A    between atoms: C_1  and  C_21
    2  A    between atoms: C_3  and  O_14
    3  A    between atoms: C_6  and  C_17
    4  A    between atoms: C_6  and  C_21
    5  A    between atoms: C_7  and  CA_24
    6  A    between atoms: C_9  and  C_21
    7  A    between atoms: C_10  and  CA_24
    8  A    between atoms: N_11  and  C_20
    9  A    between atoms: N_11  and  CA_24
   10  A    between atoms: O_14  and  C_20
   11  A    between atoms: N_18  and  C_23
                            x       y       z     vdW  Elec       q    Type
                         _______ _______ _______ _____ _____    ______ ____

>  <TORSDO>
F 11

$$$$
=
 OpenBabel10232410003D

 26 26  0  0  1  0  0  0  0  0999 V2000
  187.9450  177.5330  143.4660 C   0  0  0  0  0  0  0  0  0  0  0  0
  186.6560  178.4190  141.5920 C   0  0  0  0  0  0  0  0  0  0  0  0
  187.8530  177.9370  142.1320 C   0  0  0  0  0  3  0  0  0  0  0  0
  185.5960  178.0660  143.7510 C   0  0  0  0  0  3  0  0  0  0  0  0
  184.1670  178.8970  141.9240 C   0  0  0  0  0  1  0  0  0  0  0  0
  185.5070  178.4720  142.4180 C   0  0  0  0  0  0  0  0  0  0  0  0
  186.8020  177.6020  144.2880 C   0  0  0  0  0  0  0  0  0  0  0  0
  186.8560  177.2020  145.6590 N   0  0  0  0  0  2  0  0  0  0  0  0
  187.0340  178.1020  146.6540 O   0  0  0  0  0  1  0  0  0  0  0  0
  186.6800  178.8070  140.2420 O   0  0  0  0  0  0  0  0  0  0  0  0
  187.2020  178.0250  139.1750 C   0  0  0  0  0  2  0  0  0  0  0  0
  188.5300  178.5000  138.8230 N   0  0  0  0  0  2  0  0  0  0  0  0
  189.0970  177.5290  137.9040 C   0  0  1  0  0  3  0  0  0  0  0  0
  189.1670  178.1320  136.5370 C   0  0  0  0  0  3  0  0  0  0  0  0
  189.3480  177.3710  135.4600 C   0  0  0  0  0  2  0  0  0  0  0  0
  190.4840  177.1290  138.3910 C   0  0  0  0  0  2  0  0  0  0  0  0
  190.5000  175.7790  138.7410 O   0  0  0  0  0  1  0  0  0  0  0  0
  189.2780  177.0210  143.9390 C   0  0  1  0  0  3  0  0  0  0  0  0
  190.0760  176.2880  142.8970 C   0  0  0  0  0  0  0  0  0  0  0  0
  190.6660  176.9670  141.8380 O   0  0  0  0  0  0  0  0  0  0  0  0
  190.1890  175.0370  142.9710 O   0  0  0  0  0  1  0  0  0  0  0  0
  190.0410  177.9960  144.8490 C   0  0  2  0  0  3  0  0  0  0  0  0
  190.9850  178.9250  144.1000 C   0  0  0  0  0  1  0  0  0  0  0  0
  191.9800  177.0410  145.8490 O   0  0  0  0  0  0  0  0  0  0  0  0
  190.0700  176.9090  147.1060 O   0  0  0  0  0  1  0  0  0  0  0  0
  190.7500  177.2840  145.9540 C   0  0  0  0  0  0  0  0  0  0  0  0
  1 18  1  0  0  0  0
  1  7  1  0  0  0  0
  2  3  1  0  0  0  0
  2  6  2  0  0  0  0
  3  1  2  0  0  0  0
  4  7  2  0  0  0  0
  5  6  1  0  0  0  0
  6  4  1  0  0  0  0
  7  8  1  0  0  0  0
  8  9  1  0  0  0  0
 10  2  1  0  0  0  0
 11 10  1  0  0  0  0
 12 11  1  0  0  0  0
 13 14  1  6  0  0  0
 13 16  1  0  0  0  0
 13 12  1  0  0  0  0
 15 14  2  0  0  0  0
 16 17  1  0  0  0  0
 18 19  1  6  0  0  0
 18 22  1  0  0  0  0
 19 21  1  0  0  0  0
 20 19  2  0  0  0  0
 22 23  1  6  0  0  0
 22 26  1  0  0  0  0
 24 26  2  0  0  0  0
 26 25  1  0  0  0  0
M  END
>  <MODEL>
7

>  <REMARK>
 VINA RESULT:      -6.9      2.897      5.283
  Name = 
  11 active torsions:
  status: ('A' for Active; 'I' for Inactive)
    1  A    between atoms: C_1  and  C_21
    2  A    between atoms: C_3  and  O_14
    3  A    between atoms: C_6  and  C_17
    4  A    between atoms: C_6  and  C_21
    5  A    between atoms: C_7  and  CA_24
    6  A    between atoms: C_9  and  C_21
    7  A    between atoms: C_10  and  CA_24
    8  A    between atoms: N_11  and  C_20
    9  A    between atoms: N_11  and  CA_24
   10  A    between atoms: O_14  and  C_20
   11  A    between atoms: N_18  and  C_23
                            x       y       z     vdW  Elec       q    Type
                         _______ _______ _______ _____ _____    ______ ____

>  <TORSDO>
F 11

$$$$
=
 OpenBabel10232410003D

 26 26  0  0  1  0  0  0  0  0999 V2000
  184.0290  178.6220  142.2450 C   0  0  0  0  0  0  0  0  0  0  0  0
  185.9290  178.1530  143.7060 C   0  0  0  0  0  0  0  0  0  0  0  0
  185.3570  178.2290  142.4310 C   0  0  0  0  0  3  0  0  0  0  0  0
  183.8160  178.9050  144.6450 C   0  0  0  0  0  3  0  0  0  0  0  0
  185.6740  178.5360  146.2200 C   0  0  0  0  0  1  0  0  0  0  0  0
  185.1430  178.5090  144.8290 C   0  0  0  0  0  0  0  0  0  0  0  0
  183.2470  178.9610  143.3680 C   0  0  0  0  0  0  0  0  0  0  0  0
  181.8840  179.3640  143.2200 N   0  0  0  0  0  2  0  0  0  0  0  0
  180.8630  178.5840  143.6460 O   0  0  0  0  0  1  0  0  0  0  0  0
  187.2680  177.7360  143.7770 O   0  0  0  0  0  0  0  0  0  0  0  0
  187.7020  176.3820  143.8140 C   0  0  0  0  0  2  0  0  0  0  0  0
  188.9690  176.2530  143.1140 N   0  0  0  0  0  2  0  0  0  0  0  0
  189.4110  177.5970  142.7860 C   0  0  1  0  0  3  0  0  0  0  0  0
  190.6510  177.9070  143.5640 C   0  0  0  0  0  3  0  0  0  0  0  0
  190.9670  179.1600  143.8780 C   0  0  0  0  0  2  0  0  0  0  0  0
  189.6750  177.6850  141.2890 C   0  0  0  0  0  2  0  0  0  0  0  0
  190.4510  176.6030  140.8720 O   0  0  0  0  0  1  0  0  0  0  0  0
  183.5200  178.6790  140.8310 C   0  0  1  0  0  3  0  0  0  0  0  0
  184.4680  179.3080  139.8470 C   0  0  0  0  0  0  0  0  0  0  0  0
  185.7810  178.8690  139.7350 O   0  0  0  0  0  1  0  0  0  0  0  0
  184.0710  180.2650  139.1330 O   0  0  0  0  0  0  0  0  0  0  0  0
  182.7770  177.4140  140.3770 C   0  0  2  0  0  3  0  0  0  0  0  0
  183.3450  176.7860  139.1130 C   0  0  0  0  0  1  0  0  0  0  0  0
  180.5090  176.6870  140.3720 O   0  0  0  0  0  1  0  0  0  0  0  0
  180.8140  178.9300  140.0160 O   0  0  0  0  0  0  0  0  0  0  0  0
  181.3070  177.6510  140.2470 C   0  0  0  0  0  0  0  0  0  0  0  0
  1  3  2  0  0  0  0
  1  7  1  0  0  0  0
  2 10  1  0  0  0  0
  2  6  2  0  0  0  0
  3  2  1  0  0  0  0
  4  6  1  0  0  0  0
  6  5  1  0  0  0  0
  7  4  2  0  0  0  0
  8  7  1  0  0  0  0
  8  9  1  0  0  0  0
 10 11  1  0  0  0  0
 12 11  1  0  0  0  0
 13 16  1  6  0  0  0
 13 12  1  0  0  0  0
 13 14  1  0  0  0  0
 14 15  2  0  0  0  0
 17 16  1  0  0  0  0
 18 19  1  6  0  0  0
 18  1  1  0  0  0  0
 20 19  1  0  0  0  0
 21 19  2  0  0  0  0
 22 23  1  6  0  0  0
 22 18  1  0  0  0  0
 25 26  2  0  0  0  0
 26 24  1  0  0  0  0
 26 22  1  0  0  0  0
M  END
>  <MODEL>
8

>  <REMARK>
 VINA RESULT:      -6.9      2.675      7.719
  Name = 
  11 active torsions:
  status: ('A' for Active; 'I' for Inactive)
    1  A    between atoms: C_1  and  C_21
    2  A    between atoms: C_3  and  O_14
    3  A    between atoms: C_6  and  C_17
    4  A    between atoms: C_6  and  C_21
    5  A    between atoms: C_7  and  CA_24
    6  A    between atoms: C_9  and  C_21
    7  A    between atoms: C_10  and  CA_24
    8  A    between atoms: N_11  and  C_20
    9  A    between atoms: N_11  and  CA_24
   10  A    between atoms: O_14  and  C_20
   11  A    between atoms: N_18  and  C_23
                            x       y       z     vdW  Elec       q    Type
                         _______ _______ _______ _____ _____    ______ ____

>  <TORSDO>
F 11

$$$$
=
 OpenBabel10232410003D

 26 26  0  0  1  0  0  0  0  0999 V2000
  183.4080  178.5050  141.8690 C   0  0  0  0  0  0  0  0  0  0  0  0
  185.4030  178.3380  143.2660 C   0  0  0  0  0  0  0  0  0  0  0  0
  184.7780  178.2720  142.0160 C   0  0  0  0  0  3  0  0  0  0  0  0
  183.2570  178.9110  144.2550 C   0  0  0  0  0  3  0  0  0  0  0  0
  185.2050  178.8450  145.7630 C   0  0  0  0  0  1  0  0  0  0  0  0
  184.6260  178.6740  144.4010 C   0  0  0  0  0  0  0  0  0  0  0  0
  182.6360  178.8250  143.0040 C   0  0  0  0  0  0  0  0  0  0  0  0
  181.2320  179.0670  142.8950 N   0  0  0  0  0  2  0  0  0  0  0  0
  180.7340  180.3240  142.8180 O   0  0  0  0  0  1  0  0  0  0  0  0
  186.7820  178.0750  143.3000 O   0  0  0  0  0  0  0  0  0  0  0  0
  187.5610  177.6470  142.1890 C   0  0  0  0  0  2  0  0  0  0  0  0
  188.2170  178.7910  141.5790 N   0  0  0  0  0  2  0  0  0  0  0  0
  188.7610  178.3410  140.3100 C   0  0  1  0  0  3  0  0  0  0  0  0
  189.5650  177.1000  140.5370 C   0  0  0  0  0  3  0  0  0  0  0  0
  190.4810  176.7060  139.6550 C   0  0  0  0  0  2  0  0  0  0  0  0
  187.6170  178.0770  139.3410 C   0  0  0  0  0  2  0  0  0  0  0  0
  187.8300  178.7660  138.1460 O   0  0  0  0  0  1  0  0  0  0  0  0
  182.8420  178.4190  140.4780 C   0  0  1  0  0  3  0  0  0  0  0  0
  183.2310  179.5520  139.5690 C   0  0  0  0  0  0  0  0  0  0  0  0
  184.5540  179.9640  139.4630 O   0  0  0  0  0  1  0  0  0  0  0  0
  182.3410  180.1530  138.9140 O   0  0  0  0  0  0  0  0  0  0  0  0
  182.8540  177.0040  139.8780 C   0  0  2  0  0  3  0  0  0  0  0  0
  183.6000  176.9020  138.5560 C   0  0  0  0  0  1  0  0  0  0  0  0
  181.3160  175.2800  139.3010 O   0  0  0  0  0  0  0  0  0  0  0  0
  180.3730  177.1680  140.1920 O   0  0  0  0  0  1  0  0  0  0  0  0
  181.4760  176.4380  139.7660 C   0  0  0  0  0  0  0  0  0  0  0  0
  1  3  2  0  0  0  0
  1  7  1  0  0  0  0
  2 10  1  0  0  0  0
  2  6  2  0  0  0  0
  3  2  1  0  0  0  0
  4  6  1  0  0  0  0
  6  5  1  0  0  0  0
  7  4  2  0  0  0  0
  8  7  1  0  0  0  0
  9  8  1  0  0  0  0
 11 10  1  0  0  0  0
 12 11  1  0  0  0  0
 13 16  1  6  0  0  0
 13 14  1  0  0  0  0
 13 12  1  0  0  0  0
 15 14  2  0  0  0  0
 17 16  1  0  0  0  0
 18 19  1  6  0  0  0
 18  1  1  0  0  0  0
 20 19  1  0  0  0  0
 21 19  2  0  0  0  0
 22 23  1  6  0  0  0
 22 18  1  0  0  0  0
 24 26  2  0  0  0  0
 26 22  1  0  0  0  0
 26 25  1  0  0  0  0
M  END
>  <MODEL>
9

>  <REMARK>
 VINA RESULT:      -6.6      3.977      8.100
  Name = 
  11 active torsions:
  status: ('A' for Active; 'I' for Inactive)
    1  A    between atoms: C_1  and  C_21
    2  A    between atoms: C_3  and  O_14
    3  A    between atoms: C_6  and  C_17
    4  A    between atoms: C_6  and  C_21
    5  A    between atoms: C_7  and  CA_24
    6  A    between atoms: C_9  and  C_21
    7  A    between atoms: C_10  and  CA_24
    8  A    between atoms: N_11  and  C_20
    9  A    between atoms: N_11  and  CA_24
   10  A    between atoms: O_14  and  C_20
   11  A    between atoms: N_18  and  C_23
                            x       y       z     vdW  Elec       q    Type
                         _______ _______ _______ _____ _____    ______ ____

>  <TORSDO>
F 11

$$$$
