=
 OpenBabel10232411433D

 27 30  0  0  1  0  0  0  0  0999 V2000
  189.2720  177.1970  140.1650 C   0  0  2  0  0  3  0  0  0  0  0  0
  187.8280  177.9640  147.1880 C   0  0  0  0  0  3  0  0  0  0  0  0
  187.5060  177.9210  143.5730 O   0  0  0  0  0  0  0  0  0  0  0  0
  188.2700  177.6610  142.4310 C   0  0  0  0  0  0  0  0  0  0  0  0
  189.4760  177.1410  142.5310 C   0  0  0  0  0  0  0  0  0  0  0  0
  187.1990  177.9480  146.0020 C   0  0  0  0  0  0  0  0  0  0  0  0
  189.9080  176.9840  146.3180 C   0  0  0  0  0  0  0  0  0  0  0  0
  187.7480  178.0310  140.7690 S   0  0  0  0  0  0  0  0  0  0  0  0
  189.1890  177.4180  147.3570 C   0  0  0  0  0  3  0  0  0  0  0  0
  190.0890  176.9230  143.8540 C   0  0  0  0  0  3  0  0  0  0  0  0
  187.8330  177.2700  144.8090 C   0  0  2  0  0  3  0  0  0  0  0  0
  189.3330  177.0650  144.9570 C   0  0  0  0  0  0  0  0  0  0  0  0
  190.1470  176.9340  141.3010 N   0  0  0  0  0  2  0  0  0  0  0  0
  184.8650  178.0980  147.0130 C   0  0  0  0  0  2  0  0  0  0  0  0
  185.8090  178.5120  145.8960 C   0  0  0  0  0  0  0  0  0  0  0  0
  185.4350  179.5090  146.9790 C   0  0  0  0  0  2  0  0  0  0  0  0
  185.2130  178.7530  144.4970 C   0  0  2  0  0  3  0  0  0  0  0  0
  185.2640  180.2300  144.1380 C   0  0  0  0  0  1  0  0  0  0  0  0
  182.9620  179.2450  143.6970 N   0  0  0  0  0  1  0  0  0  0  0  0
  183.7930  178.2250  144.3150 C   0  0  0  0  0  2  0  0  0  0  0  0
  192.3250  176.1220  146.7250 N   0  0  0  0  0  0  0  0  0  0  0  0
  191.2470  176.5060  146.5450 C   0  0  0  0  0  0  0  0  0  0  0  0
  189.9780  178.0280  139.1000 C   0  0  0  0  0  2  0  0  0  0  0  0
  187.7770  179.6810  136.6720 O   0  0  0  0  0  0  0  0  0  0  0  0
  188.5180  178.7940  137.1780 C   0  0  0  0  0  0  0  0  0  0  0  0
  189.0660  178.9890  138.4860 N   0  0  0  0  0  2  0  0  0  0  0  0
  188.8210  177.5570  136.3970 C   0  0  0  0  0  1  0  0  0  0  0  0
  1 23  1  6  0  0  0
  1  8  1  0  0  0  0
  1 13  1  0  0  0  0
  2  9  1  0  0  0  0
  4  5  2  0  0  0  0
  4  3  1  0  0  0  0
  5 10  1  0  0  0  0
  6  2  2  0  0  0  0
  7 22  1  0  0  0  0
  7  9  2  0  0  0  0
  8  4  1  0  0  0  0
 10 12  2  0  0  0  0
 11  3  1  6  0  0  0
 11 12  1  0  0  0  0
 11  6  1  0  0  0  0
 12  7  1  0  0  0  0
 13  5  1  0  0  0  0
 15  6  1  0  0  0  0
 15 16  1  0  0  0  0
 15 14  1  0  0  0  0
 16 14  1  0  0  0  0
 17 18  1  1  0  0  0
 17 15  1  0  0  0  0
 19 20  1  0  0  0  0
 20 17  1  0  0  0  0
 22 21  3  0  0  0  0
 24 25  2  0  0  0  0
 25 26  1  0  0  0  0
 26 23  1  0  0  0  0
 27 25  1  0  0  0  0
M  END
>  <MODEL>
1

>  <REMARK>
 VINA RESULT:      -8.1      0.000      0.000
  Name = 
  6 active torsions:
  status: ('A' for Active; 'I' for Inactive)
    1  A    between atoms: C_1  and  C_22
    2  A    between atoms: C_5  and  C_9
    3  A    between atoms: C_5  and  C_20
    4  A    between atoms: C_9  and  C_15
    5  A    between atoms: N_10  and  C_22
    6  A    between atoms: C_14  and  C_16
                            x       y       z     vdW  Elec       q    Type
                         _______ _______ _______ _____ _____    ______ ____

>  <TORSDO>
F 6

$$$$
=
 OpenBabel10232411433D

 27 30  0  0  1  0  0  0  0  0999 V2000
  190.5680  176.8850  140.1560 C   0  0  2  0  0  3  0  0  0  0  0  0
  186.1050  178.2640  145.6490 C   0  0  0  0  0  3  0  0  0  0  0  0
  187.4500  177.8460  142.3040 O   0  0  0  0  0  0  0  0  0  0  0  0
  188.6490  177.5160  141.6640 C   0  0  0  0  0  0  0  0  0  0  0  0
  189.6820  177.0760  142.3520 C   0  0  0  0  0  0  0  0  0  0  0  0
  186.0800  178.0960  144.3180 C   0  0  0  0  0  0  0  0  0  0  0  0
  188.3580  177.3190  145.9210 C   0  0  0  0  0  0  0  0  0  0  0  0
  188.9310  177.6890  139.9140 S   0  0  0  0  0  0  0  0  0  0  0  0
  187.2460  177.8150  146.4710 C   0  0  0  0  0  3  0  0  0  0  0  0
  189.6330  177.0250  143.8240 C   0  0  0  0  0  3  0  0  0  0  0  0
  187.1870  177.3400  143.6210 C   0  0  2  0  0  3  0  0  0  0  0  0
  188.4600  177.2340  144.4480 C   0  0  0  0  0  0  0  0  0  0  0  0
  190.8370  176.7850  141.5860 N   0  0  0  0  0  2  0  0  0  0  0  0
  183.6070  178.7100  144.3480 C   0  0  0  0  0  2  0  0  0  0  0  0
  184.8850  178.5690  143.5370 C   0  0  0  0  0  0  0  0  0  0  0  0
  184.3760  179.9490  143.9130 C   0  0  0  0  0  2  0  0  0  0  0  0
  184.7610  178.1650  142.0560 C   0  0  2  0  0  3  0  0  0  0  0  0
  185.3110  179.2580  141.1540 C   0  0  0  0  0  1  0  0  0  0  0  0
  182.8570  178.7650  140.6540 N   0  0  0  0  0  1  0  0  0  0  0  0
  183.3470  177.7930  141.6180 C   0  0  0  0  0  2  0  0  0  0  0  0
  190.3340  176.6390  147.4660 N   0  0  0  0  0  0  0  0  0  0  0  0
  189.4530  176.9410  146.7760 C   0  0  0  0  0  0  0  0  0  0  0  0
  191.6750  177.6440  139.4330 C   0  0  0  0  0  2  0  0  0  0  0  0
  194.3680  175.4280  138.2940 O   0  0  0  0  0  0  0  0  0  0  0  0
  193.3130  176.1190  138.2510 C   0  0  0  0  0  0  0  0  0  0  0  0
  192.9140  176.8730  139.4000 N   0  0  0  0  0  2  0  0  0  0  0  0
  192.4930  176.1300  137.0030 C   0  0  0  0  0  1  0  0  0  0  0  0
  1 23  1  6  0  0  0
  1 13  1  0  0  0  0
  2  9  1  0  0  0  0
  4  3  1  0  0  0  0
  4  5  2  0  0  0  0
  5 10  1  0  0  0  0
  6  2  2  0  0  0  0
  7  9  2  0  0  0  0
  7 22  1  0  0  0  0
  8  1  1  0  0  0  0
  8  4  1  0  0  0  0
 10 12  2  0  0  0  0
 11  3  1  6  0  0  0
 11  6  1  0  0  0  0
 11 12  1  0  0  0  0
 12  7  1  0  0  0  0
 13  5  1  0  0  0  0
 15 16  1  0  0  0  0
 15  6  1  0  0  0  0
 15 14  1  0  0  0  0
 16 14  1  0  0  0  0
 17 18  1  6  0  0  0
 17 15  1  0  0  0  0
 19 20  1  0  0  0  0
 20 17  1  0  0  0  0
 22 21  3  0  0  0  0
 25 24  2  0  0  0  0
 25 26  1  0  0  0  0
 26 23  1  0  0  0  0
 27 25  1  0  0  0  0
M  END
>  <MODEL>
2

>  <REMARK>
 VINA RESULT:      -8.1      2.447      2.916
  Name = 
  6 active torsions:
  status: ('A' for Active; 'I' for Inactive)
    1  A    between atoms: C_1  and  C_22
    2  A    between atoms: C_5  and  C_9
    3  A    between atoms: C_5  and  C_20
    4  A    between atoms: C_9  and  C_15
    5  A    between atoms: N_10  and  C_22
    6  A    between atoms: C_14  and  C_16
                            x       y       z     vdW  Elec       q    Type
                         _______ _______ _______ _____ _____    ______ ____

>  <TORSDO>
F 6

$$$$
=
 OpenBabel10232411433D

 27 30  0  0  1  0  0  0  0  0999 V2000
  189.2510  178.1500  138.8550 C   0  0  2  0  0  3  0  0  0  0  0  0
  188.0480  177.2210  145.9040 C   0  0  0  0  0  3  0  0  0  0  0  0
  189.6900  177.4700  142.6770 O   0  0  0  0  0  0  0  0  0  0  0  0
  189.3820  177.6950  141.3310 C   0  0  0  0  0  0  0  0  0  0  0  0
  188.1730  178.0710  140.9700 C   0  0  0  0  0  0  0  0  0  0  0  0
  189.0670  177.3630  145.0420 C   0  0  0  0  0  0  0  0  0  0  0  0
  186.3410  178.0000  144.3150 C   0  0  0  0  0  0  0  0  0  0  0  0
  190.5290  177.4660  139.9890 S   0  0  0  0  0  0  0  0  0  0  0  0
  186.6660  177.6010  145.5480 C   0  0  0  0  0  3  0  0  0  0  0  0
  187.0880  178.1550  141.9650 C   0  0  0  0  0  3  0  0  0  0  0  0
  188.8470  178.0210  143.6990 C   0  0  2  0  0  3  0  0  0  0  0  0
  187.3880  178.0480  143.2710 C   0  0  0  0  0  0  0  0  0  0  0  0
  187.9900  178.2580  139.5780 N   0  0  0  0  0  2  0  0  0  0  0  0
  191.3220  176.3910  144.3590 C   0  0  0  0  0  2  0  0  0  0  0  0
  190.4540  176.9660  145.4670 C   0  0  0  0  0  0  0  0  0  0  0  0
  191.5740  177.8010  144.8730 C   0  0  0  0  0  2  0  0  0  0  0  0
  190.6660  176.4400  146.8990 C   0  0  2  0  0  3  0  0  0  0  0  0
  190.5790  177.5740  147.9060 C   0  0  0  0  0  1  0  0  0  0  0  0
  192.6930  176.2090  148.2380 N   0  0  0  0  0  1  0  0  0  0  0  0
  191.9660  175.6650  147.1010 C   0  0  0  0  0  2  0  0  0  0  0  0
  183.8610  178.5650  143.7840 N   0  0  0  0  0  0  0  0  0  0  0  0
  184.9670  178.3120  144.0210 C   0  0  0  0  0  0  0  0  0  0  0  0
  189.1030  177.2950  137.6010 C   0  0  0  0  0  2  0  0  0  0  0  0
  190.5050  173.9060  137.5040 O   0  0  0  0  0  0  0  0  0  0  0  0
  190.3810  175.1370  137.2580 C   0  0  0  0  0  0  0  0  0  0  0  0
  189.3360  175.8830  137.8900 N   0  0  0  0  0  2  0  0  0  0  0  0
  191.3220  175.7930  136.3020 C   0  0  0  0  0  1  0  0  0  0  0  0
  1 23  1  6  0  0  0
  1 13  1  0  0  0  0
  1  8  1  0  0  0  0
  4  3  1  0  0  0  0
  5  4  2  0  0  0  0
  5 10  1  0  0  0  0
  6 15  1  0  0  0  0
  6  2  2  0  0  0  0
  7  9  2  0  0  0  0
  8  4  1  0  0  0  0
  9  2  1  0  0  0  0
 10 12  2  0  0  0  0
 11  3  1  6  0  0  0
 11  6  1  0  0  0  0
 12 11  1  0  0  0  0
 12  7  1  0  0  0  0
 13  5  1  0  0  0  0
 14 16  1  0  0  0  0
 14 15  1  0  0  0  0
 15 17  1  0  0  0  0
 16 15  1  0  0  0  0
 17 20  1  0  0  0  0
 17 18  1  1  0  0  0
 20 19  1  0  0  0  0
 21 22  3  0  0  0  0
 22  7  1  0  0  0  0
 23 26  1  0  0  0  0
 25 24  2  0  0  0  0
 25 26  1  0  0  0  0
 27 25  1  0  0  0  0
M  END
>  <MODEL>
3

>  <REMARK>
 VINA RESULT:      -8.0      2.094      5.187
  Name = 
  6 active torsions:
  status: ('A' for Active; 'I' for Inactive)
    1  A    between atoms: C_1  and  C_22
    2  A    between atoms: C_5  and  C_9
    3  A    between atoms: C_5  and  C_20
    4  A    between atoms: C_9  and  C_15
    5  A    between atoms: N_10  and  C_22
    6  A    between atoms: C_14  and  C_16
                            x       y       z     vdW  Elec       q    Type
                         _______ _______ _______ _____ _____    ______ ____

>  <TORSDO>
F 6

$$$$
=
 OpenBabel10232411433D

 27 30  0  0  1  0  0  0  0  0999 V2000
  188.9850  178.3050  138.6810 C   0  0  2  0  0  3  0  0  0  0  0  0
  188.0510  177.2080  145.7460 C   0  0  0  0  0  3  0  0  0  0  0  0
  189.5700  177.5380  142.4660 O   0  0  0  0  0  0  0  0  0  0  0  0
  189.2110  177.7940  141.1390 C   0  0  0  0  0  0  0  0  0  0  0  0
  187.9880  178.1720  140.8330 C   0  0  0  0  0  0  0  0  0  0  0  0
  189.0370  177.3750  144.8500 C   0  0  0  0  0  0  0  0  0  0  0  0
  186.2830  178.0160  144.2410 C   0  0  0  0  0  0  0  0  0  0  0  0
  190.3070  177.6000  139.7490 S   0  0  0  0  0  0  0  0  0  0  0  0
  186.6560  177.5900  145.4510 C   0  0  0  0  0  3  0  0  0  0  0  0
  186.9410  178.2290  141.8680 C   0  0  0  0  0  3  0  0  0  0  0  0
  188.7640  178.0620  143.5320 C   0  0  2  0  0  3  0  0  0  0  0  0
  187.2890  178.0920  143.1600 C   0  0  0  0  0  0  0  0  0  0  0  0
  187.7520  178.3910  139.4530 N   0  0  0  0  0  2  0  0  0  0  0  0
  191.2770  176.4580  144.0540 C   0  0  0  0  0  2  0  0  0  0  0  0
  190.4400  176.9730  145.2140 C   0  0  0  0  0  0  0  0  0  0  0  0
  191.5320  177.8460  144.6230 C   0  0  0  0  0  2  0  0  0  0  0  0
  190.7020  176.3870  146.6130 C   0  0  2  0  0  3  0  0  0  0  0  0
  190.5120  177.4480  147.6850 C   0  0  0  0  0  1  0  0  0  0  0  0
  192.6420  176.0860  148.0620 N   0  0  0  0  0  1  0  0  0  0  0  0
  192.0680  175.7250  146.7750 C   0  0  0  0  0  2  0  0  0  0  0  0
  183.7820  178.5780  143.8170 N   0  0  0  0  0  0  0  0  0  0  0  0
  184.8970  178.3280  144.0060 C   0  0  0  0  0  0  0  0  0  0  0  0
  188.7930  177.4790  137.4140 C   0  0  0  0  0  2  0  0  0  0  0  0
  186.4040  174.6950  137.3320 O   0  0  0  0  0  0  0  0  0  0  0  0
  186.9620  175.7780  137.0070 C   0  0  0  0  0  0  0  0  0  0  0  0
  188.1370  176.2070  137.7030 N   0  0  0  0  0  2  0  0  0  0  0  0
  186.3810  176.6020  135.9050 C   0  0  0  0  0  1  0  0  0  0  0  0
  1 23  1  6  0  0  0
  1 13  1  0  0  0  0
  1  8  1  0  0  0  0
  4  3  1  0  0  0  0
  5  4  2  0  0  0  0
  5 10  1  0  0  0  0
  6 15  1  0  0  0  0
  6  2  2  0  0  0  0
  7  9  2  0  0  0  0
  8  4  1  0  0  0  0
  9  2  1  0  0  0  0
 10 12  2  0  0  0  0
 11  3  1  6  0  0  0
 11  6  1  0  0  0  0
 12 11  1  0  0  0  0
 12  7  1  0  0  0  0
 13  5  1  0  0  0  0
 14 16  1  0  0  0  0
 14 15  1  0  0  0  0
 15 17  1  0  0  0  0
 16 15  1  0  0  0  0
 17 20  1  0  0  0  0
 17 18  1  1  0  0  0
 20 19  1  0  0  0  0
 21 22  3  0  0  0  0
 22  7  1  0  0  0  0
 23 26  1  0  0  0  0
 25 24  2  0  0  0  0
 25 26  1  0  0  0  0
 27 25  1  0  0  0  0
M  END
>  <MODEL>
4

>  <REMARK>
 VINA RESULT:      -7.9      1.901      5.133
  Name = 
  6 active torsions:
  status: ('A' for Active; 'I' for Inactive)
    1  A    between atoms: C_1  and  C_22
    2  A    between atoms: C_5  and  C_9
    3  A    between atoms: C_5  and  C_20
    4  A    between atoms: C_9  and  C_15
    5  A    between atoms: N_10  and  C_22
    6  A    between atoms: C_14  and  C_16
                            x       y       z     vdW  Elec       q    Type
                         _______ _______ _______ _____ _____    ______ ____

>  <TORSDO>
F 6

$$$$
=
 OpenBabel10232411433D

 27 30  0  0  1  0  0  0  0  0999 V2000
  188.3020  178.2560  139.4270 C   0  0  2  0  0  3  0  0  0  0  0  0
  186.3620  177.8280  146.3590 C   0  0  0  0  0  3  0  0  0  0  0  0
  188.3340  177.8470  143.3120 O   0  0  0  0  0  0  0  0  0  0  0  0
  188.1700  177.9770  141.9290 C   0  0  0  0  0  0  0  0  0  0  0  0
  187.0080  178.3280  141.4180 C   0  0  0  0  0  0  0  0  0  0  0  0
  187.4660  177.9080  145.6010 C   0  0  0  0  0  0  0  0  0  0  0  0
  184.8360  178.4950  144.5500 C   0  0  0  0  0  0  0  0  0  0  0  0
  189.4480  177.6530  140.7330 S   0  0  0  0  0  0  0  0  0  0  0  0
  185.0280  178.1830  145.8350 C   0  0  0  0  0  3  0  0  0  0  0  0
  185.8260  178.4830  142.2850 C   0  0  0  0  0  3  0  0  0  0  0  0
  187.3930  178.4690  144.1990 C   0  0  2  0  0  3  0  0  0  0  0  0
  185.9870  178.4680  143.6200 C   0  0  0  0  0  0  0  0  0  0  0  0
  186.9730  178.4170  140.0050 N   0  0  0  0  0  2  0  0  0  0  0  0
  189.0240  178.0390  147.6140 C   0  0  0  0  0  2  0  0  0  0  0  0
  188.7980  177.5390  146.1950 C   0  0  0  0  0  0  0  0  0  0  0  0
  188.7350  176.5660  147.3590 C   0  0  0  0  0  2  0  0  0  0  0  0
  190.0180  177.4280  145.2640 C   0  0  2  0  0  3  0  0  0  0  0  0
  191.0870  176.5400  145.8820 C   0  0  0  0  0  1  0  0  0  0  0  0
  191.6970  178.5520  143.8960 N   0  0  0  0  0  1  0  0  0  0  0  0
  190.6290  178.7670  144.8580 C   0  0  0  0  0  2  0  0  0  0  0  0
  182.4300  179.0220  143.7220 N   0  0  0  0  0  0  0  0  0  0  0  0
  183.5030  178.7870  144.0920 C   0  0  0  0  0  0  0  0  0  0  0  0
  188.2780  177.3160  138.2280 C   0  0  0  0  0  2  0  0  0  0  0  0
  190.7510  174.6320  137.8470 O   0  0  0  0  0  0  0  0  0  0  0  0
  190.1340  175.7070  137.6140 C   0  0  0  0  0  0  0  0  0  0  0  0
  189.0680  176.1140  138.4790 N   0  0  0  0  0  2  0  0  0  0  0  0
  190.5200  176.5340  136.4320 C   0  0  0  0  0  1  0  0  0  0  0  0
  1 23  1  6  0  0  0
  1 13  1  0  0  0  0
  1  8  1  0  0  0  0
  4  3  1  0  0  0  0
  5  4  2  0  0  0  0
  5 10  1  0  0  0  0
  6 15  1  0  0  0  0
  6  2  2  0  0  0  0
  7  9  2  0  0  0  0
  8  4  1  0  0  0  0
  9  2  1  0  0  0  0
 10 12  2  0  0  0  0
 11  3  1  6  0  0  0
 11  6  1  0  0  0  0
 12 11  1  0  0  0  0
 12  7  1  0  0  0  0
 13  5  1  0  0  0  0
 15 16  1  0  0  0  0
 15 14  1  0  0  0  0
 16 14  1  0  0  0  0
 17 18  1  1  0  0  0
 17 15  1  0  0  0  0
 19 20  1  0  0  0  0
 20 17  1  0  0  0  0
 21 22  3  0  0  0  0
 22  7  1  0  0  0  0
 23 26  1  0  0  0  0
 25 24  2  0  0  0  0
 25 26  1  0  0  0  0
 27 25  1  0  0  0  0
M  END
>  <MODEL>
5

>  <REMARK>
 VINA RESULT:      -7.8      1.988      4.801
  Name = 
  6 active torsions:
  status: ('A' for Active; 'I' for Inactive)
    1  A    between atoms: C_1  and  C_22
    2  A    between atoms: C_5  and  C_9
    3  A    between atoms: C_5  and  C_20
    4  A    between atoms: C_9  and  C_15
    5  A    between atoms: N_10  and  C_22
    6  A    between atoms: C_14  and  C_16
                            x       y       z     vdW  Elec       q    Type
                         _______ _______ _______ _____ _____    ______ ____

>  <TORSDO>
F 6

$$$$
=
 OpenBabel10232411433D

 27 30  0  0  1  0  0  0  0  0999 V2000
  188.3440  178.1400  139.5270 C   0  0  2  0  0  3  0  0  0  0  0  0
  186.4410  177.8850  146.4770 C   0  0  0  0  0  3  0  0  0  0  0  0
  188.3920  177.8010  143.4180 O   0  0  0  0  0  0  0  0  0  0  0  0
  188.2220  177.9100  142.0340 C   0  0  0  0  0  0  0  0  0  0  0  0
  187.0660  178.2790  141.5240 C   0  0  0  0  0  0  0  0  0  0  0  0
  187.5420  177.9250  145.7110 C   0  0  0  0  0  0  0  0  0  0  0  0
  184.9200  178.5550  144.6660 C   0  0  0  0  0  0  0  0  0  0  0  0
  189.4850  177.5330  140.8370 S   0  0  0  0  0  0  0  0  0  0  0  0
  185.1120  178.2620  145.9550 C   0  0  0  0  0  3  0  0  0  0  0  0
  185.8940  178.4780  142.3950 C   0  0  0  0  0  3  0  0  0  0  0  0
  187.4730  178.4620  144.3000 C   0  0  2  0  0  3  0  0  0  0  0  0
  186.0630  178.4830  143.7300 C   0  0  0  0  0  0  0  0  0  0  0  0
  187.0230  178.3430  140.1100 N   0  0  0  0  0  2  0  0  0  0  0  0
  189.0910  178.0040  147.7330 C   0  0  0  0  0  2  0  0  0  0  0  0
  188.8680  177.5360  146.3040 C   0  0  0  0  0  0  0  0  0  0  0  0
  188.7940  176.5390  147.4470 C   0  0  0  0  0  2  0  0  0  0  0  0
  190.0930  177.4360  145.3760 C   0  0  2  0  0  3  0  0  0  0  0  0
  191.1500  176.5250  145.9780 C   0  0  0  0  0  1  0  0  0  0  0  0
  191.6490  178.6020  143.9030 N   0  0  0  0  0  1  0  0  0  0  0  0
  190.7160  178.7780  145.0040 C   0  0  0  0  0  2  0  0  0  0  0  0
  182.5210  179.1230  143.8440 N   0  0  0  0  0  0  0  0  0  0  0  0
  183.5900  178.8700  144.2110 C   0  0  0  0  0  0  0  0  0  0  0  0
  188.2900  177.1780  138.3450 C   0  0  0  0  0  2  0  0  0  0  0  0
  186.8050  178.4310  135.2320 O   0  0  0  0  0  0  0  0  0  0  0  0
  186.8890  177.8370  136.3420 C   0  0  0  0  0  0  0  0  0  0  0  0
  188.1110  177.8940  137.0850 N   0  0  0  0  0  2  0  0  0  0  0  0
  185.7130  177.0740  136.8570 C   0  0  0  0  0  1  0  0  0  0  0  0
  1 23  1  6  0  0  0
  1 13  1  0  0  0  0
  1  8  1  0  0  0  0
  4  3  1  0  0  0  0
  5  4  2  0  0  0  0
  5 10  1  0  0  0  0
  6 15  1  0  0  0  0
  6  2  2  0  0  0  0
  7  9  2  0  0  0  0
  8  4  1  0  0  0  0
  9  2  1  0  0  0  0
 10 12  2  0  0  0  0
 11  3  1  6  0  0  0
 11  6  1  0  0  0  0
 12 11  1  0  0  0  0
 12  7  1  0  0  0  0
 13  5  1  0  0  0  0
 15 16  1  0  0  0  0
 15 14  1  0  0  0  0
 16 14  1  0  0  0  0
 17 18  1  1  0  0  0
 17 15  1  0  0  0  0
 19 20  1  0  0  0  0
 20 17  1  0  0  0  0
 21 22  3  0  0  0  0
 22  7  1  0  0  0  0
 24 25  2  0  0  0  0
 25 27  1  0  0  0  0
 25 26  1  0  0  0  0
 26 23  1  0  0  0  0
M  END
>  <MODEL>
6

>  <REMARK>
 VINA RESULT:      -7.8      1.656      4.635
  Name = 
  6 active torsions:
  status: ('A' for Active; 'I' for Inactive)
    1  A    between atoms: C_1  and  C_22
    2  A    between atoms: C_5  and  C_9
    3  A    between atoms: C_5  and  C_20
    4  A    between atoms: C_9  and  C_15
    5  A    between atoms: N_10  and  C_22
    6  A    between atoms: C_14  and  C_16
                            x       y       z     vdW  Elec       q    Type
                         _______ _______ _______ _____ _____    ______ ____

>  <TORSDO>
F 6

$$$$
=
 OpenBabel10232411433D

 27 30  0  0  1  0  0  0  0  0999 V2000
  186.9150  178.4850  137.4910 C   0  0  2  0  0  3  0  0  0  0  0  0
  187.6250  177.5380  144.6030 C   0  0  0  0  0  3  0  0  0  0  0  0
  188.3440  177.7560  141.0530 O   0  0  0  0  0  0  0  0  0  0  0  0
  187.6930  178.0040  139.8400 C   0  0  0  0  0  0  0  0  0  0  0  0
  186.4450  178.4260  139.8180 C   0  0  0  0  0  0  0  0  0  0  0  0
  188.3780  177.6520  143.4990 C   0  0  0  0  0  0  0  0  0  0  0  0
  185.5820  178.3910  143.5330 C   0  0  0  0  0  0  0  0  0  0  0  0
  188.4260  177.7460  138.2380 S   0  0  0  0  0  0  0  0  0  0  0  0
  186.2130  177.9700  144.6330 C   0  0  0  0  0  3  0  0  0  0  0  0
  185.6730  178.5400  141.0680 C   0  0  0  0  0  3  0  0  0  0  0  0
  187.8280  178.3280  142.2640 C   0  0  2  0  0  3  0  0  0  0  0  0
  186.3090  178.4100  142.2460 C   0  0  0  0  0  0  0  0  0  0  0  0
  185.9010  178.6310  138.5270 N   0  0  0  0  0  2  0  0  0  0  0  0
  190.0510  175.7880  143.0260 C   0  0  0  0  0  2  0  0  0  0  0  0
  189.8130  177.2010  143.5340 C   0  0  0  0  0  0  0  0  0  0  0  0
  190.4530  176.9840  142.1750 C   0  0  0  0  0  2  0  0  0  0  0  0
  190.7270  177.7320  144.6540 C   0  0  2  0  0  3  0  0  0  0  0  0
  191.5790  178.8860  144.1500 C   0  0  0  0  0  1  0  0  0  0  0  0
  191.6810  176.8880  146.7340 N   0  0  0  0  0  1  0  0  0  0  0  0
  191.6180  176.6730  145.2980 C   0  0  0  0  0  2  0  0  0  0  0  0
  183.0730  179.0480  143.6900 N   0  0  0  0  0  0  0  0  0  0  0  0
  184.1920  178.7540  143.6210 C   0  0  0  0  0  0  0  0  0  0  0  0
  186.4030  177.6460  136.3240 C   0  0  0  0  0  2  0  0  0  0  0  0
  184.2480  174.8130  137.2110 O   0  0  0  0  0  0  0  0  0  0  0  0
  185.3000  175.4510  136.9350 C   0  0  0  0  0  0  0  0  0  0  0  0
  185.2330  176.8630  136.7070 N   0  0  0  0  0  2  0  0  0  0  0  0
  186.5990  174.7200  136.8390 C   0  0  0  0  0  1  0  0  0  0  0  0
  1 23  1  6  0  0  0
  1  8  1  0  0  0  0
  1 13  1  0  0  0  0
  2  9  1  0  0  0  0
  4  3  1  0  0  0  0
  5  4  2  0  0  0  0
  5 10  1  0  0  0  0
  6 15  1  0  0  0  0
  6  2  2  0  0  0  0
  7 22  1  0  0  0  0
  7  9  2  0  0  0  0
  8  4  1  0  0  0  0
 10 12  2  0  0  0  0
 11  3  1  6  0  0  0
 11  6  1  0  0  0  0
 12 11  1  0  0  0  0
 12  7  1  0  0  0  0
 13  5  1  0  0  0  0
 14 15  1  0  0  0  0
 15 17  1  0  0  0  0
 16 14  1  0  0  0  0
 16 15  1  0  0  0  0
 17 18  1  6  0  0  0
 17 20  1  0  0  0  0
 20 19  1  0  0  0  0
 22 21  3  0  0  0  0
 23 26  1  0  0  0  0
 25 24  2  0  0  0  0
 26 25  1  0  0  0  0
 27 25  1  0  0  0  0
M  END
>  <MODEL>
7

>  <REMARK>
 VINA RESULT:      -7.6      2.497      5.556
  Name = 
  6 active torsions:
  status: ('A' for Active; 'I' for Inactive)
    1  A    between atoms: C_1  and  C_22
    2  A    between atoms: C_5  and  C_9
    3  A    between atoms: C_5  and  C_20
    4  A    between atoms: C_9  and  C_15
    5  A    between atoms: N_10  and  C_22
    6  A    between atoms: C_14  and  C_16
                            x       y       z     vdW  Elec       q    Type
                         _______ _______ _______ _____ _____    ______ ____

>  <TORSDO>
F 6

$$$$
=
 OpenBabel10232411433D

 27 30  0  0  1  0  0  0  0  0999 V2000
  185.2380  178.9220  139.8960 C   0  0  2  0  0  3  0  0  0  0  0  0
  188.8620  177.4600  145.9560 C   0  0  0  0  0  3  0  0  0  0  0  0
  188.0590  178.1370  142.4820 O   0  0  0  0  0  0  0  0  0  0  0  0
  186.9490  178.3740  141.6640 C   0  0  0  0  0  0  0  0  0  0  0  0
  185.7550  178.5600  142.1860 C   0  0  0  0  0  0  0  0  0  0  0  0
  189.0860  177.8120  144.6800 C   0  0  0  0  0  0  0  0  0  0  0  0
  186.4690  178.0200  145.8940 C   0  0  0  0  0  0  0  0  0  0  0  0
  187.0040  178.4060  139.8850 S   0  0  0  0  0  0  0  0  0  0  0  0
  187.5380  177.6210  146.5890 C   0  0  0  0  0  3  0  0  0  0  0  0
  185.5420  178.4130  143.6370 C   0  0  0  0  0  3  0  0  0  0  0  0
  188.0030  178.4890  143.8720 C   0  0  2  0  0  3  0  0  0  0  0  0
  186.6090  178.2930  144.4470 C   0  0  0  0  0  0  0  0  0  0  0  0
  184.7150  178.7820  141.2500 N   0  0  0  0  0  2  0  0  0  0  0  0
  191.2420  178.9180  143.8910 C   0  0  0  0  0  2  0  0  0  0  0  0
  190.4600  177.6310  144.0950 C   0  0  0  0  0  0  0  0  0  0  0  0
  191.6070  177.9750  145.0280 C   0  0  0  0  0  2  0  0  0  0  0  0
  190.6950  176.4760  143.1050 C   0  0  2  0  0  3  0  0  0  0  0  0
  191.5910  175.4130  143.7210 C   0  0  0  0  0  1  0  0  0  0  0  0
  190.3770  176.4570  140.6860 N   0  0  0  0  0  1  0  0  0  0  0  0
  191.2570  176.9060  141.7530 C   0  0  0  0  0  2  0  0  0  0  0  0
  184.1720  178.1890  147.0960 N   0  0  0  0  0  0  0  0  0  0  0  0
  185.1960  178.1130  146.5610 C   0  0  0  0  0  0  0  0  0  0  0  0
  184.4150  178.1170  138.8960 C   0  0  0  0  0  2  0  0  0  0  0  0
  180.8270  178.8650  138.7350 O   0  0  0  0  0  0  0  0  0  0  0  0
  181.8950  178.2840  139.0700 C   0  0  0  0  0  0  0  0  0  0  0  0
  183.1510  178.7800  138.5930 N   0  0  0  0  0  2  0  0  0  0  0  0
  181.8310  177.0820  139.9530 C   0  0  0  0  0  1  0  0  0  0  0  0
  1 23  1  6  0  0  0
  1 13  1  0  0  0  0
  2  9  1  0  0  0  0
  4  5  2  0  0  0  0
  4  3  1  0  0  0  0
  5 10  1  0  0  0  0
  6  2  2  0  0  0  0
  7 22  1  0  0  0  0
  7  9  2  0  0  0  0
  8  1  1  0  0  0  0
  8  4  1  0  0  0  0
 10 12  2  0  0  0  0
 11  3  1  6  0  0  0
 11 12  1  0  0  0  0
 11  6  1  0  0  0  0
 12  7  1  0  0  0  0
 13  5  1  0  0  0  0
 14 15  1  0  0  0  0
 14 16  1  0  0  0  0
 15  6  1  0  0  0  0
 15 16  1  0  0  0  0
 17 18  1  1  0  0  0
 17 15  1  0  0  0  0
 19 20  1  0  0  0  0
 20 17  1  0  0  0  0
 22 21  3  0  0  0  0
 24 25  2  0  0  0  0
 25 27  1  0  0  0  0
 26 23  1  0  0  0  0
 26 25  1  0  0  0  0
M  END
>  <MODEL>
8

>  <REMARK>
 VINA RESULT:      -7.3      2.963      5.542
  Name = 
  6 active torsions:
  status: ('A' for Active; 'I' for Inactive)
    1  A    between atoms: C_1  and  C_22
    2  A    between atoms: C_5  and  C_9
    3  A    between atoms: C_5  and  C_20
    4  A    between atoms: C_9  and  C_15
    5  A    between atoms: N_10  and  C_22
    6  A    between atoms: C_14  and  C_16
                            x       y       z     vdW  Elec       q    Type
                         _______ _______ _______ _____ _____    ______ ____

>  <TORSDO>
F 6

$$$$
=
 OpenBabel10232411433D

 27 30  0  0  1  0  0  0  0  0999 V2000
  189.5370  177.9910  143.2420 C   0  0  2  0  0  3  0  0  0  0  0  0
  189.7830  176.4550  136.2020 C   0  0  0  0  0  3  0  0  0  0  0  0
  188.6210  177.5030  139.4760 O   0  0  0  0  0  0  0  0  0  0  0  0
  189.0730  177.5920  140.7970 C   0  0  0  0  0  0  0  0  0  0  0  0
  190.3380  177.3770  141.0920 C   0  0  0  0  0  0  0  0  0  0  0  0
  188.9930  177.0690  137.0950 C   0  0  0  0  0  0  0  0  0  0  0  0
  191.7430  176.3950  137.6850 C   0  0  0  0  0  0  0  0  0  0  0  0
  188.0260  177.9470  142.1930 S   0  0  0  0  0  0  0  0  0  0  0  0
  191.2020  176.1630  136.4850 C   0  0  0  0  0  3  0  0  0  0  0  0
  191.2830  176.9300  140.0530 C   0  0  0  0  0  3  0  0  0  0  0  0
  189.5640  177.5810  138.3980 C   0  0  2  0  0  3  0  0  0  0  0  0
  190.8950  176.9430  138.7660 C   0  0  0  0  0  0  0  0  0  0  0  0
  190.6640  177.4900  142.4660 N   0  0  0  0  0  2  0  0  0  0  0  0
  187.2190  178.8140  136.5420 C   0  0  0  0  0  2  0  0  0  0  0  0
  187.5570  177.3450  136.7440 C   0  0  0  0  0  0  0  0  0  0  0  0
  187.3300  177.8830  135.3430 C   0  0  0  0  0  2  0  0  0  0  0  0
  186.4650  176.4230  137.3180 C   0  0  2  0  0  3  0  0  0  0  0  0
  186.7500  174.9710  136.9710 C   0  0  0  0  0  1  0  0  0  0  0  0
  184.3030  177.2950  138.0380 N   0  0  0  0  0  1  0  0  0  0  0  0
  185.0440  176.7870  136.8950 C   0  0  0  0  0  2  0  0  0  0  0  0
  194.2320  175.7670  138.0890 N   0  0  0  0  0  0  0  0  0  0  0  0
  193.1220  176.0460  137.9100 C   0  0  0  0  0  0  0  0  0  0  0  0
  189.3460  177.1920  144.5270 C   0  0  0  0  0  2  0  0  0  0  0  0
  191.9820  176.6630  147.0250 O   0  0  0  0  0  0  0  0  0  0  0  0
  190.8390  176.9130  146.5530 C   0  0  0  0  0  0  0  0  0  0  0  0
  190.6280  176.8550  145.1380 N   0  0  0  0  0  2  0  0  0  0  0  0
  189.7260  177.2780  147.4790 C   0  0  0  0  0  1  0  0  0  0  0  0
  1 23  1  1  0  0  0
  2  9  1  0  0  0  0
  2  6  2  0  0  0  0
  3  4  1  0  0  0  0
  4  5  2  0  0  0  0
  4  8  1  0  0  0  0
  5 13  1  0  0  0  0
  7 22  1  0  0  0  0
  7 12  1  0  0  0  0
  8  1  1  0  0  0  0
  9  7  2  0  0  0  0
 10  5  1  0  0  0  0
 11  6  1  6  0  0  0
 11 12  1  0  0  0  0
 11  3  1  0  0  0  0
 12 10  2  0  0  0  0
 13  1  1  0  0  0  0
 14 15  1  0  0  0  0
 15  6  1  0  0  0  0
 15 17  1  0  0  0  0
 16 14  1  0  0  0  0
 16 15  1  0  0  0  0
 17 18  1  6  0  0  0
 20 17  1  0  0  0  0
 20 19  1  0  0  0  0
 22 21  3  0  0  0  0
 23 26  1  0  0  0  0
 25 24  2  0  0  0  0
 25 27  1  0  0  0  0
 26 25  1  0  0  0  0
M  END
>  <MODEL>
9

>  <REMARK>
 VINA RESULT:      -7.2      3.128      7.996
  Name = 
  6 active torsions:
  status: ('A' for Active; 'I' for Inactive)
    1  A    between atoms: C_1  and  C_22
    2  A    between atoms: C_5  and  C_9
    3  A    between atoms: C_5  and  C_20
    4  A    between atoms: C_9  and  C_15
    5  A    between atoms: N_10  and  C_22
    6  A    between atoms: C_14  and  C_16
                            x       y       z     vdW  Elec       q    Type
                         _______ _______ _______ _____ _____    ______ ____

>  <TORSDO>
F 6

$$$$
