=
 OpenBabel10232410553D

 49 56  0  0  1  0  0  0  0  0999 V2000
  187.9110  174.7870  136.5250 C   0  0  1  0  0  3  0  0  0  0  0  0
  190.7800  177.3200  138.3130 C   0  0  0  0  0  2  0  0  0  0  0  0
  189.5780  176.9250  139.1790 C   0  0  2  0  0  3  0  0  0  0  0  0
  188.4420  173.7110  134.3460 C   0  0  0  0  0  1  0  0  0  0  0  0
  190.0520  175.2920  135.4390 C   0  0  0  0  0  2  0  0  0  0  0  0
  194.5660  172.8620  138.1300 C   0  0  0  0  0  2  0  0  0  0  0  0
  188.5660  174.9850  135.1590 C   0  0  2  0  0  3  0  0  0  0  0  0
  188.8630  175.3960  137.4710 C   0  0  0  0  0  0  0  0  0  0  0  0
  196.2410  175.3110  140.3710 O   0  0  0  0  0  0  0  0  0  0  0  0
  193.6510  175.1580  137.8270 C   0  0  0  0  0  0  0  0  0  0  0  0
  195.6780  174.9450  139.3020 C   0  0  0  0  0  0  0  0  0  0  0  0
  194.5610  175.6900  138.8020 N   0  0  0  0  0  2  0  0  0  0  0  0
  196.2560  173.4480  138.4690 S   0  0  0  0  0  0  0  0  0  0  0  0
  191.2500  176.1370  137.5250 C   0  0  0  0  0  0  0  0  0  0  0  0
  188.5590  176.2480  138.3880 N   0  0  0  0  0  0  0  0  0  0  0  0
  190.2370  175.1880  136.9510 C   0  0  2  0  0  3  0  0  0  0  0  0
  193.9060  173.8390  137.1620 C   0  0  0  0  0  2  0  0  0  0  0  0
  192.4670  175.6910  137.6900 C   0  0  0  0  0  0  0  0  0  0  0  0
  184.5100  172.2280  137.3710 C   0  0  0  0  0  3  0  0  0  0  0  0
  184.4150  176.6850  136.3700 C   0  0  0  0  0  3  0  0  0  0  0  0
  186.6470  177.5220  136.3050 O   0  0  0  0  0  0  0  0  0  0  0  0
  185.5850  174.1930  136.9860 C   0  0  0  0  0  0  0  0  0  0  0  0
  183.5390  173.3020  137.0830 N   0  0  0  0  0  0  0  0  0  0  0  0
  185.8430  172.8260  137.2400 N   0  0  0  0  0  0  0  0  0  0  0  0
  186.4610  175.1510  136.6820 C   0  0  0  0  0  0  0  0  0  0  0  0
  185.8980  176.5170  136.4510 C   0  0  0  0  0  0  0  0  0  0  0  0
  183.6170  175.6640  136.5710 N   0  0  0  0  0  0  0  0  0  0  0  0
  184.1840  174.4050  136.9450 C   0  0  0  0  0  0  0  0  0  0  0  0
  187.5890  178.4490  141.8330 O   0  0  0  0  0  0  0  0  0  0  0  0
  188.9900  178.1340  139.9210 C   0  0  2  0  0  3  0  0  0  0  0  0
  188.7610  177.8170  141.3890 C   0  0  1  0  0  3  0  0  0  0  0  0
  186.8040  178.7260  140.6890 C   0  0  0  0  0  2  0  0  0  0  0  0
  187.5900  178.4020  139.4360 C   0  0  0  0  0  2  0  0  0  0  0  0
  189.9390  178.2920  142.2360 C   0  0  0  0  0  2  0  0  0  0  0  0
  190.7720  177.1530  142.5990 N   0  0  0  0  0  2  0  0  0  0  0  0
  189.9210  176.2010  143.3110 C   0  0  0  0  0  2  0  0  0  0  0  0
  191.5750  176.8740  145.6830 C   0  0  0  0  0  2  0  0  0  0  0  0
  191.7160  175.1880  147.4070 N   0  0  0  0  0  1  0  0  0  0  0  0
  189.6910  177.7920  146.8650 C   0  0  1  0  0  3  0  0  0  0  0  0
  187.8160  177.1660  148.3680 C   0  0  0  0  0  2  0  0  0  0  0  0
  188.0370  176.7430  144.7400 N   0  0  0  0  0  0  0  0  0  0  0  0
  191.8240  176.6180  147.1540 C   0  0  2  0  0  3  0  0  0  0  0  0
  187.3570  177.2400  145.9440 C   0  0  1  0  0  3  0  0  0  0  0  0
  188.3040  177.2540  147.1230 C   0  0  0  0  0  0  0  0  0  0  0  0
  190.7160  177.3490  147.9060 C   0  0  0  0  0  2  0  0  0  0  0  0
  190.1890  177.2940  145.5920 N   0  0  0  0  0  0  0  0  0  0  0  0
  189.3230  176.8230  144.5420 C   0  0  0  0  0  0  0  0  0  0  0  0
  185.3680  178.5640  145.1980 C   0  0  0  0  0  1  0  0  0  0  0  0
  186.8060  178.6360  145.6670 C   0  0  0  0  0  2  0  0  0  0  0  0
  1 25  1  6  0  0  0
  1  8  1  0  0  0  0
  3  2  1  6  0  0  0
  3 30  1  0  0  0  0
  6 13  1  0  0  0  0
  7  4  1  6  0  0  0
  7  5  1  0  0  0  0
  7  1  1  0  0  0  0
  8 15  2  0  0  0  0
 10 12  1  0  0  0  0
 11  9  2  0  0  0  0
 12 11  1  0  0  0  0
 13 11  1  0  0  0  0
 14 18  2  0  0  0  0
 14  2  1  0  0  0  0
 15  3  1  0  0  0  0
 16  5  1  6  0  0  0
 16  8  1  0  0  0  0
 16 14  1  0  0  0  0
 17 10  1  0  0  0  0
 17  6  1  0  0  0  0
 18 10  2  0  0  0  0
 20 26  1  0  0  0  0
 20 27  2  0  0  0  0
 21 26  2  0  0  0  0
 22 24  1  0  0  0  0
 23 19  1  0  0  0  0
 24 19  2  0  0  0  0
 25 22  2  0  0  0  0
 26 25  1  0  0  0  0
 27 28  1  0  0  0  0
 28 22  1  0  0  0  0
 28 23  2  0  0  0  0
 30 33  1  6  0  0  0
 30 31  1  0  0  0  0
 31 29  1  0  0  0  0
 31 34  1  1  0  0  0
 32 29  1  0  0  0  0
 33 32  1  0  0  0  0
 34 35  1  0  0  0  0
 35 36  1  0  0  0  0
 36 47  1  0  0  0  0
 37 42  1  0  0  0  0
 39 44  1  0  0  0  0
 39 45  1  1  0  0  0
 41 43  1  0  0  0  0
 42 38  1  6  0  0  0
 42 45  1  0  0  0  0
 43 49  1  6  0  0  0
 43 44  1  0  0  0  0
 44 40  2  0  0  0  0
 46 37  1  0  0  0  0
 46 39  1  0  0  0  0
 47 41  2  0  0  0  0
 47 46  1  0  0  0  0
 48 49  1  0  0  0  0
M  END
>  <MODEL>
1

>  <REMARK>
 VINA RESULT:      -9.4      0.000      0.000
  Name = 
  7 active torsions:
  status: ('A' for Active; 'I' for Inactive)
    1  A    between atoms: C_3  and  C_42
    2  A    between atoms: C_8  and  C_14
    3  A    between atoms: C_13  and  N_39
    4  A    between atoms: C_13  and  C_41
    5  A    between atoms: C_18  and  C_47
    6  A    between atoms: C_20  and  C_31
    7  A    between atoms: N_39  and  C_47
                            x       y       z     vdW  Elec       q    Type
                         _______ _______ _______ _____ _____    ______ ____

>  <TORSDO>
F 7

$$$$
=
 OpenBabel10232410553D

 49 56  0  0  1  0  0  0  0  0999 V2000
  189.5330  173.1750  136.2750 C   0  0  1  0  0  3  0  0  0  0  0  0
  192.3090  176.2410  137.1360 C   0  0  0  0  0  2  0  0  0  0  0  0
  191.2310  175.9750  138.1920 C   0  0  2  0  0  3  0  0  0  0  0  0
  189.9620  171.6650  134.3460 C   0  0  0  0  0  1  0  0  0  0  0  0
  191.5140  173.5610  134.8800 C   0  0  0  0  0  2  0  0  0  0  0  0
  196.4520  172.1280  137.5400 C   0  0  0  0  0  2  0  0  0  0  0  0
  190.0420  173.0970  134.8370 C   0  0  2  0  0  3  0  0  0  0  0  0
  190.5070  174.0490  136.9540 C   0  0  0  0  0  0  0  0  0  0  0  0
  198.0920  175.1350  138.9860 O   0  0  0  0  0  0  0  0  0  0  0  0
  195.3100  174.2250  136.8350 C   0  0  0  0  0  0  0  0  0  0  0  0
  197.4720  174.4950  138.0930 C   0  0  0  0  0  0  0  0  0  0  0  0
  196.2510  175.0280  137.5630 N   0  0  0  0  0  2  0  0  0  0  0  0
  198.1060  172.8900  137.5560 S   0  0  0  0  0  0  0  0  0  0  0  0
  192.8120  174.9430  136.5830 C   0  0  0  0  0  0  0  0  0  0  0  0
  190.2100  175.0670  137.6870 N   0  0  0  0  0  0  0  0  0  0  0  0
  191.8420  173.8210  136.3480 C   0  0  2  0  0  3  0  0  0  0  0  0
  195.6230  172.8090  136.4560 C   0  0  0  0  0  2  0  0  0  0  0  0
  194.0750  174.6300  136.7110 C   0  0  0  0  0  0  0  0  0  0  0  0
  187.1840  176.6010  135.0210 C   0  0  0  0  0  3  0  0  0  0  0  0
  185.8220  173.1730  137.7180 C   0  0  0  0  0  3  0  0  0  0  0  0
  187.5130  171.4920  137.7620 O   0  0  0  0  0  0  0  0  0  0  0  0
  187.5510  174.5760  135.9840 C   0  0  0  0  0  0  0  0  0  0  0  0
  186.0350  176.2110  135.8600 N   0  0  0  0  0  0  0  0  0  0  0  0
  188.1870  175.5410  135.1690 N   0  0  0  0  0  0  0  0  0  0  0  0
  188.0760  173.4660  136.5040 C   0  0  0  0  0  0  0  0  0  0  0  0
  187.1640  172.6310  137.3460 C   0  0  0  0  0  0  0  0  0  0  0  0
  185.4200  174.3310  137.2530 N   0  0  0  0  0  0  0  0  0  0  0  0
  186.2530  175.0320  136.3240 C   0  0  0  0  0  0  0  0  0  0  0  0
  188.5510  177.8870  139.7690 O   0  0  0  0  0  0  0  0  0  0  0  0
  190.6050  177.2790  138.7060 C   0  0  2  0  0  3  0  0  0  0  0  0
  189.6460  177.0130  139.8530 C   0  0  1  0  0  3  0  0  0  0  0  0
  188.4780  178.3390  138.4310 C   0  0  0  0  0  2  0  0  0  0  0  0
  189.6880  177.8570  137.6600 C   0  0  0  0  0  2  0  0  0  0  0  0
  190.3420  177.2080  141.1980 C   0  0  0  0  0  2  0  0  0  0  0  0
  189.3770  177.6730  142.1850 N   0  0  0  0  0  2  0  0  0  0  0  0
  189.1480  176.5740  143.1220 C   0  0  0  0  0  2  0  0  0  0  0  0
  191.1130  177.1930  145.2610 C   0  0  0  0  0  2  0  0  0  0  0  0
  191.5890  175.4170  146.8280 N   0  0  0  0  0  1  0  0  0  0  0  0
  189.3930  177.9360  146.7690 C   0  0  1  0  0  3  0  0  0  0  0  0
  187.7980  177.1230  148.4900 C   0  0  0  0  0  2  0  0  0  0  0  0
  187.4810  176.9280  144.8500 N   0  0  0  0  0  0  0  0  0  0  0  0
  191.5950  176.8630  146.6570 C   0  0  2  0  0  3  0  0  0  0  0  0
  186.9720  177.3160  146.1720 C   0  0  1  0  0  3  0  0  0  0  0  0
  188.0860  177.3110  147.1950 C   0  0  0  0  0  0  0  0  0  0  0  0
  190.5830  177.4880  147.6130 C   0  0  0  0  0  2  0  0  0  0  0  0
  189.7130  177.5420  145.4060 N   0  0  0  0  0  0  0  0  0  0  0  0
  188.7180  177.0890  144.4670 C   0  0  0  0  0  0  0  0  0  0  0  0
  184.8150  178.5860  146.1270 C   0  0  0  0  0  1  0  0  0  0  0  0
  186.3250  178.6950  146.0750 C   0  0  0  0  0  2  0  0  0  0  0  0
  1 25  1  6  0  0  0
  1  8  1  0  0  0  0
  3  2  1  6  0  0  0
  3 30  1  0  0  0  0
  6 13  1  0  0  0  0
  7  4  1  1  0  0  0
  7  5  1  0  0  0  0
  7  1  1  0  0  0  0
  8 15  2  0  0  0  0
 10 12  1  0  0  0  0
 11  9  2  0  0  0  0
 12 11  1  0  0  0  0
 13 11  1  0  0  0  0
 14 18  2  0  0  0  0
 14  2  1  0  0  0  0
 15  3  1  0  0  0  0
 16  5  1  6  0  0  0
 16 14  1  0  0  0  0
 16  8  1  0  0  0  0
 17 10  1  0  0  0  0
 17  6  1  0  0  0  0
 18 10  2  0  0  0  0
 19 24  2  0  0  0  0
 19 23  1  0  0  0  0
 22 28  1  0  0  0  0
 22 25  2  0  0  0  0
 23 28  2  0  0  0  0
 24 22  1  0  0  0  0
 25 26  1  0  0  0  0
 26 20  1  0  0  0  0
 26 21  2  0  0  0  0
 27 20  2  0  0  0  0
 28 27  1  0  0  0  0
 29 31  1  0  0  0  0
 30 33  1  6  0  0  0
 30 31  1  0  0  0  0
 31 34  1  1  0  0  0
 32 29  1  0  0  0  0
 33 32  1  0  0  0  0
 34 35  1  0  0  0  0
 35 36  1  0  0  0  0
 36 47  1  0  0  0  0
 37 46  1  0  0  0  0
 37 42  1  0  0  0  0
 39 44  1  0  0  0  0
 39 45  1  1  0  0  0
 41 43  1  0  0  0  0
 42 38  1  6  0  0  0
 42 45  1  0  0  0  0
 43 49  1  6  0  0  0
 43 44  1  0  0  0  0
 44 40  2  0  0  0  0
 46 39  1  0  0  0  0
 47 41  2  0  0  0  0
 47 46  1  0  0  0  0
 49 48  1  0  0  0  0
M  END
>  <MODEL>
2

>  <REMARK>
 VINA RESULT:      -9.1      1.791      2.427
  Name = 
  7 active torsions:
  status: ('A' for Active; 'I' for Inactive)
    1  A    between atoms: C_3  and  C_42
    2  A    between atoms: C_8  and  C_14
    3  A    between atoms: C_13  and  N_39
    4  A    between atoms: C_13  and  C_41
    5  A    between atoms: C_18  and  C_47
    6  A    between atoms: C_20  and  C_31
    7  A    between atoms: N_39  and  C_47
                            x       y       z     vdW  Elec       q    Type
                         _______ _______ _______ _____ _____    ______ ____

>  <TORSDO>
F 7

$$$$
=
 OpenBabel10232410553D

 49 56  0  0  1  0  0  0  0  0999 V2000
  188.0910  173.4830  136.2220 C   0  0  1  0  0  3  0  0  0  0  0  0
  191.5850  175.7480  136.9350 C   0  0  0  0  0  2  0  0  0  0  0  0
  190.4960  175.8080  138.0120 C   0  0  2  0  0  3  0  0  0  0  0  0
  188.0740  171.8490  134.3460 C   0  0  0  0  0  1  0  0  0  0  0  0
  190.0750  173.2930  134.7910 C   0  0  0  0  0  2  0  0  0  0  0  0
  194.5260  170.7160  137.4490 C   0  0  0  0  0  2  0  0  0  0  0  0
  188.5330  173.2270  134.7820 C   0  0  2  0  0  3  0  0  0  0  0  0
  189.2720  174.0960  136.8560 C   0  0  0  0  0  0  0  0  0  0  0  0
  196.9190  173.2400  138.7630 O   0  0  0  0  0  0  0  0  0  0  0  0
  193.9530  173.0130  136.6780 C   0  0  0  0  0  0  0  0  0  0  0  0
  196.1360  172.7540  137.9010 C   0  0  0  0  0  0  0  0  0  0  0  0
  195.0850  173.5670  137.3650 N   0  0  0  0  0  2  0  0  0  0  0  0
  196.3200  171.0220  137.4180 S   0  0  0  0  0  0  0  0  0  0  0  0
  191.7220  174.3460  136.4270 C   0  0  0  0  0  0  0  0  0  0  0  0
  189.2640  175.1790  137.5530 N   0  0  0  0  0  0  0  0  0  0  0  0
  190.4900  173.5080  136.2440 C   0  0  2  0  0  3  0  0  0  0  0  0
  193.8800  171.5520  136.3490 C   0  0  0  0  0  2  0  0  0  0  0  0
  192.8630  173.7210  136.5530 C   0  0  0  0  0  0  0  0  0  0  0  0
  186.6600  177.3260  134.8040 C   0  0  0  0  0  3  0  0  0  0  0  0
  184.5480  174.5110  137.7180 C   0  0  0  0  0  3  0  0  0  0  0  0
  185.7530  172.4560  137.8350 O   0  0  0  0  0  0  0  0  0  0  0  0
  186.5260  175.3280  135.8790 C   0  0  0  0  0  0  0  0  0  0  0  0
  185.4750  177.2890  135.6830 N   0  0  0  0  0  0  0  0  0  0  0  0
  187.3620  176.0530  134.9990 N   0  0  0  0  0  0  0  0  0  0  0  0
  186.7640  174.1500  136.4550 C   0  0  0  0  0  0  0  0  0  0  0  0
  185.6950  173.6230  137.3590 C   0  0  0  0  0  0  0  0  0  0  0  0
  184.4420  175.7070  137.1930 N   0  0  0  0  0  0  0  0  0  0  0  0
  185.3980  176.1200  136.2120 C   0  0  0  0  0  0  0  0  0  0  0  0
  188.4610  178.3890  139.6010 O   0  0  0  0  0  0  0  0  0  0  0  0
  190.2400  177.2460  138.4840 C   0  0  2  0  0  3  0  0  0  0  0  0
  189.3100  177.2730  139.6830 C   0  0  1  0  0  3  0  0  0  0  0  0
  188.4290  178.7910  138.2450 C   0  0  0  0  0  2  0  0  0  0  0  0
  189.4390  177.9910  137.4490 C   0  0  0  0  0  2  0  0  0  0  0  0
  190.1040  177.3430  140.9850 C   0  0  0  0  0  2  0  0  0  0  0  0
  189.2200  177.0800  142.1130 N   0  0  0  0  0  2  0  0  0  0  0  0
  189.2850  178.2440  142.9960 C   0  0  0  0  0  2  0  0  0  0  0  0
  186.5260  177.8670  144.0300 C   0  0  0  0  0  2  0  0  0  0  0  0
  185.4920  179.7940  145.0560 N   0  0  0  0  0  1  0  0  0  0  0  0
  187.3190  177.2460  146.2150 C   0  0  1  0  0  3  0  0  0  0  0  0
  187.9950  178.1970  148.4070 C   0  0  0  0  0  2  0  0  0  0  0  0
  189.9530  178.0320  145.3190 N   0  0  0  0  0  0  0  0  0  0  0  0
  185.4800  178.3390  145.0170 C   0  0  2  0  0  3  0  0  0  0  0  0
  189.7770  177.7670  146.7540 C   0  0  1  0  0  3  0  0  0  0  0  0
  188.3210  177.8890  147.1440 C   0  0  0  0  0  0  0  0  0  0  0  0
  185.9040  177.7940  146.3770 C   0  0  0  0  0  2  0  0  0  0  0  0
  187.6820  177.5110  144.8310 N   0  0  0  0  0  0  0  0  0  0  0  0
  189.0210  177.8550  144.4240 C   0  0  0  0  0  0  0  0  0  0  0  0
  191.8050  176.3000  146.8140 C   0  0  0  0  0  1  0  0  0  0  0  0
  190.3140  176.3740  147.0750 C   0  0  0  0  0  2  0  0  0  0  0  0
  1 25  1  6  0  0  0
  1  8  1  0  0  0  0
  3  2  1  6  0  0  0
  3 30  1  0  0  0  0
  7  4  1  1  0  0  0
  7  5  1  0  0  0  0
  7  1  1  0  0  0  0
  8 15  2  0  0  0  0
 10 12  1  0  0  0  0
 11  9  2  0  0  0  0
 12 11  1  0  0  0  0
 13  6  1  0  0  0  0
 13 11  1  0  0  0  0
 14 18  2  0  0  0  0
 14  2  1  0  0  0  0
 15  3  1  0  0  0  0
 16  5  1  6  0  0  0
 16 14  1  0  0  0  0
 16  8  1  0  0  0  0
 17 10  1  0  0  0  0
 17  6  1  0  0  0  0
 18 10  2  0  0  0  0
 19 24  2  0  0  0  0
 19 23  1  0  0  0  0
 22 28  1  0  0  0  0
 22 25  2  0  0  0  0
 23 28  2  0  0  0  0
 24 22  1  0  0  0  0
 25 26  1  0  0  0  0
 26 20  1  0  0  0  0
 26 21  2  0  0  0  0
 27 20  2  0  0  0  0
 28 27  1  0  0  0  0
 29 31  1  0  0  0  0
 30 33  1  6  0  0  0
 30 31  1  0  0  0  0
 31 34  1  1  0  0  0
 32 29  1  0  0  0  0
 33 32  1  0  0  0  0
 34 35  1  0  0  0  0
 35 36  1  0  0  0  0
 36 47  1  0  0  0  0
 37 46  1  0  0  0  0
 37 42  1  0  0  0  0
 39 45  1  1  0  0  0
 39 44  1  0  0  0  0
 41 43  1  0  0  0  0
 42 38  1  1  0  0  0
 42 45  1  0  0  0  0
 43 49  1  6  0  0  0
 43 44  1  0  0  0  0
 44 40  2  0  0  0  0
 46 39  1  0  0  0  0
 47 46  1  0  0  0  0
 47 41  2  0  0  0  0
 48 49  1  0  0  0  0
M  END
>  <MODEL>
3

>  <REMARK>
 VINA RESULT:      -8.7      1.808      3.261
  Name = 
  7 active torsions:
  status: ('A' for Active; 'I' for Inactive)
    1  A    between atoms: C_3  and  C_42
    2  A    between atoms: C_8  and  C_14
    3  A    between atoms: C_13  and  N_39
    4  A    between atoms: C_13  and  C_41
    5  A    between atoms: C_18  and  C_47
    6  A    between atoms: C_20  and  C_31
    7  A    between atoms: N_39  and  C_47
                            x       y       z     vdW  Elec       q    Type
                         _______ _______ _______ _____ _____    ______ ____

>  <TORSDO>
F 7

$$$$
=
 OpenBabel10232410553D

 49 56  0  0  1  0  0  0  0  0999 V2000
  186.5040  177.4710  144.7140 C   0  0  1  0  0  3  0  0  0  0  0  0
  186.3310  179.2820  140.9010 C   0  0  0  0  0  2  0  0  0  0  0  0
  187.3010  178.1060  141.0600 C   0  0  2  0  0  3  0  0  0  0  0  0
  184.7880  178.0700  146.4130 C   0  0  0  0  0  1  0  0  0  0  0  0
  184.8100  179.1550  144.1530 C   0  0  0  0  0  2  0  0  0  0  0  0
  180.8800  177.2210  140.3680 C   0  0  0  0  0  2  0  0  0  0  0  0
  185.6760  178.6090  145.3080 C   0  0  2  0  0  3  0  0  0  0  0  0
  186.4300  177.6950  143.2590 C   0  0  0  0  0  0  0  0  0  0  0  0
  181.7140  178.3280  136.9180 O   0  0  0  0  0  0  0  0  0  0  0  0
  182.7730  178.8390  140.3560 C   0  0  0  0  0  0  0  0  0  0  0  0
  181.5890  178.4820  138.1640 C   0  0  0  0  0  0  0  0  0  0  0  0
  182.6970  178.9760  138.9290 N   0  0  0  0  0  2  0  0  0  0  0  0
  180.0370  178.0090  138.9600 S   0  0  0  0  0  0  0  0  0  0  0  0
  185.0520  178.9870  141.6210 C   0  0  0  0  0  0  0  0  0  0  0  0
  187.4380  177.7190  142.4570 N   0  0  0  0  0  0  0  0  0  0  0  0
  185.1000  178.2730  142.9420 C   0  0  2  0  0  3  0  0  0  0  0  0
  181.6200  178.3020  141.1490 C   0  0  0  0  0  2  0  0  0  0  0  0
  183.9280  178.9430  140.9540 C   0  0  0  0  0  0  0  0  0  0  0  0
  188.0970  178.5380  148.6070 C   0  0  0  0  0  3  0  0  0  0  0  0
  190.3640  176.5990  145.1460 C   0  0  0  0  0  3  0  0  0  0  0  0
  188.8200  176.0280  143.4200 O   0  0  0  0  0  0  0  0  0  0  0  0
  188.1200  177.5840  146.5440 C   0  0  0  0  0  0  0  0  0  0  0  0
  189.4710  178.1540  148.2300 N   0  0  0  0  0  0  0  0  0  0  0  0
  187.2430  178.2090  147.4600 N   0  0  0  0  0  0  0  0  0  0  0  0
  187.8620  177.1940  145.2960 C   0  0  0  0  0  0  0  0  0  0  0  0
  188.9950  176.5660  144.5490 C   0  0  0  0  0  0  0  0  0  0  0  0
  190.5570  177.1050  146.3400 N   0  0  0  0  0  0  0  0  0  0  0  0
  189.4260  177.5550  147.0930 C   0  0  0  0  0  0  0  0  0  0  0  0
  190.1560  177.2750  138.9420 O   0  0  0  0  0  0  0  0  0  0  0  0
  188.6700  178.4090  140.4330 C   0  0  2  0  0  3  0  0  0  0  0  0
  188.8290  177.7060  139.0960 C   0  0  1  0  0  3  0  0  0  0  0  0
  190.7250  177.2020  140.2350 C   0  0  0  0  0  2  0  0  0  0  0  0
  189.7620  177.7740  141.2530 C   0  0  0  0  0  2  0  0  0  0  0  0
  188.4670  178.6410  137.9450 C   0  0  0  0  0  2  0  0  0  0  0  0
  187.1060  178.3700  137.5030 N   0  0  0  0  0  2  0  0  0  0  0  0
  187.1850  177.3780  136.4310 C   0  0  0  0  0  2  0  0  0  0  0  0
  188.4110  174.7260  136.9610 C   0  0  0  0  0  2  0  0  0  0  0  0
  188.6390  173.2500  135.0620 N   0  0  0  0  0  1  0  0  0  0  0  0
  186.2720  173.7060  137.3770 C   0  0  1  0  0  3  0  0  0  0  0  0
  184.3710  172.5840  136.2390 C   0  0  0  0  0  2  0  0  0  0  0  0
  185.0820  176.1680  136.4420 N   0  0  0  0  0  0  0  0  0  0  0  0
  188.5280  173.2850  136.5130 C   0  0  2  0  0  3  0  0  0  0  0  0
  184.1910  175.0150  136.6290 C   0  0  1  0  0  3  0  0  0  0  0  0
  184.9780  173.7230  136.5990 C   0  0  0  0  0  0  0  0  0  0  0  0
  187.2300  172.6030  136.9360 C   0  0  0  0  0  2  0  0  0  0  0  0
  186.9930  174.9520  137.1720 N   0  0  0  0  0  0  0  0  0  0  0  0
  186.3490  176.1700  136.7490 C   0  0  0  0  0  0  0  0  0  0  0  0
  181.9830  174.8030  137.7880 C   0  0  0  0  0  1  0  0  0  0  0  0
  183.4440  175.1690  137.9500 C   0  0  0  0  0  2  0  0  0  0  0  0
  1 25  1  1  0  0  0
  1  7  1  0  0  0  0
  2 14  1  0  0  0  0
  3  2  1  1  0  0  0
  3 15  1  0  0  0  0
  5  7  1  0  0  0  0
  6 17  1  0  0  0  0
  7  4  1  1  0  0  0
  8  1  1  0  0  0  0
  9 11  2  0  0  0  0
 10 18  2  0  0  0  0
 10 17  1  0  0  0  0
 11 12  1  0  0  0  0
 11 13  1  0  0  0  0
 12 10  1  0  0  0  0
 13  6  1  0  0  0  0
 14 16  1  0  0  0  0
 15  8  2  0  0  0  0
 16  8  1  0  0  0  0
 16  5  1  1  0  0  0
 18 14  2  0  0  0  0
 20 27  2  0  0  0  0
 21 26  2  0  0  0  0
 22 28  1  0  0  0  0
 22 24  1  0  0  0  0
 23 19  1  0  0  0  0
 24 19  2  0  0  0  0
 25 22  2  0  0  0  0
 26 20  1  0  0  0  0
 26 25  1  0  0  0  0
 27 28  1  0  0  0  0
 28 23  2  0  0  0  0
 29 31  1  0  0  0  0
 29 32  1  0  0  0  0
 30  3  1  0  0  0  0
 30 33  1  1  0  0  0
 31 34  1  6  0  0  0
 31 30  1  0  0  0  0
 32 33  1  0  0  0  0
 35 34  1  0  0  0  0
 36 47  1  0  0  0  0
 36 35  1  0  0  0  0
 37 46  1  0  0  0  0
 39 45  1  6  0  0  0
 40 44  2  0  0  0  0
 41 43  1  0  0  0  0
 41 47  2  0  0  0  0
 42 38  1  6  0  0  0
 42 45  1  0  0  0  0
 42 37  1  0  0  0  0
 43 49  1  1  0  0  0
 44 43  1  0  0  0  0
 44 39  1  0  0  0  0
 46 39  1  0  0  0  0
 47 46  1  0  0  0  0
 48 49  1  0  0  0  0
M  END
>  <MODEL>
4

>  <REMARK>
 VINA RESULT:      -8.4      3.648     10.213
  Name = 
  7 active torsions:
  status: ('A' for Active; 'I' for Inactive)
    1  A    between atoms: C_3  and  C_42
    2  A    between atoms: C_8  and  C_14
    3  A    between atoms: C_13  and  N_39
    4  A    between atoms: C_13  and  C_41
    5  A    between atoms: C_18  and  C_47
    6  A    between atoms: C_20  and  C_31
    7  A    between atoms: N_39  and  C_47
                            x       y       z     vdW  Elec       q    Type
                         _______ _______ _______ _____ _____    ______ ____

>  <TORSDO>
F 7

$$$$
=
 OpenBabel10232410553D

 49 56  0  0  1  0  0  0  0  0999 V2000
  181.9230  175.7490  136.5860 C   0  0  1  0  0  3  0  0  0  0  0  0
  185.9820  175.0080  135.6760 C   0  0  0  0  0  2  0  0  0  0  0  0
  185.6770  175.5170  137.0890 C   0  0  2  0  0  3  0  0  0  0  0  0
  180.1700  174.9700  135.0020 C   0  0  0  0  0  1  0  0  0  0  0  0
  182.6050  174.6450  134.5030 C   0  0  0  0  0  2  0  0  0  0  0  0
  184.6840  169.3110  135.3620 C   0  0  0  0  0  2  0  0  0  0  0  0
  181.5490  175.5910  135.1130 C   0  0  2  0  0  3  0  0  0  0  0  0
  183.3260  175.3010  136.6490 C   0  0  0  0  0  0  0  0  0  0  0  0
  188.4010  169.3360  135.4190 O   0  0  0  0  0  0  0  0  0  0  0  0
  185.5970  171.5330  134.7090 C   0  0  0  0  0  0  0  0  0  0  0  0
  187.2670  169.6710  134.9800 C   0  0  0  0  0  0  0  0  0  0  0  0
  186.9460  171.0620  134.8450 N   0  0  0  0  0  2  0  0  0  0  0  0
  186.0540  168.3870  134.5980 S   0  0  0  0  0  0  0  0  0  0  0  0
  184.9520  174.0020  135.2640 C   0  0  0  0  0  0  0  0  0  0  0  0
  184.2900  175.9490  137.2070 N   0  0  0  0  0  0  0  0  0  0  0  0
  183.5170  174.2190  135.6510 C   0  0  2  0  0  3  0  0  0  0  0  0
  184.4500  170.5800  134.5490 C   0  0  0  0  0  2  0  0  0  0  0  0
  185.3180  172.7810  134.9740 C   0  0  0  0  0  0  0  0  0  0  0  0
  180.2140  176.4010  140.5210 C   0  0  0  0  0  3  0  0  0  0  0  0
  181.0600  179.5630  137.3320 C   0  0  0  0  0  3  0  0  0  0  0  0
  182.2620  178.5600  135.5330 O   0  0  0  0  0  0  0  0  0  0  0  0
  181.1010  177.0020  138.5160 C   0  0  0  0  0  0  0  0  0  0  0  0
  179.9820  177.8350  140.2610 N   0  0  0  0  0  0  0  0  0  0  0  0
  180.8940  175.8680  139.3350 N   0  0  0  0  0  0  0  0  0  0  0  0
  181.5850  177.0420  137.2750 C   0  0  0  0  0  0  0  0  0  0  0  0
  181.6830  178.3930  136.6420 C   0  0  0  0  0  0  0  0  0  0  0  0
  180.5000  179.4210  138.5090 N   0  0  0  0  0  0  0  0  0  0  0  0
  180.5620  178.1460  139.1570 C   0  0  0  0  0  0  0  0  0  0  0  0
  186.8540  178.9720  137.0560 O   0  0  0  0  0  0  0  0  0  0  0  0
  186.6410  176.6340  137.5120 C   0  0  2  0  0  3  0  0  0  0  0  0
  185.9540  177.9880  137.4940 C   0  0  1  0  0  3  0  0  0  0  0  0
  187.8790  178.3110  136.3380 C   0  0  0  0  0  2  0  0  0  0  0  0
  187.7100  176.8120  136.4660 C   0  0  0  0  0  2  0  0  0  0  0  0
  185.4470  178.3570  138.8860 C   0  0  0  0  0  2  0  0  0  0  0  0
  186.5740  178.6950  139.7440 N   0  0  0  0  0  2  0  0  0  0  0  0
  186.0530  178.8630  141.1010 C   0  0  0  0  0  2  0  0  0  0  0  0
  185.0920  178.0610  143.7940 C   0  0  0  0  0  2  0  0  0  0  0  0
  185.3430  179.6970  145.5540 N   0  0  0  0  0  1  0  0  0  0  0  0
  187.2480  177.1960  144.4190 C   0  0  1  0  0  3  0  0  0  0  0  0
  189.4250  177.8640  145.4100 C   0  0  0  0  0  2  0  0  0  0  0  0
  188.2610  178.3670  141.9780 N   0  0  0  0  0  0  0  0  0  0  0  0
  185.2230  178.2710  145.2870 C   0  0  2  0  0  3  0  0  0  0  0  0
  189.2450  177.8700  142.9490 C   0  0  1  0  0  3  0  0  0  0  0  0
  188.6360  177.7860  144.3300 C   0  0  0  0  0  0  0  0  0  0  0  0
  186.5120  177.5690  145.7030 C   0  0  0  0  0  2  0  0  0  0  0  0
  186.4210  177.7040  143.3350 N   0  0  0  0  0  0  0  0  0  0  0  0
  186.9700  178.2370  142.1140 C   0  0  0  0  0  0  0  0  0  0  0  0
  190.3990  176.6020  141.1240 C   0  0  0  0  0  1  0  0  0  0  0  0
  189.7540  176.5050  142.4920 C   0  0  0  0  0  2  0  0  0  0  0  0
  1  8  1  0  0  0  0
  1 25  1  6  0  0  0
  3  2  1  6  0  0  0
  3 15  1  0  0  0  0
  3 30  1  0  0  0  0
  5  7  1  0  0  0  0
  7  4  1  1  0  0  0
  7  1  1  0  0  0  0
  8 15  2  0  0  0  0
 10 12  1  0  0  0  0
 10 18  2  0  0  0  0
 11  9  2  0  0  0  0
 12 11  1  0  0  0  0
 13 11  1  0  0  0  0
 13  6  1  0  0  0  0
 14 16  1  0  0  0  0
 14  2  1  0  0  0  0
 16  5  1  6  0  0  0
 16  8  1  0  0  0  0
 17 10  1  0  0  0  0
 17  6  1  0  0  0  0
 18 14  2  0  0  0  0
 20 27  2  0  0  0  0
 21 26  2  0  0  0  0
 22 28  1  0  0  0  0
 22 24  1  0  0  0  0
 23 19  1  0  0  0  0
 24 19  2  0  0  0  0
 25 22  2  0  0  0  0
 26 25  1  0  0  0  0
 26 20  1  0  0  0  0
 27 28  1  0  0  0  0
 28 23  2  0  0  0  0
 29 31  1  0  0  0  0
 30 33  1  6  0  0  0
 31 30  1  0  0  0  0
 31 34  1  1  0  0  0
 32 33  1  0  0  0  0
 32 29  1  0  0  0  0
 34 35  1  0  0  0  0
 35 36  1  0  0  0  0
 36 47  1  0  0  0  0
 37 42  1  0  0  0  0
 39 45  1  1  0  0  0
 41 47  2  0  0  0  0
 41 43  1  0  0  0  0
 42 38  1  6  0  0  0
 42 45  1  0  0  0  0
 43 49  1  6  0  0  0
 43 44  1  0  0  0  0
 44 39  1  0  0  0  0
 44 40  2  0  0  0  0
 46 37  1  0  0  0  0
 46 39  1  0  0  0  0
 47 46  1  0  0  0  0
 48 49  1  0  0  0  0
M  END
>  <MODEL>
5

>  <REMARK>
 VINA RESULT:      -8.1      3.907      6.553
  Name = 
  7 active torsions:
  status: ('A' for Active; 'I' for Inactive)
    1  A    between atoms: C_3  and  C_42
    2  A    between atoms: C_8  and  C_14
    3  A    between atoms: C_13  and  N_39
    4  A    between atoms: C_13  and  C_41
    5  A    between atoms: C_18  and  C_47
    6  A    between atoms: C_20  and  C_31
    7  A    between atoms: N_39  and  C_47
                            x       y       z     vdW  Elec       q    Type
                         _______ _______ _______ _____ _____    ______ ____

>  <TORSDO>
F 7

$$$$
=
 OpenBabel10232410553D

 49 56  0  0  1  0  0  0  0  0999 V2000
  186.5560  177.4590  144.8640 C   0  0  1  0  0  3  0  0  0  0  0  0
  186.3320  179.3090  141.0720 C   0  0  0  0  0  2  0  0  0  0  0  0
  187.2890  178.1180  141.2000 C   0  0  2  0  0  3  0  0  0  0  0  0
  184.8840  178.0650  146.6030 C   0  0  0  0  0  1  0  0  0  0  0  0
  184.8750  179.1720  144.3530 C   0  0  0  0  0  2  0  0  0  0  0  0
  180.8440  177.3270  140.6300 C   0  0  0  0  0  2  0  0  0  0  0  0
  185.7560  178.6020  145.4860 C   0  0  2  0  0  3  0  0  0  0  0  0
  186.4560  177.6980  143.4130 C   0  0  0  0  0  0  0  0  0  0  0  0
  181.6230  178.4560  137.1750 O   0  0  0  0  0  0  0  0  0  0  0  0
  182.7570  178.9190  140.5950 C   0  0  0  0  0  0  0  0  0  0  0  0
  181.5250  178.6000  138.4250 C   0  0  0  0  0  0  0  0  0  0  0  0
  182.6550  179.0710  139.1710 N   0  0  0  0  0  2  0  0  0  0  0  0
  179.9830  178.1410  139.2480 S   0  0  0  0  0  0  0  0  0  0  0  0
  185.0630  179.0240  141.8150 C   0  0  0  0  0  0  0  0  0  0  0  0
  187.4490  177.7160  142.5910 N   0  0  0  0  0  0  0  0  0  0  0  0
  185.1290  178.2970  143.1280 C   0  0  2  0  0  3  0  0  0  0  0  0
  181.6130  178.3910  141.4070 C   0  0  0  0  0  2  0  0  0  0  0  0
  183.9260  179.0020  141.1710 C   0  0  0  0  0  0  0  0  0  0  0  0
  188.2250  178.4240  148.7520 C   0  0  0  0  0  3  0  0  0  0  0  0
  190.4160  176.5470  145.2090 C   0  0  0  0  0  3  0  0  0  0  0  0
  188.8380  176.0280  143.4970 O   0  0  0  0  0  0  0  0  0  0  0  0
  188.2050  177.5180  146.6680 C   0  0  0  0  0  0  0  0  0  0  0  0
  189.5890  178.0380  148.3420 N   0  0  0  0  0  0  0  0  0  0  0  0
  187.3490  178.1290  147.6130 N   0  0  0  0  0  0  0  0  0  0  0  0
  187.9220  177.1580  145.4160 C   0  0  0  0  0  0  0  0  0  0  0  0
  189.0360  176.5380  144.6350 C   0  0  0  0  0  0  0  0  0  0  0  0
  190.6340  177.0240  146.4110 N   0  0  0  0  0  0  0  0  0  0  0  0
  189.5200  177.4650  147.1930 C   0  0  0  0  0  0  0  0  0  0  0  0
  190.2340  177.1550  139.2700 O   0  0  0  0  0  0  0  0  0  0  0  0
  188.6480  178.4080  140.5490 C   0  0  2  0  0  3  0  0  0  0  0  0
  188.8790  177.5170  139.3410 C   0  0  1  0  0  3  0  0  0  0  0  0
  190.7800  177.3230  140.5650 C   0  0  0  0  0  2  0  0  0  0  0  0
  189.7610  177.9820  141.4700 C   0  0  0  0  0  2  0  0  0  0  0  0
  188.4840  178.2360  138.0530 C   0  0  0  0  0  2  0  0  0  0  0  0
  189.4960  178.0010  137.0310 N   0  0  0  0  0  2  0  0  0  0  0  0
  188.7950  177.6430  135.7990 C   0  0  0  0  0  2  0  0  0  0  0  0
  185.9020  177.0100  135.5740 C   0  0  0  0  0  2  0  0  0  0  0  0
  184.6770  176.8330  137.6490 N   0  0  0  0  0  1  0  0  0  0  0  0
  186.3030  174.6430  135.7170 C   0  0  1  0  0  3  0  0  0  0  0  0
  186.5680  172.7860  137.3440 C   0  0  0  0  0  2  0  0  0  0  0  0
  189.0430  175.2970  136.3640 N   0  0  0  0  0  0  0  0  0  0  0  0
  184.6910  176.4100  136.2550 C   0  0  2  0  0  3  0  0  0  0  0  0
  188.6200  173.9010  136.5460 C   0  0  1  0  0  3  0  0  0  0  0  0
  187.1160  173.8140  136.6830 C   0  0  0  0  0  0  0  0  0  0  0  0
  184.8740  174.8970  136.1890 C   0  0  0  0  0  2  0  0  0  0  0  0
  186.9020  175.9600  135.5640 N   0  0  0  0  0  0  0  0  0  0  0  0
  188.2870  176.2290  135.8550 C   0  0  0  0  0  0  0  0  0  0  0  0
  190.5970  172.8040  135.4710 C   0  0  0  0  0  1  0  0  0  0  0  0
  189.1100  173.0720  135.3620 C   0  0  0  0  0  2  0  0  0  0  0  0
  1 25  1  1  0  0  0
  1  7  1  0  0  0  0
  2 14  1  0  0  0  0
  3  2  1  1  0  0  0
  3 15  1  0  0  0  0
  5  7  1  0  0  0  0
  6 17  1  0  0  0  0
  7  4  1  1  0  0  0
  8  1  1  0  0  0  0
  9 11  2  0  0  0  0
 10 18  2  0  0  0  0
 10 17  1  0  0  0  0
 11 12  1  0  0  0  0
 11 13  1  0  0  0  0
 12 10  1  0  0  0  0
 13  6  1  0  0  0  0
 14 16  1  0  0  0  0
 15  8  2  0  0  0  0
 16  8  1  0  0  0  0
 16  5  1  1  0  0  0
 18 14  2  0  0  0  0
 20 27  2  0  0  0  0
 21 26  2  0  0  0  0
 22 28  1  0  0  0  0
 22 24  1  0  0  0  0
 23 19  1  0  0  0  0
 24 19  2  0  0  0  0
 25 22  2  0  0  0  0
 26 20  1  0  0  0  0
 26 25  1  0  0  0  0
 27 28  1  0  0  0  0
 28 23  2  0  0  0  0
 29 31  1  0  0  0  0
 29 32  1  0  0  0  0
 30  3  1  0  0  0  0
 30 33  1  1  0  0  0
 31 34  1  6  0  0  0
 31 30  1  0  0  0  0
 32 33  1  0  0  0  0
 35 34  1  0  0  0  0
 36 47  1  0  0  0  0
 36 35  1  0  0  0  0
 37 42  1  0  0  0  0
 39 45  1  1  0  0  0
 39 44  1  0  0  0  0
 41 43  1  0  0  0  0
 42 38  1  1  0  0  0
 43 49  1  6  0  0  0
 43 44  1  0  0  0  0
 44 40  2  0  0  0  0
 45 42  1  0  0  0  0
 46 37  1  0  0  0  0
 46 39  1  0  0  0  0
 46 47  1  0  0  0  0
 47 41  2  0  0  0  0
 49 48  1  0  0  0  0
M  END
>  <MODEL>
6

>  <REMARK>
 VINA RESULT:      -8.0      3.566     10.487
  Name = 
  7 active torsions:
  status: ('A' for Active; 'I' for Inactive)
    1  A    between atoms: C_3  and  C_42
    2  A    between atoms: C_8  and  C_14
    3  A    between atoms: C_13  and  N_39
    4  A    between atoms: C_13  and  C_41
    5  A    between atoms: C_18  and  C_47
    6  A    between atoms: C_20  and  C_31
    7  A    between atoms: N_39  and  C_47
                            x       y       z     vdW  Elec       q    Type
                         _______ _______ _______ _____ _____    ______ ____

>  <TORSDO>
F 7

$$$$
=
 OpenBabel10232410553D

 49 56  0  0  1  0  0  0  0  0999 V2000
  188.3090  176.1300  136.7320 C   0  0  1  0  0  3  0  0  0  0  0  0
  191.2080  177.0540  139.6640 C   0  0  0  0  0  2  0  0  0  0  0  0
  190.0200  176.1970  140.1180 C   0  0  2  0  0  3  0  0  0  0  0  0
  188.8050  176.6300  134.3460 C   0  0  0  0  0  1  0  0  0  0  0  0
  190.4330  177.2180  136.1600 C   0  0  0  0  0  2  0  0  0  0  0  0
  194.9910  173.6930  136.7240 C   0  0  0  0  0  2  0  0  0  0  0  0
  188.9420  177.1330  135.7690 C   0  0  2  0  0  3  0  0  0  0  0  0
  189.2770  176.0370  137.8400 C   0  0  0  0  0  0  0  0  0  0  0  0
  196.7020  174.2590  139.9760 O   0  0  0  0  0  0  0  0  0  0  0  0
  194.0710  175.6790  137.9120 C   0  0  0  0  0  0  0  0  0  0  0  0
  196.1220  174.6230  138.9160 C   0  0  0  0  0  0  0  0  0  0  0  0
  194.9970  175.5070  138.9950 N   0  0  0  0  0  2  0  0  0  0  0  0
  196.6860  173.9630  137.3300 S   0  0  0  0  0  0  0  0  0  0  0  0
  191.6650  176.6120  138.3080 C   0  0  0  0  0  0  0  0  0  0  0  0
  188.9880  176.1400  139.0920 N   0  0  0  0  0  0  0  0  0  0  0  0
  190.6430  176.2080  137.2840 C   0  0  2  0  0  3  0  0  0  0  0  0
  194.3150  175.0520  136.5720 C   0  0  0  0  0  2  0  0  0  0  0  0
  192.8850  176.1710  138.1470 C   0  0  0  0  0  0  0  0  0  0  0  0
  185.1220  173.1870  136.8280 C   0  0  0  0  0  3  0  0  0  0  0  0
  184.7250  177.6920  137.4800 C   0  0  0  0  0  3  0  0  0  0  0  0
  186.9000  178.6650  137.5760 O   0  0  0  0  0  0  0  0  0  0  0  0
  186.0640  175.2380  137.0980 C   0  0  0  0  0  0  0  0  0  0  0  0
  184.0790  174.2170  137.0010 N   0  0  0  0  0  0  0  0  0  0  0  0
  186.4080  173.8920  136.8350 N   0  0  0  0  0  0  0  0  0  0  0  0
  186.8620  176.3050  137.0990 C   0  0  0  0  0  0  0  0  0  0  0  0
  186.2160  177.6190  137.4030 C   0  0  0  0  0  0  0  0  0  0  0  0
  183.9980  176.6080  137.3570 N   0  0  0  0  0  0  0  0  0  0  0  0
  184.6560  175.3440  137.2230 C   0  0  0  0  0  0  0  0  0  0  0  0
  189.8730  178.5170  142.9320 O   0  0  0  0  0  0  0  0  0  0  0  0
  189.4450  176.6860  141.4550 C   0  0  2  0  0  3  0  0  0  0  0  0
  189.5900  178.1910  141.5960 C   0  0  1  0  0  3  0  0  0  0  0  0
  190.3990  177.3550  143.5440 C   0  0  0  0  0  2  0  0  0  0  0  0
  190.2920  176.1820  142.5930 C   0  0  0  0  0  2  0  0  0  0  0  0
  188.3090  178.9020  141.1670 C   0  0  0  0  0  2  0  0  0  0  0  0
  187.1580  178.2470  141.7750 N   0  0  0  0  0  2  0  0  0  0  0  0
  185.9600  178.7940  141.1390 C   0  0  0  0  0  2  0  0  0  0  0  0
  183.3550  177.6540  140.2840 C   0  0  0  0  0  2  0  0  0  0  0  0
  181.7400  179.2160  139.3950 N   0  0  0  0  0  1  0  0  0  0  0  0
  182.3700  178.0130  142.4490 C   0  0  1  0  0  3  0  0  0  0  0  0
  181.1660  179.7080  143.8080 C   0  0  0  0  0  2  0  0  0  0  0  0
  184.7550  179.5010  143.1230 N   0  0  0  0  0  0  0  0  0  0  0  0
  181.8840  177.9230  140.0480 C   0  0  2  0  0  3  0  0  0  0  0  0
  183.6190  179.5870  144.0520 C   0  0  1  0  0  3  0  0  0  0  0  0
  182.3290  179.2250  143.3510 C   0  0  0  0  0  0  0  0  0  0  0  0
  181.2360  177.9790  141.4280 C   0  0  0  0  0  2  0  0  0  0  0  0
  183.5970  178.0150  141.6680 N   0  0  0  0  0  0  0  0  0  0  0  0
  184.7790  178.7350  142.0680 C   0  0  0  0  0  0  0  0  0  0  0  0
  185.3440  178.6490  145.6060 C   0  0  0  0  0  1  0  0  0  0  0  0
  183.8730  178.6630  145.2400 C   0  0  0  0  0  2  0  0  0  0  0  0
  1 25  1  1  0  0  0
  1  8  1  0  0  0  0
  3  2  1  6  0  0  0
  3 30  1  0  0  0  0
  6 13  1  0  0  0  0
  7  4  1  6  0  0  0
  7  5  1  0  0  0  0
  7  1  1  0  0  0  0
  8 15  2  0  0  0  0
 10 18  2  0  0  0  0
 10 12  1  0  0  0  0
 11 12  1  0  0  0  0
 11  9  2  0  0  0  0
 13 11  1  0  0  0  0
 14  2  1  0  0  0  0
 15  3  1  0  0  0  0
 16  5  1  6  0  0  0
 16  8  1  0  0  0  0
 16 14  1  0  0  0  0
 17  6  1  0  0  0  0
 17 10  1  0  0  0  0
 18 14  2  0  0  0  0
 19 24  2  0  0  0  0
 19 23  1  0  0  0  0
 22 25  2  0  0  0  0
 22 28  1  0  0  0  0
 23 28  2  0  0  0  0
 24 22  1  0  0  0  0
 25 26  1  0  0  0  0
 26 20  1  0  0  0  0
 26 21  2  0  0  0  0
 27 20  2  0  0  0  0
 28 27  1  0  0  0  0
 29 32  1  0  0  0  0
 30 31  1  0  0  0  0
 30 33  1  1  0  0  0
 31 34  1  1  0  0  0
 31 29  1  0  0  0  0
 33 32  1  0  0  0  0
 34 35  1  0  0  0  0
 36 35  1  0  0  0  0
 36 47  1  0  0  0  0
 37 46  1  0  0  0  0
 39 45  1  6  0  0  0
 39 44  1  0  0  0  0
 41 43  1  0  0  0  0
 42 38  1  1  0  0  0
 42 37  1  0  0  0  0
 42 45  1  0  0  0  0
 43 49  1  1  0  0  0
 44 40  2  0  0  0  0
 44 43  1  0  0  0  0
 46 47  1  0  0  0  0
 46 39  1  0  0  0  0
 47 41  2  0  0  0  0
 49 48  1  0  0  0  0
M  END
>  <MODEL>
7

>  <REMARK>
 VINA RESULT:      -7.9      2.375      4.652
  Name = 
  7 active torsions:
  status: ('A' for Active; 'I' for Inactive)
    1  A    between atoms: C_3  and  C_42
    2  A    between atoms: C_8  and  C_14
    3  A    between atoms: C_13  and  N_39
    4  A    between atoms: C_13  and  C_41
    5  A    between atoms: C_18  and  C_47
    6  A    between atoms: C_20  and  C_31
    7  A    between atoms: N_39  and  C_47
                            x       y       z     vdW  Elec       q    Type
                         _______ _______ _______ _____ _____    ______ ____

>  <TORSDO>
F 7

$$$$
=
 OpenBabel10232410553D

 49 56  0  0  1  0  0  0  0  0999 V2000
  188.8360  176.3360  136.8110 C   0  0  1  0  0  3  0  0  0  0  0  0
  192.2340  176.9270  139.2510 C   0  0  0  0  0  2  0  0  0  0  0  0
  191.0480  176.1960  139.8910 C   0  0  2  0  0  3  0  0  0  0  0  0
  189.0060  176.8010  134.3730 C   0  0  0  0  0  1  0  0  0  0  0  0
  190.9480  177.2010  135.9080 C   0  0  0  0  0  2  0  0  0  0  0  0
  195.1440  173.2140  135.7890 C   0  0  0  0  0  2  0  0  0  0  0  0
  189.4140  177.2760  135.7540 C   0  0  2  0  0  3  0  0  0  0  0  0
  189.9490  176.1330  137.7570 C   0  0  0  0  0  0  0  0  0  0  0  0
  197.3870  173.5710  138.7320 O   0  0  0  0  0  0  0  0  0  0  0  0
  194.6320  175.2750  137.0890 C   0  0  0  0  0  0  0  0  0  0  0  0
  196.6920  174.0020  137.7720 C   0  0  0  0  0  0  0  0  0  0  0  0
  195.6910  174.9990  138.0170 N   0  0  0  0  0  2  0  0  0  0  0  0
  196.9310  173.3000  136.1240 S   0  0  0  0  0  0  0  0  0  0  0  0
  192.4270  176.4520  137.8440 C   0  0  0  0  0  0  0  0  0  0  0  0
  189.8690  176.2560  139.0370 N   0  0  0  0  0  0  0  0  0  0  0  0
  191.2220  176.1650  136.9950 C   0  0  2  0  0  3  0  0  0  0  0  0
  194.5980  174.6370  135.7320 C   0  0  0  0  0  2  0  0  0  0  0  0
  193.5540  175.8870  137.5000 C   0  0  0  0  0  0  0  0  0  0  0  0
  185.2170  173.9430  136.8640 C   0  0  0  0  0  3  0  0  0  0  0  0
  185.6790  178.2600  138.2870 C   0  0  0  0  0  3  0  0  0  0  0  0
  187.9870  178.8580  138.2400 O   0  0  0  0  0  0  0  0  0  0  0  0
  186.5230  175.7430  137.3310 C   0  0  0  0  0  0  0  0  0  0  0  0
  184.3930  175.0700  137.3430 N   0  0  0  0  0  0  0  0  0  0  0  0
  186.5990  174.4320  136.8080 N   0  0  0  0  0  0  0  0  0  0  0  0
  187.4900  176.6580  137.3970 C   0  0  0  0  0  0  0  0  0  0  0  0
  187.1170  177.9770  137.9950 C   0  0  0  0  0  0  0  0  0  0  0  0
  184.7660  177.3400  138.0890 N   0  0  0  0  0  0  0  0  0  0  0  0
  185.1770  176.0370  137.6640 C   0  0  0  0  0  0  0  0  0  0  0  0
  190.1270  178.8490  142.2230 O   0  0  0  0  0  0  0  0  0  0  0  0
  190.7410  176.7320  141.2960 C   0  0  2  0  0  3  0  0  0  0  0  0
  189.7840  177.9090  141.2380 C   0  0  1  0  0  3  0  0  0  0  0  0
  191.4790  178.6180  142.5680 C   0  0  0  0  0  2  0  0  0  0  0  0
  191.9750  177.3610  141.8870 C   0  0  0  0  0  2  0  0  0  0  0  0
  188.3450  177.4500  141.4610 C   0  0  0  0  0  2  0  0  0  0  0  0
  188.3000  176.4980  142.5630 N   0  0  0  0  0  2  0  0  0  0  0  0
  187.4080  177.0520  143.5800 C   0  0  0  0  0  2  0  0  0  0  0  0
  185.8740  177.4410  146.0940 C   0  0  0  0  0  2  0  0  0  0  0  0
  185.6160  179.7200  146.8520 N   0  0  0  0  0  1  0  0  0  0  0  0
  187.8600  177.3140  147.4460 C   0  0  1  0  0  3  0  0  0  0  0  0
  189.7020  178.6980  148.3730 C   0  0  0  0  0  2  0  0  0  0  0  0
  189.3640  177.3720  144.9790 N   0  0  0  0  0  0  0  0  0  0  0  0
  185.6340  178.3330  147.2930 C   0  0  2  0  0  3  0  0  0  0  0  0
  190.1130  177.5410  146.2320 C   0  0  1  0  0  3  0  0  0  0  0  0
  189.1970  178.0080  147.3410 C   0  0  0  0  0  0  0  0  0  0  0  0
  186.8210  178.1160  148.2270 C   0  0  0  0  0  2  0  0  0  0  0  0
  187.2900  177.1270  146.1210 N   0  0  0  0  0  0  0  0  0  0  0  0
  188.0870  177.1170  144.9200 C   0  0  0  0  0  0  0  0  0  0  0  0
  191.9000  175.8960  145.6250 C   0  0  0  0  0  1  0  0  0  0  0  0
  190.7830  176.2190  146.5970 C   0  0  0  0  0  2  0  0  0  0  0  0
  1 25  1  1  0  0  0
  1  8  1  0  0  0  0
  3  2  1  6  0  0  0
  3 30  1  0  0  0  0
  6 13  1  0  0  0  0
  7  4  1  6  0  0  0
  7  5  1  0  0  0  0
  7  1  1  0  0  0  0
  8 15  2  0  0  0  0
 10 18  2  0  0  0  0
 10 12  1  0  0  0  0
 11 12  1  0  0  0  0
 11  9  2  0  0  0  0
 13 11  1  0  0  0  0
 14  2  1  0  0  0  0
 15  3  1  0  0  0  0
 16  5  1  6  0  0  0
 16  8  1  0  0  0  0
 16 14  1  0  0  0  0
 17  6  1  0  0  0  0
 17 10  1  0  0  0  0
 18 14  2  0  0  0  0
 19 23  1  0  0  0  0
 22 25  2  0  0  0  0
 22 28  1  0  0  0  0
 23 28  2  0  0  0  0
 24 19  2  0  0  0  0
 24 22  1  0  0  0  0
 25 26  1  0  0  0  0
 26 21  2  0  0  0  0
 26 20  1  0  0  0  0
 27 20  2  0  0  0  0
 28 27  1  0  0  0  0
 29 32  1  0  0  0  0
 30 33  1  6  0  0  0
 31 30  1  0  0  0  0
 31 34  1  1  0  0  0
 31 29  1  0  0  0  0
 33 32  1  0  0  0  0
 34 35  1  0  0  0  0
 35 36  1  0  0  0  0
 36 47  1  0  0  0  0
 37 46  1  0  0  0  0
 37 42  1  0  0  0  0
 39 45  1  1  0  0  0
 41 43  1  0  0  0  0
 42 38  1  6  0  0  0
 42 45  1  0  0  0  0
 43 49  1  1  0  0  0
 43 44  1  0  0  0  0
 44 39  1  0  0  0  0
 44 40  2  0  0  0  0
 46 39  1  0  0  0  0
 47 41  2  0  0  0  0
 47 46  1  0  0  0  0
 48 49  1  0  0  0  0
M  END
>  <MODEL>
8

>  <REMARK>
 VINA RESULT:      -7.3      1.781      3.050
  Name = 
  7 active torsions:
  status: ('A' for Active; 'I' for Inactive)
    1  A    between atoms: C_3  and  C_42
    2  A    between atoms: C_8  and  C_14
    3  A    between atoms: C_13  and  N_39
    4  A    between atoms: C_13  and  C_41
    5  A    between atoms: C_18  and  C_47
    6  A    between atoms: C_20  and  C_31
    7  A    between atoms: N_39  and  C_47
                            x       y       z     vdW  Elec       q    Type
                         _______ _______ _______ _____ _____    ______ ____

>  <TORSDO>
F 7

$$$$
=
 OpenBabel10232410553D

 49 56  0  0  1  0  0  0  0  0999 V2000
  182.0810  176.0990  137.3940 C   0  0  1  0  0  3  0  0  0  0  0  0
  185.8360  175.1610  135.7000 C   0  0  0  0  0  2  0  0  0  0  0  0
  185.8450  175.6970  137.1360 C   0  0  2  0  0  3  0  0  0  0  0  0
  180.0120  175.3880  136.2100 C   0  0  0  0  0  1  0  0  0  0  0  0
  182.2800  174.9450  135.2380 C   0  0  0  0  0  2  0  0  0  0  0  0
  184.2530  169.5270  135.7610 C   0  0  0  0  0  2  0  0  0  0  0  0
  181.4110  175.9450  136.0300 C   0  0  2  0  0  3  0  0  0  0  0  0
  183.4470  175.5860  137.1830 C   0  0  0  0  0  0  0  0  0  0  0  0
  187.9030  169.3800  135.0690 O   0  0  0  0  0  0  0  0  0  0  0  0
  185.1120  171.6980  134.8970 C   0  0  0  0  0  0  0  0  0  0  0  0
  186.7190  169.7630  134.8600 C   0  0  0  0  0  0  0  0  0  0  0  0
  186.4390  171.1660  134.7670 N   0  0  0  0  0  2  0  0  0  0  0  0
  185.3990  168.5340  134.7540 S   0  0  0  0  0  0  0  0  0  0  0  0
  184.7010  174.2000  135.5230 C   0  0  0  0  0  0  0  0  0  0  0  0
  184.5320  176.1940  137.5220 N   0  0  0  0  0  0  0  0  0  0  0  0
  183.3850  174.4880  136.1870 C   0  0  2  0  0  3  0  0  0  0  0  0
  183.9160  170.7980  134.9880 C   0  0  0  0  0  2  0  0  0  0  0  0
  184.9480  172.9610  135.1880 C   0  0  0  0  0  0  0  0  0  0  0  0
  180.8450  179.9630  135.8540 C   0  0  0  0  0  3  0  0  0  0  0  0
  182.4220  179.0500  140.0440 C   0  0  0  0  0  3  0  0  0  0  0  0
  182.6360  176.6890  140.3040 O   0  0  0  0  0  0  0  0  0  0  0  0
  181.5040  178.4740  137.4390 C   0  0  0  0  0  0  0  0  0  0  0  0
  181.2550  180.6650  137.0860 N   0  0  0  0  0  0  0  0  0  0  0  0
  181.0770  178.5340  136.0930 N   0  0  0  0  0  0  0  0  0  0  0  0
  181.9470  177.4130  138.1130 C   0  0  0  0  0  0  0  0  0  0  0  0
  182.3460  177.6470  139.5350 C   0  0  0  0  0  0  0  0  0  0  0  0
  182.0740  180.0560  139.2780 N   0  0  0  0  0  0  0  0  0  0  0  0
  181.5480  179.7850  137.9760 C   0  0  0  0  0  0  0  0  0  0  0  0
  186.9630  179.1620  137.4030 O   0  0  0  0  0  0  0  0  0  0  0  0
  186.9240  176.7720  137.3350 C   0  0  2  0  0  3  0  0  0  0  0  0
  186.3370  178.0300  137.9500 C   0  0  1  0  0  3  0  0  0  0  0  0
  187.5320  178.7690  136.1690 C   0  0  0  0  0  2  0  0  0  0  0  0
  187.4030  177.2710  135.9980 C   0  0  0  0  0  2  0  0  0  0  0  0
  186.5280  178.0340  139.4650 C   0  0  0  0  0  2  0  0  0  0  0  0
  187.8570  178.5320  139.7900 N   0  0  0  0  0  2  0  0  0  0  0  0
  188.5090  177.5220  140.6220 C   0  0  0  0  0  2  0  0  0  0  0  0
  190.7730  177.9790  142.4880 C   0  0  0  0  0  2  0  0  0  0  0  0
  191.6070  176.0380  143.6600 N   0  0  0  0  0  1  0  0  0  0  0  0
  189.2980  178.3540  144.3510 C   0  0  1  0  0  3  0  0  0  0  0  0
  188.0680  177.1730  146.1570 C   0  0  0  0  0  2  0  0  0  0  0  0
  187.1450  177.4860  142.6290 N   0  0  0  0  0  0  0  0  0  0  0  0
  191.5040  177.4890  143.7200 C   0  0  2  0  0  3  0  0  0  0  0  0
  186.8480  177.6340  144.0610 C   0  0  1  0  0  3  0  0  0  0  0  0
  188.1190  177.5700  144.8780 C   0  0  0  0  0  0  0  0  0  0  0  0
  190.6380  177.8840  144.9120 C   0  0  0  0  0  2  0  0  0  0  0  0
  189.4010  178.1900  142.9100 N   0  0  0  0  0  0  0  0  0  0  0  0
  188.2870  177.7990  142.0830 C   0  0  0  0  0  0  0  0  0  0  0  0
  184.8660  178.7450  145.1110 C   0  0  0  0  0  1  0  0  0  0  0  0
  186.1190  178.9560  144.2860 C   0  0  0  0  0  2  0  0  0  0  0  0
  1 25  1  6  0  0  0
  3  2  1  6  0  0  0
  3 30  1  0  0  0  0
  3 15  1  0  0  0  0
  5  7  1  0  0  0  0
  7  4  1  1  0  0  0
  7  1  1  0  0  0  0
  8  1  1  0  0  0  0
  8 15  2  0  0  0  0
 10 17  1  0  0  0  0
 10 18  2  0  0  0  0
 11  9  2  0  0  0  0
 12 11  1  0  0  0  0
 12 10  1  0  0  0  0
 13 11  1  0  0  0  0
 13  6  1  0  0  0  0
 14  2  1  0  0  0  0
 14 16  1  0  0  0  0
 16  5  1  6  0  0  0
 16  8  1  0  0  0  0
 17  6  1  0  0  0  0
 18 14  2  0  0  0  0
 19 24  2  0  0  0  0
 19 23  1  0  0  0  0
 22 28  1  0  0  0  0
 22 25  2  0  0  0  0
 23 28  2  0  0  0  0
 24 22  1  0  0  0  0
 25 26  1  0  0  0  0
 26 20  1  0  0  0  0
 26 21  2  0  0  0  0
 27 20  2  0  0  0  0
 28 27  1  0  0  0  0
 29 31  1  0  0  0  0
 30 33  1  6  0  0  0
 30 31  1  0  0  0  0
 31 34  1  1  0  0  0
 32 29  1  0  0  0  0
 33 32  1  0  0  0  0
 34 35  1  0  0  0  0
 35 36  1  0  0  0  0
 36 47  1  0  0  0  0
 37 46  1  0  0  0  0
 37 42  1  0  0  0  0
 39 44  1  0  0  0  0
 39 45  1  1  0  0  0
 41 43  1  0  0  0  0
 42 38  1  6  0  0  0
 42 45  1  0  0  0  0
 43 49  1  6  0  0  0
 43 44  1  0  0  0  0
 44 40  2  0  0  0  0
 46 39  1  0  0  0  0
 47 41  2  0  0  0  0
 47 46  1  0  0  0  0
 49 48  1  0  0  0  0
M  END
>  <MODEL>
9

>  <REMARK>
 VINA RESULT:      -7.2      3.912      6.349
  Name = 
  7 active torsions:
  status: ('A' for Active; 'I' for Inactive)
    1  A    between atoms: C_3  and  C_42
    2  A    between atoms: C_8  and  C_14
    3  A    between atoms: C_13  and  N_39
    4  A    between atoms: C_13  and  C_41
    5  A    between atoms: C_18  and  C_47
    6  A    between atoms: C_20  and  C_31
    7  A    between atoms: N_39  and  C_47
                            x       y       z     vdW  Elec       q    Type
                         _______ _______ _______ _____ _____    ______ ____

>  <TORSDO>
F 7

$$$$
