=
 OpenBabel10232412123D

 39 41  0  0  1  0  0  0  0  0999 V2000
  190.4380  177.1820  137.7130 N   0  0  0  0  0  0  0  0  0  0  0  0
  190.0100  177.6240  138.8630 C   0  0  0  0  0  0  0  0  0  0  0  0
  192.4130  175.9080  138.0680 N   0  0  0  0  0  0  0  0  0  0  0  0
  194.3040  174.1280  138.0040 C   0  0  1  0  0  3  0  0  0  0  0  0
  192.2810  174.1940  136.5890 C   0  0  0  0  0  0  0  0  0  0  0  0
  191.2950  176.0620  137.4350 C   0  0  0  0  0  0  0  0  0  0  0  0
  194.8640  173.2500  136.9700 N   0  0  0  0  0  2  0  0  0  0  0  0
  191.0740  175.0260  136.3700 C   0  0  0  0  0  2  0  0  0  0  0  0
  195.2710  175.1580  138.3380 N   0  0  0  0  0  1  0  0  0  0  0  0
  192.6790  172.9500  135.8530 C   0  0  2  0  0  3  0  0  0  0  0  0
  191.6070  172.0800  135.7990 F   0  0  0  0  0  0  0  0  0  0  0  0
  193.0310  174.7560  137.5160 C   0  0  0  0  0  0  0  0  0  0  0  0
  193.8550  172.2650  136.5650 C   0  0  1  0  0  3  0  0  0  0  0  0
  194.4310  171.3390  135.7160 F   0  0  0  0  0  0  0  0  0  0  0  0
  191.4670  177.7670  140.9110 N   0  0  0  0  0  2  0  0  0  0  0  0
  189.8150  176.0950  140.7020 N   0  0  0  0  0  2  0  0  0  0  0  0
  190.4640  177.0750  140.1610 C   0  0  0  0  0  0  0  0  0  0  0  0
  191.9190  177.3180  142.2230 C   0  0  0  0  0  2  0  0  0  0  0  0
  191.6780  178.3910  143.2730 C   0  0  0  0  0  2  0  0  0  0  0  0
  189.4830  176.6140  147.4290 C   0  0  0  0  0  1  0  0  0  0  0  0
  189.4330  177.5860  144.7970 O   0  0  0  0  0  0  0  0  0  0  0  0
  190.6730  177.0290  146.7020 N   0  0  0  0  0  0  0  0  0  0  0  0
  191.7440  177.8170  144.6080 N   0  0  0  0  0  2  0  0  0  0  0  0
  190.5660  177.4800  145.3430 C   0  0  0  0  0  0  0  0  0  0  0  0
  191.9280  176.8240  147.2970 N   0  0  0  0  0  2  0  0  0  0  0  0
  192.0550  175.4030  147.5890 C   0  0  0  0  0  1  0  0  0  0  0  0
  189.0840  178.8100  138.8390 C   0  0  1  0  0  3  0  0  0  0  0  0
  188.8950  179.2900  137.5440 O   0  0  0  0  0  1  0  0  0  0  0  0
  187.5690  178.9320  140.8550 N   0  0  0  0  0  2  0  0  0  0  0  0
  187.7650  178.5310  139.4930 C   0  0  0  0  0  0  0  0  0  0  0  0
  186.8210  178.0170  138.8340 O   0  0  0  0  0  0  0  0  0  0  0  0
  186.3410  178.0520  144.0940 C   0  0  0  0  0  3  0  0  0  0  0  0
  185.1300  178.4830  144.4500 C   0  0  0  0  0  0  0  0  0  0  0  0
  185.2310  179.0560  141.4230 C   0  0  0  0  0  3  0  0  0  0  0  0
  184.0160  178.7860  142.2170 C   0  0  0  0  0  3  0  0  0  0  0  0
  186.6640  177.5360  142.7310 C   0  0  0  0  0  2  0  0  0  0  0  0
  184.8660  178.9140  146.1270 Cl  0  0  0  0  0  0  0  0  0  0  0  0
  186.4550  178.5790  141.6830 C   0  0  0  0  0  0  0  0  0  0  0  0
  183.9730  178.5370  143.5320 C   0  0  0  0  0  3  0  0  0  0  0  0
  1  2  2  0  0  0  0
  2 17  1  0  0  0  0
  4  9  1  6  0  0  0
  5 12  2  0  0  0  0
  6  1  1  0  0  0  0
  6  3  2  0  0  0  0
  7  4  1  0  0  0  0
  8  5  1  0  0  0  0
  8  6  1  0  0  0  0
 10 11  1  1  0  0  0
 10 13  1  0  0  0  0
 10  5  1  0  0  0  0
 12  4  1  0  0  0  0
 12  3  1  0  0  0  0
 13 14  1  6  0  0  0
 13  7  1  0  0  0  0
 15 18  1  0  0  0  0
 17 16  2  0  0  0  0
 17 15  1  0  0  0  0
 18 19  1  0  0  0  0
 19 23  1  0  0  0  0
 21 24  2  0  0  0  0
 22 25  1  0  0  0  0
 22 20  1  0  0  0  0
 23 24  1  0  0  0  0
 24 22  1  0  0  0  0
 25 26  1  0  0  0  0
 27 28  1  6  0  0  0
 27  2  1  0  0  0  0
 27 30  1  0  0  0  0
 29 38  1  0  0  0  0
 30 29  1  0  0  0  0
 31 30  2  0  0  0  0
 32 33  2  0  0  0  0
 33 37  1  0  0  0  0
 34 38  2  0  0  0  0
 34 35  1  0  0  0  0
 35 39  2  0  0  0  0
 36 32  1  0  0  0  0
 38 36  1  0  0  0  0
 39 33  1  0  0  0  0
M  END
>  <MODEL>
1

>  <REMARK>
 VINA RESULT:      -8.5      0.000      0.000
  Name = 
  9 active torsions:
  status: ('A' for Active; 'I' for Inactive)
    1  A    between atoms: N_5  and  N_26
    2  A    between atoms: C_8  and  N_14
    3  A    between atoms: N_10  and  C_29
    4  A    between atoms: C_16  and  C_17
    5  A    between atoms: C_16  and  C_32
    6  A    between atoms: C_28  and  N_30
    7  A    between atoms: C_28  and  C_35
    8  A    between atoms: C_32  and  C_39
    9  A    between atoms: C_35  and  N_36
                            x       y       z     vdW  Elec       q    Type
                         _______ _______ _______ _____ _____    ______ ____

>  <TORSDO>
F 9

$$$$
=
 OpenBabel10232412123D

 39 41  0  0  1  0  0  0  0  0999 V2000
  186.0320  178.5970  141.7410 N   0  0  0  0  0  0  0  0  0  0  0  0
  184.8680  178.9600  141.2780 C   0  0  0  0  0  0  0  0  0  0  0  0
  187.3950  178.6350  139.7940 N   0  0  0  0  0  0  0  0  0  0  0  0
  189.2960  178.3430  138.0470 C   0  0  1  0  0  3  0  0  0  0  0  0
  189.2320  177.4220  140.3370 C   0  0  0  0  0  0  0  0  0  0  0  0
  187.2280  178.2580  141.0200 C   0  0  0  0  0  0  0  0  0  0  0  0
  190.3060  177.3130  137.7790 N   0  0  0  0  0  2  0  0  0  0  0  0
  188.3450  177.3900  141.5250 C   0  0  0  0  0  2  0  0  0  0  0  0
  188.3050  178.3360  136.9850 N   0  0  0  0  0  1  0  0  0  0  0  0
  190.5650  176.7560  140.1750 C   0  0  2  0  0  3  0  0  0  0  0  0
  191.3620  177.0420  141.2670 F   0  0  0  0  0  0  0  0  0  0  0  0
  188.6340  178.0890  139.3700 C   0  0  0  0  0  0  0  0  0  0  0  0
  191.2550  177.2560  138.8970 C   0  0  1  0  0  3  0  0  0  0  0  0
  192.2960  176.4060  138.5730 F   0  0  0  0  0  0  0  0  0  0  0  0
  184.1330  177.7570  139.1910 N   0  0  0  0  0  2  0  0  0  0  0  0
  184.4220  180.1000  139.2140 N   0  0  0  0  0  2  0  0  0  0  0  0
  184.5390  178.9710  139.8340 C   0  0  0  0  0  0  0  0  0  0  0  0
  183.7370  177.7050  137.7890 C   0  0  0  0  0  2  0  0  0  0  0  0
  184.8050  177.0200  136.9520 C   0  0  0  0  0  2  0  0  0  0  0  0
  187.2280  172.6180  136.9140 C   0  0  0  0  0  1  0  0  0  0  0  0
  187.0260  175.3650  136.3730 O   0  0  0  0  0  0  0  0  0  0  0  0
  186.0490  173.4140  137.2210 N   0  0  0  0  0  0  0  0  0  0  0  0
  184.9100  175.6160  137.3150 N   0  0  0  0  0  2  0  0  0  0  0  0
  186.0400  174.8230  136.9460 C   0  0  0  0  0  0  0  0  0  0  0  0
  185.0000  172.8120  137.9330 N   0  0  0  0  0  2  0  0  0  0  0  0
  184.1820  172.0740  136.9800 C   0  0  0  0  0  1  0  0  0  0  0  0
  183.8010  179.2890  142.2870 C   0  0  1  0  0  3  0  0  0  0  0  0
  182.5640  178.7620  141.9190 O   0  0  0  0  0  1  0  0  0  0  0  0
  185.5160  179.0160  144.1200 N   0  0  0  0  0  2  0  0  0  0  0  0
  184.1630  178.8570  143.6750 C   0  0  0  0  0  0  0  0  0  0  0  0
  183.2760  178.4270  144.4630 O   0  0  0  0  0  0  0  0  0  0  0  0
  188.1100  177.1510  145.7210 C   0  0  0  0  0  3  0  0  0  0  0  0
  188.5030  177.5300  146.9380 C   0  0  0  0  0  0  0  0  0  0  0  0
  185.9070  179.1310  146.4940 C   0  0  0  0  0  3  0  0  0  0  0  0
  186.4520  178.7040  147.7970 C   0  0  0  0  0  3  0  0  0  0  0  0
  186.6820  177.1270  145.2860 C   0  0  0  0  0  2  0  0  0  0  0  0
  190.1970  177.3580  147.3510 Cl  0  0  0  0  0  0  0  0  0  0  0  0
  186.0710  178.4890  145.3310 C   0  0  0  0  0  0  0  0  0  0  0  0
  187.5800  178.0080  147.9890 C   0  0  0  0  0  3  0  0  0  0  0  0
  2  1  2  0  0  0  0
  2 27  1  0  0  0  0
  3  6  2  0  0  0  0
  4  9  1  6  0  0  0
  4 12  1  0  0  0  0
  5  8  1  0  0  0  0
  6  8  1  0  0  0  0
  6  1  1  0  0  0  0
  7  4  1  0  0  0  0
  7 13  1  0  0  0  0
 10  5  1  0  0  0  0
 10 11  1  1  0  0  0
 12  3  1  0  0  0  0
 12  5  2  0  0  0  0
 13 14  1  6  0  0  0
 13 10  1  0  0  0  0
 15 17  1  0  0  0  0
 16 17  2  0  0  0  0
 17  2  1  0  0  0  0
 18 15  1  0  0  0  0
 19 23  1  0  0  0  0
 19 18  1  0  0  0  0
 20 22  1  0  0  0  0
 21 24  2  0  0  0  0
 22 25  1  0  0  0  0
 24 22  1  0  0  0  0
 24 23  1  0  0  0  0
 26 25  1  0  0  0  0
 27 28  1  6  0  0  0
 27 30  1  0  0  0  0
 29 38  1  0  0  0  0
 30 29  1  0  0  0  0
 30 31  2  0  0  0  0
 32 33  2  0  0  0  0
 33 37  1  0  0  0  0
 33 39  1  0  0  0  0
 34 35  1  0  0  0  0
 35 39  2  0  0  0  0
 36 38  1  0  0  0  0
 36 32  1  0  0  0  0
 38 34  2  0  0  0  0
M  END
>  <MODEL>
2

>  <REMARK>
 VINA RESULT:      -8.3      3.882      7.369
  Name = 
  9 active torsions:
  status: ('A' for Active; 'I' for Inactive)
    1  A    between atoms: N_5  and  N_26
    2  A    between atoms: C_8  and  N_14
    3  A    between atoms: N_10  and  C_29
    4  A    between atoms: C_16  and  C_17
    5  A    between atoms: C_16  and  C_32
    6  A    between atoms: C_28  and  N_30
    7  A    between atoms: C_28  and  C_35
    8  A    between atoms: C_32  and  C_39
    9  A    between atoms: C_35  and  N_36
                            x       y       z     vdW  Elec       q    Type
                         _______ _______ _______ _____ _____    ______ ____

>  <TORSDO>
F 9

$$$$
=
 OpenBabel10232412123D

 39 41  0  0  1  0  0  0  0  0999 V2000
  186.0530  178.9030  142.5140 N   0  0  0  0  0  0  0  0  0  0  0  0
  184.7660  179.0550  142.3650 C   0  0  0  0  0  0  0  0  0  0  0  0
  186.9320  178.8460  140.3060 N   0  0  0  0  0  0  0  0  0  0  0  0
  188.3660  178.4370  138.1790 C   0  0  1  0  0  3  0  0  0  0  0  0
  188.7890  177.5530  140.4460 C   0  0  0  0  0  0  0  0  0  0  0  0
  187.0350  178.4950  141.5470 C   0  0  0  0  0  0  0  0  0  0  0  0
  189.2410  177.3550  137.7130 N   0  0  0  0  0  2  0  0  0  0  0  0
  188.1990  177.5810  141.8050 C   0  0  0  0  0  2  0  0  0  0  0  0
  187.1590  178.4630  137.3730 N   0  0  0  0  0  1  0  0  0  0  0  0
  190.0180  176.8200  139.9990 C   0  0  2  0  0  3  0  0  0  0  0  0
  191.0570  177.0810  140.8720 F   0  0  0  0  0  0  0  0  0  0  0  0
  188.0150  178.2340  139.6250 C   0  0  0  0  0  0  0  0  0  0  0  0
  190.4190  177.2670  138.5840 C   0  0  1  0  0  3  0  0  0  0  0  0
  191.3170  176.3630  138.0520 F   0  0  0  0  0  0  0  0  0  0  0  0
  183.8930  179.6730  140.0860 N   0  0  0  0  0  2  0  0  0  0  0  0
  183.7480  177.4590  140.8910 N   0  0  0  0  0  2  0  0  0  0  0  0
  184.0480  178.6960  141.1210 C   0  0  0  0  0  0  0  0  0  0  0  0
  183.2510  179.3720  138.8110 C   0  0  0  0  0  2  0  0  0  0  0  0
  181.7470  179.5670  138.9050 C   0  0  0  0  0  2  0  0  0  0  0  0
  180.2660  182.7030  135.2690 C   0  0  0  0  0  1  0  0  0  0  0  0
  180.8510  180.1530  136.2850 O   0  0  0  0  0  0  0  0  0  0  0  0
  180.7410  182.4660  136.6240 N   0  0  0  0  0  0  0  0  0  0  0  0
  181.3770  180.8910  138.4310 N   0  0  0  0  0  2  0  0  0  0  0  0
  180.9820  181.1260  137.0790 C   0  0  0  0  0  0  0  0  0  0  0  0
  180.7980  183.5510  137.5140 N   0  0  0  0  0  2  0  0  0  0  0  0
  181.2700  184.7110  136.7710 C   0  0  0  0  0  1  0  0  0  0  0  0
  183.9890  179.5310  143.5620 C   0  0  1  0  0  3  0  0  0  0  0  0
  182.6380  179.1990  143.4650 O   0  0  0  0  0  1  0  0  0  0  0  0
  185.9820  178.9970  145.0180 N   0  0  0  0  0  2  0  0  0  0  0  0
  184.5580  179.0370  144.8570 C   0  0  0  0  0  0  0  0  0  0  0  0
  183.7970  178.7300  145.8150 O   0  0  0  0  0  0  0  0  0  0  0  0
  188.7360  177.0010  146.1140 C   0  0  0  0  0  3  0  0  0  0  0  0
  189.3010  177.2930  147.2870 C   0  0  0  0  0  0  0  0  0  0  0  0
  186.7010  178.9460  147.3160 C   0  0  0  0  0  3  0  0  0  0  0  0
  187.4130  178.4260  148.4990 C   0  0  0  0  0  3  0  0  0  0  0  0
  187.2610  177.0210  145.8830 C   0  0  0  0  0  2  0  0  0  0  0  0
  191.0320  177.0750  147.4470 Cl  0  0  0  0  0  0  0  0  0  0  0  0
  186.6890  178.3840  146.1020 C   0  0  0  0  0  0  0  0  0  0  0  0
  188.5430  177.7070  148.4860 C   0  0  0  0  0  3  0  0  0  0  0  0
  2  1  2  0  0  0  0
  2 27  1  0  0  0  0
  3  6  2  0  0  0  0
  4  9  1  6  0  0  0
  4 12  1  0  0  0  0
  5  8  1  0  0  0  0
  6  8  1  0  0  0  0
  6  1  1  0  0  0  0
  7  4  1  0  0  0  0
  7 13  1  0  0  0  0
 10  5  1  0  0  0  0
 10 11  1  1  0  0  0
 12  3  1  0  0  0  0
 12  5  2  0  0  0  0
 13 14  1  6  0  0  0
 13 10  1  0  0  0  0
 15 17  1  0  0  0  0
 16 17  2  0  0  0  0
 17  2  1  0  0  0  0
 18 19  1  0  0  0  0
 18 15  1  0  0  0  0
 20 22  1  0  0  0  0
 21 24  2  0  0  0  0
 22 24  1  0  0  0  0
 22 25  1  0  0  0  0
 23 19  1  0  0  0  0
 24 23  1  0  0  0  0
 26 25  1  0  0  0  0
 27 28  1  6  0  0  0
 27 30  1  0  0  0  0
 29 38  1  0  0  0  0
 30 29  1  0  0  0  0
 30 31  2  0  0  0  0
 32 33  2  0  0  0  0
 33 37  1  0  0  0  0
 33 39  1  0  0  0  0
 34 35  1  0  0  0  0
 36 38  1  0  0  0  0
 36 32  1  0  0  0  0
 38 34  2  0  0  0  0
 39 35  2  0  0  0  0
M  END
>  <MODEL>
3

>  <REMARK>
 VINA RESULT:      -8.2      4.456      8.850
  Name = 
  9 active torsions:
  status: ('A' for Active; 'I' for Inactive)
    1  A    between atoms: N_5  and  N_26
    2  A    between atoms: C_8  and  N_14
    3  A    between atoms: N_10  and  C_29
    4  A    between atoms: C_16  and  C_17
    5  A    between atoms: C_16  and  C_32
    6  A    between atoms: C_28  and  N_30
    7  A    between atoms: C_28  and  C_35
    8  A    between atoms: C_32  and  C_39
    9  A    between atoms: C_35  and  N_36
                            x       y       z     vdW  Elec       q    Type
                         _______ _______ _______ _____ _____    ______ ____

>  <TORSDO>
F 9

$$$$
=
 OpenBabel10232412123D

 39 41  0  0  1  0  0  0  0  0999 V2000
  191.4210  176.9650  138.9900 N   0  0  0  0  0  0  0  0  0  0  0  0
  190.2020  177.3910  138.8030 C   0  0  0  0  0  0  0  0  0  0  0  0
  193.3380  176.5950  137.6350 N   0  0  0  0  0  0  0  0  0  0  0  0
  195.1720  175.5960  136.0890 C   0  0  1  0  0  3  0  0  0  0  0  0
  193.0940  174.4890  136.8310 C   0  0  0  0  0  0  0  0  0  0  0  0
  192.2340  176.1430  138.1360 C   0  0  0  0  0  0  0  0  0  0  0  0
  195.1880  174.6010  135.0110 N   0  0  0  0  0  2  0  0  0  0  0  0
  191.8930  174.7610  137.6570 C   0  0  0  0  0  2  0  0  0  0  0  0
  195.4060  176.9160  135.5310 N   0  0  0  0  0  1  0  0  0  0  0  0
  193.4090  173.2420  136.0620 C   0  0  2  0  0  3  0  0  0  0  0  0
  193.2350  172.1380  136.8760 F   0  0  0  0  0  0  0  0  0  0  0  0
  193.8530  175.5660  136.8040 C   0  0  0  0  0  0  0  0  0  0  0  0
  194.8610  173.2800  135.5600 C   0  0  1  0  0  3  0  0  0  0  0  0
  195.0360  172.3190  134.5820 F   0  0  0  0  0  0  0  0  0  0  0  0
  188.1140  176.3190  137.8910 N   0  0  0  0  0  2  0  0  0  0  0  0
  189.6690  177.3760  136.4640 N   0  0  0  0  0  2  0  0  0  0  0  0
  189.3660  176.9720  137.6550 C   0  0  0  0  0  0  0  0  0  0  0  0
  187.2120  175.9340  136.8120 C   0  0  0  0  0  2  0  0  0  0  0  0
  186.4040  177.1280  136.3320 C   0  0  0  0  0  2  0  0  0  0  0  0
  182.7280  178.4500  139.4920 C   0  0  0  0  0  1  0  0  0  0  0  0
  183.7960  176.9030  137.4080 O   0  0  0  0  0  0  0  0  0  0  0  0
  184.0750  178.6240  138.9690 N   0  0  0  0  0  0  0  0  0  0  0  0
  185.9060  177.8910  137.4650 N   0  0  0  0  0  2  0  0  0  0  0  0
  184.5590  177.7660  137.9260 C   0  0  0  0  0  0  0  0  0  0  0  0
  184.9320  179.5300  139.6150 N   0  0  0  0  0  2  0  0  0  0  0  0
  185.2080  179.0100  140.9460 C   0  0  0  0  0  1  0  0  0  0  0  0
  189.6140  178.2750  139.8700 C   0  0  1  0  0  3  0  0  0  0  0  0
  188.5600  179.0440  139.3780 O   0  0  0  0  0  1  0  0  0  0  0  0
  188.5380  178.2130  142.1530 N   0  0  0  0  0  2  0  0  0  0  0  0
  189.1830  177.5100  141.0840 C   0  0  0  0  0  0  0  0  0  0  0  0
  189.3210  176.2570  141.1330 O   0  0  0  0  0  0  0  0  0  0  0  0
  189.5800  177.6270  145.5210 C   0  0  0  0  0  3  0  0  0  0  0  0
  188.6630  177.6960  146.4870 C   0  0  0  0  0  0  0  0  0  0  0  0
  186.9790  177.6680  143.9060 C   0  0  0  0  0  3  0  0  0  0  0  0
  186.5500  177.1740  145.2290 C   0  0  0  0  0  3  0  0  0  0  0  0
  189.3310  176.9910  144.1940 C   0  0  0  0  0  2  0  0  0  0  0  0
  189.1500  178.3340  148.0450 Cl  0  0  0  0  0  0  0  0  0  0  0  0
  188.2370  177.6820  143.4480 C   0  0  0  0  0  0  0  0  0  0  0  0
  187.2820  177.1860  146.3500 C   0  0  0  0  0  3  0  0  0  0  0  0
  2  1  2  0  0  0  0
  2 27  1  0  0  0  0
  3  6  2  0  0  0  0
  4  9  1  6  0  0  0
  4 12  1  0  0  0  0
  5  8  1  0  0  0  0
  6  1  1  0  0  0  0
  7 13  1  0  0  0  0
  7  4  1  0  0  0  0
  8  6  1  0  0  0  0
 10  5  1  0  0  0  0
 10 11  1  1  0  0  0
 12  5  2  0  0  0  0
 12  3  1  0  0  0  0
 13 14  1  6  0  0  0
 13 10  1  0  0  0  0
 16 17  2  0  0  0  0
 17 15  1  0  0  0  0
 17  2  1  0  0  0  0
 18 15  1  0  0  0  0
 19 18  1  0  0  0  0
 19 23  1  0  0  0  0
 21 24  2  0  0  0  0
 22 20  1  0  0  0  0
 22 25  1  0  0  0  0
 23 24  1  0  0  0  0
 24 22  1  0  0  0  0
 25 26  1  0  0  0  0
 27 28  1  6  0  0  0
 27 30  1  0  0  0  0
 29 38  1  0  0  0  0
 30 31  2  0  0  0  0
 30 29  1  0  0  0  0
 32 33  2  0  0  0  0
 33 37  1  0  0  0  0
 34 35  1  0  0  0  0
 35 39  2  0  0  0  0
 36 32  1  0  0  0  0
 38 34  2  0  0  0  0
 38 36  1  0  0  0  0
 39 33  1  0  0  0  0
M  END
>  <MODEL>
4

>  <REMARK>
 VINA RESULT:      -8.0      2.474      5.244
  Name = 
  9 active torsions:
  status: ('A' for Active; 'I' for Inactive)
    1  A    between atoms: N_5  and  N_26
    2  A    between atoms: C_8  and  N_14
    3  A    between atoms: N_10  and  C_29
    4  A    between atoms: C_16  and  C_17
    5  A    between atoms: C_16  and  C_32
    6  A    between atoms: C_28  and  N_30
    7  A    between atoms: C_28  and  C_35
    8  A    between atoms: C_32  and  C_39
    9  A    between atoms: C_35  and  N_36
                            x       y       z     vdW  Elec       q    Type
                         _______ _______ _______ _____ _____    ______ ____

>  <TORSDO>
F 9

$$$$
=
 OpenBabel10232412123D

 39 41  0  0  1  0  0  0  0  0999 V2000
  183.7830  177.4110  138.4790 N   0  0  0  0  0  0  0  0  0  0  0  0
  184.8800  178.1120  138.5620 C   0  0  0  0  0  0  0  0  0  0  0  0
  182.8930  176.3580  136.5430 N   0  0  0  0  0  0  0  0  0  0  0  0
  182.1590  174.6690  134.7110 C   0  0  1  0  0  3  0  0  0  0  0  0
  183.2710  174.1440  136.8520 C   0  0  0  0  0  0  0  0  0  0  0  0
  183.5060  176.2510  137.6770 C   0  0  0  0  0  0  0  0  0  0  0  0
  181.7440  173.2610  134.7070 N   0  0  0  0  0  2  0  0  0  0  0  0
  183.7880  174.8260  138.0620 C   0  0  0  0  0  2  0  0  0  0  0  0
  181.0140  175.5100  134.4090 N   0  0  0  0  0  1  0  0  0  0  0  0
  183.2630  172.6720  136.5680 C   0  0  2  0  0  3  0  0  0  0  0  0
  184.5180  172.1460  136.8080 F   0  0  0  0  0  0  0  0  0  0  0  0
  182.7300  175.0380  136.0490 C   0  0  0  0  0  0  0  0  0  0  0  0
  182.8770  172.4160  135.1030 C   0  0  1  0  0  3  0  0  0  0  0  0
  182.5370  171.0870  134.9410 F   0  0  0  0  0  0  0  0  0  0  0  0
  187.2650  177.3600  138.2690 N   0  0  0  0  0  2  0  0  0  0  0  0
  185.9280  177.9370  136.4110 N   0  0  0  0  0  2  0  0  0  0  0  0
  186.0570  177.8740  137.6970 C   0  0  0  0  0  0  0  0  0  0  0  0
  188.4430  177.0460  137.4680 C   0  0  0  0  0  2  0  0  0  0  0  0
  189.6530  177.8250  137.9590 C   0  0  0  0  0  2  0  0  0  0  0  0
  190.5770  176.0400  142.5650 C   0  0  0  0  0  1  0  0  0  0  0  0
  190.7370  175.9340  139.7650 O   0  0  0  0  0  0  0  0  0  0  0  0
  189.9830  177.0370  141.6870 N   0  0  0  0  0  0  0  0  0  0  0  0
  189.6210  177.9480  139.4080 N   0  0  0  0  0  2  0  0  0  0  0  0
  190.1420  176.9300  140.2640 C   0  0  0  0  0  0  0  0  0  0  0  0
  189.4010  178.1770  142.2630 N   0  0  0  0  0  2  0  0  0  0  0  0
  190.1820  178.5270  143.4410 C   0  0  0  0  0  1  0  0  0  0  0  0
  184.8840  179.2670  139.5260 C   0  0  1  0  0  3  0  0  0  0  0  0
  184.0840  180.3160  139.0750 O   0  0  0  0  0  1  0  0  0  0  0  0
  185.3760  179.1690  142.0000 N   0  0  0  0  0  2  0  0  0  0  0  0
  184.4900  178.8670  140.9150 C   0  0  0  0  0  0  0  0  0  0  0  0
  183.3660  178.3370  141.1330 O   0  0  0  0  0  0  0  0  0  0  0  0
  186.9150  177.6920  144.8670 C   0  0  0  0  0  3  0  0  0  0  0  0
  186.5100  178.0860  146.0760 C   0  0  0  0  0  0  0  0  0  0  0  0
  184.3760  179.2610  144.1890 C   0  0  0  0  0  3  0  0  0  0  0  0
  184.1740  178.8810  145.6010 C   0  0  0  0  0  3  0  0  0  0  0  0
  185.9850  177.4530  143.7250 C   0  0  0  0  0  2  0  0  0  0  0  0
  187.7010  178.1760  147.3580 Cl  0  0  0  0  0  0  0  0  0  0  0  0
  185.2480  178.6960  143.3460 C   0  0  0  0  0  0  0  0  0  0  0  0
  185.1020  178.3710  146.4200 C   0  0  0  0  0  3  0  0  0  0  0  0
  1  2  2  0  0  0  0
  2 27  1  0  0  0  0
  3  6  2  0  0  0  0
  4  9  1  1  0  0  0
  4 12  1  0  0  0  0
  5  8  1  0  0  0  0
  6  8  1  0  0  0  0
  6  1  1  0  0  0  0
  7  4  1  0  0  0  0
  7 13  1  0  0  0  0
 10 11  1  6  0  0  0
 10  5  1  0  0  0  0
 12  3  1  0  0  0  0
 12  5  2  0  0  0  0
 13 14  1  1  0  0  0
 13 10  1  0  0  0  0
 16 17  2  0  0  0  0
 17 15  1  0  0  0  0
 17  2  1  0  0  0  0
 18 19  1  0  0  0  0
 18 15  1  0  0  0  0
 19 23  1  0  0  0  0
 21 24  2  0  0  0  0
 22 25  1  0  0  0  0
 22 20  1  0  0  0  0
 23 24  1  0  0  0  0
 24 22  1  0  0  0  0
 25 26  1  0  0  0  0
 27 28  1  6  0  0  0
 27 30  1  0  0  0  0
 29 38  1  0  0  0  0
 30 31  2  0  0  0  0
 30 29  1  0  0  0  0
 32 33  2  0  0  0  0
 33 39  1  0  0  0  0
 33 37  1  0  0  0  0
 34 35  1  0  0  0  0
 35 39  2  0  0  0  0
 36 32  1  0  0  0  0
 38 36  1  0  0  0  0
 38 34  2  0  0  0  0
M  END
>  <MODEL>
5

>  <REMARK>
 VINA RESULT:      -7.9      4.849      7.019
  Name = 
  9 active torsions:
  status: ('A' for Active; 'I' for Inactive)
    1  A    between atoms: N_5  and  N_26
    2  A    between atoms: C_8  and  N_14
    3  A    between atoms: N_10  and  C_29
    4  A    between atoms: C_16  and  C_17
    5  A    between atoms: C_16  and  C_32
    6  A    between atoms: C_28  and  N_30
    7  A    between atoms: C_28  and  C_35
    8  A    between atoms: C_32  and  C_39
    9  A    between atoms: C_35  and  N_36
                            x       y       z     vdW  Elec       q    Type
                         _______ _______ _______ _____ _____    ______ ____

>  <TORSDO>
F 9

$$$$
=
 OpenBabel10232412123D

 39 41  0  0  1  0  0  0  0  0999 V2000
  182.8340  176.2440  138.6800 N   0  0  0  0  0  0  0  0  0  0  0  0
  183.4590  177.3690  138.4680 C   0  0  0  0  0  0  0  0  0  0  0  0
  181.8960  174.3680  137.5630 N   0  0  0  0  0  0  0  0  0  0  0  0
  181.4970  172.1540  136.2620 C   0  0  1  0  0  3  0  0  0  0  0  0
  183.6700  173.0780  136.9860 C   0  0  0  0  0  0  0  0  0  0  0  0
  182.9480  174.9970  137.9750 C   0  0  0  0  0  0  0  0  0  0  0  0
  182.2010  170.8700  136.1640 N   0  0  0  0  0  2  0  0  0  0  0  0
  184.2230  174.2450  137.7150 C   0  0  0  0  0  2  0  0  0  0  0  0
  180.2490  171.9690  136.9810 N   0  0  0  0  0  1  0  0  0  0  0  0
  184.4260  171.9200  136.4100 C   0  0  2  0  0  3  0  0  0  0  0  0
  185.4860  172.3870  135.6560 F   0  0  0  0  0  0  0  0  0  0  0  0
  182.3540  173.1630  136.9710 C   0  0  0  0  0  0  0  0  0  0  0  0
  183.5030  171.0730  135.5200 C   0  0  1  0  0  3  0  0  0  0  0  0
  184.0930  169.8470  135.2800 F   0  0  0  0  0  0  0  0  0  0  0  0
  185.7770  177.4660  137.4890 N   0  0  0  0  0  2  0  0  0  0  0  0
  183.8650  177.6830  136.1240 N   0  0  0  0  0  2  0  0  0  0  0  0
  184.3610  177.5870  137.3140 C   0  0  0  0  0  0  0  0  0  0  0  0
  186.7210  177.6080  136.3870 C   0  0  0  0  0  2  0  0  0  0  0  0
  187.9410  178.4040  136.8200 C   0  0  0  0  0  2  0  0  0  0  0  0
  190.2850  177.2980  141.1250 C   0  0  0  0  0  1  0  0  0  0  0  0
  188.4660  178.7710  139.5770 O   0  0  0  0  0  0  0  0  0  0  0  0
  190.0710  177.0730  139.7030 N   0  0  0  0  0  0  0  0  0  0  0  0
  188.8330  177.5730  137.6130 N   0  0  0  0  0  2  0  0  0  0  0  0
  189.0930  177.8460  138.9910 C   0  0  0  0  0  0  0  0  0  0  0  0
  190.7160  175.9860  139.0920 N   0  0  0  0  0  2  0  0  0  0  0  0
  191.9110  176.4920  138.4320 C   0  0  0  0  0  1  0  0  0  0  0  0
  183.1550  178.5090  139.4020 C   0  0  1  0  0  3  0  0  0  0  0  0
  181.9490  178.3160  140.0740 O   0  0  0  0  0  1  0  0  0  0  0  0
  184.2610  178.0780  141.6300 N   0  0  0  0  0  2  0  0  0  0  0  0
  184.2620  178.7720  140.3760 C   0  0  0  0  0  0  0  0  0  0  0  0
  185.2170  179.5360  140.0680 O   0  0  0  0  0  0  0  0  0  0  0  0
  184.6200  179.1760  145.0120 C   0  0  0  0  0  3  0  0  0  0  0  0
  185.5550  178.5970  145.7690 C   0  0  0  0  0  0  0  0  0  0  0  0
  186.2450  177.6360  142.9230 C   0  0  0  0  0  3  0  0  0  0  0  0
  187.1960  177.8010  144.0390 C   0  0  0  0  0  3  0  0  0  0  0  0
  184.8330  179.5460  143.5820 C   0  0  0  0  0  2  0  0  0  0  0  0
  185.2120  178.3630  147.4710 Cl  0  0  0  0  0  0  0  0  0  0  0  0
  185.1250  178.3470  142.7410 C   0  0  0  0  0  0  0  0  0  0  0  0
  186.8960  178.2180  145.2760 C   0  0  0  0  0  3  0  0  0  0  0  0
  2  1  2  0  0  0  0
  2 27  1  0  0  0  0
  3  6  2  0  0  0  0
  4 12  1  0  0  0  0
  4  9  1  1  0  0  0
  5  8  1  0  0  0  0
  6  1  1  0  0  0  0
  7  4  1  0  0  0  0
  8  6  1  0  0  0  0
 10 11  1  6  0  0  0
 10  5  1  0  0  0  0
 12  5  2  0  0  0  0
 12  3  1  0  0  0  0
 13 14  1  1  0  0  0
 13  7  1  0  0  0  0
 13 10  1  0  0  0  0
 16 17  2  0  0  0  0
 17 15  1  0  0  0  0
 17  2  1  0  0  0  0
 18 19  1  0  0  0  0
 18 15  1  0  0  0  0
 19 23  1  0  0  0  0
 22 20  1  0  0  0  0
 23 24  1  0  0  0  0
 24 21  2  0  0  0  0
 24 22  1  0  0  0  0
 25 22  1  0  0  0  0
 26 25  1  0  0  0  0
 27 28  1  1  0  0  0
 27 30  1  0  0  0  0
 29 38  1  0  0  0  0
 30 29  1  0  0  0  0
 31 30  2  0  0  0  0
 32 33  2  0  0  0  0
 33 37  1  0  0  0  0
 34 35  1  0  0  0  0
 35 39  2  0  0  0  0
 36 32  1  0  0  0  0
 38 34  2  0  0  0  0
 38 36  1  0  0  0  0
 39 33  1  0  0  0  0
M  END
>  <MODEL>
6

>  <REMARK>
 VINA RESULT:      -7.8      5.067      7.587
  Name = 
  9 active torsions:
  status: ('A' for Active; 'I' for Inactive)
    1  A    between atoms: N_5  and  N_26
    2  A    between atoms: C_8  and  N_14
    3  A    between atoms: N_10  and  C_29
    4  A    between atoms: C_16  and  C_17
    5  A    between atoms: C_16  and  C_32
    6  A    between atoms: C_28  and  N_30
    7  A    between atoms: C_28  and  C_35
    8  A    between atoms: C_32  and  C_39
    9  A    between atoms: C_35  and  N_36
                            x       y       z     vdW  Elec       q    Type
                         _______ _______ _______ _____ _____    ______ ____

>  <TORSDO>
F 9

$$$$
=
 OpenBabel10232412123D

 39 41  0  0  1  0  0  0  0  0999 V2000
  186.9370  177.1020  137.6850 N   0  0  0  0  0  0  0  0  0  0  0  0
  186.9050  177.9770  138.6510 C   0  0  0  0  0  0  0  0  0  0  0  0
  189.2110  176.4110  137.6960 N   0  0  0  0  0  0  0  0  0  0  0  0
  191.4630  175.1600  137.3560 C   0  0  1  0  0  3  0  0  0  0  0  0
  189.2660  174.5440  136.4120 C   0  0  0  0  0  0  0  0  0  0  0  0
  187.9940  176.2030  137.3110 C   0  0  0  0  0  0  0  0  0  0  0  0
  192.0310  174.3240  136.2940 N   0  0  0  0  0  2  0  0  0  0  0  0
  187.8610  175.0170  136.3970 C   0  0  0  0  0  2  0  0  0  0  0  0
  192.1630  176.4320  137.3970 N   0  0  0  0  0  1  0  0  0  0  0  0
  189.8350  173.3540  135.7000 C   0  0  2  0  0  3  0  0  0  0  0  0
  189.0460  172.2460  135.9440 F   0  0  0  0  0  0  0  0  0  0  0  0
  189.9990  175.3870  137.1110 C   0  0  0  0  0  0  0  0  0  0  0  0
  191.2650  173.0760  136.1890 C   0  0  1  0  0  3  0  0  0  0  0  0
  191.8970  172.2220  135.3060 F   0  0  0  0  0  0  0  0  0  0  0  0
  188.3270  177.5000  140.6730 N   0  0  0  0  0  2  0  0  0  0  0  0
  188.9710  179.1180  139.0800 N   0  0  0  0  0  2  0  0  0  0  0  0
  188.0760  178.2850  139.5020 C   0  0  0  0  0  0  0  0  0  0  0  0
  189.4940  177.7070  141.5240 C   0  0  0  0  0  2  0  0  0  0  0  0
  189.7260  176.5040  142.4220 C   0  0  0  0  0  2  0  0  0  0  0  0
  191.2400  176.8840  147.1980 C   0  0  0  0  0  1  0  0  0  0  0  0
  191.6700  176.3610  144.4750 O   0  0  0  0  0  0  0  0  0  0  0  0
  190.1940  176.9580  146.1900 N   0  0  0  0  0  0  0  0  0  0  0  0
  189.4910  176.8570  143.8140 N   0  0  0  0  0  2  0  0  0  0  0  0
  190.5040  176.7120  144.8100 C   0  0  0  0  0  0  0  0  0  0  0  0
  188.9280  177.4310  146.5710 N   0  0  0  0  0  2  0  0  0  0  0  0
  188.9640  177.6940  148.0020 C   0  0  0  0  0  1  0  0  0  0  0  0
  185.6320  178.7620  138.8230 C   0  0  1  0  0  3  0  0  0  0  0  0
  184.7800  178.6070  137.7300 O   0  0  0  0  0  1  0  0  0  0  0  0
  185.3160  179.0880  141.3060 N   0  0  0  0  0  2  0  0  0  0  0  0
  184.9150  178.4330  140.0970 C   0  0  0  0  0  0  0  0  0  0  0  0
  183.9280  177.6470  140.0910 O   0  0  0  0  0  0  0  0  0  0  0  0
  186.1490  178.4120  144.7160 C   0  0  0  0  0  3  0  0  0  0  0  0
  185.3080  178.8230  145.6660 C   0  0  0  0  0  0  0  0  0  0  0  0
  183.6790  179.1670  143.0720 C   0  0  0  0  0  3  0  0  0  0  0  0
  183.1280  178.9140  144.4170 C   0  0  0  0  0  3  0  0  0  0  0  0
  185.7020  177.8050  143.4260 C   0  0  0  0  0  2  0  0  0  0  0  0
  185.9830  179.3710  147.1870 Cl  0  0  0  0  0  0  0  0  0  0  0  0
  184.8740  178.7580  142.6280 C   0  0  0  0  0  0  0  0  0  0  0  0
  183.8360  178.7650  145.5440 C   0  0  0  0  0  3  0  0  0  0  0  0
  1  2  2  0  0  0  0
  2 27  1  0  0  0  0
  2 17  1  0  0  0  0
  4  9  1  6  0  0  0
  5 12  2  0  0  0  0
  6  1  1  0  0  0  0
  6  3  2  0  0  0  0
  7  4  1  0  0  0  0
  8  5  1  0  0  0  0
  8  6  1  0  0  0  0
 10 11  1  1  0  0  0
 10 13  1  0  0  0  0
 10  5  1  0  0  0  0
 12  4  1  0  0  0  0
 12  3  1  0  0  0  0
 13 14  1  6  0  0  0
 13  7  1  0  0  0  0
 15 18  1  0  0  0  0
 16 17  2  0  0  0  0
 17 15  1  0  0  0  0
 18 19  1  0  0  0  0
 19 23  1  0  0  0  0
 21 24  2  0  0  0  0
 22 25  1  0  0  0  0
 22 20  1  0  0  0  0
 23 24  1  0  0  0  0
 24 22  1  0  0  0  0
 25 26  1  0  0  0  0
 27 28  1  6  0  0  0
 27 30  1  0  0  0  0
 29 38  1  0  0  0  0
 30 29  1  0  0  0  0
 31 30  2  0  0  0  0
 32 33  2  0  0  0  0
 33 37  1  0  0  0  0
 34 35  1  0  0  0  0
 35 39  2  0  0  0  0
 36 32  1  0  0  0  0
 38 34  2  0  0  0  0
 38 36  1  0  0  0  0
 39 33  1  0  0  0  0
M  END
>  <MODEL>
7

>  <REMARK>
 VINA RESULT:      -7.8      1.995      2.770
  Name = 
  9 active torsions:
  status: ('A' for Active; 'I' for Inactive)
    1  A    between atoms: N_5  and  N_26
    2  A    between atoms: C_8  and  N_14
    3  A    between atoms: N_10  and  C_29
    4  A    between atoms: C_16  and  C_17
    5  A    between atoms: C_16  and  C_32
    6  A    between atoms: C_28  and  N_30
    7  A    between atoms: C_28  and  C_35
    8  A    between atoms: C_32  and  C_39
    9  A    between atoms: C_35  and  N_36
                            x       y       z     vdW  Elec       q    Type
                         _______ _______ _______ _____ _____    ______ ____

>  <TORSDO>
F 9

$$$$
=
 OpenBabel10232412123D

 39 41  0  0  1  0  0  0  0  0999 V2000
  187.9130  178.3950  140.3190 N   0  0  0  0  0  0  0  0  0  0  0  0
  188.5780  178.0280  139.2580 C   0  0  0  0  0  0  0  0  0  0  0  0
  189.3800  178.3850  142.1900 N   0  0  0  0  0  0  0  0  0  0  0  0
  190.4520  178.1520  144.5440 C   0  0  1  0  0  3  0  0  0  0  0  0
  188.1560  177.5200  143.8910 C   0  0  0  0  0  0  0  0  0  0  0  0
  188.2060  178.1420  141.7030 C   0  0  0  0  0  0  0  0  0  0  0  0
  190.2580  177.2500  145.6850 N   0  0  0  0  0  2  0  0  0  0  0  0
  187.2760  177.5090  142.6990 C   0  0  0  0  0  2  0  0  0  0  0  0
  191.7340  177.8740  143.9210 N   0  0  0  0  0  1  0  0  0  0  0  0
  187.8300  177.0350  145.2710 C   0  0  2  0  0  3  0  0  0  0  0  0
  186.6170  177.5620  145.6740 F   0  0  0  0  0  0  0  0  0  0  0  0
  189.3450  177.9720  143.5460 C   0  0  0  0  0  0  0  0  0  0  0  0
  188.9250  177.4660  146.2590 C   0  0  1  0  0  3  0  0  0  0  0  0
  188.8040  176.7380  147.4270 F   0  0  0  0  0  0  0  0  0  0  0  0
  191.0730  177.6960  139.3040 N   0  0  0  0  0  2  0  0  0  0  0  0
  189.5930  175.8760  139.5660 N   0  0  0  0  0  2  0  0  0  0  0  0
  189.7560  177.1340  139.3100 C   0  0  0  0  0  0  0  0  0  0  0  0
  192.2770  176.8800  139.4150 C   0  0  0  0  0  2  0  0  0  0  0  0
  192.8590  176.5870  138.0410 C   0  0  0  0  0  2  0  0  0  0  0  0
  195.7000  172.4440  138.0980 C   0  0  0  0  0  1  0  0  0  0  0  0
  193.2760  173.8060  137.7220 O   0  0  0  0  0  0  0  0  0  0  0  0
  195.5440  173.8770  138.2950 N   0  0  0  0  0  0  0  0  0  0  0  0
  194.1460  175.9210  138.1670 N   0  0  0  0  0  2  0  0  0  0  0  0
  194.2770  174.5040  138.0450 C   0  0  0  0  0  0  0  0  0  0  0  0
  196.6870  174.6440  138.5710 N   0  0  0  0  0  2  0  0  0  0  0  0
  197.5060  174.6710  137.3680 C   0  0  0  0  0  1  0  0  0  0  0  0
  188.0410  178.4740  137.9250 C   0  0  1  0  0  3  0  0  0  0  0  0
  188.8890  179.3940  137.3100 O   0  0  0  0  0  1  0  0  0  0  0  0
  186.5710  176.5460  137.2200 N   0  0  0  0  0  2  0  0  0  0  0  0
  187.7510  177.3290  137.0020 C   0  0  0  0  0  0  0  0  0  0  0  0
  188.4960  177.1040  136.0090 O   0  0  0  0  0  0  0  0  0  0  0  0
  185.5190  173.1400  137.4760 C   0  0  0  0  0  3  0  0  0  0  0  0
  184.7290  172.6490  136.5200 C   0  0  0  0  0  0  0  0  0  0  0  0
  185.7080  175.3200  135.3350 C   0  0  0  0  0  3  0  0  0  0  0  0
  185.3050  174.1250  134.5690 C   0  0  0  0  0  3  0  0  0  0  0  0
  186.6790  174.0410  137.2040 C   0  0  0  0  0  2  0  0  0  0  0  0
  183.5040  171.4830  136.9780 Cl  0  0  0  0  0  0  0  0  0  0  0  0
  186.2450  175.3170  136.5610 C   0  0  0  0  0  0  0  0  0  0  0  0
  184.8800  172.9640  135.0840 C   0  0  0  0  0  3  0  0  0  0  0  0
  1  6  1  0  0  0  0
  2 17  1  0  0  0  0
  2  1  2  0  0  0  0
  3 12  1  0  0  0  0
  4  9  1  6  0  0  0
  4  7  1  0  0  0  0
  5 10  1  0  0  0  0
  6  3  2  0  0  0  0
  6  8  1  0  0  0  0
  7 13  1  0  0  0  0
  8  5  1  0  0  0  0
 10 11  1  1  0  0  0
 10 13  1  0  0  0  0
 12  5  2  0  0  0  0
 12  4  1  0  0  0  0
 13 14  1  1  0  0  0
 15 17  1  0  0  0  0
 15 18  1  0  0  0  0
 17 16  2  0  0  0  0
 19 23  1  0  0  0  0
 19 18  1  0  0  0  0
 20 22  1  0  0  0  0
 21 24  2  0  0  0  0
 22 25  1  0  0  0  0
 24 23  1  0  0  0  0
 24 22  1  0  0  0  0
 26 25  1  0  0  0  0
 27 28  1  6  0  0  0
 27  2  1  0  0  0  0
 30 29  1  0  0  0  0
 30 27  1  0  0  0  0
 31 30  2  0  0  0  0
 33 37  1  0  0  0  0
 33 32  2  0  0  0  0
 34 38  2  0  0  0  0
 35 39  2  0  0  0  0
 35 34  1  0  0  0  0
 36 32  1  0  0  0  0
 38 36  1  0  0  0  0
 38 29  1  0  0  0  0
 39 33  1  0  0  0  0
M  END
>  <MODEL>
8

>  <REMARK>
 VINA RESULT:      -7.7      4.634      8.082
  Name = 
  9 active torsions:
  status: ('A' for Active; 'I' for Inactive)
    1  A    between atoms: N_5  and  N_26
    2  A    between atoms: C_8  and  N_14
    3  A    between atoms: N_10  and  C_29
    4  A    between atoms: C_16  and  C_17
    5  A    between atoms: C_16  and  C_32
    6  A    between atoms: C_28  and  N_30
    7  A    between atoms: C_28  and  C_35
    8  A    between atoms: C_32  and  C_39
    9  A    between atoms: C_35  and  N_36
                            x       y       z     vdW  Elec       q    Type
                         _______ _______ _______ _____ _____    ______ ____

>  <TORSDO>
F 9

$$$$
=
 OpenBabel10232412123D

 39 41  0  0  1  0  0  0  0  0999 V2000
  192.7560  176.2760  138.6290 N   0  0  0  0  0  0  0  0  0  0  0  0
  191.4680  176.2660  138.4220 C   0  0  0  0  0  0  0  0  0  0  0  0
  194.4480  176.2150  136.9610 N   0  0  0  0  0  0  0  0  0  0  0  0
  196.3820  175.5420  135.3620 C   0  0  1  0  0  3  0  0  0  0  0  0
  195.2720  174.1050  137.0360 C   0  0  0  0  0  0  0  0  0  0  0  0
  193.7970  175.6070  137.8990 C   0  0  0  0  0  0  0  0  0  0  0  0
  196.8180  174.2890  134.7370 N   0  0  0  0  0  2  0  0  0  0  0  0
  194.1900  174.1640  138.0470 C   0  0  0  0  0  2  0  0  0  0  0  0
  195.8350  176.4240  134.3460 N   0  0  0  0  0  1  0  0  0  0  0  0
  196.1230  172.9240  136.6780 C   0  0  2  0  0  3  0  0  0  0  0  0
  196.6300  172.3510  137.8290 F   0  0  0  0  0  0  0  0  0  0  0  0
  195.3470  175.2640  136.4130 C   0  0  0  0  0  0  0  0  0  0  0  0
  197.2860  173.3610  135.7730 C   0  0  1  0  0  3  0  0  0  0  0  0
  197.8480  172.2490  135.1750 F   0  0  0  0  0  0  0  0  0  0  0  0
  190.6420  175.9090  136.0700 N   0  0  0  0  0  2  0  0  0  0  0  0
  190.6070  174.1610  137.6560 N   0  0  0  0  0  2  0  0  0  0  0  0
  190.8210  175.4110  137.4010 C   0  0  0  0  0  0  0  0  0  0  0  0
  190.0690  175.1020  134.9990 C   0  0  0  0  0  2  0  0  0  0  0  0
  188.6020  175.4430  134.7940 C   0  0  0  0  0  2  0  0  0  0  0  0
  186.0330  178.1330  138.1720 C   0  0  0  0  0  1  0  0  0  0  0  0
  186.8130  175.7200  136.9690 O   0  0  0  0  0  0  0  0  0  0  0  0
  186.9470  178.0560  137.0420 N   0  0  0  0  0  0  0  0  0  0  0  0
  188.2780  176.7010  135.4470 N   0  0  0  0  0  2  0  0  0  0  0  0
  187.3250  176.7780  136.5080 C   0  0  0  0  0  0  0  0  0  0  0  0
  187.5680  179.2350  136.6000 N   0  0  0  0  0  2  0  0  0  0  0  0
  188.9210  179.2530  137.1380 C   0  0  0  0  0  1  0  0  0  0  0  0
  190.6190  177.1000  139.3420 C   0  0  1  0  0  3  0  0  0  0  0  0
  189.3030  176.6400  139.3870 O   0  0  0  0  0  1  0  0  0  0  0  0
  190.3960  176.7540  141.8330 N   0  0  0  0  0  2  0  0  0  0  0  0
  191.1870  177.2010  140.7240 C   0  0  0  0  0  0  0  0  0  0  0  0
  192.3690  177.6060  140.9020 O   0  0  0  0  0  0  0  0  0  0  0  0
  189.3640  177.9450  145.0400 C   0  0  0  0  0  3  0  0  0  0  0  0
  189.7680  177.2770  146.1220 C   0  0  0  0  0  0  0  0  0  0  0  0
  191.5080  176.1010  143.8670 C   0  0  0  0  0  3  0  0  0  0  0  0
  191.8740  176.1820  145.2950 C   0  0  0  0  0  3  0  0  0  0  0  0
  190.2430  178.2160  143.8640 C   0  0  0  0  0  2  0  0  0  0  0  0
  188.6720  177.1720  147.4850 Cl  0  0  0  0  0  0  0  0  0  0  0  0
  190.7030  176.9500  143.2180 C   0  0  0  0  0  0  0  0  0  0  0  0
  191.1170  176.6940  146.2740 C   0  0  0  0  0  3  0  0  0  0  0  0
  2  1  2  0  0  0  0
  2 27  1  0  0  0  0
  3  6  2  0  0  0  0
  4  9  1  6  0  0  0
  4 12  1  0  0  0  0
  5  8  1  0  0  0  0
  6  8  1  0  0  0  0
  6  1  1  0  0  0  0
  7  4  1  0  0  0  0
  7 13  1  0  0  0  0
 10  5  1  0  0  0  0
 10 11  1  1  0  0  0
 12  3  1  0  0  0  0
 12  5  2  0  0  0  0
 13 14  1  6  0  0  0
 13 10  1  0  0  0  0
 15 17  1  0  0  0  0
 17 16  2  0  0  0  0
 17  2  1  0  0  0  0
 18 15  1  0  0  0  0
 19 18  1  0  0  0  0
 19 23  1  0  0  0  0
 22 20  1  0  0  0  0
 23 24  1  0  0  0  0
 24 21  2  0  0  0  0
 24 22  1  0  0  0  0
 25 22  1  0  0  0  0
 25 26  1  0  0  0  0
 27 28  1  1  0  0  0
 27 30  1  0  0  0  0
 29 38  1  0  0  0  0
 30 31  2  0  0  0  0
 30 29  1  0  0  0  0
 32 33  2  0  0  0  0
 33 39  1  0  0  0  0
 33 37  1  0  0  0  0
 34 35  1  0  0  0  0
 35 39  2  0  0  0  0
 36 32  1  0  0  0  0
 38 36  1  0  0  0  0
 38 34  2  0  0  0  0
M  END
>  <MODEL>
9

>  <REMARK>
 VINA RESULT:      -7.6      3.071      6.140
  Name = 
  9 active torsions:
  status: ('A' for Active; 'I' for Inactive)
    1  A    between atoms: N_5  and  N_26
    2  A    between atoms: C_8  and  N_14
    3  A    between atoms: N_10  and  C_29
    4  A    between atoms: C_16  and  C_17
    5  A    between atoms: C_16  and  C_32
    6  A    between atoms: C_28  and  N_30
    7  A    between atoms: C_28  and  C_35
    8  A    between atoms: C_32  and  C_39
    9  A    between atoms: C_35  and  N_36
                            x       y       z     vdW  Elec       q    Type
                         _______ _______ _______ _____ _____    ______ ____

>  <TORSDO>
F 9

$$$$
