=
 OpenBabel10232411523D

 31 36  0  0  1  0  0  0  0  0999 V2000
  187.4590  178.1700  136.3180 C   0  0  0  0  0  0  0  0  0  0  0  0
  190.1260  176.0000  136.9930 N   0  0  0  0  0  0  0  0  0  0  0  0
  191.9660  177.3380  140.1550 C   0  0  2  0  0  3  0  0  0  0  0  0
  188.9010  176.1460  136.5560 C   0  0  0  0  0  0  0  0  0  0  0  0
  186.2530  176.4240  135.0740 C   0  0  0  0  0  2  0  0  0  0  0  0
  191.0880  177.0420  141.1710 C   0  0  1  0  0  3  0  0  0  0  0  0
  187.9100  177.0860  137.2580 C   0  0  1  0  0  3  0  0  0  0  0  0
  191.0690  178.0740  142.3090 C   0  0  0  0  0  2  0  0  0  0  0  0
  186.3120  178.8080  134.3480 O   0  0  0  0  0  1  0  0  0  0  0  0
  190.5770  177.7360  139.9540 N   0  0  2  0  0  0  0  0  0  0  0  0
  191.9600  176.4080  138.8880 C   0  0  0  0  0  2  0  0  0  0  0  0
  188.5190  175.4320  135.3660 N   0  0  0  0  0  0  0  0  0  0  0  0
  186.6940  177.8430  135.2720 C   0  0  0  0  0  0  0  0  0  0  0  0
  188.3980  177.6000  138.5920 C   0  0  0  0  0  0  0  0  0  0  0  0
  189.8550  177.5390  138.8000 C   0  0  2  0  0  3  0  0  0  0  0  0
  190.6320  176.7180  138.1270 C   0  0  2  0  0  3  0  0  0  0  0  0
  187.9960  178.2190  140.8910 C   0  0  0  0  0  0  0  0  0  0  0  0
  187.4020  175.5320  134.6970 C   0  0  0  0  0  3  0  0  0  0  0  0
  187.9380  179.5070  136.4660 N   0  0  0  0  0  1  0  0  0  0  0  0
  187.5250  177.9450  139.5560 C   0  0  0  0  0  3  0  0  0  0  0  0
  189.6680  178.2510  142.9550 C   0  0  1  0  0  3  0  0  0  0  0  0
  188.6370  178.3090  141.9090 C   0  0  0  0  0  0  0  0  0  0  0  0
  189.3840  177.1330  143.8470 N   0  0  0  0  0  2  0  0  0  0  0  0
  186.1350  178.6720  147.0300 C   0  0  0  0  0  1  0  0  0  0  0  0
  187.7190  177.5020  145.5480 C   0  0  0  0  0  3  0  0  0  0  0  0
  187.9550  177.8790  149.2430 O   0  0  0  0  0  1  0  0  0  0  0  0
  190.0910  177.2940  146.2580 C   0  0  0  0  0  2  0  0  0  0  0  0
  189.5650  177.0920  147.6780 C   0  0  0  0  0  2  0  0  0  0  0  0
  189.0010  177.2770  145.2190 C   0  0  0  0  0  0  0  0  0  0  0  0
  188.3810  178.0180  147.9220 C   0  0  1  0  0  3  0  0  0  0  0  0
  187.2450  177.6420  146.9680 C   0  0  1  0  0  3  0  0  0  0  0  0
  1 19  1  0  0  0  0
  2 16  1  0  0  0  0
  3 11  1  6  0  0  0
  3  6  1  0  0  0  0
  4  2  2  0  0  0  0
  4  7  1  0  0  0  0
  5 13  1  0  0  0  0
  6  8  1  1  0  0  0
  7  1  1  6  0  0  0
  7 14  1  0  0  0  0
  8 21  1  0  0  0  0
  9 13  1  0  0  0  0
 10  3  1  0  0  0  0
 10  6  1  0  0  0  0
 12  4  1  0  0  0  0
 13  1  2  0  0  0  0
 14 15  1  0  0  0  0
 14 20  2  0  0  0  0
 15 10  1  0  0  0  0
 16 15  1  0  0  0  0
 16 11  1  0  0  0  0
 17 22  3  0  0  0  0
 18  5  1  0  0  0  0
 18 12  2  0  0  0  0
 20 17  1  0  0  0  0
 21 23  1  0  0  0  0
 22 21  1  0  0  0  0
 23 29  1  0  0  0  0
 25 31  1  0  0  0  0
 27 28  1  0  0  0  0
 28 30  1  0  0  0  0
 29 25  2  0  0  0  0
 29 27  1  0  0  0  0
 30 26  1  0  0  0  0
 31 24  1  0  0  0  0
 31 30  1  0  0  0  0
M  END
>  <MODEL>
1

>  <REMARK>
 VINA RESULT:      -9.2      0.000      0.000
  Name = 
  2 active torsions:
  status: ('A' for Active; 'I' for Inactive)
    1  A    between atoms: N_6  and  C_19
    2  A    between atoms: N_6  and  C_30
                            x       y       z     vdW  Elec       q    Type
                         _______ _______ _______ _____ _____    ______ ____

>  <TORSDO>
F 2

$$$$
=
 OpenBabel10232411523D

 31 36  0  0  1  0  0  0  0  0999 V2000
  182.6010  179.7900  139.0140 C   0  0  0  0  0  0  0  0  0  0  0  0
  184.1510  177.2280  137.1930 N   0  0  0  0  0  0  0  0  0  0  0  0
  187.9990  177.6040  137.6660 C   0  0  2  0  0  3  0  0  0  0  0  0
  183.1290  177.6100  137.9190 C   0  0  0  0  0  0  0  0  0  0  0  0
  180.5010  178.5180  139.1640 C   0  0  0  0  0  2  0  0  0  0  0  0
  188.1910  177.1930  138.9640 C   0  0  1  0  0  3  0  0  0  0  0  0
  183.3210  178.4780  139.1710 C   0  0  1  0  0  3  0  0  0  0  0  0
  189.3130  177.9410  139.7030 C   0  0  0  0  0  2  0  0  0  0  0  0
  180.5680  180.9800  138.7820 O   0  0  0  0  0  1  0  0  0  0  0  0
  187.1260  178.1960  138.6750 N   0  0  2  0  0  0  0  0  0  0  0  0
  186.7890  176.9870  136.8760 C   0  0  0  0  0  2  0  0  0  0  0  0
  181.8120  177.2290  137.4840 N   0  0  0  0  0  0  0  0  0  0  0  0
  181.2650  179.7960  138.9880 C   0  0  0  0  0  0  0  0  0  0  0  0
  184.7620  178.6220  139.5990 C   0  0  0  0  0  0  0  0  0  0  0  0
  185.7640  178.3470  138.5550 C   0  0  2  0  0  3  0  0  0  0  0  0
  185.4990  177.6120  137.4960 C   0  0  2  0  0  3  0  0  0  0  0  0
  186.4500  178.7550  141.3210 C   0  0  0  0  0  0  0  0  0  0  0  0
  180.6660  177.6050  137.9820 C   0  0  0  0  0  3  0  0  0  0  0  0
  183.3280  180.9950  138.7750 N   0  0  0  0  0  1  0  0  0  0  0  0
  185.0770  178.8420  140.8890 C   0  0  0  0  0  3  0  0  0  0  0  0
  189.0300  178.1310  141.2180 C   0  0  1  0  0  3  0  0  0  0  0  0
  187.6330  178.5410  141.4200 C   0  0  0  0  0  0  0  0  0  0  0  0
  189.2730  176.8830  141.9320 N   0  0  0  0  0  2  0  0  0  0  0  0
  188.9480  177.9030  146.6130 C   0  0  0  0  0  1  0  0  0  0  0  0
  189.1050  176.9800  144.3330 C   0  0  0  0  0  3  0  0  0  0  0  0
  191.6570  176.7510  147.0330 O   0  0  0  0  0  1  0  0  0  0  0  0
  191.3540  176.6470  143.3300 C   0  0  0  0  0  2  0  0  0  0  0  0
  191.8220  176.2210  144.7190 C   0  0  0  0  0  2  0  0  0  0  0  0
  189.8590  176.8050  143.2360 C   0  0  0  0  0  0  0  0  0  0  0  0
  191.1660  177.1000  145.7740 C   0  0  1  0  0  3  0  0  0  0  0  0
  189.6520  176.8910  145.7310 C   0  0  1  0  0  3  0  0  0  0  0  0
  1  7  1  0  0  0  0
  2 16  1  0  0  0  0
  2  4  2  0  0  0  0
  3 11  1  6  0  0  0
  3 10  1  0  0  0  0
  3  6  1  0  0  0  0
  6  8  1  1  0  0  0
  7  4  1  6  0  0  0
  7 14  1  0  0  0  0
  8 21  1  0  0  0  0
  9 13  1  0  0  0  0
 10  6  1  0  0  0  0
 11 16  1  0  0  0  0
 12  4  1  0  0  0  0
 12 18  2  0  0  0  0
 13  1  2  0  0  0  0
 13  5  1  0  0  0  0
 14 20  2  0  0  0  0
 15 10  1  0  0  0  0
 15 14  1  0  0  0  0
 16 15  1  0  0  0  0
 17 22  3  0  0  0  0
 18  5  1  0  0  0  0
 19  1  1  0  0  0  0
 20 17  1  0  0  0  0
 21 22  1  0  0  0  0
 21 23  1  0  0  0  0
 23 29  1  0  0  0  0
 25 31  1  0  0  0  0
 27 28  1  0  0  0  0
 28 30  1  0  0  0  0
 29 27  1  0  0  0  0
 29 25  2  0  0  0  0
 30 26  1  0  0  0  0
 31 30  1  0  0  0  0
 31 24  1  0  0  0  0
M  END
>  <MODEL>
2

>  <REMARK>
 VINA RESULT:      -8.8      3.727      4.714
  Name = 
  2 active torsions:
  status: ('A' for Active; 'I' for Inactive)
    1  A    between atoms: N_6  and  C_19
    2  A    between atoms: N_6  and  C_30
                            x       y       z     vdW  Elec       q    Type
                         _______ _______ _______ _____ _____    ______ ____

>  <TORSDO>
F 2

$$$$
=
 OpenBabel10232411523D

 31 36  0  0  1  0  0  0  0  0999 V2000
  186.7180  177.3270  135.9030 C   0  0  0  0  0  0  0  0  0  0  0  0
  189.4100  175.0850  135.8690 N   0  0  0  0  0  0  0  0  0  0  0  0
  192.1750  176.5230  138.2070 C   0  0  2  0  0  3  0  0  0  0  0  0
  188.1130  175.2590  135.8230 C   0  0  0  0  0  0  0  0  0  0  0  0
  185.1430  175.5660  135.2180 C   0  0  0  0  0  2  0  0  0  0  0  0
  191.6500  176.3260  139.4620 C   0  0  1  0  0  3  0  0  0  0  0  0
  187.4130  176.2810  136.7310 C   0  0  1  0  0  3  0  0  0  0  0  0
  192.0110  177.4220  140.4760 C   0  0  0  0  0  2  0  0  0  0  0  0
  185.0290  177.8990  134.3460 O   0  0  0  0  0  1  0  0  0  0  0  0
  190.8020  176.9690  138.4180 N   0  0  2  0  0  0  0  0  0  0  0  0
  191.7520  175.5220  137.0710 C   0  0  0  0  0  2  0  0  0  0  0  0
  187.3630  174.4950  134.8620 N   0  0  0  0  0  0  0  0  0  0  0  0
  185.6580  176.9740  135.1700 C   0  0  0  0  0  0  0  0  0  0  0  0
  188.3040  176.8500  137.8090 C   0  0  0  0  0  0  0  0  0  0  0  0
  189.7520  176.7370  137.5610 C   0  0  2  0  0  3  0  0  0  0  0  0
  190.2610  175.8450  136.7380 C   0  0  2  0  0  3  0  0  0  0  0  0
  188.6540  177.6190  140.0720 C   0  0  0  0  0  0  0  0  0  0  0  0
  186.0970  174.6050  134.5670 C   0  0  0  0  0  3  0  0  0  0  0  0
  187.2500  178.6480  135.8030 N   0  0  0  0  0  1  0  0  0  0  0  0
  187.7830  177.2890  138.9700 C   0  0  0  0  0  3  0  0  0  0  0  0
  190.8850  177.6980  141.5100 C   0  0  1  0  0  3  0  0  0  0  0  0
  189.5810  177.7410  140.8330 C   0  0  0  0  0  0  0  0  0  0  0  0
  190.8670  176.6480  142.5210 N   0  0  0  0  0  2  0  0  0  0  0  0
  192.0950  175.9470  147.1100 C   0  0  0  0  0  1  0  0  0  0  0  0
  191.5270  176.7120  144.8370 C   0  0  0  0  0  3  0  0  0  0  0  0
  189.6170  177.3490  147.9670 O   0  0  0  0  0  1  0  0  0  0  0  0
  189.1460  177.1590  144.2850 C   0  0  0  0  0  2  0  0  0  0  0  0
  189.0070  177.7220  145.6980 C   0  0  0  0  0  2  0  0  0  0  0  0
  190.5740  176.8700  143.9040 C   0  0  0  0  0  0  0  0  0  0  0  0
  189.8100  176.8700  146.6710 C   0  0  1  0  0  3  0  0  0  0  0  0
  191.2920  176.9480  146.3030 C   0  0  1  0  0  3  0  0  0  0  0  0
  1  7  1  0  0  0  0
  2 16  1  0  0  0  0
  3 11  1  6  0  0  0
  3 10  1  0  0  0  0
  3  6  1  0  0  0  0
  4  2  2  0  0  0  0
  6  8  1  1  0  0  0
  7  4  1  6  0  0  0
  7 14  1  0  0  0  0
  8 21  1  0  0  0  0
  9 13  1  0  0  0  0
 10  6  1  0  0  0  0
 12  4  1  0  0  0  0
 13  5  1  0  0  0  0
 13  1  2  0  0  0  0
 14 20  2  0  0  0  0
 15 14  1  0  0  0  0
 15 10  1  0  0  0  0
 16 11  1  0  0  0  0
 16 15  1  0  0  0  0
 17 22  3  0  0  0  0
 18 12  2  0  0  0  0
 18  5  1  0  0  0  0
 19  1  1  0  0  0  0
 20 17  1  0  0  0  0
 21 23  1  0  0  0  0
 22 21  1  0  0  0  0
 23 29  1  0  0  0  0
 25 31  1  0  0  0  0
 27 28  1  0  0  0  0
 28 30  1  0  0  0  0
 29 27  1  0  0  0  0
 29 25  2  0  0  0  0
 30 26  1  0  0  0  0
 31 30  1  0  0  0  0
 31 24  1  0  0  0  0
M  END
>  <MODEL>
3

>  <REMARK>
 VINA RESULT:      -8.0      1.447      2.261
  Name = 
  2 active torsions:
  status: ('A' for Active; 'I' for Inactive)
    1  A    between atoms: N_6  and  C_19
    2  A    between atoms: N_6  and  C_30
                            x       y       z     vdW  Elec       q    Type
                         _______ _______ _______ _____ _____    ______ ____

>  <TORSDO>
F 2

$$$$
=
 OpenBabel10232411523D

 31 36  0  0  1  0  0  0  0  0999 V2000
  182.0100  178.2870  137.6720 C   0  0  0  0  0  0  0  0  0  0  0  0
  185.0730  176.8530  136.7530 N   0  0  0  0  0  0  0  0  0  0  0  0
  187.8370  178.4340  138.9980 C   0  0  2  0  0  3  0  0  0  0  0  0
  183.7820  176.7000  136.9160 C   0  0  0  0  0  0  0  0  0  0  0  0
  180.7570  176.3650  136.7870 C   0  0  0  0  0  2  0  0  0  0  0  0
  187.6040  177.8570  140.2250 C   0  0  1  0  0  3  0  0  0  0  0  0
  183.0540  177.3040  138.1270 C   0  0  1  0  0  3  0  0  0  0  0  0
  187.8970  178.7780  141.4200 C   0  0  0  0  0  2  0  0  0  0  0  0
  179.9830  178.7200  136.5280 O   0  0  0  0  0  1  0  0  0  0  0  0
  186.4610  178.4650  139.4840 N   0  0  2  0  0  0  0  0  0  0  0  0
  187.4420  177.6120  137.7180 C   0  0  0  0  0  2  0  0  0  0  0  0
  183.0540  175.9840  135.9030 N   0  0  0  0  0  0  0  0  0  0  0  0
  180.9360  177.8350  137.0160 C   0  0  0  0  0  0  0  0  0  0  0  0
  183.9810  177.8460  139.1880 C   0  0  0  0  0  0  0  0  0  0  0  0
  185.3490  178.1560  138.7370 C   0  0  2  0  0  3  0  0  0  0  0  0
  185.8810  177.6090  137.6650 C   0  0  2  0  0  3  0  0  0  0  0  0
  184.5600  178.1990  141.5050 C   0  0  0  0  0  0  0  0  0  0  0  0
  181.7620  175.8290  135.8060 C   0  0  0  0  0  3  0  0  0  0  0  0
  182.2160  179.6910  137.8280 N   0  0  0  0  0  1  0  0  0  0  0  0
  183.5970  177.8920  140.4770 C   0  0  0  0  0  3  0  0  0  0  0  0
  186.9450  178.5430  142.6240 C   0  0  1  0  0  3  0  0  0  0  0  0
  185.5620  178.3920  142.1490 C   0  0  0  0  0  0  0  0  0  0  0  0
  187.3390  177.3380  143.3450 N   0  0  0  0  0  2  0  0  0  0  0  0
  191.6260  176.1750  145.1660 C   0  0  0  0  0  1  0  0  0  0  0  0
  189.5380  177.1660  144.3110 C   0  0  0  0  0  3  0  0  0  0  0  0
  190.7280  177.1230  147.8370 O   0  0  0  0  0  1  0  0  0  0  0  0
  187.5990  177.3820  145.8480 C   0  0  0  0  0  2  0  0  0  0  0  0
  188.6070  177.7250  146.9430 C   0  0  0  0  0  2  0  0  0  0  0  0
  188.2160  177.3300  144.4760 C   0  0  0  0  0  0  0  0  0  0  0  0
  189.8460  176.8540  146.7900 C   0  0  1  0  0  3  0  0  0  0  0  0
  190.5170  177.1680  145.4520 C   0  0  1  0  0  3  0  0  0  0  0  0
  1 19  1  0  0  0  0
  1  7  1  0  0  0  0
  2  4  2  0  0  0  0
  2 16  1  0  0  0  0
  3 11  1  6  0  0  0
  3 10  1  0  0  0  0
  3  6  1  0  0  0  0
  5 13  1  0  0  0  0
  6  8  1  1  0  0  0
  7  4  1  6  0  0  0
  7 14  1  0  0  0  0
  8 21  1  0  0  0  0
  9 13  1  0  0  0  0
 10  6  1  0  0  0  0
 12  4  1  0  0  0  0
 13  1  2  0  0  0  0
 14 20  2  0  0  0  0
 15 14  1  0  0  0  0
 15 10  1  0  0  0  0
 16 11  1  0  0  0  0
 16 15  1  0  0  0  0
 17 22  3  0  0  0  0
 18 12  2  0  0  0  0
 18  5  1  0  0  0  0
 20 17  1  0  0  0  0
 21 23  1  0  0  0  0
 22 21  1  0  0  0  0
 23 29  1  0  0  0  0
 24 31  1  0  0  0  0
 25 29  2  0  0  0  0
 25 31  1  0  0  0  0
 27 28  1  0  0  0  0
 29 27  1  0  0  0  0
 30 28  1  0  0  0  0
 30 26  1  0  0  0  0
 31 30  1  0  0  0  0
M  END
>  <MODEL>
4

>  <REMARK>
 VINA RESULT:      -7.6      3.467      4.413
  Name = 
  2 active torsions:
  status: ('A' for Active; 'I' for Inactive)
    1  A    between atoms: N_6  and  C_19
    2  A    between atoms: N_6  and  C_30
                            x       y       z     vdW  Elec       q    Type
                         _______ _______ _______ _____ _____    ______ ____

>  <TORSDO>
F 2

$$$$
=
 OpenBabel10232411523D

 31 36  0  0  1  0  0  0  0  0999 V2000
  190.3810  178.4600  144.2290 C   0  0  0  0  0  0  0  0  0  0  0  0
  187.8040  177.5380  146.4180 N   0  0  0  0  0  0  0  0  0  0  0  0
  184.5110  179.1590  145.1130 C   0  0  2  0  0  3  0  0  0  0  0  0
  188.9230  177.2080  145.8230 C   0  0  0  0  0  0  0  0  0  0  0  0
  191.7410  176.5210  144.8930 C   0  0  0  0  0  2  0  0  0  0  0  0
  184.2210  178.4120  143.9960 C   0  0  1  0  0  3  0  0  0  0  0  0
  189.1780  177.5640  144.3500 C   0  0  1  0  0  3  0  0  0  0  0  0
  183.5620  179.2080  142.8580 C   0  0  0  0  0  2  0  0  0  0  0  0
  192.7140  178.7770  144.4710 O   0  0  0  0  0  1  0  0  0  0  0  0
  185.5980  178.9610  144.1610 N   0  0  2  0  0  0  0  0  0  0  0  0
  185.3040  178.4590  146.2750 C   0  0  0  0  0  2  0  0  0  0  0  0
  189.9300  176.5380  146.6020 N   0  0  0  0  0  0  0  0  0  0  0  0
  191.5890  177.9630  144.5120 C   0  0  0  0  0  0  0  0  0  0  0  0
  187.9570  178.0820  143.6280 C   0  0  0  0  0  0  0  0  0  0  0  0
  186.8870  178.6110  144.4900 C   0  0  2  0  0  3  0  0  0  0  0  0
  186.7640  178.2700  145.7550 C   0  0  2  0  0  3  0  0  0  0  0  0
  186.5690  178.2160  141.6560 C   0  0  0  0  0  0  0  0  0  0  0  0
  191.1490  176.2380  146.2440 C   0  0  0  0  0  3  0  0  0  0  0  0
  190.2280  179.8480  143.9360 N   0  0  0  0  0  1  0  0  0  0  0  0
  187.8270  177.9210  142.2980 C   0  0  0  0  0  3  0  0  0  0  0  0
  183.9690  178.7110  141.4440 C   0  0  1  0  0  3  0  0  0  0  0  0
  185.4150  178.4510  141.4000 C   0  0  0  0  0  0  0  0  0  0  0  0
  183.2490  177.4850  141.1200 N   0  0  0  0  0  2  0  0  0  0  0  0
  181.4790  179.0400  136.9360 C   0  0  0  0  0  1  0  0  0  0  0  0
  182.7080  178.1010  138.8550 C   0  0  0  0  0  3  0  0  0  0  0  0
  181.1300  176.2210  136.0570 O   0  0  0  0  0  1  0  0  0  0  0  0
  182.1840  175.7880  139.5950 C   0  0  0  0  0  2  0  0  0  0  0  0
  182.0260  175.4370  138.1170 C   0  0  0  0  0  2  0  0  0  0  0  0
  182.7570  177.1630  139.8150 C   0  0  0  0  0  0  0  0  0  0  0  0
  181.3360  176.5830  137.3890 C   0  0  1  0  0  3  0  0  0  0  0  0
  182.2220  177.8270  137.4590 C   0  0  1  0  0  3  0  0  0  0  0  0
  1  7  1  0  0  0  0
  1 13  2  0  0  0  0
  3 11  1  1  0  0  0
  4  2  2  0  0  0  0
  4 12  1  0  0  0  0
  5 18  1  0  0  0  0
  6  8  1  6  0  0  0
  6 10  1  0  0  0  0
  6  3  1  0  0  0  0
  7 14  1  1  0  0  0
  7  4  1  0  0  0  0
  9 13  1  0  0  0  0
 10 15  1  0  0  0  0
 10  3  1  0  0  0  0
 13  5  1  0  0  0  0
 14 15  1  0  0  0  0
 15 16  1  0  0  0  0
 16 11  1  0  0  0  0
 16  2  1  0  0  0  0
 17 20  1  0  0  0  0
 18 12  2  0  0  0  0
 19  1  1  0  0  0  0
 20 14  2  0  0  0  0
 21  8  1  0  0  0  0
 22 21  1  0  0  0  0
 22 17  3  0  0  0  0
 23 21  1  0  0  0  0
 24 31  1  0  0  0  0
 25 29  2  0  0  0  0
 26 30  1  0  0  0  0
 27 29  1  0  0  0  0
 28 27  1  0  0  0  0
 29 23  1  0  0  0  0
 30 31  1  0  0  0  0
 30 28  1  0  0  0  0
 31 25  1  0  0  0  0
M  END
>  <MODEL>
5

>  <REMARK>
 VINA RESULT:      -7.0      4.444      9.226
  Name = 
  2 active torsions:
  status: ('A' for Active; 'I' for Inactive)
    1  A    between atoms: N_6  and  C_19
    2  A    between atoms: N_6  and  C_30
                            x       y       z     vdW  Elec       q    Type
                         _______ _______ _______ _____ _____    ______ ____

>  <TORSDO>
F 2

$$$$
=
 OpenBabel10232411523D

 31 36  0  0  1  0  0  0  0  0999 V2000
  181.7400  173.4770  136.3420 C   0  0  0  0  0  0  0  0  0  0  0  0
  185.0480  174.3290  135.5640 N   0  0  0  0  0  0  0  0  0  0  0  0
  185.6120  178.0180  136.6820 C   0  0  2  0  0  3  0  0  0  0  0  0
  184.2050  173.4060  135.9530 C   0  0  0  0  0  0  0  0  0  0  0  0
  182.2860  171.0790  136.3840 C   0  0  0  0  0  2  0  0  0  0  0  0
  185.6530  177.9210  138.0530 C   0  0  1  0  0  3  0  0  0  0  0  0
  183.0890  173.7200  136.9610 C   0  0  1  0  0  3  0  0  0  0  0  0
  185.0550  179.1300  138.7890 C   0  0  0  0  0  2  0  0  0  0  0  0
  180.1660  171.9670  135.4200 O   0  0  0  0  0  1  0  0  0  0  0  0
  184.5320  177.2690  137.3170 N   0  0  2  0  0  0  0  0  0  0  0  0
  186.0820  176.7720  135.8470 C   0  0  0  0  0  2  0  0  0  0  0  0
  184.3240  172.0940  135.3740 N   0  0  0  0  0  0  0  0  0  0  0  0
  181.3780  172.2230  136.0500 C   0  0  0  0  0  0  0  0  0  0  0  0
  183.2230  175.0740  137.6170 C   0  0  0  0  0  0  0  0  0  0  0  0
  184.0590  176.0480  136.8950 C   0  0  2  0  0  3  0  0  0  0  0  0
  184.9750  175.6850  136.0230 C   0  0  2  0  0  3  0  0  0  0  0  0
  183.0470  176.5100  139.5510 C   0  0  0  0  0  0  0  0  0  0  0  0
  183.5190  171.0780  135.5250 C   0  0  0  0  0  3  0  0  0  0  0  0
  180.9070  174.5710  135.9580 N   0  0  0  0  0  1  0  0  0  0  0  0
  182.7220  175.2930  138.8470 C   0  0  0  0  0  3  0  0  0  0  0  0
  184.3510  178.7520  140.1210 C   0  0  1  0  0  3  0  0  0  0  0  0
  183.5350  177.5440  139.9330 C   0  0  0  0  0  0  0  0  0  0  0  0
  185.3460  178.5040  141.1580 N   0  0  0  0  0  2  0  0  0  0  0  0
  186.6890  177.4100  145.6360 C   0  0  0  0  0  1  0  0  0  0  0  0
  186.0600  178.3680  143.4540 C   0  0  0  0  0  3  0  0  0  0  0  0
  184.2200  178.7020  146.6730 O   0  0  0  0  0  1  0  0  0  0  0  0
  183.6620  178.8360  143.0010 C   0  0  0  0  0  2  0  0  0  0  0  0
  183.5530  179.2700  144.4600 C   0  0  0  0  0  2  0  0  0  0  0  0
  185.0840  178.5980  142.5620 C   0  0  0  0  0  0  0  0  0  0  0  0
  184.3860  178.3430  145.3350 C   0  0  1  0  0  3  0  0  0  0  0  0
  185.8580  178.4700  144.9410 C   0  0  1  0  0  3  0  0  0  0  0  0
  1  7  1  0  0  0  0
  2  4  2  0  0  0  0
  2 16  1  0  0  0  0
  3 11  1  6  0  0  0
  3 10  1  0  0  0  0
  3  6  1  0  0  0  0
  6  8  1  1  0  0  0
  7  4  1  6  0  0  0
  7 14  1  0  0  0  0
  8 21  1  0  0  0  0
  9 13  1  0  0  0  0
 10  6  1  0  0  0  0
 11 16  1  0  0  0  0
 12 18  2  0  0  0  0
 12  4  1  0  0  0  0
 13  1  2  0  0  0  0
 13  5  1  0  0  0  0
 14 20  2  0  0  0  0
 15 10  1  0  0  0  0
 15 14  1  0  0  0  0
 16 15  1  0  0  0  0
 17 22  3  0  0  0  0
 18  5  1  0  0  0  0
 19  1  1  0  0  0  0
 20 17  1  0  0  0  0
 21 23  1  0  0  0  0
 22 21  1  0  0  0  0
 23 29  1  0  0  0  0
 25 31  1  0  0  0  0
 27 28  1  0  0  0  0
 28 30  1  0  0  0  0
 29 27  1  0  0  0  0
 29 25  2  0  0  0  0
 30 26  1  0  0  0  0
 31 30  1  0  0  0  0
 31 24  1  0  0  0  0
M  END
>  <MODEL>
6

>  <REMARK>
 VINA RESULT:      -6.9      4.513      6.134
  Name = 
  2 active torsions:
  status: ('A' for Active; 'I' for Inactive)
    1  A    between atoms: N_6  and  C_19
    2  A    between atoms: N_6  and  C_30
                            x       y       z     vdW  Elec       q    Type
                         _______ _______ _______ _____ _____    ______ ____

>  <TORSDO>
F 2

$$$$
=
 OpenBabel10232411523D

 31 36  0  0  1  0  0  0  0  0999 V2000
  190.2810  178.3850  143.4900 C   0  0  0  0  0  0  0  0  0  0  0  0
  186.8840  177.8300  144.1450 N   0  0  0  0  0  0  0  0  0  0  0  0
  184.8610  179.1370  141.0830 C   0  0  2  0  0  3  0  0  0  0  0  0
  188.1190  177.4160  144.2770 C   0  0  0  0  0  0  0  0  0  0  0  0
  190.9520  176.6190  145.0650 C   0  0  0  0  0  2  0  0  0  0  0  0
  185.1260  178.1970  140.1150 C   0  0  1  0  0  3  0  0  0  0  0  0
  189.1190  177.5060  143.1140 C   0  0  1  0  0  3  0  0  0  0  0  0
  185.2060  178.7650  138.6900 C   0  0  0  0  0  2  0  0  0  0  0  0
  192.1800  178.7780  144.8490 O   0  0  0  0  0  1  0  0  0  0  0  0
  186.2630  178.7890  140.8770 N   0  0  2  0  0  0  0  0  0  0  0  0
  184.8900  178.6700  142.5840 C   0  0  0  0  0  2  0  0  0  0  0  0
  188.5300  176.9130  145.5620 N   0  0  0  0  0  0  0  0  0  0  0  0
  191.1310  177.9660  144.4330 C   0  0  0  0  0  0  0  0  0  0  0  0
  188.4850  177.8670  141.7920 C   0  0  0  0  0  0  0  0  0  0  0  0
  187.1700  178.5250  141.8770 C   0  0  2  0  0  3  0  0  0  0  0  0
  186.3910  178.4140  142.9320 C   0  0  2  0  0  3  0  0  0  0  0  0
  188.3160  177.6220  139.3960 C   0  0  0  0  0  0  0  0  0  0  0  0
  189.7320  176.5730  145.9400 C   0  0  0  0  0  3  0  0  0  0  0  0
  190.4100  179.6960  142.9400 N   0  0  0  0  0  1  0  0  0  0  0  0
  189.0410  177.4680  140.6330 C   0  0  0  0  0  3  0  0  0  0  0  0
  186.2380  178.0290  137.7920 C   0  0  1  0  0  3  0  0  0  0  0  0
  187.4770  177.7880  138.5450 C   0  0  0  0  0  0  0  0  0  0  0  0
  185.6910  176.7530  137.3460 N   0  0  0  0  0  2  0  0  0  0  0  0
  187.8530  172.4710  137.1300 C   0  0  0  0  0  1  0  0  0  0  0  0
  186.4840  174.5130  136.9530 C   0  0  0  0  0  3  0  0  0  0  0  0
  188.7130  173.0670  134.3460 O   0  0  0  0  0  1  0  0  0  0  0  0
  187.1980  176.2990  135.3800 C   0  0  0  0  0  2  0  0  0  0  0  0
  187.6270  175.1820  134.4320 C   0  0  0  0  0  2  0  0  0  0  0  0
  186.4170  175.7970  136.5660 C   0  0  0  0  0  0  0  0  0  0  0  0
  188.2580  174.0480  135.2280 C   0  0  1  0  0  3  0  0  0  0  0  0
  187.2110  173.4540  136.1710 C   0  0  1  0  0  3  0  0  0  0  0  0
  1 13  2  0  0  0  0
  2  4  2  0  0  0  0
  3 11  1  1  0  0  0
  4 12  1  0  0  0  0
  5 18  1  0  0  0  0
  6  8  1  6  0  0  0
  6 10  1  0  0  0  0
  6  3  1  0  0  0  0
  7 14  1  6  0  0  0
  7  1  1  0  0  0  0
  7  4  1  0  0  0  0
 10  3  1  0  0  0  0
 10 15  1  0  0  0  0
 11 16  1  0  0  0  0
 12 18  2  0  0  0  0
 13  9  1  0  0  0  0
 13  5  1  0  0  0  0
 14 15  1  0  0  0  0
 15 16  1  0  0  0  0
 16  2  1  0  0  0  0
 17 20  1  0  0  0  0
 19  1  1  0  0  0  0
 20 14  2  0  0  0  0
 21 22  1  0  0  0  0
 21  8  1  0  0  0  0
 22 17  3  0  0  0  0
 23 21  1  0  0  0  0
 26 30  1  0  0  0  0
 27 29  1  0  0  0  0
 28 30  1  0  0  0  0
 28 27  1  0  0  0  0
 29 25  2  0  0  0  0
 29 23  1  0  0  0  0
 30 31  1  0  0  0  0
 31 25  1  0  0  0  0
 31 24  1  0  0  0  0
M  END
>  <MODEL>
7

>  <REMARK>
 VINA RESULT:      -6.9      2.745      8.926
  Name = 
  2 active torsions:
  status: ('A' for Active; 'I' for Inactive)
    1  A    between atoms: N_6  and  C_19
    2  A    between atoms: N_6  and  C_30
                            x       y       z     vdW  Elec       q    Type
                         _______ _______ _______ _____ _____    ______ ____

>  <TORSDO>
F 2

$$$$
=
 OpenBabel10232411523D

 31 36  0  0  1  0  0  0  0  0999 V2000
  191.0500  177.2680  141.3390 C   0  0  0  0  0  0  0  0  0  0  0  0
  188.2700  178.5860  139.6630 N   0  0  0  0  0  0  0  0  0  0  0  0
  189.0070  178.4190  135.8410 C   0  0  2  0  0  3  0  0  0  0  0  0
  188.7270  177.9020  140.6820 C   0  0  0  0  0  0  0  0  0  0  0  0
  189.6970  176.7340  143.3230 C   0  0  0  0  0  2  0  0  0  0  0  0
  188.9000  177.0760  135.5650 C   0  0  1  0  0  3  0  0  0  0  0  0
  189.8570  176.8760  140.5110 C   0  0  1  0  0  3  0  0  0  0  0  0
  189.8660  176.5760  134.4790 C   0  0  0  0  0  2  0  0  0  0  0  0
  192.0170  177.6340  143.4690 O   0  0  0  0  0  1  0  0  0  0  0  0
  189.7400  177.5120  136.7180 N   0  0  2  0  0  0  0  0  0  0  0  0
  188.1510  178.9920  137.0280 C   0  0  0  0  0  2  0  0  0  0  0  0
  188.1700  178.1730  141.9810 N   0  0  0  0  0  0  0  0  0  0  0  0
  190.9560  177.2200  142.6720 C   0  0  0  0  0  0  0  0  0  0  0  0
  190.1890  176.5700  139.0700 C   0  0  0  0  0  0  0  0  0  0  0  0
  189.7660  177.5850  138.0910 C   0  0  2  0  0  3  0  0  0  0  0  0
  188.8030  178.4470  138.3390 C   0  0  2  0  0  3  0  0  0  0  0  0
  190.8090  175.0120  137.3320 C   0  0  0  0  0  0  0  0  0  0  0  0
  188.5640  177.7020  143.1330 C   0  0  0  0  0  3  0  0  0  0  0  0
  192.2230  177.7970  140.7210 N   0  0  0  0  0  1  0  0  0  0  0  0
  190.7050  175.3750  138.7240 C   0  0  0  0  0  3  0  0  0  0  0  0
  190.3590  175.1230  134.7170 C   0  0  1  0  0  3  0  0  0  0  0  0
  190.7040  174.9350  136.1330 C   0  0  0  0  0  0  0  0  0  0  0  0
  189.3150  174.1750  134.3460 N   0  0  0  0  0  2  0  0  0  0  0  0
  185.3570  175.4520  136.7440 C   0  0  0  0  0  1  0  0  0  0  0  0
  187.1340  174.5450  135.2970 C   0  0  0  0  0  3  0  0  0  0  0  0
  185.1860  172.7110  137.8860 O   0  0  0  0  0  1  0  0  0  0  0  0
  188.4390  172.5860  136.0910 C   0  0  0  0  0  2  0  0  0  0  0  0
  187.1350  172.0590  136.6860 C   0  0  0  0  0  2  0  0  0  0  0  0
  188.2390  173.7880  135.2070 C   0  0  0  0  0  0  0  0  0  0  0  0
  186.3390  173.2130  137.2800 C   0  0  1  0  0  3  0  0  0  0  0  0
  185.9590  174.1870  136.1650 C   0  0  1  0  0  3  0  0  0  0  0  0
  1 13  2  0  0  0  0
  2  4  2  0  0  0  0
  3 10  1  0  0  0  0
  3 11  1  1  0  0  0
  4 12  1  0  0  0  0
  6  8  1  6  0  0  0
  6  3  1  0  0  0  0
  6 10  1  0  0  0  0
  7 14  1  6  0  0  0
  7  4  1  0  0  0  0
  7  1  1  0  0  0  0
  8 21  1  0  0  0  0
 10 15  1  0  0  0  0
 11 16  1  0  0  0  0
 12 18  2  0  0  0  0
 13  5  1  0  0  0  0
 13  9  1  0  0  0  0
 15 16  1  0  0  0  0
 15 14  1  0  0  0  0
 16  2  1  0  0  0  0
 17 20  1  0  0  0  0
 18  5  1  0  0  0  0
 19  1  1  0  0  0  0
 20 14  2  0  0  0  0
 21 22  1  0  0  0  0
 22 17  3  0  0  0  0
 23 21  1  0  0  0  0
 23 29  1  0  0  0  0
 25 31  1  0  0  0  0
 27 28  1  0  0  0  0
 28 30  1  0  0  0  0
 29 25  2  0  0  0  0
 29 27  1  0  0  0  0
 30 26  1  0  0  0  0
 31 24  1  0  0  0  0
 31 30  1  0  0  0  0
M  END
>  <MODEL>
8

>  <REMARK>
 VINA RESULT:      -6.7      2.882      8.110
  Name = 
  2 active torsions:
  status: ('A' for Active; 'I' for Inactive)
    1  A    between atoms: N_6  and  C_19
    2  A    between atoms: N_6  and  C_30
                            x       y       z     vdW  Elec       q    Type
                         _______ _______ _______ _____ _____    ______ ____

>  <TORSDO>
F 2

$$$$
=
 OpenBabel10232411523D

 31 36  0  0  1  0  0  0  0  0999 V2000
  190.2490  178.4080  143.4840 C   0  0  0  0  0  0  0  0  0  0  0  0
  186.8570  177.8220  144.1360 N   0  0  0  0  0  0  0  0  0  0  0  0
  184.8240  179.1240  141.0780 C   0  0  2  0  0  3  0  0  0  0  0  0
  188.0950  177.4180  144.2670 C   0  0  0  0  0  0  0  0  0  0  0  0
  190.9350  176.6420  145.0520 C   0  0  0  0  0  2  0  0  0  0  0  0
  185.0980  178.1910  140.1070 C   0  0  1  0  0  3  0  0  0  0  0  0
  189.0950  177.5220  143.1050 C   0  0  1  0  0  3  0  0  0  0  0  0
  185.1740  178.7650  138.6830 C   0  0  0  0  0  2  0  0  0  0  0  0
  192.1440  178.8120  144.8460 O   0  0  0  0  0  1  0  0  0  0  0  0
  186.2290  178.7890  140.8720 N   0  0  2  0  0  0  0  0  0  0  0  0
  184.8570  178.6510  142.5770 C   0  0  0  0  0  2  0  0  0  0  0  0
  188.5100  176.9140  145.5490 N   0  0  0  0  0  0  0  0  0  0  0  0
  191.1020  177.9930  144.4260 C   0  0  0  0  0  0  0  0  0  0  0  0
  188.4580  177.8820  141.7840 C   0  0  0  0  0  0  0  0  0  0  0  0
  187.1380  178.5280  141.8710 C   0  0  2  0  0  3  0  0  0  0  0  0
  186.3590  178.4070  142.9250 C   0  0  2  0  0  3  0  0  0  0  0  0
  188.2930  177.6460  139.3860 C   0  0  0  0  0  0  0  0  0  0  0  0
  189.7140  176.5820  145.9260 C   0  0  0  0  0  3  0  0  0  0  0  0
  190.3670  179.7230  142.9400 N   0  0  0  0  0  1  0  0  0  0  0  0
  189.0180  177.4930  140.6230 C   0  0  0  0  0  3  0  0  0  0  0  0
  186.2120  178.0420  137.7830 C   0  0  1  0  0  3  0  0  0  0  0  0
  187.4530  177.8090  138.5360 C   0  0  0  0  0  0  0  0  0  0  0  0
  185.6770  176.7630  137.3310 N   0  0  0  0  0  2  0  0  0  0  0  0
  181.7900  173.9430  137.3470 C   0  0  0  0  0  1  0  0  0  0  0  0
  183.5450  175.6630  137.5450 C   0  0  0  0  0  3  0  0  0  0  0  0
  180.4100  175.8670  135.5480 O   0  0  0  0  0  1  0  0  0  0  0  0
  183.8420  177.2880  135.6890 C   0  0  0  0  0  2  0  0  0  0  0  0
  182.3210  177.2840  135.5490 C   0  0  0  0  0  2  0  0  0  0  0  0
  184.3210  176.5600  136.9180 C   0  0  0  0  0  0  0  0  0  0  0  0
  181.7910  175.8720  135.7510 C   0  0  1  0  0  3  0  0  0  0  0  0
  182.1080  175.4160  137.1760 C   0  0  1  0  0  3  0  0  0  0  0  0
  1 13  2  0  0  0  0
  2  4  2  0  0  0  0
  3 11  1  1  0  0  0
  4 12  1  0  0  0  0
  5 18  1  0  0  0  0
  6  8  1  6  0  0  0
  6 10  1  0  0  0  0
  6  3  1  0  0  0  0
  7 14  1  6  0  0  0
  7  1  1  0  0  0  0
  7  4  1  0  0  0  0
 10  3  1  0  0  0  0
 10 15  1  0  0  0  0
 11 16  1  0  0  0  0
 12 18  2  0  0  0  0
 13  9  1  0  0  0  0
 13  5  1  0  0  0  0
 14 15  1  0  0  0  0
 15 16  1  0  0  0  0
 16  2  1  0  0  0  0
 17 20  1  0  0  0  0
 19  1  1  0  0  0  0
 20 14  2  0  0  0  0
 21 22  1  0  0  0  0
 21  8  1  0  0  0  0
 22 17  3  0  0  0  0
 23 21  1  0  0  0  0
 26 30  1  0  0  0  0
 27 29  1  0  0  0  0
 28 27  1  0  0  0  0
 28 30  1  0  0  0  0
 29 23  1  0  0  0  0
 29 25  2  0  0  0  0
 30 31  1  0  0  0  0
 31 24  1  0  0  0  0
 31 25  1  0  0  0  0
M  END
>  <MODEL>
9

>  <REMARK>
 VINA RESULT:      -6.6      3.204      9.032
  Name = 
  2 active torsions:
  status: ('A' for Active; 'I' for Inactive)
    1  A    between atoms: N_6  and  C_19
    2  A    between atoms: N_6  and  C_30
                            x       y       z     vdW  Elec       q    Type
                         _______ _______ _______ _____ _____    ______ ____

>  <TORSDO>
F 2

$$$$
