=
 OpenBabel10232411023D

 26 29  0  0  1  0  0  0  0  0999 V2000
  189.4070  176.9980  145.2580 C   0  0  0  0  0  0  0  0  0  0  0  0
  190.6850  177.3810  144.7920 C   0  0  0  0  0  0  0  0  0  0  0  0
  191.5480  176.9130  146.9750 N   0  0  0  0  0  0  0  0  0  0  0  0
  189.2580  176.5960  146.5500 N   0  0  0  0  0  0  0  0  0  0  0  0
  191.7500  177.3280  145.6980 C   0  0  0  0  0  3  0  0  0  0  0  0
  190.3130  176.5490  147.4010 C   0  0  0  0  0  3  0  0  0  0  0  0
  191.0120  176.8800  142.3460 N   0  0  0  0  0  2  0  0  0  0  0  0
  190.9500  177.8420  143.4100 C   0  0  0  0  0  0  0  0  0  0  0  0
  191.1410  179.0650  143.1710 O   0  0  0  0  0  0  0  0  0  0  0  0
  190.6100  176.7310  137.9160 C   0  0  0  0  0  3  0  0  0  0  0  0
  189.9400  177.2900  140.2330 C   0  0  0  0  0  3  0  0  0  0  0  0
  192.7840  177.0230  139.0940 C   0  0  0  0  0  3  0  0  0  0  0  0
  191.0700  177.1670  140.9410 C   0  0  0  0  0  0  0  0  0  0  0  0
  189.8850  177.6920  138.7970 C   0  0  0  0  0  2  0  0  0  0  0  0
  191.9120  176.4800  138.0340 C   0  0  0  0  0  3  0  0  0  0  0  0
  192.4150  177.3190  140.3470 C   0  0  0  0  0  3  0  0  0  0  0  0
  188.1870  177.0860  144.3940 C   0  0  0  0  0  2  0  0  0  0  0  0
  185.2490  178.2750  143.4490 C   0  0  0  0  0  3  0  0  0  0  0  0
  187.0680  177.7620  145.1120 C   0  0  0  0  0  0  0  0  0  0  0  0
  185.6260  177.6520  144.7680 C   0  0  1  0  0  3  0  0  0  0  0  0
  185.9440  178.8830  146.7190 N   0  0  0  0  0  0  0  0  0  0  0  0
  183.7810  179.0910  145.7430 N   0  0  0  0  0  0  0  0  0  0  0  0
  183.3260  179.3400  144.5480 C   0  0  0  0  0  3  0  0  0  0  0  0
  185.0560  178.4630  145.8790 C   0  0  0  0  0  0  0  0  0  0  0  0
  187.2050  178.4020  146.2670 C   0  0  0  0  0  3  0  0  0  0  0  0
  184.1360  179.0160  143.3430 C   0  0  0  0  0  3  0  0  0  0  0  0
  1  4  1  0  0  0  0
  2  1  2  0  0  0  0
  2  5  1  0  0  0  0
  3  6  1  0  0  0  0
  4  6  2  0  0  0  0
  5  3  2  0  0  0  0
  7  8  1  0  0  0  0
  8  2  1  0  0  0  0
  9  8  2  0  0  0  0
 10 15  2  0  0  0  0
 10 14  1  0  0  0  0
 11 13  2  0  0  0  0
 12 16  2  0  0  0  0
 13  7  1  0  0  0  0
 14 11  1  0  0  0  0
 15 12  1  0  0  0  0
 16 13  1  0  0  0  0
 17 19  1  0  0  0  0
 17  1  1  0  0  0  0
 19 25  2  0  0  0  0
 20 18  1  6  0  0  0
 20 19  1  0  0  0  0
 20 24  1  0  0  0  0
 22 24  1  0  0  0  0
 23 22  2  0  0  0  0
 24 21  2  0  0  0  0
 25 21  1  0  0  0  0
 26 18  2  0  0  0  0
 26 23  1  0  0  0  0
M  END
>  <MODEL>
1

>  <REMARK>
 VINA RESULT:      -8.7      0.000      0.000
  Name = 
  4 active torsions:
  status: ('A' for Active; 'I' for Inactive)
    1  A    between atoms: C_2  and  C_18
    2  A    between atoms: C_4  and  C_13
    3  A    between atoms: N_5  and  C_20
    4  A    between atoms: C_7  and  C_18
                            x       y       z     vdW  Elec       q    Type
                         _______ _______ _______ _____ _____    ______ ____

>  <TORSDO>
F 4

$$$$
=
 OpenBabel10232411023D

 26 29  0  0  1  0  0  0  0  0999 V2000
  188.2190  178.5180  141.0570 C   0  0  0  0  0  0  0  0  0  0  0  0
  188.7670  177.3200  141.5670 C   0  0  0  0  0  0  0  0  0  0  0  0
  189.6680  176.8840  139.3920 N   0  0  0  0  0  0  0  0  0  0  0  0
  188.4150  178.8410  139.7490 N   0  0  0  0  0  0  0  0  0  0  0  0
  189.4960  176.5130  140.6860 C   0  0  0  0  0  3  0  0  0  0  0  0
  189.1330  178.0390  138.9240 C   0  0  0  0  0  3  0  0  0  0  0  0
  189.0150  177.7410  144.0370 N   0  0  0  0  0  2  0  0  0  0  0  0
  188.6030  176.8750  142.9700 C   0  0  0  0  0  0  0  0  0  0  0  0
  188.1270  175.7360  143.2260 O   0  0  0  0  0  0  0  0  0  0  0  0
  188.0580  178.3320  148.3430 C   0  0  0  0  0  3  0  0  0  0  0  0
  187.5730  177.8960  145.9550 C   0  0  0  0  0  3  0  0  0  0  0  0
  190.1160  177.1900  147.5330 C   0  0  0  0  0  3  0  0  0  0  0  0
  188.7590  177.5500  145.4360 C   0  0  0  0  0  0  0  0  0  0  0  0
  187.1650  177.6410  147.3680 C   0  0  0  0  0  2  0  0  0  0  0  0
  189.3630  178.0840  148.4330 C   0  0  0  0  0  3  0  0  0  0  0  0
  189.8500  176.9620  146.2400 C   0  0  0  0  0  3  0  0  0  0  0  0
  187.3620  179.4190  141.8920 C   0  0  0  0  0  2  0  0  0  0  0  0
  184.8850  179.2170  144.0750 C   0  0  0  0  0  3  0  0  0  0  0  0
  185.9230  179.0400  141.7880 C   0  0  0  0  0  0  0  0  0  0  0  0
  184.8200  179.5920  142.6180 C   0  0  1  0  0  3  0  0  0  0  0  0
  184.0100  178.1650  140.9650 N   0  0  0  0  0  0  0  0  0  0  0  0
  182.4570  178.6760  142.6970 N   0  0  0  0  0  0  0  0  0  0  0  0
  182.4910  178.6700  143.9990 C   0  0  0  0  0  3  0  0  0  0  0  0
  183.6720  178.8930  141.9770 C   0  0  0  0  0  0  0  0  0  0  0  0
  185.4200  178.2950  140.8120 C   0  0  0  0  0  3  0  0  0  0  0  0
  183.7750  178.8430  144.7290 C   0  0  0  0  0  3  0  0  0  0  0  0
  1  2  1  0  0  0  0
  1 17  1  0  0  0  0
  2  8  1  0  0  0  0
  3  5  1  0  0  0  0
  4  1  2  0  0  0  0
  5  2  2  0  0  0  0
  6  3  2  0  0  0  0
  6  4  1  0  0  0  0
  7 13  1  0  0  0  0
  8  9  2  0  0  0  0
  8  7  1  0  0  0  0
 10 15  2  0  0  0  0
 11 14  1  0  0  0  0
 12 15  1  0  0  0  0
 13 11  2  0  0  0  0
 13 16  1  0  0  0  0
 14 10  1  0  0  0  0
 16 12  2  0  0  0  0
 18 26  2  0  0  0  0
 19 17  1  0  0  0  0
 19 20  1  0  0  0  0
 20 18  1  1  0  0  0
 21 24  2  0  0  0  0
 22 23  2  0  0  0  0
 23 26  1  0  0  0  0
 24 20  1  0  0  0  0
 24 22  1  0  0  0  0
 25 21  1  0  0  0  0
 25 19  2  0  0  0  0
M  END
>  <MODEL>
2

>  <REMARK>
 VINA RESULT:      -8.6      2.412      5.976
  Name = 
  4 active torsions:
  status: ('A' for Active; 'I' for Inactive)
    1  A    between atoms: C_2  and  C_18
    2  A    between atoms: C_4  and  C_13
    3  A    between atoms: N_5  and  C_20
    4  A    between atoms: C_7  and  C_18
                            x       y       z     vdW  Elec       q    Type
                         _______ _______ _______ _____ _____    ______ ____

>  <TORSDO>
F 4

$$$$
=
 OpenBabel10232411023D

 26 29  0  0  1  0  0  0  0  0999 V2000
  189.4060  177.0500  143.8650 C   0  0  0  0  0  0  0  0  0  0  0  0
  190.0070  177.8020  142.8300 C   0  0  0  0  0  0  0  0  0  0  0  0
  191.9410  178.0420  144.2190 N   0  0  0  0  0  0  0  0  0  0  0  0
  190.0920  176.8320  145.0200 N   0  0  0  0  0  0  0  0  0  0  0  0
  191.2980  178.2930  143.0510 C   0  0  0  0  0  3  0  0  0  0  0  0
  191.3460  177.3160  145.1990 C   0  0  0  0  0  3  0  0  0  0  0  0
  189.9260  177.6280  140.3190 N   0  0  0  0  0  2  0  0  0  0  0  0
  189.3420  178.1020  141.5420 C   0  0  0  0  0  0  0  0  0  0  0  0
  188.2840  178.7860  141.5140 O   0  0  0  0  0  0  0  0  0  0  0  0
  187.2860  178.4660  136.8360 C   0  0  0  0  0  3  0  0  0  0  0  0
  189.1940  178.8320  138.3710 C   0  0  0  0  0  3  0  0  0  0  0  0
  187.8500  176.1700  137.6180 C   0  0  0  0  0  3  0  0  0  0  0  0
  189.3250  177.6660  139.0170 C   0  0  0  0  0  0  0  0  0  0  0  0
  188.6840  178.9690  136.9750 C   0  0  0  0  0  2  0  0  0  0  0  0
  186.9430  177.2040  137.0830 C   0  0  0  0  0  3  0  0  0  0  0  0
  188.8780  176.3760  138.4510 C   0  0  0  0  0  3  0  0  0  0  0  0
  188.0020  176.5380  143.7630 C   0  0  0  0  0  2  0  0  0  0  0  0
  185.2570  178.2310  143.0250 C   0  0  0  0  0  3  0  0  0  0  0  0
  187.0640  177.3820  144.5600 C   0  0  0  0  0  0  0  0  0  0  0  0
  185.6050  177.5270  144.3110 C   0  0  1  0  0  3  0  0  0  0  0  0
  186.2540  178.6470  146.2470 N   0  0  0  0  0  0  0  0  0  0  0  0
  184.1010  179.2410  145.4190 N   0  0  0  0  0  0  0  0  0  0  0  0
  183.6200  179.5870  144.2590 C   0  0  0  0  0  3  0  0  0  0  0  0
  185.2560  178.4010  145.4650 C   0  0  0  0  0  0  0  0  0  0  0  0
  187.3830  177.9670  145.7070 C   0  0  0  0  0  3  0  0  0  0  0  0
  184.2830  179.1530  143.0000 C   0  0  0  0  0  3  0  0  0  0  0  0
  1  4  1  0  0  0  0
  2  5  1  0  0  0  0
  2  1  2  0  0  0  0
  3  6  1  0  0  0  0
  4  6  2  0  0  0  0
  5  3  2  0  0  0  0
  7  8  1  0  0  0  0
  8  2  1  0  0  0  0
  9  8  2  0  0  0  0
 10 14  1  0  0  0  0
 10 15  2  0  0  0  0
 11 13  2  0  0  0  0
 12 16  2  0  0  0  0
 13  7  1  0  0  0  0
 14 11  1  0  0  0  0
 15 12  1  0  0  0  0
 16 13  1  0  0  0  0
 17  1  1  0  0  0  0
 17 19  1  0  0  0  0
 19 25  2  0  0  0  0
 20 18  1  6  0  0  0
 20 19  1  0  0  0  0
 20 24  1  0  0  0  0
 22 24  1  0  0  0  0
 23 22  2  0  0  0  0
 24 21  2  0  0  0  0
 25 21  1  0  0  0  0
 26 18  2  0  0  0  0
 26 23  1  0  0  0  0
M  END
>  <MODEL>
3

>  <REMARK>
 VINA RESULT:      -8.6      1.754      2.518
  Name = 
  4 active torsions:
  status: ('A' for Active; 'I' for Inactive)
    1  A    between atoms: C_2  and  C_18
    2  A    between atoms: C_4  and  C_13
    3  A    between atoms: N_5  and  C_20
    4  A    between atoms: C_7  and  C_18
                            x       y       z     vdW  Elec       q    Type
                         _______ _______ _______ _____ _____    ______ ____

>  <TORSDO>
F 4

$$$$
=
 OpenBabel10232411023D

 26 29  0  0  1  0  0  0  0  0999 V2000
  189.9710  177.9490  141.8170 C   0  0  0  0  0  0  0  0  0  0  0  0
  188.8490  177.7210  140.9880 C   0  0  0  0  0  0  0  0  0  0  0  0
  190.2370  176.3490  139.6010 N   0  0  0  0  0  0  0  0  0  0  0  0
  191.1640  177.3740  141.5020 N   0  0  0  0  0  0  0  0  0  0  0  0
  189.0260  176.9030  139.8660 C   0  0  0  0  0  3  0  0  0  0  0  0
  191.3000  176.5800  140.4110 C   0  0  0  0  0  3  0  0  0  0  0  0
  186.7660  177.8930  142.3920 N   0  0  0  0  0  2  0  0  0  0  0  0
  187.5130  178.3070  141.2380 C   0  0  0  0  0  0  0  0  0  0  0  0
  187.0230  179.1450  140.4340 O   0  0  0  0  0  0  0  0  0  0  0  0
  182.9830  178.7460  144.5750 C   0  0  0  0  0  3  0  0  0  0  0  0
  185.4270  178.7770  144.1830 C   0  0  0  0  0  3  0  0  0  0  0  0
  183.1720  178.7460  142.0920 C   0  0  0  0  0  3  0  0  0  0  0  0
  185.5560  178.4880  142.8810 C   0  0  0  0  0  0  0  0  0  0  0  0
  184.2590  179.4920  144.7760 C   0  0  0  0  0  2  0  0  0  0  0  0
  182.4910  178.4630  143.3700 C   0  0  0  0  0  3  0  0  0  0  0  0
  184.4960  178.7570  141.8870 C   0  0  0  0  0  3  0  0  0  0  0  0
  189.9120  178.8640  143.0000 C   0  0  0  0  0  2  0  0  0  0  0  0
  188.3320  177.9720  145.7660 C   0  0  0  0  0  3  0  0  0  0  0  0
  190.3310  178.1590  144.2460 C   0  0  0  0  0  0  0  0  0  0  0  0
  189.4690  177.2700  145.0700 C   0  0  1  0  0  3  0  0  0  0  0  0
  191.6610  177.2970  145.8560 N   0  0  0  0  0  0  0  0  0  0  0  0
  190.0640  176.3880  147.3710 N   0  0  0  0  0  0  0  0  0  0  0  0
  188.9060  176.7660  147.8300 C   0  0  0  0  0  3  0  0  0  0  0  0
  190.4750  176.8370  146.0780 C   0  0  0  0  0  0  0  0  0  0  0  0
  191.5850  178.0900  144.6750 C   0  0  0  0  0  3  0  0  0  0  0  0
  188.0390  177.6850  147.0440 C   0  0  0  0  0  3  0  0  0  0  0  0
  1 17  1  0  0  0  0
  2  8  1  0  0  0  0
  2  1  2  0  0  0  0
  3  5  2  0  0  0  0
  3  6  1  0  0  0  0
  4  1  1  0  0  0  0
  5  2  1  0  0  0  0
  6  4  2  0  0  0  0
  7 13  1  0  0  0  0
  8  7  1  0  0  0  0
  9  8  2  0  0  0  0
 10 14  1  0  0  0  0
 11 14  1  0  0  0  0
 12 15  1  0  0  0  0
 13 11  2  0  0  0  0
 15 10  2  0  0  0  0
 16 12  2  0  0  0  0
 16 13  1  0  0  0  0
 17 19  1  0  0  0  0
 18 26  2  0  0  0  0
 19 25  2  0  0  0  0
 19 20  1  0  0  0  0
 20 18  1  1  0  0  0
 20 24  1  0  0  0  0
 21 24  2  0  0  0  0
 22 23  2  0  0  0  0
 24 22  1  0  0  0  0
 25 21  1  0  0  0  0
 26 23  1  0  0  0  0
M  END
>  <MODEL>
4

>  <REMARK>
 VINA RESULT:      -8.5      2.078      6.448
  Name = 
  4 active torsions:
  status: ('A' for Active; 'I' for Inactive)
    1  A    between atoms: C_2  and  C_18
    2  A    between atoms: C_4  and  C_13
    3  A    between atoms: N_5  and  C_20
    4  A    between atoms: C_7  and  C_18
                            x       y       z     vdW  Elec       q    Type
                         _______ _______ _______ _____ _____    ______ ____

>  <TORSDO>
F 4

$$$$
=
 OpenBabel10232411023D

 26 29  0  0  1  0  0  0  0  0999 V2000
  188.2300  178.2730  140.6640 C   0  0  0  0  0  0  0  0  0  0  0  0
  189.0500  177.3880  141.4000 C   0  0  0  0  0  0  0  0  0  0  0  0
  190.5330  177.3060  139.5220 N   0  0  0  0  0  0  0  0  0  0  0  0
  188.5930  178.6290  139.4020 N   0  0  0  0  0  0  0  0  0  0  0  0
  190.2130  176.9150  140.7820 C   0  0  0  0  0  3  0  0  0  0  0  0
  189.7310  178.1570  138.8340 C   0  0  0  0  0  3  0  0  0  0  0  0
  189.0450  177.7890  143.8860 N   0  0  0  0  0  2  0  0  0  0  0  0
  188.7390  176.9330  142.7750 C   0  0  0  0  0  0  0  0  0  0  0  0
  188.2320  175.7970  142.9710 O   0  0  0  0  0  0  0  0  0  0  0  0
  187.7070  178.3590  148.0930 C   0  0  0  0  0  3  0  0  0  0  0  0
  187.4330  177.9900  145.6600 C   0  0  0  0  0  3  0  0  0  0  0  0
  189.7710  177.1190  147.4580 C   0  0  0  0  0  3  0  0  0  0  0  0
  188.6440  177.5890  145.2490 C   0  0  0  0  0  0  0  0  0  0  0  0
  186.8780  177.7340  147.0210 C   0  0  0  0  0  2  0  0  0  0  0  0
  188.9820  178.0390  148.3010 C   0  0  0  0  0  3  0  0  0  0  0  0
  189.6200  176.9280  146.1420 C   0  0  0  0  0  3  0  0  0  0  0  0
  186.9290  178.7830  141.2020 C   0  0  0  0  0  2  0  0  0  0  0  0
  183.6350  178.5880  141.4450 C   0  0  0  0  0  3  0  0  0  0  0  0
  185.8290  178.6000  140.2090 C   0  0  0  0  0  0  0  0  0  0  0  0
  184.4590  179.1640  140.3220 C   0  0  1  0  0  3  0  0  0  0  0  0
  184.7710  178.0860  138.2820 N   0  0  0  0  0  0  0  0  0  0  0  0
  182.5000  178.5410  138.8390 N   0  0  0  0  0  0  0  0  0  0  0  0
  181.7500  178.3520  139.8870 C   0  0  0  0  0  3  0  0  0  0  0  0
  183.9080  178.7040  139.0180 C   0  0  0  0  0  0  0  0  0  0  0  0
  185.9950  178.0620  139.0080 C   0  0  0  0  0  3  0  0  0  0  0  0
  182.3480  178.2660  141.2460 C   0  0  0  0  0  3  0  0  0  0  0  0
  1 17  1  0  0  0  0
  1  2  1  0  0  0  0
  2  8  1  0  0  0  0
  3  5  1  0  0  0  0
  4  1  2  0  0  0  0
  5  2  2  0  0  0  0
  6  4  1  0  0  0  0
  6  3  2  0  0  0  0
  7 13  1  0  0  0  0
  8  9  2  0  0  0  0
  8  7  1  0  0  0  0
 10 15  2  0  0  0  0
 11 14  1  0  0  0  0
 12 15  1  0  0  0  0
 13 11  2  0  0  0  0
 13 16  1  0  0  0  0
 14 10  1  0  0  0  0
 16 12  2  0  0  0  0
 19 20  1  0  0  0  0
 19 17  1  0  0  0  0
 20 18  1  1  0  0  0
 21 25  1  0  0  0  0
 21 24  2  0  0  0  0
 22 24  1  0  0  0  0
 22 23  2  0  0  0  0
 23 26  1  0  0  0  0
 24 20  1  0  0  0  0
 25 19  2  0  0  0  0
 26 18  2  0  0  0  0
M  END
>  <MODEL>
5

>  <REMARK>
 VINA RESULT:      -8.4      3.245      6.520
  Name = 
  4 active torsions:
  status: ('A' for Active; 'I' for Inactive)
    1  A    between atoms: C_2  and  C_18
    2  A    between atoms: C_4  and  C_13
    3  A    between atoms: N_5  and  C_20
    4  A    between atoms: C_7  and  C_18
                            x       y       z     vdW  Elec       q    Type
                         _______ _______ _______ _____ _____    ______ ____

>  <TORSDO>
F 4

$$$$
=
 OpenBabel10232411023D

 26 29  0  0  1  0  0  0  0  0999 V2000
  187.2930  178.6500  139.9180 C   0  0  0  0  0  0  0  0  0  0  0  0
  186.0200  178.5600  140.5260 C   0  0  0  0  0  0  0  0  0  0  0  0
  185.1180  177.9550  138.3920 N   0  0  0  0  0  0  0  0  0  0  0  0
  187.4190  178.3930  138.5870 N   0  0  0  0  0  0  0  0  0  0  0  0
  184.9370  178.2070  139.7140 C   0  0  0  0  0  3  0  0  0  0  0  0
  186.3490  178.0460  137.8300 C   0  0  0  0  0  3  0  0  0  0  0  0
  185.7920  177.7390  142.8950 N   0  0  0  0  0  2  0  0  0  0  0  0
  185.7760  178.8290  141.9610 C   0  0  0  0  0  0  0  0  0  0  0  0
  185.5340  180.0000  142.3590 O   0  0  0  0  0  0  0  0  0  0  0  0
  185.7850  179.2290  147.0890 C   0  0  0  0  0  3  0  0  0  0  0  0
  184.7900  178.5410  144.9290 C   0  0  0  0  0  3  0  0  0  0  0  0
  187.3760  177.5130  146.2370 C   0  0  0  0  0  3  0  0  0  0  0  0
  185.7620  177.8430  144.3260 C   0  0  0  0  0  0  0  0  0  0  0  0
  184.6050  178.6220  146.4070 C   0  0  0  0  0  2  0  0  0  0  0  0
  187.0040  178.6950  147.0390 C   0  0  0  0  0  3  0  0  0  0  0  0
  186.8360  177.1500  145.0680 C   0  0  0  0  0  3  0  0  0  0  0  0
  188.5070  179.0900  140.6770 C   0  0  0  0  0  2  0  0  0  0  0  0
  190.0300  178.3550  143.5200 C   0  0  0  0  0  3  0  0  0  0  0  0
  189.2980  177.9170  141.1510 C   0  0  0  0  0  0  0  0  0  0  0  0
  189.3560  177.4200  142.5500 C   0  0  1  0  0  3  0  0  0  0  0  0
  190.5230  176.0200  141.1010 N   0  0  0  0  0  0  0  0  0  0  0  0
  190.9840  175.6790  143.4130 N   0  0  0  0  0  0  0  0  0  0  0  0
  191.2950  176.4480  144.4170 C   0  0  0  0  0  3  0  0  0  0  0  0
  190.2140  176.2220  142.3390 C   0  0  0  0  0  0  0  0  0  0  0  0
  189.9070  177.0570  140.3440 C   0  0  0  0  0  3  0  0  0  0  0  0
  190.8940  177.8810  144.4300 C   0  0  0  0  0  3  0  0  0  0  0  0
  1  2  1  0  0  0  0
  1 17  1  0  0  0  0
  2  8  1  0  0  0  0
  3  5  1  0  0  0  0
  4  1  2  0  0  0  0
  5  2  2  0  0  0  0
  6  3  2  0  0  0  0
  6  4  1  0  0  0  0
  7 13  1  0  0  0  0
  8  9  2  0  0  0  0
  8  7  1  0  0  0  0
 11 14  1  0  0  0  0
 12 15  1  0  0  0  0
 13 11  2  0  0  0  0
 13 16  1  0  0  0  0
 14 10  1  0  0  0  0
 15 10  2  0  0  0  0
 16 12  2  0  0  0  0
 17 19  1  0  0  0  0
 18 26  2  0  0  0  0
 19 20  1  0  0  0  0
 20 18  1  1  0  0  0
 21 24  2  0  0  0  0
 22 23  2  0  0  0  0
 23 26  1  0  0  0  0
 24 20  1  0  0  0  0
 24 22  1  0  0  0  0
 25 21  1  0  0  0  0
 25 19  2  0  0  0  0
M  END
>  <MODEL>
6

>  <REMARK>
 VINA RESULT:      -8.3      2.807      7.595
  Name = 
  4 active torsions:
  status: ('A' for Active; 'I' for Inactive)
    1  A    between atoms: C_2  and  C_18
    2  A    between atoms: C_4  and  C_13
    3  A    between atoms: N_5  and  C_20
    4  A    between atoms: C_7  and  C_18
                            x       y       z     vdW  Elec       q    Type
                         _______ _______ _______ _____ _____    ______ ____

>  <TORSDO>
F 4

$$$$
=
 OpenBabel10232411023D

 26 29  0  0  1  0  0  0  0  0999 V2000
  186.4780  178.7050  141.2520 C   0  0  0  0  0  0  0  0  0  0  0  0
  185.9870  178.1280  142.4450 C   0  0  0  0  0  0  0  0  0  0  0  0
  183.7670  178.5890  141.6750 N   0  0  0  0  0  0  0  0  0  0  0  0
  185.6010  179.1950  140.3340 N   0  0  0  0  0  0  0  0  0  0  0  0
  184.5990  178.0910  142.6250 C   0  0  0  0  0  3  0  0  0  0  0  0
  184.2610  179.1370  140.5360 C   0  0  0  0  0  3  0  0  0  0  0  0
  187.0490  178.3210  144.7200 N   0  0  0  0  0  2  0  0  0  0  0  0
  186.8570  177.5760  143.5080 C   0  0  0  0  0  0  0  0  0  0  0  0
  187.4430  176.4720  143.3430 O   0  0  0  0  0  0  0  0  0  0  0  0
  189.0590  178.0410  148.6810 C   0  0  0  0  0  3  0  0  0  0  0  0
  187.1450  178.0820  147.1100 C   0  0  0  0  0  3  0  0  0  0  0  0
  190.0100  177.0970  146.5820 C   0  0  0  0  0  3  0  0  0  0  0  0
  187.6980  177.8550  145.9110 C   0  0  0  0  0  0  0  0  0  0  0  0
  187.6790  177.5500  148.3980 C   0  0  0  0  0  2  0  0  0  0  0  0
  190.0940  177.7900  147.8830 C   0  0  0  0  0  3  0  0  0  0  0  0
  188.9730  177.1280  145.7360 C   0  0  0  0  0  3  0  0  0  0  0  0
  187.9440  178.8600  140.9900 C   0  0  0  0  0  2  0  0  0  0  0  0
  190.7980  177.4270  140.1250 C   0  0  0  0  0  3  0  0  0  0  0  0
  188.3720  178.0340  139.8240 C   0  0  0  0  0  0  0  0  0  0  0  0
  189.3930  176.9530  139.8560 C   0  0  1  0  0  3  0  0  0  0  0  0
  188.3720  177.0970  137.7680 N   0  0  0  0  0  0  0  0  0  0  0  0
  190.3830  175.8220  137.8150 N   0  0  0  0  0  0  0  0  0  0  0  0
  191.5850  176.0090  138.2790 C   0  0  0  0  0  3  0  0  0  0  0  0
  189.2880  176.4890  138.4450 C   0  0  0  0  0  0  0  0  0  0  0  0
  187.7600  178.0360  138.6470 C   0  0  0  0  0  3  0  0  0  0  0  0
  191.8260  176.9340  139.4190 C   0  0  0  0  0  3  0  0  0  0  0  0
  1  2  1  0  0  0  0
  2  5  2  0  0  0  0
  2  8  1  0  0  0  0
  3  5  1  0  0  0  0
  4  6  1  0  0  0  0
  4  1  2  0  0  0  0
  6  3  2  0  0  0  0
  7 13  1  0  0  0  0
  8  7  1  0  0  0  0
  9  8  2  0  0  0  0
 11 14  1  0  0  0  0
 12 15  1  0  0  0  0
 13 11  2  0  0  0  0
 14 10  1  0  0  0  0
 15 10  2  0  0  0  0
 16 13  1  0  0  0  0
 16 12  2  0  0  0  0
 17  1  1  0  0  0  0
 19 20  1  0  0  0  0
 19 17  1  0  0  0  0
 20 18  1  6  0  0  0
 21 24  2  0  0  0  0
 21 25  1  0  0  0  0
 22 23  2  0  0  0  0
 22 24  1  0  0  0  0
 23 26  1  0  0  0  0
 24 20  1  0  0  0  0
 25 19  2  0  0  0  0
 26 18  2  0  0  0  0
M  END
>  <MODEL>
7

>  <REMARK>
 VINA RESULT:      -8.2      2.634      7.844
  Name = 
  4 active torsions:
  status: ('A' for Active; 'I' for Inactive)
    1  A    between atoms: C_2  and  C_18
    2  A    between atoms: C_4  and  C_13
    3  A    between atoms: N_5  and  C_20
    4  A    between atoms: C_7  and  C_18
                            x       y       z     vdW  Elec       q    Type
                         _______ _______ _______ _____ _____    ______ ____

>  <TORSDO>
F 4

$$$$
=
 OpenBabel10232411023D

 26 29  0  0  1  0  0  0  0  0999 V2000
  188.4810  177.2300  141.8230 C   0  0  0  0  0  0  0  0  0  0  0  0
  187.9310  178.1450  140.8980 C   0  0  0  0  0  0  0  0  0  0  0  0
  189.9510  177.9700  139.6250 N   0  0  0  0  0  0  0  0  0  0  0  0
  189.7300  176.7320  141.6110 N   0  0  0  0  0  0  0  0  0  0  0  0
  188.7130  178.5010  139.7930 C   0  0  0  0  0  3  0  0  0  0  0  0
  190.4590  177.0920  140.5250 C   0  0  0  0  0  3  0  0  0  0  0  0
  185.5990  178.5250  140.0250 N   0  0  0  0  0  2  0  0  0  0  0  0
  186.5870  178.7500  141.0420 C   0  0  0  0  0  0  0  0  0  0  0  0
  186.3170  179.4740  142.0380 O   0  0  0  0  0  0  0  0  0  0  0  0
  181.1500  178.4390  140.0220 C   0  0  0  0  0  3  0  0  0  0  0  0
  183.4170  178.2910  141.0060 C   0  0  0  0  0  3  0  0  0  0  0  0
  182.5000  179.9750  138.6020 C   0  0  0  0  0  3  0  0  0  0  0  0
  184.2090  178.8730  140.0960 C   0  0  0  0  0  0  0  0  0  0  0  0
  181.9890  178.6580  141.2370 C   0  0  0  0  0  2  0  0  0  0  0  0
  181.3650  179.0710  138.8700 C   0  0  0  0  0  3  0  0  0  0  0  0
  183.7250  179.8860  139.1350 C   0  0  0  0  0  3  0  0  0  0  0  0
  187.7610  176.8370  143.0760 C   0  0  0  0  0  2  0  0  0  0  0  0
  186.8180  177.6430  146.1420 C   0  0  0  0  0  3  0  0  0  0  0  0
  188.4880  177.3180  144.2860 C   0  0  0  0  0  0  0  0  0  0  0  0
  188.1160  177.0230  145.6950 C   0  0  1  0  0  3  0  0  0  0  0  0
  190.1210  178.2010  145.5740 N   0  0  0  0  0  0  0  0  0  0  0  0
  189.1190  178.1460  147.7340 N   0  0  0  0  0  0  0  0  0  0  0  0
  187.9280  178.3800  148.2070 C   0  0  0  0  0  3  0  0  0  0  0  0
  189.2500  177.6970  146.3840 C   0  0  0  0  0  0  0  0  0  0  0  0
  189.6700  177.9210  144.2530 C   0  0  0  0  0  3  0  0  0  0  0  0
  186.7240  178.2250  147.3470 C   0  0  0  0  0  3  0  0  0  0  0  0
  1 17  1  0  0  0  0
  2  8  1  0  0  0  0
  2  1  2  0  0  0  0
  3  5  2  0  0  0  0
  3  6  1  0  0  0  0
  4  1  1  0  0  0  0
  5  2  1  0  0  0  0
  6  4  2  0  0  0  0
  7 13  1  0  0  0  0
  7  8  1  0  0  0  0
  8  9  2  0  0  0  0
 10 14  1  0  0  0  0
 11 14  1  0  0  0  0
 12 15  1  0  0  0  0
 12 16  2  0  0  0  0
 13 11  2  0  0  0  0
 15 10  2  0  0  0  0
 16 13  1  0  0  0  0
 17 19  1  0  0  0  0
 18 26  2  0  0  0  0
 19 20  1  0  0  0  0
 20 18  1  1  0  0  0
 20 24  1  0  0  0  0
 21 24  2  0  0  0  0
 22 23  2  0  0  0  0
 24 22  1  0  0  0  0
 25 19  2  0  0  0  0
 25 21  1  0  0  0  0
 26 23  1  0  0  0  0
M  END
>  <MODEL>
8

>  <REMARK>
 VINA RESULT:      -8.2      3.005      6.323
  Name = 
  4 active torsions:
  status: ('A' for Active; 'I' for Inactive)
    1  A    between atoms: C_2  and  C_18
    2  A    between atoms: C_4  and  C_13
    3  A    between atoms: N_5  and  C_20
    4  A    between atoms: C_7  and  C_18
                            x       y       z     vdW  Elec       q    Type
                         _______ _______ _______ _____ _____    ______ ____

>  <TORSDO>
F 4

$$$$
=
 OpenBabel10232411023D

 26 29  0  0  1  0  0  0  0  0999 V2000
  190.2030  177.8870  145.2270 C   0  0  0  0  0  0  0  0  0  0  0  0
  189.0250  177.2510  145.6820 C   0  0  0  0  0  0  0  0  0  0  0  0
  190.3060  176.3070  147.4710 N   0  0  0  0  0  0  0  0  0  0  0  0
  191.3680  177.7050  145.9070 N   0  0  0  0  0  0  0  0  0  0  0  0
  189.1210  176.4510  146.8270 C   0  0  0  0  0  3  0  0  0  0  0  0
  191.4240  176.9280  147.0180 C   0  0  0  0  0  3  0  0  0  0  0  0
  186.8080  178.4150  145.4190 N   0  0  0  0  0  2  0  0  0  0  0  0
  187.7120  177.3780  145.0100 C   0  0  0  0  0  0  0  0  0  0  0  0
  187.3800  176.5700  144.1010 O   0  0  0  0  0  0  0  0  0  0  0  0
  182.7520  178.4510  143.5860 C   0  0  0  0  0  3  0  0  0  0  0  0
  184.4200  178.6960  145.4000 C   0  0  0  0  0  3  0  0  0  0  0  0
  184.8150  179.1630  142.3860 C   0  0  0  0  0  3  0  0  0  0  0  0
  185.5920  178.7940  144.7580 C   0  0  0  0  0  0  0  0  0  0  0  0
  183.1160  179.1630  144.8460 C   0  0  0  0  0  2  0  0  0  0  0  0
  183.5000  178.5000  142.4850 C   0  0  0  0  0  3  0  0  0  0  0  0
  185.7130  179.2880  143.3710 C   0  0  0  0  0  3  0  0  0  0  0  0
  190.2300  178.7060  143.9740 C   0  0  0  0  0  2  0  0  0  0  0  0
  188.5190  178.5510  141.1470 C   0  0  0  0  0  3  0  0  0  0  0  0
  190.3100  177.8350  142.7650 C   0  0  0  0  0  0  0  0  0  0  0  0
  189.9760  178.2480  141.3760 C   0  0  1  0  0  3  0  0  0  0  0  0
  190.8390  176.0860  141.4370 N   0  0  0  0  0  0  0  0  0  0  0  0
  189.7500  176.6730  139.4020 N   0  0  0  0  0  0  0  0  0  0  0  0
  188.6060  177.2120  139.0880 C   0  0  0  0  0  3  0  0  0  0  0  0
  190.3390  176.9910  140.6640 C   0  0  0  0  0  0  0  0  0  0  0  0
  190.8680  176.6310  142.7520 C   0  0  0  0  0  3  0  0  0  0  0  0
  187.9010  178.1100  140.0410 C   0  0  0  0  0  3  0  0  0  0  0  0
  1  2  2  0  0  0  0
  1  4  1  0  0  0  0
  2  5  1  0  0  0  0
  4  6  2  0  0  0  0
  5  3  2  0  0  0  0
  6  3  1  0  0  0  0
  8  7  1  0  0  0  0
  8  2  1  0  0  0  0
  9  8  2  0  0  0  0
 10 14  1  0  0  0  0
 12 15  1  0  0  0  0
 12 16  2  0  0  0  0
 13 11  2  0  0  0  0
 13  7  1  0  0  0  0
 14 11  1  0  0  0  0
 15 10  2  0  0  0  0
 16 13  1  0  0  0  0
 17  1  1  0  0  0  0
 19 17  1  0  0  0  0
 20 18  1  1  0  0  0
 20 19  1  0  0  0  0
 21 25  1  0  0  0  0
 22 24  1  0  0  0  0
 23 22  2  0  0  0  0
 23 26  1  0  0  0  0
 24 20  1  0  0  0  0
 24 21  2  0  0  0  0
 25 19  2  0  0  0  0
 26 18  2  0  0  0  0
M  END
>  <MODEL>
9

>  <REMARK>
 VINA RESULT:      -8.2      1.803      6.178
  Name = 
  4 active torsions:
  status: ('A' for Active; 'I' for Inactive)
    1  A    between atoms: C_2  and  C_18
    2  A    between atoms: C_4  and  C_13
    3  A    between atoms: N_5  and  C_20
    4  A    between atoms: C_7  and  C_18
                            x       y       z     vdW  Elec       q    Type
                         _______ _______ _______ _____ _____    ______ ____

>  <TORSDO>
F 4

$$$$
