=
 OpenBabel10232408193D

 32 35  0  0  1  0  0  0  0  0999 V2000
  188.2390  176.1670  143.1840 C   0  0  0  0  0  1  0  0  0  0  0  0
  189.6630  176.6370  143.4630 C   0  0  1  0  0  3  0  0  0  0  0  0
  190.5090  176.4920  142.2630 N   0  0  0  0  0  0  0  0  0  0  0  0
  191.9030  176.6390  142.6720 C   0  0  0  0  0  1  0  0  0  0  0  0
  190.2450  177.6090  141.3580 C   0  0  1  0  0  3  0  0  0  0  0  0
  191.2180  177.6460  140.3350 O   0  0  0  0  0  0  0  0  0  0  0  0
  189.9680  177.0980  139.9920 C   0  0  2  0  0  3  0  0  0  0  0  0
  187.2930  178.8620  137.1840 N   0  0  0  0  0  0  0  0  0  0  0  0
  188.6210  178.4600  136.8220 C   0  0  0  0  0  3  0  0  0  0  0  0
  187.6280  177.8350  139.3720 C   0  0  2  0  0  3  0  0  0  0  0  0
  189.4620  178.0630  137.7310 N   0  0  0  0  0  0  0  0  0  0  0  0
  185.9930  178.6570  141.0500 C   0  0  0  0  0  3  0  0  0  0  0  0
  186.8240  178.6390  138.3750 C   0  0  0  0  0  0  0  0  0  0  0  0
  185.1000  179.0840  139.9560 C   0  0  0  0  0  3  0  0  0  0  0  0
  185.5050  179.0820  138.7210 N   0  0  0  0  0  0  0  0  0  0  0  0
  187.1870  178.1180  140.7840 C   0  0  0  0  0  3  0  0  0  0  0  0
  189.1270  178.0850  139.1640 C   0  0  2  0  0  3  0  0  0  0  0  0
  189.5630  178.0910  143.9130 C   0  0  0  0  0  2  0  0  0  0  0  0
  189.9950  178.2330  145.3640 C   0  0  0  0  0  2  0  0  0  0  0  0
  190.2380  176.8700  145.9980 C   0  0  1  0  0  3  0  0  0  0  0  0
  191.6700  176.7740  146.5180 C   0  0  0  0  0  3  0  0  0  0  0  0
  192.2500  175.5680  146.1560 F   0  0  0  0  0  0  0  0  0  0  0  0
  191.6890  176.9110  147.8940 F   0  0  0  0  0  0  0  0  0  0  0  0
  189.2370  176.6160  147.1220 C   0  0  0  0  0  2  0  0  0  0  0  0
  188.2860  178.2090  148.7900 C   0  0  0  0  0  1  0  0  0  0  0  0
  188.3110  177.8090  147.3250 C   0  0  2  0  0  3  0  0  0  0  0  0
  186.9000  177.5580  146.7860 C   0  0  0  0  0  2  0  0  0  0  0  0
  186.3200  178.7520  146.0310 C   0  0  1  0  0  3  0  0  0  0  0  0
  185.7630  178.3130  144.7130 C   0  0  0  0  0  2  0  0  0  0  0  0
  184.3220  178.7050  144.8430 C   0  0  0  0  0  2  0  0  0  0  0  0
  184.0510  178.8110  146.2130 O   0  0  0  0  0  0  0  0  0  0  0  0
  185.1950  179.2980  146.7750 N   0  0  0  0  0  2  0  0  0  0  0  0
  2  1  1  6  0  0  0
  2 18  1  0  0  0  0
  3  4  1  0  0  0  0
  3  2  1  0  0  0  0
  5  3  1  1  0  0  0
  6  5  1  0  0  0  0
  7  6  1  6  0  0  0
  7  5  1  0  0  0  0
  8 13  2  0  0  0  0
  9  8  1  0  0  0  0
  9 11  2  0  0  0  0
 10 16  1  1  0  0  0
 13 15  1  0  0  0  0
 13 10  1  0  0  0  0
 14 12  1  0  0  0  0
 15 14  2  0  0  0  0
 16 12  2  0  0  0  0
 17 11  1  6  0  0  0
 17 10  1  0  0  0  0
 17  7  1  0  0  0  0
 18 19  1  0  0  0  0
 20 19  1  1  0  0  0
 20 21  1  0  0  0  0
 20 24  1  0  0  0  0
 21 23  1  0  0  0  0
 22 21  1  0  0  0  0
 24 26  1  0  0  0  0
 26 25  1  1  0  0  0
 27 26  1  0  0  0  0
 28 32  1  0  0  0  0
 28 27  1  1  0  0  0
 29 30  1  0  0  0  0
 29 28  1  0  0  0  0
 30 31  1  0  0  0  0
 31 32  1  0  0  0  0
M  END
>  <MODEL>
1

>  <REMARK>
 VINA RESULT:      -8.4      0.000      0.000
  Name = 
  11 active torsions:
  status: ('A' for Active; 'I' for Inactive)
    1  A    between atoms: C_1  and  C_10
    2  A    between atoms: C_1  and  C_16
    3  A    between atoms: C_1  and  C_22
    4  A    between atoms: N_2  and  C_11
    5  A    between atoms: N_2  and  C_20
    6  A    between atoms: C_4  and  C_7
    7  A    between atoms: C_7  and  C_23
    8  A    between atoms: C_16  and  C_25
    9  A    between atoms: C_20  and  C_25
   10  A    between atoms: C_22  and  C_23
   11  A    between atoms: C_30  and  C_32
                            x       y       z     vdW  Elec       q    Type
                         _______ _______ _______ _____ _____    ______ ____

>  <TORSDO>
F 11

$$$$
=
 OpenBabel10232408193D

 32 35  0  0  1  0  0  0  0  0999 V2000
  189.2200  177.6380  147.0990 C   0  0  0  0  0  1  0  0  0  0  0  0
  188.0260  177.4940  146.1610 C   0  0  1  0  0  3  0  0  0  0  0  0
  186.9870  178.4940  146.4760 N   0  0  0  0  0  0  0  0  0  0  0  0
  186.8000  178.5100  147.9240 C   0  0  0  0  0  1  0  0  0  0  0  0
  185.7120  178.0460  145.9210 C   0  0  1  0  0  3  0  0  0  0  0  0
  184.6550  178.8240  146.4410 O   0  0  0  0  0  0  0  0  0  0  0  0
  185.0870  179.1440  145.1410 C   0  0  2  0  0  3  0  0  0  0  0  0
  182.0500  178.7810  142.1750 N   0  0  0  0  0  0  0  0  0  0  0  0
  181.7460  178.8130  143.5770 C   0  0  0  0  0  3  0  0  0  0  0  0
  184.3780  179.2720  142.7160 C   0  0  2  0  0  3  0  0  0  0  0  0
  182.7000  178.7750  144.4610 N   0  0  0  0  0  0  0  0  0  0  0  0
  185.9090  178.7190  140.8420 C   0  0  0  0  0  3  0  0  0  0  0  0
  183.2670  178.9320  141.7480 C   0  0  0  0  0  0  0  0  0  0  0  0
  184.7690  178.7750  139.9060 C   0  0  0  0  0  3  0  0  0  0  0  0
  183.5480  178.8620  140.3430 N   0  0  0  0  0  0  0  0  0  0  0  0
  185.7260  178.9040  142.1520 C   0  0  0  0  0  3  0  0  0  0  0  0
  184.1120  178.6160  144.0760 C   0  0  2  0  0  3  0  0  0  0  0  0
  188.5620  177.6640  144.7430 C   0  0  0  0  0  2  0  0  0  0  0  0
  190.0580  177.9370  144.7650 C   0  0  0  0  0  2  0  0  0  0  0  0
  190.8040  176.9640  143.8630 C   0  0  1  0  0  3  0  0  0  0  0  0
  191.4740  175.8750  144.6960 C   0  0  0  0  0  3  0  0  0  0  0  0
  192.1710  176.4240  145.7630 F   0  0  0  0  0  0  0  0  0  0  0  0
  192.3320  175.1290  143.9090 F   0  0  0  0  0  0  0  0  0  0  0  0
  189.8550  176.3490  142.8370 C   0  0  0  0  0  2  0  0  0  0  0  0
  191.5970  177.4420  141.4250 C   0  0  0  0  0  1  0  0  0  0  0  0
  190.3000  176.6510  141.4120 C   0  0  2  0  0  3  0  0  0  0  0  0
  189.2180  177.3600  140.5930 C   0  0  0  0  0  2  0  0  0  0  0  0
  189.6950  177.7960  139.2100 C   0  0  1  0  0  3  0  0  0  0  0  0
  189.2820  176.7950  138.1770 C   0  0  0  0  0  2  0  0  0  0  0  0
  188.4230  177.6250  137.2710 C   0  0  0  0  0  2  0  0  0  0  0  0
  187.9950  178.7310  138.0160 O   0  0  0  0  0  0  0  0  0  0  0  0
  189.0390  179.0420  138.8400 N   0  0  0  0  0  2  0  0  0  0  0  0
  2  3  1  0  0  0  0
  2  1  1  1  0  0  0
  3  4  1  0  0  0  0
  5  6  1  0  0  0  0
  5  3  1  1  0  0  0
  7  5  1  0  0  0  0
  7  6  1  1  0  0  0
  8  9  1  0  0  0  0
  9 11  2  0  0  0  0
 10 16  1  6  0  0  0
 10 17  1  0  0  0  0
 12 16  2  0  0  0  0
 13  8  2  0  0  0  0
 13 10  1  0  0  0  0
 14 15  2  0  0  0  0
 14 12  1  0  0  0  0
 15 13  1  0  0  0  0
 17 11  1  1  0  0  0
 17  7  1  0  0  0  0
 18 19  1  0  0  0  0
 18  2  1  0  0  0  0
 20 24  1  6  0  0  0
 20 21  1  0  0  0  0
 20 19  1  0  0  0  0
 21 22  1  0  0  0  0
 23 21  1  0  0  0  0
 26 25  1  1  0  0  0
 26 24  1  0  0  0  0
 27 26  1  0  0  0  0
 28 27  1  1  0  0  0
 29 28  1  0  0  0  0
 30 31  1  0  0  0  0
 30 29  1  0  0  0  0
 31 32  1  0  0  0  0
 32 28  1  0  0  0  0
M  END
>  <MODEL>
2

>  <REMARK>
 VINA RESULT:      -8.3      1.911      6.115
  Name = 
  11 active torsions:
  status: ('A' for Active; 'I' for Inactive)
    1  A    between atoms: C_1  and  C_10
    2  A    between atoms: C_1  and  C_16
    3  A    between atoms: C_1  and  C_22
    4  A    between atoms: N_2  and  C_11
    5  A    between atoms: N_2  and  C_20
    6  A    between atoms: C_4  and  C_7
    7  A    between atoms: C_7  and  C_23
    8  A    between atoms: C_16  and  C_25
    9  A    between atoms: C_20  and  C_25
   10  A    between atoms: C_22  and  C_23
   11  A    between atoms: C_30  and  C_32
                            x       y       z     vdW  Elec       q    Type
                         _______ _______ _______ _____ _____    ______ ____

>  <TORSDO>
F 11

$$$$
=
 OpenBabel10232408193D

 32 35  0  0  1  0  0  0  0  0999 V2000
  183.6290  178.4480  144.8340 C   0  0  0  0  0  1  0  0  0  0  0  0
  184.4620  178.2450  143.5730 C   0  0  1  0  0  3  0  0  0  0  0  0
  183.9590  179.0870  142.4700 N   0  0  0  0  0  0  0  0  0  0  0  0
  182.5000  179.0670  142.5150 C   0  0  0  0  0  1  0  0  0  0  0  0
  184.3210  178.4680  141.1960 C   0  0  1  0  0  3  0  0  0  0  0  0
  184.1790  179.4010  140.1450 O   0  0  0  0  0  0  0  0  0  0  0  0
  185.4880  179.1720  140.6070 C   0  0  2  0  0  3  0  0  0  0  0  0
  188.1100  177.6940  137.5920 N   0  0  0  0  0  0  0  0  0  0  0  0
  186.8270  178.2540  137.2780 C   0  0  0  0  0  3  0  0  0  0  0  0
  187.7840  178.3650  139.9140 C   0  0  2  0  0  3  0  0  0  0  0  0
  185.9900  178.5600  138.2250 N   0  0  0  0  0  0  0  0  0  0  0  0
  189.2990  177.1500  141.4600 C   0  0  0  0  0  3  0  0  0  0  0  0
  188.5560  177.6770  138.8110 C   0  0  0  0  0  0  0  0  0  0  0  0
  190.1920  176.8410  140.3270 C   0  0  0  0  0  3  0  0  0  0  0  0
  189.8270  177.0810  139.1020 N   0  0  0  0  0  0  0  0  0  0  0  0
  188.1590  177.8180  141.2670 C   0  0  0  0  0  3  0  0  0  0  0  0
  186.2780  178.2730  139.6400 C   0  0  2  0  0  3  0  0  0  0  0  0
  185.9010  178.5940  143.9390 C   0  0  0  0  0  2  0  0  0  0  0  0
  186.5130  177.5020  144.8030 C   0  0  0  0  0  2  0  0  0  0  0  0
  187.7620  178.0050  145.5160 C   0  0  1  0  0  3  0  0  0  0  0  0
  187.5950  177.8830  147.0280 C   0  0  0  0  0  3  0  0  0  0  0  0
  188.0790  176.6670  147.4850 F   0  0  0  0  0  0  0  0  0  0  0  0
  186.2630  178.0180  147.3750 F   0  0  0  0  0  0  0  0  0  0  0  0
  188.9930  177.2340  145.0460 C   0  0  0  0  0  2  0  0  0  0  0  0
  190.5450  178.8940  144.0170 C   0  0  0  0  0  1  0  0  0  0  0  0
  190.2680  178.0430  145.2440 C   0  0  2  0  0  3  0  0  0  0  0  0
  191.4720  177.1680  145.6050 C   0  0  0  0  0  2  0  0  0  0  0  0
  191.2530  176.3270  146.8600 C   0  0  1  0  0  3  0  0  0  0  0  0
  192.3770  175.3550  147.0370 C   0  0  0  0  0  2  0  0  0  0  0  0
  192.9310  175.7650  148.3690 C   0  0  0  0  0  2  0  0  0  0  0  0
  192.5290  177.0880  148.5870 O   0  0  0  0  0  0  0  0  0  0  0  0
  191.2840  177.1870  148.0340 N   0  0  0  0  0  2  0  0  0  0  0  0
  2 18  1  0  0  0  0
  2  1  1  1  0  0  0
  3  4  1  0  0  0  0
  3  2  1  0  0  0  0
  5  3  1  1  0  0  0
  6  5  1  0  0  0  0
  7  6  1  6  0  0  0
  7  5  1  0  0  0  0
  8 13  2  0  0  0  0
  9  8  1  0  0  0  0
  9 11  2  0  0  0  0
 10 16  1  1  0  0  0
 13 15  1  0  0  0  0
 13 10  1  0  0  0  0
 14 12  1  0  0  0  0
 15 14  2  0  0  0  0
 16 12  2  0  0  0  0
 17 11  1  6  0  0  0
 17 10  1  0  0  0  0
 17  7  1  0  0  0  0
 18 19  1  0  0  0  0
 20 19  1  6  0  0  0
 20 21  1  0  0  0  0
 21 23  1  0  0  0  0
 21 22  1  0  0  0  0
 24 26  1  0  0  0  0
 24 20  1  0  0  0  0
 26 25  1  6  0  0  0
 26 27  1  0  0  0  0
 28 27  1  6  0  0  0
 28 29  1  0  0  0  0
 28 32  1  0  0  0  0
 29 30  1  0  0  0  0
 30 31  1  0  0  0  0
 32 31  1  0  0  0  0
M  END
>  <MODEL>
3

>  <REMARK>
 VINA RESULT:      -8.0      2.789      5.277
  Name = 
  11 active torsions:
  status: ('A' for Active; 'I' for Inactive)
    1  A    between atoms: C_1  and  C_10
    2  A    between atoms: C_1  and  C_16
    3  A    between atoms: C_1  and  C_22
    4  A    between atoms: N_2  and  C_11
    5  A    between atoms: N_2  and  C_20
    6  A    between atoms: C_4  and  C_7
    7  A    between atoms: C_7  and  C_23
    8  A    between atoms: C_16  and  C_25
    9  A    between atoms: C_20  and  C_25
   10  A    between atoms: C_22  and  C_23
   11  A    between atoms: C_30  and  C_32
                            x       y       z     vdW  Elec       q    Type
                         _______ _______ _______ _____ _____    ______ ____

>  <TORSDO>
F 11

$$$$
=
 OpenBabel10232408193D

 32 35  0  0  1  0  0  0  0  0999 V2000
  188.3110  177.8430  139.3480 C   0  0  0  0  0  1  0  0  0  0  0  0
  188.5390  177.5500  140.8270 C   0  0  1  0  0  3  0  0  0  0  0  0
  189.9590  177.7310  141.1860 N   0  0  0  0  0  0  0  0  0  0  0  0
  190.7700  177.3050  140.0490 C   0  0  0  0  0  1  0  0  0  0  0  0
  190.2950  176.8150  142.2740 C   0  0  1  0  0  3  0  0  0  0  0  0
  191.6700  176.9130  142.5840 O   0  0  0  0  0  0  0  0  0  0  0  0
  190.7840  177.5830  143.4470 C   0  0  2  0  0  3  0  0  0  0  0  0
  190.8770  176.3170  147.5140 N   0  0  0  0  0  0  0  0  0  0  0  0
  191.9720  176.0820  146.6170 C   0  0  0  0  0  3  0  0  0  0  0  0
  189.8040  177.6540  145.7780 C   0  0  2  0  0  3  0  0  0  0  0  0
  191.8570  176.3470  145.3500 N   0  0  0  0  0  0  0  0  0  0  0  0
  187.3770  177.9600  146.2030 C   0  0  0  0  0  3  0  0  0  0  0  0
  189.8330  176.9910  147.1370 C   0  0  0  0  0  0  0  0  0  0  0  0
  187.5950  177.6420  147.6270 C   0  0  0  0  0  3  0  0  0  0  0  0
  188.7370  177.1820  148.0420 N   0  0  0  0  0  0  0  0  0  0  0  0
  188.3900  177.9240  145.3320 C   0  0  0  0  0  3  0  0  0  0  0  0
  190.5890  176.8140  144.7650 C   0  0  2  0  0  3  0  0  0  0  0  0
  187.6340  178.5000  141.6050 C   0  0  0  0  0  2  0  0  0  0  0  0
  186.7040  177.7210  142.5230 C   0  0  0  0  0  2  0  0  0  0  0  0
  185.2700  178.2190  142.3970 C   0  0  1  0  0  3  0  0  0  0  0  0
  184.7970  178.8150  143.7200 C   0  0  0  0  0  3  0  0  0  0  0  0
  183.5130  178.3920  144.0250 F   0  0  0  0  0  0  0  0  0  0  0  0
  184.8360  180.1960  143.6640 F   0  0  0  0  0  0  0  0  0  0  0  0
  185.1560  179.2440  141.2720 C   0  0  0  0  0  2  0  0  0  0  0  0
  183.3670  177.5950  140.7260 C   0  0  0  0  0  1  0  0  0  0  0  0
  184.0790  178.8560  140.2680 C   0  0  2  0  0  3  0  0  0  0  0  0
  184.6230  178.7090  138.8450 C   0  0  0  0  0  2  0  0  0  0  0  0
  184.2030  177.4070  138.1680 C   0  0  1  0  0  3  0  0  0  0  0  0
  183.1300  177.6680  137.1580 C   0  0  0  0  0  2  0  0  0  0  0  0
  183.7770  177.1920  135.8920 C   0  0  0  0  0  2  0  0  0  0  0  0
  185.1600  177.2090  136.1110 O   0  0  0  0  0  0  0  0  0  0  0  0
  185.3280  176.8620  137.4210 N   0  0  0  0  0  2  0  0  0  0  0  0
  2  1  1  6  0  0  0
  2  3  1  0  0  0  0
  2 18  1  0  0  0  0
  4  3  1  0  0  0  0
  5  3  1  6  0  0  0
  5  6  1  0  0  0  0
  5  7  1  0  0  0  0
  7  6  1  6  0  0  0
  7 17  1  0  0  0  0
  9  8  1  0  0  0  0
 10 16  1  6  0  0  0
 10 13  1  0  0  0  0
 11  9  2  0  0  0  0
 12 14  1  0  0  0  0
 13  8  2  0  0  0  0
 13 15  1  0  0  0  0
 14 15  2  0  0  0  0
 16 12  2  0  0  0  0
 17 11  1  1  0  0  0
 17 10  1  0  0  0  0
 18 19  1  0  0  0  0
 20 24  1  6  0  0  0
 20 19  1  0  0  0  0
 20 21  1  0  0  0  0
 21 22  1  0  0  0  0
 23 21  1  0  0  0  0
 26 25  1  1  0  0  0
 26 24  1  0  0  0  0
 27 26  1  0  0  0  0
 28 27  1  6  0  0  0
 29 28  1  0  0  0  0
 30 31  1  0  0  0  0
 30 29  1  0  0  0  0
 31 32  1  0  0  0  0
 32 28  1  0  0  0  0
M  END
>  <MODEL>
4

>  <REMARK>
 VINA RESULT:      -7.9      3.344      7.383
  Name = 
  11 active torsions:
  status: ('A' for Active; 'I' for Inactive)
    1  A    between atoms: C_1  and  C_10
    2  A    between atoms: C_1  and  C_16
    3  A    between atoms: C_1  and  C_22
    4  A    between atoms: N_2  and  C_11
    5  A    between atoms: N_2  and  C_20
    6  A    between atoms: C_4  and  C_7
    7  A    between atoms: C_7  and  C_23
    8  A    between atoms: C_16  and  C_25
    9  A    between atoms: C_20  and  C_25
   10  A    between atoms: C_22  and  C_23
   11  A    between atoms: C_30  and  C_32
                            x       y       z     vdW  Elec       q    Type
                         _______ _______ _______ _____ _____    ______ ____

>  <TORSDO>
F 11

$$$$
=
 OpenBabel10232408193D

 32 35  0  0  1  0  0  0  0  0999 V2000
  188.4020  177.5690  139.2310 C   0  0  0  0  0  1  0  0  0  0  0  0
  188.5710  177.5440  140.7460 C   0  0  1  0  0  3  0  0  0  0  0  0
  189.9830  177.7560  141.1210 N   0  0  0  0  0  0  0  0  0  0  0  0
  190.8180  177.3140  140.0070 C   0  0  0  0  0  1  0  0  0  0  0  0
  190.3170  176.8730  142.2360 C   0  0  1  0  0  3  0  0  0  0  0  0
  191.6700  177.0450  142.6050 O   0  0  0  0  0  0  0  0  0  0  0  0
  190.7130  177.6790  143.4180 C   0  0  2  0  0  3  0  0  0  0  0  0
  190.7040  176.4630  147.5010 N   0  0  0  0  0  0  0  0  0  0  0  0
  191.8400  176.2610  146.6480 C   0  0  0  0  0  3  0  0  0  0  0  0
  189.6440  177.7370  145.7110 C   0  0  2  0  0  3  0  0  0  0  0  0
  191.7610  176.5070  145.3740 N   0  0  0  0  0  0  0  0  0  0  0  0
  187.1940  177.9530  146.0420 C   0  0  0  0  0  3  0  0  0  0  0  0
  189.6490  177.0910  147.0780 C   0  0  0  0  0  0  0  0  0  0  0  0
  187.3710  177.6600  147.4770 C   0  0  0  0  0  3  0  0  0  0  0  0
  188.5140  177.2490  147.9400 N   0  0  0  0  0  0  0  0  0  0  0  0
  188.2390  177.9470  145.2100 C   0  0  0  0  0  3  0  0  0  0  0  0
  190.4990  176.9170  144.7370 C   0  0  2  0  0  3  0  0  0  0  0  0
  187.6680  178.6400  141.3050 C   0  0  0  0  0  2  0  0  0  0  0  0
  186.6980  178.0650  142.3250 C   0  0  0  0  0  2  0  0  0  0  0  0
  185.2550  178.3280  141.9150 C   0  0  1  0  0  3  0  0  0  0  0  0
  184.5030  179.0290  143.0430 C   0  0  0  0  0  3  0  0  0  0  0  0
  185.3320  179.9120  143.7180 F   0  0  0  0  0  0  0  0  0  0  0  0
  183.9880  178.0990  143.9260 F   0  0  0  0  0  0  0  0  0  0  0  0
  185.2060  179.1580  140.6350 C   0  0  0  0  0  2  0  0  0  0  0  0
  184.9100  178.1170  138.3880 C   0  0  0  0  0  1  0  0  0  0  0  0
  184.1980  178.5950  139.6420 C   0  0  2  0  0  3  0  0  0  0  0  0
  183.0790  179.5850  139.3100 C   0  0  0  0  0  2  0  0  0  0  0  0
  181.6810  179.0230  139.5560 C   0  0  1  0  0  3  0  0  0  0  0  0
  181.4920  178.7180  141.0100 C   0  0  0  0  0  2  0  0  0  0  0  0
  180.3350  179.6050  141.3610 C   0  0  0  0  0  2  0  0  0  0  0  0
  180.2930  180.6200  140.3980 O   0  0  0  0  0  0  0  0  0  0  0  0
  180.6860  180.0330  139.2300 N   0  0  0  0  0  2  0  0  0  0  0  0
  2  1  1  6  0  0  0
  2  3  1  0  0  0  0
  2 18  1  0  0  0  0
  4  3  1  0  0  0  0
  5  3  1  6  0  0  0
  5  6  1  0  0  0  0
  5  7  1  0  0  0  0
  7  6  1  6  0  0  0
  7 17  1  0  0  0  0
  9  8  1  0  0  0  0
 10 16  1  6  0  0  0
 10 13  1  0  0  0  0
 11  9  2  0  0  0  0
 12 14  1  0  0  0  0
 13  8  2  0  0  0  0
 13 15  1  0  0  0  0
 14 15  2  0  0  0  0
 16 12  2  0  0  0  0
 17 11  1  1  0  0  0
 17 10  1  0  0  0  0
 18 19  1  0  0  0  0
 20 24  1  6  0  0  0
 20 19  1  0  0  0  0
 20 21  1  0  0  0  0
 21 22  1  0  0  0  0
 21 23  1  0  0  0  0
 26 25  1  6  0  0  0
 26 24  1  0  0  0  0
 27 26  1  0  0  0  0
 28 27  1  1  0  0  0
 28 29  1  0  0  0  0
 29 30  1  0  0  0  0
 31 30  1  0  0  0  0
 32 28  1  0  0  0  0
 32 31  1  0  0  0  0
M  END
>  <MODEL>
5

>  <REMARK>
 VINA RESULT:      -7.8      3.383      7.104
  Name = 
  11 active torsions:
  status: ('A' for Active; 'I' for Inactive)
    1  A    between atoms: C_1  and  C_10
    2  A    between atoms: C_1  and  C_16
    3  A    between atoms: C_1  and  C_22
    4  A    between atoms: N_2  and  C_11
    5  A    between atoms: N_2  and  C_20
    6  A    between atoms: C_4  and  C_7
    7  A    between atoms: C_7  and  C_23
    8  A    between atoms: C_16  and  C_25
    9  A    between atoms: C_20  and  C_25
   10  A    between atoms: C_22  and  C_23
   11  A    between atoms: C_30  and  C_32
                            x       y       z     vdW  Elec       q    Type
                         _______ _______ _______ _____ _____    ______ ____

>  <TORSDO>
F 11

$$$$
=
 OpenBabel10232408193D

 32 35  0  0  1  0  0  0  0  0999 V2000
  187.8650  177.9350  148.5910 C   0  0  0  0  0  1  0  0  0  0  0  0
  187.4000  177.6000  147.1780 C   0  0  1  0  0  3  0  0  0  0  0  0
  186.6540  178.7290  146.5890 N   0  0  0  0  0  0  0  0  0  0  0  0
  186.0540  179.4920  147.6790 C   0  0  0  0  0  1  0  0  0  0  0  0
  185.5310  178.2040  145.8140 C   0  0  1  0  0  3  0  0  0  0  0  0
  184.3660  178.9570  146.0740 O   0  0  0  0  0  0  0  0  0  0  0  0
  185.0390  179.2410  144.8720 C   0  0  2  0  0  3  0  0  0  0  0  0
  182.7370  178.6370  141.3380 N   0  0  0  0  0  0  0  0  0  0  0  0
  182.1280  178.7890  142.6280 C   0  0  0  0  0  3  0  0  0  0  0  0
  184.8950  179.1640  142.3470 C   0  0  2  0  0  3  0  0  0  0  0  0
  182.8570  178.8240  143.7040 N   0  0  0  0  0  0  0  0  0  0  0  0
  186.7940  178.4480  140.9170 C   0  0  0  0  0  3  0  0  0  0  0  0
  184.0220  178.7460  141.1850 C   0  0  0  0  0  0  0  0  0  0  0  0
  185.8940  178.4280  139.7480 C   0  0  0  0  0  3  0  0  0  0  0  0
  184.6090  178.5560  139.8900 N   0  0  0  0  0  0  0  0  0  0  0  0
  186.3260  178.7450  142.1330 C   0  0  0  0  0  3  0  0  0  0  0  0
  184.3160  178.6270  143.6610 C   0  0  2  0  0  3  0  0  0  0  0  0
  188.6540  177.2700  146.3720 C   0  0  0  0  0  2  0  0  0  0  0  0
  189.8920  177.3570  147.2510 C   0  0  0  0  0  2  0  0  0  0  0  0
  191.1380  176.9360  146.4820 C   0  0  1  0  0  3  0  0  0  0  0  0
  191.8080  175.7480  147.1680 C   0  0  0  0  0  3  0  0  0  0  0  0
  192.6060  176.1690  148.2210 F   0  0  0  0  0  0  0  0  0  0  0  0
  192.5680  175.0360  146.2580 F   0  0  0  0  0  0  0  0  0  0  0  0
  190.7840  176.5940  145.0370 C   0  0  0  0  0  2  0  0  0  0  0  0
  191.0000  178.7970  143.8870 C   0  0  0  0  0  1  0  0  0  0  0  0
  191.6060  177.4140  144.0520 C   0  0  2  0  0  3  0  0  0  0  0  0
  191.7820  176.7130  142.7020 C   0  0  0  0  0  2  0  0  0  0  0  0
  191.2530  177.5260  141.5240 C   0  0  1  0  0  3  0  0  0  0  0  0
  192.2640  177.5610  140.4200 C   0  0  0  0  0  2  0  0  0  0  0  0
  191.5100  176.9210  139.2940 C   0  0  0  0  0  2  0  0  0  0  0  0
  190.4820  176.1640  139.8700 O   0  0  0  0  0  0  0  0  0  0  0  0
  190.0800  176.8700  140.9670 N   0  0  0  0  0  2  0  0  0  0  0  0
  2  1  1  1  0  0  0
  3  2  1  0  0  0  0
  3  4  1  0  0  0  0
  5  6  1  0  0  0  0
  5  3  1  1  0  0  0
  7  5  1  0  0  0  0
  7  6  1  1  0  0  0
  8  9  1  0  0  0  0
  9 11  2  0  0  0  0
 10 16  1  6  0  0  0
 10 17  1  0  0  0  0
 12 16  2  0  0  0  0
 13  8  2  0  0  0  0
 13 10  1  0  0  0  0
 14 15  2  0  0  0  0
 14 12  1  0  0  0  0
 15 13  1  0  0  0  0
 17 11  1  1  0  0  0
 17  7  1  0  0  0  0
 18  2  1  0  0  0  0
 18 19  1  0  0  0  0
 20 24  1  6  0  0  0
 20 21  1  0  0  0  0
 20 19  1  0  0  0  0
 21 22  1  0  0  0  0
 23 21  1  0  0  0  0
 26 25  1  6  0  0  0
 26 24  1  0  0  0  0
 27 26  1  0  0  0  0
 28 27  1  1  0  0  0
 29 28  1  0  0  0  0
 30 31  1  0  0  0  0
 30 29  1  0  0  0  0
 31 32  1  0  0  0  0
 32 28  1  0  0  0  0
M  END
>  <MODEL>
6

>  <REMARK>
 VINA RESULT:      -7.8      1.776      5.827
  Name = 
  11 active torsions:
  status: ('A' for Active; 'I' for Inactive)
    1  A    between atoms: C_1  and  C_10
    2  A    between atoms: C_1  and  C_16
    3  A    between atoms: C_1  and  C_22
    4  A    between atoms: N_2  and  C_11
    5  A    between atoms: N_2  and  C_20
    6  A    between atoms: C_4  and  C_7
    7  A    between atoms: C_7  and  C_23
    8  A    between atoms: C_16  and  C_25
    9  A    between atoms: C_20  and  C_25
   10  A    between atoms: C_22  and  C_23
   11  A    between atoms: C_30  and  C_32
                            x       y       z     vdW  Elec       q    Type
                         _______ _______ _______ _____ _____    ______ ____

>  <TORSDO>
F 11

$$$$
=
 OpenBabel10232408193D

 32 35  0  0  1  0  0  0  0  0999 V2000
  190.4860  176.7720  141.3770 C   0  0  0  0  0  1  0  0  0  0  0  0
  189.6720  178.0000  141.7700 C   0  0  1  0  0  3  0  0  0  0  0  0
  188.7900  178.4210  140.6640 N   0  0  0  0  0  0  0  0  0  0  0  0
  187.4690  178.6990  141.2200 C   0  0  0  0  0  1  0  0  0  0  0  0
  188.6030  177.2960  139.7500 C   0  0  1  0  0  3  0  0  0  0  0  0
  187.7220  177.6590  138.7070 O   0  0  0  0  0  0  0  0  0  0  0  0
  189.0940  177.6590  138.3960 C   0  0  2  0  0  3  0  0  0  0  0  0
  190.2640  175.0090  135.2720 N   0  0  0  0  0  0  0  0  0  0  0  0
  188.9110  175.4630  135.4190 C   0  0  0  0  0  3  0  0  0  0  0  0
  190.9230  176.5410  137.0520 C   0  0  2  0  0  3  0  0  0  0  0  0
  188.5550  176.1500  136.4640 N   0  0  0  0  0  0  0  0  0  0  0  0
  193.1290  175.9490  138.0250 C   0  0  0  0  0  3  0  0  0  0  0  0
  191.2080  175.4450  136.0500 C   0  0  0  0  0  0  0  0  0  0  0  0
  193.4520  175.1850  136.8050 C   0  0  0  0  0  3  0  0  0  0  0  0
  192.5450  174.9490  135.9040 N   0  0  0  0  0  0  0  0  0  0  0  0
  191.9410  176.5430  138.1640 C   0  0  0  0  0  3  0  0  0  0  0  0
  189.4860  176.4200  137.5720 C   0  0  2  0  0  3  0  0  0  0  0  0
  188.8750  177.6170  143.0130 C   0  0  0  0  0  2  0  0  0  0  0  0
  189.4960  176.4070  143.6940 C   0  0  0  0  0  2  0  0  0  0  0  0
  189.9720  176.7550  145.0990 C   0  0  1  0  0  3  0  0  0  0  0  0
  191.4960  176.8240  145.1410 C   0  0  0  0  0  3  0  0  0  0  0  0
  191.9610  176.7430  146.4450 F   0  0  0  0  0  0  0  0  0  0  0  0
  191.9390  177.9960  144.5560 F   0  0  0  0  0  0  0  0  0  0  0  0
  189.3600  178.0760  145.5580 C   0  0  0  0  0  2  0  0  0  0  0  0
  188.8000  176.7840  147.6180 C   0  0  0  0  0  1  0  0  0  0  0  0
  188.3260  177.8610  146.6560 C   0  0  2  0  0  3  0  0  0  0  0  0
  186.9340  177.5480  146.1030 C   0  0  0  0  0  2  0  0  0  0  0  0
  186.1710  178.7890  145.6480 C   0  0  1  0  0  3  0  0  0  0  0  0
  185.3330  178.4740  144.4480 C   0  0  0  0  0  2  0  0  0  0  0  0
  183.9530  178.7810  144.9480 C   0  0  0  0  0  2  0  0  0  0  0  0
  184.0040  178.7200  146.3460 O   0  0  0  0  0  0  0  0  0  0  0  0
  185.2370  179.1960  146.6880 N   0  0  0  0  0  2  0  0  0  0  0  0
  2  1  1  6  0  0  0
  2 18  1  0  0  0  0
  3  4  1  0  0  0  0
  3  2  1  0  0  0  0
  5  3  1  1  0  0  0
  6  5  1  0  0  0  0
  7  6  1  6  0  0  0
  7  5  1  0  0  0  0
  8  9  1  0  0  0  0
  8 13  2  0  0  0  0
  9 11  2  0  0  0  0
 10 17  1  0  0  0  0
 10 16  1  1  0  0  0
 12 16  2  0  0  0  0
 13 10  1  0  0  0  0
 14 12  1  0  0  0  0
 15 13  1  0  0  0  0
 15 14  2  0  0  0  0
 17 11  1  6  0  0  0
 17  7  1  0  0  0  0
 18 19  1  0  0  0  0
 20 19  1  6  0  0  0
 20 21  1  0  0  0  0
 20 24  1  0  0  0  0
 21 22  1  0  0  0  0
 23 21  1  0  0  0  0
 24 26  1  0  0  0  0
 26 25  1  1  0  0  0
 27 26  1  0  0  0  0
 28 27  1  1  0  0  0
 28 32  1  0  0  0  0
 29 30  1  0  0  0  0
 29 28  1  0  0  0  0
 30 31  1  0  0  0  0
 31 32  1  0  0  0  0
M  END
>  <MODEL>
7

>  <REMARK>
 VINA RESULT:      -7.8      2.374      3.867
  Name = 
  11 active torsions:
  status: ('A' for Active; 'I' for Inactive)
    1  A    between atoms: C_1  and  C_10
    2  A    between atoms: C_1  and  C_16
    3  A    between atoms: C_1  and  C_22
    4  A    between atoms: N_2  and  C_11
    5  A    between atoms: N_2  and  C_20
    6  A    between atoms: C_4  and  C_7
    7  A    between atoms: C_7  and  C_23
    8  A    between atoms: C_16  and  C_25
    9  A    between atoms: C_20  and  C_25
   10  A    between atoms: C_22  and  C_23
   11  A    between atoms: C_30  and  C_32
                            x       y       z     vdW  Elec       q    Type
                         _______ _______ _______ _____ _____    ______ ____

>  <TORSDO>
F 11

$$$$
=
 OpenBabel10232408193D

 32 35  0  0  1  0  0  0  0  0999 V2000
  182.3890  178.9890  143.3200 C   0  0  0  0  0  1  0  0  0  0  0  0
  183.4600  178.5150  142.3430 C   0  0  1  0  0  3  0  0  0  0  0  0
  183.1780  179.0010  140.9780 N   0  0  0  0  0  0  0  0  0  0  0  0
  181.7370  178.9230  140.7590 C   0  0  0  0  0  1  0  0  0  0  0  0
  183.7730  178.0800  140.0130 C   0  0  1  0  0  3  0  0  0  0  0  0
  183.4070  178.4490  138.7000 O   0  0  0  0  0  0  0  0  0  0  0  0
  184.7000  178.8160  139.1170 C   0  0  2  0  0  3  0  0  0  0  0  0
  187.9220  177.2140  136.8360 N   0  0  0  0  0  0  0  0  0  0  0  0
  186.6000  177.3500  136.2960 C   0  0  0  0  0  3  0  0  0  0  0  0
  187.1800  178.4080  138.8300 C   0  0  2  0  0  3  0  0  0  0  0  0
  185.6080  177.7020  137.0590 N   0  0  0  0  0  0  0  0  0  0  0  0
  188.7110  178.0580  140.7520 C   0  0  0  0  0  3  0  0  0  0  0  0
  188.2080  177.6420  138.0290 C   0  0  0  0  0  0  0  0  0  0  0  0
  189.7820  177.6640  139.8170 C   0  0  0  0  0  3  0  0  0  0  0  0
  189.5290  177.4630  138.5580 N   0  0  0  0  0  0  0  0  0  0  0  0
  187.4900  178.3610  140.3040 C   0  0  0  0  0  3  0  0  0  0  0  0
  185.7720  177.8950  138.5090 C   0  0  2  0  0  3  0  0  0  0  0  0
  184.7930  179.0410  142.8660 C   0  0  0  0  0  2  0  0  0  0  0  0
  185.6140  177.9120  143.4690 C   0  0  0  0  0  2  0  0  0  0  0  0
  186.2670  178.3480  144.7750 C   0  0  1  0  0  3  0  0  0  0  0  0
  185.2980  179.1950  145.5950 C   0  0  0  0  0  3  0  0  0  0  0  0
  185.9470  179.8020  146.6590 F   0  0  0  0  0  0  0  0  0  0  0  0
  184.2580  178.4130  146.0640 F   0  0  0  0  0  0  0  0  0  0  0  0
  186.7300  177.1320  145.5730 C   0  0  0  0  0  2  0  0  0  0  0  0
  188.4560  177.6790  147.2890 C   0  0  0  0  0  1  0  0  0  0  0  0
  188.2220  177.1930  145.8690 C   0  0  2  0  0  3  0  0  0  0  0  0
  188.9920  178.0390  144.8510 C   0  0  0  0  0  2  0  0  0  0  0  0
  190.4930  177.7590  144.8440 C   0  0  1  0  0  3  0  0  0  0  0  0
  190.7820  176.4920  144.1020 C   0  0  0  0  0  2  0  0  0  0  0  0
  191.6700  176.9790  142.9970 C   0  0  0  0  0  2  0  0  0  0  0  0
  191.4250  178.3490  142.8510 O   0  0  0  0  0  0  0  0  0  0  0  0
  191.1800  178.8130  144.1120 N   0  0  0  0  0  2  0  0  0  0  0  0
  2 18  1  0  0  0  0
  2  1  1  1  0  0  0
  3  2  1  0  0  0  0
  4  3  1  0  0  0  0
  5  3  1  1  0  0  0
  6  5  1  0  0  0  0
  7  6  1  6  0  0  0
  7  5  1  0  0  0  0
  8 13  2  0  0  0  0
  9  8  1  0  0  0  0
  9 11  2  0  0  0  0
 10 16  1  1  0  0  0
 13 15  1  0  0  0  0
 13 10  1  0  0  0  0
 14 12  1  0  0  0  0
 15 14  2  0  0  0  0
 16 12  2  0  0  0  0
 17 11  1  6  0  0  0
 17 10  1  0  0  0  0
 17  7  1  0  0  0  0
 18 19  1  0  0  0  0
 20 19  1  6  0  0  0
 20 24  1  0  0  0  0
 20 21  1  0  0  0  0
 21 23  1  0  0  0  0
 21 22  1  0  0  0  0
 24 26  1  0  0  0  0
 26 25  1  1  0  0  0
 27 26  1  0  0  0  0
 28 27  1  6  0  0  0
 29 28  1  0  0  0  0
 30 29  1  0  0  0  0
 31 30  1  0  0  0  0
 31 32  1  0  0  0  0
 32 28  1  0  0  0  0
M  END
>  <MODEL>
8

>  <REMARK>
 VINA RESULT:      -7.7      2.850      5.487
  Name = 
  11 active torsions:
  status: ('A' for Active; 'I' for Inactive)
    1  A    between atoms: C_1  and  C_10
    2  A    between atoms: C_1  and  C_16
    3  A    between atoms: C_1  and  C_22
    4  A    between atoms: N_2  and  C_11
    5  A    between atoms: N_2  and  C_20
    6  A    between atoms: C_4  and  C_7
    7  A    between atoms: C_7  and  C_23
    8  A    between atoms: C_16  and  C_25
    9  A    between atoms: C_20  and  C_25
   10  A    between atoms: C_22  and  C_23
   11  A    between atoms: C_30  and  C_32
                            x       y       z     vdW  Elec       q    Type
                         _______ _______ _______ _____ _____    ______ ____

>  <TORSDO>
F 11

$$$$
=
 OpenBabel10232408193D

 32 35  0  0  1  0  0  0  0  0999 V2000
  185.8320  179.2000  142.3550 C   0  0  0  0  0  1  0  0  0  0  0  0
  184.6470  178.2560  142.5350 C   0  0  1  0  0  3  0  0  0  0  0  0
  184.1430  178.3050  143.9210 N   0  0  0  0  0  0  0  0  0  0  0  0
  183.0040  179.2170  143.9560 C   0  0  0  0  0  1  0  0  0  0  0  0
  185.1600  178.9130  144.7760 C   0  0  1  0  0  3  0  0  0  0  0  0
  184.7120  178.9500  146.1140 O   0  0  0  0  0  0  0  0  0  0  0  0
  185.6240  177.9300  145.7880 C   0  0  2  0  0  3  0  0  0  0  0  0
  189.4040  177.8120  147.7490 N   0  0  0  0  0  0  0  0  0  0  0  0
  188.2070  178.2190  148.4260 C   0  0  0  0  0  3  0  0  0  0  0  0
  188.0480  177.2070  145.8130 C   0  0  2  0  0  3  0  0  0  0  0  0
  187.0990  178.3870  147.7660 N   0  0  0  0  0  0  0  0  0  0  0  0
  189.4080  177.0060  143.7460 C   0  0  0  0  0  3  0  0  0  0  0  0
  189.3720  177.3940  146.5200 C   0  0  0  0  0  0  0  0  0  0  0  0
  190.6190  176.8290  144.5710 C   0  0  0  0  0  3  0  0  0  0  0  0
  190.5880  177.0250  145.8560 N   0  0  0  0  0  0  0  0  0  0  0  0
  188.2200  177.2260  144.3160 C   0  0  0  0  0  3  0  0  0  0  0  0
  187.0380  178.2510  146.3010 C   0  0  2  0  0  3  0  0  0  0  0  0
  183.5840  178.6920  141.5310 C   0  0  0  0  0  2  0  0  0  0  0  0
  183.4120  177.6430  140.4440 C   0  0  0  0  0  2  0  0  0  0  0  0
  183.6350  178.2460  139.0630 C   0  0  1  0  0  3  0  0  0  0  0  0
  182.6930  179.4260  138.8410 C   0  0  0  0  0  3  0  0  0  0  0  0
  181.9800  179.2770  137.6610 F   0  0  0  0  0  0  0  0  0  0  0  0
  183.4070  180.6100  138.8120 F   0  0  0  0  0  0  0  0  0  0  0  0
  185.0900  178.6790  138.8970 C   0  0  0  0  0  2  0  0  0  0  0  0
  184.8170  176.9440  137.1260 C   0  0  0  0  0  1  0  0  0  0  0  0
  185.7370  178.0130  137.6900 C   0  0  2  0  0  3  0  0  0  0  0  0
  187.1280  177.4530  138.0000 C   0  0  0  0  0  2  0  0  0  0  0  0
  187.8990  178.2810  139.0240 C   0  0  1  0  0  3  0  0  0  0  0  0
  188.4640  177.3940  140.0900 C   0  0  0  0  0  2  0  0  0  0  0  0
  189.9350  177.6490  139.9530 C   0  0  0  0  0  2  0  0  0  0  0  0
  190.1440  178.1470  138.6610 O   0  0  0  0  0  0  0  0  0  0  0  0
  189.0450  178.9070  138.3800 N   0  0  0  0  0  2  0  0  0  0  0  0
  2  1  1  1  0  0  0
  2  3  1  0  0  0  0
  3  4  1  0  0  0  0
  5  3  1  6  0  0  0
  5  7  1  0  0  0  0
  5  6  1  0  0  0  0
  7  6  1  1  0  0  0
  7 17  1  0  0  0  0
  8  9  1  0  0  0  0
 10 16  1  6  0  0  0
 10 17  1  0  0  0  0
 10 13  1  0  0  0  0
 11  9  2  0  0  0  0
 12 16  2  0  0  0  0
 12 14  1  0  0  0  0
 13  8  2  0  0  0  0
 14 15  2  0  0  0  0
 15 13  1  0  0  0  0
 17 11  1  1  0  0  0
 18  2  1  0  0  0  0
 19 18  1  0  0  0  0
 20 24  1  1  0  0  0
 20 19  1  0  0  0  0
 21 20  1  0  0  0  0
 22 21  1  0  0  0  0
 23 21  1  0  0  0  0
 26 25  1  1  0  0  0
 26 27  1  0  0  0  0
 26 24  1  0  0  0  0
 28 27  1  6  0  0  0
 28 29  1  0  0  0  0
 30 29  1  0  0  0  0
 31 30  1  0  0  0  0
 32 31  1  0  0  0  0
 32 28  1  0  0  0  0
M  END
>  <MODEL>
9

>  <REMARK>
 VINA RESULT:      -7.7      3.796      8.824
  Name = 
  11 active torsions:
  status: ('A' for Active; 'I' for Inactive)
    1  A    between atoms: C_1  and  C_10
    2  A    between atoms: C_1  and  C_16
    3  A    between atoms: C_1  and  C_22
    4  A    between atoms: N_2  and  C_11
    5  A    between atoms: N_2  and  C_20
    6  A    between atoms: C_4  and  C_7
    7  A    between atoms: C_7  and  C_23
    8  A    between atoms: C_16  and  C_25
    9  A    between atoms: C_20  and  C_25
   10  A    between atoms: C_22  and  C_23
   11  A    between atoms: C_30  and  C_32
                            x       y       z     vdW  Elec       q    Type
                         _______ _______ _______ _____ _____    ______ ____

>  <TORSDO>
F 11

$$$$
