=
 OpenBabel10232410323D

 43 52  0  0  1  0  0  0  0  0999 V2000
  189.1730  176.9970  137.8720 C   0  0  0  0  0  0  0  0  0  0  0  0
  189.4810  177.4840  140.5990 C   0  0  0  0  0  0  0  0  0  0  0  0
  190.3750  176.7190  139.9140 N   0  0  0  0  0  0  0  0  0  0  0  0
  189.0080  176.7660  136.5020 C   0  0  0  0  0  3  0  0  0  0  0  0
  188.3680  178.0300  139.9360 C   0  0  0  0  0  0  0  0  0  0  0  0
  187.9080  177.2960  135.8310 C   0  0  0  0  0  3  0  0  0  0  0  0
  187.1480  178.2770  137.8690 N   0  0  0  0  0  0  0  0  0  0  0  0
  186.9770  178.0540  136.5410 C   0  0  0  0  0  3  0  0  0  0  0  0
  188.2170  177.7850  138.5540 C   0  0  0  0  0  0  0  0  0  0  0  0
  190.2550  176.4530  138.5870 C   0  0  0  0  0  0  0  0  0  0  0  0
  190.5950  176.5990  142.6530 C   0  0  2  0  0  3  0  0  0  0  0  0
  189.0710  176.5250  142.8400 C   0  0  1  0  0  3  0  0  0  0  0  0
  191.2030  176.7200  145.1030 C   0  0  0  0  0  2  0  0  0  0  0  0
  189.0600  178.0890  144.9480 C   0  0  0  0  0  2  0  0  0  0  0  0
  190.2220  177.6300  145.8400 C   0  0  1  0  0  3  0  0  0  0  0  0
  188.4310  176.9260  144.1870 C   0  0  0  0  0  2  0  0  0  0  0  0
  191.4780  177.2590  143.7100 C   0  0  0  0  0  2  0  0  0  0  0  0
  189.6850  177.6830  142.0730 C   0  0  2  0  0  3  0  0  0  0  0  0
  189.4190  177.9450  148.1320 N   0  0  1  0  0  0  0  0  0  0  0  0
  188.3360  177.2820  147.3700 C   0  0  2  0  0  3  0  0  0  0  0  0
  188.1900  177.4900  148.8070 C   0  0  0  0  0  2  0  0  0  0  0  0
  189.7290  176.9350  147.1010 C   0  0  1  0  0  3  0  0  0  0  0  0
  191.3120  175.6270  137.9040 C   0  0  0  0  0  3  0  0  0  0  0  0
  192.6760  175.9580  138.4830 C   0  0  0  0  0  2  0  0  0  0  0  0
  192.2830  176.5100  137.1340 C   0  0  0  0  0  2  0  0  0  0  0  0
  187.4470  178.7850  140.6770 O   0  0  0  0  0  0  0  0  0  0  0  0
  186.1280  178.8010  142.6820 C   0  0  0  0  0  2  0  0  0  0  0  0
  185.3020  179.3600  141.5450 C   0  0  1  0  0  3  0  0  0  0  0  0
  186.2850  178.2390  141.2850 C   0  0  1  0  0  3  0  0  0  0  0  0
  183.9000  178.7820  141.5760 C   0  0  0  0  0  2  0  0  0  0  0  0
  181.2810  175.9780  138.3850 C   0  0  0  0  0  0  0  0  0  0  0  0
  181.7950  176.7260  136.0370 C   0  0  0  0  0  2  0  0  0  0  0  0
  182.3430  177.2320  140.2600 N   0  0  0  0  0  0  0  0  0  0  0  0
  182.9270  177.7670  137.9780 C   0  0  2  0  0  3  0  0  0  0  0  0
  180.6600  175.0600  139.2770 N   0  0  0  0  0  1  0  0  0  0  0  0
  181.1900  175.7780  137.0600 C   0  0  0  0  0  3  0  0  0  0  0  0
  183.6170  179.1790  138.8270 S   0  0  0  0  0  0  0  0  0  0  0  0
  183.5750  178.0600  140.2650 C   0  0  1  0  0  3  0  0  0  0  0  0
  182.2980  178.0540  136.6320 C   0  0  0  0  0  2  0  0  0  0  0  0
  181.8390  177.2780  138.8930 C   0  0  1  0  0  3  0  0  0  0  0  0
  181.2920  177.8420  141.0760 C   0  0  0  0  0  2  0  0  0  0  0  0
  180.5020  178.6650  140.2740 O   0  0  0  0  0  0  0  0  0  0  0  0
  180.1290  179.7140  141.1120 C   0  0  0  0  0  1  0  0  0  0  0  0
  1  9  1  0  0  0  0
  1 10  2  0  0  0  0
  3  2  2  0  0  0  0
  4  1  1  0  0  0  0
  5  2  1  0  0  0  0
  5 26  1  0  0  0  0
  6  4  2  0  0  0  0
  6  8  1  0  0  0  0
  7  9  1  0  0  0  0
  8  7  2  0  0  0  0
  9  5  2  0  0  0  0
 10  3  1  0  0  0  0
 11 12  1  0  0  0  0
 11 17  1  1  0  0  0
 12 16  1  1  0  0  0
 13 15  1  0  0  0  0
 15 14  1  6  0  0  0
 16 14  1  0  0  0  0
 17 13  1  0  0  0  0
 18  2  1  6  0  0  0
 18 11  1  0  0  0  0
 18 12  1  0  0  0  0
 19 21  1  1  0  0  0
 20 19  1  0  0  0  0
 20 21  1  1  0  0  0
 22 15  1  6  0  0  0
 22 20  1  0  0  0  0
 22 19  1  0  0  0  0
 23 24  1  0  0  0  0
 23 10  1  0  0  0  0
 25 23  1  0  0  0  0
 25 24  1  0  0  0  0
 28 30  1  1  0  0  0
 28 27  1  0  0  0  0
 29 26  1  6  0  0  0
 29 28  1  0  0  0  0
 29 27  1  0  0  0  0
 31 35  1  0  0  0  0
 32 39  1  0  0  0  0
 32 36  1  0  0  0  0
 33 38  1  0  0  0  0
 33 41  1  0  0  0  0
 34 39  1  6  0  0  0
 34 37  1  0  0  0  0
 34 40  1  0  0  0  0
 36 31  2  0  0  0  0
 37 38  1  0  0  0  0
 38 30  1  1  0  0  0
 40 31  1  6  0  0  0
 40 33  1  0  0  0  0
 42 41  1  0  0  0  0
 42 43  1  0  0  0  0
M  END
>  <MODEL>
1

>  <REMARK>
 VINA RESULT:      -8.9      0.000      0.000
  Name = 
  9 active torsions:
  status: ('A' for Active; 'I' for Inactive)
    1  A    between atoms: C_3  and  C_43
    2  A    between atoms: O_4  and  C_11
    3  A    between atoms: O_4  and  C_19
    4  A    between atoms: C_6  and  C_32
    5  A    between atoms: C_12  and  C_16
    6  A    between atoms: C_16  and  C_36
    7  A    between atoms: N_17  and  C_38
    8  A    between atoms: C_29  and  C_30
    9  A    between atoms: O_34  and  C_38
                            x       y       z     vdW  Elec       q    Type
                         _______ _______ _______ _____ _____    ______ ____

>  <TORSDO>
F 9

$$$$
=
 OpenBabel10232410323D

 43 52  0  0  1  0  0  0  0  0999 V2000
  186.4110  177.7250  137.6170 C   0  0  0  0  0  0  0  0  0  0  0  0
  189.0960  177.1100  137.1940 C   0  0  0  0  0  0  0  0  0  0  0  0
  188.1570  176.8600  136.2400 N   0  0  0  0  0  0  0  0  0  0  0  0
  185.0670  178.0450  137.8420 C   0  0  0  0  0  3  0  0  0  0  0  0
  188.7160  177.6710  138.4270 C   0  0  0  0  0  0  0  0  0  0  0  0
  184.6740  178.5980  139.0590 C   0  0  0  0  0  3  0  0  0  0  0  0
  186.9350  178.5150  139.8180 N   0  0  0  0  0  0  0  0  0  0  0  0
  185.6330  178.8240  140.0460 C   0  0  0  0  0  3  0  0  0  0  0  0
  187.3570  177.9860  138.6350 C   0  0  0  0  0  0  0  0  0  0  0  0
  186.8380  177.1390  136.4120 C   0  0  0  0  0  0  0  0  0  0  0  0
  190.6090  175.7500  135.7430 C   0  0  2  0  0  3  0  0  0  0  0  0
  190.7180  175.2450  137.1910 C   0  0  1  0  0  3  0  0  0  0  0  0
  192.8950  174.9910  134.9770 C   0  0  0  0  0  2  0  0  0  0  0  0
  193.2870  175.7480  137.3780 C   0  0  0  0  0  2  0  0  0  0  0  0
  193.9270  175.2540  136.0720 C   0  0  1  0  0  3  0  0  0  0  0  0
  192.0970  174.8890  137.7910 C   0  0  0  0  0  2  0  0  0  0  0  0
  191.8630  176.1050  134.9470 C   0  0  0  0  0  2  0  0  0  0  0  0
  190.5200  176.7250  136.9180 C   0  0  2  0  0  3  0  0  0  0  0  0
  196.1580  174.2670  135.8610 N   0  0  1  0  0  0  0  0  0  0  0  0
  195.7980  174.2480  137.2980 C   0  0  2  0  0  3  0  0  0  0  0  0
  197.0320  173.6080  136.8500 C   0  0  0  0  0  2  0  0  0  0  0  0
  194.7700  174.0060  136.2900 C   0  0  1  0  0  3  0  0  0  0  0  0
  185.8750  176.8640  135.2880 C   0  0  0  0  0  3  0  0  0  0  0  0
  185.1720  175.5410  135.5260 C   0  0  0  0  0  2  0  0  0  0  0  0
  186.2840  175.6240  134.5090 C   0  0  0  0  0  2  0  0  0  0  0  0
  189.7030  177.8830  139.4010 O   0  0  0  0  0  0  0  0  0  0  0  0
  191.4610  177.3410  140.9410 C   0  0  0  0  0  2  0  0  0  0  0  0
  190.1460  177.3770  141.6880 C   0  0  1  0  0  3  0  0  0  0  0  0
  190.1930  176.8670  140.2640 C   0  0  1  0  0  3  0  0  0  0  0  0
  190.0390  176.1900  142.6280 C   0  0  0  0  0  2  0  0  0  0  0  0
  188.2920  177.7090  147.0480 C   0  0  0  0  0  0  0  0  0  0  0  0
  185.8890  178.4050  146.7760 C   0  0  0  0  0  2  0  0  0  0  0  0
  189.5280  176.9830  145.0080 N   0  0  0  0  0  0  0  0  0  0  0  0
  187.1710  177.4890  144.8650 C   0  0  2  0  0  3  0  0  0  0  0  0
  189.4090  177.4420  147.8880 N   0  0  0  0  0  1  0  0  0  0  0  0
  187.1210  178.0700  147.5990 C   0  0  0  0  0  3  0  0  0  0  0  0
  187.5980  177.4470  143.1310 S   0  0  0  0  0  0  0  0  0  0  0  0
  189.0040  176.4510  143.7260 C   0  0  1  0  0  3  0  0  0  0  0  0
  186.1600  178.5410  145.2660 C   0  0  0  0  0  2  0  0  0  0  0  0
  188.4640  177.8130  145.5580 C   0  0  1  0  0  3  0  0  0  0  0  0
  190.6500  177.8960  144.7850 C   0  0  0  0  0  2  0  0  0  0  0  0
  191.6550  177.6290  145.7150 O   0  0  0  0  0  0  0  0  0  0  0  0
  191.8120  176.2450  145.6680 C   0  0  0  0  0  1  0  0  0  0  0  0
  1  4  1  0  0  0  0
  1  9  1  0  0  0  0
  2  5  1  0  0  0  0
  3 10  1  0  0  0  0
  3  2  2  0  0  0  0
  4  6  2  0  0  0  0
  5  9  2  0  0  0  0
  5 26  1  0  0  0  0
  6  8  1  0  0  0  0
  7  8  2  0  0  0  0
  9  7  1  0  0  0  0
 10  1  2  0  0  0  0
 11 17  1  6  0  0  0
 11 18  1  0  0  0  0
 11 12  1  0  0  0  0
 12 16  1  6  0  0  0
 14 16  1  0  0  0  0
 15 13  1  6  0  0  0
 15 14  1  0  0  0  0
 17 13  1  0  0  0  0
 18 12  1  0  0  0  0
 18  2  1  1  0  0  0
 19 22  1  0  0  0  0
 19 21  1  1  0  0  0
 19 20  1  0  0  0  0
 20 21  1  1  0  0  0
 22 15  1  6  0  0  0
 22 20  1  0  0  0  0
 23 24  1  0  0  0  0
 23 10  1  0  0  0  0
 25 23  1  0  0  0  0
 25 24  1  0  0  0  0
 27 28  1  0  0  0  0
 28 30  1  1  0  0  0
 29 26  1  6  0  0  0
 29 27  1  0  0  0  0
 29 28  1  0  0  0  0
 31 36  2  0  0  0  0
 31 35  1  0  0  0  0
 32 36  1  0  0  0  0
 33 40  1  0  0  0  0
 34 39  1  6  0  0  0
 34 40  1  0  0  0  0
 37 38  1  0  0  0  0
 37 34  1  0  0  0  0
 38 30  1  6  0  0  0
 38 33  1  0  0  0  0
 39 32  1  0  0  0  0
 40 31  1  1  0  0  0
 41 33  1  0  0  0  0
 41 42  1  0  0  0  0
 43 42  1  0  0  0  0
M  END
>  <MODEL>
2

>  <REMARK>
 VINA RESULT:      -8.6      3.007      8.504
  Name = 
  9 active torsions:
  status: ('A' for Active; 'I' for Inactive)
    1  A    between atoms: C_3  and  C_43
    2  A    between atoms: O_4  and  C_11
    3  A    between atoms: O_4  and  C_19
    4  A    between atoms: C_6  and  C_32
    5  A    between atoms: C_12  and  C_16
    6  A    between atoms: C_16  and  C_36
    7  A    between atoms: N_17  and  C_38
    8  A    between atoms: C_29  and  C_30
    9  A    between atoms: O_34  and  C_38
                            x       y       z     vdW  Elec       q    Type
                         _______ _______ _______ _____ _____    ______ ____

>  <TORSDO>
F 9

$$$$
=
 OpenBabel10232410323D

 43 52  0  0  1  0  0  0  0  0999 V2000
  184.0740  178.8200  141.2520 C   0  0  0  0  0  0  0  0  0  0  0  0
  186.6570  178.2880  142.1510 C   0  0  0  0  0  0  0  0  0  0  0  0
  185.5920  178.2370  142.9980 N   0  0  0  0  0  0  0  0  0  0  0  0
  182.7810  179.0840  140.7850 C   0  0  0  0  0  3  0  0  0  0  0  0
  186.4680  178.6300  140.8010 C   0  0  0  0  0  0  0  0  0  0  0  0
  182.5770  179.4300  139.4500 C   0  0  0  0  0  3  0  0  0  0  0  0
  184.9240  179.2470  139.0530 N   0  0  0  0  0  0  0  0  0  0  0  0
  183.6740  179.5100  138.5920 C   0  0  0  0  0  3  0  0  0  0  0  0
  185.1580  178.8950  140.3480 C   0  0  0  0  0  0  0  0  0  0  0  0
  184.3190  178.4980  142.5990 C   0  0  0  0  0  0  0  0  0  0  0  0
  188.4010  176.5460  142.5630 C   0  0  2  0  0  3  0  0  0  0  0  0
  187.9290  177.1080  143.9130 C   0  0  1  0  0  3  0  0  0  0  0  0
  190.6960  175.8060  143.3210 C   0  0  0  0  0  2  0  0  0  0  0  0
  190.3080  177.9720  144.6050 C   0  0  0  0  0  2  0  0  0  0  0  0
  191.3000  176.8530  144.2550 C   0  0  1  0  0  3  0  0  0  0  0  0
  188.9510  177.4200  145.0280 C   0  0  0  0  0  2  0  0  0  0  0  0
  189.8890  176.4810  142.2250 C   0  0  0  0  0  2  0  0  0  0  0  0
  188.0270  178.0220  142.7040 C   0  0  2  0  0  3  0  0  0  0  0  0
  192.0330  177.1710  146.5700 N   0  0  1  0  0  0  0  0  0  0  0  0
  190.8820  176.2400  146.5930 C   0  0  2  0  0  3  0  0  0  0  0  0
  191.6110  176.5240  147.8260 C   0  0  0  0  0  2  0  0  0  0  0  0
  191.8480  176.1700  145.5010 C   0  0  1  0  0  3  0  0  0  0  0  0
  183.1970  178.3820  143.5960 C   0  0  0  0  0  3  0  0  0  0  0  0
  182.8810  179.7490  144.1740 C   0  0  0  0  0  2  0  0  0  0  0  0
  183.6660  178.7540  144.9930 C   0  0  0  0  0  2  0  0  0  0  0  0
  187.5900  178.7070  139.9640 O   0  0  0  0  0  0  0  0  0  0  0  0
  188.8600  178.5650  137.9320 C   0  0  0  0  0  2  0  0  0  0  0  0
  189.0580  177.2920  138.7260 C   0  0  1  0  0  3  0  0  0  0  0  0
  187.7160  177.9930  138.7420 C   0  0  1  0  0  3  0  0  0  0  0  0
  188.9650  176.0820  137.8160 C   0  0  0  0  0  2  0  0  0  0  0  0
  192.5050  173.0170  136.0910 C   0  0  0  0  0  0  0  0  0  0  0  0
  194.7180  173.6950  137.0790 C   0  0  0  0  0  2  0  0  0  0  0  0
  190.5090  174.4000  136.6570 N   0  0  0  0  0  0  0  0  0  0  0  0
  192.6310  174.8720  137.7080 C   0  0  2  0  0  3  0  0  0  0  0  0
  191.7250  172.1040  135.3270 N   0  0  0  0  0  1  0  0  0  0  0  0
  193.8050  172.7590  136.3030 C   0  0  0  0  0  3  0  0  0  0  0  0
  191.7250  176.3510  138.1320 S   0  0  0  0  0  0  0  0  0  0  0  0
  190.2760  175.2910  137.8200 C   0  0  1  0  0  3  0  0  0  0  0  0
  194.0960  175.0700  137.3810 C   0  0  0  0  0  2  0  0  0  0  0  0
  191.9540  174.3640  136.4670 C   0  0  1  0  0  3  0  0  0  0  0  0
  189.9750  174.9860  135.4250 C   0  0  0  0  0  2  0  0  0  0  0  0
  190.9430  175.8060  134.8470 O   0  0  0  0  0  0  0  0  0  0  0  0
  190.2320  176.9150  134.3930 C   0  0  0  0  0  1  0  0  0  0  0  0
  1 10  1  0  0  0  0
  2  3  1  0  0  0  0
  4  1  1  0  0  0  0
  5  2  2  0  0  0  0
  6  4  2  0  0  0  0
  7  9  1  0  0  0  0
  8  7  2  0  0  0  0
  8  6  1  0  0  0  0
  9  5  1  0  0  0  0
  9  1  2  0  0  0  0
 10  3  2  0  0  0  0
 10 23  1  0  0  0  0
 11 17  1  1  0  0  0
 11 18  1  0  0  0  0
 11 12  1  0  0  0  0
 12 16  1  1  0  0  0
 14 16  1  0  0  0  0
 15 13  1  6  0  0  0
 15 14  1  0  0  0  0
 17 13  1  0  0  0  0
 18  2  1  6  0  0  0
 18 12  1  0  0  0  0
 19 20  1  0  0  0  0
 19 21  1  1  0  0  0
 20 21  1  1  0  0  0
 22 15  1  6  0  0  0
 22 19  1  0  0  0  0
 22 20  1  0  0  0  0
 23 24  1  0  0  0  0
 23 25  1  0  0  0  0
 24 25  1  0  0  0  0
 26  5  1  0  0  0  0
 27 28  1  0  0  0  0
 27 29  1  0  0  0  0
 28 30  1  6  0  0  0
 28 29  1  0  0  0  0
 29 26  1  1  0  0  0
 31 36  2  0  0  0  0
 32 39  1  0  0  0  0
 33 38  1  0  0  0  0
 34 39  1  6  0  0  0
 34 37  1  0  0  0  0
 35 31  1  0  0  0  0
 36 32  1  0  0  0  0
 38 30  1  6  0  0  0
 38 37  1  0  0  0  0
 40 31  1  1  0  0  0
 40 33  1  0  0  0  0
 40 34  1  0  0  0  0
 41 33  1  0  0  0  0
 42 41  1  0  0  0  0
 43 42  1  0  0  0  0
M  END
>  <MODEL>
3

>  <REMARK>
 VINA RESULT:      -8.4      2.854      7.627
  Name = 
  9 active torsions:
  status: ('A' for Active; 'I' for Inactive)
    1  A    between atoms: C_3  and  C_43
    2  A    between atoms: O_4  and  C_11
    3  A    between atoms: O_4  and  C_19
    4  A    between atoms: C_6  and  C_32
    5  A    between atoms: C_12  and  C_16
    6  A    between atoms: C_16  and  C_36
    7  A    between atoms: N_17  and  C_38
    8  A    between atoms: C_29  and  C_30
    9  A    between atoms: O_34  and  C_38
                            x       y       z     vdW  Elec       q    Type
                         _______ _______ _______ _____ _____    ______ ____

>  <TORSDO>
F 9

$$$$
=
 OpenBabel10232410323D

 43 52  0  0  1  0  0  0  0  0999 V2000
  188.6480  177.4010  146.0100 C   0  0  0  0  0  0  0  0  0  0  0  0
  186.9810  177.5560  143.7820 C   0  0  0  0  0  0  0  0  0  0  0  0
  186.5410  177.9170  145.0190 N   0  0  0  0  0  0  0  0  0  0  0  0
  189.4990  177.3220  147.1190 C   0  0  0  0  0  3  0  0  0  0  0  0
  188.2930  177.0770  143.6140 C   0  0  0  0  0  0  0  0  0  0  0  0
  190.8000  176.8460  146.9700 C   0  0  0  0  0  3  0  0  0  0  0  0
  190.4080  176.5320  144.6360 N   0  0  0  0  0  0  0  0  0  0  0  0
  191.2390  176.4480  145.7070 C   0  0  0  0  0  3  0  0  0  0  0  0
  189.1350  177.0040  144.7430 C   0  0  0  0  0  0  0  0  0  0  0  0
  187.3200  177.8480  146.1300 C   0  0  0  0  0  0  0  0  0  0  0  0
  186.1510  178.9690  141.8960 C   0  0  2  0  0  3  0  0  0  0  0  0
  184.9960  178.7200  142.8800 C   0  0  1  0  0  3  0  0  0  0  0  0
  184.7300  179.3570  139.8420 C   0  0  0  0  0  2  0  0  0  0  0  0
  183.4800  177.5280  141.1000 C   0  0  0  0  0  2  0  0  0  0  0  0
  183.5670  178.3680  139.8180 C   0  0  1  0  0  3  0  0  0  0  0  0
  183.5820  178.3890  142.3540 C   0  0  0  0  0  2  0  0  0  0  0  0
  185.9750  178.6930  140.4040 C   0  0  0  0  0  2  0  0  0  0  0  0
  186.0250  177.6320  142.6280 C   0  0  2  0  0  3  0  0  0  0  0  0
  182.5460  180.2850  138.6860 N   0  0  1  0  0  0  0  0  0  0  0  0
  181.9400  179.0600  138.1170 C   0  0  2  0  0  3  0  0  0  0  0  0
  181.4370  180.3710  137.7190 C   0  0  0  0  0  2  0  0  0  0  0  0
  182.2680  179.1120  139.5380 C   0  0  1  0  0  3  0  0  0  0  0  0
  186.7610  178.3040  147.4510 C   0  0  0  0  0  3  0  0  0  0  0  0
  185.2790  178.5990  147.3070 C   0  0  0  0  0  2  0  0  0  0  0  0
  186.2660  179.7400  147.3690 C   0  0  0  0  0  2  0  0  0  0  0  0
  188.7040  176.6810  142.3330 O   0  0  0  0  0  0  0  0  0  0  0  0
  190.7400  177.8900  141.9400 C   0  0  0  0  0  2  0  0  0  0  0  0
  190.5860  176.8250  140.8760 C   0  0  1  0  0  3  0  0  0  0  0  0
  189.3640  177.5390  141.4140 C   0  0  1  0  0  3  0  0  0  0  0  0
  190.9210  177.3920  139.5090 C   0  0  0  0  0  2  0  0  0  0  0  0
  189.0580  174.9680  135.5650 C   0  0  0  0  0  0  0  0  0  0  0  0
  190.9420  173.8240  134.3510 C   0  0  0  0  0  2  0  0  0  0  0  0
  189.6350  176.3690  137.5460 N   0  0  0  0  0  0  0  0  0  0  0  0
  191.3590  175.0910  136.4390 C   0  0  2  0  0  3  0  0  0  0  0  0
  187.6640  175.1980  135.7380 N   0  0  0  0  0  1  0  0  0  0  0  0
  189.4740  174.1050  134.6250 C   0  0  0  0  0  3  0  0  0  0  0  0
  192.3580  176.1700  137.4520 S   0  0  0  0  0  0  0  0  0  0  0  0
  190.8260  176.3110  138.4290 C   0  0  1  0  0  3  0  0  0  0  0  0
  191.9090  174.7900  135.0610 C   0  0  0  0  0  2  0  0  0  0  0  0
  190.0680  175.8390  136.2590 C   0  0  1  0  0  3  0  0  0  0  0  0
  189.2400  177.7530  137.2780 C   0  0  0  0  0  2  0  0  0  0  0  0
  187.8930  177.9200  137.5990 O   0  0  0  0  0  0  0  0  0  0  0  0
  187.3770  178.6770  136.5490 C   0  0  0  0  0  1  0  0  0  0  0  0
  1 10  1  0  0  0  0
  1  4  1  0  0  0  0
  2  3  1  0  0  0  0
  3 10  2  0  0  0  0
  5  2  2  0  0  0  0
  5  9  1  0  0  0  0
  6  4  2  0  0  0  0
  7  9  1  0  0  0  0
  7  8  2  0  0  0  0
  8  6  1  0  0  0  0
  9  1  2  0  0  0  0
 10 23  1  0  0  0  0
 11 17  1  6  0  0  0
 11 18  1  0  0  0  0
 11 12  1  0  0  0  0
 12 16  1  6  0  0  0
 13 17  1  0  0  0  0
 14 16  1  0  0  0  0
 15 13  1  1  0  0  0
 15 14  1  0  0  0  0
 18 12  1  0  0  0  0
 18  2  1  1  0  0  0
 19 21  1  1  0  0  0
 19 22  1  0  0  0  0
 20 21  1  1  0  0  0
 20 19  1  0  0  0  0
 20 22  1  0  0  0  0
 22 15  1  6  0  0  0
 24 25  1  0  0  0  0
 24 23  1  0  0  0  0
 25 23  1  0  0  0  0
 26  5  1  0  0  0  0
 28 30  1  6  0  0  0
 28 29  1  0  0  0  0
 28 27  1  0  0  0  0
 29 27  1  0  0  0  0
 29 26  1  1  0  0  0
 31 35  1  0  0  0  0
 32 36  1  0  0  0  0
 32 39  1  0  0  0  0
 33 38  1  0  0  0  0
 34 39  1  6  0  0  0
 34 37  1  0  0  0  0
 36 31  2  0  0  0  0
 37 38  1  0  0  0  0
 38 30  1  6  0  0  0
 40 31  1  1  0  0  0
 40 34  1  0  0  0  0
 40 33  1  0  0  0  0
 41 33  1  0  0  0  0
 41 42  1  0  0  0  0
 43 42  1  0  0  0  0
M  END
>  <MODEL>
4

>  <REMARK>
 VINA RESULT:      -8.3      2.773      8.477
  Name = 
  9 active torsions:
  status: ('A' for Active; 'I' for Inactive)
    1  A    between atoms: C_3  and  C_43
    2  A    between atoms: O_4  and  C_11
    3  A    between atoms: O_4  and  C_19
    4  A    between atoms: C_6  and  C_32
    5  A    between atoms: C_12  and  C_16
    6  A    between atoms: C_16  and  C_36
    7  A    between atoms: N_17  and  C_38
    8  A    between atoms: C_29  and  C_30
    9  A    between atoms: O_34  and  C_38
                            x       y       z     vdW  Elec       q    Type
                         _______ _______ _______ _____ _____    ______ ____

>  <TORSDO>
F 9

$$$$
=
 OpenBabel10232410323D

 43 52  0  0  1  0  0  0  0  0999 V2000
  182.9090  178.4700  140.1550 C   0  0  0  0  0  0  0  0  0  0  0  0
  185.1240  178.2940  138.4730 C   0  0  0  0  0  0  0  0  0  0  0  0
  183.8640  178.0800  138.0040 N   0  0  0  0  0  0  0  0  0  0  0  0
  181.8060  178.5670  141.0110 C   0  0  0  0  0  3  0  0  0  0  0  0
  185.3290  178.5920  139.8320 C   0  0  0  0  0  0  0  0  0  0  0  0
  181.9920  178.8580  142.3620 C   0  0  0  0  0  3  0  0  0  0  0  0
  184.3510  178.9540  142.0070 N   0  0  0  0  0  0  0  0  0  0  0  0
  183.2860  179.0460  142.8460 C   0  0  0  0  0  3  0  0  0  0  0  0
  184.2050  178.6840  140.6800 C   0  0  0  0  0  0  0  0  0  0  0  0
  182.7600  178.1490  138.7940 C   0  0  0  0  0  0  0  0  0  0  0  0
  185.8620  177.3930  136.2620 C   0  0  2  0  0  3  0  0  0  0  0  0
  186.6500  176.6870  137.3780 C   0  0  1  0  0  3  0  0  0  0  0  0
  187.5720  177.0770  134.4270 C   0  0  0  0  0  2  0  0  0  0  0  0
  188.9890  177.4970  136.5030 C   0  0  0  0  0  2  0  0  0  0  0  0
  188.9780  177.3030  134.9790 C   0  0  1  0  0  3  0  0  0  0  0  0
  188.1660  176.4320  137.2200 C   0  0  0  0  0  2  0  0  0  0  0  0
  186.5890  178.0330  135.0810 C   0  0  0  0  0  2  0  0  0  0  0  0
  186.2780  178.1520  137.5230 C   0  0  2  0  0  3  0  0  0  0  0  0
  191.2580  176.6670  134.3530 N   0  0  1  0  0  0  0  0  0  0  0  0
  190.8990  175.8930  135.5630 C   0  0  2  0  0  3  0  0  0  0  0  0
  192.1650  175.6330  134.8850 C   0  0  0  0  0  2  0  0  0  0  0  0
  189.8860  176.1600  134.5460 C   0  0  1  0  0  3  0  0  0  0  0  0
  181.4020  177.9360  138.1820 C   0  0  0  0  0  3  0  0  0  0  0  0
  181.5150  177.9370  136.6680 C   0  0  0  0  0  2  0  0  0  0  0  0
  180.9670  179.1510  137.3780 C   0  0  0  0  0  2  0  0  0  0  0  0
  186.6420  178.7720  140.2900 O   0  0  0  0  0  0  0  0  0  0  0  0
  188.9500  178.2070  140.6280 C   0  0  0  0  0  2  0  0  0  0  0  0
  188.1990  178.0060  141.9260 C   0  0  1  0  0  3  0  0  0  0  0  0
  187.5220  177.7030  140.6060 C   0  0  1  0  0  3  0  0  0  0  0  0
  188.6080  176.6980  142.5760 C   0  0  0  0  0  2  0  0  0  0  0  0
  189.6470  177.4580  147.3970 C   0  0  0  0  0  0  0  0  0  0  0  0
  187.5170  178.0410  148.6050 C   0  0  0  0  0  2  0  0  0  0  0  0
  189.5240  177.1080  144.9320 N   0  0  0  0  0  0  0  0  0  0  0  0
  187.4980  177.4870  146.1900 C   0  0  2  0  0  3  0  0  0  0  0  0
  191.0330  177.1400  147.4300 N   0  0  0  0  0  1  0  0  0  0  0  0
  188.9880  177.6660  148.5490 C   0  0  0  0  0  3  0  0  0  0  0  0
  186.8930  177.7200  144.5270 S   0  0  0  0  0  0  0  0  0  0  0  0
  188.3620  176.7360  144.0870 C   0  0  1  0  0  3  0  0  0  0  0  0
  186.9100  178.4090  147.2380 C   0  0  0  0  0  2  0  0  0  0  0  0
  188.9680  177.7860  146.0970 C   0  0  1  0  0  3  0  0  0  0  0  0
  190.3620  178.1090  144.2690 C   0  0  0  0  0  2  0  0  0  0  0  0
  191.6410  177.5860  144.0760 O   0  0  0  0  0  0  0  0  0  0  0  0
  191.9820  177.9720  142.7810 C   0  0  0  0  0  1  0  0  0  0  0  0
  1  9  1  0  0  0  0
  1  4  1  0  0  0  0
  2  5  1  0  0  0  0
  3  2  2  0  0  0  0
  3 10  1  0  0  0  0
  4  6  2  0  0  0  0
  5 26  1  0  0  0  0
  5  9  2  0  0  0  0
  6  8  1  0  0  0  0
  7  8  2  0  0  0  0
  9  7  1  0  0  0  0
 10  1  2  0  0  0  0
 11 17  1  6  0  0  0
 11 12  1  0  0  0  0
 11 18  1  0  0  0  0
 12 16  1  6  0  0  0
 12 18  1  0  0  0  0
 13 17  1  0  0  0  0
 14 16  1  0  0  0  0
 15 13  1  1  0  0  0
 15 14  1  0  0  0  0
 18  2  1  1  0  0  0
 19 22  1  0  0  0  0
 19 21  1  6  0  0  0
 19 20  1  0  0  0  0
 20 21  1  6  0  0  0
 22 15  1  1  0  0  0
 22 20  1  0  0  0  0
 23 10  1  0  0  0  0
 24 25  1  0  0  0  0
 24 23  1  0  0  0  0
 25 23  1  0  0  0  0
 27 28  1  0  0  0  0
 28 30  1  1  0  0  0
 29 26  1  6  0  0  0
 29 27  1  0  0  0  0
 29 28  1  0  0  0  0
 31 35  1  0  0  0  0
 31 36  2  0  0  0  0
 33 40  1  0  0  0  0
 34 39  1  1  0  0  0
 36 32  1  0  0  0  0
 37 34  1  0  0  0  0
 38 30  1  6  0  0  0
 38 37  1  0  0  0  0
 38 33  1  0  0  0  0
 39 32  1  0  0  0  0
 40 34  1  0  0  0  0
 40 31  1  1  0  0  0
 41 33  1  0  0  0  0
 42 41  1  0  0  0  0
 43 42  1  0  0  0  0
M  END
>  <MODEL>
5

>  <REMARK>
 VINA RESULT:      -8.2      2.363      9.355
  Name = 
  9 active torsions:
  status: ('A' for Active; 'I' for Inactive)
    1  A    between atoms: C_3  and  C_43
    2  A    between atoms: O_4  and  C_11
    3  A    between atoms: O_4  and  C_19
    4  A    between atoms: C_6  and  C_32
    5  A    between atoms: C_12  and  C_16
    6  A    between atoms: C_16  and  C_36
    7  A    between atoms: N_17  and  C_38
    8  A    between atoms: C_29  and  C_30
    9  A    between atoms: O_34  and  C_38
                            x       y       z     vdW  Elec       q    Type
                         _______ _______ _______ _____ _____    ______ ____

>  <TORSDO>
F 9

$$$$
=
 OpenBabel10232410323D

 43 52  0  0  1  0  0  0  0  0999 V2000
  191.1970  176.3220  136.9830 C   0  0  0  0  0  0  0  0  0  0  0  0
  190.3960  177.0480  139.5520 C   0  0  0  0  0  0  0  0  0  0  0  0
  191.7100  176.8620  139.2500 N   0  0  0  0  0  0  0  0  0  0  0  0
  191.5850  175.9620  135.6880 C   0  0  0  0  0  3  0  0  0  0  0  0
  189.4120  176.8570  138.5650 C   0  0  0  0  0  0  0  0  0  0  0  0
  190.6220  175.7650  134.6990 C   0  0  0  0  0  3  0  0  0  0  0  0
  188.9080  176.2800  136.2780 N   0  0  0  0  0  0  0  0  0  0  0  0
  189.2750  175.9270  135.0180 C   0  0  0  0  0  3  0  0  0  0  0  0
  189.8220  176.4940  137.2640 C   0  0  0  0  0  0  0  0  0  0  0  0
  192.1400  176.5000  138.0120 C   0  0  0  0  0  0  0  0  0  0  0  0
  191.2190  177.2350  141.9030 C   0  0  2  0  0  3  0  0  0  0  0  0
  190.1070  176.1760  141.8460 C   0  0  1  0  0  3  0  0  0  0  0  0
  190.9320  177.8550  144.3370 C   0  0  0  0  0  2  0  0  0  0  0  0
  188.5490  177.4410  143.5380 C   0  0  0  0  0  2  0  0  0  0  0  0
  189.4470  177.9180  144.6880 C   0  0  1  0  0  3  0  0  0  0  0  0
  189.0280  176.1170  142.9510 C   0  0  0  0  0  2  0  0  0  0  0  0
  191.1630  178.3680  142.9260 C   0  0  0  0  0  2  0  0  0  0  0  0
  190.0270  177.4070  140.9610 C   0  0  2  0  0  3  0  0  0  0  0  0
  189.3190  178.0390  147.1310 N   0  0  1  0  0  0  0  0  0  0  0  0
  187.9870  177.6220  146.6370 C   0  0  2  0  0  3  0  0  0  0  0  0
  188.2490  177.6630  148.0720 C   0  0  0  0  0  2  0  0  0  0  0  0
  189.1910  177.1370  145.9690 C   0  0  1  0  0  3  0  0  0  0  0  0
  193.6160  176.3520  137.7590 C   0  0  0  0  0  3  0  0  0  0  0  0
  193.9620  174.8860  137.5800 C   0  0  0  0  0  2  0  0  0  0  0  0
  194.2890  175.5780  138.8810 C   0  0  0  0  0  2  0  0  0  0  0  0
  188.0660  177.0230  138.9180 O   0  0  0  0  0  0  0  0  0  0  0  0
  186.3930  177.7150  137.3420 C   0  0  0  0  0  2  0  0  0  0  0  0
  185.8130  177.7860  138.7370 C   0  0  1  0  0  3  0  0  0  0  0  0
  187.2700  178.1250  138.5050 C   0  0  1  0  0  3  0  0  0  0  0  0
  185.0360  179.0760  138.9210 C   0  0  0  0  0  2  0  0  0  0  0  0
  182.4160  178.7890  143.1590 C   0  0  0  0  0  0  0  0  0  0  0  0
  184.0080  178.8910  145.1060 C   0  0  0  0  0  2  0  0  0  0  0  0
  183.3890  178.8040  140.8630 N   0  0  0  0  0  0  0  0  0  0  0  0
  184.8330  179.0860  142.7780 C   0  0  2  0  0  3  0  0  0  0  0  0
  181.0850  178.7790  142.6550 N   0  0  0  0  0  1  0  0  0  0  0  0
  182.6220  178.9050  144.4810 C   0  0  0  0  0  3  0  0  0  0  0  0
  186.0440  178.7650  141.5050 S   0  0  0  0  0  0  0  0  0  0  0  0
  184.7030  179.3100  140.3970 C   0  0  1  0  0  3  0  0  0  0  0  0
  185.1310  178.4830  144.1340 C   0  0  0  0  0  2  0  0  0  0  0  0
  183.5740  178.4460  142.2640 C   0  0  1  0  0  3  0  0  0  0  0  0
  183.0340  177.5530  140.1900 C   0  0  0  0  0  2  0  0  0  0  0  0
  182.0110  177.7950  139.2740 O   0  0  0  0  0  0  0  0  0  0  0  0
  180.9860  176.9340  139.6640 C   0  0  0  0  0  1  0  0  0  0  0  0
  1  9  1  0  0  0  0
  1 10  1  0  0  0  0
  3  2  1  0  0  0  0
  4  1  2  0  0  0  0
  5 26  1  0  0  0  0
  5  2  2  0  0  0  0
  6  8  2  0  0  0  0
  6  4  1  0  0  0  0
  7  9  2  0  0  0  0
  8  7  1  0  0  0  0
  9  5  1  0  0  0  0
 10  3  2  0  0  0  0
 11 17  1  1  0  0  0
 12 11  1  0  0  0  0
 12 16  1  1  0  0  0
 13 15  1  0  0  0  0
 15 14  1  6  0  0  0
 16 14  1  0  0  0  0
 17 13  1  0  0  0  0
 18  2  1  6  0  0  0
 18 12  1  0  0  0  0
 18 11  1  0  0  0  0
 19 21  1  1  0  0  0
 20 19  1  0  0  0  0
 20 21  1  1  0  0  0
 22 15  1  6  0  0  0
 22 20  1  0  0  0  0
 22 19  1  0  0  0  0
 23 10  1  0  0  0  0
 23 25  1  0  0  0  0
 24 23  1  0  0  0  0
 24 25  1  0  0  0  0
 27 29  1  0  0  0  0
 27 28  1  0  0  0  0
 28 30  1  6  0  0  0
 29 28  1  0  0  0  0
 29 26  1  1  0  0  0
 31 36  2  0  0  0  0
 33 40  1  0  0  0  0
 34 39  1  1  0  0  0
 35 31  1  0  0  0  0
 36 32  1  0  0  0  0
 37 34  1  0  0  0  0
 38 30  1  6  0  0  0
 38 33  1  0  0  0  0
 38 37  1  0  0  0  0
 39 32  1  0  0  0  0
 40 34  1  0  0  0  0
 40 31  1  1  0  0  0
 41 33  1  0  0  0  0
 42 43  1  0  0  0  0
 42 41  1  0  0  0  0
M  END
>  <MODEL>
6

>  <REMARK>
 VINA RESULT:      -8.2      1.910      3.509
  Name = 
  9 active torsions:
  status: ('A' for Active; 'I' for Inactive)
    1  A    between atoms: C_3  and  C_43
    2  A    between atoms: O_4  and  C_11
    3  A    between atoms: O_4  and  C_19
    4  A    between atoms: C_6  and  C_32
    5  A    between atoms: C_12  and  C_16
    6  A    between atoms: C_16  and  C_36
    7  A    between atoms: N_17  and  C_38
    8  A    between atoms: C_29  and  C_30
    9  A    between atoms: O_34  and  C_38
                            x       y       z     vdW  Elec       q    Type
                         _______ _______ _______ _____ _____    ______ ____

>  <TORSDO>
F 9

$$$$
=
 OpenBabel10232410323D

 43 52  0  0  1  0  0  0  0  0999 V2000
  184.2710  178.7410  141.1050 C   0  0  0  0  0  0  0  0  0  0  0  0
  186.7830  178.2090  142.1870 C   0  0  0  0  0  0  0  0  0  0  0  0
  185.6670  178.2150  142.9670 N   0  0  0  0  0  0  0  0  0  0  0  0
  183.0150  179.0040  140.5460 C   0  0  0  0  0  3  0  0  0  0  0  0
  186.6840  178.4920  140.8130 C   0  0  0  0  0  0  0  0  0  0  0  0
  182.9000  179.2900  139.1870 C   0  0  0  0  0  3  0  0  0  0  0  0
  185.2630  179.0520  138.9460 N   0  0  0  0  0  0  0  0  0  0  0  0
  184.0490  179.3130  138.3960 C   0  0  0  0  0  3  0  0  0  0  0  0
  185.4100  178.7560  140.2680 C   0  0  0  0  0  0  0  0  0  0  0  0
  184.4260  178.4780  142.4780 C   0  0  0  0  0  0  0  0  0  0  0  0
  188.5720  176.5120  142.5860 C   0  0  2  0  0  3  0  0  0  0  0  0
  187.9540  176.9110  143.9350 C   0  0  1  0  0  3  0  0  0  0  0  0
  190.8270  175.7970  143.4780 C   0  0  0  0  0  2  0  0  0  0  0  0
  190.2150  177.8010  144.9270 C   0  0  0  0  0  2  0  0  0  0  0  0
  191.2910  176.7670  144.5620 C   0  0  1  0  0  3  0  0  0  0  0  0
  188.8570  177.1510  145.1650 C   0  0  0  0  0  2  0  0  0  0  0  0
  190.0860  176.5450  142.3830 C   0  0  0  0  0  2  0  0  0  0  0  0
  188.1110  177.9480  142.8360 C   0  0  2  0  0  3  0  0  0  0  0  0
  192.3570  176.9120  146.7620 N   0  0  1  0  0  0  0  0  0  0  0  0
  190.9960  176.3640  146.9640 C   0  0  2  0  0  3  0  0  0  0  0  0
  191.9180  176.4510  148.0920 C   0  0  0  0  0  2  0  0  0  0  0  0
  191.7620  175.9850  145.7800 C   0  0  1  0  0  3  0  0  0  0  0  0
  183.2420  178.4260  143.4060 C   0  0  0  0  0  3  0  0  0  0  0  0
  182.9770  179.8070  143.9770 C   0  0  0  0  0  2  0  0  0  0  0  0
  183.6510  178.7610  144.8320 C   0  0  0  0  0  2  0  0  0  0  0  0
  187.8570  178.5120  140.0460 O   0  0  0  0  0  0  0  0  0  0  0  0
  189.3340  178.2500  138.1720 C   0  0  0  0  0  2  0  0  0  0  0  0
  188.6940  176.9150  138.4840 C   0  0  1  0  0  3  0  0  0  0  0  0
  187.9030  178.1930  138.6620 C   0  0  1  0  0  3  0  0  0  0  0  0
  188.2400  176.2350  137.2060 C   0  0  0  0  0  2  0  0  0  0  0  0
  183.4730  174.8760  136.6350 C   0  0  0  0  0  0  0  0  0  0  0  0
  183.2700  172.4110  137.1030 C   0  0  0  0  0  2  0  0  0  0  0  0
  185.7490  175.8910  136.7270 N   0  0  0  0  0  0  0  0  0  0  0  0
  185.4430  173.5750  137.3430 C   0  0  2  0  0  3  0  0  0  0  0  0
  182.8620  176.1330  136.3670 N   0  0  0  0  0  1  0  0  0  0  0  0
  182.7010  173.7970  136.8420 C   0  0  0  0  0  3  0  0  0  0  0  0
  187.2210  173.6360  137.1900 S   0  0  0  0  0  0  0  0  0  0  0  0
  186.9630  175.4230  137.4400 C   0  0  1  0  0  3  0  0  0  0  0  0
  184.7860  172.2990  136.8610 C   0  0  0  0  0  2  0  0  0  0  0  0
  184.9560  174.6950  136.4670 C   0  0  1  0  0  3  0  0  0  0  0  0
  186.0830  176.4240  135.4060 C   0  0  0  0  0  2  0  0  0  0  0  0
  185.9460  177.8120  135.4200 O   0  0  0  0  0  0  0  0  0  0  0  0
  186.7190  178.2490  134.3460 C   0  0  0  0  0  1  0  0  0  0  0  0
  1 10  1  0  0  0  0
  2  3  1  0  0  0  0
  4  1  1  0  0  0  0
  5  2  2  0  0  0  0
  6  4  2  0  0  0  0
  7  9  1  0  0  0  0
  8  7  2  0  0  0  0
  8  6  1  0  0  0  0
  9  5  1  0  0  0  0
  9  1  2  0  0  0  0
 10  3  2  0  0  0  0
 10 23  1  0  0  0  0
 11 17  1  1  0  0  0
 11 18  1  0  0  0  0
 11 12  1  0  0  0  0
 12 16  1  1  0  0  0
 14 16  1  0  0  0  0
 15 13  1  6  0  0  0
 15 14  1  0  0  0  0
 17 13  1  0  0  0  0
 18  2  1  6  0  0  0
 18 12  1  0  0  0  0
 19 20  1  0  0  0  0
 19 21  1  1  0  0  0
 20 21  1  1  0  0  0
 22 15  1  6  0  0  0
 22 19  1  0  0  0  0
 22 20  1  0  0  0  0
 23 24  1  0  0  0  0
 23 25  1  0  0  0  0
 24 25  1  0  0  0  0
 26  5  1  0  0  0  0
 27 28  1  0  0  0  0
 27 29  1  0  0  0  0
 28 30  1  6  0  0  0
 28 29  1  0  0  0  0
 29 26  1  1  0  0  0
 31 36  2  0  0  0  0
 33 38  1  0  0  0  0
 34 39  1  6  0  0  0
 35 31  1  0  0  0  0
 36 32  1  0  0  0  0
 37 34  1  0  0  0  0
 37 38  1  0  0  0  0
 38 30  1  6  0  0  0
 39 32  1  0  0  0  0
 40 31  1  1  0  0  0
 40 33  1  0  0  0  0
 40 34  1  0  0  0  0
 41 42  1  0  0  0  0
 41 33  1  0  0  0  0
 43 42  1  0  0  0  0
M  END
>  <MODEL>
7

>  <REMARK>
 VINA RESULT:      -8.0      2.719      5.424
  Name = 
  9 active torsions:
  status: ('A' for Active; 'I' for Inactive)
    1  A    between atoms: C_3  and  C_43
    2  A    between atoms: O_4  and  C_11
    3  A    between atoms: O_4  and  C_19
    4  A    between atoms: C_6  and  C_32
    5  A    between atoms: C_12  and  C_16
    6  A    between atoms: C_16  and  C_36
    7  A    between atoms: N_17  and  C_38
    8  A    between atoms: C_29  and  C_30
    9  A    between atoms: O_34  and  C_38
                            x       y       z     vdW  Elec       q    Type
                         _______ _______ _______ _____ _____    ______ ____

>  <TORSDO>
F 9

$$$$
=
 OpenBabel10232410323D

 43 52  0  0  1  0  0  0  0  0999 V2000
  186.9790  178.1780  145.5590 C   0  0  0  0  0  0  0  0  0  0  0  0
  187.7810  177.4760  142.9840 C   0  0  0  0  0  0  0  0  0  0  0  0
  188.6840  177.5950  143.9960 N   0  0  0  0  0  0  0  0  0  0  0  0
  186.5600  178.5260  146.8480 C   0  0  0  0  0  3  0  0  0  0  0  0
  186.4180  177.7250  143.2240 C   0  0  0  0  0  0  0  0  0  0  0  0
  185.2130  178.7800  147.1020 C   0  0  0  0  0  3  0  0  0  0  0  0
  184.7090  178.3430  144.8100 N   0  0  0  0  0  0  0  0  0  0  0  0
  184.2940  178.6860  146.0570 C   0  0  0  0  0  3  0  0  0  0  0  0
  186.0150  178.0760  144.5300 C   0  0  0  0  0  0  0  0  0  0  0  0
  188.3330  177.9430  145.2620 C   0  0  0  0  0  0  0  0  0  0  0  0
  189.7200  177.6040  141.4130 C   0  0  2  0  0  3  0  0  0  0  0  0
  188.5430  178.3950  140.8200 C   0  0  1  0  0  3  0  0  0  0  0  0
  190.8730  177.0760  139.2270 C   0  0  0  0  0  2  0  0  0  0  0  0
  188.3960  176.9220  138.6520 C   0  0  0  0  0  2  0  0  0  0  0  0
  189.8370  176.7150  138.1640 C   0  0  1  0  0  3  0  0  0  0  0  0
  188.2080  178.2820  139.3160 C   0  0  0  0  0  2  0  0  0  0  0  0
  190.4440  176.5460  140.5840 C   0  0  0  0  0  2  0  0  0  0  0  0
  188.2810  177.1260  141.6130 C   0  0  2  0  0  3  0  0  0  0  0  0
  190.2260  176.5590  135.7510 N   0  0  1  0  0  0  0  0  0  0  0  0
  189.0070  177.3760  135.9530 C   0  0  2  0  0  3  0  0  0  0  0  0
  189.5570  177.2110  134.6100 C   0  0  0  0  0  2  0  0  0  0  0  0
  190.1220  177.4950  136.8880 C   0  0  1  0  0  3  0  0  0  0  0  0
  189.3950  178.0150  146.3270 C   0  0  0  0  0  3  0  0  0  0  0  0
  190.5000  177.0230  146.0170 C   0  0  0  0  0  2  0  0  0  0  0  0
  189.4900  176.7050  147.0930 C   0  0  0  0  0  2  0  0  0  0  0  0
  185.5190  177.6260  142.1520 O   0  0  0  0  0  0  0  0  0  0  0  0
  184.9100  179.1640  140.4130 C   0  0  0  0  0  2  0  0  0  0  0  0
  183.7830  178.1740  140.6120 C   0  0  1  0  0  3  0  0  0  0  0  0
  184.5940  178.6450  141.8000 C   0  0  1  0  0  3  0  0  0  0  0  0
  182.4460  178.8910  140.6180 C   0  0  0  0  0  2  0  0  0  0  0  0
  181.1570  179.2890  135.8140 C   0  0  0  0  0  0  0  0  0  0  0  0
  180.2220  181.5910  135.4130 C   0  0  0  0  0  2  0  0  0  0  0  0
  181.8170  178.6950  138.1440 N   0  0  0  0  0  0  0  0  0  0  0  0
  181.0860  180.9410  137.6420 C   0  0  2  0  0  3  0  0  0  0  0  0
  181.5970  178.0340  135.3100 N   0  0  0  0  0  1  0  0  0  0  0  0
  180.7380  180.2360  134.9590 C   0  0  0  0  0  3  0  0  0  0  0  0
  181.0180  180.9710  139.4260 S   0  0  0  0  0  0  0  0  0  0  0  0
  182.1860  179.5800  139.2760 C   0  0  1  0  0  3  0  0  0  0  0  0
  179.9820  181.6950  136.9310 C   0  0  0  0  0  2  0  0  0  0  0  0
  180.9420  179.4880  137.2890 C   0  0  1  0  0  3  0  0  0  0  0  0
  180.9960  177.5710  138.5960 C   0  0  0  0  0  2  0  0  0  0  0  0
  181.6960  176.3800  138.4030 O   0  0  0  0  0  0  0  0  0  0  0  0
  180.8330  175.3900  138.8700 C   0  0  0  0  0  1  0  0  0  0  0  0
  1  4  1  0  0  0  0
  2  5  2  0  0  0  0
  2  3  1  0  0  0  0
  3 10  2  0  0  0  0
  4  6  2  0  0  0  0
  5  9  1  0  0  0  0
  7  8  2  0  0  0  0
  8  6  1  0  0  0  0
  9  7  1  0  0  0  0
  9  1  2  0  0  0  0
 10  1  1  0  0  0  0
 10 23  1  0  0  0  0
 11 17  1  6  0  0  0
 11 18  1  0  0  0  0
 12 16  1  6  0  0  0
 12 11  1  0  0  0  0
 12 18  1  0  0  0  0
 13 17  1  0  0  0  0
 14 16  1  0  0  0  0
 15 14  1  1  0  0  0
 15 13  1  0  0  0  0
 18  2  1  1  0  0  0
 19 21  1  6  0  0  0
 19 20  1  0  0  0  0
 19 22  1  0  0  0  0
 20 21  1  6  0  0  0
 20 22  1  0  0  0  0
 22 15  1  1  0  0  0
 23 25  1  0  0  0  0
 24 23  1  0  0  0  0
 24 25  1  0  0  0  0
 26  5  1  0  0  0  0
 27 28  1  0  0  0  0
 27 29  1  0  0  0  0
 28 30  1  1  0  0  0
 28 29  1  0  0  0  0
 29 26  1  6  0  0  0
 32 39  1  0  0  0  0
 33 41  1  0  0  0  0
 33 38  1  0  0  0  0
 34 39  1  6  0  0  0
 34 37  1  0  0  0  0
 35 31  1  0  0  0  0
 36 32  1  0  0  0  0
 36 31  2  0  0  0  0
 38 37  1  0  0  0  0
 38 30  1  1  0  0  0
 40 31  1  6  0  0  0
 40 34  1  0  0  0  0
 40 33  1  0  0  0  0
 42 41  1  0  0  0  0
 42 43  1  0  0  0  0
M  END
>  <MODEL>
8

>  <REMARK>
 VINA RESULT:      -8.0      2.463      6.575
  Name = 
  9 active torsions:
  status: ('A' for Active; 'I' for Inactive)
    1  A    between atoms: C_3  and  C_43
    2  A    between atoms: O_4  and  C_11
    3  A    between atoms: O_4  and  C_19
    4  A    between atoms: C_6  and  C_32
    5  A    between atoms: C_12  and  C_16
    6  A    between atoms: C_16  and  C_36
    7  A    between atoms: N_17  and  C_38
    8  A    between atoms: C_29  and  C_30
    9  A    between atoms: O_34  and  C_38
                            x       y       z     vdW  Elec       q    Type
                         _______ _______ _______ _____ _____    ______ ____

>  <TORSDO>
F 9

$$$$
=
 OpenBabel10232410323D

 43 52  0  0  1  0  0  0  0  0999 V2000
  188.0800  177.5850  146.3310 C   0  0  0  0  0  0  0  0  0  0  0  0
  188.3710  177.2200  143.5840 C   0  0  0  0  0  0  0  0  0  0  0  0
  189.2830  176.7200  144.4610 N   0  0  0  0  0  0  0  0  0  0  0  0
  187.9180  177.7720  147.7080 C   0  0  0  0  0  3  0  0  0  0  0  0
  187.2670  177.9510  144.0560 C   0  0  0  0  0  0  0  0  0  0  0  0
  186.8310  178.4980  148.1920 C   0  0  0  0  0  3  0  0  0  0  0  0
  186.0770  178.8450  145.9540 N   0  0  0  0  0  0  0  0  0  0  0  0
  185.9140  179.0350  147.2890 C   0  0  0  0  0  3  0  0  0  0  0  0
  187.1200  178.1310  145.4480 C   0  0  0  0  0  0  0  0  0  0  0  0
  189.1810  176.8840  145.8070 C   0  0  0  0  0  0  0  0  0  0  0  0
  189.9920  177.5060  141.7030 C   0  0  2  0  0  3  0  0  0  0  0  0
  188.7460  178.3620  141.4230 C   0  0  1  0  0  3  0  0  0  0  0  0
  190.7110  177.2090  139.2980 C   0  0  0  0  0  2  0  0  0  0  0  0
  188.1670  177.1310  139.1780 C   0  0  0  0  0  2  0  0  0  0  0  0
  189.4890  176.9700  138.4140 C   0  0  1  0  0  3  0  0  0  0  0  0
  188.1380  178.4130  140.0040 C   0  0  0  0  0  2  0  0  0  0  0  0
  190.5240  176.5380  140.6480 C   0  0  0  0  0  2  0  0  0  0  0  0
  188.6020  177.0170  142.1140 C   0  0  2  0  0  3  0  0  0  0  0  0
  189.7660  177.0660  135.9820 N   0  0  1  0  0  0  0  0  0  0  0  0
  188.4300  177.6230  136.2990 C   0  0  2  0  0  3  0  0  0  0  0  0
  188.9270  177.6630  134.9270 C   0  0  0  0  0  2  0  0  0  0  0  0
  189.5540  177.8800  137.1950 C   0  0  1  0  0  3  0  0  0  0  0  0
  190.2170  176.2630  146.7050 C   0  0  0  0  0  3  0  0  0  0  0  0
  191.1710  177.3330  147.2030 C   0  0  0  0  0  2  0  0  0  0  0  0
  191.6080  176.3930  146.1060 C   0  0  0  0  0  2  0  0  0  0  0  0
  186.3640  178.4830  143.1230 O   0  0  0  0  0  0  0  0  0  0  0  0
  184.0670  179.1370  143.3550 C   0  0  0  0  0  2  0  0  0  0  0  0
  184.3540  178.8580  141.8970 C   0  0  1  0  0  3  0  0  0  0  0  0
  185.0260  178.0310  142.9710 C   0  0  1  0  0  3  0  0  0  0  0  0
  183.2310  178.0430  141.2840 C   0  0  0  0  0  2  0  0  0  0  0  0
  182.8900  175.1930  137.2020 C   0  0  0  0  0  0  0  0  0  0  0  0
  184.6230  175.9450  135.5390 C   0  0  0  0  0  2  0  0  0  0  0  0
  182.7010  176.4660  139.3370 N   0  0  0  0  0  0  0  0  0  0  0  0
  184.4580  177.0070  137.7710 C   0  0  2  0  0  3  0  0  0  0  0  0
  181.8870  174.2660  137.6010 N   0  0  0  0  0  1  0  0  0  0  0  0
  183.5610  174.9900  136.0560 C   0  0  0  0  0  3  0  0  0  0  0  0
  184.5350  178.4310  138.8460 S   0  0  0  0  0  0  0  0  0  0  0  0
  183.7070  177.3140  140.0240 C   0  0  1  0  0  3  0  0  0  0  0  0
  184.6900  177.2820  136.3010 C   0  0  0  0  0  2  0  0  0  0  0  0
  183.0510  176.5020  137.9220 C   0  0  1  0  0  3  0  0  0  0  0  0
  181.3650  177.0600  139.4170 C   0  0  0  0  0  2  0  0  0  0  0  0
  181.1620  177.8900  138.3150 O   0  0  0  0  0  0  0  0  0  0  0  0
  180.5370  179.0190  138.8410 C   0  0  0  0  0  1  0  0  0  0  0  0
  1  4  1  0  0  0  0
  2  5  2  0  0  0  0
  2  3  1  0  0  0  0
  3 10  2  0  0  0  0
  4  6  2  0  0  0  0
  5  9  1  0  0  0  0
  7  8  2  0  0  0  0
  8  6  1  0  0  0  0
  9  7  1  0  0  0  0
  9  1  2  0  0  0  0
 10  1  1  0  0  0  0
 10 23  1  0  0  0  0
 11 17  1  6  0  0  0
 11 18  1  0  0  0  0
 12 16  1  6  0  0  0
 12 11  1  0  0  0  0
 12 18  1  0  0  0  0
 13 17  1  0  0  0  0
 14 16  1  0  0  0  0
 15 14  1  1  0  0  0
 15 13  1  0  0  0  0
 18  2  1  1  0  0  0
 19 21  1  6  0  0  0
 19 20  1  0  0  0  0
 19 22  1  0  0  0  0
 20 21  1  6  0  0  0
 20 22  1  0  0  0  0
 22 15  1  1  0  0  0
 23 24  1  0  0  0  0
 25 23  1  0  0  0  0
 25 24  1  0  0  0  0
 26  5  1  0  0  0  0
 28 30  1  6  0  0  0
 28 29  1  0  0  0  0
 28 27  1  0  0  0  0
 29 26  1  1  0  0  0
 29 27  1  0  0  0  0
 31 35  1  0  0  0  0
 32 36  1  0  0  0  0
 32 39  1  0  0  0  0
 33 41  1  0  0  0  0
 33 38  1  0  0  0  0
 34 39  1  6  0  0  0
 34 40  1  0  0  0  0
 34 37  1  0  0  0  0
 36 31  2  0  0  0  0
 37 38  1  0  0  0  0
 38 30  1  1  0  0  0
 40 31  1  1  0  0  0
 40 33  1  0  0  0  0
 42 43  1  0  0  0  0
 42 41  1  0  0  0  0
M  END
>  <MODEL>
9

>  <REMARK>
 VINA RESULT:      -7.8      1.826      6.355
  Name = 
  9 active torsions:
  status: ('A' for Active; 'I' for Inactive)
    1  A    between atoms: C_3  and  C_43
    2  A    between atoms: O_4  and  C_11
    3  A    between atoms: O_4  and  C_19
    4  A    between atoms: C_6  and  C_32
    5  A    between atoms: C_12  and  C_16
    6  A    between atoms: C_16  and  C_36
    7  A    between atoms: N_17  and  C_38
    8  A    between atoms: C_29  and  C_30
    9  A    between atoms: O_34  and  C_38
                            x       y       z     vdW  Elec       q    Type
                         _______ _______ _______ _____ _____    ______ ____

>  <TORSDO>
F 9

$$$$
