=
 OpenBabel10232408493D

 25 27  0  0  1  0  0  0  0  0999 V2000
  191.6920  175.5830  144.5400 C   0  0  0  0  0  0  0  0  0  0  0  0
  190.2090  177.3800  144.8130 C   0  0  1  0  0  3  0  0  0  0  0  0
  191.1810  177.2920  146.0000 C   0  0  0  0  0  2  0  0  0  0  0  0
  192.2980  174.5720  144.0960 O   0  0  0  0  0  0  0  0  0  0  0  0
  190.5020  176.1850  143.9000 C   0  0  1  0  0  3  0  0  0  0  0  0
  192.0590  176.2230  145.7020 O   0  0  0  0  0  0  0  0  0  0  0  0
  185.6850  179.6550  147.2230 O   0  0  0  0  0  1  0  0  0  0  0  0
  187.2730  177.9320  148.5080 O   0  0  0  0  0  1  0  0  0  0  0  0
  184.8280  179.3440  144.6020 C   0  0  0  0  0  1  0  0  0  0  0  0
  188.5390  177.7140  146.5320 C   0  0  0  0  0  3  0  0  0  0  0  0
  187.1790  177.6610  147.1420 C   0  0  2  0  0  3  0  0  0  0  0  0
  188.7830  177.3810  145.2640 C   0  0  0  0  0  0  0  0  0  0  0  0
  187.7170  176.9750  144.3170 C   0  0  0  0  0  3  0  0  0  0  0  0
  185.8870  178.4710  145.1830 C   0  0  0  0  0  0  0  0  0  0  0  0
  186.4640  177.4460  144.2880 C   0  0  0  0  0  3  0  0  0  0  0  0
  186.2380  178.6190  146.4730 C   0  0  0  0  0  0  0  0  0  0  0  0
  192.2930  177.5860  140.9190 C   0  0  0  0  0  3  0  0  0  0  0  0
  189.7800  176.5960  141.5470 C   0  0  0  0  0  3  0  0  0  0  0  0
  190.7920  176.6480  142.5080 C   0  0  0  0  0  0  0  0  0  0  0  0
  192.0190  177.1420  142.1750 N   0  0  0  0  0  0  0  0  0  0  0  0
  190.0420  177.0420  140.2500 C   0  0  0  0  0  0  0  0  0  0  0  0
  191.3060  177.5450  139.9310 C   0  0  0  0  0  3  0  0  0  0  0  0
  188.9690  177.0110  139.2180 C   0  0  0  0  0  2  0  0  0  0  0  0
  188.5330  178.4220  138.8750 C   0  0  0  0  0  2  0  0  0  0  0  0
  188.9180  178.7360  137.4460 C   0  0  0  0  0  1  0  0  0  0  0  0
  1  6  1  0  0  0  0
  2 12  1  1  0  0  0
  2  3  1  0  0  0  0
  4  1  2  0  0  0  0
  5 19  1  6  0  0  0
  5  1  1  0  0  0  0
  5  2  1  0  0  0  0
  6  3  1  0  0  0  0
  9 14  1  0  0  0  0
 10 11  1  0  0  0  0
 11  8  1  1  0  0  0
 12 10  2  0  0  0  0
 13 12  1  0  0  0  0
 14 16  2  0  0  0  0
 15 13  2  0  0  0  0
 15 14  1  0  0  0  0
 16 11  1  0  0  0  0
 16  7  1  0  0  0  0
 17 20  1  0  0  0  0
 18 19  1  0  0  0  0
 20 19  2  0  0  0  0
 21 18  2  0  0  0  0
 22 21  1  0  0  0  0
 22 17  2  0  0  0  0
 23 21  1  0  0  0  0
 24 23  1  0  0  0  0
 25 24  1  0  0  0  0
M  END
>  <MODEL>
1

>  <REMARK>
 VINA RESULT:      -8.9      0.000      0.000
  Name = 
  4 active torsions:
  status: ('A' for Active; 'I' for Inactive)
    1  A    between atoms: C_4  and  C_14
    2  A    between atoms: C_6  and  C_24
    3  A    between atoms: C_7  and  C_17
    4  A    between atoms: C_21  and  C_24
                            x       y       z     vdW  Elec       q    Type
                         _______ _______ _______ _____ _____    ______ ____

>  <TORSDO>
F 4

$$$$
=
 OpenBabel10232408493D

 25 27  0  0  1  0  0  0  0  0999 V2000
  190.5180  176.8670  141.2430 C   0  0  0  0  0  0  0  0  0  0  0  0
  190.1070  177.9390  143.2900 C   0  0  1  0  0  3  0  0  0  0  0  0
  191.5610  178.1620  142.8410 C   0  0  0  0  0  2  0  0  0  0  0  0
  190.3980  176.1950  140.1850 O   0  0  0  0  0  0  0  0  0  0  0  0
  189.4580  177.0030  142.2660 C   0  0  1  0  0  3  0  0  0  0  0  0
  191.6760  177.5310  141.5790 O   0  0  0  0  0  0  0  0  0  0  0  0
  191.5430  177.6350  148.7030 O   0  0  0  0  0  1  0  0  0  0  0  0
  192.5790  176.0030  146.8570 O   0  0  0  0  0  1  0  0  0  0  0  0
  188.8560  178.3080  148.8710 C   0  0  0  0  0  1  0  0  0  0  0  0
  191.1850  177.0240  145.2540 C   0  0  0  0  0  3  0  0  0  0  0  0
  191.2560  176.3520  146.5840 C   0  0  2  0  0  3  0  0  0  0  0  0
  190.0370  177.3660  144.6700 C   0  0  0  0  0  0  0  0  0  0  0  0
  188.7140  177.1600  145.3070 C   0  0  0  0  0  3  0  0  0  0  0  0
  189.4030  177.5780  147.6920 C   0  0  0  0  0  0  0  0  0  0  0  0
  188.4450  177.2480  146.6160 C   0  0  0  0  0  3  0  0  0  0  0  0
  190.7010  177.2240  147.6710 C   0  0  0  0  0  0  0  0  0  0  0  0
  187.0080  178.4980  139.8530 C   0  0  0  0  0  3  0  0  0  0  0  0
  187.1580  177.9250  142.5620 C   0  0  0  0  0  3  0  0  0  0  0  0
  188.2170  177.6220  141.7040 C   0  0  0  0  0  0  0  0  0  0  0  0
  188.1200  177.9160  140.3760 N   0  0  0  0  0  0  0  0  0  0  0  0
  186.0040  178.5180  142.0440 C   0  0  0  0  0  0  0  0  0  0  0  0
  185.9260  178.8110  140.6800 C   0  0  0  0  0  3  0  0  0  0  0  0
  184.8720  178.8650  142.9470 C   0  0  0  0  0  2  0  0  0  0  0  0
  185.2060  178.4800  144.3750 C   0  0  0  0  0  2  0  0  0  0  0  0
  184.0450  178.8350  145.2780 C   0  0  0  0  0  1  0  0  0  0  0  0
  1  6  1  0  0  0  0
  1  5  1  0  0  0  0
  2 12  1  1  0  0  0
  3  2  1  0  0  0  0
  4  1  2  0  0  0  0
  5 19  1  6  0  0  0
  5  2  1  0  0  0  0
  6  3  1  0  0  0  0
 10 11  1  0  0  0  0
 11  8  1  1  0  0  0
 11 16  1  0  0  0  0
 12 10  2  0  0  0  0
 12 13  1  0  0  0  0
 13 15  2  0  0  0  0
 14  9  1  0  0  0  0
 15 14  1  0  0  0  0
 16 14  2  0  0  0  0
 16  7  1  0  0  0  0
 17 20  2  0  0  0  0
 17 22  1  0  0  0  0
 19 18  2  0  0  0  0
 20 19  1  0  0  0  0
 21 18  1  0  0  0  0
 21 23  1  0  0  0  0
 22 21  2  0  0  0  0
 23 24  1  0  0  0  0
 24 25  1  0  0  0  0
M  END
>  <MODEL>
2

>  <REMARK>
 VINA RESULT:      -8.9      2.359      4.678
  Name = 
  4 active torsions:
  status: ('A' for Active; 'I' for Inactive)
    1  A    between atoms: C_4  and  C_14
    2  A    between atoms: C_6  and  C_24
    3  A    between atoms: C_7  and  C_17
    4  A    between atoms: C_21  and  C_24
                            x       y       z     vdW  Elec       q    Type
                         _______ _______ _______ _____ _____    ______ ____

>  <TORSDO>
F 4

$$$$
=
 OpenBabel10232408493D

 25 27  0  0  1  0  0  0  0  0999 V2000
  191.3030  176.7890  145.0740 C   0  0  0  0  0  0  0  0  0  0  0  0
  189.7490  176.5040  143.3390 C   0  0  1  0  0  3  0  0  0  0  0  0
  190.7960  175.3770  143.3230 C   0  0  0  0  0  2  0  0  0  0  0  0
  191.9390  177.2320  146.0670 O   0  0  0  0  0  0  0  0  0  0  0  0
  190.1540  177.4800  144.4480 C   0  0  1  0  0  3  0  0  0  0  0  0
  191.6350  175.6150  144.4380 O   0  0  0  0  0  0  0  0  0  0  0  0
  189.2500  176.6530  137.7550 O   0  0  0  0  0  1  0  0  0  0  0  0
  191.6120  176.8760  138.9840 O   0  0  0  0  0  1  0  0  0  0  0  0
  186.9340  177.9520  138.5620 C   0  0  0  0  0  1  0  0  0  0  0  0
  190.4830  176.7830  141.0500 C   0  0  0  0  0  3  0  0  0  0  0  0
  190.5700  177.4450  139.7160 C   0  0  2  0  0  3  0  0  0  0  0  0
  189.6590  177.1930  142.0150 C   0  0  0  0  0  0  0  0  0  0  0  0
  188.7090  178.3180  141.8420 C   0  0  0  0  0  3  0  0  0  0  0  0
  188.1560  177.9390  139.4150 C   0  0  0  0  0  0  0  0  0  0  0  0
  188.0630  178.6400  140.7130 C   0  0  0  0  0  3  0  0  0  0  0  0
  189.2750  177.3430  138.9650 C   0  0  0  0  0  0  0  0  0  0  0  0
  188.2120  177.7230  147.6460 C   0  0  0  0  0  3  0  0  0  0  0  0
  187.7470  177.9350  144.9210 C   0  0  0  0  0  3  0  0  0  0  0  0
  189.0270  177.6730  145.4130 C   0  0  0  0  0  0  0  0  0  0  0  0
  189.2300  177.5700  146.7570 N   0  0  0  0  0  0  0  0  0  0  0  0
  186.6880  178.1000  145.8170 C   0  0  0  0  0  0  0  0  0  0  0  0
  186.9180  177.9910  147.1910 C   0  0  0  0  0  3  0  0  0  0  0  0
  185.3130  178.3620  145.3100 C   0  0  0  0  0  2  0  0  0  0  0  0
  185.3030  178.3440  143.7940 C   0  0  0  0  0  2  0  0  0  0  0  0
  183.9250  178.7170  143.2930 C   0  0  0  0  0  1  0  0  0  0  0  0
  1  4  2  0  0  0  0
  2 12  1  6  0  0  0
  2  5  1  0  0  0  0
  3  2  1  0  0  0  0
  3  6  1  0  0  0  0
  5  1  1  0  0  0  0
  5 19  1  1  0  0  0
  6  1  1  0  0  0  0
  7 16  1  0  0  0  0
  9 14  1  0  0  0  0
 10 12  2  0  0  0  0
 11  8  1  6  0  0  0
 11 10  1  0  0  0  0
 13 12  1  0  0  0  0
 14 15  1  0  0  0  0
 15 13  2  0  0  0  0
 16 14  2  0  0  0  0
 16 11  1  0  0  0  0
 18 19  2  0  0  0  0
 18 21  1  0  0  0  0
 19 20  1  0  0  0  0
 20 17  2  0  0  0  0
 21 22  2  0  0  0  0
 22 17  1  0  0  0  0
 23 21  1  0  0  0  0
 24 23  1  0  0  0  0
 25 24  1  0  0  0  0
M  END
>  <MODEL>
3

>  <REMARK>
 VINA RESULT:      -8.8      2.396      6.076
  Name = 
  4 active torsions:
  status: ('A' for Active; 'I' for Inactive)
    1  A    between atoms: C_4  and  C_14
    2  A    between atoms: C_6  and  C_24
    3  A    between atoms: C_7  and  C_17
    4  A    between atoms: C_21  and  C_24
                            x       y       z     vdW  Elec       q    Type
                         _______ _______ _______ _____ _____    ______ ____

>  <TORSDO>
F 4

$$$$
=
 OpenBabel10232408493D

 25 27  0  0  1  0  0  0  0  0999 V2000
  191.5010  175.9240  144.1980 C   0  0  0  0  0  0  0  0  0  0  0  0
  189.9260  177.6320  144.5310 C   0  0  1  0  0  3  0  0  0  0  0  0
  191.0290  177.6930  145.6000 C   0  0  0  0  0  2  0  0  0  0  0  0
  192.1280  174.9290  143.7500 O   0  0  0  0  0  0  0  0  0  0  0  0
  190.2050  176.3980  143.6660 C   0  0  1  0  0  3  0  0  0  0  0  0
  191.9470  176.6670  145.2680 O   0  0  0  0  0  0  0  0  0  0  0  0
  185.6150  179.6980  147.4630 O   0  0  0  0  0  1  0  0  0  0  0  0
  187.4170  178.0470  148.5440 O   0  0  0  0  0  1  0  0  0  0  0  0
  184.4750  179.3490  144.9560 C   0  0  0  0  0  1  0  0  0  0  0  0
  188.4550  177.8880  146.4340 C   0  0  0  0  0  3  0  0  0  0  0  0
  187.1780  177.7730  147.1980 C   0  0  2  0  0  3  0  0  0  0  0  0
  188.5640  177.5680  145.1450 C   0  0  0  0  0  0  0  0  0  0  0  0
  187.4150  177.1140  144.3250 C   0  0  0  0  0  3  0  0  0  0  0  0
  185.6330  178.5250  145.4060 C   0  0  0  0  0  0  0  0  0  0  0  0
  186.1470  177.5270  144.4440 C   0  0  0  0  0  3  0  0  0  0  0  0
  186.1230  178.6880  146.6470 C   0  0  0  0  0  0  0  0  0  0  0  0
  189.2520  177.3240  140.1590 C   0  0  0  0  0  3  0  0  0  0  0  0
  191.5620  176.8960  141.6320 C   0  0  0  0  0  3  0  0  0  0  0  0
  190.3020  176.7820  142.2230 C   0  0  0  0  0  0  0  0  0  0  0  0
  189.1810  176.9940  141.4770 N   0  0  0  0  0  0  0  0  0  0  0  0
  191.6570  177.2390  140.2810 C   0  0  0  0  0  0  0  0  0  0  0  0
  190.4950  177.4520  139.5350 C   0  0  0  0  0  3  0  0  0  0  0  0
  192.9920  177.3470  139.6300 C   0  0  0  0  0  2  0  0  0  0  0  0
  192.9270  176.8110  138.2130 C   0  0  0  0  0  2  0  0  0  0  0  0
  193.6480  175.4820  138.1440 C   0  0  0  0  0  1  0  0  0  0  0  0
  1  6  1  0  0  0  0
  2 12  1  1  0  0  0
  2  3  1  0  0  0  0
  4  1  2  0  0  0  0
  5 19  1  6  0  0  0
  5  1  1  0  0  0  0
  5  2  1  0  0  0  0
  6  3  1  0  0  0  0
  9 14  1  0  0  0  0
 10 11  1  0  0  0  0
 11  8  1  1  0  0  0
 12 10  2  0  0  0  0
 13 15  2  0  0  0  0
 13 12  1  0  0  0  0
 14 16  2  0  0  0  0
 15 14  1  0  0  0  0
 16 11  1  0  0  0  0
 16  7  1  0  0  0  0
 17 20  1  0  0  0  0
 18 19  1  0  0  0  0
 20 19  2  0  0  0  0
 21 18  2  0  0  0  0
 22 17  2  0  0  0  0
 22 21  1  0  0  0  0
 23 21  1  0  0  0  0
 24 23  1  0  0  0  0
 25 24  1  0  0  0  0
M  END
>  <MODEL>
4

>  <REMARK>
 VINA RESULT:      -8.3      1.201      2.004
  Name = 
  4 active torsions:
  status: ('A' for Active; 'I' for Inactive)
    1  A    between atoms: C_4  and  C_14
    2  A    between atoms: C_6  and  C_24
    3  A    between atoms: C_7  and  C_17
    4  A    between atoms: C_21  and  C_24
                            x       y       z     vdW  Elec       q    Type
                         _______ _______ _______ _____ _____    ______ ____

>  <TORSDO>
F 4

$$$$
=
 OpenBabel10232408493D

 25 27  0  0  1  0  0  0  0  0999 V2000
  191.6720  177.5900  142.3080 C   0  0  0  0  0  0  0  0  0  0  0  0
  189.7020  178.3860  143.3040 C   0  0  1  0  0  3  0  0  0  0  0  0
  190.9250  179.1610  143.8220 C   0  0  0  0  0  2  0  0  0  0  0  0
  192.5000  176.9410  141.6160 O   0  0  0  0  0  0  0  0  0  0  0  0
  190.2250  177.2890  142.3720 C   0  0  1  0  0  3  0  0  0  0  0  0
  192.0380  178.6440  143.1150 O   0  0  0  0  0  0  0  0  0  0  0  0
  187.5530  178.3760  148.4850 O   0  0  0  0  0  1  0  0  0  0  0  0
  189.7540  176.9990  147.8490 O   0  0  0  0  0  1  0  0  0  0  0  0
  185.2600  178.4750  146.9240 C   0  0  0  0  0  1  0  0  0  0  0  0
  189.4870  177.7120  145.6180 C   0  0  0  0  0  3  0  0  0  0  0  0
  188.8400  177.0660  146.7970 C   0  0  2  0  0  3  0  0  0  0  0  0
  188.8990  177.8080  144.4250 C   0  0  0  0  0  0  0  0  0  0  0  0
  187.5200  177.3300  144.1640 C   0  0  0  0  0  3  0  0  0  0  0  0
  186.5260  177.8780  146.4110 C   0  0  0  0  0  0  0  0  0  0  0  0
  186.4970  177.3570  145.0270 C   0  0  0  0  0  3  0  0  0  0  0  0
  187.6000  177.8010  147.2150 C   0  0  0  0  0  0  0  0  0  0  0  0
  187.9000  178.3110  139.6140 C   0  0  0  0  0  3  0  0  0  0  0  0
  190.0500  176.5990  139.9800 C   0  0  0  0  0  3  0  0  0  0  0  0
  189.5750  177.3900  141.0280 C   0  0  0  0  0  0  0  0  0  0  0  0
  188.5150  178.2220  140.8240 N   0  0  0  0  0  0  0  0  0  0  0  0
  189.4360  176.6790  138.7280 C   0  0  0  0  0  0  0  0  0  0  0  0
  188.3500  177.5380  138.5410 C   0  0  0  0  0  3  0  0  0  0  0  0
  189.9170  175.8290  137.6040 C   0  0  0  0  0  2  0  0  0  0  0  0
  191.0160  176.5430  136.8420 C   0  0  0  0  0  2  0  0  0  0  0  0
  192.3510  175.9090  137.1690 C   0  0  0  0  0  1  0  0  0  0  0  0
  1  5  1  0  0  0  0
  1  6  1  0  0  0  0
  2  3  1  0  0  0  0
  2 12  1  1  0  0  0
  4  1  2  0  0  0  0
  5 19  1  6  0  0  0
  5  2  1  0  0  0  0
  6  3  1  0  0  0  0
 10 11  1  0  0  0  0
 11 16  1  0  0  0  0
 11  8  1  1  0  0  0
 12 10  2  0  0  0  0
 13 12  1  0  0  0  0
 13 15  2  0  0  0  0
 14  9  1  0  0  0  0
 14 16  2  0  0  0  0
 15 14  1  0  0  0  0
 16  7  1  0  0  0  0
 17 20  1  0  0  0  0
 18 19  1  0  0  0  0
 20 19  2  0  0  0  0
 21 18  2  0  0  0  0
 22 21  1  0  0  0  0
 22 17  2  0  0  0  0
 23 21  1  0  0  0  0
 24 25  1  0  0  0  0
 24 23  1  0  0  0  0
M  END
>  <MODEL>
5

>  <REMARK>
 VINA RESULT:      -8.0      1.924      2.660
  Name = 
  4 active torsions:
  status: ('A' for Active; 'I' for Inactive)
    1  A    between atoms: C_4  and  C_14
    2  A    between atoms: C_6  and  C_24
    3  A    between atoms: C_7  and  C_17
    4  A    between atoms: C_21  and  C_24
                            x       y       z     vdW  Elec       q    Type
                         _______ _______ _______ _____ _____    ______ ____

>  <TORSDO>
F 4

$$$$
=
 OpenBabel10232408493D

 25 27  0  0  1  0  0  0  0  0999 V2000
  184.6480  178.3080  141.8790 C   0  0  0  0  0  0  0  0  0  0  0  0
  186.9380  178.5760  142.3120 C   0  0  1  0  0  3  0  0  0  0  0  0
  186.5230  179.3760  141.0660 C   0  0  0  0  0  2  0  0  0  0  0  0
  183.4410  177.9540  141.9330 O   0  0  0  0  0  0  0  0  0  0  0  0
  185.7030  177.8020  142.7830 C   0  0  1  0  0  3  0  0  0  0  0  0
  185.1250  179.1920  140.9380 O   0  0  0  0  0  0  0  0  0  0  0  0
  192.3310  177.3720  141.3510 O   0  0  0  0  0  1  0  0  0  0  0  0
  190.5480  177.6170  139.3750 O   0  0  0  0  0  1  0  0  0  0  0  0
  191.8650  176.0100  143.7230 C   0  0  0  0  0  1  0  0  0  0  0  0
  188.8780  177.9650  141.0010 C   0  0  0  0  0  3  0  0  0  0  0  0
  189.9910  177.0860  140.5380 C   0  0  2  0  0  3  0  0  0  0  0  0
  188.0790  177.6540  142.0220 C   0  0  0  0  0  0  0  0  0  0  0  0
  188.2480  176.4250  142.8340 C   0  0  0  0  0  3  0  0  0  0  0  0
  190.7620  176.3010  142.7630 C   0  0  0  0  0  0  0  0  0  0  0  0
  189.4110  175.8400  143.1500 C   0  0  0  0  0  3  0  0  0  0  0  0
  191.0370  176.9170  141.6010 C   0  0  0  0  0  0  0  0  0  0  0  0
  183.9160  178.9260  145.8820 C   0  0  0  0  0  3  0  0  0  0  0  0
  186.3970  177.9070  145.1780 C   0  0  0  0  0  3  0  0  0  0  0  0
  185.4060  178.1130  144.2160 C   0  0  0  0  0  0  0  0  0  0  0  0
  184.1950  178.6180  144.5870 N   0  0  0  0  0  0  0  0  0  0  0  0
  186.1290  178.2110  146.5150 C   0  0  0  0  0  0  0  0  0  0  0  0
  184.8810  178.7280  146.8730 C   0  0  0  0  0  3  0  0  0  0  0  0
  187.1800  178.0150  147.5510 C   0  0  0  0  0  2  0  0  0  0  0  0
  188.5520  177.9920  146.9060 C   0  0  0  0  0  2  0  0  0  0  0  0
  189.2920  176.7440  147.3380 C   0  0  0  0  0  1  0  0  0  0  0  0
  1  4  2  0  0  0  0
  1  5  1  0  0  0  0
  2 12  1  6  0  0  0
  2  5  1  0  0  0  0
  3  2  1  0  0  0  0
  5 19  1  1  0  0  0
  6  3  1  0  0  0  0
  6  1  1  0  0  0  0
  7 16  1  0  0  0  0
 10 12  2  0  0  0  0
 11  8  1  6  0  0  0
 11 10  1  0  0  0  0
 11 16  1  0  0  0  0
 12 13  1  0  0  0  0
 13 15  2  0  0  0  0
 14 15  1  0  0  0  0
 14  9  1  0  0  0  0
 16 14  2  0  0  0  0
 17 22  1  0  0  0  0
 18 21  1  0  0  0  0
 19 20  1  0  0  0  0
 19 18  2  0  0  0  0
 20 17  2  0  0  0  0
 21 22  2  0  0  0  0
 21 23  1  0  0  0  0
 24 25  1  0  0  0  0
 24 23  1  0  0  0  0
M  END
>  <MODEL>
6

>  <REMARK>
 VINA RESULT:      -7.9      3.161      7.429
  Name = 
  4 active torsions:
  status: ('A' for Active; 'I' for Inactive)
    1  A    between atoms: C_4  and  C_14
    2  A    between atoms: C_6  and  C_24
    3  A    between atoms: C_7  and  C_17
    4  A    between atoms: C_21  and  C_24
                            x       y       z     vdW  Elec       q    Type
                         _______ _______ _______ _____ _____    ______ ____

>  <TORSDO>
F 4

$$$$
=
 OpenBabel10232408493D

 25 27  0  0  1  0  0  0  0  0999 V2000
  186.0600  178.6070  146.3400 C   0  0  0  0  0  0  0  0  0  0  0  0
  186.9270  177.5550  144.4310 C   0  0  1  0  0  3  0  0  0  0  0  0
  187.3670  176.8170  145.7060 C   0  0  0  0  0  2  0  0  0  0  0  0
  185.4600  179.3940  147.1200 O   0  0  0  0  0  0  0  0  0  0  0  0
  186.1390  178.7910  144.8750 C   0  0  1  0  0  3  0  0  0  0  0  0
  186.7410  177.4950  146.7800 O   0  0  0  0  0  0  0  0  0  0  0  0
  192.0960  176.8610  142.3670 O   0  0  0  0  0  1  0  0  0  0  0  0
  191.5760  178.5380  144.3830 O   0  0  0  0  0  1  0  0  0  0  0  0
  190.5410  176.6280  140.0800 C   0  0  0  0  0  1  0  0  0  0  0  0
  189.2920  177.9950  144.1700 C   0  0  0  0  0  3  0  0  0  0  0  0
  190.5260  178.4550  143.4680 C   0  0  2  0  0  3  0  0  0  0  0  0
  188.0980  177.9340  143.5810 C   0  0  0  0  0  0  0  0  0  0  0  0
  187.8840  178.2670  142.1520 C   0  0  0  0  0  3  0  0  0  0  0  0
  190.0780  177.4130  141.2600 C   0  0  0  0  0  0  0  0  0  0  0  0
  188.7450  178.0440  141.1510 C   0  0  0  0  0  3  0  0  0  0  0  0
  190.8820  177.5450  142.3290 C   0  0  0  0  0  0  0  0  0  0  0  0
  182.4140  178.8430  144.4420 C   0  0  0  0  0  3  0  0  0  0  0  0
  184.6820  178.7330  142.8490 C   0  0  0  0  0  3  0  0  0  0  0  0
  184.7840  178.8020  144.2400 C   0  0  0  0  0  0  0  0  0  0  0  0
  183.6540  178.8530  145.0020 N   0  0  0  0  0  0  0  0  0  0  0  0
  183.4180  178.7270  142.2540 C   0  0  0  0  0  0  0  0  0  0  0  0
  182.2740  178.7790  143.0530 C   0  0  0  0  0  3  0  0  0  0  0  0
  183.2900  178.6350  140.7730 C   0  0  0  0  0  2  0  0  0  0  0  0
  184.5980  179.0230  140.1110 C   0  0  0  0  0  2  0  0  0  0  0  0
  184.5870  178.5680  138.6680 C   0  0  0  0  0  1  0  0  0  0  0  0
  1  6  1  0  0  0  0
  1  4  2  0  0  0  0
  2 12  1  1  0  0  0
  2  5  1  0  0  0  0
  2  3  1  0  0  0  0
  3  6  1  0  0  0  0
  5 19  1  6  0  0  0
  5  1  1  0  0  0  0
  9 14  1  0  0  0  0
 11 10  1  0  0  0  0
 11  8  1  1  0  0  0
 12 10  2  0  0  0  0
 13 12  1  0  0  0  0
 14 16  2  0  0  0  0
 15 14  1  0  0  0  0
 15 13  2  0  0  0  0
 16  7  1  0  0  0  0
 16 11  1  0  0  0  0
 17 20  1  0  0  0  0
 18 19  1  0  0  0  0
 19 20  2  0  0  0  0
 21 18  2  0  0  0  0
 21 22  1  0  0  0  0
 22 17  2  0  0  0  0
 23 21  1  0  0  0  0
 24 23  1  0  0  0  0
 25 24  1  0  0  0  0
M  END
>  <MODEL>
7

>  <REMARK>
 VINA RESULT:      -7.8      2.818      6.305
  Name = 
  4 active torsions:
  status: ('A' for Active; 'I' for Inactive)
    1  A    between atoms: C_4  and  C_14
    2  A    between atoms: C_6  and  C_24
    3  A    between atoms: C_7  and  C_17
    4  A    between atoms: C_21  and  C_24
                            x       y       z     vdW  Elec       q    Type
                         _______ _______ _______ _____ _____    ______ ____

>  <TORSDO>
F 4

$$$$
=
 OpenBabel10232408493D

 25 27  0  0  1  0  0  0  0  0999 V2000
  185.8860  178.9180  141.6620 C   0  0  0  0  0  0  0  0  0  0  0  0
  187.3590  177.4830  142.7920 C   0  0  1  0  0  3  0  0  0  0  0  0
  185.9100  177.2450  143.2490 C   0  0  0  0  0  2  0  0  0  0  0  0
  185.3990  179.8020  140.9080 O   0  0  0  0  0  0  0  0  0  0  0  0
  187.3350  178.6570  141.8080 C   0  0  1  0  0  3  0  0  0  0  0  0
  185.1110  178.1130  142.4650 O   0  0  0  0  0  0  0  0  0  0  0  0
  189.6800  176.3440  147.7690 O   0  0  0  0  0  1  0  0  0  0  0  0
  187.6350  178.0440  147.5020 O   0  0  0  0  0  1  0  0  0  0  0  0
  191.8880  176.2710  146.0880 C   0  0  0  0  0  1  0  0  0  0  0  0
  187.7360  177.7110  145.1710 C   0  0  0  0  0  3  0  0  0  0  0  0
  188.4970  178.0640  146.4050 C   0  0  2  0  0  3  0  0  0  0  0  0
  188.2650  177.7630  143.9480 C   0  0  0  0  0  0  0  0  0  0  0  0
  189.6800  178.1260  143.6950 C   0  0  0  0  0  3  0  0  0  0  0  0
  190.6840  177.0850  145.7560 C   0  0  0  0  0  0  0  0  0  0  0  0
  190.7240  177.8340  144.4820 C   0  0  0  0  0  3  0  0  0  0  0  0
  189.6550  177.1350  146.6210 C   0  0  0  0  0  0  0  0  0  0  0  0
  187.8320  178.0160  138.1470 C   0  0  0  0  0  3  0  0  0  0  0  0
  189.2580  177.7400  140.5100 C   0  0  0  0  0  3  0  0  0  0  0  0
  187.9640  178.2640  140.5090 C   0  0  0  0  0  0  0  0  0  0  0  0
  187.2820  178.3880  139.3340 N   0  0  0  0  0  0  0  0  0  0  0  0
  189.8430  177.3570  139.3000 C   0  0  0  0  0  0  0  0  0  0  0  0
  189.1270  177.4920  138.1090 C   0  0  0  0  0  3  0  0  0  0  0  0
  191.2160  176.7780  139.2850 C   0  0  0  0  0  2  0  0  0  0  0  0
  191.6440  176.4890  137.8590 C   0  0  0  0  0  2  0  0  0  0  0  0
  193.1540  176.4140  137.7920 C   0  0  0  0  0  1  0  0  0  0  0  0
  1  5  1  0  0  0  0
  1  6  1  0  0  0  0
  2  3  1  0  0  0  0
  2 12  1  1  0  0  0
  4  1  2  0  0  0  0
  5 19  1  6  0  0  0
  5  2  1  0  0  0  0
  6  3  1  0  0  0  0
 10 11  1  0  0  0  0
 11 16  1  0  0  0  0
 11  8  1  1  0  0  0
 12 10  2  0  0  0  0
 13 12  1  0  0  0  0
 13 15  2  0  0  0  0
 14  9  1  0  0  0  0
 14 16  2  0  0  0  0
 15 14  1  0  0  0  0
 16  7  1  0  0  0  0
 17 20  1  0  0  0  0
 19 18  1  0  0  0  0
 20 19  2  0  0  0  0
 21 18  2  0  0  0  0
 22 17  2  0  0  0  0
 22 21  1  0  0  0  0
 23 21  1  0  0  0  0
 24 23  1  0  0  0  0
 25 24  1  0  0  0  0
M  END
>  <MODEL>
8

>  <REMARK>
 VINA RESULT:      -7.8      2.541      4.724
  Name = 
  4 active torsions:
  status: ('A' for Active; 'I' for Inactive)
    1  A    between atoms: C_4  and  C_14
    2  A    between atoms: C_6  and  C_24
    3  A    between atoms: C_7  and  C_17
    4  A    between atoms: C_21  and  C_24
                            x       y       z     vdW  Elec       q    Type
                         _______ _______ _______ _____ _____    ______ ____

>  <TORSDO>
F 4

$$$$
=
 OpenBabel10232408493D

 25 27  0  0  1  0  0  0  0  0999 V2000
  186.1380  178.2350  146.4440 C   0  0  0  0  0  0  0  0  0  0  0  0
  185.5060  178.9300  144.2940 C   0  0  1  0  0  3  0  0  0  0  0  0
  185.1990  180.0230  145.3310 C   0  0  0  0  0  2  0  0  0  0  0  0
  186.5690  177.5670  147.4200 O   0  0  0  0  0  0  0  0  0  0  0  0
  186.0430  177.7170  145.0610 C   0  0  1  0  0  3  0  0  0  0  0  0
  185.6740  179.5240  146.5680 O   0  0  0  0  0  0  0  0  0  0  0  0
  180.5650  180.0070  141.8700 O   0  0  0  0  0  1  0  0  0  0  0  0
  180.7580  178.7740  144.2330 O   0  0  0  0  0  1  0  0  0  0  0  0
  182.1580  179.4400  139.6700 C   0  0  0  0  0  1  0  0  0  0  0  0
  183.1030  178.8530  144.0200 C   0  0  0  0  0  3  0  0  0  0  0  0
  181.8150  178.4630  143.3770 C   0  0  2  0  0  3  0  0  0  0  0  0
  184.2950  178.5720  143.4920 C   0  0  0  0  0  0  0  0  0  0  0  0
  184.4600  177.8880  142.1870 C   0  0  0  0  0  3  0  0  0  0  0  0
  182.4630  178.8790  141.0170 C   0  0  0  0  0  0  0  0  0  0  0  0
  183.6620  178.0200  141.1190 C   0  0  0  0  0  3  0  0  0  0  0  0
  181.6370  179.1350  142.0470 C   0  0  0  0  0  0  0  0  0  0  0  0
  188.6920  176.2680  142.8380 C   0  0  0  0  0  3  0  0  0  0  0  0
  188.5240  177.5690  145.2810 C   0  0  0  0  0  3  0  0  0  0  0  0
  187.3790  177.3080  144.5260 C   0  0  0  0  0  0  0  0  0  0  0  0
  187.4870  176.6650  143.3290 N   0  0  0  0  0  0  0  0  0  0  0  0
  189.7720  177.1750  144.7930 C   0  0  0  0  0  0  0  0  0  0  0  0
  189.8600  176.5160  143.5640 C   0  0  0  0  0  3  0  0  0  0  0  0
  191.0020  177.4280  145.5930 C   0  0  0  0  0  2  0  0  0  0  0  0
  190.9230  176.6960  146.9180 C   0  0  0  0  0  2  0  0  0  0  0  0
  192.1240  175.7860  147.0640 C   0  0  0  0  0  1  0  0  0  0  0  0
  1  6  1  0  0  0  0
  1  4  2  0  0  0  0
  2 12  1  1  0  0  0
  2  5  1  0  0  0  0
  2  3  1  0  0  0  0
  3  6  1  0  0  0  0
  5 19  1  6  0  0  0
  5  1  1  0  0  0  0
  7 16  1  0  0  0  0
  9 14  1  0  0  0  0
 11 10  1  0  0  0  0
 11  8  1  1  0  0  0
 12 10  2  0  0  0  0
 13 12  1  0  0  0  0
 14 15  1  0  0  0  0
 14 16  2  0  0  0  0
 15 13  2  0  0  0  0
 16 11  1  0  0  0  0
 17 20  2  0  0  0  0
 17 22  1  0  0  0  0
 19 18  2  0  0  0  0
 20 19  1  0  0  0  0
 21 18  1  0  0  0  0
 21 23  1  0  0  0  0
 22 21  2  0  0  0  0
 23 24  1  0  0  0  0
 24 25  1  0  0  0  0
M  END
>  <MODEL>
9

>  <REMARK>
 VINA RESULT:      -7.8      3.087      6.121
  Name = 
  4 active torsions:
  status: ('A' for Active; 'I' for Inactive)
    1  A    between atoms: C_4  and  C_14
    2  A    between atoms: C_6  and  C_24
    3  A    between atoms: C_7  and  C_17
    4  A    between atoms: C_21  and  C_24
                            x       y       z     vdW  Elec       q    Type
                         _______ _______ _______ _____ _____    ______ ____

>  <TORSDO>
F 4

$$$$
