=
 OpenBabel10222421493D

 31 35  0  0  1  0  0  0  0  0999 V2000
  186.4330  178.2550  143.7480 C   0  0  0  0  0  0  0  0  0  0  0  0
  186.8030  178.3810  142.3160 C   0  0  0  0  0  3  0  0  0  0  0  0
  184.5970  178.5740  145.3600 N   0  0  0  0  0  0  0  0  0  0  0  0
  185.9040  178.6840  141.3690 C   0  0  0  0  0  3  0  0  0  0  0  0
  182.9830  179.2310  143.7160 N   0  0  0  0  0  0  0  0  0  0  0  0
  183.2150  179.0160  145.1630 C   0  0  0  0  0  3  0  0  0  0  0  0
  184.4370  178.8680  141.6770 C   0  0  0  0  0  0  0  0  0  0  0  0
  185.1660  178.5690  144.0760 C   0  0  0  0  0  0  0  0  0  0  0  0
  184.2270  178.9760  143.1210 N   0  0  0  0  0  0  0  0  0  0  0  0
  190.9710  176.6120  144.7310 C   0  0  0  0  0  3  0  0  0  0  0  0
  187.4660  177.8290  144.7350 C   0  0  0  0  0  0  0  0  0  0  0  0
  187.2080  177.8120  146.1170 C   0  0  0  0  0  3  0  0  0  0  0  0
  189.7150  177.0140  145.1850 C   0  0  0  0  0  0  0  0  0  0  0  0
  191.6410  176.2070  147.0190 C   0  0  0  0  0  0  0  0  0  0  0  0
  188.7320  177.4230  144.2820 C   0  0  0  0  0  3  0  0  0  0  0  0
  191.9410  176.2060  145.6490 C   0  0  0  0  0  3  0  0  0  0  0  0
  187.8960  177.4000  148.3890 O   0  0  0  0  0  1  0  0  0  0  0  0
  188.1850  177.4040  147.0300 C   0  0  0  0  0  0  0  0  0  0  0  0
  189.4440  177.0030  146.5690 C   0  0  0  0  0  0  0  0  0  0  0  0
  190.4100  176.6020  147.4420 N   0  0  0  0  0  0  0  0  0  0  0  0
  193.0880  176.6060  148.9050 N   0  0  0  0  0  2  0  0  0  0  0  0
  192.6360  175.7870  148.0120 C   0  0  0  0  0  3  0  0  0  0  0  0
  183.6390  177.6840  141.1320 C   0  0  0  0  0  2  0  0  0  0  0  0
  184.4600  178.1240  138.0380 Cl  0  0  0  0  0  0  0  0  0  0  0  0
  182.1820  179.4790  138.0650 N   0  0  0  0  0  0  0  0  0  0  0  0
  179.9900  180.0950  137.4660 N   0  0  0  0  0  1  0  0  0  0  0  0
  181.4070  178.7630  140.6810 C   0  0  0  0  0  2  0  0  0  0  0  0
  180.9310  179.5890  138.4040 C   0  0  0  0  0  0  0  0  0  0  0  0
  183.2150  178.9870  138.9770 C   0  0  1  0  0  3  0  0  0  0  0  0
  180.4930  179.1670  139.6640 O   0  0  0  0  0  0  0  0  0  0  0  0
  182.6190  178.0760  140.0590 C   0  0  1  0  0  3  0  0  0  0  0  0
  1  8  1  0  0  0  0
  1 11  1  0  0  0  0
  2  1  2  0  0  0  0
  4  7  2  0  0  0  0
  4  2  1  0  0  0  0
  5  6  2  0  0  0  0
  6  3  1  0  0  0  0
  7  9  1  0  0  0  0
  8  3  2  0  0  0  0
  9  5  1  0  0  0  0
  9  8  1  0  0  0  0
 10 13  2  0  0  0  0
 10 16  1  0  0  0  0
 11 12  1  0  0  0  0
 12 18  2  0  0  0  0
 13 19  1  0  0  0  0
 14 20  1  0  0  0  0
 14 22  1  0  0  0  0
 15 11  2  0  0  0  0
 15 13  1  0  0  0  0
 16 14  2  0  0  0  0
 18 17  1  0  0  0  0
 19 18  1  0  0  0  0
 19 20  2  0  0  0  0
 22 21  2  0  0  0  0
 23  7  1  0  0  0  0
 25 28  2  0  0  0  0
 25 29  1  0  0  0  0
 26 28  1  0  0  0  0
 28 30  1  0  0  0  0
 29 24  1  6  0  0  0
 29 31  1  0  0  0  0
 30 27  1  0  0  0  0
 31 27  1  0  0  0  0
 31 23  1  1  0  0  0
M  END
>  <MODEL>
1

>  <REMARK>
 VINA RESULT:      -9.7      0.000      0.000
  Name = 
  4 active torsions:
  status: ('A' for Active; 'I' for Inactive)
    1  A    between atoms: C_3  and  C_5
    2  A    between atoms: C_9  and  C_24
    3  A    between atoms: C_16  and  C_23
    4  A    between atoms: C_16  and  C_30
                            x       y       z     vdW  Elec       q    Type
                         _______ _______ _______ _____ _____    ______ ____

>  <TORSDO>
F 4

$$$$
=
 OpenBabel10222421493D

 31 35  0  0  1  0  0  0  0  0999 V2000
  183.9760  178.7270  142.5460 C   0  0  0  0  0  0  0  0  0  0  0  0
  184.4500  178.8920  141.1490 C   0  0  0  0  0  3  0  0  0  0  0  0
  181.9690  178.7210  143.9730 N   0  0  0  0  0  0  0  0  0  0  0  0
  183.6050  178.9980  140.1140 C   0  0  0  0  0  3  0  0  0  0  0  0
  180.4240  179.0220  142.1680 N   0  0  0  0  0  0  0  0  0  0  0  0
  180.5530  178.8850  143.6370 C   0  0  0  0  0  3  0  0  0  0  0  0
  182.1060  178.9040  140.2830 C   0  0  0  0  0  0  0  0  0  0  0  0
  182.6480  178.7990  142.7460 C   0  0  0  0  0  0  0  0  0  0  0  0
  181.7430  178.9990  141.6960 N   0  0  0  0  0  0  0  0  0  0  0  0
  188.3700  177.0990  144.0630 C   0  0  0  0  0  3  0  0  0  0  0  0
  184.9720  178.5270  143.6360 C   0  0  0  0  0  0  0  0  0  0  0  0
  184.7150  178.9300  144.9590 C   0  0  0  0  0  3  0  0  0  0  0  0
  187.1500  177.7090  144.3530 C   0  0  0  0  0  0  0  0  0  0  0  0
  189.0070  177.3230  146.3850 C   0  0  0  0  0  0  0  0  0  0  0  0
  186.2020  177.9120  143.3480 C   0  0  0  0  0  3  0  0  0  0  0  0
  189.3050  176.9030  145.0800 C   0  0  0  0  0  3  0  0  0  0  0  0
  185.3690  179.1420  147.2680 O   0  0  0  0  0  1  0  0  0  0  0  0
  185.6570  178.7300  145.9720 C   0  0  0  0  0  0  0  0  0  0  0  0
  186.8800  178.1190  145.6750 C   0  0  0  0  0  0  0  0  0  0  0  0
  187.8110  177.9160  146.6480 N   0  0  0  0  0  0  0  0  0  0  0  0
  191.1170  176.5790  147.2810 N   0  0  0  0  0  2  0  0  0  0  0  0
  189.9660  177.1340  147.4790 C   0  0  0  0  0  3  0  0  0  0  0  0
  181.6020  177.5770  139.7140 C   0  0  0  0  0  2  0  0  0  0  0  0
  181.4840  178.7940  136.7230 Cl  0  0  0  0  0  0  0  0  0  0  0  0
  182.5380  176.4250  136.1720 N   0  0  0  0  0  0  0  0  0  0  0  0
  184.0900  174.8510  135.3620 N   0  0  0  0  0  1  0  0  0  0  0  0
  182.8920  175.5960  138.8440 C   0  0  0  0  0  2  0  0  0  0  0  0
  183.3860  175.4730  136.4290 C   0  0  0  0  0  0  0  0  0  0  0  0
  181.7610  177.1020  137.2100 C   0  0  1  0  0  3  0  0  0  0  0  0
  183.6510  175.0900  137.7480 O   0  0  0  0  0  0  0  0  0  0  0  0
  182.4660  177.0340  138.5710 C   0  0  1  0  0  3  0  0  0  0  0  0
  1  8  1  0  0  0  0
  1 11  1  0  0  0  0
  2  1  2  0  0  0  0
  4  7  2  0  0  0  0
  4  2  1  0  0  0  0
  5  6  2  0  0  0  0
  6  3  1  0  0  0  0
  7  9  1  0  0  0  0
  8  3  2  0  0  0  0
  9  5  1  0  0  0  0
  9  8  1  0  0  0  0
 10 13  2  0  0  0  0
 10 16  1  0  0  0  0
 11 12  1  0  0  0  0
 12 18  2  0  0  0  0
 13 19  1  0  0  0  0
 14 20  1  0  0  0  0
 14 22  1  0  0  0  0
 15 11  2  0  0  0  0
 15 13  1  0  0  0  0
 16 14  2  0  0  0  0
 18 17  1  0  0  0  0
 19 18  1  0  0  0  0
 19 20  2  0  0  0  0
 21 22  2  0  0  0  0
 23  7  1  0  0  0  0
 25 28  2  0  0  0  0
 25 29  1  0  0  0  0
 26 28  1  0  0  0  0
 28 30  1  0  0  0  0
 29 24  1  6  0  0  0
 29 31  1  0  0  0  0
 30 27  1  0  0  0  0
 31 27  1  0  0  0  0
 31 23  1  1  0  0  0
M  END
>  <MODEL>
2

>  <REMARK>
 VINA RESULT:      -9.3      2.458      3.340
  Name = 
  4 active torsions:
  status: ('A' for Active; 'I' for Inactive)
    1  A    between atoms: C_3  and  C_5
    2  A    between atoms: C_9  and  C_24
    3  A    between atoms: C_16  and  C_23
    4  A    between atoms: C_16  and  C_30
                            x       y       z     vdW  Elec       q    Type
                         _______ _______ _______ _____ _____    ______ ____

>  <TORSDO>
F 4

$$$$
=
 OpenBabel10222421493D

 31 35  0  0  1  0  0  0  0  0999 V2000
  185.4060  178.3840  142.4000 C   0  0  0  0  0  0  0  0  0  0  0  0
  185.4980  178.6200  140.9370 C   0  0  0  0  0  3  0  0  0  0  0  0
  183.8730  178.4360  144.3270 N   0  0  0  0  0  0  0  0  0  0  0  0
  184.4190  178.8810  140.1860 C   0  0  0  0  0  3  0  0  0  0  0  0
  181.9360  179.0140  143.0420 N   0  0  0  0  0  0  0  0  0  0  0  0
  182.4450  178.7490  144.4070 C   0  0  0  0  0  3  0  0  0  0  0  0
  183.0220  178.9030  140.7590 C   0  0  0  0  0  0  0  0  0  0  0  0
  184.1980  178.5540  142.9660 C   0  0  0  0  0  0  0  0  0  0  0  0
  183.0680  178.9150  142.2210 N   0  0  0  0  0  0  0  0  0  0  0  0
  187.6860  177.5520  146.6860 C   0  0  0  0  0  3  0  0  0  0  0  0
  186.6350  178.0120  143.1580 C   0  0  0  0  0  0  0  0  0  0  0  0
  187.8480  177.7250  142.5080 C   0  0  0  0  0  3  0  0  0  0  0  0
  187.7320  177.6110  145.2940 C   0  0  0  0  0  0  0  0  0  0  0  0
  190.0230  176.9290  146.7120 C   0  0  0  0  0  0  0  0  0  0  0  0
  186.5940  177.9520  144.5600 C   0  0  0  0  0  3  0  0  0  0  0  0
  188.8340  177.2100  147.4020 C   0  0  0  0  0  3  0  0  0  0  0  0
  190.1760  177.1050  142.5560 O   0  0  0  0  0  1  0  0  0  0  0  0
  188.9940  177.3830  143.2320 C   0  0  0  0  0  0  0  0  0  0  0  0
  188.9420  177.3240  144.6290 C   0  0  0  0  0  0  0  0  0  0  0  0
  190.0470  176.9930  145.3530 N   0  0  0  0  0  0  0  0  0  0  0  0
  192.1180  175.7570  146.9210 N   0  0  0  0  0  2  0  0  0  0  0  0
  191.2480  176.5660  147.4310 C   0  0  0  0  0  3  0  0  0  0  0  0
  182.2450  177.6750  140.2830 C   0  0  0  0  0  2  0  0  0  0  0  0
  181.7280  179.3140  137.5460 Cl  0  0  0  0  0  0  0  0  0  0  0  0
  182.1120  176.8990  136.5240 N   0  0  0  0  0  0  0  0  0  0  0  0
  183.0780  175.2040  135.2070 N   0  0  0  0  0  1  0  0  0  0  0  0
  182.8640  175.6400  138.9330 C   0  0  0  0  0  2  0  0  0  0  0  0
  182.7750  175.7820  136.4700 C   0  0  0  0  0  0  0  0  0  0  0  0
  181.7430  177.5470  137.7820 C   0  0  1  0  0  3  0  0  0  0  0  0
  183.2380  175.1690  137.6400 O   0  0  0  0  0  0  0  0  0  0  0  0
  182.7010  177.1560  138.9160 C   0  0  1  0  0  3  0  0  0  0  0  0
  1  8  1  0  0  0  0
  1 11  1  0  0  0  0
  2  1  2  0  0  0  0
  3  6  1  0  0  0  0
  4  7  2  0  0  0  0
  4  2  1  0  0  0  0
  5  6  2  0  0  0  0
  7  9  1  0  0  0  0
  8  3  2  0  0  0  0
  9  8  1  0  0  0  0
  9  5  1  0  0  0  0
 10 16  1  0  0  0  0
 11 15  2  0  0  0  0
 12 11  1  0  0  0  0
 12 18  2  0  0  0  0
 13 10  2  0  0  0  0
 14 16  2  0  0  0  0
 14 22  1  0  0  0  0
 15 13  1  0  0  0  0
 17 18  1  0  0  0  0
 18 19  1  0  0  0  0
 19 13  1  0  0  0  0
 19 20  2  0  0  0  0
 20 14  1  0  0  0  0
 21 22  2  0  0  0  0
 23  7  1  0  0  0  0
 25 29  1  0  0  0  0
 26 28  1  0  0  0  0
 28 25  2  0  0  0  0
 28 30  1  0  0  0  0
 29 24  1  6  0  0  0
 29 31  1  0  0  0  0
 30 27  1  0  0  0  0
 31 27  1  0  0  0  0
 31 23  1  1  0  0  0
M  END
>  <MODEL>
3

>  <REMARK>
 VINA RESULT:      -9.0      2.360      3.022
  Name = 
  4 active torsions:
  status: ('A' for Active; 'I' for Inactive)
    1  A    between atoms: C_3  and  C_5
    2  A    between atoms: C_9  and  C_24
    3  A    between atoms: C_16  and  C_23
    4  A    between atoms: C_16  and  C_30
                            x       y       z     vdW  Elec       q    Type
                         _______ _______ _______ _____ _____    ______ ____

>  <TORSDO>
F 4

$$$$
=
 OpenBabel10222421493D

 31 35  0  0  1  0  0  0  0  0999 V2000
  186.3980  178.2200  142.6760 C   0  0  0  0  0  0  0  0  0  0  0  0
  186.4320  178.4510  141.2100 C   0  0  0  0  0  3  0  0  0  0  0  0
  184.9700  178.3760  144.6770 N   0  0  0  0  0  0  0  0  0  0  0  0
  185.3380  178.7870  140.5130 C   0  0  0  0  0  3  0  0  0  0  0  0
  183.0160  179.0880  143.4890 N   0  0  0  0  0  0  0  0  0  0  0  0
  183.5720  178.7870  144.8280 C   0  0  0  0  0  3  0  0  0  0  0  0
  183.9760  178.9050  141.1550 C   0  0  0  0  0  0  0  0  0  0  0  0
  185.2340  178.4720  143.3010 C   0  0  0  0  0  0  0  0  0  0  0  0
  184.0960  178.9120  142.6130 N   0  0  0  0  0  0  0  0  0  0  0  0
  188.8370  177.2570  146.8450 C   0  0  0  0  0  3  0  0  0  0  0  0
  187.6340  177.7630  143.3720 C   0  0  0  0  0  0  0  0  0  0  0  0
  188.7860  177.3800  142.6620 C   0  0  0  0  0  3  0  0  0  0  0  0
  188.8110  177.3000  145.4520 C   0  0  0  0  0  0  0  0  0  0  0  0
  191.1180  176.4590  146.7560 C   0  0  0  0  0  0  0  0  0  0  0  0
  187.6640  177.7190  144.7760 C   0  0  0  0  0  3  0  0  0  0  0  0
  189.9930  176.8360  147.5040 C   0  0  0  0  0  3  0  0  0  0  0  0
  191.0590  176.5860  142.5950 O   0  0  0  0  0  1  0  0  0  0  0  0
  189.9400  176.9580  143.3290 C   0  0  0  0  0  0  0  0  0  0  0  0
  189.9590  176.9160  144.7280 C   0  0  0  0  0  0  0  0  0  0  0  0
  191.0740  176.5090  145.3970 N   0  0  0  0  0  0  0  0  0  0  0  0
  192.7240  176.4970  148.5520 N   0  0  0  0  0  2  0  0  0  0  0  0
  192.3490  176.0110  147.4140 C   0  0  0  0  0  3  0  0  0  0  0  0
  183.0930  177.7340  140.7210 C   0  0  0  0  0  2  0  0  0  0  0  0
  183.1210  175.8290  138.1120 Cl  0  0  0  0  0  0  0  0  0  0  0  0
  182.1900  178.0490  137.0010 N   0  0  0  0  0  0  0  0  0  0  0  0
  180.7190  179.4630  135.8280 N   0  0  0  0  0  1  0  0  0  0  0  0
  181.9040  179.5150  139.3930 C   0  0  0  0  0  2  0  0  0  0  0  0
  181.3970  179.0790  137.0180 C   0  0  0  0  0  0  0  0  0  0  0  0
  182.9390  177.6010  138.1750 C   0  0  1  0  0  3  0  0  0  0  0  0
  181.1650  179.7830  138.2040 O   0  0  0  0  0  0  0  0  0  0  0  0
  182.2510  178.0320  139.4770 C   0  0  1  0  0  3  0  0  0  0  0  0
  1  8  1  0  0  0  0
  1 11  1  0  0  0  0
  2  1  2  0  0  0  0
  3  6  1  0  0  0  0
  4  7  2  0  0  0  0
  4  2  1  0  0  0  0
  5  6  2  0  0  0  0
  7  9  1  0  0  0  0
  8  3  2  0  0  0  0
  9  8  1  0  0  0  0
  9  5  1  0  0  0  0
 10 16  1  0  0  0  0
 11 15  2  0  0  0  0
 12 18  2  0  0  0  0
 12 11  1  0  0  0  0
 13 10  2  0  0  0  0
 14 22  1  0  0  0  0
 14 16  2  0  0  0  0
 15 13  1  0  0  0  0
 17 18  1  0  0  0  0
 18 19  1  0  0  0  0
 19 20  2  0  0  0  0
 19 13  1  0  0  0  0
 20 14  1  0  0  0  0
 22 21  2  0  0  0  0
 23  7  1  0  0  0  0
 25 28  2  0  0  0  0
 25 29  1  0  0  0  0
 26 28  1  0  0  0  0
 27 31  1  0  0  0  0
 28 30  1  0  0  0  0
 29 24  1  1  0  0  0
 29 31  1  0  0  0  0
 30 27  1  0  0  0  0
 31 23  1  1  0  0  0
M  END
>  <MODEL>
4

>  <REMARK>
 VINA RESULT:      -9.0      1.694      2.109
  Name = 
  4 active torsions:
  status: ('A' for Active; 'I' for Inactive)
    1  A    between atoms: C_3  and  C_5
    2  A    between atoms: C_9  and  C_24
    3  A    between atoms: C_16  and  C_23
    4  A    between atoms: C_16  and  C_30
                            x       y       z     vdW  Elec       q    Type
                         _______ _______ _______ _____ _____    ______ ____

>  <TORSDO>
F 4

$$$$
=
 OpenBabel10222421493D

 31 35  0  0  1  0  0  0  0  0999 V2000
  185.3520  178.0310  143.5460 C   0  0  0  0  0  0  0  0  0  0  0  0
  186.4390  177.2670  142.8830 C   0  0  0  0  0  3  0  0  0  0  0  0
  184.5600  178.8740  145.7200 N   0  0  0  0  0  0  0  0  0  0  0  0
  187.5430  176.8810  143.5360 C   0  0  0  0  0  3  0  0  0  0  0  0
  186.4640  178.1040  146.9530 N   0  0  0  0  0  0  0  0  0  0  0  0
  185.1540  178.7870  147.0560 C   0  0  0  0  0  3  0  0  0  0  0  0
  187.7930  177.2390  144.9820 C   0  0  0  0  0  0  0  0  0  0  0  0
  185.4730  178.2280  144.8710 C   0  0  0  0  0  0  0  0  0  0  0  0
  186.5730  177.7580  145.5990 N   0  0  0  0  0  0  0  0  0  0  0  0
  183.4640  179.4540  139.2250 C   0  0  0  0  0  3  0  0  0  0  0  0
  184.1940  178.5040  142.7370 C   0  0  0  0  0  0  0  0  0  0  0  0
  182.9270  178.7170  143.3090 C   0  0  0  0  0  3  0  0  0  0  0  0
  183.2930  179.2050  140.5860 C   0  0  0  0  0  0  0  0  0  0  0  0
  181.1380  180.0980  139.0750 C   0  0  0  0  0  0  0  0  0  0  0  0
  184.3620  178.7570  141.3650 C   0  0  0  0  0  3  0  0  0  0  0  0
  182.3850  179.9020  138.4620 C   0  0  0  0  0  3  0  0  0  0  0  0
  180.6130  179.3640  143.1380 O   0  0  0  0  0  1  0  0  0  0  0  0
  181.8500  179.1660  142.5390 C   0  0  0  0  0  0  0  0  0  0  0  0
  182.0280  179.4120  141.1720 C   0  0  0  0  0  0  0  0  0  0  0  0
  180.9910  179.8510  140.4050 N   0  0  0  0  0  0  0  0  0  0  0  0
  180.1220  181.3430  137.2790 N   0  0  0  0  0  2  0  0  0  0  0  0
  179.9820  180.5680  138.3050 C   0  0  0  0  0  3  0  0  0  0  0  0
  188.8990  178.2910  145.0730 C   0  0  0  0  0  2  0  0  0  0  0  0
  191.5760  177.3490  143.5280 Cl  0  0  0  0  0  0  0  0  0  0  0  0
  191.9890  176.1480  145.8550 N   0  0  0  0  0  0  0  0  0  0  0  0
  193.0700  175.5780  147.8660 N   0  0  0  0  0  1  0  0  0  0  0  0
  189.7910  177.2880  147.2060 C   0  0  0  0  0  2  0  0  0  0  0  0
  191.9870  176.1620  147.1550 C   0  0  0  0  0  0  0  0  0  0  0  0
  190.9030  176.7090  145.0500 C   0  0  1  0  0  3  0  0  0  0  0  0
  190.9560  176.7910  147.8610 O   0  0  0  0  0  0  0  0  0  0  0  0
  190.1470  177.8040  145.8150 C   0  0  1  0  0  3  0  0  0  0  0  0
  1  8  1  0  0  0  0
  2  4  1  0  0  0  0
  2  1  2  0  0  0  0
  3  6  1  0  0  0  0
  4  7  2  0  0  0  0
  5  6  2  0  0  0  0
  7 23  1  0  0  0  0
  7  9  1  0  0  0  0
  8  9  1  0  0  0  0
  8  3  2  0  0  0  0
  9  5  1  0  0  0  0
 10 13  1  0  0  0  0
 11 12  1  0  0  0  0
 11  1  1  0  0  0  0
 13 19  2  0  0  0  0
 13 15  1  0  0  0  0
 14 20  2  0  0  0  0
 15 11  2  0  0  0  0
 16 14  1  0  0  0  0
 16 10  2  0  0  0  0
 18 17  1  0  0  0  0
 18 12  2  0  0  0  0
 19 18  1  0  0  0  0
 20 19  1  0  0  0  0
 21 22  2  0  0  0  0
 22 14  1  0  0  0  0
 25 28  2  0  0  0  0
 27 30  1  0  0  0  0
 28 30  1  0  0  0  0
 28 26  1  0  0  0  0
 29 24  1  6  0  0  0
 29 31  1  0  0  0  0
 29 25  1  0  0  0  0
 31 23  1  6  0  0  0
 31 27  1  0  0  0  0
M  END
>  <MODEL>
5

>  <REMARK>
 VINA RESULT:      -8.9      2.291      9.745
  Name = 
  4 active torsions:
  status: ('A' for Active; 'I' for Inactive)
    1  A    between atoms: C_3  and  C_5
    2  A    between atoms: C_9  and  C_24
    3  A    between atoms: C_16  and  C_23
    4  A    between atoms: C_16  and  C_30
                            x       y       z     vdW  Elec       q    Type
                         _______ _______ _______ _____ _____    ______ ____

>  <TORSDO>
F 4

$$$$
=
 OpenBabel10222421493D

 31 35  0  0  1  0  0  0  0  0999 V2000
  190.8810  177.3520  142.9990 C   0  0  0  0  0  0  0  0  0  0  0  0
  190.2710  178.5710  143.5860 C   0  0  0  0  0  3  0  0  0  0  0  0
  192.0190  175.2380  143.5510 N   0  0  0  0  0  0  0  0  0  0  0  0
  190.1010  178.7220  144.9070 C   0  0  0  0  0  3  0  0  0  0  0  0
  191.8400  175.5150  145.9240 N   0  0  0  0  0  0  0  0  0  0  0  0
  192.3570  174.6420  144.8460 C   0  0  0  0  0  3  0  0  0  0  0  0
  190.4670  177.6400  145.8960 C   0  0  0  0  0  0  0  0  0  0  0  0
  191.3610  176.4400  143.8630 C   0  0  0  0  0  0  0  0  0  0  0  0
  191.2790  176.6090  145.2510 N   0  0  0  0  0  0  0  0  0  0  0  0
  188.6430  176.9130  138.6330 C   0  0  0  0  0  3  0  0  0  0  0  0
  190.9580  177.2150  141.5170 C   0  0  0  0  0  0  0  0  0  0  0  0
  192.1900  177.1580  140.8410 C   0  0  0  0  0  3  0  0  0  0  0  0
  189.8200  176.9960  139.3760 C   0  0  0  0  0  0  0  0  0  0  0  0
  189.9580  176.7290  136.6120 C   0  0  0  0  0  0  0  0  0  0  0  0
  189.7750  177.1300  140.7650 C   0  0  0  0  0  3  0  0  0  0  0  0
  188.7080  176.7790  137.2460 C   0  0  0  0  0  3  0  0  0  0  0  0
  193.4820  176.9720  138.8160 O   0  0  0  0  0  1  0  0  0  0  0  0
  192.2470  177.0240  139.4500 C   0  0  0  0  0  0  0  0  0  0  0  0
  191.0620  176.9430  138.7100 C   0  0  0  0  0  0  0  0  0  0  0  0
  191.0960  176.8110  137.3550 N   0  0  0  0  0  0  0  0  0  0  0  0
  189.4090  177.3610  134.3530 N   0  0  0  0  0  2  0  0  0  0  0  0
  190.0650  176.5890  135.1570 C   0  0  0  0  0  3  0  0  0  0  0  0
  189.1980  177.0070  146.4670 C   0  0  0  0  0  2  0  0  0  0  0  0
  187.7500  178.7880  148.7410 Cl  0  0  0  0  0  0  0  0  0  0  0  0
  185.7200  178.5270  147.0560 N   0  0  0  0  0  0  0  0  0  0  0  0
  183.9870  179.1640  145.5960 N   0  0  0  0  0  1  0  0  0  0  0  0
  187.1680  177.2570  144.9950 C   0  0  0  0  0  2  0  0  0  0  0  0
  185.2400  178.5410  145.8470 C   0  0  0  0  0  0  0  0  0  0  0  0
  186.9910  177.8900  147.4010 C   0  0  1  0  0  3  0  0  0  0  0  0
  185.9670  177.9950  144.7840 O   0  0  0  0  0  0  0  0  0  0  0  0
  187.9310  177.8220  146.1900 C   0  0  1  0  0  3  0  0  0  0  0  0
  1  2  2  0  0  0  0
  1  8  1  0  0  0  0
  2  4  1  0  0  0  0
  3  8  2  0  0  0  0
  3  6  1  0  0  0  0
  4  7  2  0  0  0  0
  6  5  2  0  0  0  0
  7 23  1  0  0  0  0
  8  9  1  0  0  0  0
  9  7  1  0  0  0  0
  9  5  1  0  0  0  0
 10 13  1  0  0  0  0
 11  1  1  0  0  0  0
 12 11  1  0  0  0  0
 13 15  1  0  0  0  0
 14 16  1  0  0  0  0
 14 20  2  0  0  0  0
 15 11  2  0  0  0  0
 16 10  2  0  0  0  0
 17 18  1  0  0  0  0
 18 12  2  0  0  0  0
 19 13  2  0  0  0  0
 19 18  1  0  0  0  0
 20 19  1  0  0  0  0
 21 22  2  0  0  0  0
 22 14  1  0  0  0  0
 25 29  1  0  0  0  0
 26 28  1  0  0  0  0
 27 31  1  0  0  0  0
 28 25  2  0  0  0  0
 29 24  1  1  0  0  0
 30 27  1  0  0  0  0
 30 28  1  0  0  0  0
 31 23  1  1  0  0  0
 31 29  1  0  0  0  0
M  END
>  <MODEL>
6

>  <REMARK>
 VINA RESULT:      -8.7      4.926      8.643
  Name = 
  4 active torsions:
  status: ('A' for Active; 'I' for Inactive)
    1  A    between atoms: C_3  and  C_5
    2  A    between atoms: C_9  and  C_24
    3  A    between atoms: C_16  and  C_23
    4  A    between atoms: C_16  and  C_30
                            x       y       z     vdW  Elec       q    Type
                         _______ _______ _______ _____ _____    ______ ____

>  <TORSDO>
F 4

$$$$
=
 OpenBabel10222421493D

 31 35  0  0  1  0  0  0  0  0999 V2000
  190.7950  177.1790  140.5290 C   0  0  0  0  0  0  0  0  0  0  0  0
  192.2730  177.3210  140.5290 C   0  0  0  0  0  3  0  0  0  0  0  0
  188.8370  176.8090  139.0810 N   0  0  0  0  0  0  0  0  0  0  0  0
  193.0120  177.1130  139.4310 C   0  0  0  0  0  3  0  0  0  0  0  0
  190.1090  176.5400  137.0690 N   0  0  0  0  0  0  0  0  0  0  0  0
  188.7420  176.5820  137.6370 C   0  0  0  0  0  3  0  0  0  0  0  0
  192.4060  176.6640  138.1220 C   0  0  0  0  0  0  0  0  0  0  0  0
  190.2110  176.9350  139.3420 C   0  0  0  0  0  0  0  0  0  0  0  0
  190.9500  176.8010  138.1590 N   0  0  0  0  0  0  0  0  0  0  0  0
  186.5620  177.9650  142.9220 C   0  0  0  0  0  3  0  0  0  0  0  0
  190.0460  177.3400  141.8070 C   0  0  0  0  0  0  0  0  0  0  0  0
  190.6880  177.2750  143.0560 C   0  0  0  0  0  3  0  0  0  0  0  0
  187.9370  177.7340  142.9580 C   0  0  0  0  0  0  0  0  0  0  0  0
  186.5360  178.0470  145.3380 C   0  0  0  0  0  0  0  0  0  0  0  0
  188.6610  177.5740  141.7750 C   0  0  0  0  0  3  0  0  0  0  0  0
  185.8560  178.1230  144.1140 C   0  0  0  0  0  3  0  0  0  0  0  0
  190.6410  177.3620  145.4630 O   0  0  0  0  0  1  0  0  0  0  0  0
  189.9730  177.4340  144.2470 C   0  0  0  0  0  0  0  0  0  0  0  0
  188.5930  177.6640  144.2040 C   0  0  0  0  0  0  0  0  0  0  0  0
  187.8780  177.8220  145.3530 N   0  0  0  0  0  0  0  0  0  0  0  0
  184.5770  178.5410  146.6520 N   0  0  0  0  0  2  0  0  0  0  0  0
  185.8260  178.2080  146.6110 C   0  0  0  0  0  3  0  0  0  0  0  0
  192.7740  175.2060  137.8520 C   0  0  0  0  0  2  0  0  0  0  0  0
  195.2140  173.2330  138.6230 Cl  0  0  0  0  0  0  0  0  0  0  0  0
  196.4770  174.8120  136.9090 N   0  0  0  0  0  0  0  0  0  0  0  0
  197.7170  175.4380  135.0090 N   0  0  0  0  0  1  0  0  0  0  0  0
  194.2080  176.2630  136.0700 C   0  0  0  0  0  2  0  0  0  0  0  0
  196.5220  175.4530  135.7790 C   0  0  0  0  0  0  0  0  0  0  0  0
  195.2940  174.7960  137.7690 C   0  0  1  0  0  3  0  0  0  0  0  0
  195.3920  176.1160  135.2880 O   0  0  0  0  0  0  0  0  0  0  0  0
  194.0110  175.0420  136.9630 C   0  0  1  0  0  3  0  0  0  0  0  0
  1 11  1  0  0  0  0
  2  1  2  0  0  0  0
  3  8  2  0  0  0  0
  4  2  1  0  0  0  0
  5  6  2  0  0  0  0
  5  9  1  0  0  0  0
  6  3  1  0  0  0  0
  7  9  1  0  0  0  0
  7  4  2  0  0  0  0
  8  1  1  0  0  0  0
  9  8  1  0  0  0  0
 10 13  2  0  0  0  0
 10 16  1  0  0  0  0
 11 12  1  0  0  0  0
 12 18  2  0  0  0  0
 13 19  1  0  0  0  0
 14 20  1  0  0  0  0
 14 22  1  0  0  0  0
 15 11  2  0  0  0  0
 15 13  1  0  0  0  0
 16 14  2  0  0  0  0
 18 17  1  0  0  0  0
 19 18  1  0  0  0  0
 19 20  2  0  0  0  0
 22 21  2  0  0  0  0
 23  7  1  0  0  0  0
 25 29  1  0  0  0  0
 26 28  1  0  0  0  0
 27 31  1  0  0  0  0
 28 25  2  0  0  0  0
 29 24  1  6  0  0  0
 30 28  1  0  0  0  0
 30 27  1  0  0  0  0
 31 29  1  0  0  0  0
 31 23  1  1  0  0  0
M  END
>  <MODEL>
7

>  <REMARK>
 VINA RESULT:      -8.6      7.024      9.417
  Name = 
  4 active torsions:
  status: ('A' for Active; 'I' for Inactive)
    1  A    between atoms: C_3  and  C_5
    2  A    between atoms: C_9  and  C_24
    3  A    between atoms: C_16  and  C_23
    4  A    between atoms: C_16  and  C_30
                            x       y       z     vdW  Elec       q    Type
                         _______ _______ _______ _____ _____    ______ ____

>  <TORSDO>
F 4

$$$$
=
 OpenBabel10222421493D

 31 35  0  0  1  0  0  0  0  0999 V2000
  190.8520  177.1000  140.2940 C   0  0  0  0  0  0  0  0  0  0  0  0
  192.3230  177.2880  140.3460 C   0  0  0  0  0  3  0  0  0  0  0  0
  188.9630  176.6290  138.7850 N   0  0  0  0  0  0  0  0  0  0  0  0
  193.1110  177.0700  139.2840 C   0  0  0  0  0  3  0  0  0  0  0  0
  190.3200  176.3400  136.8320 N   0  0  0  0  0  0  0  0  0  0  0  0
  188.9310  176.3570  137.3460 C   0  0  0  0  0  3  0  0  0  0  0  0
  192.5690  176.5650  137.9670 C   0  0  0  0  0  0  0  0  0  0  0  0
  190.3220  176.8050  139.0930 C   0  0  0  0  0  0  0  0  0  0  0  0
  191.1090  176.6590  137.9450 N   0  0  0  0  0  0  0  0  0  0  0  0
  190.5530  177.1320  145.2100 C   0  0  0  0  0  3  0  0  0  0  0  0
  190.0490  177.2760  141.5370 C   0  0  0  0  0  0  0  0  0  0  0  0
  188.6760  177.5800  141.4970 C   0  0  0  0  0  3  0  0  0  0  0  0
  189.9350  177.2800  143.9690 C   0  0  0  0  0  0  0  0  0  0  0  0
  188.4400  177.5950  146.2910 C   0  0  0  0  0  0  0  0  0  0  0  0
  190.6670  177.1260  142.7900 C   0  0  0  0  0  3  0  0  0  0  0  0
  189.8060  177.2890  146.3780 C   0  0  0  0  0  3  0  0  0  0  0  0
  186.5800  178.0370  142.5930 O   0  0  0  0  0  1  0  0  0  0  0  0
  187.9340  177.7360  142.6710 C   0  0  0  0  0  0  0  0  0  0  0  0
  188.5600  177.5870  143.9140 C   0  0  0  0  0  0  0  0  0  0  0  0
  187.8550  177.7350  145.0700 N   0  0  0  0  0  0  0  0  0  0  0  0
  188.1590  178.0210  148.6460 N   0  0  0  0  0  2  0  0  0  0  0  0
  187.6230  177.7670  147.4970 C   0  0  0  0  0  3  0  0  0  0  0  0
  192.9910  175.1120  137.7550 C   0  0  0  0  0  2  0  0  0  0  0  0
  195.3570  173.2010  138.8460 Cl  0  0  0  0  0  0  0  0  0  0  0  0
  196.7870  174.7850  137.2730 N   0  0  0  0  0  0  0  0  0  0  0  0
  198.2360  175.4130  135.5270 N   0  0  0  0  0  1  0  0  0  0  0  0
  194.6090  176.1760  136.1440 C   0  0  0  0  0  2  0  0  0  0  0  0
  196.9560  175.4130  136.1470 C   0  0  0  0  0  0  0  0  0  0  0  0
  195.5090  174.7540  137.9840 C   0  0  1  0  0  3  0  0  0  0  0  0
  195.8810  176.0450  135.5140 O   0  0  0  0  0  0  0  0  0  0  0  0
  194.3290  174.9630  137.0260 C   0  0  1  0  0  3  0  0  0  0  0  0
  1  2  2  0  0  0  0
  1 11  1  0  0  0  0
  3  8  2  0  0  0  0
  4  2  1  0  0  0  0
  5  6  2  0  0  0  0
  5  9  1  0  0  0  0
  6  3  1  0  0  0  0
  7  4  2  0  0  0  0
  8  1  1  0  0  0  0
  9  7  1  0  0  0  0
  9  8  1  0  0  0  0
 10 16  1  0  0  0  0
 11 15  2  0  0  0  0
 12 11  1  0  0  0  0
 12 18  2  0  0  0  0
 13 10  2  0  0  0  0
 14 16  2  0  0  0  0
 14 22  1  0  0  0  0
 15 13  1  0  0  0  0
 17 18  1  0  0  0  0
 18 19  1  0  0  0  0
 19 13  1  0  0  0  0
 19 20  2  0  0  0  0
 20 14  1  0  0  0  0
 22 21  2  0  0  0  0
 23  7  1  0  0  0  0
 25 29  1  0  0  0  0
 26 28  1  0  0  0  0
 27 31  1  0  0  0  0
 28 25  2  0  0  0  0
 29 24  1  6  0  0  0
 30 27  1  0  0  0  0
 30 28  1  0  0  0  0
 31 23  1  1  0  0  0
 31 29  1  0  0  0  0
M  END
>  <MODEL>
8

>  <REMARK>
 VINA RESULT:      -8.6      7.155      9.397
  Name = 
  4 active torsions:
  status: ('A' for Active; 'I' for Inactive)
    1  A    between atoms: C_3  and  C_5
    2  A    between atoms: C_9  and  C_24
    3  A    between atoms: C_16  and  C_23
    4  A    between atoms: C_16  and  C_30
                            x       y       z     vdW  Elec       q    Type
                         _______ _______ _______ _____ _____    ______ ____

>  <TORSDO>
F 4

$$$$
=
 OpenBabel10222421493D

 31 35  0  0  1  0  0  0  0  0999 V2000
  190.0090  177.3340  139.7730 C   0  0  0  0  0  0  0  0  0  0  0  0
  191.4160  177.3920  140.2450 C   0  0  0  0  0  3  0  0  0  0  0  0
  188.5930  176.9470  137.7950 N   0  0  0  0  0  0  0  0  0  0  0  0
  192.4470  177.0420  139.4640 C   0  0  0  0  0  3  0  0  0  0  0  0
  190.4140  176.4230  136.3300 N   0  0  0  0  0  0  0  0  0  0  0  0
  188.9460  176.5950  136.4180 C   0  0  0  0  0  3  0  0  0  0  0  0
  192.2560  176.5110  138.0620 C   0  0  0  0  0  0  0  0  0  0  0  0
  189.8180  177.0180  138.4800 C   0  0  0  0  0  0  0  0  0  0  0  0
  190.8810  176.7340  137.6140 N   0  0  0  0  0  0  0  0  0  0  0  0
  188.0400  177.0350  144.2780 C   0  0  0  0  0  3  0  0  0  0  0  0
  188.9070  177.6540  140.7230 C   0  0  0  0  0  0  0  0  0  0  0  0
  187.7770  178.3920  140.3270 C   0  0  0  0  0  3  0  0  0  0  0  0
  187.9610  177.4840  142.9600 C   0  0  0  0  0  0  0  0  0  0  0  0
  185.9010  178.0670  144.7340 C   0  0  0  0  0  0  0  0  0  0  0  0
  188.9830  177.2030  142.0510 C   0  0  0  0  0  3  0  0  0  0  0  0
  187.0090  177.3250  145.1710 C   0  0  0  0  0  3  0  0  0  0  0  0
  185.6470  179.4120  140.8030 O   0  0  0  0  0  1  0  0  0  0  0  0
  186.7480  178.6790  141.2290 C   0  0  0  0  0  0  0  0  0  0  0  0
  186.8340  178.2270  142.5510 C   0  0  0  0  0  0  0  0  0  0  0  0
  185.8420  178.4960  143.4440 N   0  0  0  0  0  0  0  0  0  0  0  0
  185.0120  178.9420  146.7960 N   0  0  0  0  0  2  0  0  0  0  0  0
  184.7990  178.3920  145.6450 C   0  0  0  0  0  3  0  0  0  0  0  0
  192.5680  175.0150  138.0260 C   0  0  0  0  0  2  0  0  0  0  0  0
  192.6980  173.9390  134.9820 Cl  0  0  0  0  0  0  0  0  0  0  0  0
  195.0720  173.1120  135.8220 N   0  0  0  0  0  0  0  0  0  0  0  0
  197.4140  172.8830  135.8960 N   0  0  0  0  0  1  0  0  0  0  0  0
  194.9830  174.3710  138.3440 C   0  0  0  0  0  2  0  0  0  0  0  0
  196.1850  173.3200  136.4620 C   0  0  0  0  0  0  0  0  0  0  0  0
  193.7660  173.5120  136.3450 C   0  0  1  0  0  3  0  0  0  0  0  0
  196.1910  174.0140  137.6760 O   0  0  0  0  0  0  0  0  0  0  0  0
  193.8900  174.6840  137.3270 C   0  0  1  0  0  3  0  0  0  0  0  0
  1  2  2  0  0  0  0
  1 11  1  0  0  0  0
  3  8  2  0  0  0  0
  4  2  1  0  0  0  0
  5  6  2  0  0  0  0
  5  9  1  0  0  0  0
  6  3  1  0  0  0  0
  7  4  2  0  0  0  0
  8  1  1  0  0  0  0
  9  7  1  0  0  0  0
  9  8  1  0  0  0  0
 10 16  1  0  0  0  0
 11 15  2  0  0  0  0
 12 11  1  0  0  0  0
 12 18  2  0  0  0  0
 13 10  2  0  0  0  0
 14 16  2  0  0  0  0
 14 22  1  0  0  0  0
 15 13  1  0  0  0  0
 17 18  1  0  0  0  0
 18 19  1  0  0  0  0
 19 13  1  0  0  0  0
 19 20  2  0  0  0  0
 20 14  1  0  0  0  0
 22 21  2  0  0  0  0
 23  7  1  0  0  0  0
 25 29  1  0  0  0  0
 25 28  2  0  0  0  0
 26 28  1  0  0  0  0
 28 30  1  0  0  0  0
 29 24  1  6  0  0  0
 29 31  1  0  0  0  0
 30 27  1  0  0  0  0
 31 23  1  1  0  0  0
 31 27  1  0  0  0  0
M  END
>  <MODEL>
9

>  <REMARK>
 VINA RESULT:      -8.4      6.893      9.681
  Name = 
  4 active torsions:
  status: ('A' for Active; 'I' for Inactive)
    1  A    between atoms: C_3  and  C_5
    2  A    between atoms: C_9  and  C_24
    3  A    between atoms: C_16  and  C_23
    4  A    between atoms: C_16  and  C_30
                            x       y       z     vdW  Elec       q    Type
                         _______ _______ _______ _____ _____    ______ ____

>  <TORSDO>
F 4

$$$$
