=
 OpenBabel10232410453D

 35 39  0  0  1  0  0  0  0  0999 V2000
  192.4380  176.0410  137.1060 C   0  0  0  0  0  0  0  0  0  0  0  0
  191.8170  176.5250  138.2630 C   0  0  0  0  0  3  0  0  0  0  0  0
  191.6770  175.8640  135.9450 C   0  0  0  0  0  3  0  0  0  0  0  0
  189.6910  176.6690  137.0950 C   0  0  0  0  0  0  0  0  0  0  0  0
  190.4520  176.8480  138.2760 C   0  0  0  0  0  0  0  0  0  0  0  0
  190.3160  176.1680  135.9420 C   0  0  0  0  0  3  0  0  0  0  0  0
  186.6140  176.7200  134.6840 N   0  0  0  0  0  0  0  0  0  0  0  0
  187.8420  178.1050  136.2430 C   0  0  0  0  0  3  0  0  0  0  0  0
  187.1190  177.9900  135.1230 C   0  0  0  0  0  3  0  0  0  0  0  0
  188.2060  176.9080  137.0880 C   0  0  1  0  0  3  0  0  0  0  0  0
  186.7450  175.6390  135.3920 C   0  0  0  0  0  0  0  0  0  0  0  0
  187.4550  175.6690  136.6800 C   0  0  0  0  0  0  0  0  0  0  0  0
  186.2460  174.3910  134.9130 N   0  0  0  0  0  0  0  0  0  0  0  0
  186.7510  173.3710  137.0930 C   0  0  0  0  0  2  0  0  0  0  0  0
  187.4890  174.5990  137.4170 N   0  0  0  0  0  0  0  0  0  0  0  0
  186.2720  173.3280  135.6600 C   0  0  0  0  0  3  0  0  0  0  0  0
  190.1400  176.5960  140.7350 C   0  0  0  0  0  2  0  0  0  0  0  0
  188.0760  177.2940  141.9720 C   0  0  2  0  0  3  0  0  0  0  0  0
  187.7110  178.4450  139.9360 C   0  0  0  0  0  2  0  0  0  0  0  0
  189.8590  177.3320  139.4920 N   0  0  0  0  0  0  0  0  0  0  0  0
  189.1540  178.6160  139.4760 C   0  0  0  0  0  2  0  0  0  0  0  0
  189.5950  177.2580  141.9980 C   0  0  0  0  0  2  0  0  0  0  0  0
  187.6280  178.5500  141.3860 N   0  0  0  0  0  2  0  0  0  0  0  0
  187.5570  177.1880  143.3930 C   0  0  0  0  0  2  0  0  0  0  0  0
  188.6400  176.9570  144.2860 O   0  0  0  0  0  0  0  0  0  0  0  0
  189.6350  177.5630  147.8170 C   0  0  0  0  0  3  0  0  0  0  0  0
  188.5870  177.2970  145.6400 C   0  0  0  0  0  0  0  0  0  0  0  0
  187.2850  178.0720  147.5350 C   0  0  0  0  0  3  0  0  0  0  0  0
  188.4160  177.9910  148.3510 C   0  0  0  0  0  3  0  0  0  0  0  0
  187.3710  177.7250  146.1830 C   0  0  0  0  0  3  0  0  0  0  0  0
  189.7210  177.2170  146.4650 C   0  0  0  0  0  3  0  0  0  0  0  0
  196.0290  175.3820  135.8430 C   0  0  0  0  0  1  0  0  0  0  0  0
  194.6120  175.6980  135.8870 N   0  0  0  0  0  2  0  0  0  0  0  0
  193.8750  175.7150  137.1130 C   0  0  0  0  0  0  0  0  0  0  0  0
  194.4580  175.4500  138.2010 O   0  0  0  0  0  0  0  0  0  0  0  0
  1 34  1  0  0  0  0
  1  2  1  0  0  0  0
  2  5  2  0  0  0  0
  3  1  2  0  0  0  0
  4  5  1  0  0  0  0
  5 20  1  0  0  0  0
  6  3  1  0  0  0  0
  6  4  2  0  0  0  0
  7  9  1  0  0  0  0
  7 11  2  0  0  0  0
  8 10  1  0  0  0  0
  9  8  2  0  0  0  0
 10  4  1  6  0  0  0
 11 12  1  0  0  0  0
 12 10  1  0  0  0  0
 12 15  2  0  0  0  0
 13 11  1  0  0  0  0
 13 16  2  0  0  0  0
 14 15  1  0  0  0  0
 16 14  1  0  0  0  0
 17 22  1  0  0  0  0
 18 22  1  0  0  0  0
 18 24  1  1  0  0  0
 19 23  1  0  0  0  0
 20 17  1  0  0  0  0
 21 20  1  0  0  0  0
 21 19  1  0  0  0  0
 23 18  1  0  0  0  0
 24 25  1  0  0  0  0
 25 27  1  0  0  0  0
 26 29  1  0  0  0  0
 27 30  2  0  0  0  0
 27 31  1  0  0  0  0
 28 29  2  0  0  0  0
 30 28  1  0  0  0  0
 31 26  2  0  0  0  0
 32 33  1  0  0  0  0
 33 34  1  0  0  0  0
 34 35  2  0  0  0  0
M  END
>  <MODEL>
1

>  <REMARK>
 VINA RESULT:      -8.3      0.000      0.000
  Name = 
  6 active torsions:
  status: ('A' for Active; 'I' for Inactive)
    1  A    between atoms: C_3  and  O_24
    2  A    between atoms: C_6  and  C_21
    3  A    between atoms: C_10  and  C_18
    4  A    between atoms: C_12  and  C_23
    5  A    between atoms: N_14  and  C_26
    6  A    between atoms: C_18  and  O_24
                            x       y       z     vdW  Elec       q    Type
                         _______ _______ _______ _____ _____    ______ ____

>  <TORSDO>
F 6

$$$$
=
 OpenBabel10232410453D

 35 39  0  0  1  0  0  0  0  0999 V2000
  181.2360  180.2920  137.8590 C   0  0  0  0  0  0  0  0  0  0  0  0
  182.0660  180.0750  138.9650 C   0  0  0  0  0  3  0  0  0  0  0  0
  180.5860  179.2020  137.2690 C   0  0  0  0  0  3  0  0  0  0  0  0
  181.5820  177.6960  138.8980 C   0  0  0  0  0  0  0  0  0  0  0  0
  182.2460  178.7910  139.5000 C   0  0  0  0  0  0  0  0  0  0  0  0
  180.7630  177.9160  137.7800 C   0  0  0  0  0  3  0  0  0  0  0  0
  180.6260  173.9910  138.0950 N   0  0  0  0  0  0  0  0  0  0  0  0
  180.5450  175.6440  139.8600 C   0  0  0  0  0  3  0  0  0  0  0  0
  180.0010  174.5910  139.2390 C   0  0  0  0  0  3  0  0  0  0  0  0
  181.8220  176.2890  139.3740 C   0  0  1  0  0  3  0  0  0  0  0  0
  181.7920  174.3690  137.6620 C   0  0  0  0  0  0  0  0  0  0  0  0
  182.5150  175.4660  138.3220 C   0  0  0  0  0  0  0  0  0  0  0  0
  182.3710  173.7600  136.5090 N   0  0  0  0  0  0  0  0  0  0  0  0
  184.4630  174.9800  136.9390 C   0  0  0  0  0  2  0  0  0  0  0  0
  183.7190  175.7620  137.9350 N   0  0  0  0  0  0  0  0  0  0  0  0
  183.5810  174.0520  136.1350 C   0  0  0  0  0  3  0  0  0  0  0  0
  182.5340  178.7470  141.9740 C   0  0  0  0  0  2  0  0  0  0  0  0
  184.6430  179.3990  143.1590 C   0  0  2  0  0  3  0  0  0  0  0  0
  185.4920  179.1690  140.9620 C   0  0  0  0  0  2  0  0  0  0  0  0
  183.1180  178.6210  140.6300 N   0  0  0  0  0  0  0  0  0  0  0  0
  184.4910  178.1640  140.4040 C   0  0  0  0  0  2  0  0  0  0  0  0
  183.4920  178.4080  143.1130 C   0  0  0  0  0  2  0  0  0  0  0  0
  185.7560  178.8910  142.3680 N   0  0  0  0  0  2  0  0  0  0  0  0
  185.0880  179.5700  144.5990 C   0  0  0  0  0  2  0  0  0  0  0  0
  185.3870  178.3000  145.1650 O   0  0  0  0  0  0  0  0  0  0  0  0
  188.8580  177.2970  146.0440 C   0  0  0  0  0  3  0  0  0  0  0  0
  186.5540  178.0560  145.8940 C   0  0  0  0  0  0  0  0  0  0  0  0
  187.7200  178.1070  148.0210 C   0  0  0  0  0  3  0  0  0  0  0  0
  188.8640  177.5860  147.4120 C   0  0  0  0  0  3  0  0  0  0  0  0
  186.5680  178.3410  147.2640 C   0  0  0  0  0  3  0  0  0  0  0  0
  187.7060  177.5310  145.2860 C   0  0  0  0  0  3  0  0  0  0  0  0
  180.5180  183.1530  135.3640 C   0  0  0  0  0  1  0  0  0  0  0  0
  180.7060  181.8330  135.9430 N   0  0  0  0  0  2  0  0  0  0  0  0
  181.0550  181.6510  137.3180 C   0  0  0  0  0  0  0  0  0  0  0  0
  181.2060  182.6540  138.0680 O   0  0  0  0  0  0  0  0  0  0  0  0
  1  2  1  0  0  0  0
  2  5  2  0  0  0  0
  3  6  1  0  0  0  0
  3  1  2  0  0  0  0
  4  5  1  0  0  0  0
  5 20  1  0  0  0  0
  6  4  2  0  0  0  0
  7  9  1  0  0  0  0
  9  8  2  0  0  0  0
 10  4  1  6  0  0  0
 10  8  1  0  0  0  0
 11  7  2  0  0  0  0
 11 12  1  0  0  0  0
 12 10  1  0  0  0  0
 13 11  1  0  0  0  0
 14 15  1  0  0  0  0
 15 12  2  0  0  0  0
 16 13  2  0  0  0  0
 16 14  1  0  0  0  0
 17 22  1  0  0  0  0
 18 24  1  1  0  0  0
 19 23  1  0  0  0  0
 20 17  1  0  0  0  0
 21 20  1  0  0  0  0
 21 19  1  0  0  0  0
 22 18  1  0  0  0  0
 23 18  1  0  0  0  0
 24 25  1  0  0  0  0
 25 27  1  0  0  0  0
 26 29  1  0  0  0  0
 27 30  2  0  0  0  0
 29 28  2  0  0  0  0
 30 28  1  0  0  0  0
 31 27  1  0  0  0  0
 31 26  2  0  0  0  0
 32 33  1  0  0  0  0
 33 34  1  0  0  0  0
 34  1  1  0  0  0  0
 34 35  2  0  0  0  0
M  END
>  <MODEL>
2

>  <REMARK>
 VINA RESULT:      -8.1      5.441      7.923
  Name = 
  6 active torsions:
  status: ('A' for Active; 'I' for Inactive)
    1  A    between atoms: C_3  and  O_24
    2  A    between atoms: C_6  and  C_21
    3  A    between atoms: C_10  and  C_18
    4  A    between atoms: C_12  and  C_23
    5  A    between atoms: N_14  and  C_26
    6  A    between atoms: C_18  and  O_24
                            x       y       z     vdW  Elec       q    Type
                         _______ _______ _______ _____ _____    ______ ____

>  <TORSDO>
F 6

$$$$
=
 OpenBabel10232410453D

 35 39  0  0  1  0  0  0  0  0999 V2000
  184.4690  178.6970  143.5480 C   0  0  0  0  0  0  0  0  0  0  0  0
  185.5810  178.6360  142.7000 C   0  0  0  0  0  3  0  0  0  0  0  0
  183.1860  178.6160  142.9970 C   0  0  0  0  0  3  0  0  0  0  0  0
  184.1310  178.3980  140.7670 C   0  0  0  0  0  0  0  0  0  0  0  0
  185.4330  178.4820  141.3140 C   0  0  0  0  0  0  0  0  0  0  0  0
  183.0180  178.4750  141.6190 C   0  0  0  0  0  3  0  0  0  0  0  0
  181.3550  177.7150  138.0990 N   0  0  0  0  0  0  0  0  0  0  0  0
  183.5260  176.9420  138.8360 C   0  0  0  0  0  3  0  0  0  0  0  0
  182.3250  176.6770  138.3100 C   0  0  0  0  0  3  0  0  0  0  0  0
  183.9200  178.3320  139.2780 C   0  0  1  0  0  3  0  0  0  0  0  0
  181.6210  178.9680  138.3140 C   0  0  0  0  0  0  0  0  0  0  0  0
  182.9400  179.3770  138.8180 C   0  0  0  0  0  0  0  0  0  0  0  0
  180.6230  179.9680  138.1110 N   0  0  0  0  0  0  0  0  0  0  0  0
  182.3210  181.7100  138.4710 C   0  0  0  0  0  2  0  0  0  0  0  0
  183.2170  180.6420  138.9320 N   0  0  0  0  0  0  0  0  0  0  0  0
  180.9100  181.2310  138.2140 C   0  0  0  0  0  3  0  0  0  0  0  0
  186.4200  178.3070  139.0330 C   0  0  0  0  0  2  0  0  0  0  0  0
  188.6390  177.2550  138.5350 C   0  0  2  0  0  3  0  0  0  0  0  0
  188.8500  177.5060  140.8790 C   0  0  0  0  0  2  0  0  0  0  0  0
  186.6070  178.4360  140.4860 N   0  0  0  0  0  0  0  0  0  0  0  0
  187.9150  178.6910  141.0960 C   0  0  0  0  0  2  0  0  0  0  0  0
  187.7070  178.4130  138.2190 C   0  0  0  0  0  2  0  0  0  0  0  0
  189.5480  177.6400  139.6080 N   0  0  0  0  0  2  0  0  0  0  0  0
  189.4420  176.9170  137.2940 C   0  0  0  0  0  2  0  0  0  0  0  0
  188.6050  176.2770  136.3380 O   0  0  0  0  0  0  0  0  0  0  0  0
  187.8030  172.7020  136.9710 C   0  0  0  0  0  3  0  0  0  0  0  0
  187.8980  175.1050  136.6200 C   0  0  0  0  0  0  0  0  0  0  0  0
  185.7830  174.0270  137.1190 C   0  0  0  0  0  3  0  0  0  0  0  0
  186.4250  172.7880  137.1870 C   0  0  0  0  0  3  0  0  0  0  0  0
  186.5180  175.1820  136.8360 C   0  0  0  0  0  3  0  0  0  0  0  0
  188.5390  173.8570  136.6890 C   0  0  0  0  0  3  0  0  0  0  0  0
  186.1620  178.7870  147.0190 C   0  0  0  0  0  1  0  0  0  0  0  0
  185.9360  178.6480  145.5910 N   0  0  0  0  0  2  0  0  0  0  0  0
  184.6480  178.8510  145.0020 C   0  0  0  0  0  0  0  0  0  0  0  0
  183.6660  179.1630  145.7300 O   0  0  0  0  0  0  0  0  0  0  0  0
  1 34  1  0  0  0  0
  2  1  2  0  0  0  0
  3  1  1  0  0  0  0
  4  5  2  0  0  0  0
  4  6  1  0  0  0  0
  5  2  1  0  0  0  0
  6  3  2  0  0  0  0
  7  9  1  0  0  0  0
  7 11  2  0  0  0  0
  8 10  1  0  0  0  0
  9  8  2  0  0  0  0
 10  4  1  1  0  0  0
 11 12  1  0  0  0  0
 12 15  2  0  0  0  0
 12 10  1  0  0  0  0
 13 16  2  0  0  0  0
 13 11  1  0  0  0  0
 14 15  1  0  0  0  0
 16 14  1  0  0  0  0
 17 20  1  0  0  0  0
 18 24  1  6  0  0  0
 18 23  1  0  0  0  0
 19 21  1  0  0  0  0
 20 21  1  0  0  0  0
 20  5  1  0  0  0  0
 22 18  1  0  0  0  0
 22 17  1  0  0  0  0
 23 19  1  0  0  0  0
 25 27  1  0  0  0  0
 25 24  1  0  0  0  0
 26 29  1  0  0  0  0
 27 31  1  0  0  0  0
 27 30  2  0  0  0  0
 28 29  2  0  0  0  0
 30 28  1  0  0  0  0
 31 26  2  0  0  0  0
 33 32  1  0  0  0  0
 34 33  1  0  0  0  0
 34 35  2  0  0  0  0
M  END
>  <MODEL>
3

>  <REMARK>
 VINA RESULT:      -7.0      4.025      8.728
  Name = 
  6 active torsions:
  status: ('A' for Active; 'I' for Inactive)
    1  A    between atoms: C_3  and  O_24
    2  A    between atoms: C_6  and  C_21
    3  A    between atoms: C_10  and  C_18
    4  A    between atoms: C_12  and  C_23
    5  A    between atoms: N_14  and  C_26
    6  A    between atoms: C_18  and  O_24
                            x       y       z     vdW  Elec       q    Type
                         _______ _______ _______ _____ _____    ______ ____

>  <TORSDO>
F 6

$$$$
=
 OpenBabel10232410453D

 35 39  0  0  1  0  0  0  0  0999 V2000
  186.6430  178.0930  138.6040 C   0  0  0  0  0  0  0  0  0  0  0  0
  186.1950  178.4130  139.8910 C   0  0  0  0  0  3  0  0  0  0  0  0
  185.7220  178.0530  137.5510 C   0  0  0  0  0  3  0  0  0  0  0  0
  183.9230  178.6660  139.0690 C   0  0  0  0  0  0  0  0  0  0  0  0
  184.8460  178.7070  140.1410 C   0  0  0  0  0  0  0  0  0  0  0  0
  184.3740  178.3310  137.7830 C   0  0  0  0  0  3  0  0  0  0  0  0
  180.5080  178.7970  137.1700 N   0  0  0  0  0  0  0  0  0  0  0  0
  181.9490  180.1140  138.6000 C   0  0  0  0  0  3  0  0  0  0  0  0
  181.0620  180.0500  137.6000 C   0  0  0  0  0  3  0  0  0  0  0  0
  182.4520  178.8770  139.3060 C   0  0  1  0  0  3  0  0  0  0  0  0
  180.7590  177.6790  137.7830 C   0  0  0  0  0  0  0  0  0  0  0  0
  181.6600  177.6500  138.9450 C   0  0  0  0  0  0  0  0  0  0  0  0
  180.2040  176.4520  137.3130 N   0  0  0  0  0  0  0  0  0  0  0  0
  181.0520  175.3180  139.3240 C   0  0  0  0  0  2  0  0  0  0  0  0
  181.8190  176.5400  139.6030 N   0  0  0  0  0  0  0  0  0  0  0  0
  180.3570  175.3480  137.9820 C   0  0  0  0  0  3  0  0  0  0  0  0
  185.4840  179.3090  142.4730 C   0  0  0  0  0  2  0  0  0  0  0  0
  184.1670  178.6650  144.5050 C   0  0  2  0  0  3  0  0  0  0  0  0
  182.5430  178.2280  142.8400 C   0  0  0  0  0  2  0  0  0  0  0  0
  184.4360  179.0180  141.4830 N   0  0  0  0  0  0  0  0  0  0  0  0
  183.0090  179.2010  141.7640 C   0  0  0  0  0  2  0  0  0  0  0  0
  184.9590  179.7730  143.8300 C   0  0  0  0  0  2  0  0  0  0  0  0
  182.7560  178.7970  144.1630 N   0  0  0  0  0  2  0  0  0  0  0  0
  184.3330  178.7870  146.0080 C   0  0  0  0  0  2  0  0  0  0  0  0
  185.6010  179.3570  146.3080 O   0  0  0  0  0  0  0  0  0  0  0  0
  188.6090  177.2020  145.9460 C   0  0  0  0  0  3  0  0  0  0  0  0
  186.7230  178.5830  146.6130 C   0  0  0  0  0  0  0  0  0  0  0  0
  188.2030  177.6450  148.2910 C   0  0  0  0  0  3  0  0  0  0  0  0
  188.9640  177.0400  147.2880 C   0  0  0  0  0  3  0  0  0  0  0  0
  187.0850  178.4140  147.9530 C   0  0  0  0  0  3  0  0  0  0  0  0
  187.4920  177.9720  145.6080 C   0  0  0  0  0  3  0  0  0  0  0  0
  189.8480  176.1620  137.6450 C   0  0  0  0  0  1  0  0  0  0  0  0
  188.4580  176.5020  137.8970 N   0  0  0  0  0  2  0  0  0  0  0  0
  188.0660  177.7960  138.3630 C   0  0  0  0  0  0  0  0  0  0  0  0
  188.9390  178.6840  138.5660 O   0  0  0  0  0  0  0  0  0  0  0  0
  1  2  1  0  0  0  0
  2  5  2  0  0  0  0
  3  6  1  0  0  0  0
  3  1  2  0  0  0  0
  4  5  1  0  0  0  0
  5 20  1  0  0  0  0
  6  4  2  0  0  0  0
  7  9  1  0  0  0  0
  7 11  2  0  0  0  0
  8 10  1  0  0  0  0
  9  8  2  0  0  0  0
 10  4  1  6  0  0  0
 11 12  1  0  0  0  0
 12 10  1  0  0  0  0
 12 15  2  0  0  0  0
 13 11  1  0  0  0  0
 13 16  2  0  0  0  0
 14 15  1  0  0  0  0
 16 14  1  0  0  0  0
 17 22  1  0  0  0  0
 18 24  1  1  0  0  0
 19 23  1  0  0  0  0
 20 21  1  0  0  0  0
 20 17  1  0  0  0  0
 21 19  1  0  0  0  0
 22 18  1  0  0  0  0
 23 18  1  0  0  0  0
 24 25  1  0  0  0  0
 25 27  1  0  0  0  0
 26 29  1  0  0  0  0
 27 30  2  0  0  0  0
 29 28  2  0  0  0  0
 30 28  1  0  0  0  0
 31 26  2  0  0  0  0
 31 27  1  0  0  0  0
 32 33  1  0  0  0  0
 33 34  1  0  0  0  0
 34 35  2  0  0  0  0
 34  1  1  0  0  0  0
M  END
>  <MODEL>
4

>  <REMARK>
 VINA RESULT:      -6.8      4.393      5.727
  Name = 
  6 active torsions:
  status: ('A' for Active; 'I' for Inactive)
    1  A    between atoms: C_3  and  O_24
    2  A    between atoms: C_6  and  C_21
    3  A    between atoms: C_10  and  C_18
    4  A    between atoms: C_12  and  C_23
    5  A    between atoms: N_14  and  C_26
    6  A    between atoms: C_18  and  O_24
                            x       y       z     vdW  Elec       q    Type
                         _______ _______ _______ _____ _____    ______ ____

>  <TORSDO>
F 6

$$$$
=
 OpenBabel10232410453D

 35 39  0  0  1  0  0  0  0  0999 V2000
  187.6180  177.8010  137.4580 C   0  0  0  0  0  0  0  0  0  0  0  0
  187.6030  177.9680  138.8470 C   0  0  0  0  0  3  0  0  0  0  0  0
  186.4340  177.9780  136.7360 C   0  0  0  0  0  3  0  0  0  0  0  0
  185.2340  178.5020  138.7850 C   0  0  0  0  0  0  0  0  0  0  0  0
  186.4270  178.3220  139.5260 C   0  0  0  0  0  0  0  0  0  0  0  0
  185.2510  178.3190  137.3940 C   0  0  0  0  0  3  0  0  0  0  0  0
  181.4760  179.2770  138.0310 N   0  0  0  0  0  0  0  0  0  0  0  0
  183.4220  180.1720  139.1590 C   0  0  0  0  0  3  0  0  0  0  0  0
  182.2920  180.3740  138.4700 C   0  0  0  0  0  3  0  0  0  0  0  0
  183.9290  178.7850  139.4780 C   0  0  1  0  0  3  0  0  0  0  0  0
  181.7340  178.0460  138.3570 C   0  0  0  0  0  0  0  0  0  0  0  0
  182.9090  177.7200  139.1790 C   0  0  0  0  0  0  0  0  0  0  0  0
  180.9100  176.9820  137.8840 N   0  0  0  0  0  0  0  0  0  0  0  0
  182.1210  175.4180  139.3460 C   0  0  0  0  0  2  0  0  0  0  0  0
  183.0920  176.4960  139.5750 N   0  0  0  0  0  0  0  0  0  0  0  0
  181.0910  175.7620  138.2940 C   0  0  0  0  0  3  0  0  0  0  0  0
  187.6890  178.0690  141.6590 C   0  0  0  0  0  2  0  0  0  0  0  0
  186.6240  177.6010  143.8790 C   0  0  2  0  0  3  0  0  0  0  0  0
  184.7050  178.2650  142.6630 C   0  0  0  0  0  2  0  0  0  0  0  0
  186.4610  178.4700  140.9550 N   0  0  0  0  0  0  0  0  0  0  0  0
  185.3580  179.1660  141.6220 C   0  0  0  0  0  2  0  0  0  0  0  0
  187.6970  178.3950  143.1500 C   0  0  0  0  0  2  0  0  0  0  0  0
  185.3960  178.3830  143.9400 N   0  0  0  0  0  2  0  0  0  0  0  0
  187.1030  177.3060  145.2870 C   0  0  0  0  0  2  0  0  0  0  0  0
  188.2950  178.0340  145.5540 O   0  0  0  0  0  0  0  0  0  0  0  0
  191.0760  176.4790  147.4700 C   0  0  0  0  0  3  0  0  0  0  0  0
  189.5060  177.4100  145.8660 C   0  0  0  0  0  0  0  0  0  0  0  0
  191.6070  176.4610  145.1090 C   0  0  0  0  0  3  0  0  0  0  0  0
  191.9500  176.1580  146.4280 C   0  0  0  0  0  3  0  0  0  0  0  0
  190.3870  177.0860  144.8290 C   0  0  0  0  0  3  0  0  0  0  0  0
  189.8560  177.1030  147.1910 C   0  0  0  0  0  3  0  0  0  0  0  0
  191.0960  176.2560  136.7920 C   0  0  0  0  0  1  0  0  0  0  0  0
  189.8490  176.6400  137.4330 N   0  0  0  0  0  2  0  0  0  0  0  0
  188.8670  177.4360  136.7650 C   0  0  0  0  0  0  0  0  0  0  0  0
  189.0700  177.8260  135.5820 O   0  0  0  0  0  0  0  0  0  0  0  0
  1  2  1  0  0  0  0
  2  5  2  0  0  0  0
  3  6  1  0  0  0  0
  3  1  2  0  0  0  0
  4  5  1  0  0  0  0
  5 20  1  0  0  0  0
  6  4  2  0  0  0  0
  7 11  2  0  0  0  0
  7  9  1  0  0  0  0
  8 10  1  0  0  0  0
  9  8  2  0  0  0  0
 10  4  1  6  0  0  0
 11 12  1  0  0  0  0
 12 10  1  0  0  0  0
 12 15  2  0  0  0  0
 13 16  2  0  0  0  0
 13 11  1  0  0  0  0
 14 15  1  0  0  0  0
 16 14  1  0  0  0  0
 17 22  1  0  0  0  0
 18 23  1  0  0  0  0
 18 24  1  1  0  0  0
 19 23  1  0  0  0  0
 20 21  1  0  0  0  0
 20 17  1  0  0  0  0
 21 19  1  0  0  0  0
 22 18  1  0  0  0  0
 24 25  1  0  0  0  0
 25 27  1  0  0  0  0
 27 31  2  0  0  0  0
 28 29  1  0  0  0  0
 29 26  2  0  0  0  0
 30 28  2  0  0  0  0
 30 27  1  0  0  0  0
 31 26  1  0  0  0  0
 32 33  1  0  0  0  0
 34 33  1  0  0  0  0
 34  1  1  0  0  0  0
 35 34  2  0  0  0  0
M  END
>  <MODEL>
5

>  <REMARK>
 VINA RESULT:      -6.8      3.580      4.749
  Name = 
  6 active torsions:
  status: ('A' for Active; 'I' for Inactive)
    1  A    between atoms: C_3  and  O_24
    2  A    between atoms: C_6  and  C_21
    3  A    between atoms: C_10  and  C_18
    4  A    between atoms: C_12  and  C_23
    5  A    between atoms: N_14  and  C_26
    6  A    between atoms: C_18  and  O_24
                            x       y       z     vdW  Elec       q    Type
                         _______ _______ _______ _____ _____    ______ ____

>  <TORSDO>
F 6

$$$$
=
 OpenBabel10232410453D

 35 39  0  0  1  0  0  0  0  0999 V2000
  184.3020  178.7030  143.5610 C   0  0  0  0  0  0  0  0  0  0  0  0
  185.4180  178.6310  142.7190 C   0  0  0  0  0  3  0  0  0  0  0  0
  183.0210  178.6350  143.0040 C   0  0  0  0  0  3  0  0  0  0  0  0
  183.9750  178.4080  140.7780 C   0  0  0  0  0  0  0  0  0  0  0  0
  185.2750  178.4790  141.3320 C   0  0  0  0  0  0  0  0  0  0  0  0
  182.8590  178.4960  141.6250 C   0  0  0  0  0  3  0  0  0  0  0  0
  181.2020  177.7700  138.0960 N   0  0  0  0  0  0  0  0  0  0  0  0
  183.3560  176.9620  138.8450 C   0  0  0  0  0  3  0  0  0  0  0  0
  182.1530  176.7170  138.3130 C   0  0  0  0  0  3  0  0  0  0  0  0
  183.7700  178.3450  139.2880 C   0  0  1  0  0  3  0  0  0  0  0  0
  181.4880  179.0190  138.3120 C   0  0  0  0  0  0  0  0  0  0  0  0
  182.8110  179.4060  138.8230 C   0  0  0  0  0  0  0  0  0  0  0  0
  180.5080  180.0350  138.1030 N   0  0  0  0  0  0  0  0  0  0  0  0
  182.2330  181.7490  138.4710 C   0  0  0  0  0  2  0  0  0  0  0  0
  183.1090  180.6660  138.9370 N   0  0  0  0  0  0  0  0  0  0  0  0
  180.8160  181.2930  138.2070 C   0  0  0  0  0  3  0  0  0  0  0  0
  186.2770  178.1650  139.0720 C   0  0  0  0  0  2  0  0  0  0  0  0
  188.5460  177.1840  138.6610 C   0  0  2  0  0  3  0  0  0  0  0  0
  188.7360  177.6370  140.9770 C   0  0  0  0  0  2  0  0  0  0  0  0
  186.4530  178.4220  140.5100 N   0  0  0  0  0  0  0  0  0  0  0  0
  187.7450  178.7880  141.0960 C   0  0  0  0  0  2  0  0  0  0  0  0
  187.5600  178.2660  138.2510 C   0  0  0  0  0  2  0  0  0  0  0  0
  189.4310  177.6990  139.6980 N   0  0  0  0  0  2  0  0  0  0  0  0
  189.3680  176.7840  137.4520 C   0  0  0  0  0  2  0  0  0  0  0  0
  189.8910  175.4740  137.6360 O   0  0  0  0  0  0  0  0  0  0  0  0
  193.0910  173.7630  136.8250 C   0  0  0  0  0  3  0  0  0  0  0  0
  191.2550  175.1860  137.5410 C   0  0  0  0  0  0  0  0  0  0  0  0
  193.5480  175.8200  138.0170 C   0  0  0  0  0  3  0  0  0  0  0  0
  194.0050  174.6620  137.3810 C   0  0  0  0  0  3  0  0  0  0  0  0
  192.1760  176.0800  138.0960 C   0  0  0  0  0  3  0  0  0  0  0  0
  191.7190  174.0230  136.9030 C   0  0  0  0  0  3  0  0  0  0  0  0
  185.9810  178.7900  147.0390 C   0  0  0  0  0  1  0  0  0  0  0  0
  185.7610  178.6520  145.6090 N   0  0  0  0  0  2  0  0  0  0  0  0
  184.4760  178.8540  145.0160 C   0  0  0  0  0  0  0  0  0  0  0  0
  183.4890  179.1640  145.7410 O   0  0  0  0  0  0  0  0  0  0  0  0
  1 34  1  0  0  0  0
  2  1  2  0  0  0  0
  3  1  1  0  0  0  0
  4  5  2  0  0  0  0
  4  6  1  0  0  0  0
  5  2  1  0  0  0  0
  6  3  2  0  0  0  0
  7 11  2  0  0  0  0
  7  9  1  0  0  0  0
  8 10  1  0  0  0  0
  9  8  2  0  0  0  0
 10  4  1  1  0  0  0
 11 12  1  0  0  0  0
 12 15  2  0  0  0  0
 12 10  1  0  0  0  0
 13 16  2  0  0  0  0
 13 11  1  0  0  0  0
 14 15  1  0  0  0  0
 16 14  1  0  0  0  0
 17 20  1  0  0  0  0
 18 24  1  6  0  0  0
 18 23  1  0  0  0  0
 19 21  1  0  0  0  0
 20 21  1  0  0  0  0
 20  5  1  0  0  0  0
 22 18  1  0  0  0  0
 22 17  1  0  0  0  0
 23 19  1  0  0  0  0
 24 25  1  0  0  0  0
 26 31  2  0  0  0  0
 26 29  1  0  0  0  0
 27 25  1  0  0  0  0
 27 30  2  0  0  0  0
 28 30  1  0  0  0  0
 29 28  2  0  0  0  0
 31 27  1  0  0  0  0
 33 32  1  0  0  0  0
 34 33  1  0  0  0  0
 34 35  2  0  0  0  0
M  END
>  <MODEL>
6

>  <REMARK>
 VINA RESULT:      -6.8      4.073      8.776
  Name = 
  6 active torsions:
  status: ('A' for Active; 'I' for Inactive)
    1  A    between atoms: C_3  and  O_24
    2  A    between atoms: C_6  and  C_21
    3  A    between atoms: C_10  and  C_18
    4  A    between atoms: C_12  and  C_23
    5  A    between atoms: N_14  and  C_26
    6  A    between atoms: C_18  and  O_24
                            x       y       z     vdW  Elec       q    Type
                         _______ _______ _______ _____ _____    ______ ____

>  <TORSDO>
F 6

$$$$
=
 OpenBabel10232410453D

 35 39  0  0  1  0  0  0  0  0999 V2000
  181.2760  179.7340  136.1830 C   0  0  0  0  0  0  0  0  0  0  0  0
  181.6820  179.8770  137.5140 C   0  0  0  0  0  3  0  0  0  0  0  0
  181.4800  178.5120  135.5340 C   0  0  0  0  0  3  0  0  0  0  0  0
  182.4760  177.5820  137.5480 C   0  0  0  0  0  0  0  0  0  0  0  0
  182.2770  178.8150  138.2130 C   0  0  0  0  0  0  0  0  0  0  0  0
  182.0810  177.4480  136.2080 C   0  0  0  0  0  3  0  0  0  0  0  0
  183.7370  173.9390  136.8950 N   0  0  0  0  0  0  0  0  0  0  0  0
  182.3120  175.2320  138.3620 C   0  0  0  0  0  3  0  0  0  0  0  0
  182.5720  174.0860  137.7210 C   0  0  0  0  0  3  0  0  0  0  0  0
  183.1980  176.4470  138.2240 C   0  0  1  0  0  3  0  0  0  0  0  0
  184.6440  174.8640  136.8010 C   0  0  0  0  0  0  0  0  0  0  0  0
  184.4950  176.1340  137.5290 C   0  0  0  0  0  0  0  0  0  0  0  0
  185.7780  174.6870  135.9530 N   0  0  0  0  0  0  0  0  0  0  0  0
  186.7610  176.7480  136.8690 C   0  0  0  0  0  2  0  0  0  0  0  0
  185.4600  177.0040  137.4990 N   0  0  0  0  0  0  0  0  0  0  0  0
  186.7440  175.5560  135.9390 C   0  0  0  0  0  3  0  0  0  0  0  0
  184.1250  178.9670  139.8770 C   0  0  0  0  0  2  0  0  0  0  0  0
  183.9070  178.3200  142.2870 C   0  0  2  0  0  3  0  0  0  0  0  0
  181.6150  178.4280  141.7090 C   0  0  0  0  0  2  0  0  0  0  0  0
  182.6860  179.0170  139.5750 N   0  0  0  0  0  0  0  0  0  0  0  0
  181.6850  179.4300  140.5630 C   0  0  0  0  0  2  0  0  0  0  0  0
  184.4820  179.3360  141.3140 C   0  0  0  0  0  2  0  0  0  0  0  0
  182.5930  178.7640  142.7340 N   0  0  0  0  0  2  0  0  0  0  0  0
  184.8330  178.2060  143.4830 C   0  0  0  0  0  2  0  0  0  0  0  0
  186.1130  177.7550  143.0600 O   0  0  0  0  0  0  0  0  0  0  0  0
  188.1170  177.5430  146.1860 C   0  0  0  0  0  3  0  0  0  0  0  0
  187.1880  177.6030  143.9400 C   0  0  0  0  0  0  0  0  0  0  0  0
  189.5570  177.1940  144.2710 C   0  0  0  0  0  3  0  0  0  0  0  0
  189.3840  177.2900  145.6540 C   0  0  0  0  0  3  0  0  0  0  0  0
  188.4610  177.3500  143.4170 C   0  0  0  0  0  3  0  0  0  0  0  0
  187.0210  177.6990  145.3310 C   0  0  0  0  0  3  0  0  0  0  0  0
  180.0980  183.3200  135.3590 C   0  0  0  0  0  1  0  0  0  0  0  0
  180.7040  182.1790  136.0230 N   0  0  0  0  0  2  0  0  0  0  0  0
  180.6460  180.8600  135.4710 C   0  0  0  0  0  0  0  0  0  0  0  0
  180.0560  180.6630  134.3730 O   0  0  0  0  0  0  0  0  0  0  0  0
  1  2  1  0  0  0  0
  2  5  2  0  0  0  0
  3  1  2  0  0  0  0
  3  6  1  0  0  0  0
  4  5  1  0  0  0  0
  5 20  1  0  0  0  0
  6  4  2  0  0  0  0
  7  9  1  0  0  0  0
  9  8  2  0  0  0  0
 10  4  1  6  0  0  0
 10  8  1  0  0  0  0
 11  7  2  0  0  0  0
 11 12  1  0  0  0  0
 12 10  1  0  0  0  0
 13 11  1  0  0  0  0
 14 15  1  0  0  0  0
 15 12  2  0  0  0  0
 16 13  2  0  0  0  0
 16 14  1  0  0  0  0
 17 22  1  0  0  0  0
 18 23  1  0  0  0  0
 18 24  1  1  0  0  0
 19 23  1  0  0  0  0
 20 17  1  0  0  0  0
 20 21  1  0  0  0  0
 21 19  1  0  0  0  0
 22 18  1  0  0  0  0
 25 24  1  0  0  0  0
 25 27  1  0  0  0  0
 27 31  1  0  0  0  0
 28 29  2  0  0  0  0
 29 26  1  0  0  0  0
 30 27  2  0  0  0  0
 30 28  1  0  0  0  0
 31 26  2  0  0  0  0
 32 33  1  0  0  0  0
 34 33  1  0  0  0  0
 34  1  1  0  0  0  0
 35 34  2  0  0  0  0
M  END
>  <MODEL>
7

>  <REMARK>
 VINA RESULT:      -6.8      5.003      7.716
  Name = 
  6 active torsions:
  status: ('A' for Active; 'I' for Inactive)
    1  A    between atoms: C_3  and  O_24
    2  A    between atoms: C_6  and  C_21
    3  A    between atoms: C_10  and  C_18
    4  A    between atoms: C_12  and  C_23
    5  A    between atoms: N_14  and  C_26
    6  A    between atoms: C_18  and  O_24
                            x       y       z     vdW  Elec       q    Type
                         _______ _______ _______ _____ _____    ______ ____

>  <TORSDO>
F 6

$$$$
=
 OpenBabel10232410453D

 35 39  0  0  1  0  0  0  0  0999 V2000
  187.3680  178.1220  141.9940 C   0  0  0  0  0  0  0  0  0  0  0  0
  186.0490  178.3340  141.5760 C   0  0  0  0  0  3  0  0  0  0  0  0
  188.3730  177.9740  141.0330 C   0  0  0  0  0  3  0  0  0  0  0  0
  186.7460  178.2660  139.2500 C   0  0  0  0  0  0  0  0  0  0  0  0
  185.7210  178.4130  140.2140 C   0  0  0  0  0  0  0  0  0  0  0  0
  188.0640  178.0390  139.6740 C   0  0  0  0  0  3  0  0  0  0  0  0
  188.1460  176.9730  135.8360 N   0  0  0  0  0  0  0  0  0  0  0  0
  187.4660  178.9950  136.9780 C   0  0  0  0  0  3  0  0  0  0  0  0
  188.2640  178.3800  136.0970 C   0  0  0  0  0  3  0  0  0  0  0  0
  186.4280  178.2460  137.7790 C   0  0  1  0  0  3  0  0  0  0  0  0
  187.2070  176.2450  136.3610 C   0  0  0  0  0  0  0  0  0  0  0  0
  186.2270  176.8390  137.2830 C   0  0  0  0  0  0  0  0  0  0  0  0
  187.1350  174.8460  136.0920 N   0  0  0  0  0  0  0  0  0  0  0  0
  184.9670  174.7520  137.2490 C   0  0  0  0  0  2  0  0  0  0  0  0
  185.2390  176.1170  137.7180 N   0  0  0  0  0  0  0  0  0  0  0  0
  186.1370  174.1320  136.5200 C   0  0  0  0  0  3  0  0  0  0  0  0
  184.0560  179.6900  138.8690 C   0  0  0  0  0  2  0  0  0  0  0  0
  181.6870  180.0960  139.5760 C   0  0  2  0  0  3  0  0  0  0  0  0
  182.2510  178.3680  141.0930 C   0  0  0  0  0  2  0  0  0  0  0  0
  184.3500  178.6210  139.8370 N   0  0  0  0  0  0  0  0  0  0  0  0
  183.3370  177.6640  140.2880 C   0  0  0  0  0  2  0  0  0  0  0  0
  182.6010  179.7470  138.4130 C   0  0  0  0  0  2  0  0  0  0  0  0
  181.2110  178.8710  140.2060 N   0  0  0  0  0  2  0  0  0  0  0  0
  180.5030  180.8850  139.0520 C   0  0  0  0  0  2  0  0  0  0  0  0
  180.8800  182.2400  138.8460 O   0  0  0  0  0  0  0  0  0  0  0  0
  181.1070  184.7940  136.1520 C   0  0  0  0  0  3  0  0  0  0  0  0
  180.8230  182.8570  137.5930 C   0  0  0  0  0  0  0  0  0  0  0  0
  180.3360  182.6960  135.2210 C   0  0  0  0  0  3  0  0  0  0  0  0
  180.6880  184.0380  135.0540 C   0  0  0  0  0  3  0  0  0  0  0  0
  180.4040  182.1080  136.4880 C   0  0  0  0  0  3  0  0  0  0  0  0
  181.1750  184.2060  137.4190 C   0  0  0  0  0  3  0  0  0  0  0  0
  186.9100  177.9360  145.8260 C   0  0  0  0  0  1  0  0  0  0  0  0
  186.6400  178.0070  144.3990 N   0  0  0  0  0  2  0  0  0  0  0  0
  187.6910  178.0490  143.4300 C   0  0  0  0  0  0  0  0  0  0  0  0
  188.8960  178.0240  143.8050 O   0  0  0  0  0  0  0  0  0  0  0  0
  1 34  1  0  0  0  0
  2  1  1  0  0  0  0
  3  1  2  0  0  0  0
  4  6  2  0  0  0  0
  4  5  1  0  0  0  0
  5  2  2  0  0  0  0
  6  3  1  0  0  0  0
  7  9  1  0  0  0  0
  7 11  2  0  0  0  0
  8 10  1  0  0  0  0
  9  8  2  0  0  0  0
 10  4  1  1  0  0  0
 11 12  1  0  0  0  0
 12 15  2  0  0  0  0
 12 10  1  0  0  0  0
 13 11  1  0  0  0  0
 13 16  2  0  0  0  0
 14 15  1  0  0  0  0
 16 14  1  0  0  0  0
 17 20  1  0  0  0  0
 18 24  1  6  0  0  0
 18 23  1  0  0  0  0
 20  5  1  0  0  0  0
 20 21  1  0  0  0  0
 21 19  1  0  0  0  0
 22 17  1  0  0  0  0
 22 18  1  0  0  0  0
 23 19  1  0  0  0  0
 25 24  1  0  0  0  0
 26 31  1  0  0  0  0
 27 25  1  0  0  0  0
 28 30  2  0  0  0  0
 29 28  1  0  0  0  0
 29 26  2  0  0  0  0
 30 27  1  0  0  0  0
 31 27  2  0  0  0  0
 33 32  1  0  0  0  0
 34 35  2  0  0  0  0
 34 33  1  0  0  0  0
M  END
>  <MODEL>
8

>  <REMARK>
 VINA RESULT:      -6.7      4.977      8.481
  Name = 
  6 active torsions:
  status: ('A' for Active; 'I' for Inactive)
    1  A    between atoms: C_3  and  O_24
    2  A    between atoms: C_6  and  C_21
    3  A    between atoms: C_10  and  C_18
    4  A    between atoms: C_12  and  C_23
    5  A    between atoms: N_14  and  C_26
    6  A    between atoms: C_18  and  O_24
                            x       y       z     vdW  Elec       q    Type
                         _______ _______ _______ _____ _____    ______ ____

>  <TORSDO>
F 6

$$$$
=
 OpenBabel10232410453D

 35 39  0  0  1  0  0  0  0  0999 V2000
  191.2200  177.0920  140.0250 C   0  0  0  0  0  0  0  0  0  0  0  0
  190.4820  176.4380  139.0310 C   0  0  0  0  0  3  0  0  0  0  0  0
  192.6020  177.2360  139.8660 C   0  0  0  0  0  3  0  0  0  0  0  0
  192.4990  176.0930  137.7210 C   0  0  0  0  0  0  0  0  0  0  0  0
  191.1000  175.9390  137.8750 C   0  0  0  0  0  0  0  0  0  0  0  0
  193.2360  176.7360  138.7280 C   0  0  0  0  0  3  0  0  0  0  0  0
  195.9530  176.1560  135.8900 N   0  0  0  0  0  0  0  0  0  0  0  0
  193.5910  176.5380  135.5260 C   0  0  0  0  0  3  0  0  0  0  0  0
  194.8650  176.8430  135.2530 C   0  0  0  0  0  3  0  0  0  0  0  0
  193.2190  175.4890  136.5470 C   0  0  1  0  0  3  0  0  0  0  0  0
  195.7650  175.1460  136.6860 C   0  0  0  0  0  0  0  0  0  0  0  0
  194.4060  174.6780  136.9920 C   0  0  0  0  0  0  0  0  0  0  0  0
  196.8720  174.5030  137.3160 N   0  0  0  0  0  0  0  0  0  0  0  0
  195.3580  172.7520  138.1480 C   0  0  0  0  0  2  0  0  0  0  0  0
  194.2460  173.6060  137.7100 N   0  0  0  0  0  0  0  0  0  0  0  0
  196.7060  173.4250  138.0230 C   0  0  0  0  0  3  0  0  0  0  0  0
  189.5520  176.0930  135.9290 C   0  0  0  0  0  2  0  0  0  0  0  0
  187.7610  174.4170  135.4170 C   0  0  2  0  0  3  0  0  0  0  0  0
  189.0300  173.1620  136.9720 C   0  0  0  0  0  2  0  0  0  0  0  0
  190.2990  175.2670  136.8890 N   0  0  0  0  0  0  0  0  0  0  0  0
  190.3950  173.8090  136.7710 C   0  0  0  0  0  2  0  0  0  0  0  0
  188.8470  175.3030  134.8290 C   0  0  0  0  0  2  0  0  0  0  0  0
  188.3100  173.0990  135.7070 N   0  0  0  0  0  2  0  0  0  0  0  0
  186.6370  174.2820  134.4080 C   0  0  0  0  0  2  0  0  0  0  0  0
  185.3910  174.1740  135.0870 O   0  0  0  0  0  0  0  0  0  0  0  0
  184.4920  170.5660  135.0820 C   0  0  0  0  0  3  0  0  0  0  0  0
  184.8330  172.9450  135.4470 C   0  0  0  0  0  0  0  0  0  0  0  0
  183.4470  171.6620  136.9710 C   0  0  0  0  0  3  0  0  0  0  0  0
  183.6830  170.5080  136.2210 C   0  0  0  0  0  3  0  0  0  0  0  0
  184.0210  172.8770  136.5840 C   0  0  0  0  0  3  0  0  0  0  0  0
  185.0670  171.7810  134.6960 C   0  0  0  0  0  3  0  0  0  0  0  0
  190.6420  178.2050  143.6790 C   0  0  0  0  0  1  0  0  0  0  0  0
  191.2610  177.6970  142.4660 N   0  0  0  0  0  2  0  0  0  0  0  0
  190.5490  177.6150  141.2280 C   0  0  0  0  0  0  0  0  0  0  0  0
  189.3460  177.9910  141.1670 O   0  0  0  0  0  0  0  0  0  0  0  0
  1 34  1  0  0  0  0
  2  1  2  0  0  0  0
  3  1  1  0  0  0  0
  4  5  2  0  0  0  0
  4  6  1  0  0  0  0
  5  2  1  0  0  0  0
  6  3  2  0  0  0  0
  7 11  2  0  0  0  0
  8 10  1  0  0  0  0
  9  8  2  0  0  0  0
  9  7  1  0  0  0  0
 10 12  1  0  0  0  0
 10  4  1  1  0  0  0
 11 12  1  0  0  0  0
 11 13  1  0  0  0  0
 12 15  2  0  0  0  0
 13 16  2  0  0  0  0
 15 14  1  0  0  0  0
 16 14  1  0  0  0  0
 17 20  1  0  0  0  0
 18 24  1  6  0  0  0
 18 23  1  0  0  0  0
 20  5  1  0  0  0  0
 21 20  1  0  0  0  0
 21 19  1  0  0  0  0
 22 18  1  0  0  0  0
 22 17  1  0  0  0  0
 23 19  1  0  0  0  0
 24 25  1  0  0  0  0
 25 27  1  0  0  0  0
 26 29  1  0  0  0  0
 27 30  2  0  0  0  0
 29 28  2  0  0  0  0
 30 28  1  0  0  0  0
 31 26  2  0  0  0  0
 31 27  1  0  0  0  0
 33 32  1  0  0  0  0
 34 33  1  0  0  0  0
 35 34  2  0  0  0  0
M  END
>  <MODEL>
9

>  <REMARK>
 VINA RESULT:      -6.3      2.914      8.522
  Name = 
  6 active torsions:
  status: ('A' for Active; 'I' for Inactive)
    1  A    between atoms: C_3  and  O_24
    2  A    between atoms: C_6  and  C_21
    3  A    between atoms: C_10  and  C_18
    4  A    between atoms: C_12  and  C_23
    5  A    between atoms: N_14  and  C_26
    6  A    between atoms: C_18  and  O_24
                            x       y       z     vdW  Elec       q    Type
                         _______ _______ _______ _____ _____    ______ ____

>  <TORSDO>
F 6

$$$$
