=
 OpenBabel10232410043D

 49 56  0  0  1  0  0  0  0  0999 V2000
  190.1120  177.2260  146.8220 C   0  0  0  0  0  0  0  0  0  0  0  0
  189.6710  176.3040  141.3130 O   0  0  0  0  0  0  0  0  0  0  0  0
  186.4430  178.1510  144.7430 C   0  0  0  0  0  0  0  0  0  0  0  0
  188.8500  177.1140  143.3650 C   0  0  0  0  0  0  0  0  0  0  0  0
  183.6580  179.4280  142.6350 C   0  0  0  0  0  2  0  0  0  0  0  0
  190.0180  176.6810  145.4170 C   0  0  0  0  0  2  0  0  0  0  0  0
  185.3470  178.7020  145.5720 C   0  0  0  0  0  0  0  0  0  0  0  0
  189.6380  176.5850  139.9650 N   0  0  0  0  0  2  0  0  0  0  0  0
  186.6670  177.7470  141.1730 O   0  0  0  0  0  0  0  0  0  0  0  0
  185.7860  178.0200  142.2310 C   0  0  0  0  0  0  0  0  0  0  0  0
  184.2820  178.1530  142.0080 C   0  0  2  0  0  3  0  0  0  0  0  0
  188.8380  177.0920  142.0590 C   0  0  0  0  0  0  0  0  0  0  0  0
  185.3560  178.4140  147.0370 C   0  0  0  0  0  2  0  0  0  0  0  0
  187.4940  177.2930  145.4180 C   0  0  1  0  0  3  0  0  0  0  0  0
  188.6510  177.6700  139.8150 C   0  0  1  0  0  3  0  0  0  0  0  0
  186.7330  178.2960  147.5280 N   0  0  0  0  0  0  0  0  0  0  0  0
  184.2400  179.0530  144.9600 C   0  0  0  0  0  0  0  0  0  0  0  0
  186.2090  178.0610  143.4590 C   0  0  0  0  0  0  0  0  0  0  0  0
  188.8170  177.1800  144.6750 C   0  0  0  0  0  0  0  0  0  0  0  0
  188.0750  178.0160  141.1920 C   0  0  1  0  0  3  0  0  0  0  0  0
  183.2920  179.3040  144.0980 C   0  0  0  0  0  3  0  0  0  0  0  0
  189.0410  177.7020  147.4620 C   0  0  0  0  0  3  0  0  0  0  0  0
  187.7100  177.7730  146.8410 C   0  0  0  0  0  0  0  0  0  0  0  0
  183.8640  178.0570  140.5360 C   0  0  1  0  0  3  0  0  0  0  0  0
  183.2210  176.8410  140.2840 O   0  0  0  0  0  1  0  0  0  0  0  0
  182.9710  179.2110  140.0980 C   0  0  0  0  0  2  0  0  0  0  0  0
  181.5140  180.1250  138.2030 C   0  0  2  0  0  3  0  0  0  0  0  0
  182.3720  178.9690  138.7100 C   0  0  2  0  0  3  0  0  0  0  0  0
  181.3380  181.1260  139.1830 O   0  0  0  0  0  0  0  0  0  0  0  0
  179.9820  179.2830  139.8040 C   0  0  2  0  0  3  0  0  0  0  0  0
  180.2170  180.7650  139.9500 C   0  0  0  0  0  2  0  0  0  0  0  0
  180.3100  178.5680  141.0240 N   0  0  0  0  0  1  0  0  0  0  0  0
  180.8410  178.8380  138.6420 C   0  0  1  0  0  3  0  0  0  0  0  0
  191.3290  177.2100  147.5080 O   0  0  0  0  0  0  0  0  0  0  0  0
  192.2380  176.1210  147.4280 C   0  0  0  0  0  2  0  0  0  0  0  0
  193.5370  177.0130  149.3570 O   0  0  0  0  0  1  0  0  0  0  0  0
  192.8640  174.8200  149.3250 O   0  0  0  0  0  0  0  0  0  0  0  0
  192.9060  175.9370  148.7450 C   0  0  0  0  0  0  0  0  0  0  0  0
  189.3090  178.9010  139.2230 C   0  0  0  0  0  2  0  0  0  0  0  0
  188.6450  179.2810  137.9890 N   0  0  0  0  0  2  0  0  0  0  0  0
  189.2040  178.4490  136.9380 C   0  0  0  0  0  2  0  0  0  0  0  0
  188.2680  176.2550  136.2950 C   0  0  1  0  0  3  0  0  0  0  0  0
  188.6500  176.9710  135.0160 C   0  0  0  0  0  2  0  0  0  0  0  0
  188.0820  177.7570  136.1830 C   0  0  2  0  0  3  0  0  0  0  0  0
  187.0170  175.6170  136.1160 O   0  0  0  0  0  0  0  0  0  0  0  0
  186.6490  173.3040  135.9540 N   0  0  0  0  0  0  0  0  0  0  0  0
  186.9340  174.4360  135.3830 C   0  0  0  0  0  3  0  0  0  0  0  0
  186.3970  173.1810  137.3850 C   0  0  0  0  0  2  0  0  0  0  0  0
  184.9020  173.0860  137.6500 C   0  0  0  0  0  1  0  0  0  0  0  0
  1 22  2  0  0  0  0
  1 34  1  0  0  0  0
  2 12  1  0  0  0  0
  3 14  1  0  0  0  0
  3  7  1  0  0  0  0
  4 19  2  0  0  0  0
  5 21  1  0  0  0  0
  6  1  1  0  0  0  0
  7 13  1  0  0  0  0
  8  2  1  0  0  0  0
  9 10  1  0  0  0  0
 10 18  2  0  0  0  0
 11 24  1  6  0  0  0
 11 10  1  0  0  0  0
 11  5  1  0  0  0  0
 12  4  2  0  0  0  0
 13 16  1  0  0  0  0
 14 19  1  6  0  0  0
 14 23  1  0  0  0  0
 15 39  1  1  0  0  0
 15  8  1  0  0  0  0
 15 20  1  0  0  0  0
 17  7  2  0  0  0  0
 18  3  2  0  0  0  0
 19  6  1  0  0  0  0
 20  9  1  6  0  0  0
 20 12  1  0  0  0  0
 21 17  2  0  0  0  0
 23 22  1  0  0  0  0
 23 16  2  0  0  0  0
 24 25  1  1  0  0  0
 26 24  1  0  0  0  0
 27 33  1  0  0  0  0
 27 28  1  0  0  0  0
 27 29  1  1  0  0  0
 28 26  1  1  0  0  0
 29 31  1  0  0  0  0
 30 31  1  0  0  0  0
 30 32  1  1  0  0  0
 33 28  1  0  0  0  0
 33 30  1  0  0  0  0
 35 34  1  0  0  0  0
 35 38  1  0  0  0  0
 38 37  2  0  0  0  0
 38 36  1  0  0  0  0
 40 39  1  0  0  0  0
 41 40  1  0  0  0  0
 43 44  1  0  0  0  0
 43 42  1  0  0  0  0
 44 42  1  0  0  0  0
 44 41  1  0  0  0  0
 45 42  1  0  0  0  0
 46 48  1  0  0  0  0
 47 46  2  0  0  0  0
 47 45  1  0  0  0  0
 48 49  1  0  0  0  0
M  END
>  <MODEL>
1

>  <REMARK>
 VINA RESULT:      -8.8      0.000      0.000
  Name = 
  13 active torsions:
  status: ('A' for Active; 'I' for Inactive)
    1  A    between atoms: C_1  and  O_9
    2  A    between atoms: C_2  and  O_15
    3  A    between atoms: C_3  and  N_29
    4  A    between atoms: C_5  and  C_22
    5  A    between atoms: C_5  and  C_38
    6  A    between atoms: C_6  and  N_17
    7  A    between atoms: C_6  and  C_33
    8  A    between atoms: O_9  and  C_49
    9  A    between atoms: O_15  and  C_31
   10  A    between atoms: N_17  and  C_32
   11  A    between atoms: C_25  and  C_38
   12  A    between atoms: C_31  and  C_34
   13  A    between atoms: C_32  and  C_36
                            x       y       z     vdW  Elec       q    Type
                         _______ _______ _______ _____ _____    ______ ____

>  <TORSDO>
F 13

$$$$
=
 OpenBabel10232410043D

 49 56  0  0  1  0  0  0  0  0999 V2000
  190.2940  177.1560  146.4150 C   0  0  0  0  0  0  0  0  0  0  0  0
  189.4440  176.4730  140.9190 O   0  0  0  0  0  0  0  0  0  0  0  0
  186.4740  178.1390  144.6600 C   0  0  0  0  0  0  0  0  0  0  0  0
  188.7760  177.1850  143.0610 C   0  0  0  0  0  0  0  0  0  0  0  0
  183.5310  179.4830  142.8250 C   0  0  0  0  0  2  0  0  0  0  0  0
  190.0980  176.6730  144.9990 C   0  0  0  0  0  2  0  0  0  0  0  0
  185.4410  178.6440  145.5930 C   0  0  0  0  0  0  0  0  0  0  0  0
  189.3090  176.8120  139.5910 N   0  0  0  0  0  2  0  0  0  0  0  0
  186.4310  177.8940  141.0690 O   0  0  0  0  0  0  0  0  0  0  0  0
  185.6310  178.1130  142.2010 C   0  0  0  0  0  0  0  0  0  0  0  0
  184.1130  178.2420  142.0980 C   0  0  2  0  0  3  0  0  0  0  0  0
  188.6660  177.2200  141.7600 C   0  0  0  0  0  0  0  0  0  0  0  0
  185.5610  178.2920  147.0390 C   0  0  0  0  0  2  0  0  0  0  0  0
  187.5780  177.2620  145.2160 C   0  0  1  0  0  3  0  0  0  0  0  0
  188.3070  177.8950  139.5640 C   0  0  1  0  0  3  0  0  0  0  0  0
  186.9720  178.1640  147.4190 N   0  0  0  0  0  0  0  0  0  0  0  0
  184.2890  179.0120  145.0810 C   0  0  0  0  0  0  0  0  0  0  0  0
  186.1450  178.1040  143.3940 C   0  0  0  0  0  0  0  0  0  0  0  0
  188.8410  177.1930  144.3710 C   0  0  0  0  0  0  0  0  0  0  0  0
  187.8350  178.1740  140.9940 C   0  0  1  0  0  3  0  0  0  0  0  0
  183.2770  179.2920  144.3040 C   0  0  0  0  0  3  0  0  0  0  0  0
  189.2720  177.5940  147.1540 C   0  0  0  0  0  3  0  0  0  0  0  0
  187.8970  177.6810  146.6390 C   0  0  0  0  0  0  0  0  0  0  0  0
  183.5870  178.2070  140.6580 C   0  0  1  0  0  3  0  0  0  0  0  0
  183.3560  176.8900  140.2490 O   0  0  0  0  0  1  0  0  0  0  0  0
  182.3200  179.0320  140.4720 C   0  0  0  0  0  2  0  0  0  0  0  0
  181.3600  179.3640  138.1220 C   0  0  2  0  0  3  0  0  0  0  0  0
  181.4350  178.4690  139.3560 C   0  0  2  0  0  3  0  0  0  0  0  0
  182.0180  180.5980  138.3200 O   0  0  0  0  0  0  0  0  0  0  0  0
  179.9850  180.6760  139.5380 C   0  0  2  0  0  3  0  0  0  0  0  0
  181.0830  181.4810  138.8890 C   0  0  0  0  0  2  0  0  0  0  0  0
  180.0530  180.7500  140.9860 N   0  0  0  0  0  1  0  0  0  0  0  0
  180.1550  179.2600  139.0380 C   0  0  1  0  0  3  0  0  0  0  0  0
  191.5590  177.1210  147.0070 O   0  0  0  0  0  0  0  0  0  0  0  0
  192.2740  175.9100  147.2130 C   0  0  0  0  0  2  0  0  0  0  0  0
  193.0190  174.7070  149.2630 O   0  0  0  0  0  1  0  0  0  0  0  0
  193.2420  176.9850  149.1070 O   0  0  0  0  0  0  0  0  0  0  0  0
  192.8570  175.9080  148.5820 C   0  0  0  0  0  0  0  0  0  0  0  0
  188.9130  179.1560  138.9800 C   0  0  0  0  0  2  0  0  0  0  0  0
  188.6810  179.2070  137.5470 N   0  0  0  0  0  2  0  0  0  0  0  0
  187.3730  178.6220  137.3120 C   0  0  0  0  0  2  0  0  0  0  0  0
  188.3000  177.8900  135.1410 C   0  0  1  0  0  3  0  0  0  0  0  0
  186.7930  177.7660  135.0500 C   0  0  0  0  0  2  0  0  0  0  0  0
  187.5020  177.4500  136.3540 C   0  0  2  0  0  3  0  0  0  0  0  0
  188.8990  176.7560  134.5420 O   0  0  0  0  0  0  0  0  0  0  0  0
  190.5550  175.2860  135.3200 N   0  0  0  0  0  0  0  0  0  0  0  0
  190.2260  176.4400  134.8200 C   0  0  0  0  0  3  0  0  0  0  0  0
  189.5780  174.2470  135.6250 C   0  0  0  0  0  2  0  0  0  0  0  0
  189.9280  173.5650  136.9380 C   0  0  0  0  0  1  0  0  0  0  0  0
  1 34  1  0  0  0  0
  1 22  2  0  0  0  0
  2 12  1  0  0  0  0
  3 14  1  0  0  0  0
  3  7  1  0  0  0  0
  4 19  2  0  0  0  0
  5 21  1  0  0  0  0
  6  1  1  0  0  0  0
  7 13  1  0  0  0  0
  8  2  1  0  0  0  0
  9 10  1  0  0  0  0
 10 18  2  0  0  0  0
 11 24  1  6  0  0  0
 11 10  1  0  0  0  0
 11  5  1  0  0  0  0
 12  4  2  0  0  0  0
 13 16  1  0  0  0  0
 14 19  1  6  0  0  0
 14 23  1  0  0  0  0
 15 39  1  1  0  0  0
 15  8  1  0  0  0  0
 15 20  1  0  0  0  0
 17  7  2  0  0  0  0
 18  3  2  0  0  0  0
 19  6  1  0  0  0  0
 20  9  1  6  0  0  0
 20 12  1  0  0  0  0
 21 17  2  0  0  0  0
 23 22  1  0  0  0  0
 23 16  2  0  0  0  0
 24 25  1  1  0  0  0
 26 24  1  0  0  0  0
 27 29  1  1  0  0  0
 27 33  1  0  0  0  0
 27 28  1  0  0  0  0
 28 26  1  1  0  0  0
 29 31  1  0  0  0  0
 30 32  1  1  0  0  0
 31 30  1  0  0  0  0
 33 28  1  0  0  0  0
 33 30  1  0  0  0  0
 34 35  1  0  0  0  0
 35 38  1  0  0  0  0
 38 37  2  0  0  0  0
 38 36  1  0  0  0  0
 40 39  1  0  0  0  0
 41 40  1  0  0  0  0
 42 44  1  0  0  0  0
 43 42  1  0  0  0  0
 43 44  1  0  0  0  0
 44 41  1  0  0  0  0
 45 47  1  0  0  0  0
 45 42  1  0  0  0  0
 46 48  1  0  0  0  0
 47 46  2  0  0  0  0
 48 49  1  0  0  0  0
M  END
>  <MODEL>
2

>  <REMARK>
 VINA RESULT:      -8.4      1.386      1.582
  Name = 
  13 active torsions:
  status: ('A' for Active; 'I' for Inactive)
    1  A    between atoms: C_1  and  O_9
    2  A    between atoms: C_2  and  O_15
    3  A    between atoms: C_3  and  N_29
    4  A    between atoms: C_5  and  C_22
    5  A    between atoms: C_5  and  C_38
    6  A    between atoms: C_6  and  N_17
    7  A    between atoms: C_6  and  C_33
    8  A    between atoms: O_9  and  C_49
    9  A    between atoms: O_15  and  C_31
   10  A    between atoms: N_17  and  C_32
   11  A    between atoms: C_25  and  C_38
   12  A    between atoms: C_31  and  C_34
   13  A    between atoms: C_32  and  C_36
                            x       y       z     vdW  Elec       q    Type
                         _______ _______ _______ _____ _____    ______ ____

>  <TORSDO>
F 13

$$$$
=
 OpenBabel10232410043D

 49 56  0  0  1  0  0  0  0  0999 V2000
  189.5870  177.4580  146.4560 C   0  0  0  0  0  0  0  0  0  0  0  0
  189.3290  176.6140  140.9220 O   0  0  0  0  0  0  0  0  0  0  0  0
  185.9240  178.2210  144.3020 C   0  0  0  0  0  0  0  0  0  0  0  0
  188.4160  177.3410  142.9670 C   0  0  0  0  0  0  0  0  0  0  0  0
  183.1250  179.3840  142.1460 C   0  0  0  0  0  2  0  0  0  0  0  0
  189.5570  176.9350  145.0400 C   0  0  0  0  0  2  0  0  0  0  0  0
  184.7800  178.6970  145.1120 C   0  0  0  0  0  0  0  0  0  0  0  0
  189.3140  176.9170  139.5790 N   0  0  0  0  0  2  0  0  0  0  0  0
  186.2550  177.8950  140.7320 O   0  0  0  0  0  0  0  0  0  0  0  0
  185.3360  178.1010  141.7720 C   0  0  0  0  0  0  0  0  0  0  0  0
  183.8320  178.1560  141.5140 C   0  0  2  0  0  3  0  0  0  0  0  0
  188.4370  177.3420  141.6600 C   0  0  0  0  0  0  0  0  0  0  0  0
  184.7690  178.3830  146.5720 C   0  0  0  0  0  2  0  0  0  0  0  0
  187.0040  177.4090  144.9880 C   0  0  1  0  0  3  0  0  0  0  0  0
  188.2720  177.9500  139.4230 C   0  0  1  0  0  3  0  0  0  0  0  0
  186.1380  178.3310  147.0940 N   0  0  0  0  0  0  0  0  0  0  0  0
  183.6700  178.9990  144.4780 C   0  0  0  0  0  0  0  0  0  0  0  0
  185.7260  178.1420  143.0100 C   0  0  0  0  0  0  0  0  0  0  0  0
  188.3480  177.3810  144.2760 C   0  0  0  0  0  0  0  0  0  0  0  0
  187.6460  178.2390  140.7900 C   0  0  1  0  0  3  0  0  0  0  0  0
  182.7310  179.2140  143.5970 C   0  0  0  0  0  3  0  0  0  0  0  0
  188.4760  177.8630  147.0760 C   0  0  0  0  0  3  0  0  0  0  0  0
  187.1590  177.8740  146.4240 C   0  0  0  0  0  0  0  0  0  0  0  0
  183.4560  178.0640  140.0300 C   0  0  1  0  0  3  0  0  0  0  0  0
  184.5900  178.2080  139.2240 O   0  0  0  0  0  1  0  0  0  0  0  0
  182.7390  176.7660  139.6810 C   0  0  0  0  0  2  0  0  0  0  0  0
  182.5660  176.5880  137.1340 C   0  0  2  0  0  3  0  0  0  0  0  0
  183.2930  176.1390  138.3990 C   0  0  2  0  0  3  0  0  0  0  0  0
  181.4390  177.3870  137.4240 O   0  0  0  0  0  0  0  0  0  0  0  0
  180.8770  175.1490  137.9670 C   0  0  2  0  0  3  0  0  0  0  0  0
  180.3510  176.5180  137.6170 C   0  0  0  0  0  2  0  0  0  0  0  0
  180.6270  174.8200  139.3580 N   0  0  0  0  0  1  0  0  0  0  0  0
  182.3550  175.1770  137.6510 C   0  0  1  0  0  3  0  0  0  0  0  0
  190.7860  177.4960  147.1710 O   0  0  0  0  0  0  0  0  0  0  0  0
  191.2290  176.4140  147.9790 C   0  0  0  0  0  2  0  0  0  0  0  0
  193.6060  175.6700  148.0170 O   0  0  0  0  0  1  0  0  0  0  0  0
  192.2890  175.2560  146.1860 O   0  0  0  0  0  0  0  0  0  0  0  0
  192.4000  175.7620  147.3330 C   0  0  0  0  0  0  0  0  0  0  0  0
  188.8770  179.2260  138.8680 C   0  0  0  0  0  2  0  0  0  0  0  0
  188.8780  179.1900  137.4170 N   0  0  0  0  0  2  0  0  0  0  0  0
  187.5190  178.8940  137.0020 C   0  0  0  0  0  2  0  0  0  0  0  0
  188.7510  177.3730  135.4940 C   0  0  1  0  0  3  0  0  0  0  0  0
  187.4570  177.7420  134.7990 C   0  0  0  0  0  2  0  0  0  0  0  0
  187.4800  177.5450  136.3030 C   0  0  2  0  0  3  0  0  0  0  0  0
  189.0030  175.9920  135.3110 O   0  0  0  0  0  0  0  0  0  0  0  0
  188.7720  174.1950  136.8040 N   0  0  0  0  0  0  0  0  0  0  0  0
  189.4520  175.2180  136.3780 C   0  0  0  0  0  3  0  0  0  0  0  0
  187.5050  173.7840  136.2100 C   0  0  0  0  0  2  0  0  0  0  0  0
  186.3570  174.0840  137.1600 C   0  0  0  0  0  1  0  0  0  0  0  0
  1 22  2  0  0  0  0
  1 34  1  0  0  0  0
  2 12  1  0  0  0  0
  3 14  1  0  0  0  0
  3  7  1  0  0  0  0
  4 19  2  0  0  0  0
  5 21  1  0  0  0  0
  6  1  1  0  0  0  0
  7 13  1  0  0  0  0
  8  2  1  0  0  0  0
  9 10  1  0  0  0  0
 10 18  2  0  0  0  0
 11 24  1  6  0  0  0
 11 10  1  0  0  0  0
 11  5  1  0  0  0  0
 12  4  2  0  0  0  0
 13 16  1  0  0  0  0
 14 19  1  6  0  0  0
 14 23  1  0  0  0  0
 15 39  1  1  0  0  0
 15  8  1  0  0  0  0
 15 20  1  0  0  0  0
 17  7  2  0  0  0  0
 18  3  2  0  0  0  0
 19  6  1  0  0  0  0
 20  9  1  6  0  0  0
 20 12  1  0  0  0  0
 21 17  2  0  0  0  0
 23 22  1  0  0  0  0
 23 16  2  0  0  0  0
 24 25  1  6  0  0  0
 26 24  1  0  0  0  0
 27 29  1  1  0  0  0
 27 33  1  0  0  0  0
 27 28  1  0  0  0  0
 28 26  1  1  0  0  0
 29 31  1  0  0  0  0
 30 32  1  1  0  0  0
 31 30  1  0  0  0  0
 33 30  1  0  0  0  0
 33 28  1  0  0  0  0
 34 35  1  0  0  0  0
 37 38  2  0  0  0  0
 38 35  1  0  0  0  0
 38 36  1  0  0  0  0
 40 39  1  0  0  0  0
 41 40  1  0  0  0  0
 42 44  1  0  0  0  0
 43 42  1  0  0  0  0
 43 44  1  0  0  0  0
 44 41  1  0  0  0  0
 45 42  1  0  0  0  0
 45 47  1  0  0  0  0
 47 46  2  0  0  0  0
 48 46  1  0  0  0  0
 48 49  1  0  0  0  0
M  END
>  <MODEL>
3

>  <REMARK>
 VINA RESULT:      -7.7      1.649      1.983
  Name = 
  13 active torsions:
  status: ('A' for Active; 'I' for Inactive)
    1  A    between atoms: C_1  and  O_9
    2  A    between atoms: C_2  and  O_15
    3  A    between atoms: C_3  and  N_29
    4  A    between atoms: C_5  and  C_22
    5  A    between atoms: C_5  and  C_38
    6  A    between atoms: C_6  and  N_17
    7  A    between atoms: C_6  and  C_33
    8  A    between atoms: O_9  and  C_49
    9  A    between atoms: O_15  and  C_31
   10  A    between atoms: N_17  and  C_32
   11  A    between atoms: C_25  and  C_38
   12  A    between atoms: C_31  and  C_34
   13  A    between atoms: C_32  and  C_36
                            x       y       z     vdW  Elec       q    Type
                         _______ _______ _______ _____ _____    ______ ____

>  <TORSDO>
F 13

$$$$
=
 OpenBabel10232410043D

 49 56  0  0  1  0  0  0  0  0999 V2000
  183.3670  178.7930  142.2800 C   0  0  0  0  0  0  0  0  0  0  0  0
  186.3910  179.0500  137.5690 O   0  0  0  0  0  0  0  0  0  0  0  0
  187.5460  177.7130  142.3100 C   0  0  0  0  0  0  0  0  0  0  0  0
  186.1150  178.5160  139.8460 C   0  0  0  0  0  0  0  0  0  0  0  0
  190.9490  176.2580  141.9390 C   0  0  0  0  0  2  0  0  0  0  0  0
  184.1320  179.1650  141.0330 C   0  0  0  0  0  2  0  0  0  0  0  0
  188.1000  177.2940  143.6180 C   0  0  0  0  0  0  0  0  0  0  0  0
  187.0460  178.6090  136.4410 N   0  0  0  0  0  2  0  0  0  0  0  0
  189.0500  177.6750  139.0400 O   0  0  0  0  0  0  0  0  0  0  0  0
  189.3160  177.5540  140.4120 C   0  0  0  0  0  0  0  0  0  0  0  0
  190.7420  177.4320  140.9450 C   0  0  2  0  0  3  0  0  0  0  0  0
  186.7440  178.3790  138.7080 C   0  0  0  0  0  0  0  0  0  0  0  0
  187.4110  177.7570  144.8580 C   0  0  0  0  0  2  0  0  0  0  0  0
  186.3320  178.6210  142.3000 C   0  0  1  0  0  3  0  0  0  0  0  0
  187.9480  177.5380  136.9070 C   0  0  1  0  0  3  0  0  0  0  0  0
  185.9710  177.9000  144.6210 N   0  0  0  0  0  0  0  0  0  0  0  0
  189.3520  176.8980  143.6480 C   0  0  0  0  0  0  0  0  0  0  0  0
  188.3630  177.6520  141.2890 C   0  0  0  0  0  0  0  0  0  0  0  0
  185.5230  178.6100  141.0120 C   0  0  0  0  0  0  0  0  0  0  0  0
  187.7920  177.3760  138.4220 C   0  0  1  0  0  3  0  0  0  0  0  0
  190.5850  176.5680  143.3740 C   0  0  0  0  0  3  0  0  0  0  0  0
  183.9910  178.4250  143.4010 C   0  0  0  0  0  3  0  0  0  0  0  0
  185.4540  178.3120  143.4980 C   0  0  0  0  0  0  0  0  0  0  0  0
  191.8080  177.3590  139.8460 C   0  0  1  0  0  3  0  0  0  0  0  0
  193.0910  177.3980  140.4000 O   0  0  0  0  0  1  0  0  0  0  0  0
  191.6660  176.1240  138.9660 C   0  0  0  0  0  2  0  0  0  0  0  0
  191.3040  175.2900  136.5730 C   0  0  2  0  0  3  0  0  0  0  0  0
  191.5030  176.4950  137.4890 C   0  0  2  0  0  3  0  0  0  0  0  0
  191.4480  174.0670  137.2640 O   0  0  0  0  0  0  0  0  0  0  0  0
  193.6170  174.9830  136.9870 C   0  0  2  0  0  3  0  0  0  0  0  0
  192.8130  173.7320  137.2350 C   0  0  0  0  0  2  0  0  0  0  0  0
  194.3480  175.3930  138.1720 N   0  0  0  0  0  1  0  0  0  0  0  0
  192.6260  176.0350  136.5440 C   0  0  1  0  0  3  0  0  0  0  0  0
  181.9720  178.8620  142.3010 O   0  0  0  0  0  0  0  0  0  0  0  0
  181.1640  178.3260  141.2620 C   0  0  0  0  0  2  0  0  0  0  0  0
  179.9820  180.5040  141.0060 O   0  0  0  0  0  1  0  0  0  0  0  0
  180.8460  179.4280  139.1730 O   0  0  0  0  0  0  0  0  0  0  0  0
  180.6460  179.4350  140.4160 C   0  0  0  0  0  0  0  0  0  0  0  0
  187.6030  176.2280  136.2240 C   0  0  0  0  0  2  0  0  0  0  0  0
  187.1730  175.2480  137.2060 N   0  0  0  0  0  2  0  0  0  0  0  0
  187.2140  173.9520  136.5520 C   0  0  0  0  0  2  0  0  0  0  0  0
  184.9520  173.3180  137.3200 C   0  0  1  0  0  3  0  0  0  0  0  0
  185.5040  172.1460  136.5360 C   0  0  0  0  0  2  0  0  0  0  0  0
  185.8170  173.5640  136.0980 C   0  0  2  0  0  3  0  0  0  0  0  0
  183.5930  173.5120  136.9750 O   0  0  0  0  0  0  0  0  0  0  0  0
  182.4530  175.5600  136.8550 N   0  0  0  0  0  0  0  0  0  0  0  0
  183.2040  174.6610  136.2920 C   0  0  0  0  0  3  0  0  0  0  0  0
  181.9650  175.4400  138.2240 C   0  0  0  0  0  2  0  0  0  0  0  0
  182.9270  176.1170  139.1870 C   0  0  0  0  0  1  0  0  0  0  0  0
  1 34  1  0  0  0  0
  1 22  2  0  0  0  0
  2 12  1  0  0  0  0
  3  7  1  0  0  0  0
  4 19  2  0  0  0  0
  5 21  1  0  0  0  0
  6  1  1  0  0  0  0
  7 17  2  0  0  0  0
  7 13  1  0  0  0  0
  8 15  1  0  0  0  0
  8  2  1  0  0  0  0
  9 10  1  0  0  0  0
 10 11  1  0  0  0  0
 10 18  2  0  0  0  0
 11 24  1  6  0  0  0
 11  5  1  0  0  0  0
 12  4  2  0  0  0  0
 14 19  1  6  0  0  0
 14  3  1  0  0  0  0
 14 23  1  0  0  0  0
 15 39  1  6  0  0  0
 15 20  1  0  0  0  0
 16 13  1  0  0  0  0
 18  3  2  0  0  0  0
 19  6  1  0  0  0  0
 20 12  1  1  0  0  0
 20  9  1  0  0  0  0
 21 17  2  0  0  0  0
 22 23  1  0  0  0  0
 23 16  2  0  0  0  0
 24 25  1  1  0  0  0
 26 24  1  0  0  0  0
 27 29  1  1  0  0  0
 27 28  1  0  0  0  0
 28 26  1  1  0  0  0
 30 31  1  0  0  0  0
 30 32  1  1  0  0  0
 31 29  1  0  0  0  0
 33 27  1  0  0  0  0
 33 30  1  0  0  0  0
 33 28  1  0  0  0  0
 35 34  1  0  0  0  0
 37 38  2  0  0  0  0
 38 36  1  0  0  0  0
 38 35  1  0  0  0  0
 39 40  1  0  0  0  0
 41 40  1  0  0  0  0
 43 42  1  0  0  0  0
 44 43  1  0  0  0  0
 44 41  1  0  0  0  0
 44 42  1  0  0  0  0
 45 42  1  0  0  0  0
 46 48  1  0  0  0  0
 47 46  2  0  0  0  0
 47 45  1  0  0  0  0
 48 49  1  0  0  0  0
M  END
>  <MODEL>
4

>  <REMARK>
 VINA RESULT:      -7.6      3.121      8.222
  Name = 
  13 active torsions:
  status: ('A' for Active; 'I' for Inactive)
    1  A    between atoms: C_1  and  O_9
    2  A    between atoms: C_2  and  O_15
    3  A    between atoms: C_3  and  N_29
    4  A    between atoms: C_5  and  C_22
    5  A    between atoms: C_5  and  C_38
    6  A    between atoms: C_6  and  N_17
    7  A    between atoms: C_6  and  C_33
    8  A    between atoms: O_9  and  C_49
    9  A    between atoms: O_15  and  C_31
   10  A    between atoms: N_17  and  C_32
   11  A    between atoms: C_25  and  C_38
   12  A    between atoms: C_31  and  C_34
   13  A    between atoms: C_32  and  C_36
                            x       y       z     vdW  Elec       q    Type
                         _______ _______ _______ _____ _____    ______ ____

>  <TORSDO>
F 13

$$$$
=
 OpenBabel10232410043D

 49 56  0  0  1  0  0  0  0  0999 V2000
  188.1910  177.9550  146.3290 C   0  0  0  0  0  0  0  0  0  0  0  0
  189.0580  176.7250  140.9320 O   0  0  0  0  0  0  0  0  0  0  0  0
  185.0210  178.4560  143.4420 C   0  0  0  0  0  0  0  0  0  0  0  0
  187.7430  177.5630  142.6960 C   0  0  0  0  0  0  0  0  0  0  0  0
  182.6910  179.3820  140.6940 C   0  0  0  0  0  2  0  0  0  0  0  0
  188.4530  177.3350  144.9780 C   0  0  0  0  0  2  0  0  0  0  0  0
  183.7300  178.9520  143.9720 C   0  0  0  0  0  0  0  0  0  0  0  0
  189.3070  176.9340  139.5930 N   0  0  0  0  0  2  0  0  0  0  0  0
  186.0640  177.8950  140.0420 O   0  0  0  0  0  0  0  0  0  0  0  0
  184.9520  178.1440  140.8610 C   0  0  0  0  0  0  0  0  0  0  0  0
  183.5300  178.1360  140.3070 C   0  0  2  0  0  3  0  0  0  0  0  0
  188.0240  177.4750  141.4230 C   0  0  0  0  0  0  0  0  0  0  0  0
  183.4330  178.7390  145.4200 C   0  0  0  0  0  2  0  0  0  0  0  0
  185.9550  177.7270  144.3860 C   0  0  1  0  0  3  0  0  0  0  0  0
  188.3010  177.9220  139.1590 C   0  0  1  0  0  3  0  0  0  0  0  0
  184.6700  178.7640  146.2050 N   0  0  0  0  0  0  0  0  0  0  0  0
  182.7650  179.1750  143.1100 C   0  0  0  0  0  0  0  0  0  0  0  0
  185.0860  178.2820  142.1460 C   0  0  0  0  0  0  0  0  0  0  0  0
  187.4140  177.6910  143.9590 C   0  0  0  0  0  0  0  0  0  0  0  0
  187.4090  178.2850  140.3500 C   0  0  1  0  0  3  0  0  0  0  0  0
  182.0180  179.3000  142.0470 C   0  0  0  0  0  3  0  0  0  0  0  0
  186.9720  178.3680  146.6860 C   0  0  0  0  0  3  0  0  0  0  0  0
  185.8110  178.2940  145.7860 C   0  0  0  0  0  0  0  0  0  0  0  0
  183.4600  177.9300  138.7890 C   0  0  1  0  0  3  0  0  0  0  0  0
  184.5990  178.4500  138.1680 O   0  0  0  0  0  1  0  0  0  0  0  0
  183.2840  176.4690  138.3980 C   0  0  0  0  0  2  0  0  0  0  0  0
  181.5760  174.6000  138.0180 C   0  0  2  0  0  3  0  0  0  0  0  0
  181.8220  176.0240  138.5100 C   0  0  2  0  0  3  0  0  0  0  0  0
  182.7290  174.0330  137.4310 O   0  0  0  0  0  0  0  0  0  0  0  0
  181.8580  175.6150  135.8940 C   0  0  2  0  0  3  0  0  0  0  0  0
  182.7230  174.3930  136.0720 C   0  0  0  0  0  2  0  0  0  0  0  0
  182.6520  176.7930  135.5960 N   0  0  0  0  0  1  0  0  0  0  0  0
  181.0850  175.7700  137.1840 C   0  0  1  0  0  3  0  0  0  0  0  0
  189.2220  178.0790  147.2640 O   0  0  0  0  0  0  0  0  0  0  0  0
  189.8870  176.9540  147.8220 C   0  0  0  0  0  2  0  0  0  0  0  0
  192.3440  176.9140  148.2320 O   0  0  0  0  0  1  0  0  0  0  0  0
  191.5220  176.8360  146.0920 O   0  0  0  0  0  0  0  0  0  0  0  0
  191.2900  176.9130  147.3270 C   0  0  0  0  0  0  0  0  0  0  0  0
  188.9840  179.1740  138.6430 C   0  0  0  0  0  2  0  0  0  0  0  0
  189.2140  179.0670  137.2130 N   0  0  0  0  0  2  0  0  0  0  0  0
  187.9860  178.5610  136.6260 C   0  0  0  0  0  2  0  0  0  0  0  0
  189.7160  177.0330  135.7470 C   0  0  1  0  0  3  0  0  0  0  0  0
  188.7600  177.3280  134.6100 C   0  0  0  0  0  2  0  0  0  0  0  0
  188.2340  177.1870  136.0260 C   0  0  2  0  0  3  0  0  0  0  0  0
  190.0460  175.6560  135.7340 O   0  0  0  0  0  0  0  0  0  0  0  0
  190.9170  174.6320  137.6580 N   0  0  0  0  0  0  0  0  0  0  0  0
  189.9010  174.8940  136.8900 C   0  0  0  0  0  3  0  0  0  0  0  0
  192.2660  175.1070  137.3760 C   0  0  0  0  0  2  0  0  0  0  0  0
  193.2410  173.9390  137.3530 C   0  0  0  0  0  1  0  0  0  0  0  0
  1 22  2  0  0  0  0
  1 34  1  0  0  0  0
  2 12  1  0  0  0  0
  3  7  1  0  0  0  0
  4 19  2  0  0  0  0
  5 21  1  0  0  0  0
  6  1  1  0  0  0  0
  7 13  1  0  0  0  0
  8  2  1  0  0  0  0
  9 10  1  0  0  0  0
 10 18  2  0  0  0  0
 11 24  1  6  0  0  0
 11  5  1  0  0  0  0
 11 10  1  0  0  0  0
 12  4  2  0  0  0  0
 13 16  1  0  0  0  0
 14  3  1  6  0  0  0
 14 23  1  0  0  0  0
 15 39  1  1  0  0  0
 15  8  1  0  0  0  0
 15 20  1  0  0  0  0
 17  7  2  0  0  0  0
 18  3  2  0  0  0  0
 19 14  1  0  0  0  0
 19  6  1  0  0  0  0
 20  9  1  6  0  0  0
 20 12  1  0  0  0  0
 21 17  2  0  0  0  0
 23 16  2  0  0  0  0
 23 22  1  0  0  0  0
 24 25  1  6  0  0  0
 26 24  1  0  0  0  0
 27 29  1  6  0  0  0
 27 28  1  0  0  0  0
 28 26  1  6  0  0  0
 30 32  1  1  0  0  0
 30 31  1  0  0  0  0
 30 33  1  0  0  0  0
 31 29  1  0  0  0  0
 33 27  1  0  0  0  0
 33 28  1  0  0  0  0
 34 35  1  0  0  0  0
 37 38  2  0  0  0  0
 38 35  1  0  0  0  0
 38 36  1  0  0  0  0
 40 39  1  0  0  0  0
 41 40  1  0  0  0  0
 42 44  1  0  0  0  0
 43 42  1  0  0  0  0
 43 44  1  0  0  0  0
 44 41  1  0  0  0  0
 45 42  1  0  0  0  0
 45 47  1  0  0  0  0
 47 46  2  0  0  0  0
 48 46  1  0  0  0  0
 49 48  1  0  0  0  0
M  END
>  <MODEL>
5

>  <REMARK>
 VINA RESULT:      -7.0      2.225      3.305
  Name = 
  13 active torsions:
  status: ('A' for Active; 'I' for Inactive)
    1  A    between atoms: C_1  and  O_9
    2  A    between atoms: C_2  and  O_15
    3  A    between atoms: C_3  and  N_29
    4  A    between atoms: C_5  and  C_22
    5  A    between atoms: C_5  and  C_38
    6  A    between atoms: C_6  and  N_17
    7  A    between atoms: C_6  and  C_33
    8  A    between atoms: O_9  and  C_49
    9  A    between atoms: O_15  and  C_31
   10  A    between atoms: N_17  and  C_32
   11  A    between atoms: C_25  and  C_38
   12  A    between atoms: C_31  and  C_34
   13  A    between atoms: C_32  and  C_36
                            x       y       z     vdW  Elec       q    Type
                         _______ _______ _______ _____ _____    ______ ____

>  <TORSDO>
F 13

$$$$
=
 OpenBabel10232410043D

 49 56  0  0  1  0  0  0  0  0999 V2000
  192.8750  173.8020  136.1340 C   0  0  0  0  0  0  0  0  0  0  0  0
  189.7280  178.3230  137.1620 O   0  0  0  0  0  0  0  0  0  0  0  0
  188.5770  173.5930  135.7860 C   0  0  0  0  0  0  0  0  0  0  0  0
  189.9990  176.0400  136.6580 C   0  0  0  0  0  0  0  0  0  0  0  0
  184.8780  173.5120  136.1660 C   0  0  0  0  0  2  0  0  0  0  0  0
  192.1660  175.1350  136.1610 C   0  0  0  0  0  2  0  0  0  0  0  0
  188.0210  172.2820  135.3790 C   0  0  0  0  0  0  0  0  0  0  0  0
  188.8910  179.1720  137.8500 N   0  0  0  0  0  2  0  0  0  0  0  0
  186.8950  176.5890  136.8580 O   0  0  0  0  0  0  0  0  0  0  0  0
  186.7060  175.3360  136.2570 C   0  0  0  0  0  0  0  0  0  0  0  0
  185.3520  174.9120  135.6940 C   0  0  2  0  0  3  0  0  0  0  0  0
  189.2760  177.0330  137.1030 C   0  0  0  0  0  0  0  0  0  0  0  0
  188.9060  171.3410  134.6310 C   0  0  0  0  0  2  0  0  0  0  0  0
  190.0020  173.9240  135.3890 C   0  0  1  0  0  3  0  0  0  0  0  0
  187.7490  178.3390  138.2710 C   0  0  1  0  0  3  0  0  0  0  0  0
  190.3020  171.5100  135.0460 N   0  0  0  0  0  0  0  0  0  0  0  0
  186.7140  172.1670  135.3260 C   0  0  0  0  0  0  0  0  0  0  0  0
  187.7070  174.5320  136.0590 C   0  0  0  0  0  0  0  0  0  0  0  0
  190.6750  175.0030  136.2240 C   0  0  0  0  0  0  0  0  0  0  0  0
  187.9590  176.9090  137.7640 C   0  0  1  0  0  3  0  0  0  0  0  0
  185.4220  172.3520  135.3620 C   0  0  0  0  0  3  0  0  0  0  0  0
  192.2540  172.6860  135.7480 C   0  0  0  0  0  3  0  0  0  0  0  0
  190.8350  172.6560  135.3650 C   0  0  0  0  0  0  0  0  0  0  0  0
  184.2350  175.9330  135.9380 C   0  0  1  0  0  3  0  0  0  0  0  0
  183.2350  175.8120  134.9690 O   0  0  0  0  0  1  0  0  0  0  0  0
  183.6200  175.8160  137.3270 C   0  0  0  0  0  2  0  0  0  0  0  0
  183.0560  177.0870  139.4760 C   0  0  2  0  0  3  0  0  0  0  0  0
  183.5700  177.1700  138.0410 C   0  0  2  0  0  3  0  0  0  0  0  0
  182.6020  175.7910  139.8040 O   0  0  0  0  0  0  0  0  0  0  0  0
  180.9760  176.7710  138.3850 C   0  0  2  0  0  3  0  0  0  0  0  0
  181.2510  175.7150  139.4250 C   0  0  0  0  0  2  0  0  0  0  0  0
  180.7650  176.1860  137.0730 N   0  0  0  0  0  1  0  0  0  0  0  0
  182.1710  177.6960  138.4040 C   0  0  1  0  0  3  0  0  0  0  0  0
  194.2250  173.7120  136.4810 O   0  0  0  0  0  0  0  0  0  0  0  0
  194.9150  174.7600  137.1490 C   0  0  0  0  0  2  0  0  0  0  0  0
  195.3510  172.9860  138.8420 O   0  0  0  0  0  0  0  0  0  0  0  0
  195.4280  175.2010  139.4340 O   0  0  0  0  0  1  0  0  0  0  0  0
  195.2300  174.3370  138.5400 C   0  0  0  0  0  0  0  0  0  0  0  0
  187.6380  178.3240  139.7830 C   0  0  0  0  0  2  0  0  0  0  0  0
  188.9540  178.4440  140.3840 N   0  0  0  0  0  2  0  0  0  0  0  0
  189.1260  177.2930  141.2540 C   0  0  0  0  0  2  0  0  0  0  0  0
  189.2880  177.3200  143.7190 C   0  0  1  0  0  3  0  0  0  0  0  0
  188.3150  176.2200  143.3460 C   0  0  0  0  0  2  0  0  0  0  0  0
  188.3490  177.5070  142.5420 C   0  0  2  0  0  3  0  0  0  0  0  0
  188.7830  178.0310  144.8340 O   0  0  0  0  0  0  0  0  0  0  0  0
  187.7630  177.2900  146.8150 N   0  0  0  0  0  0  0  0  0  0  0  0
  188.8380  177.4640  146.1050 C   0  0  0  0  0  3  0  0  0  0  0  0
  186.4350  177.6660  146.3460 C   0  0  0  0  0  2  0  0  0  0  0  0
  185.9830  178.9520  147.0210 C   0  0  0  0  0  1  0  0  0  0  0  0
  1  6  1  0  0  0  0
  1 34  1  0  0  0  0
  2  8  1  0  0  0  0
  3 18  2  0  0  0  0
  4 12  2  0  0  0  0
  6 19  1  0  0  0  0
  7  3  1  0  0  0  0
  8 15  1  0  0  0  0
 10  9  1  0  0  0  0
 11 24  1  1  0  0  0
 11  5  1  0  0  0  0
 11 10  1  0  0  0  0
 12  2  1  0  0  0  0
 12 20  1  0  0  0  0
 13 16  1  0  0  0  0
 13  7  1  0  0  0  0
 14 23  1  1  0  0  0
 14  3  1  0  0  0  0
 14 19  1  0  0  0  0
 15 39  1  1  0  0  0
 16 23  2  0  0  0  0
 17 21  2  0  0  0  0
 17  7  2  0  0  0  0
 18 10  2  0  0  0  0
 19  4  2  0  0  0  0
 20  9  1  6  0  0  0
 20 15  1  0  0  0  0
 21  5  1  0  0  0  0
 22  1  2  0  0  0  0
 23 22  1  0  0  0  0
 24 25  1  6  0  0  0
 24 26  1  0  0  0  0
 27 29  1  6  0  0  0
 28 26  1  6  0  0  0
 28 33  1  0  0  0  0
 28 27  1  0  0  0  0
 30 32  1  6  0  0  0
 30 33  1  0  0  0  0
 30 31  1  0  0  0  0
 31 29  1  0  0  0  0
 33 27  1  0  0  0  0
 34 35  1  0  0  0  0
 35 38  1  0  0  0  0
 38 36  2  0  0  0  0
 38 37  1  0  0  0  0
 39 40  1  0  0  0  0
 40 41  1  0  0  0  0
 41 44  1  0  0  0  0
 42 45  1  0  0  0  0
 43 42  1  0  0  0  0
 44 43  1  0  0  0  0
 44 42  1  0  0  0  0
 45 47  1  0  0  0  0
 47 46  2  0  0  0  0
 48 46  1  0  0  0  0
 48 49  1  0  0  0  0
M  END
>  <MODEL>
6

>  <REMARK>
 VINA RESULT:      -6.9      3.346      8.656
  Name = 
  13 active torsions:
  status: ('A' for Active; 'I' for Inactive)
    1  A    between atoms: C_1  and  O_9
    2  A    between atoms: C_2  and  O_15
    3  A    between atoms: C_3  and  N_29
    4  A    between atoms: C_5  and  C_22
    5  A    between atoms: C_5  and  C_38
    6  A    between atoms: C_6  and  N_17
    7  A    between atoms: C_6  and  C_33
    8  A    between atoms: O_9  and  C_49
    9  A    between atoms: O_15  and  C_31
   10  A    between atoms: N_17  and  C_32
   11  A    between atoms: C_25  and  C_38
   12  A    between atoms: C_31  and  C_34
   13  A    between atoms: C_32  and  C_36
                            x       y       z     vdW  Elec       q    Type
                         _______ _______ _______ _____ _____    ______ ____

>  <TORSDO>
F 13

$$$$
=
 OpenBabel10232410043D

 49 56  0  0  1  0  0  0  0  0999 V2000
  192.9810  174.2360  135.8570 C   0  0  0  0  0  0  0  0  0  0  0  0
  189.7140  178.4420  137.5990 O   0  0  0  0  0  0  0  0  0  0  0  0
  188.7150  173.6790  136.2190 C   0  0  0  0  0  0  0  0  0  0  0  0
  190.0710  176.2070  136.9530 C   0  0  0  0  0  0  0  0  0  0  0  0
  185.1510  173.2770  137.2040 C   0  0  0  0  0  2  0  0  0  0  0  0
  192.1860  175.5030  136.0620 C   0  0  0  0  0  2  0  0  0  0  0  0
  188.2000  172.3400  135.8510 C   0  0  0  0  0  0  0  0  0  0  0  0
  188.9430  179.1960  138.4550 N   0  0  0  0  0  2  0  0  0  0  0  0
  187.0130  176.4880  137.6910 O   0  0  0  0  0  0  0  0  0  0  0  0
  186.8220  175.2430  137.0730 C   0  0  0  0  0  0  0  0  0  0  0  0
  185.4290  174.7260  136.7240 C   0  0  2  0  0  3  0  0  0  0  0  0
  189.3600  177.1220  137.5570 C   0  0  0  0  0  0  0  0  0  0  0  0
  189.0160  171.5000  134.9240 C   0  0  0  0  0  2  0  0  0  0  0  0
  190.0220  174.1410  135.6060 C   0  0  1  0  0  3  0  0  0  0  0  0
  187.9560  178.2570  139.0210 C   0  0  1  0  0  3  0  0  0  0  0  0
  190.4440  171.7720  135.1090 N   0  0  0  0  0  0  0  0  0  0  0  0
  186.9160  172.1180  136.0110 C   0  0  0  0  0  0  0  0  0  0  0  0
  187.8340  174.5330  136.6750 C   0  0  0  0  0  0  0  0  0  0  0  0
  190.7410  175.2450  136.3660 C   0  0  0  0  0  0  0  0  0  0  0  0
  188.1870  176.8670  138.4210 C   0  0  1  0  0  3  0  0  0  0  0  0
  185.6390  172.1920  136.2690 C   0  0  0  0  0  3  0  0  0  0  0  0
  192.3910  173.0840  135.5290 C   0  0  0  0  0  3  0  0  0  0  0  0
  190.9340  172.9480  135.3860 C   0  0  0  0  0  0  0  0  0  0  0  0
  184.2940  175.6420  137.1970 C   0  0  1  0  0  3  0  0  0  0  0  0
  184.0800  176.6760  136.2810 O   0  0  0  0  0  1  0  0  0  0  0  0
  182.9900  174.8910  137.4370 C   0  0  0  0  0  2  0  0  0  0  0  0
  180.5460  175.6210  137.2110 C   0  0  2  0  0  3  0  0  0  0  0  0
  181.8770  175.3750  136.5030 C   0  0  2  0  0  3  0  0  0  0  0  0
  180.5820  175.2180  138.5640 O   0  0  0  0  0  0  0  0  0  0  0  0
  180.4800  173.2510  137.2430 C   0  0  2  0  0  3  0  0  0  0  0  0
  180.2330  173.8570  138.6010 C   0  0  0  0  0  2  0  0  0  0  0  0
  181.6200  172.3530  137.2580 N   0  0  0  0  0  1  0  0  0  0  0  0
  180.6930  174.4150  136.3010 C   0  0  1  0  0  3  0  0  0  0  0  0
  194.3730  174.2480  135.9700 O   0  0  0  0  0  0  0  0  0  0  0  0
  195.0760  173.3860  136.8550 C   0  0  0  0  0  2  0  0  0  0  0  0
  194.9300  175.3990  138.3150 O   0  0  0  0  0  0  0  0  0  0  0  0
  195.5400  173.3690  139.1930 O   0  0  0  0  0  1  0  0  0  0  0  0
  195.2120  174.0450  138.1830 C   0  0  0  0  0  0  0  0  0  0  0  0
  188.1040  178.1850  140.5290 C   0  0  0  0  0  2  0  0  0  0  0  0
  186.9140  178.7060  141.1750 N   0  0  0  0  0  2  0  0  0  0  0  0
  186.7700  177.9910  142.4310 C   0  0  0  0  0  2  0  0  0  0  0  0
  188.3880  176.4010  143.4100 C   0  0  1  0  0  3  0  0  0  0  0  0
  187.9550  177.3380  144.5180 C   0  0  0  0  0  2  0  0  0  0  0  0
  188.1260  177.8630  143.1050 C   0  0  2  0  0  3  0  0  0  0  0  0
  189.7840  176.1870  143.4990 O   0  0  0  0  0  0  0  0  0  0  0  0
  191.3630  177.2190  144.8980 N   0  0  0  0  0  0  0  0  0  0  0  0
  190.4350  176.3260  144.7220 C   0  0  0  0  0  3  0  0  0  0  0  0
  191.7910  178.1320  143.8450 C   0  0  0  0  0  2  0  0  0  0  0  0
  191.2460  179.5280  144.1050 C   0  0  0  0  0  1  0  0  0  0  0  0
  1 34  1  0  0  0  0
  1  6  1  0  0  0  0
  2  8  1  0  0  0  0
  3 18  2  0  0  0  0
  4 12  2  0  0  0  0
  6 19  1  0  0  0  0
  7 17  2  0  0  0  0
  7  3  1  0  0  0  0
  8 15  1  0  0  0  0
  9 20  1  0  0  0  0
 10  9  1  0  0  0  0
 11 10  1  0  0  0  0
 11 24  1  1  0  0  0
 11  5  1  0  0  0  0
 12  2  1  0  0  0  0
 13 16  1  0  0  0  0
 13  7  1  0  0  0  0
 14 23  1  1  0  0  0
 14  3  1  0  0  0  0
 14 19  1  0  0  0  0
 15 39  1  1  0  0  0
 16 23  2  0  0  0  0
 17 21  2  0  0  0  0
 18 10  2  0  0  0  0
 19  4  2  0  0  0  0
 20 12  1  6  0  0  0
 20 15  1  0  0  0  0
 21  5  1  0  0  0  0
 22  1  2  0  0  0  0
 23 22  1  0  0  0  0
 24 25  1  6  0  0  0
 24 26  1  0  0  0  0
 27 29  1  1  0  0  0
 28 27  1  0  0  0  0
 28 26  1  1  0  0  0
 29 31  1  0  0  0  0
 30 32  1  1  0  0  0
 30 31  1  0  0  0  0
 33 28  1  0  0  0  0
 33 27  1  0  0  0  0
 33 30  1  0  0  0  0
 34 35  1  0  0  0  0
 35 38  1  0  0  0  0
 38 36  2  0  0  0  0
 38 37  1  0  0  0  0
 39 40  1  0  0  0  0
 40 41  1  0  0  0  0
 41 44  1  0  0  0  0
 42 45  1  0  0  0  0
 42 43  1  0  0  0  0
 44 42  1  0  0  0  0
 44 43  1  0  0  0  0
 45 47  1  0  0  0  0
 47 46  2  0  0  0  0
 48 49  1  0  0  0  0
 48 46  1  0  0  0  0
M  END
>  <MODEL>
7

>  <REMARK>
 VINA RESULT:      -6.9      3.698      8.673
  Name = 
  13 active torsions:
  status: ('A' for Active; 'I' for Inactive)
    1  A    between atoms: C_1  and  O_9
    2  A    between atoms: C_2  and  O_15
    3  A    between atoms: C_3  and  N_29
    4  A    between atoms: C_5  and  C_22
    5  A    between atoms: C_5  and  C_38
    6  A    between atoms: C_6  and  N_17
    7  A    between atoms: C_6  and  C_33
    8  A    between atoms: O_9  and  C_49
    9  A    between atoms: O_15  and  C_31
   10  A    between atoms: N_17  and  C_32
   11  A    between atoms: C_25  and  C_38
   12  A    between atoms: C_31  and  C_34
   13  A    between atoms: C_32  and  C_36
                            x       y       z     vdW  Elec       q    Type
                         _______ _______ _______ _____ _____    ______ ____

>  <TORSDO>
F 13

$$$$
=
 OpenBabel10232410043D

 49 56  0  0  1  0  0  0  0  0999 V2000
  189.0500  177.3030  145.2120 C   0  0  0  0  0  0  0  0  0  0  0  0
  184.7630  179.2860  142.1960 O   0  0  0  0  0  0  0  0  0  0  0  0
  189.3010  177.4580  140.9050 C   0  0  0  0  0  0  0  0  0  0  0  0
  186.8800  178.2750  142.4010 C   0  0  0  0  0  0  0  0  0  0  0  0
  189.0190  177.1170  137.2120 C   0  0  0  0  0  2  0  0  0  0  0  0
  187.9630  178.1040  144.5370 C   0  0  0  0  0  2  0  0  0  0  0  0
  190.5660  176.9720  140.3090 C   0  0  0  0  0  0  0  0  0  0  0  0
  183.6460  179.2690  141.3920 N   0  0  0  0  0  2  0  0  0  0  0  0
  186.2310  178.4630  139.3160 O   0  0  0  0  0  0  0  0  0  0  0  0
  187.5830  178.1650  139.0860 C   0  0  0  0  0  0  0  0  0  0  0  0
  188.2220  178.3510  137.7130 C   0  0  2  0  0  3  0  0  0  0  0  0
  185.8020  178.5390  141.7110 C   0  0  0  0  0  0  0  0  0  0  0  0
  191.7950  176.9790  141.1580 C   0  0  0  0  0  2  0  0  0  0  0  0
  189.3270  177.9710  142.3310 C   0  0  1  0  0  3  0  0  0  0  0  0
  184.0090  178.4270  140.2360 C   0  0  1  0  0  3  0  0  0  0  0  0
  191.4470  176.7530  142.5640 N   0  0  0  0  0  0  0  0  0  0  0  0
  190.6500  176.9460  138.9990 C   0  0  0  0  0  0  0  0  0  0  0  0
  188.3670  177.8230  140.0640 C   0  0  0  0  0  0  0  0  0  0  0  0
  187.9830  177.9770  143.0440 C   0  0  0  0  0  0  0  0  0  0  0  0
  185.4530  177.9450  140.4030 C   0  0  1  0  0  3  0  0  0  0  0  0
  190.4440  177.0350  137.7130 C   0  0  0  0  0  3  0  0  0  0  0  0
  190.1480  176.9200  144.5570 C   0  0  0  0  0  3  0  0  0  0  0  0
  190.3650  177.2070  143.1310 C   0  0  0  0  0  0  0  0  0  0  0  0
  187.2340  178.7900  136.6250 C   0  0  1  0  0  3  0  0  0  0  0  0
  187.4800  180.1120  136.2400 O   0  0  0  0  0  1  0  0  0  0  0  0
  187.2620  177.8850  135.4000 C   0  0  0  0  0  2  0  0  0  0  0  0
  184.9260  176.8650  135.6360 C   0  0  2  0  0  3  0  0  0  0  0  0
  185.8690  177.7150  134.7890 C   0  0  2  0  0  3  0  0  0  0  0  0
  185.5820  176.2940  136.7500 O   0  0  0  0  0  0  0  0  0  0  0  0
  186.2880  175.1020  134.8260 C   0  0  2  0  0  3  0  0  0  0  0  0
  186.1350  175.0740  136.3260 C   0  0  0  0  0  2  0  0  0  0  0  0
  187.6820  175.1940  134.4320 N   0  0  0  0  0  1  0  0  0  0  0  0
  185.4880  176.2920  134.3480 C   0  0  1  0  0  3  0  0  0  0  0  0
  188.9470  176.9710  146.5650 O   0  0  0  0  0  0  0  0  0  0  0  0
  189.1740  177.9140  147.6040 C   0  0  0  0  0  2  0  0  0  0  0  0
  186.7830  178.6040  147.7150 O   0  0  0  0  0  0  0  0  0  0  0  0
  187.8560  177.8240  149.5870 O   0  0  0  0  0  1  0  0  0  0  0  0
  187.9120  178.1230  148.3650 C   0  0  0  0  0  0  0  0  0  0  0  0
  183.0850  177.2270  140.1500 C   0  0  0  0  0  2  0  0  0  0  0  0
  181.7870  177.5520  140.7130 N   0  0  0  0  0  2  0  0  0  0  0  0
  180.7930  176.8980  139.8800 C   0  0  0  0  0  2  0  0  0  0  0  0
  181.1320  175.2780  138.0460 C   0  0  1  0  0  3  0  0  0  0  0  0
  180.0970  174.6860  138.9800 C   0  0  0  0  0  2  0  0  0  0  0  0
  181.2540  175.4900  139.5420 C   0  0  2  0  0  3  0  0  0  0  0  0
  182.0330  174.2630  137.6450 O   0  0  0  0  0  0  0  0  0  0  0  0
  182.4420  172.3710  136.3160 N   0  0  0  0  0  0  0  0  0  0  0  0
  181.6740  173.3690  136.6390 C   0  0  0  0  0  3  0  0  0  0  0  0
  183.7190  172.1110  136.9690 C   0  0  0  0  0  2  0  0  0  0  0  0
  184.7350  171.6050  135.9560 C   0  0  0  0  0  1  0  0  0  0  0  0
  1 34  1  0  0  0  0
  4 19  2  0  0  0  0
  5 11  1  0  0  0  0
  5 21  1  0  0  0  0
  6  1  1  0  0  0  0
  7  3  1  0  0  0  0
  7 13  1  0  0  0  0
  8  2  1  0  0  0  0
 10  9  1  0  0  0  0
 10 18  2  0  0  0  0
 11 24  1  6  0  0  0
 11 10  1  0  0  0  0
 12  2  1  0  0  0  0
 12  4  2  0  0  0  0
 13 16  1  0  0  0  0
 14  3  1  6  0  0  0
 14 19  1  0  0  0  0
 14 23  1  0  0  0  0
 15 39  1  1  0  0  0
 15 20  1  0  0  0  0
 15  8  1  0  0  0  0
 16 23  2  0  0  0  0
 17  7  2  0  0  0  0
 18  3  2  0  0  0  0
 19  6  1  0  0  0  0
 20  9  1  6  0  0  0
 20 12  1  0  0  0  0
 21 17  2  0  0  0  0
 22  1  2  0  0  0  0
 23 22  1  0  0  0  0
 24 25  1  6  0  0  0
 26 24  1  0  0  0  0
 27 29  1  1  0  0  0
 28 26  1  1  0  0  0
 28 27  1  0  0  0  0
 30 32  1  1  0  0  0
 30 31  1  0  0  0  0
 31 29  1  0  0  0  0
 33 28  1  0  0  0  0
 33 30  1  0  0  0  0
 33 27  1  0  0  0  0
 34 35  1  0  0  0  0
 35 38  1  0  0  0  0
 36 38  2  0  0  0  0
 38 37  1  0  0  0  0
 39 40  1  0  0  0  0
 41 40  1  0  0  0  0
 42 43  1  0  0  0  0
 42 44  1  0  0  0  0
 43 44  1  0  0  0  0
 44 41  1  0  0  0  0
 45 42  1  0  0  0  0
 46 47  2  0  0  0  0
 46 48  1  0  0  0  0
 47 45  1  0  0  0  0
 49 48  1  0  0  0  0
M  END
>  <MODEL>
8

>  <REMARK>
 VINA RESULT:      -6.9      2.827      6.163
  Name = 
  13 active torsions:
  status: ('A' for Active; 'I' for Inactive)
    1  A    between atoms: C_1  and  O_9
    2  A    between atoms: C_2  and  O_15
    3  A    between atoms: C_3  and  N_29
    4  A    between atoms: C_5  and  C_22
    5  A    between atoms: C_5  and  C_38
    6  A    between atoms: C_6  and  N_17
    7  A    between atoms: C_6  and  C_33
    8  A    between atoms: O_9  and  C_49
    9  A    between atoms: O_15  and  C_31
   10  A    between atoms: N_17  and  C_32
   11  A    between atoms: C_25  and  C_38
   12  A    between atoms: C_31  and  C_34
   13  A    between atoms: C_32  and  C_36
                            x       y       z     vdW  Elec       q    Type
                         _______ _______ _______ _____ _____    ______ ____

>  <TORSDO>
F 13

$$$$
=
 OpenBabel10232410043D

 49 56  0  0  1  0  0  0  0  0999 V2000
  189.5790  177.2770  145.4440 C   0  0  0  0  0  0  0  0  0  0  0  0
  185.1550  179.3170  142.6740 O   0  0  0  0  0  0  0  0  0  0  0  0
  189.5870  177.4300  141.1290 C   0  0  0  0  0  0  0  0  0  0  0  0
  187.2660  178.2790  142.7600 C   0  0  0  0  0  0  0  0  0  0  0  0
  189.0930  177.0940  137.4580 C   0  0  0  0  0  2  0  0  0  0  0  0
  188.4660  178.0930  144.8310 C   0  0  0  0  0  2  0  0  0  0  0  0
  190.8110  176.9280  140.4630 C   0  0  0  0  0  0  0  0  0  0  0  0
  183.9930  179.3140  141.9350 N   0  0  0  0  0  2  0  0  0  0  0  0
  186.4460  178.4760  139.7160 O   0  0  0  0  0  0  0  0  0  0  0  0
  187.7790  178.1600  139.4100 C   0  0  0  0  0  0  0  0  0  0  0  0
  188.3420  178.3380  138.0030 C   0  0  2  0  0  3  0  0  0  0  0  0
  186.1540  178.5560  142.1320 C   0  0  0  0  0  0  0  0  0  0  0  0
  192.0860  176.9190  141.2410 C   0  0  0  0  0  2  0  0  0  0  0  0
  189.7010  177.9430  142.5510 C   0  0  1  0  0  3  0  0  0  0  0  0
  184.2790  178.4680  140.7610 C   0  0  1  0  0  3  0  0  0  0  0  0
  191.8150  176.6970  142.6650 N   0  0  0  0  0  0  0  0  0  0  0  0
  190.8200  176.9010  139.1500 C   0  0  0  0  0  0  0  0  0  0  0  0
  188.6130  177.8080  140.3420 C   0  0  0  0  0  0  0  0  0  0  0  0
  188.4000  177.9660  143.3390 C   0  0  0  0  0  0  0  0  0  0  0  0
  185.7240  177.9670  140.8460 C   0  0  1  0  0  3  0  0  0  0  0  0
  190.5430  176.9930  137.8780 C   0  0  0  0  0  3  0  0  0  0  0  0
  190.6330  176.8810  144.7270 C   0  0  0  0  0  3  0  0  0  0  0  0
  190.7730  177.1650  143.2910 C   0  0  0  0  0  0  0  0  0  0  0  0
  187.3000  178.7910  136.9730 C   0  0  1  0  0  3  0  0  0  0  0  0
  187.6300  180.0470  136.4570 O   0  0  0  0  0  1  0  0  0  0  0  0
  187.1260  177.7960  135.8320 C   0  0  0  0  0  2  0  0  0  0  0  0
  184.9370  176.5680  136.3310 C   0  0  2  0  0  3  0  0  0  0  0  0
  185.6510  177.6030  135.4670 C   0  0  2  0  0  3  0  0  0  0  0  0
  185.8240  175.9000  137.2040 O   0  0  0  0  0  0  0  0  0  0  0  0
  186.2060  175.0530  135.0220 C   0  0  2  0  0  3  0  0  0  0  0  0
  186.3480  174.8010  136.5020 C   0  0  0  0  0  2  0  0  0  0  0  0
  187.4910  175.3130  134.3990 N   0  0  0  0  0  1  0  0  0  0  0  0
  185.2670  176.2310  134.8890 C   0  0  1  0  0  3  0  0  0  0  0  0
  189.5490  176.9460  146.8010 O   0  0  0  0  0  0  0  0  0  0  0  0
  189.4580  177.9270  147.8250 C   0  0  0  0  0  2  0  0  0  0  0  0
  187.0000  178.1750  147.5040 O   0  0  0  0  0  0  0  0  0  0  0  0
  187.8610  177.7320  149.5840 O   0  0  0  0  0  1  0  0  0  0  0  0
  188.0700  177.9530  148.3620 C   0  0  0  0  0  0  0  0  0  0  0  0
  183.3370  177.2800  140.7280 C   0  0  0  0  0  2  0  0  0  0  0  0
  182.1960  177.5690  139.8780 N   0  0  0  0  0  2  0  0  0  0  0  0
  181.1100  177.9730  140.7540 C   0  0  0  0  0  2  0  0  0  0  0  0
  180.9150  179.9440  139.2770 C   0  0  1  0  0  3  0  0  0  0  0  0
  180.1610  180.2620  140.5520 C   0  0  0  0  0  2  0  0  0  0  0  0
  180.1370  178.8540  139.9890 C   0  0  2  0  0  3  0  0  0  0  0  0
  180.1660  180.4000  138.1660 O   0  0  0  0  0  0  0  0  0  0  0  0
  181.0300  182.0510  136.7370 N   0  0  0  0  0  0  0  0  0  0  0  0
  180.8180  180.7950  137.0010 C   0  0  0  0  0  3  0  0  0  0  0  0
  180.6080  183.1280  137.6250 C   0  0  0  0  0  2  0  0  0  0  0  0
  181.4130  184.3870  137.3440 C   0  0  0  0  0  1  0  0  0  0  0  0
  1 34  1  0  0  0  0
  4 19  2  0  0  0  0
  5 21  1  0  0  0  0
  5 11  1  0  0  0  0
  6  1  1  0  0  0  0
  7  3  1  0  0  0  0
  7 13  1  0  0  0  0
  8  2  1  0  0  0  0
 10  9  1  0  0  0  0
 10 18  2  0  0  0  0
 11 24  1  6  0  0  0
 11 10  1  0  0  0  0
 12  2  1  0  0  0  0
 12  4  2  0  0  0  0
 13 16  1  0  0  0  0
 14  3  1  6  0  0  0
 14 23  1  0  0  0  0
 14 19  1  0  0  0  0
 15 39  1  1  0  0  0
 15 20  1  0  0  0  0
 15  8  1  0  0  0  0
 16 23  2  0  0  0  0
 17  7  2  0  0  0  0
 18  3  2  0  0  0  0
 19  6  1  0  0  0  0
 20  9  1  6  0  0  0
 20 12  1  0  0  0  0
 21 17  2  0  0  0  0
 22  1  2  0  0  0  0
 23 22  1  0  0  0  0
 24 25  1  6  0  0  0
 26 24  1  0  0  0  0
 27 29  1  1  0  0  0
 28 26  1  1  0  0  0
 28 27  1  0  0  0  0
 30 32  1  1  0  0  0
 30 31  1  0  0  0  0
 31 29  1  0  0  0  0
 33 30  1  0  0  0  0
 33 28  1  0  0  0  0
 33 27  1  0  0  0  0
 34 35  1  0  0  0  0
 35 38  1  0  0  0  0
 36 38  2  0  0  0  0
 38 37  1  0  0  0  0
 40 39  1  0  0  0  0
 40 41  1  0  0  0  0
 42 44  1  0  0  0  0
 42 43  1  0  0  0  0
 44 43  1  0  0  0  0
 44 41  1  0  0  0  0
 45 42  1  0  0  0  0
 46 47  2  0  0  0  0
 46 48  1  0  0  0  0
 47 45  1  0  0  0  0
 49 48  1  0  0  0  0
M  END
>  <MODEL>
9

>  <REMARK>
 VINA RESULT:      -6.8      2.524      6.861
  Name = 
  13 active torsions:
  status: ('A' for Active; 'I' for Inactive)
    1  A    between atoms: C_1  and  O_9
    2  A    between atoms: C_2  and  O_15
    3  A    between atoms: C_3  and  N_29
    4  A    between atoms: C_5  and  C_22
    5  A    between atoms: C_5  and  C_38
    6  A    between atoms: C_6  and  N_17
    7  A    between atoms: C_6  and  C_33
    8  A    between atoms: O_9  and  C_49
    9  A    between atoms: O_15  and  C_31
   10  A    between atoms: N_17  and  C_32
   11  A    between atoms: C_25  and  C_38
   12  A    between atoms: C_31  and  C_34
   13  A    between atoms: C_32  and  C_36
                            x       y       z     vdW  Elec       q    Type
                         _______ _______ _______ _____ _____    ______ ____

>  <TORSDO>
F 13

$$$$
