=
 OpenBabel10232410033D

 28 30  0  0  1  0  0  0  0  0999 V2000
  188.8380  176.6540  143.9220 C   0  0  0  0  0  0  0  0  0  0  0  0
  189.4580  177.0020  145.0560 C   0  0  0  0  0  3  0  0  0  0  0  0
  190.9190  177.1130  145.1190 C   0  0  0  0  0  0  0  0  0  0  0  0
  191.7180  176.7750  143.9400 C   0  0  0  0  0  3  0  0  0  0  0  0
  191.4820  177.4750  146.1840 O   0  0  0  0  0  0  0  0  0  0  0  0
  189.6130  176.4290  142.6390 C   0  0  2  0  0  3  0  0  0  0  0  0
  191.1170  176.4420  142.7980 C   0  0  0  0  0  3  0  0  0  0  0  0
  190.6150  176.1250  138.4950 C   0  0  0  0  0  0  0  0  0  0  0  0
  189.5530  177.3140  140.2650 C   0  0  0  0  0  0  0  0  0  0  0  0
  189.4710  178.2020  138.0280 C   0  0  0  0  0  0  0  0  0  0  0  0
  190.2140  177.1100  137.5790 C   0  0  0  0  0  2  0  0  0  0  0  0
  189.0750  179.1580  137.1540 F   0  0  0  0  0  0  0  0  0  0  0  0
  190.2730  176.2520  139.8060 N   0  0  0  0  0  0  0  0  0  0  0  0
  189.1360  178.3080  139.3780 C   0  0  0  0  0  3  0  0  0  0  0  0
  189.2110  177.4180  141.6490 N   0  0  0  0  0  0  0  0  0  0  0  0
  191.3650  175.0150  138.0940 O   0  0  0  0  0  0  0  0  0  0  0  0
  189.8420  173.4590  137.3610 O   0  0  0  0  0  0  0  0  0  0  0  0
  190.9070  174.0950  137.1520 C   0  0  0  0  0  3  0  0  0  0  0  0
  187.4080  176.5460  143.8620 N   0  0  0  0  0  2  0  0  0  0  0  0
  185.8680  178.1210  145.0360 C   0  0  0  0  0  0  0  0  0  0  0  0
  186.4400  177.6060  143.8850 C   0  0  0  0  0  0  0  0  0  0  0  0
  185.8760  178.4980  142.5780 S   0  0  0  0  0  0  0  0  0  0  0  0
  184.8870  179.5430  143.4570 C   0  0  0  0  0  3  0  0  0  0  0  0
  185.0040  179.1990  144.8030 C   0  0  0  0  0  3  0  0  0  0  0  0
  186.1680  177.6120  146.4050 C   0  0  0  0  0  2  0  0  0  0  0  0
  187.0750  178.4640  147.0370 O   0  0  0  0  0  0  0  0  0  0  0  0
  187.6570  177.6770  148.0290 C   0  0  0  0  0  2  0  0  0  0  0  0
  188.9320  178.3330  148.5130 C   0  0  0  0  0  1  0  0  0  0  0  0
  1  2  2  0  0  0  0
  2  3  1  0  0  0  0
  3  5  2  0  0  0  0
  4  3  1  0  0  0  0
  6 15  1  6  0  0  0
  6  7  1  0  0  0  0
  6  1  1  0  0  0  0
  7  4  2  0  0  0  0
  8 13  2  0  0  0  0
  9 15  2  0  0  0  0
 10 14  2  0  0  0  0
 11 10  1  0  0  0  0
 11  8  1  0  0  0  0
 12 10  1  0  0  0  0
 13  9  1  0  0  0  0
 14  9  1  0  0  0  0
 16  8  1  0  0  0  0
 18 17  2  0  0  0  0
 18 16  1  0  0  0  0
 19 21  1  0  0  0  0
 19  1  1  0  0  0  0
 20 25  1  0  0  0  0
 21 20  2  0  0  0  0
 22 23  1  0  0  0  0
 22 21  1  0  0  0  0
 23 24  2  0  0  0  0
 24 20  1  0  0  0  0
 25 26  1  0  0  0  0
 26 27  1  0  0  0  0
 27 28  1  0  0  0  0
M  END
>  <MODEL>
1

>  <REMARK>
 VINA RESULT:      -8.1      0.000      0.000
  Name = 
  8 active torsions:
  status: ('A' for Active; 'I' for Inactive)
    1  A    between atoms: C_1  and  C_13
    2  A    between atoms: C_2  and  O_26
    3  A    between atoms: C_3  and  N_16
    4  A    between atoms: C_5  and  N_16
    5  A    between atoms: C_12  and  O_25
    6  A    between atoms: C_13  and  O_25
    7  A    between atoms: N_22  and  C_27
    8  A    between atoms: C_23  and  O_26
                            x       y       z     vdW  Elec       q    Type
                         _______ _______ _______ _____ _____    ______ ____

>  <TORSDO>
F 8

$$$$
=
 OpenBabel10232410033D

 28 30  0  0  1  0  0  0  0  0999 V2000
  188.8500  176.7930  144.0530 C   0  0  0  0  0  0  0  0  0  0  0  0
  189.5730  177.0780  145.1430 C   0  0  0  0  0  3  0  0  0  0  0  0
  191.0380  177.0280  145.1160 C   0  0  0  0  0  0  0  0  0  0  0  0
  191.7210  176.5990  143.8950 C   0  0  0  0  0  3  0  0  0  0  0  0
  191.7010  177.3330  146.1400 O   0  0  0  0  0  0  0  0  0  0  0  0
  189.5150  176.4770  142.7280 C   0  0  2  0  0  3  0  0  0  0  0  0
  191.0190  176.3270  142.7950 C   0  0  0  0  0  3  0  0  0  0  0  0
  190.4690  176.1640  138.5730 C   0  0  0  0  0  0  0  0  0  0  0  0
  189.4890  177.3910  140.3640 C   0  0  0  0  0  0  0  0  0  0  0  0
  189.4420  178.3080  138.1370 C   0  0  0  0  0  0  0  0  0  0  0  0
  190.1180  177.1810  137.6710 C   0  0  0  0  0  2  0  0  0  0  0  0
  189.0940  179.2950  137.2780 F   0  0  0  0  0  0  0  0  0  0  0  0
  190.1440  176.2950  139.8880 N   0  0  0  0  0  0  0  0  0  0  0  0
  189.1230  178.4170  139.4910 C   0  0  0  0  0  3  0  0  0  0  0  0
  189.1630  177.4990  141.7520 N   0  0  0  0  0  0  0  0  0  0  0  0
  191.1510  175.0180  138.1540 O   0  0  0  0  0  0  0  0  0  0  0  0
  189.7500  173.3880  137.3420 O   0  0  0  0  0  0  0  0  0  0  0  0
  190.6900  174.1970  137.1270 C   0  0  0  0  0  3  0  0  0  0  0  0
  187.4160  176.8420  144.0810 N   0  0  0  0  0  2  0  0  0  0  0  0
  185.4080  178.2410  144.5710 C   0  0  0  0  0  0  0  0  0  0  0  0
  186.5740  177.6030  144.9600 C   0  0  0  0  0  0  0  0  0  0  0  0
  186.7490  177.8000  146.6190 S   0  0  0  0  0  0  0  0  0  0  0  0
  185.3520  178.7110  146.8640 C   0  0  0  0  0  3  0  0  0  0  0  0
  184.7250  178.8580  145.6270 C   0  0  0  0  0  3  0  0  0  0  0  0
  184.8960  178.2430  143.1710 C   0  0  0  0  0  2  0  0  0  0  0  0
  185.2460  179.4390  142.5430 O   0  0  0  0  0  0  0  0  0  0  0  0
  185.8880  179.0400  141.3720 C   0  0  0  0  0  2  0  0  0  0  0  0
  184.8850  178.9760  140.2400 C   0  0  0  0  0  1  0  0  0  0  0  0
  1 19  1  0  0  0  0
  1  2  2  0  0  0  0
  3  2  1  0  0  0  0
  3  5  2  0  0  0  0
  4  3  1  0  0  0  0
  6 15  1  6  0  0  0
  6  7  1  0  0  0  0
  6  1  1  0  0  0  0
  7  4  2  0  0  0  0
  8 13  2  0  0  0  0
  9 15  2  0  0  0  0
 10 14  2  0  0  0  0
 11 10  1  0  0  0  0
 11  8  1  0  0  0  0
 12 10  1  0  0  0  0
 13  9  1  0  0  0  0
 14  9  1  0  0  0  0
 16  8  1  0  0  0  0
 18 17  2  0  0  0  0
 18 16  1  0  0  0  0
 19 21  1  0  0  0  0
 20 21  2  0  0  0  0
 20 24  1  0  0  0  0
 21 22  1  0  0  0  0
 22 23  1  0  0  0  0
 24 23  2  0  0  0  0
 25 20  1  0  0  0  0
 26 25  1  0  0  0  0
 27 26  1  0  0  0  0
 28 27  1  0  0  0  0
M  END
>  <MODEL>
2

>  <REMARK>
 VINA RESULT:      -8.1      1.572      2.704
  Name = 
  8 active torsions:
  status: ('A' for Active; 'I' for Inactive)
    1  A    between atoms: C_1  and  C_13
    2  A    between atoms: C_2  and  O_26
    3  A    between atoms: C_3  and  N_16
    4  A    between atoms: C_5  and  N_16
    5  A    between atoms: C_12  and  O_25
    6  A    between atoms: C_13  and  O_25
    7  A    between atoms: N_22  and  C_27
    8  A    between atoms: C_23  and  O_26
                            x       y       z     vdW  Elec       q    Type
                         _______ _______ _______ _____ _____    ______ ____

>  <TORSDO>
F 8

$$$$
=
 OpenBabel10232410033D

 28 30  0  0  1  0  0  0  0  0999 V2000
  188.3790  177.8790  138.9520 C   0  0  0  0  0  0  0  0  0  0  0  0
  188.9270  176.9040  138.2160 C   0  0  0  0  0  3  0  0  0  0  0  0
  190.0910  176.1530  138.6960 C   0  0  0  0  0  0  0  0  0  0  0  0
  190.7050  176.5160  139.9740 C   0  0  0  0  0  3  0  0  0  0  0  0
  190.5700  175.2170  138.0050 O   0  0  0  0  0  0  0  0  0  0  0  0
  188.8940  178.1990  140.3410 C   0  0  2  0  0  3  0  0  0  0  0  0
  190.1640  177.4730  140.7280 C   0  0  0  0  0  3  0  0  0  0  0  0
  189.6720  177.7720  144.5220 C   0  0  0  0  0  0  0  0  0  0  0  0
  188.1180  177.7800  142.7170 C   0  0  0  0  0  0  0  0  0  0  0  0
  187.3270  177.3730  144.9550 C   0  0  0  0  0  0  0  0  0  0  0  0
  188.6340  177.4990  145.4270 C   0  0  0  0  0  3  0  0  0  0  0  0
  186.3160  177.1130  145.8180 F   0  0  0  0  0  0  0  0  0  0  0  0
  189.3860  177.9070  143.1990 N   0  0  0  0  0  0  0  0  0  0  0  0
  187.0640  177.5130  143.5930 C   0  0  0  0  0  2  0  0  0  0  0  0
  187.8510  177.9270  141.3200 N   0  0  0  0  0  0  0  0  0  0  0  0
  190.9970  177.9030  144.9470 O   0  0  0  0  0  0  0  0  0  0  0  0
  191.7280  176.9140  146.8880 O   0  0  0  0  0  0  0  0  0  0  0  0
  191.6740  176.8940  145.6310 C   0  0  0  0  0  3  0  0  0  0  0  0
  187.2400  178.6120  138.4800 N   0  0  0  0  0  2  0  0  0  0  0  0
  184.7750  178.3550  138.7750 C   0  0  0  0  0  0  0  0  0  0  0  0
  185.9550  178.1000  138.0960 C   0  0  0  0  0  0  0  0  0  0  0  0
  185.5870  177.1930  136.7300 S   0  0  0  0  0  0  0  0  0  0  0  0
  183.9240  177.1010  136.9900 C   0  0  0  0  0  3  0  0  0  0  0  0
  183.6430  177.8020  138.1630 C   0  0  0  0  0  3  0  0  0  0  0  0
  184.6980  179.1740  140.0180 C   0  0  0  0  0  2  0  0  0  0  0  0
  183.5450  178.8410  140.7310 O   0  0  0  0  0  0  0  0  0  0  0  0
  184.0130  178.1250  141.8310 C   0  0  0  0  0  2  0  0  0  0  0  0
  183.6010  178.8290  143.1060 C   0  0  0  0  0  1  0  0  0  0  0  0
  1  6  1  0  0  0  0
  2  3  1  0  0  0  0
  2  1  2  0  0  0  0
  3  4  1  0  0  0  0
  4  7  2  0  0  0  0
  5  3  2  0  0  0  0
  6  7  1  0  0  0  0
  6 15  1  1  0  0  0
  8 16  1  0  0  0  0
  8 11  1  0  0  0  0
  9 13  1  0  0  0  0
  9 14  1  0  0  0  0
 10 11  2  0  0  0  0
 10 12  1  0  0  0  0
 13  8  2  0  0  0  0
 14 10  1  0  0  0  0
 15  9  2  0  0  0  0
 16 18  1  0  0  0  0
 18 17  2  0  0  0  0
 19  1  1  0  0  0  0
 20 25  1  0  0  0  0
 21 19  1  0  0  0  0
 21 20  2  0  0  0  0
 22 23  1  0  0  0  0
 22 21  1  0  0  0  0
 23 24  2  0  0  0  0
 24 20  1  0  0  0  0
 25 26  1  0  0  0  0
 26 27  1  0  0  0  0
 27 28  1  0  0  0  0
M  END
>  <MODEL>
3

>  <REMARK>
 VINA RESULT:      -7.0      3.435      6.556
  Name = 
  8 active torsions:
  status: ('A' for Active; 'I' for Inactive)
    1  A    between atoms: C_1  and  C_13
    2  A    between atoms: C_2  and  O_26
    3  A    between atoms: C_3  and  N_16
    4  A    between atoms: C_5  and  N_16
    5  A    between atoms: C_12  and  O_25
    6  A    between atoms: C_13  and  O_25
    7  A    between atoms: N_22  and  C_27
    8  A    between atoms: C_23  and  O_26
                            x       y       z     vdW  Elec       q    Type
                         _______ _______ _______ _____ _____    ______ ____

>  <TORSDO>
F 8

$$$$
=
 OpenBabel10232410033D

 28 30  0  0  1  0  0  0  0  0999 V2000
  185.5170  178.1130  144.3070 C   0  0  0  0  0  0  0  0  0  0  0  0
  185.2000  178.9550  145.2990 C   0  0  0  0  0  3  0  0  0  0  0  0
  186.0120  179.0330  146.5170 C   0  0  0  0  0  0  0  0  0  0  0  0
  187.1530  178.1320  146.6800 C   0  0  0  0  0  3  0  0  0  0  0  0
  185.7180  179.8550  147.4220 O   0  0  0  0  0  0  0  0  0  0  0  0
  186.7670  177.2590  144.3710 C   0  0  2  0  0  3  0  0  0  0  0  0
  187.4940  177.2990  145.6970 C   0  0  0  0  0  3  0  0  0  0  0  0
  190.9960  176.6630  144.5630 C   0  0  0  0  0  0  0  0  0  0  0  0
  189.0880  177.4470  143.3710 C   0  0  0  0  0  0  0  0  0  0  0  0
  191.2720  177.6540  142.3750 C   0  0  0  0  0  0  0  0  0  0  0  0
  191.8310  177.0610  143.5070 C   0  0  0  0  0  3  0  0  0  0  0  0
  192.0660  178.0390  141.3480 F   0  0  0  0  0  0  0  0  0  0  0  0
  189.6540  176.8640  144.4640 N   0  0  0  0  0  0  0  0  0  0  0  0
  189.8930  177.8490  142.3030 C   0  0  0  0  0  3  0  0  0  0  0  0
  187.6740  177.6440  143.2980 N   0  0  0  0  0  2  0  0  0  0  0  0
  191.5100  176.0700  145.7190 O   0  0  0  0  0  0  0  0  0  0  0  0
  192.1480  176.6620  147.8450 O   0  0  0  0  0  0  0  0  0  0  0  0
  191.2240  176.5390  147.0000 C   0  0  0  0  0  3  0  0  0  0  0  0
  184.7220  178.0380  143.1150 N   0  0  0  0  0  2  0  0  0  0  0  0
  182.7810  178.6640  141.6770 C   0  0  0  0  0  0  0  0  0  0  0  0
  183.3820  178.5130  142.9150 C   0  0  0  0  0  0  0  0  0  0  0  0
  182.2450  178.8850  144.0960 S   0  0  0  0  0  0  0  0  0  0  0  0
  180.9770  179.2540  143.0480 C   0  0  0  0  0  3  0  0  0  0  0  0
  181.4430  179.0750  141.7460 C   0  0  0  0  0  3  0  0  0  0  0  0
  183.4690  178.3790  140.3850 C   0  0  0  0  0  2  0  0  0  0  0  0
  184.3400  179.4230  140.0750 O   0  0  0  0  0  0  0  0  0  0  0  0
  185.5210  178.7880  139.6940 C   0  0  0  0  0  2  0  0  0  0  0  0
  185.4450  178.4130  138.2290 C   0  0  0  0  0  1  0  0  0  0  0  0
  1  6  1  0  0  0  0
  1  2  2  0  0  0  0
  2  3  1  0  0  0  0
  3  4  1  0  0  0  0
  3  5  2  0  0  0  0
  6 15  1  6  0  0  0
  6  7  1  0  0  0  0
  7  4  2  0  0  0  0
  8 16  1  0  0  0  0
  9 13  1  0  0  0  0
 10 11  2  0  0  0  0
 11  8  1  0  0  0  0
 12 10  1  0  0  0  0
 13  8  2  0  0  0  0
 14 10  1  0  0  0  0
 14  9  2  0  0  0  0
 15  9  1  0  0  0  0
 16 18  1  0  0  0  0
 18 17  2  0  0  0  0
 19  1  1  0  0  0  0
 20 24  1  0  0  0  0
 20 21  2  0  0  0  0
 21 19  1  0  0  0  0
 21 22  1  0  0  0  0
 23 22  1  0  0  0  0
 24 23  2  0  0  0  0
 25 20  1  0  0  0  0
 26 25  1  0  0  0  0
 27 26  1  0  0  0  0
 28 27  1  0  0  0  0
M  END
>  <MODEL>
4

>  <REMARK>
 VINA RESULT:      -6.7      3.501      6.033
  Name = 
  8 active torsions:
  status: ('A' for Active; 'I' for Inactive)
    1  A    between atoms: C_1  and  C_13
    2  A    between atoms: C_2  and  O_26
    3  A    between atoms: C_3  and  N_16
    4  A    between atoms: C_5  and  N_16
    5  A    between atoms: C_12  and  O_25
    6  A    between atoms: C_13  and  O_25
    7  A    between atoms: N_22  and  C_27
    8  A    between atoms: C_23  and  O_26
                            x       y       z     vdW  Elec       q    Type
                         _______ _______ _______ _____ _____    ______ ____

>  <TORSDO>
F 8

$$$$
=
 OpenBabel10232410033D

 28 30  0  0  1  0  0  0  0  0999 V2000
  186.2240  177.9760  143.6430 C   0  0  0  0  0  0  0  0  0  0  0  0
  186.3040  178.0160  144.9790 C   0  0  0  0  0  3  0  0  0  0  0  0
  185.5010  178.9620  145.7590 C   0  0  0  0  0  0  0  0  0  0  0  0
  184.6430  179.9230  145.0640 C   0  0  0  0  0  3  0  0  0  0  0  0
  185.5640  178.9610  147.0160 O   0  0  0  0  0  0  0  0  0  0  0  0
  185.2500  178.8560  142.8870 C   0  0  2  0  0  3  0  0  0  0  0  0
  184.5390  179.8870  143.7360 C   0  0  0  0  0  3  0  0  0  0  0  0
  185.1340  178.4090  138.6380 C   0  0  0  0  0  0  0  0  0  0  0  0
  184.2350  177.8800  140.7800 C   0  0  0  0  0  0  0  0  0  0  0  0
  183.2300  176.9290  138.8080 C   0  0  0  0  0  0  0  0  0  0  0  0
  184.1650  177.6010  138.0210 C   0  0  0  0  0  2  0  0  0  0  0  0
  182.2920  176.1440  138.2260 F   0  0  0  0  0  0  0  0  0  0  0  0
  185.1440  178.5230  139.9930 N   0  0  0  0  0  0  0  0  0  0  0  0
  183.2630  177.0670  140.1960 C   0  0  0  0  0  3  0  0  0  0  0  0
  184.2720  178.0220  142.2010 N   0  0  0  0  0  0  0  0  0  0  0  0
  186.0880  179.1060  137.8910 O   0  0  0  0  0  0  0  0  0  0  0  0
  188.3160  179.0400  137.3340 O   0  0  0  0  0  0  0  0  0  0  0  0
  187.1870  178.4840  137.3020 C   0  0  0  0  0  3  0  0  0  0  0  0
  187.0110  177.0490  142.8810 N   0  0  0  0  0  2  0  0  0  0  0  0
  189.5010  177.1380  143.0180 C   0  0  0  0  0  0  0  0  0  0  0  0
  188.3140  177.2510  142.3140 C   0  0  0  0  0  0  0  0  0  0  0  0
  188.6880  177.5610  140.7050 S   0  0  0  0  0  0  0  0  0  0  0  0
  190.3640  177.5670  140.8840 C   0  0  0  0  0  3  0  0  0  0  0  0
  190.6440  177.3120  142.2270 C   0  0  0  0  0  3  0  0  0  0  0  0
  189.5710  176.8200  144.4730 C   0  0  0  0  0  2  0  0  0  0  0  0
  190.8940  176.5650  144.8360 O   0  0  0  0  0  0  0  0  0  0  0  0
  190.9650  176.9400  146.1770 C   0  0  0  0  0  2  0  0  0  0  0  0
  189.5690  177.0030  146.7590 C   0  0  0  0  0  1  0  0  0  0  0  0
  1  2  2  0  0  0  0
  2  3  1  0  0  0  0
  3  5  2  0  0  0  0
  4  3  1  0  0  0  0
  6 15  1  1  0  0  0
  6  1  1  0  0  0  0
  6  7  1  0  0  0  0
  7  4  2  0  0  0  0
  8 13  2  0  0  0  0
  9 15  2  0  0  0  0
 10 14  2  0  0  0  0
 11  8  1  0  0  0  0
 11 10  1  0  0  0  0
 12 10  1  0  0  0  0
 13  9  1  0  0  0  0
 14  9  1  0  0  0  0
 16  8  1  0  0  0  0
 18 17  2  0  0  0  0
 18 16  1  0  0  0  0
 19  1  1  0  0  0  0
 20 25  1  0  0  0  0
 21 19  1  0  0  0  0
 21 20  2  0  0  0  0
 22 23  1  0  0  0  0
 22 21  1  0  0  0  0
 23 24  2  0  0  0  0
 24 20  1  0  0  0  0
 25 26  1  0  0  0  0
 26 27  1  0  0  0  0
 27 28  1  0  0  0  0
M  END
>  <MODEL>
5

>  <REMARK>
 VINA RESULT:      -6.7      3.303      5.398
  Name = 
  8 active torsions:
  status: ('A' for Active; 'I' for Inactive)
    1  A    between atoms: C_1  and  C_13
    2  A    between atoms: C_2  and  O_26
    3  A    between atoms: C_3  and  N_16
    4  A    between atoms: C_5  and  N_16
    5  A    between atoms: C_12  and  O_25
    6  A    between atoms: C_13  and  O_25
    7  A    between atoms: N_22  and  C_27
    8  A    between atoms: C_23  and  O_26
                            x       y       z     vdW  Elec       q    Type
                         _______ _______ _______ _____ _____    ______ ____

>  <TORSDO>
F 8

$$$$
=
 OpenBabel10232410033D

 28 30  0  0  1  0  0  0  0  0999 V2000
  189.6770  177.1610  140.1010 C   0  0  0  0  0  0  0  0  0  0  0  0
  188.4250  177.6320  140.1590 C   0  0  0  0  0  3  0  0  0  0  0  0
  187.7710  178.1940  138.9730 C   0  0  0  0  0  0  0  0  0  0  0  0
  188.5200  178.3010  137.7200 C   0  0  0  0  0  3  0  0  0  0  0  0
  186.5820  178.6000  139.0380 O   0  0  0  0  0  0  0  0  0  0  0  0
  190.4440  177.1230  138.7950 C   0  0  2  0  0  3  0  0  0  0  0  0
  189.7610  177.8220  137.6400 C   0  0  0  0  0  3  0  0  0  0  0  0
  193.8820  175.9510  136.5420 C   0  0  0  0  0  0  0  0  0  0  0  0
  191.8760  175.3550  137.6790 C   0  0  0  0  0  0  0  0  0  0  0  0
  193.1980  173.6340  136.6320 C   0  0  0  0  0  0  0  0  0  0  0  0
  194.1070  174.6050  136.2120 C   0  0  0  0  0  2  0  0  0  0  0  0
  193.4050  172.3330  136.3240 F   0  0  0  0  0  0  0  0  0  0  0  0
  192.7800  176.2870  137.2650 N   0  0  0  0  0  0  0  0  0  0  0  0
  192.0750  174.0080  137.3710 C   0  0  0  0  0  3  0  0  0  0  0  0
  190.7280  175.7400  138.4370 N   0  0  0  0  0  0  0  0  0  0  0  0
  194.7620  176.9600  136.1390 O   0  0  0  0  0  0  0  0  0  0  0  0
  197.0150  176.7180  135.7610 O   0  0  0  0  0  0  0  0  0  0  0  0
  195.8460  176.7240  135.2950 C   0  0  0  0  0  3  0  0  0  0  0  0
  190.3160  176.6110  141.2620 N   0  0  0  0  0  2  0  0  0  0  0  0
  189.4350  176.9960  143.5660 C   0  0  0  0  0  0  0  0  0  0  0  0
  190.3920  177.1740  142.5810 C   0  0  0  0  0  0  0  0  0  0  0  0
  191.6600  178.0610  143.2370 S   0  0  0  0  0  0  0  0  0  0  0  0
  191.0030  178.2410  144.7800 C   0  0  0  0  0  3  0  0  0  0  0  0
  189.7720  177.5870  144.7910 C   0  0  0  0  0  3  0  0  0  0  0  0
  188.1810  176.2160  143.3660 C   0  0  0  0  0  2  0  0  0  0  0  0
  187.1660  176.7440  144.1650 O   0  0  0  0  0  0  0  0  0  0  0  0
  186.5290  177.6740  143.3460 C   0  0  0  0  0  2  0  0  0  0  0  0
  185.4930  178.4310  144.1480 C   0  0  0  0  0  1  0  0  0  0  0  0
  1  2  2  0  0  0  0
  1 19  1  0  0  0  0
  3  5  2  0  0  0  0
  3  2  1  0  0  0  0
  4  3  1  0  0  0  0
  6 15  1  6  0  0  0
  6  1  1  0  0  0  0
  7  4  2  0  0  0  0
  7  6  1  0  0  0  0
  8 13  2  0  0  0  0
  9 15  2  0  0  0  0
 10 14  2  0  0  0  0
 11  8  1  0  0  0  0
 11 10  1  0  0  0  0
 12 10  1  0  0  0  0
 13  9  1  0  0  0  0
 14  9  1  0  0  0  0
 16  8  1  0  0  0  0
 18 17  2  0  0  0  0
 18 16  1  0  0  0  0
 19 21  1  0  0  0  0
 20 24  1  0  0  0  0
 21 22  1  0  0  0  0
 21 20  2  0  0  0  0
 22 23  1  0  0  0  0
 23 24  2  0  0  0  0
 25 20  1  0  0  0  0
 25 26  1  0  0  0  0
 27 28  1  0  0  0  0
 27 26  1  0  0  0  0
M  END
>  <MODEL>
6

>  <REMARK>
 VINA RESULT:      -6.7      3.301      5.437
  Name = 
  8 active torsions:
  status: ('A' for Active; 'I' for Inactive)
    1  A    between atoms: C_1  and  C_13
    2  A    between atoms: C_2  and  O_26
    3  A    between atoms: C_3  and  N_16
    4  A    between atoms: C_5  and  N_16
    5  A    between atoms: C_12  and  O_25
    6  A    between atoms: C_13  and  O_25
    7  A    between atoms: N_22  and  C_27
    8  A    between atoms: C_23  and  O_26
                            x       y       z     vdW  Elec       q    Type
                         _______ _______ _______ _____ _____    ______ ____

>  <TORSDO>
F 8

$$$$
=
 OpenBabel10232410033D

 28 30  0  0  1  0  0  0  0  0999 V2000
  187.7460  177.5990  143.6330 C   0  0  0  0  0  0  0  0  0  0  0  0
  186.4100  177.5370  143.6650 C   0  0  0  0  0  3  0  0  0  0  0  0
  185.5970  178.1090  142.5870 C   0  0  0  0  0  0  0  0  0  0  0  0
  186.2550  178.8160  141.4870 C   0  0  0  0  0  3  0  0  0  0  0  0
  184.3440  178.0100  142.6180 O   0  0  0  0  0  0  0  0  0  0  0  0
  188.4770  178.1990  142.4490 C   0  0  2  0  0  3  0  0  0  0  0  0
  187.5860  178.8730  141.4300 C   0  0  0  0  0  3  0  0  0  0  0  0
  189.4500  178.2730  138.2870 C   0  0  0  0  0  0  0  0  0  0  0  0
  189.5960  177.1970  140.4070 C   0  0  0  0  0  0  0  0  0  0  0  0
  190.6740  176.1990  138.4970 C   0  0  0  0  0  0  0  0  0  0  0  0
  190.2170  177.2510  137.7040 C   0  0  0  0  0  2  0  0  0  0  0  0
  191.4170  175.2090  137.9490 F   0  0  0  0  0  0  0  0  0  0  0  0
  189.1650  178.2190  139.6160 N   0  0  0  0  0  0  0  0  0  0  0  0
  190.3640  176.1690  139.8570 C   0  0  0  0  0  3  0  0  0  0  0  0
  189.2780  177.1690  141.8000 N   0  0  0  0  0  0  0  0  0  0  0  0
  188.9660  179.3460  137.5320 O   0  0  0  0  0  0  0  0  0  0  0  0
  186.7430  178.7820  137.3870 O   0  0  0  0  0  0  0  0  0  0  0  0
  187.7540  179.2990  136.8440 C   0  0  0  0  0  3  0  0  0  0  0  0
  188.5400  177.0390  144.6890 N   0  0  0  0  0  2  0  0  0  0  0  0
  189.6150  177.3430  146.9210 C   0  0  0  0  0  0  0  0  0  0  0  0
  188.5100  177.3650  146.0870 C   0  0  0  0  0  0  0  0  0  0  0  0
  187.1960  177.9230  146.9740 S   0  0  0  0  0  0  0  0  0  0  0  0
  188.0120  178.1330  148.4340 C   0  0  0  0  0  3  0  0  0  0  0  0
  189.3430  177.7710  148.2270 C   0  0  0  0  0  3  0  0  0  0  0  0
  190.9800  176.9450  146.4730 C   0  0  0  0  0  2  0  0  0  0  0  0
  191.8700  177.0260  147.5440 O   0  0  0  0  0  0  0  0  0  0  0  0
  192.3600  175.7290  147.6870 C   0  0  0  0  0  2  0  0  0  0  0  0
  192.3570  175.0360  146.3410 C   0  0  0  0  0  1  0  0  0  0  0  0
  1  2  2  0  0  0  0
  1 19  1  0  0  0  0
  3  5  2  0  0  0  0
  3  2  1  0  0  0  0
  4  3  1  0  0  0  0
  6 15  1  6  0  0  0
  6  1  1  0  0  0  0
  7  4  2  0  0  0  0
  7  6  1  0  0  0  0
  8 13  2  0  0  0  0
  9 15  2  0  0  0  0
 10 14  2  0  0  0  0
 11  8  1  0  0  0  0
 11 10  1  0  0  0  0
 12 10  1  0  0  0  0
 13  9  1  0  0  0  0
 14  9  1  0  0  0  0
 16  8  1  0  0  0  0
 18 17  2  0  0  0  0
 18 16  1  0  0  0  0
 19 21  1  0  0  0  0
 20 24  1  0  0  0  0
 21 20  2  0  0  0  0
 21 22  1  0  0  0  0
 22 23  1  0  0  0  0
 24 23  2  0  0  0  0
 25 20  1  0  0  0  0
 25 26  1  0  0  0  0
 26 27  1  0  0  0  0
 28 27  1  0  0  0  0
M  END
>  <MODEL>
7

>  <REMARK>
 VINA RESULT:      -6.7      2.655      4.413
  Name = 
  8 active torsions:
  status: ('A' for Active; 'I' for Inactive)
    1  A    between atoms: C_1  and  C_13
    2  A    between atoms: C_2  and  O_26
    3  A    between atoms: C_3  and  N_16
    4  A    between atoms: C_5  and  N_16
    5  A    between atoms: C_12  and  O_25
    6  A    between atoms: C_13  and  O_25
    7  A    between atoms: N_22  and  C_27
    8  A    between atoms: C_23  and  O_26
                            x       y       z     vdW  Elec       q    Type
                         _______ _______ _______ _____ _____    ______ ____

>  <TORSDO>
F 8

$$$$
=
 OpenBabel10232410033D

 28 30  0  0  1  0  0  0  0  0999 V2000
  188.5980  178.0330  141.1690 C   0  0  0  0  0  0  0  0  0  0  0  0
  189.3670  176.9420  141.2790 C   0  0  0  0  0  3  0  0  0  0  0  0
  189.4400  176.1890  142.5350 C   0  0  0  0  0  0  0  0  0  0  0  0
  188.7100  176.6720  143.7080 C   0  0  0  0  0  3  0  0  0  0  0  0
  190.1410  175.1470  142.6080 O   0  0  0  0  0  0  0  0  0  0  0  0
  187.7180  178.4930  142.3140 C   0  0  2  0  0  3  0  0  0  0  0  0
  187.9270  177.7460  143.6130 C   0  0  0  0  0  3  0  0  0  0  0  0
  184.4750  178.9170  145.0670 C   0  0  0  0  0  0  0  0  0  0  0  0
  185.2400  178.5460  142.8410 C   0  0  0  0  0  0  0  0  0  0  0  0
  182.8730  178.5830  143.2880 C   0  0  0  0  0  0  0  0  0  0  0  0
  183.1430  178.8170  144.6360 C   0  0  0  0  0  3  0  0  0  0  0  0
  181.5920  178.4880  142.8590 F   0  0  0  0  0  0  0  0  0  0  0  0
  185.4820  178.7820  144.1610 N   0  0  0  0  0  0  0  0  0  0  0  0
  183.9250  178.4470  142.3820 C   0  0  0  0  0  2  0  0  0  0  0  0
  186.3190  178.4090  141.9150 N   0  0  0  0  0  0  0  0  0  0  0  0
  184.7960  179.1460  146.4080 O   0  0  0  0  0  0  0  0  0  0  0  0
  186.7450  178.9740  147.6120 O   0  0  0  0  0  0  0  0  0  0  0  0
  185.7520  178.4000  147.0940 C   0  0  0  0  0  3  0  0  0  0  0  0
  188.5280  178.7690  139.9400 N   0  0  0  0  0  2  0  0  0  0  0  0
  186.9900  178.0330  138.1170 C   0  0  0  0  0  0  0  0  0  0  0  0
  188.2580  178.2670  138.6220 C   0  0  0  0  0  0  0  0  0  0  0  0
  189.3710  177.9560  137.4030 S   0  0  0  0  0  0  0  0  0  0  0  0
  188.2570  177.5080  136.2200 C   0  0  0  0  0  3  0  0  0  0  0  0
  186.9850  177.6110  136.7810 C   0  0  0  0  0  3  0  0  0  0  0  0
  185.7380  178.2460  138.8980 C   0  0  0  0  0  2  0  0  0  0  0  0
  185.2200  179.5120  138.6210 O   0  0  0  0  0  0  0  0  0  0  0  0
  183.8570  179.3960  138.8910 C   0  0  0  0  0  2  0  0  0  0  0  0
  183.3130  178.1530  138.2210 C   0  0  0  0  0  1  0  0  0  0  0  0
  1  2  2  0  0  0  0
  1  6  1  0  0  0  0
  2  3  1  0  0  0  0
  3  5  2  0  0  0  0
  3  4  1  0  0  0  0
  6 15  1  6  0  0  0
  6  7  1  0  0  0  0
  7  4  2  0  0  0  0
  8 16  1  0  0  0  0
  9 13  1  0  0  0  0
 10 11  2  0  0  0  0
 11  8  1  0  0  0  0
 12 10  1  0  0  0  0
 13  8  2  0  0  0  0
 14  9  1  0  0  0  0
 14 10  1  0  0  0  0
 15  9  2  0  0  0  0
 16 18  1  0  0  0  0
 18 17  2  0  0  0  0
 19  1  1  0  0  0  0
 20 21  2  0  0  0  0
 20 25  1  0  0  0  0
 21 19  1  0  0  0  0
 22 21  1  0  0  0  0
 23 24  2  0  0  0  0
 23 22  1  0  0  0  0
 24 20  1  0  0  0  0
 26 27  1  0  0  0  0
 26 25  1  0  0  0  0
 28 27  1  0  0  0  0
M  END
>  <MODEL>
8

>  <REMARK>
 VINA RESULT:      -6.6      3.525      7.618
  Name = 
  8 active torsions:
  status: ('A' for Active; 'I' for Inactive)
    1  A    between atoms: C_1  and  C_13
    2  A    between atoms: C_2  and  O_26
    3  A    between atoms: C_3  and  N_16
    4  A    between atoms: C_5  and  N_16
    5  A    between atoms: C_12  and  O_25
    6  A    between atoms: C_13  and  O_25
    7  A    between atoms: N_22  and  C_27
    8  A    between atoms: C_23  and  O_26
                            x       y       z     vdW  Elec       q    Type
                         _______ _______ _______ _____ _____    ______ ____

>  <TORSDO>
F 8

$$$$
=
 OpenBabel10232410033D

 28 30  0  0  1  0  0  0  0  0999 V2000
  188.8360  177.5750  142.3660 C   0  0  0  0  0  0  0  0  0  0  0  0
  189.6340  178.0340  143.3380 C   0  0  0  0  0  3  0  0  0  0  0  0
  191.0890  178.0860  143.1640 C   0  0  0  0  0  0  0  0  0  0  0  0
  191.6860  177.5680  141.9320 C   0  0  0  0  0  3  0  0  0  0  0  0
  191.8200  178.5530  144.0750 O   0  0  0  0  0  0  0  0  0  0  0  0
  189.3950  177.1570  141.0210 C   0  0  2  0  0  3  0  0  0  0  0  0
  190.9060  177.1220  140.9470 C   0  0  0  0  0  3  0  0  0  0  0  0
  188.0650  175.7290  137.2180 C   0  0  0  0  0  0  0  0  0  0  0  0
  188.4310  177.5490  138.7100 C   0  0  0  0  0  0  0  0  0  0  0  0
  187.5160  177.9790  136.5240 C   0  0  0  0  0  0  0  0  0  0  0  0
  187.5750  176.6140  136.2440 C   0  0  0  0  0  2  0  0  0  0  0  0
  187.0430  178.8420  135.5940 F   0  0  0  0  0  0  0  0  0  0  0  0
  188.4740  176.2190  138.4190 N   0  0  0  0  0  0  0  0  0  0  0  0
  187.9450  178.4530  137.7630 C   0  0  0  0  0  3  0  0  0  0  0  0
  188.8690  178.0320  139.9820 N   0  0  0  0  0  0  0  0  0  0  0  0
  188.1480  174.3540  136.9820 O   0  0  0  0  0  0  0  0  0  0  0  0
  186.3160  173.2270  137.7880 O   0  0  0  0  0  0  0  0  0  0  0  0
  187.0240  173.5500  136.8000 C   0  0  0  0  0  3  0  0  0  0  0  0
  187.4120  177.5260  142.5370 N   0  0  0  0  0  2  0  0  0  0  0  0
  185.4600  178.6180  143.6430 C   0  0  0  0  0  0  0  0  0  0  0  0
  186.6460  177.9070  143.6910 C   0  0  0  0  0  0  0  0  0  0  0  0
  186.9500  177.5030  145.2930 S   0  0  0  0  0  0  0  0  0  0  0  0
  185.5830  178.2390  145.9510 C   0  0  0  0  0  3  0  0  0  0  0  0
  184.8640  178.8050  144.8980 C   0  0  0  0  0  3  0  0  0  0  0  0
  184.8410  179.1100  142.3790 C   0  0  0  0  0  2  0  0  0  0  0  0
  183.8000  178.2600  142.0030 O   0  0  0  0  0  0  0  0  0  0  0  0
  183.6130  178.5200  140.6460 C   0  0  0  0  0  2  0  0  0  0  0  0
  184.9410  178.8690  140.0090 C   0  0  0  0  0  1  0  0  0  0  0  0
  1 19  1  0  0  0  0
  1  2  2  0  0  0  0
  3  2  1  0  0  0  0
  3  5  2  0  0  0  0
  4  3  1  0  0  0  0
  6 15  1  6  0  0  0
  6  1  1  0  0  0  0
  7  6  1  0  0  0  0
  7  4  2  0  0  0  0
  8 13  2  0  0  0  0
  9 15  2  0  0  0  0
 10 14  2  0  0  0  0
 11 10  1  0  0  0  0
 11  8  1  0  0  0  0
 12 10  1  0  0  0  0
 13  9  1  0  0  0  0
 14  9  1  0  0  0  0
 16  8  1  0  0  0  0
 18 16  1  0  0  0  0
 18 17  2  0  0  0  0
 19 21  1  0  0  0  0
 20 21  2  0  0  0  0
 20 24  1  0  0  0  0
 21 22  1  0  0  0  0
 22 23  1  0  0  0  0
 24 23  2  0  0  0  0
 25 20  1  0  0  0  0
 26 25  1  0  0  0  0
 27 26  1  0  0  0  0
 28 27  1  0  0  0  0
M  END
>  <MODEL>
9

>  <REMARK>
 VINA RESULT:      -6.6      2.439      3.565
  Name = 
  8 active torsions:
  status: ('A' for Active; 'I' for Inactive)
    1  A    between atoms: C_1  and  C_13
    2  A    between atoms: C_2  and  O_26
    3  A    between atoms: C_3  and  N_16
    4  A    between atoms: C_5  and  N_16
    5  A    between atoms: C_12  and  O_25
    6  A    between atoms: C_13  and  O_25
    7  A    between atoms: N_22  and  C_27
    8  A    between atoms: C_23  and  O_26
                            x       y       z     vdW  Elec       q    Type
                         _______ _______ _______ _____ _____    ______ ____

>  <TORSDO>
F 8

$$$$
