=
 OpenBabel10232410363D

 50 56  0  0  1  0  0  0  0  0999 V2000
  181.2770  178.9830  135.8080 C   0  0  0  0  0  0  0  0  0  0  0  0
  181.8840  176.2480  135.7970 C   0  0  0  0  0  0  0  0  0  0  0  0
  183.4830  174.4590  135.2160 C   0  0  2  0  0  3  0  0  0  0  0  0
  181.6940  176.8530  137.1900 C   0  0  1  0  0  3  0  0  0  0  0  0
  181.7270  176.9640  134.6620 C   0  0  0  0  0  3  0  0  0  0  0  0
  183.3760  172.9820  134.8540 C   0  0  0  0  0  1  0  0  0  0  0  0
  181.3930  178.3640  134.6780 N   0  0  0  0  0  0  0  0  0  0  0  0
  180.8640  180.3230  135.9780 N   0  0  0  0  0  0  0  0  0  0  0  0
  182.9230  176.5460  138.0730 C   0  0  2  0  0  3  0  0  0  0  0  0
  183.0260  175.0400  138.3110 C   0  0  0  0  0  2  0  0  0  0  0  0
  181.0350  179.2060  137.9940 C   0  0  0  0  0  3  0  0  0  0  0  0
  184.6540  174.7640  136.2210 C   0  0  1  0  0  0  0  0  0  0  0  0
  184.0330  172.9660  137.7780 O   0  0  0  0  0  1  0  0  0  0  0  0
  180.7290  180.4560  137.2640 C   0  0  0  0  0  3  0  0  0  0  0  0
  181.4020  178.3300  137.0710 C   0  0  0  0  0  0  0  0  0  0  0  0
  182.2160  174.8980  135.6990 O   0  0  0  0  0  0  0  0  0  0  0  0
  184.2450  174.3440  137.6820 C   0  0  2  0  0  3  0  0  0  0  0  0
  186.7020  173.3870  136.8770 C   0  0  0  0  0  2  0  0  0  0  0  0
  185.9550  174.0340  135.7200 C   0  0  0  0  0  3  0  0  0  0  0  0
  186.0100  172.5180  135.8510 C   0  0  0  0  0  2  0  0  0  0  0  0
  182.8670  177.2380  139.4250 C   0  0  0  0  0  2  0  0  0  0  0  0
  184.1720  178.7150  140.9710 C   0  0  1  0  0  3  0  0  0  0  0  0
  183.8670  179.4320  139.6790 C   0  0  1  0  0  3  0  0  0  0  0  0
  184.4880  178.8110  138.5810 O   0  0  0  0  0  0  0  0  0  0  0  0
  184.1690  177.9690  139.6600 C   0  0  2  0  0  0  0  0  0  0  0  0
  185.6140  178.9380  141.3980 C   0  0  1  0  0  3  0  0  0  0  0  0
  185.7660  180.2300  141.9080 O   0  0  0  0  0  1  0  0  0  0  0  0
  185.9870  177.9280  142.4300 C   0  0  0  0  0  0  0  0  0  0  0  0
  185.0890  177.4430  143.1720 O   0  0  0  0  0  0  0  0  0  0  0  0
  187.3580  177.5640  142.6170 N   0  0  0  0  0  2  0  0  0  0  0  0
  191.7940  178.2040  144.5540 C   0  0  0  0  0  1  0  0  0  0  0  0
  189.0400  175.8920  143.2500 C   0  0  0  0  0  2  0  0  0  0  0  0
  189.4600  177.9260  145.2000 N   0  0  0  0  0  2  0  0  0  0  0  0
  190.2830  176.7710  143.1910 C   0  0  0  0  0  2  0  0  0  0  0  0
  190.6110  177.2570  144.5960 C   0  0  1  0  0  3  0  0  0  0  0  0
  187.1720  177.9590  145.6180 O   0  0  0  0  0  0  0  0  0  0  0  0
  187.8130  176.6960  143.6950 C   0  0  1  0  0  3  0  0  0  0  0  0
  188.1170  177.5310  144.9060 C   0  0  0  0  0  0  0  0  0  0  0  0
  184.9360  176.1620  136.2690 O   0  0  0  0  0  0  0  0  0  0  0  0
  186.3070  176.4270  136.4650 C   0  0  2  0  0  3  0  0  0  0  0  0
  186.5780  176.5480  137.8140 F   0  0  0  0  0  0  0  0  0  0  0  0
  186.6530  177.7330  135.7730 C   0  0  0  0  0  2  0  0  0  0  0  0
  187.8820  178.3520  136.3530 C   0  0  0  0  0  0  0  0  0  0  0  0
  187.7920  179.3970  136.9770 O   0  0  0  0  0  0  0  0  0  0  0  0
  189.2130  177.6930  136.1910 C   0  0  0  0  0  2  0  0  0  0  0  0
  189.9970  177.8170  137.4130 N   0  0  0  0  0  2  0  0  0  0  0  0
  189.8980  176.8900  138.4940 C   0  0  0  0  0  0  0  0  0  0  0  0
  189.2290  177.2470  139.5840 C   0  0  0  0  0  2  0  0  0  0  0  0
  190.5060  175.5970  138.3930 N   0  0  0  0  0  2  0  0  0  0  0  0
  190.2210  174.6560  137.3210 C   0  0  0  0  0  1  0  0  0  0  0  0
  1  8  1  0  0  0  0
  1 15  1  0  0  0  0
  3  6  1  1  0  0  0
  3 16  1  0  0  0  0
  3 12  1  0  0  0  0
  4  2  1  6  0  0  0
  4  9  1  0  0  0  0
  5  7  1  0  0  0  0
  5  2  2  0  0  0  0
  7  1  2  0  0  0  0
  8 14  2  0  0  0  0
  9 10  1  0  0  0  0
  9 21  1  1  0  0  0
 12 39  1  6  0  0  0
 12 17  1  0  0  0  0
 14 11  1  0  0  0  0
 15  4  1  0  0  0  0
 15 11  2  0  0  0  0
 16  2  1  0  0  0  0
 17 13  1  6  0  0  0
 17 10  1  0  0  0  0
 19 20  1  0  0  0  0
 19 12  1  0  0  0  0
 19 18  1  0  0  0  0
 20 18  1  0  0  0  0
 22 26  1  6  0  0  0
 23 24  1  6  0  0  0
 23 22  1  0  0  0  0
 24 25  1  0  0  0  0
 25 21  1  6  0  0  0
 25 23  1  0  0  0  0
 25 22  1  0  0  0  0
 26 27  1  1  0  0  0
 26 28  1  0  0  0  0
 28 30  1  0  0  0  0
 28 29  2  0  0  0  0
 32 37  1  0  0  0  0
 34 32  1  0  0  0  0
 34 35  1  0  0  0  0
 35 31  1  6  0  0  0
 35 33  1  0  0  0  0
 37 30  1  6  0  0  0
 37 38  1  0  0  0  0
 38 33  1  0  0  0  0
 38 36  2  0  0  0  0
 39 40  1  0  0  0  0
 40 41  1  1  0  0  0
 42 43  1  0  0  0  0
 42 40  1  0  0  0  0
 43 44  2  0  0  0  0
 45 43  1  0  0  0  0
 45 46  1  0  0  0  0
 46 47  1  0  0  0  0
 47 48  2  0  0  0  0
 49 47  1  0  0  0  0
 50 49  1  0  0  0  0
M  END
>  <MODEL>
1

>  <REMARK>
 VINA RESULT:      -6.3      0.000      0.000
  Name = 
  14 active torsions:
  status: ('A' for Active; 'I' for Inactive)
    1  A    between atoms: C_3  and  N_8
    2  A    between atoms: C_3  and  N_13
    3  A    between atoms: C_4  and  C_11
    4  A    between atoms: C_4  and  C_36
    5  A    between atoms: C_5  and  C_17
    6  A    between atoms: C_5  and  C_35
    7  A    between atoms: N_8  and  C_17
    8  A    between atoms: C_14  and  C_39
    9  A    between atoms: C_15  and  C_35
   10  A    between atoms: C_15  and  O_37
   11  A    between atoms: C_28  and  C_30
   12  A    between atoms: C_29  and  N_48
   13  A    between atoms: C_30  and  C_49
   14  A    between atoms: O_37  and  C_39
                            x       y       z     vdW  Elec       q    Type
                         _______ _______ _______ _____ _____    ______ ____

>  <TORSDO>
F 14

$$$$
=
 OpenBabel10232410363D

 50 56  0  0  1  0  0  0  0  0999 V2000
  192.4230  175.9730  137.3600 C   0  0  0  0  0  0  0  0  0  0  0  0
  190.1020  177.2650  136.4720 C   0  0  0  0  0  0  0  0  0  0  0  0
  187.7730  177.0740  135.6740 C   0  0  2  0  0  3  0  0  0  0  0  0
  190.5270  177.6270  137.8970 C   0  0  1  0  0  3  0  0  0  0  0  0
  190.8140  176.4250  135.6880 C   0  0  0  0  0  3  0  0  0  0  0  0
  186.8640  177.8990  134.7690 C   0  0  0  0  0  1  0  0  0  0  0  0
  192.0180  175.7830  136.1460 N   0  0  0  0  0  0  0  0  0  0  0  0
  193.6290  175.4880  137.9130 N   0  0  0  0  0  0  0  0  0  0  0  0
  189.3520  177.4040  138.8730 C   0  0  2  0  0  3  0  0  0  0  0  0
  188.2160  178.3740  138.5450 C   0  0  0  0  0  2  0  0  0  0  0  0
  192.5500  176.9540  139.3370 C   0  0  0  0  0  3  0  0  0  0  0  0
  187.0500  176.5650  136.9750 C   0  0  1  0  0  0  0  0  0  0  0  0
  186.1110  178.7670  137.5380 O   0  0  0  0  0  1  0  0  0  0  0  0
  193.7000  176.0590  139.0790 C   0  0  0  0  0  3  0  0  0  0  0  0
  191.7680  176.8510  138.2730 C   0  0  0  0  0  0  0  0  0  0  0  0
  188.9410  177.8400  135.9590 O   0  0  0  0  0  0  0  0  0  0  0  0
  186.9190  177.7340  138.0220 C   0  0  2  0  0  3  0  0  0  0  0  0
  184.7350  175.8480  137.7780 C   0  0  0  0  0  2  0  0  0  0  0  0
  185.6590  175.9490  136.5740 C   0  0  0  0  0  3  0  0  0  0  0  0
  184.4320  176.8440  136.6830 C   0  0  0  0  0  2  0  0  0  0  0  0
  189.7450  177.6080  140.3270 C   0  0  0  0  0  2  0  0  0  0  0  0
  187.9450  178.2040  141.9650 C   0  0  1  0  0  3  0  0  0  0  0  0
  189.0180  177.3780  142.6290 C   0  0  1  0  0  3  0  0  0  0  0  0
  189.0940  176.0850  142.0810 O   0  0  0  0  0  0  0  0  0  0  0  0
  188.6350  177.0910  141.2150 C   0  0  2  0  0  0  0  0  0  0  0  0
  186.5580  177.7300  142.3660 C   0  0  1  0  0  3  0  0  0  0  0  0
  186.3640  177.9250  143.7370 O   0  0  0  0  0  1  0  0  0  0  0  0
  185.5320  178.4840  141.5880 C   0  0  0  0  0  0  0  0  0  0  0  0
  185.8920  179.4650  140.8810 O   0  0  0  0  0  0  0  0  0  0  0  0
  184.1490  178.1350  141.6950 N   0  0  0  0  0  2  0  0  0  0  0  0
  179.9820  175.9470  140.3930 C   0  0  0  0  0  1  0  0  0  0  0  0
  182.8120  178.4140  139.6560 C   0  0  0  0  0  2  0  0  0  0  0  0
  180.8090  177.8880  141.6130 N   0  0  0  0  0  2  0  0  0  0  0  0
  182.0770  177.0780  139.6680 C   0  0  0  0  0  2  0  0  0  0  0  0
  180.7020  177.2780  140.2890 C   0  0  1  0  0  3  0  0  0  0  0  0
  181.7690  179.5010  142.9880 O   0  0  0  0  0  0  0  0  0  0  0  0
  183.0810  178.9110  141.0800 C   0  0  1  0  0  3  0  0  0  0  0  0
  181.8480  178.8180  141.9340 C   0  0  0  0  0  0  0  0  0  0  0  0
  187.8090  175.5380  137.6130 O   0  0  0  0  0  0  0  0  0  0  0  0
  187.7040  174.3010  136.9450 C   0  0  2  0  0  3  0  0  0  0  0  0
  186.9560  173.4170  137.6990 F   0  0  0  0  0  0  0  0  0  0  0  0
  189.0980  173.7310  136.7560 C   0  0  0  0  0  2  0  0  0  0  0  0
  189.2120  172.9770  135.4720 C   0  0  0  0  0  0  0  0  0  0  0  0
  188.2020  172.5620  134.9270 O   0  0  0  0  0  0  0  0  0  0  0  0
  190.5470  172.7430  134.8440 C   0  0  0  0  0  2  0  0  0  0  0  0
  191.5710  172.5750  135.8670 N   0  0  0  0  0  2  0  0  0  0  0  0
  192.8340  171.9630  135.6050 C   0  0  0  0  0  0  0  0  0  0  0  0
  193.8820  172.7380  135.3530 C   0  0  0  0  0  2  0  0  0  0  0  0
  192.9610  170.5370  135.6250 N   0  0  0  0  0  2  0  0  0  0  0  0
  194.0900  169.8380  136.2190 C   0  0  0  0  0  1  0  0  0  0  0  0
  1  8  1  0  0  0  0
  1 15  1  0  0  0  0
  3  6  1  1  0  0  0
  3 16  1  0  0  0  0
  3 12  1  0  0  0  0
  4  2  1  6  0  0  0
  4 15  1  0  0  0  0
  4  9  1  0  0  0  0
  5  7  1  0  0  0  0
  5  2  2  0  0  0  0
  7  1  2  0  0  0  0
  8 14  2  0  0  0  0
  9 21  1  1  0  0  0
 10  9  1  0  0  0  0
 12 39  1  1  0  0  0
 12 17  1  0  0  0  0
 14 11  1  0  0  0  0
 15 11  2  0  0  0  0
 16  2  1  0  0  0  0
 17 13  1  6  0  0  0
 17 10  1  0  0  0  0
 19 20  1  0  0  0  0
 19 12  1  0  0  0  0
 19 18  1  0  0  0  0
 20 18  1  0  0  0  0
 22 26  1  1  0  0  0
 22 23  1  0  0  0  0
 23 24  1  1  0  0  0
 25 21  1  6  0  0  0
 25 22  1  0  0  0  0
 25 24  1  0  0  0  0
 25 23  1  0  0  0  0
 26 27  1  1  0  0  0
 28 30  1  0  0  0  0
 28 26  1  0  0  0  0
 29 28  2  0  0  0  0
 32 34  1  0  0  0  0
 32 37  1  0  0  0  0
 33 38  1  0  0  0  0
 34 35  1  0  0  0  0
 35 31  1  1  0  0  0
 35 33  1  0  0  0  0
 37 30  1  1  0  0  0
 37 38  1  0  0  0  0
 38 36  2  0  0  0  0
 40 39  1  0  0  0  0
 40 41  1  1  0  0  0
 42 40  1  0  0  0  0
 43 42  1  0  0  0  0
 44 43  2  0  0  0  0
 45 43  1  0  0  0  0
 45 46  1  0  0  0  0
 47 49  1  0  0  0  0
 47 46  1  0  0  0  0
 48 47  2  0  0  0  0
 49 50  1  0  0  0  0
M  END
>  <MODEL>
2

>  <REMARK>
 VINA RESULT:      -5.8      2.880      7.243
  Name = 
  14 active torsions:
  status: ('A' for Active; 'I' for Inactive)
    1  A    between atoms: C_3  and  N_8
    2  A    between atoms: C_3  and  N_13
    3  A    between atoms: C_4  and  C_11
    4  A    between atoms: C_4  and  C_36
    5  A    between atoms: C_5  and  C_17
    6  A    between atoms: C_5  and  C_35
    7  A    between atoms: N_8  and  C_17
    8  A    between atoms: C_14  and  C_39
    9  A    between atoms: C_15  and  C_35
   10  A    between atoms: C_15  and  O_37
   11  A    between atoms: C_28  and  C_30
   12  A    between atoms: C_29  and  N_48
   13  A    between atoms: C_30  and  C_49
   14  A    between atoms: O_37  and  C_39
                            x       y       z     vdW  Elec       q    Type
                         _______ _______ _______ _____ _____    ______ ____

>  <TORSDO>
F 14

$$$$
=
 OpenBabel10232410363D

 50 56  0  0  1  0  0  0  0  0999 V2000
  192.2890  175.4360  136.6940 C   0  0  0  0  0  0  0  0  0  0  0  0
  190.0640  176.9210  135.8610 C   0  0  0  0  0  0  0  0  0  0  0  0
  187.6710  176.9470  135.2560 C   0  0  2  0  0  3  0  0  0  0  0  0
  190.6440  177.3460  137.2120 C   0  0  1  0  0  3  0  0  0  0  0  0
  190.6080  175.9390  135.1090 C   0  0  0  0  0  3  0  0  0  0  0  0
  186.7900  177.7970  134.3460 C   0  0  0  0  0  1  0  0  0  0  0  0
  191.7650  175.1970  135.5360 N   0  0  0  0  0  0  0  0  0  0  0  0
  193.4730  174.8570  137.2010 N   0  0  0  0  0  0  0  0  0  0  0  0
  189.5360  177.3490  138.2880 C   0  0  2  0  0  3  0  0  0  0  0  0
  188.4950  178.4180  137.9540 C   0  0  0  0  0  2  0  0  0  0  0  0
  192.6890  176.5560  138.5580 C   0  0  0  0  0  3  0  0  0  0  0  0
  187.0050  176.6390  136.6470 C   0  0  1  0  0  0  0  0  0  0  0  0
  186.3720  178.9770  137.0700 O   0  0  0  0  0  1  0  0  0  0  0  0
  193.7040  175.5100  138.3020 C   0  0  0  0  0  3  0  0  0  0  0  0
  191.8150  176.4600  137.5680 C   0  0  0  0  0  0  0  0  0  0  0  0
  188.9370  177.5880  135.3830 O   0  0  0  0  0  0  0  0  0  0  0  0
  187.0940  177.8980  137.5870 C   0  0  2  0  0  3  0  0  0  0  0  0
  184.6970  176.2740  137.6790 C   0  0  0  0  0  2  0  0  0  0  0  0
  185.5240  176.1640  136.4060 C   0  0  0  0  0  3  0  0  0  0  0  0
  184.4200  177.2060  136.5210 C   0  0  0  0  0  2  0  0  0  0  0  0
  190.0680  177.6240  139.6840 C   0  0  0  0  0  2  0  0  0  0  0  0
  188.5980  178.1730  141.6370 C   0  0  1  0  0  3  0  0  0  0  0  0
  189.7070  177.2360  142.0500 C   0  0  1  0  0  3  0  0  0  0  0  0
  189.6060  175.9930  141.4000 O   0  0  0  0  0  0  0  0  0  0  0  0
  189.0830  177.0940  140.7010 C   0  0  2  0  0  0  0  0  0  0  0  0
  187.2650  177.7410  142.2250 C   0  0  1  0  0  3  0  0  0  0  0  0
  187.2740  177.9200  143.6110 O   0  0  0  0  0  1  0  0  0  0  0  0
  186.1690  178.5430  141.6070 C   0  0  0  0  0  0  0  0  0  0  0  0
  186.4560  179.4240  140.7510 O   0  0  0  0  0  0  0  0  0  0  0  0
  184.8160  178.3570  142.0330 N   0  0  0  0  0  2  0  0  0  0  0  0
  180.7450  176.3140  140.2730 C   0  0  0  0  0  1  0  0  0  0  0  0
  183.4670  178.9940  140.0830 C   0  0  0  0  0  2  0  0  0  0  0  0
  181.4890  177.9960  141.8730 N   0  0  0  0  0  2  0  0  0  0  0  0
  182.7900  177.6560  139.8140 C   0  0  0  0  0  2  0  0  0  0  0  0
  181.4080  177.6660  140.4510 C   0  0  1  0  0  3  0  0  0  0  0  0
  182.3810  179.3290  143.5580 O   0  0  0  0  0  0  0  0  0  0  0  0
  183.7160  179.1990  141.5810 C   0  0  1  0  0  3  0  0  0  0  0  0
  182.4880  178.8820  142.3870 C   0  0  0  0  0  0  0  0  0  0  0  0
  187.6910  175.5840  137.3200 O   0  0  0  0  0  0  0  0  0  0  0  0
  187.7090  174.3910  136.5690 C   0  0  2  0  0  3  0  0  0  0  0  0
  187.2890  174.6380  135.2770 F   0  0  0  0  0  0  0  0  0  0  0  0
  186.7610  173.3970  137.2150 C   0  0  0  0  0  2  0  0  0  0  0  0
  186.5580  172.1950  136.3520 C   0  0  0  0  0  0  0  0  0  0  0  0
  187.5280  171.6070  135.9010 O   0  0  0  0  0  0  0  0  0  0  0  0
  185.1810  171.6980  136.0530 C   0  0  0  0  0  2  0  0  0  0  0  0
  184.2390  172.1650  137.0600 N   0  0  0  0  0  2  0  0  0  0  0  0
  182.8860  172.5050  136.7570 C   0  0  0  0  0  0  0  0  0  0  0  0
  182.6380  173.6470  136.1260 C   0  0  0  0  0  2  0  0  0  0  0  0
  181.8210  171.6200  137.1230 N   0  0  0  0  0  2  0  0  0  0  0  0
  180.5350  172.0750  137.6290 C   0  0  0  0  0  1  0  0  0  0  0  0
  1  8  1  0  0  0  0
  1 15  1  0  0  0  0
  3  6  1  6  0  0  0
  3 16  1  0  0  0  0
  3 12  1  0  0  0  0
  4  2  1  6  0  0  0
  4 15  1  0  0  0  0
  4  9  1  0  0  0  0
  5  7  1  0  0  0  0
  5  2  2  0  0  0  0
  7  1  2  0  0  0  0
  8 14  2  0  0  0  0
  9 21  1  1  0  0  0
 10  9  1  0  0  0  0
 12 39  1  1  0  0  0
 12 17  1  0  0  0  0
 14 11  1  0  0  0  0
 15 11  2  0  0  0  0
 16  2  1  0  0  0  0
 17 13  1  6  0  0  0
 17 10  1  0  0  0  0
 19 20  1  0  0  0  0
 19 12  1  0  0  0  0
 19 18  1  0  0  0  0
 20 18  1  0  0  0  0
 22 23  1  0  0  0  0
 22 26  1  1  0  0  0
 23 24  1  1  0  0  0
 25 21  1  6  0  0  0
 25 24  1  0  0  0  0
 25 22  1  0  0  0  0
 25 23  1  0  0  0  0
 26 27  1  1  0  0  0
 28 30  1  0  0  0  0
 28 26  1  0  0  0  0
 29 28  2  0  0  0  0
 32 37  1  0  0  0  0
 33 38  1  0  0  0  0
 34 32  1  0  0  0  0
 34 35  1  0  0  0  0
 35 31  1  1  0  0  0
 35 33  1  0  0  0  0
 37 30  1  1  0  0  0
 37 38  1  0  0  0  0
 38 36  2  0  0  0  0
 40 41  1  6  0  0  0
 40 42  1  0  0  0  0
 40 39  1  0  0  0  0
 43 42  1  0  0  0  0
 44 43  2  0  0  0  0
 45 43  1  0  0  0  0
 45 46  1  0  0  0  0
 47 46  1  0  0  0  0
 47 49  1  0  0  0  0
 48 47  2  0  0  0  0
 49 50  1  0  0  0  0
M  END
>  <MODEL>
3

>  <REMARK>
 VINA RESULT:      -5.1      2.821      7.468
  Name = 
  14 active torsions:
  status: ('A' for Active; 'I' for Inactive)
    1  A    between atoms: C_3  and  N_8
    2  A    between atoms: C_3  and  N_13
    3  A    between atoms: C_4  and  C_11
    4  A    between atoms: C_4  and  C_36
    5  A    between atoms: C_5  and  C_17
    6  A    between atoms: C_5  and  C_35
    7  A    between atoms: N_8  and  C_17
    8  A    between atoms: C_14  and  C_39
    9  A    between atoms: C_15  and  C_35
   10  A    between atoms: C_15  and  O_37
   11  A    between atoms: C_28  and  C_30
   12  A    between atoms: C_29  and  N_48
   13  A    between atoms: C_30  and  C_49
   14  A    between atoms: O_37  and  C_39
                            x       y       z     vdW  Elec       q    Type
                         _______ _______ _______ _____ _____    ______ ____

>  <TORSDO>
F 14

$$$$
=
 OpenBabel10232410363D

 50 56  0  0  1  0  0  0  0  0999 V2000
  186.3280  173.2230  137.1940 C   0  0  0  0  0  0  0  0  0  0  0  0
  183.8290  174.4740  137.0080 C   0  0  0  0  0  0  0  0  0  0  0  0
  182.1530  175.9680  138.0330 C   0  0  2  0  0  3  0  0  0  0  0  0
  184.8230  174.8710  135.9140 C   0  0  1  0  0  3  0  0  0  0  0  0
  184.1170  173.5600  137.9600 C   0  0  0  0  0  3  0  0  0  0  0  0
  180.6350  176.1080  137.9650 C   0  0  0  0  0  1  0  0  0  0  0  0
  185.3970  172.9060  138.0340 N   0  0  0  0  0  0  0  0  0  0  0  0
  187.5920  172.6020  137.0890 N   0  0  0  0  0  0  0  0  0  0  0  0
  184.9660  176.4080  135.8600 C   0  0  2  0  0  3  0  0  0  0  0  0
  183.6400  177.0350  135.4300 C   0  0  0  0  0  2  0  0  0  0  0  0
  187.2130  174.0940  135.3650 C   0  0  0  0  0  3  0  0  0  0  0  0
  182.9020  177.3500  137.9710 C   0  0  1  0  0  0  0  0  0  0  0  0
  181.6410  178.1560  136.0200 O   0  0  0  0  0  1  0  0  0  0  0  0
  188.1160  173.1190  136.0170 C   0  0  0  0  0  3  0  0  0  0  0  0
  186.1370  174.1590  136.1340 C   0  0  0  0  0  0  0  0  0  0  0  0
  182.5690  175.0710  137.0080 O   0  0  0  0  0  0  0  0  0  0  0  0
  182.9290  177.8920  136.4930 C   0  0  2  0  0  3  0  0  0  0  0  0
  182.3960  179.7910  138.5250 C   0  0  0  0  0  2  0  0  0  0  0  0
  182.2110  178.3480  138.9720 C   0  0  0  0  0  3  0  0  0  0  0  0
  181.0260  179.1550  138.4590 C   0  0  0  0  0  2  0  0  0  0  0  0
  186.0440  176.8670  134.8920 C   0  0  0  0  0  2  0  0  0  0  0  0
  187.4380  177.3460  136.9180 C   0  0  1  0  0  3  0  0  0  0  0  0
  187.9800  178.0750  135.7130 C   0  0  1  0  0  3  0  0  0  0  0  0
  188.4300  177.1820  134.7230 O   0  0  0  0  0  0  0  0  0  0  0  0
  187.3960  176.7100  135.5500 C   0  0  2  0  0  0  0  0  0  0  0  0
  188.5560  176.6990  137.7180 C   0  0  1  0  0  3  0  0  0  0  0  0
  189.6460  176.4290  136.8860 O   0  0  0  0  0  1  0  0  0  0  0  0
  188.9660  177.6130  138.8240 C   0  0  0  0  0  0  0  0  0  0  0  0
  188.8680  178.8600  138.6620 O   0  0  0  0  0  0  0  0  0  0  0  0
  189.5260  177.0790  140.0280 N   0  0  0  0  0  2  0  0  0  0  0  0
  191.3860  175.0050  144.0380 C   0  0  0  0  0  1  0  0  0  0  0  0
  189.2760  177.7320  142.3810 C   0  0  0  0  0  2  0  0  0  0  0  0
  191.9180  176.6680  142.3370 N   0  0  0  0  0  2  0  0  0  0  0  0
  189.5760  176.3880  143.0340 C   0  0  0  0  0  2  0  0  0  0  0  0
  191.0370  176.3640  143.4630 C   0  0  1  0  0  3  0  0  0  0  0  0
  192.3860  177.9830  140.4760 O   0  0  0  0  0  0  0  0  0  0  0  0
  190.0790  177.9120  141.0880 C   0  0  1  0  0  3  0  0  0  0  0  0
  191.5250  177.5600  141.2890 C   0  0  0  0  0  0  0  0  0  0  0  0
  184.2650  177.2110  138.3730 O   0  0  0  0  0  0  0  0  0  0  0  0
  184.7700  178.3840  138.9710 C   0  0  2  0  0  3  0  0  0  0  0  0
  185.4450  179.1400  138.0320 F   0  0  0  0  0  0  0  0  0  0  0  0
  185.7350  177.9900  140.0740 C   0  0  0  0  0  2  0  0  0  0  0  0
  185.4680  178.7490  141.3320 C   0  0  0  0  0  0  0  0  0  0  0  0
  185.9160  179.8770  141.4600 O   0  0  0  0  0  0  0  0  0  0  0  0
  184.6450  178.1460  142.4240 C   0  0  0  0  0  2  0  0  0  0  0  0
  184.7230  178.9580  143.6310 N   0  0  0  0  0  2  0  0  0  0  0  0
  183.7340  178.9140  144.6590 C   0  0  0  0  0  0  0  0  0  0  0  0
  182.4520  178.8990  144.3150 C   0  0  0  0  0  2  0  0  0  0  0  0
  184.1280  178.8780  146.0360 N   0  0  0  0  0  2  0  0  0  0  0  0
  185.4980  178.6680  146.4760 C   0  0  0  0  0  1  0  0  0  0  0  0
  1  7  2  0  0  0  0
  2  5  2  0  0  0  0
  3  6  1  6  0  0  0
  4 15  1  1  0  0  0
  4  2  1  0  0  0  0
  5  7  1  0  0  0  0
  8  1  1  0  0  0  0
  9 21  1  6  0  0  0
  9  4  1  0  0  0  0
 10  9  1  0  0  0  0
 10 17  1  0  0  0  0
 11 14  1  0  0  0  0
 11 15  2  0  0  0  0
 12  3  1  0  0  0  0
 12 39  1  1  0  0  0
 12 19  1  0  0  0  0
 14  8  2  0  0  0  0
 15  1  1  0  0  0  0
 16  2  1  0  0  0  0
 16  3  1  0  0  0  0
 17 13  1  6  0  0  0
 17 12  1  0  0  0  0
 18 19  1  0  0  0  0
 20 18  1  0  0  0  0
 20 19  1  0  0  0  0
 22 26  1  1  0  0  0
 23 24  1  1  0  0  0
 23 22  1  0  0  0  0
 24 25  1  0  0  0  0
 25 21  1  6  0  0  0
 25 23  1  0  0  0  0
 25 22  1  0  0  0  0
 26 27  1  6  0  0  0
 26 28  1  0  0  0  0
 28 30  1  0  0  0  0
 29 28  2  0  0  0  0
 32 34  1  0  0  0  0
 33 35  1  0  0  0  0
 34 35  1  0  0  0  0
 35 31  1  6  0  0  0
 36 38  2  0  0  0  0
 37 30  1  6  0  0  0
 37 38  1  0  0  0  0
 37 32  1  0  0  0  0
 38 33  1  0  0  0  0
 39 40  1  0  0  0  0
 40 41  1  6  0  0  0
 40 42  1  0  0  0  0
 42 43  1  0  0  0  0
 43 44  2  0  0  0  0
 43 45  1  0  0  0  0
 45 46  1  0  0  0  0
 46 47  1  0  0  0  0
 47 49  1  0  0  0  0
 48 47  2  0  0  0  0
 49 50  1  0  0  0  0
M  END
>  <MODEL>
4

>  <REMARK>
 VINA RESULT:      -4.5      2.504      6.084
  Name = 
  14 active torsions:
  status: ('A' for Active; 'I' for Inactive)
    1  A    between atoms: C_3  and  N_8
    2  A    between atoms: C_3  and  N_13
    3  A    between atoms: C_4  and  C_11
    4  A    between atoms: C_4  and  C_36
    5  A    between atoms: C_5  and  C_17
    6  A    between atoms: C_5  and  C_35
    7  A    between atoms: N_8  and  C_17
    8  A    between atoms: C_14  and  C_39
    9  A    between atoms: C_15  and  C_35
   10  A    between atoms: C_15  and  O_37
   11  A    between atoms: C_28  and  C_30
   12  A    between atoms: C_29  and  N_48
   13  A    between atoms: C_30  and  C_49
   14  A    between atoms: O_37  and  C_39
                            x       y       z     vdW  Elec       q    Type
                         _______ _______ _______ _____ _____    ______ ____

>  <TORSDO>
F 14

$$$$
=
 OpenBabel10232410363D

 50 56  0  0  1  0  0  0  0  0999 V2000
  192.1680  177.2570  140.4940 C   0  0  0  0  0  0  0  0  0  0  0  0
  193.1100  176.8810  137.8830 C   0  0  0  0  0  0  0  0  0  0  0  0
  194.7590  175.8200  136.3840 C   0  0  2  0  0  3  0  0  0  0  0  0
  191.6800  176.3900  138.1220 C   0  0  1  0  0  3  0  0  0  0  0  0
  193.8430  177.4880  138.8410 C   0  0  0  0  0  3  0  0  0  0  0  0
  195.3790  176.1640  135.0330 C   0  0  0  0  0  1  0  0  0  0  0  0
  193.3420  177.6970  140.1750 N   0  0  0  0  0  0  0  0  0  0  0  0
  191.5140  177.4710  141.7280 N   0  0  0  0  0  0  0  0  0  0  0  0
  191.5460  174.9150  137.6830 C   0  0  2  0  0  3  0  0  0  0  0  0
  191.7510  174.8050  136.1720 C   0  0  0  0  0  2  0  0  0  0  0  0
  190.1250  176.4790  140.1690 C   0  0  0  0  0  3  0  0  0  0  0  0
  194.3460  174.3070  136.5040 C   0  0  1  0  0  0  0  0  0  0  0  0
  193.1620  174.2660  134.3500 O   0  0  0  0  0  1  0  0  0  0  0  0
  190.3140  177.0070  141.5390 C   0  0  0  0  0  3  0  0  0  0  0  0
  191.2950  176.6180  139.5650 C   0  0  0  0  0  0  0  0  0  0  0  0
  193.6690  176.7070  136.6180 O   0  0  0  0  0  0  0  0  0  0  0  0
  193.0080  174.0400  135.7210 C   0  0  2  0  0  3  0  0  0  0  0  0
  195.0810  171.9870  135.7280 C   0  0  0  0  0  2  0  0  0  0  0  0
  195.5380  173.4140  135.9940 C   0  0  0  0  0  3  0  0  0  0  0  0
  195.4620  172.8810  134.5700 C   0  0  0  0  0  2  0  0  0  0  0  0
  190.1900  174.3180  138.0230 C   0  0  0  0  0  2  0  0  0  0  0  0
  187.8350  174.4870  137.1860 C   0  0  1  0  0  3  0  0  0  0  0  0
  188.4540  173.1730  136.7760 C   0  0  1  0  0  3  0  0  0  0  0  0
  189.5430  173.3600  135.9060 O   0  0  0  0  0  0  0  0  0  0  0  0
  189.2940  174.4080  136.8090 C   0  0  2  0  0  0  0  0  0  0  0  0
  187.0710  175.1180  136.0350 C   0  0  1  0  0  3  0  0  0  0  0  0
  185.8280  174.4960  135.8880 O   0  0  0  0  0  1  0  0  0  0  0  0
  186.8910  176.5760  136.2990 C   0  0  0  0  0  0  0  0  0  0  0  0
  187.2670  177.4110  135.4320 O   0  0  0  0  0  0  0  0  0  0  0  0
  186.3590  177.0190  137.5510 N   0  0  0  0  0  2  0  0  0  0  0  0
  185.2210  178.2350  142.1410 C   0  0  0  0  0  1  0  0  0  0  0  0
  184.8640  178.7840  138.3720 C   0  0  0  0  0  2  0  0  0  0  0  0
  186.8620  178.7050  140.4010 N   0  0  0  0  0  2  0  0  0  0  0  0
  184.5450  178.2060  139.7450 C   0  0  0  0  0  2  0  0  0  0  0  0
  185.4570  178.8550  140.7770 C   0  0  1  0  0  3  0  0  0  0  0  0
  188.5010  178.7990  138.7520 O   0  0  0  0  0  0  0  0  0  0  0  0
  186.2880  178.4220  137.9350 C   0  0  1  0  0  3  0  0  0  0  0  0
  187.2790  178.6840  139.0320 C   0  0  0  0  0  0  0  0  0  0  0  0
  194.0940  173.9520  137.8640 O   0  0  0  0  0  0  0  0  0  0  0  0
  195.2610  173.5280  138.5320 C   0  0  2  0  0  3  0  0  0  0  0  0
  195.0360  172.3140  139.1520 F   0  0  0  0  0  0  0  0  0  0  0  0
  195.6190  174.5600  139.5860 C   0  0  0  0  0  2  0  0  0  0  0  0
  197.0810  174.8660  139.5780 C   0  0  0  0  0  0  0  0  0  0  0  0
  197.6770  174.9810  140.6370 O   0  0  0  0  0  0  0  0  0  0  0  0
  197.8190  175.0150  138.2870 C   0  0  0  0  0  2  0  0  0  0  0  0
  198.8900  174.0320  138.1950 N   0  0  0  0  0  2  0  0  0  0  0  0
  198.9160  173.0050  137.2030 C   0  0  0  0  0  0  0  0  0  0  0  0
  199.5470  173.2360  136.0580 C   0  0  0  0  0  2  0  0  0  0  0  0
  198.2770  171.7480  137.4510 N   0  0  0  0  0  2  0  0  0  0  0  0
  198.6980  170.4970  136.8400 C   0  0  0  0  0  1  0  0  0  0  0  0
  1  8  1  0  0  0  0
  2  5  2  0  0  0  0
  3  6  1  6  0  0  0
  3 12  1  0  0  0  0
  3 16  1  0  0  0  0
  4  2  1  1  0  0  0
  4 15  1  0  0  0  0
  5  7  1  0  0  0  0
  7  1  2  0  0  0  0
  9 21  1  6  0  0  0
  9  4  1  0  0  0  0
 10  9  1  0  0  0  0
 11 14  1  0  0  0  0
 12 39  1  1  0  0  0
 14  8  2  0  0  0  0
 15 11  2  0  0  0  0
 15  1  1  0  0  0  0
 16  2  1  0  0  0  0
 17 13  1  6  0  0  0
 17 10  1  0  0  0  0
 17 12  1  0  0  0  0
 18 19  1  0  0  0  0
 19 12  1  0  0  0  0
 20 18  1  0  0  0  0
 20 19  1  0  0  0  0
 22 26  1  6  0  0  0
 23 24  1  6  0  0  0
 23 25  1  0  0  0  0
 23 22  1  0  0  0  0
 24 25  1  0  0  0  0
 25 22  1  0  0  0  0
 25 21  1  1  0  0  0
 26 27  1  1  0  0  0
 26 28  1  0  0  0  0
 28 30  1  0  0  0  0
 29 28  2  0  0  0  0
 32 34  1  0  0  0  0
 33 35  1  0  0  0  0
 34 35  1  0  0  0  0
 35 31  1  1  0  0  0
 36 38  2  0  0  0  0
 37 30  1  1  0  0  0
 37 32  1  0  0  0  0
 37 38  1  0  0  0  0
 38 33  1  0  0  0  0
 39 40  1  0  0  0  0
 40 41  1  1  0  0  0
 40 42  1  0  0  0  0
 43 42  1  0  0  0  0
 43 44  2  0  0  0  0
 45 43  1  0  0  0  0
 46 45  1  0  0  0  0
 47 49  1  0  0  0  0
 47 46  1  0  0  0  0
 48 47  2  0  0  0  0
 50 49  1  0  0  0  0
M  END
>  <MODEL>
5

>  <REMARK>
 VINA RESULT:      -4.4      5.175      9.352
  Name = 
  14 active torsions:
  status: ('A' for Active; 'I' for Inactive)
    1  A    between atoms: C_3  and  N_8
    2  A    between atoms: C_3  and  N_13
    3  A    between atoms: C_4  and  C_11
    4  A    between atoms: C_4  and  C_36
    5  A    between atoms: C_5  and  C_17
    6  A    between atoms: C_5  and  C_35
    7  A    between atoms: N_8  and  C_17
    8  A    between atoms: C_14  and  C_39
    9  A    between atoms: C_15  and  C_35
   10  A    between atoms: C_15  and  O_37
   11  A    between atoms: C_28  and  C_30
   12  A    between atoms: C_29  and  N_48
   13  A    between atoms: C_30  and  C_49
   14  A    between atoms: O_37  and  C_39
                            x       y       z     vdW  Elec       q    Type
                         _______ _______ _______ _____ _____    ______ ____

>  <TORSDO>
F 14

$$$$
=
 OpenBabel10232410363D

 50 56  0  0  1  0  0  0  0  0999 V2000
  186.4200  173.0290  137.2330 C   0  0  0  0  0  0  0  0  0  0  0  0
  183.8580  173.9630  136.5940 C   0  0  0  0  0  0  0  0  0  0  0  0
  181.9470  175.4100  137.1870 C   0  0  2  0  0  3  0  0  0  0  0  0
  184.9320  174.2900  135.5550 C   0  0  1  0  0  3  0  0  0  0  0  0
  184.1140  173.2420  137.7080 C   0  0  0  0  0  3  0  0  0  0  0  0
  180.4420  175.3750  136.9450 C   0  0  0  0  0  1  0  0  0  0  0  0
  185.4300  172.7470  138.0170 N   0  0  0  0  0  0  0  0  0  0  0  0
  187.7380  172.5370  137.3590 N   0  0  0  0  0  0  0  0  0  0  0  0
  184.9430  175.8070  135.2630 C   0  0  2  0  0  3  0  0  0  0  0  0
  183.6250  176.2160  134.6060 C   0  0  0  0  0  2  0  0  0  0  0  0
  187.4290  173.6970  135.3840 C   0  0  0  0  0  3  0  0  0  0  0  0
  182.5730  176.8370  136.9730 C   0  0  1  0  0  0  0  0  0  0  0  0
  181.4790  177.1940  134.8000 O   0  0  0  0  0  1  0  0  0  0  0  0
  188.3340  172.9360  136.2740 C   0  0  0  0  0  3  0  0  0  0  0  0
  186.2700  173.7640  136.0200 C   0  0  0  0  0  0  0  0  0  0  0  0
  182.5580  174.4150  136.3700 O   0  0  0  0  0  0  0  0  0  0  0  0
  182.7230  177.1450  135.4360 C   0  0  2  0  0  3  0  0  0  0  0  0
  181.8050  179.2710  137.0760 C   0  0  0  0  0  2  0  0  0  0  0  0
  181.6840  177.8980  137.7220 C   0  0  0  0  0  3  0  0  0  0  0  0
  180.5100  178.5000  136.9610 C   0  0  0  0  0  2  0  0  0  0  0  0
  186.0810  176.2240  134.3460 C   0  0  0  0  0  2  0  0  0  0  0  0
  186.5130  178.0910  135.9590 C   0  0  1  0  0  3  0  0  0  0  0  0
  187.1820  178.3650  134.6340 C   0  0  1  0  0  3  0  0  0  0  0  0
  188.1780  177.4150  134.3480 O   0  0  0  0  0  0  0  0  0  0  0  0
  187.1190  176.9670  135.1560 C   0  0  2  0  0  0  0  0  0  0  0  0
  187.4400  178.4120  137.1190 C   0  0  1  0  0  3  0  0  0  0  0  0
  186.7060  178.9340  138.1870 O   0  0  0  0  0  1  0  0  0  0  0  0
  188.1540  177.1710  137.5410 C   0  0  0  0  0  0  0  0  0  0  0  0
  187.4830  176.1750  137.9260 O   0  0  0  0  0  0  0  0  0  0  0  0
  189.5830  177.1390  137.5680 N   0  0  0  0  0  2  0  0  0  0  0  0
  194.2050  176.4380  136.1550 C   0  0  0  0  0  1  0  0  0  0  0  0
  190.7350  175.0530  136.9760 C   0  0  0  0  0  2  0  0  0  0  0  0
  192.8310  176.5730  138.1640 N   0  0  0  0  0  2  0  0  0  0  0  0
  191.8500  175.6330  136.1140 C   0  0  0  0  0  2  0  0  0  0  0  0
  193.1030  175.7820  136.9650 C   0  0  1  0  0  3  0  0  0  0  0  0
  191.4360  177.0350  139.9680 O   0  0  0  0  0  0  0  0  0  0  0  0
  190.3450  176.0180  138.1020 C   0  0  1  0  0  3  0  0  0  0  0  0
  191.5580  176.5410  138.8170 C   0  0  0  0  0  0  0  0  0  0  0  0
  183.8870  176.9080  137.5270 O   0  0  0  0  0  0  0  0  0  0  0  0
  183.8720  176.9830  138.9350 C   0  0  2  0  0  3  0  0  0  0  0  0
  182.6660  176.5170  139.4210 F   0  0  0  0  0  0  0  0  0  0  0  0
  184.0420  178.4340  139.3450 C   0  0  0  0  0  2  0  0  0  0  0  0
  184.0570  178.5850  140.8310 C   0  0  0  0  0  0  0  0  0  0  0  0
  183.0020  178.6880  141.4360 O   0  0  0  0  0  0  0  0  0  0  0  0
  185.3490  178.5930  141.5810 C   0  0  0  0  0  2  0  0  0  0  0  0
  185.1660  178.0520  142.9210 N   0  0  0  0  0  2  0  0  0  0  0  0
  186.2350  177.9270  143.8590 C   0  0  0  0  0  0  0  0  0  0  0  0
  187.3770  177.3810  143.4600 C   0  0  0  0  0  2  0  0  0  0  0  0
  186.0720  178.3940  145.2040 N   0  0  0  0  0  2  0  0  0  0  0  0
  184.7840  178.7430  145.7830 C   0  0  0  0  0  1  0  0  0  0  0  0
  1  8  1  0  0  0  0
  1  7  2  0  0  0  0
  2  5  2  0  0  0  0
  3  6  1  6  0  0  0
  4 15  1  1  0  0  0
  4  2  1  0  0  0  0
  5  7  1  0  0  0  0
  9 21  1  6  0  0  0
  9  4  1  0  0  0  0
 10  9  1  0  0  0  0
 10 17  1  0  0  0  0
 11 15  2  0  0  0  0
 11 14  1  0  0  0  0
 12  3  1  0  0  0  0
 12 39  1  1  0  0  0
 12 19  1  0  0  0  0
 14  8  2  0  0  0  0
 15  1  1  0  0  0  0
 16  2  1  0  0  0  0
 16  3  1  0  0  0  0
 17 13  1  6  0  0  0
 17 12  1  0  0  0  0
 18 19  1  0  0  0  0
 20 18  1  0  0  0  0
 20 19  1  0  0  0  0
 22 26  1  1  0  0  0
 23 24  1  1  0  0  0
 23 25  1  0  0  0  0
 23 22  1  0  0  0  0
 24 25  1  0  0  0  0
 25 21  1  6  0  0  0
 25 22  1  0  0  0  0
 26 28  1  0  0  0  0
 26 27  1  1  0  0  0
 28 30  1  0  0  0  0
 28 29  2  0  0  0  0
 32 37  1  0  0  0  0
 33 38  1  0  0  0  0
 34 35  1  0  0  0  0
 34 32  1  0  0  0  0
 35 31  1  6  0  0  0
 35 33  1  0  0  0  0
 37 30  1  6  0  0  0
 37 38  1  0  0  0  0
 38 36  2  0  0  0  0
 39 40  1  0  0  0  0
 40 42  1  0  0  0  0
 40 41  1  6  0  0  0
 42 43  1  0  0  0  0
 43 44  2  0  0  0  0
 43 45  1  0  0  0  0
 45 46  1  0  0  0  0
 46 47  1  0  0  0  0
 47 49  1  0  0  0  0
 48 47  2  0  0  0  0
 49 50  1  0  0  0  0
M  END
>  <MODEL>
6

>  <REMARK>
 VINA RESULT:      -4.4      2.596      6.381
  Name = 
  14 active torsions:
  status: ('A' for Active; 'I' for Inactive)
    1  A    between atoms: C_3  and  N_8
    2  A    between atoms: C_3  and  N_13
    3  A    between atoms: C_4  and  C_11
    4  A    between atoms: C_4  and  C_36
    5  A    between atoms: C_5  and  C_17
    6  A    between atoms: C_5  and  C_35
    7  A    between atoms: N_8  and  C_17
    8  A    between atoms: C_14  and  C_39
    9  A    between atoms: C_15  and  C_35
   10  A    between atoms: C_15  and  O_37
   11  A    between atoms: C_28  and  C_30
   12  A    between atoms: C_29  and  N_48
   13  A    between atoms: C_30  and  C_49
   14  A    between atoms: O_37  and  C_39
                            x       y       z     vdW  Elec       q    Type
                         _______ _______ _______ _____ _____    ______ ____

>  <TORSDO>
F 14

$$$$
=
 OpenBabel10232410363D

 50 56  0  0  1  0  0  0  0  0999 V2000
  192.4110  174.2760  136.0630 C   0  0  0  0  0  0  0  0  0  0  0  0
  190.4490  176.1820  135.4640 C   0  0  0  0  0  0  0  0  0  0  0  0
  188.0530  176.7010  135.1690 C   0  0  2  0  0  3  0  0  0  0  0  0
  191.2790  176.4930  136.7110 C   0  0  1  0  0  3  0  0  0  0  0  0
  190.6740  175.1000  134.6870 C   0  0  0  0  0  3  0  0  0  0  0  0
  187.2530  177.7060  134.3470 C   0  0  0  0  0  1  0  0  0  0  0  0
  191.7000  174.1370  134.9910 N   0  0  0  0  0  0  0  0  0  0  0  0
  193.5080  173.4670  136.4370 N   0  0  0  0  0  0  0  0  0  0  0  0
  190.3480  176.7410  137.9190 C   0  0  2  0  0  3  0  0  0  0  0  0
  189.5150  178.0000  137.6790 C   0  0  0  0  0  2  0  0  0  0  0  0
  193.2790  175.3090  137.8140 C   0  0  0  0  0  3  0  0  0  0  0  0
  187.5300  176.5560  136.6450 C   0  0  1  0  0  0  0  0  0  0  0  0
  187.4540  178.9790  137.0530 O   0  0  0  0  0  1  0  0  0  0  0  0
  194.0140  174.0710  137.4720 C   0  0  0  0  0  3  0  0  0  0  0  0
  192.2790  175.3860  136.9490 C   0  0  0  0  0  0  0  0  0  0  0  0
  189.4300  177.0640  135.1070 O   0  0  0  0  0  0  0  0  0  0  0  0
  188.0010  177.7800  137.5160 C   0  0  2  0  0  3  0  0  0  0  0  0
  185.3130  177.1640  137.7560 C   0  0  0  0  0  2  0  0  0  0  0  0
  185.9640  176.3980  136.6140 C   0  0  0  0  0  3  0  0  0  0  0  0
  185.1340  177.6430  136.3340 C   0  0  0  0  0  2  0  0  0  0  0  0
  191.1080  176.9150  139.2240 C   0  0  0  0  0  2  0  0  0  0  0  0
  190.7280  177.3220  141.6660 C   0  0  1  0  0  3  0  0  0  0  0  0
  189.7390  176.3150  141.1330 C   0  0  1  0  0  3  0  0  0  0  0  0
  188.8880  176.8820  140.1670 O   0  0  0  0  0  0  0  0  0  0  0  0
  190.1650  177.4590  140.2730 C   0  0  2  0  0  0  0  0  0  0  0  0
  190.0470  178.3390  142.5660 C   0  0  1  0  0  3  0  0  0  0  0  0
  189.3380  179.2630  141.7930 O   0  0  0  0  0  1  0  0  0  0  0  0
  189.1230  177.6330  143.5010 C   0  0  0  0  0  0  0  0  0  0  0  0
  189.5530  176.6530  144.1690 O   0  0  0  0  0  0  0  0  0  0  0  0
  187.7500  178.0250  143.5880 N   0  0  0  0  0  2  0  0  0  0  0  0
  186.0830  179.8940  147.7800 C   0  0  0  0  0  1  0  0  0  0  0  0
  187.3350  176.9120  145.7370 C   0  0  0  0  0  2  0  0  0  0  0  0
  185.2990  178.9040  145.6960 N   0  0  0  0  0  2  0  0  0  0  0  0
  187.4250  178.1260  146.6540 C   0  0  0  0  0  2  0  0  0  0  0  0
  186.0190  178.6340  146.9390 C   0  0  1  0  0  3  0  0  0  0  0  0
  184.7240  178.2330  143.5430 O   0  0  0  0  0  0  0  0  0  0  0  0
  186.7600  177.2940  144.3680 C   0  0  1  0  0  3  0  0  0  0  0  0
  185.5240  178.1350  144.5100 C   0  0  0  0  0  0  0  0  0  0  0  0
  188.0680  175.3890  137.2650 O   0  0  0  0  0  0  0  0  0  0  0  0
  187.4230  174.2090  136.8410 C   0  0  2  0  0  3  0  0  0  0  0  0
  186.6090  173.7270  137.8470 F   0  0  0  0  0  0  0  0  0  0  0  0
  188.4790  173.1680  136.5190 C   0  0  0  0  0  2  0  0  0  0  0  0
  187.9290  172.0800  135.6550 C   0  0  0  0  0  0  0  0  0  0  0  0
  188.5410  171.0290  135.5490 O   0  0  0  0  0  0  0  0  0  0  0  0
  186.6320  172.2620  134.9360 C   0  0  0  0  0  2  0  0  0  0  0  0
  185.6610  171.2680  135.3730 N   0  0  0  0  0  2  0  0  0  0  0  0
  184.3140  171.5960  135.7110 C   0  0  0  0  0  0  0  0  0  0  0  0
  183.9720  172.8750  135.8090 C   0  0  0  0  0  1  0  0  0  0  0  0
  183.3530  170.5580  135.9330 N   0  0  0  0  0  0  0  0  0  0  0  0
  183.6830  169.1420  135.9270 C   0  0  0  0  0  1  0  0  0  0  0  0
  1  8  1  0  0  0  0
  1 15  1  0  0  0  0
  3  6  1  1  0  0  0
  3 12  1  0  0  0  0
  4  2  1  6  0  0  0
  4 15  1  0  0  0  0
  4  9  1  0  0  0  0
  5  7  1  0  0  0  0
  5  2  2  0  0  0  0
  7  1  2  0  0  0  0
  8 14  2  0  0  0  0
  9 21  1  1  0  0  0
 10  9  1  0  0  0  0
 12 39  1  1  0  0  0
 12 17  1  0  0  0  0
 14 11  1  0  0  0  0
 15 11  2  0  0  0  0
 16  3  1  0  0  0  0
 16  2  1  0  0  0  0
 17 13  1  6  0  0  0
 17 10  1  0  0  0  0
 19 12  1  0  0  0  0
 19 18  1  0  0  0  0
 20 19  1  0  0  0  0
 20 18  1  0  0  0  0
 22 26  1  1  0  0  0
 23 24  1  1  0  0  0
 23 22  1  0  0  0  0
 24 25  1  0  0  0  0
 25 21  1  6  0  0  0
 25 23  1  0  0  0  0
 25 22  1  0  0  0  0
 26 27  1  6  0  0  0
 26 28  1  0  0  0  0
 28 30  1  0  0  0  0
 28 29  2  0  0  0  0
 32 34  1  0  0  0  0
 33 35  1  0  0  0  0
 34 35  1  0  0  0  0
 35 31  1  1  0  0  0
 36 38  2  0  0  0  0
 37 30  1  6  0  0  0
 37 38  1  0  0  0  0
 37 32  1  0  0  0  0
 38 33  1  0  0  0  0
 40 39  1  0  0  0  0
 40 41  1  1  0  0  0
 42 40  1  0  0  0  0
 43 42  1  0  0  0  0
 44 43  2  0  0  0  0
 45 46  1  0  0  0  0
 45 43  1  0  0  0  0
 46 47  1  0  0  0  0
 47 48  1  0  0  0  0
 47 49  2  0  0  0  0
 50 49  1  0  0  0  0
M  END
>  <MODEL>
7

>  <REMARK>
 VINA RESULT:      -4.2      3.367      7.194
  Name = 
  14 active torsions:
  status: ('A' for Active; 'I' for Inactive)
    1  A    between atoms: C_3  and  N_8
    2  A    between atoms: C_3  and  N_13
    3  A    between atoms: C_4  and  C_11
    4  A    between atoms: C_4  and  C_36
    5  A    between atoms: C_5  and  C_17
    6  A    between atoms: C_5  and  C_35
    7  A    between atoms: N_8  and  C_17
    8  A    between atoms: C_14  and  C_39
    9  A    between atoms: C_15  and  C_35
   10  A    between atoms: C_15  and  O_37
   11  A    between atoms: C_28  and  C_30
   12  A    between atoms: C_29  and  N_48
   13  A    between atoms: C_30  and  C_49
   14  A    between atoms: O_37  and  C_39
                            x       y       z     vdW  Elec       q    Type
                         _______ _______ _______ _____ _____    ______ ____

>  <TORSDO>
F 14

$$$$
=
 OpenBabel10232410363D

 50 56  0  0  1  0  0  0  0  0999 V2000
  185.9960  173.2660  137.4180 C   0  0  0  0  0  0  0  0  0  0  0  0
  183.6650  174.6260  136.6670 C   0  0  0  0  0  0  0  0  0  0  0  0
  181.7810  176.0780  137.3290 C   0  0  2  0  0  3  0  0  0  0  0  0
  184.9330  175.0880  135.9460 C   0  0  1  0  0  3  0  0  0  0  0  0
  183.6610  173.6130  137.5600 C   0  0  0  0  0  3  0  0  0  0  0  0
  180.3480  176.2830  136.8500 C   0  0  0  0  0  1  0  0  0  0  0  0
  184.8610  172.9050  137.9240 N   0  0  0  0  0  0  0  0  0  0  0  0
  187.2310  172.6080  137.6090 N   0  0  0  0  0  0  0  0  0  0  0  0
  185.1010  176.6160  136.0950 C   0  0  2  0  0  3  0  0  0  0  0  0
  183.9580  177.3350  135.3770 C   0  0  0  0  0  2  0  0  0  0  0  0
  187.3730  174.2760  136.0140 C   0  0  0  0  0  3  0  0  0  0  0  0
  182.5320  177.4280  137.6250 C   0  0  1  0  0  0  0  0  0  0  0  0
  181.8850  178.4700  135.4940 O   0  0  0  0  0  1  0  0  0  0  0  0
  188.0430  173.2070  136.7880 C   0  0  0  0  0  3  0  0  0  0  0  0
  186.1230  174.3070  136.4510 C   0  0  0  0  0  0  0  0  0  0  0  0
  182.4630  175.2690  136.3740 O   0  0  0  0  0  0  0  0  0  0  0  0
  182.9830  178.1100  136.2800 C   0  0  2  0  0  3  0  0  0  0  0  0
  181.8700  179.8220  138.2190 C   0  0  0  0  0  2  0  0  0  0  0  0
  181.5940  178.3500  138.4890 C   0  0  0  0  0  3  0  0  0  0  0  0
  180.5710  179.2050  137.7540 C   0  0  0  0  0  2  0  0  0  0  0  0
  186.4140  177.1250  135.5240 C   0  0  0  0  0  2  0  0  0  0  0  0
  188.0510  177.1050  137.4210 C   0  0  1  0  0  3  0  0  0  0  0  0
  186.6680  177.4560  137.9130 C   0  0  1  0  0  3  0  0  0  0  0  0
  186.2150  178.6700  137.3660 O   0  0  0  0  0  0  0  0  0  0  0  0
  187.1240  177.9460  136.5780 C   0  0  2  0  0  0  0  0  0  0  0  0
  189.1020  178.0130  138.0380 C   0  0  1  0  0  3  0  0  0  0  0  0
  188.4940  179.1520  138.5740 O   0  0  0  0  0  1  0  0  0  0  0  0
  189.8350  177.2690  139.1030 C   0  0  0  0  0  0  0  0  0  0  0  0
  190.8020  176.5250  138.7820 O   0  0  0  0  0  0  0  0  0  0  0  0
  189.4020  177.3490  140.4640 N   0  0  0  0  0  2  0  0  0  0  0  0
  191.2150  179.5140  144.4490 C   0  0  0  0  0  1  0  0  0  0  0  0
  191.4660  176.8630  141.7010 C   0  0  0  0  0  2  0  0  0  0  0  0
  189.7140  177.7140  143.7800 N   0  0  0  0  0  2  0  0  0  0  0  0
  191.6660  178.2170  142.3720 C   0  0  0  0  0  2  0  0  0  0  0  0
  191.1080  178.1530  143.7870 C   0  0  1  0  0  3  0  0  0  0  0  0
  188.0920  176.2540  142.9710 O   0  0  0  0  0  0  0  0  0  0  0  0
  189.9770  176.5430  141.5320 C   0  0  1  0  0  3  0  0  0  0  0  0
  189.2170  176.7930  142.8040 C   0  0  0  0  0  0  0  0  0  0  0  0
  183.7220  177.1970  138.3780 O   0  0  0  0  0  0  0  0  0  0  0  0
  183.4490  176.7770  139.6960 C   0  0  2  0  0  3  0  0  0  0  0  0
  182.2840  176.0360  139.7250 F   0  0  0  0  0  0  0  0  0  0  0  0
  183.2750  178.0040  140.5710 C   0  0  0  0  0  2  0  0  0  0  0  0
  184.5610  178.7450  140.7370 C   0  0  0  0  0  0  0  0  0  0  0  0
  184.8380  179.6500  139.9660 O   0  0  0  0  0  0  0  0  0  0  0  0
  185.5000  178.4000  141.8470 C   0  0  0  0  0  2  0  0  0  0  0  0
  185.2360  179.2280  143.0170 N   0  0  0  0  0  2  0  0  0  0  0  0
  184.9720  178.6820  144.3090 C   0  0  0  0  0  0  0  0  0  0  0  0
  185.9590  178.0870  144.9670 C   0  0  0  0  0  2  0  0  0  0  0  0
  183.6630  178.7850  144.8810 N   0  0  0  0  0  2  0  0  0  0  0  0
  182.4430  178.8510  144.0920 C   0  0  0  0  0  1  0  0  0  0  0  0
  1  8  1  0  0  0  0
  1  7  2  0  0  0  0
  2  5  2  0  0  0  0
  3  6  1  6  0  0  0
  3 12  1  0  0  0  0
  4  9  1  0  0  0  0
  4 15  1  1  0  0  0
  4  2  1  0  0  0  0
  5  7  1  0  0  0  0
  9 21  1  6  0  0  0
 10  9  1  0  0  0  0
 10 17  1  0  0  0  0
 11 15  2  0  0  0  0
 11 14  1  0  0  0  0
 12 39  1  1  0  0  0
 12 19  1  0  0  0  0
 14  8  2  0  0  0  0
 15  1  1  0  0  0  0
 16  2  1  0  0  0  0
 16  3  1  0  0  0  0
 17 13  1  6  0  0  0
 17 12  1  0  0  0  0
 18 19  1  0  0  0  0
 20 18  1  0  0  0  0
 20 19  1  0  0  0  0
 22 23  1  0  0  0  0
 22 26  1  1  0  0  0
 23 24  1  1  0  0  0
 25 21  1  6  0  0  0
 25 24  1  0  0  0  0
 25 22  1  0  0  0  0
 25 23  1  0  0  0  0
 26 27  1  1  0  0  0
 26 28  1  0  0  0  0
 28 30  1  0  0  0  0
 29 28  2  0  0  0  0
 32 34  1  0  0  0  0
 33 35  1  0  0  0  0
 34 35  1  0  0  0  0
 35 31  1  6  0  0  0
 37 30  1  6  0  0  0
 37 32  1  0  0  0  0
 37 38  1  0  0  0  0
 38 36  2  0  0  0  0
 38 33  1  0  0  0  0
 39 40  1  0  0  0  0
 40 41  1  6  0  0  0
 40 42  1  0  0  0  0
 42 43  1  0  0  0  0
 43 45  1  0  0  0  0
 44 43  2  0  0  0  0
 45 46  1  0  0  0  0
 46 47  1  0  0  0  0
 47 49  1  0  0  0  0
 47 48  2  0  0  0  0
 50 49  1  0  0  0  0
M  END
>  <MODEL>
8

>  <REMARK>
 VINA RESULT:      -4.2      2.403      5.696
  Name = 
  14 active torsions:
  status: ('A' for Active; 'I' for Inactive)
    1  A    between atoms: C_3  and  N_8
    2  A    between atoms: C_3  and  N_13
    3  A    between atoms: C_4  and  C_11
    4  A    between atoms: C_4  and  C_36
    5  A    between atoms: C_5  and  C_17
    6  A    between atoms: C_5  and  C_35
    7  A    between atoms: N_8  and  C_17
    8  A    between atoms: C_14  and  C_39
    9  A    between atoms: C_15  and  C_35
   10  A    between atoms: C_15  and  O_37
   11  A    between atoms: C_28  and  C_30
   12  A    between atoms: C_29  and  N_48
   13  A    between atoms: C_30  and  C_49
   14  A    between atoms: O_37  and  C_39
                            x       y       z     vdW  Elec       q    Type
                         _______ _______ _______ _____ _____    ______ ____

>  <TORSDO>
F 14

$$$$
=
 OpenBabel10232410363D

 50 56  0  0  1  0  0  0  0  0999 V2000
  187.4500  172.7840  136.3990 C   0  0  0  0  0  0  0  0  0  0  0  0
  186.3630  175.3490  136.6840 C   0  0  0  0  0  0  0  0  0  0  0  0
  186.0070  177.3260  138.1200 C   0  0  2  0  0  3  0  0  0  0  0  0
  187.4250  175.2260  135.5890 C   0  0  1  0  0  3  0  0  0  0  0  0
  185.9500  174.2970  137.4230 C   0  0  0  0  0  3  0  0  0  0  0  0
  184.9450  178.4160  138.2250 C   0  0  0  0  0  1  0  0  0  0  0  0
  186.4980  172.9770  137.2540 N   0  0  0  0  0  0  0  0  0  0  0  0
  188.0150  171.5340  136.0610 N   0  0  0  0  0  0  0  0  0  0  0  0
  188.5300  176.2840  135.8000 C   0  0  2  0  0  3  0  0  0  0  0  0
  187.9440  177.6850  135.6210 C   0  0  0  0  0  2  0  0  0  0  0  0
  188.7670  173.2290  134.6800 C   0  0  0  0  0  3  0  0  0  0  0  0
  187.4740  177.8820  138.2360 C   0  0  1  0  0  0  0  0  0  0  0  0
  187.1200  179.6790  136.5940 O   0  0  0  0  0  1  0  0  0  0  0  0
  188.7960  171.7970  135.0550 C   0  0  0  0  0  3  0  0  0  0  0  0
  187.9560  173.8120  135.5490 C   0  0  0  0  0  0  0  0  0  0  0  0
  185.7890  176.5990  136.9140 O   0  0  0  0  0  0  0  0  0  0  0  0
  187.9100  178.5630  136.8850 C   0  0  2  0  0  3  0  0  0  0  0  0
  186.2990  178.7610  140.3260 C   0  0  0  0  0  2  0  0  0  0  0  0
  187.5480  178.8650  139.4630 C   0  0  0  0  0  3  0  0  0  0  0  0
  187.6210  178.2530  140.8550 C   0  0  0  0  0  2  0  0  0  0  0  0
  189.6900  176.1280  134.8320 C   0  0  0  0  0  2  0  0  0  0  0  0
  192.1770  175.8460  134.7200 C   0  0  1  0  0  3  0  0  0  0  0  0
  191.5340  174.6500  135.3780 C   0  0  1  0  0  3  0  0  0  0  0  0
  190.9020  174.9980  136.5850 O   0  0  0  0  0  0  0  0  0  0  0  0
  190.9770  176.0150  135.6180 C   0  0  2  0  0  0  0  0  0  0  0  0
  193.4160  176.2920  135.4790 C   0  0  1  0  0  3  0  0  0  0  0  0
  193.0700  176.6730  136.7780 O   0  0  0  0  0  1  0  0  0  0  0  0
  194.4040  175.1740  135.5140 C   0  0  0  0  0  0  0  0  0  0  0  0
  194.5130  174.4160  134.5120 O   0  0  0  0  0  0  0  0  0  0  0  0
  195.1700  174.9290  136.6970 N   0  0  0  0  0  2  0  0  0  0  0  0
  199.1710  175.2660  139.4760 C   0  0  0  0  0  1  0  0  0  0  0  0
  197.4340  174.0770  136.2820 C   0  0  0  0  0  2  0  0  0  0  0  0
  197.2220  173.8470  139.1140 N   0  0  0  0  0  2  0  0  0  0  0  0
  198.2130  175.0180  137.1920 C   0  0  0  0  0  2  0  0  0  0  0  0
  198.4710  174.3200  138.5200 C   0  0  1  0  0  3  0  0  0  0  0  0
  195.1680  172.7890  138.8460 O   0  0  0  0  0  0  0  0  0  0  0  0
  196.0450  173.7750  136.8560 C   0  0  1  0  0  3  0  0  0  0  0  0
  196.1220  173.4100  138.3100 C   0  0  0  0  0  0  0  0  0  0  0  0
  188.4040  176.8260  138.4730 O   0  0  0  0  0  0  0  0  0  0  0  0
  189.6180  177.2920  139.0170 C   0  0  2  0  0  3  0  0  0  0  0  0
  190.4480  177.7410  138.0080 F   0  0  0  0  0  0  0  0  0  0  0  0
  190.2980  176.1450  139.7410 C   0  0  0  0  0  2  0  0  0  0  0  0
  190.5730  176.4840  141.1690 C   0  0  0  0  0  0  0  0  0  0  0  0
  190.1030  175.7880  142.0540 O   0  0  0  0  0  0  0  0  0  0  0  0
  191.4320  177.6550  141.5200 C   0  0  0  0  0  2  0  0  0  0  0  0
  191.9870  177.5000  142.8580 N   0  0  0  0  0  0  0  0  0  0  0  0
  191.4580  178.1750  143.9990 C   0  0  0  0  0  0  0  0  0  0  0  0
  190.5950  179.1660  143.8140 C   0  0  0  0  0  1  0  0  0  0  0  0
  191.8530  177.7790  145.3180 N   0  0  0  0  0  2  0  0  0  0  0  0
  191.4260  176.5390  145.9460 C   0  0  0  0  0  1  0  0  0  0  0  0
  1  7  2  0  0  0  0
  2 16  1  0  0  0  0
  2  5  2  0  0  0  0
  3  6  1  6  0  0  0
  3 12  1  0  0  0  0
  4 15  1  1  0  0  0
  4  9  1  0  0  0  0
  4  2  1  0  0  0  0
  7  5  1  0  0  0  0
  8  1  1  0  0  0  0
  9 21  1  6  0  0  0
 10  9  1  0  0  0  0
 10 17  1  0  0  0  0
 11 14  1  0  0  0  0
 11 15  2  0  0  0  0
 12 39  1  1  0  0  0
 12 19  1  0  0  0  0
 14  8  2  0  0  0  0
 15  1  1  0  0  0  0
 16  3  1  0  0  0  0
 17 13  1  6  0  0  0
 17 12  1  0  0  0  0
 18 20  1  0  0  0  0
 19 18  1  0  0  0  0
 19 20  1  0  0  0  0
 22 23  1  0  0  0  0
 22 26  1  1  0  0  0
 22 25  1  0  0  0  0
 23 25  1  0  0  0  0
 23 24  1  1  0  0  0
 25 21  1  6  0  0  0
 25 24  1  0  0  0  0
 26 28  1  0  0  0  0
 26 27  1  1  0  0  0
 28 30  1  0  0  0  0
 29 28  2  0  0  0  0
 32 37  1  0  0  0  0
 32 34  1  0  0  0  0
 34 35  1  0  0  0  0
 35 33  1  0  0  0  0
 35 31  1  1  0  0  0
 37 30  1  1  0  0  0
 37 38  1  0  0  0  0
 38 36  2  0  0  0  0
 38 33  1  0  0  0  0
 39 40  1  0  0  0  0
 40 41  1  6  0  0  0
 40 42  1  0  0  0  0
 42 43  1  0  0  0  0
 43 45  1  0  0  0  0
 43 44  2  0  0  0  0
 45 46  1  0  0  0  0
 46 47  2  0  0  0  0
 47 49  1  0  0  0  0
 48 47  1  0  0  0  0
 49 50  1  0  0  0  0
M  END
>  <MODEL>
9

>  <REMARK>
 VINA RESULT:      -4.1      4.295      8.281
  Name = 
  14 active torsions:
  status: ('A' for Active; 'I' for Inactive)
    1  A    between atoms: C_3  and  N_8
    2  A    between atoms: C_3  and  N_13
    3  A    between atoms: C_4  and  C_11
    4  A    between atoms: C_4  and  C_36
    5  A    between atoms: C_5  and  C_17
    6  A    between atoms: C_5  and  C_35
    7  A    between atoms: N_8  and  C_17
    8  A    between atoms: C_14  and  C_39
    9  A    between atoms: C_15  and  C_35
   10  A    between atoms: C_15  and  O_37
   11  A    between atoms: C_28  and  C_30
   12  A    between atoms: C_29  and  N_48
   13  A    between atoms: C_30  and  C_49
   14  A    between atoms: O_37  and  C_39
                            x       y       z     vdW  Elec       q    Type
                         _______ _______ _______ _____ _____    ______ ____

>  <TORSDO>
F 14

$$$$
