=
 OpenBabel10232410573D

 42 46  0  0  1  0  0  0  0  0999 V2000
  189.4110  175.2400  137.7090 N   0  0  0  0  0  2  0  0  0  0  0  0
  189.4930  176.4990  136.9910 C   0  0  2  0  0  3  0  0  0  0  0  0
  188.7630  174.3190  136.7710 C   0  0  2  0  0  3  0  0  0  0  0  0
  189.1900  174.7690  135.0300 S   0  0  0  0  0  0  0  0  0  0  0  0
  190.0830  176.2390  135.6100 C   0  0  2  0  0  3  0  0  0  0  0  0
  191.5690  175.9530  135.6000 C   0  0  0  0  0  0  0  0  0  0  0  0
  193.6120  175.6160  136.9090 C   0  0  2  0  0  3  0  0  0  0  0  0
  193.6970  175.8490  134.4800 N   0  0  0  0  0  0  0  0  0  0  0  0
  194.3250  175.5280  135.5790 C   0  0  0  0  0  0  0  0  0  0  0  0
  195.7450  175.1530  135.5600 C   0  0  0  0  0  3  0  0  0  0  0  0
  195.4450  174.2160  137.8070 C   0  0  0  0  0  3  0  0  0  0  0  0
  194.1770  174.6320  137.9010 C   0  0  0  0  0  3  0  0  0  0  0  0
  192.2110  175.4140  136.7190 O   0  0  0  0  0  0  0  0  0  0  0  0
  192.2960  176.1770  134.4910 C   0  0  0  0  0  3  0  0  0  0  0  0
  196.2940  174.5880  136.6470 C   0  0  0  0  0  0  0  0  0  0  0  0
  198.1390  173.2430  137.3210 O   0  0  0  0  0  0  0  0  0  0  0  0
  198.6640  175.0380  135.9300 N   0  0  0  0  0  1  0  0  0  0  0  0
  197.7300  174.2360  136.6640 C   0  0  0  0  0  0  0  0  0  0  0  0
  190.0980  177.6690  137.7970 C   0  0  2  0  0  3  0  0  0  0  0  0
  190.2910  176.0680  140.9870 O   0  0  0  0  0  0  0  0  0  0  0  0
  190.9030  177.2580  139.0470 C   0  0  0  0  0  2  0  0  0  0  0  0
  190.0230  176.9940  140.2310 C   0  0  0  0  0  0  0  0  0  0  0  0
  188.8850  177.9420  140.5200 C   0  0  1  0  0  3  0  0  0  0  0  0
  189.0140  178.6940  138.1310 C   0  0  0  0  0  2  0  0  0  0  0  0
  188.0920  178.1940  139.2450 C   0  0  0  0  0  2  0  0  0  0  0  0
  189.2130  178.3560  143.3060 O   0  0  0  0  0  0  0  0  0  0  0  0
  188.2690  177.5990  142.9420 C   0  0  0  0  0  0  0  0  0  0  0  0
  188.0060  177.4080  141.5510 N   0  0  0  0  0  2  0  0  0  0  0  0
  187.3970  176.9150  143.9580 C   0  0  0  0  0  2  0  0  0  0  0  0
  186.3340  177.8560  144.5410 C   0  0  0  0  0  2  0  0  0  0  0  0
  185.5110  178.8420  146.6330 N   0  0  0  0  0  1  0  0  0  0  0  0
  186.3250  177.7820  146.0650 C   0  0  2  0  0  3  0  0  0  0  0  0
  187.7420  177.7890  146.6380 C   0  0  0  0  0  2  0  0  0  0  0  0
  187.8140  178.1180  148.1230 C   0  0  0  0  0  2  0  0  0  0  0  0
  189.1430  178.2430  148.5270 O   0  0  0  0  0  1  0  0  0  0  0  0
  185.2950  175.3160  136.0520 C   0  0  0  0  0  3  0  0  0  0  0  0
  186.4240  175.4550  137.0150 C   0  0  0  0  0  2  0  0  0  0  0  0
  186.8000  173.0350  137.4190 C   0  0  0  0  0  3  0  0  0  0  0  0
  184.3620  173.2900  137.1470 C   0  0  0  0  0  3  0  0  0  0  0  0
  185.4220  172.7510  137.6910 N   0  0  0  0  0  0  0  0  0  0  0  0
  184.3630  174.3710  136.1440 C   0  0  0  0  0  3  0  0  0  0  0  0
  187.2910  174.2270  137.0590 C   0  0  0  0  0  0  0  0  0  0  0  0
  2  1  1  1  0  0  0
  2 19  1  0  0  0  0
  3 42  1  6  0  0  0
  3  1  1  0  0  0  0
  4  5  1  0  0  0  0
  4  3  1  0  0  0  0
  5  6  1  1  0  0  0
  5  2  1  0  0  0  0
  6 13  1  0  0  0  0
  7 12  1  1  0  0  0
  8 14  1  0  0  0  0
  8  9  2  0  0  0  0
  9  7  1  0  0  0  0
 10  9  1  0  0  0  0
 10 15  2  0  0  0  0
 11 12  2  0  0  0  0
 13  7  1  0  0  0  0
 14  6  2  0  0  0  0
 15 18  1  0  0  0  0
 15 11  1  0  0  0  0
 17 18  1  0  0  0  0
 18 16  2  0  0  0  0
 19 24  1  1  0  0  0
 19 21  1  0  0  0  0
 21 22  1  0  0  0  0
 22 23  1  0  0  0  0
 22 20  2  0  0  0  0
 23 28  1  1  0  0  0
 24 25  1  0  0  0  0
 25 23  1  0  0  0  0
 27 26  2  0  0  0  0
 27 29  1  0  0  0  0
 28 27  1  0  0  0  0
 29 30  1  0  0  0  0
 30 32  1  0  0  0  0
 32 31  1  1  0  0  0
 32 33  1  0  0  0  0
 33 34  1  0  0  0  0
 34 35  1  0  0  0  0
 36 41  2  0  0  0  0
 36 37  1  0  0  0  0
 37 42  1  0  0  0  0
 38 40  1  0  0  0  0
 39 40  2  0  0  0  0
 41 39  1  0  0  0  0
 42 38  2  0  0  0  0
M  END
>  <MODEL>
1

>  <REMARK>
 VINA RESULT:      -7.7      0.000      0.000
  Name = 
  10 active torsions:
  status: ('A' for Active; 'I' for Inactive)
    1  A    between atoms: C_1  and  C_24
    2  A    between atoms: C_6  and  C_11
    3  A    between atoms: C_9  and  C_21
    4  A    between atoms: C_13  and  C_28
    5  A    between atoms: C_18  and  C_38
    6  A    between atoms: C_20  and  N_34
    7  A    between atoms: C_21  and  C_35
    8  A    between atoms: C_27  and  C_42
    9  A    between atoms: C_28  and  C_33
   10  A    between atoms: C_33  and  C_35
                            x       y       z     vdW  Elec       q    Type
                         _______ _______ _______ _____ _____    ______ ____

>  <TORSDO>
F 10

$$$$
=
 OpenBabel10232410573D

 42 46  0  0  1  0  0  0  0  0999 V2000
  189.3720  175.2340  137.5730 N   0  0  0  0  0  2  0  0  0  0  0  0
  189.4440  176.4460  136.7770 C   0  0  2  0  0  3  0  0  0  0  0  0
  188.7360  174.2490  136.6920 C   0  0  2  0  0  3  0  0  0  0  0  0
  189.1670  174.5930  134.9280 S   0  0  0  0  0  0  0  0  0  0  0  0
  190.0440  176.1050  135.4170 C   0  0  2  0  0  3  0  0  0  0  0  0
  191.5330  175.8340  135.4320 C   0  0  0  0  0  0  0  0  0  0  0  0
  193.5470  175.4600  136.7740 C   0  0  2  0  0  3  0  0  0  0  0  0
  193.6880  175.7970  134.3600 N   0  0  0  0  0  0  0  0  0  0  0  0
  194.2920  175.4350  135.4600 C   0  0  0  0  0  0  0  0  0  0  0  0
  195.7160  175.0740  135.4590 C   0  0  0  0  0  3  0  0  0  0  0  0
  195.3720  174.0400  137.6570 C   0  0  0  0  0  3  0  0  0  0  0  0
  194.0980  174.4390  137.7370 C   0  0  0  0  0  3  0  0  0  0  0  0
  192.1520  175.2530  136.5420 O   0  0  0  0  0  0  0  0  0  0  0  0
  192.2830  176.1110  134.3510 C   0  0  0  0  0  3  0  0  0  0  0  0
  196.2450  174.4680  136.5340 C   0  0  0  0  0  0  0  0  0  0  0  0
  198.0670  173.0070  136.9940 O   0  0  0  0  0  0  0  0  0  0  0  0
  198.6490  175.0910  136.1250 N   0  0  0  0  0  1  0  0  0  0  0  0
  197.6830  174.1290  136.5710 C   0  0  0  0  0  0  0  0  0  0  0  0
  190.0350  177.6700  137.5100 C   0  0  2  0  0  3  0  0  0  0  0  0
  190.5550  176.1670  140.7110 O   0  0  0  0  0  0  0  0  0  0  0  0
  190.9520  177.3400  138.7060 C   0  0  0  0  0  2  0  0  0  0  0  0
  190.1770  177.0560  139.9570 C   0  0  0  0  0  0  0  0  0  0  0  0
  189.0090  177.9430  140.3090 C   0  0  1  0  0  3  0  0  0  0  0  0
  188.9180  178.6390  137.9010 C   0  0  0  0  0  2  0  0  0  0  0  0
  188.1110  178.1140  139.0900 C   0  0  0  0  0  2  0  0  0  0  0  0
  189.5050  178.4590  143.0530 O   0  0  0  0  0  0  0  0  0  0  0  0
  188.5880  177.6330  142.7770 C   0  0  0  0  0  0  0  0  0  0  0  0
  188.2400  177.3860  141.4130 N   0  0  0  0  0  2  0  0  0  0  0  0
  187.8350  176.9270  143.8700 C   0  0  0  0  0  2  0  0  0  0  0  0
  188.5630  176.9970  145.2190 C   0  0  0  0  0  2  0  0  0  0  0  0
  188.1000  177.4760  147.5800 N   0  0  0  0  0  1  0  0  0  0  0  0
  187.7760  177.8450  146.2140 C   0  0  2  0  0  3  0  0  0  0  0  0
  186.2730  177.7740  145.9500 C   0  0  0  0  0  2  0  0  0  0  0  0
  185.5400  179.0930  146.1520 C   0  0  0  0  0  2  0  0  0  0  0  0
  184.1710  178.8690  146.2950 O   0  0  0  0  0  1  0  0  0  0  0  0
  185.2720  175.2570  135.9720 C   0  0  0  0  0  3  0  0  0  0  0  0
  186.4000  175.3920  136.9350 C   0  0  0  0  0  2  0  0  0  0  0  0
  186.7690  172.9710  137.3390 C   0  0  0  0  0  3  0  0  0  0  0  0
  184.3320  173.2330  137.0660 C   0  0  0  0  0  3  0  0  0  0  0  0
  185.3910  172.6900  137.6090 N   0  0  0  0  0  0  0  0  0  0  0  0
  184.3370  174.3150  136.0630 C   0  0  0  0  0  3  0  0  0  0  0  0
  187.2640  174.1610  136.9790 C   0  0  0  0  0  0  0  0  0  0  0  0
  2 19  1  0  0  0  0
  2  1  1  1  0  0  0
  3 42  1  6  0  0  0
  3  1  1  0  0  0  0
  4  5  1  0  0  0  0
  4  3  1  0  0  0  0
  5  6  1  1  0  0  0
  5  2  1  0  0  0  0
  6 13  1  0  0  0  0
  7 12  1  1  0  0  0
  8  9  2  0  0  0  0
  9  7  1  0  0  0  0
 10  9  1  0  0  0  0
 10 15  2  0  0  0  0
 11 12  2  0  0  0  0
 13  7  1  0  0  0  0
 14  8  1  0  0  0  0
 14  6  2  0  0  0  0
 15 18  1  0  0  0  0
 15 11  1  0  0  0  0
 17 18  1  0  0  0  0
 18 16  2  0  0  0  0
 19 24  1  1  0  0  0
 19 21  1  0  0  0  0
 21 22  1  0  0  0  0
 22 23  1  0  0  0  0
 22 20  2  0  0  0  0
 23 28  1  1  0  0  0
 24 25  1  0  0  0  0
 25 23  1  0  0  0  0
 27 26  2  0  0  0  0
 27 29  1  0  0  0  0
 28 27  1  0  0  0  0
 29 30  1  0  0  0  0
 30 32  1  0  0  0  0
 32 31  1  1  0  0  0
 33 34  1  0  0  0  0
 33 32  1  0  0  0  0
 34 35  1  0  0  0  0
 36 41  2  0  0  0  0
 36 37  1  0  0  0  0
 37 42  1  0  0  0  0
 38 40  1  0  0  0  0
 39 40  2  0  0  0  0
 41 39  1  0  0  0  0
 42 38  2  0  0  0  0
M  END
>  <MODEL>
2

>  <REMARK>
 VINA RESULT:      -7.7      1.064      1.221
  Name = 
  10 active torsions:
  status: ('A' for Active; 'I' for Inactive)
    1  A    between atoms: C_1  and  C_24
    2  A    between atoms: C_6  and  C_11
    3  A    between atoms: C_9  and  C_21
    4  A    between atoms: C_13  and  C_28
    5  A    between atoms: C_18  and  C_38
    6  A    between atoms: C_20  and  N_34
    7  A    between atoms: C_21  and  C_35
    8  A    between atoms: C_27  and  C_42
    9  A    between atoms: C_28  and  C_33
   10  A    between atoms: C_33  and  C_35
                            x       y       z     vdW  Elec       q    Type
                         _______ _______ _______ _____ _____    ______ ____

>  <TORSDO>
F 10

$$$$
=
 OpenBabel10232410573D

 42 46  0  0  1  0  0  0  0  0999 V2000
  189.0600  176.5970  139.8630 N   0  0  0  0  0  2  0  0  0  0  0  0
  190.2270  177.4490  140.0040 C   0  0  2  0  0  3  0  0  0  0  0  0
  188.3340  177.1500  138.7160 C   0  0  2  0  0  3  0  0  0  0  0  0
  189.5140  177.9060  137.5110 S   0  0  0  0  0  0  0  0  0  0  0  0
  190.8980  177.5920  138.6420 C   0  0  2  0  0  3  0  0  0  0  0  0
  191.6520  176.3650  138.1770 C   0  0  0  0  0  0  0  0  0  0  0  0
  193.8240  175.2810  137.8470 C   0  0  2  0  0  3  0  0  0  0  0  0
  191.7760  174.2940  136.9560 N   0  0  0  0  0  0  0  0  0  0  0  0
  193.0450  174.1450  137.2250 C   0  0  0  0  0  0  0  0  0  0  0  0
  193.7580  172.9130  136.8640 C   0  0  0  0  0  3  0  0  0  0  0  0
  195.5470  173.5920  138.3980 C   0  0  0  0  0  3  0  0  0  0  0  0
  194.9760  174.7700  138.6740 C   0  0  0  0  0  3  0  0  0  0  0  0
  192.9470  176.0960  138.6280 O   0  0  0  0  0  0  0  0  0  0  0  0
  191.0670  175.4840  137.3460 C   0  0  0  0  0  3  0  0  0  0  0  0
  194.9790  172.6820  137.3720 C   0  0  0  0  0  0  0  0  0  0  0  0
  196.3810  171.4250  135.9150 O   0  0  0  0  0  0  0  0  0  0  0  0
  195.7110  170.3240  137.8580 N   0  0  0  0  0  1  0  0  0  0  0  0
  195.7300  171.4660  136.9930 C   0  0  0  0  0  0  0  0  0  0  0  0
  191.1430  177.1050  141.1980 C   0  0  2  0  0  3  0  0  0  0  0  0
  188.7680  175.3210  143.1870 O   0  0  0  0  0  0  0  0  0  0  0  0
  190.7340  175.8510  141.9990 C   0  0  0  0  0  2  0  0  0  0  0  0
  189.6590  176.1430  143.0030 C   0  0  0  0  0  0  0  0  0  0  0  0
  189.7580  177.3970  143.8360 C   0  0  1  0  0  3  0  0  0  0  0  0
  191.3130  178.3270  142.1010 C   0  0  0  0  0  2  0  0  0  0  0  0
  190.0570  178.5870  142.9350 C   0  0  0  0  0  2  0  0  0  0  0  0
  189.4690  177.0960  146.6410 O   0  0  0  0  0  0  0  0  0  0  0  0
  188.4330  177.3970  145.9820 C   0  0  0  0  0  0  0  0  0  0  0  0
  188.5270  177.6340  144.5760 N   0  0  0  0  0  2  0  0  0  0  0  0
  187.1010  177.5380  146.6660 C   0  0  0  0  0  2  0  0  0  0  0  0
  185.9400  177.6320  145.6680 C   0  0  0  0  0  2  0  0  0  0  0  0
  185.5690  179.6540  147.0080 N   0  0  0  0  0  1  0  0  0  0  0  0
  185.2710  179.0020  145.7450 C   0  0  2  0  0  3  0  0  0  0  0  0
  183.7660  178.9090  145.4980 C   0  0  0  0  0  2  0  0  0  0  0  0
  183.3750  178.8850  144.0260 C   0  0  0  0  0  2  0  0  0  0  0  0
  181.9870  178.8720  143.8940 O   0  0  0  0  0  1  0  0  0  0  0  0
  184.8320  178.2680  138.5690 C   0  0  0  0  0  3  0  0  0  0  0  0
  186.2330  178.6160  138.2050 C   0  0  0  0  0  2  0  0  0  0  0  0
  187.2160  178.4070  140.4740 C   0  0  0  0  0  3  0  0  0  0  0  0
  184.9520  179.3250  140.8140 C   0  0  0  0  0  3  0  0  0  0  0  0
  186.2240  179.2290  141.1020 N   0  0  0  0  0  0  0  0  0  0  0  0
  184.2620  178.6220  139.7170 C   0  0  0  0  0  3  0  0  0  0  0  0
  187.2320  178.0600  139.1820 C   0  0  0  0  0  0  0  0  0  0  0  0
  2  1  1  6  0  0  0
  2 19  1  0  0  0  0
  3 42  1  1  0  0  0
  3  1  1  0  0  0  0
  4  5  1  0  0  0  0
  4  3  1  0  0  0  0
  5  6  1  6  0  0  0
  5  2  1  0  0  0  0
  6 13  1  0  0  0  0
  7 13  1  0  0  0  0
  7 12  1  1  0  0  0
  8  9  2  0  0  0  0
  8 14  1  0  0  0  0
  9  7  1  0  0  0  0
 10  9  1  0  0  0  0
 10 15  2  0  0  0  0
 11 12  2  0  0  0  0
 14  6  2  0  0  0  0
 15 11  1  0  0  0  0
 16 18  2  0  0  0  0
 18 15  1  0  0  0  0
 18 17  1  0  0  0  0
 19 21  1  1  0  0  0
 19 24  1  0  0  0  0
 21 22  1  0  0  0  0
 22 20  2  0  0  0  0
 22 23  1  0  0  0  0
 23 28  1  6  0  0  0
 24 25  1  0  0  0  0
 25 23  1  0  0  0  0
 27 26  2  0  0  0  0
 27 29  1  0  0  0  0
 28 27  1  0  0  0  0
 30 32  1  0  0  0  0
 30 29  1  0  0  0  0
 32 31  1  1  0  0  0
 33 32  1  0  0  0  0
 34 33  1  0  0  0  0
 35 34  1  0  0  0  0
 36 41  2  0  0  0  0
 37 36  1  0  0  0  0
 37 42  1  0  0  0  0
 38 40  1  0  0  0  0
 39 40  2  0  0  0  0
 41 39  1  0  0  0  0
 42 38  2  0  0  0  0
M  END
>  <MODEL>
3

>  <REMARK>
 VINA RESULT:      -7.5      2.801      3.948
  Name = 
  10 active torsions:
  status: ('A' for Active; 'I' for Inactive)
    1  A    between atoms: C_1  and  C_24
    2  A    between atoms: C_6  and  C_11
    3  A    between atoms: C_9  and  C_21
    4  A    between atoms: C_13  and  C_28
    5  A    between atoms: C_18  and  C_38
    6  A    between atoms: C_20  and  N_34
    7  A    between atoms: C_21  and  C_35
    8  A    between atoms: C_27  and  C_42
    9  A    between atoms: C_28  and  C_33
   10  A    between atoms: C_33  and  C_35
                            x       y       z     vdW  Elec       q    Type
                         _______ _______ _______ _____ _____    ______ ____

>  <TORSDO>
F 10

$$$$
=
 OpenBabel10232410573D

 42 46  0  0  1  0  0  0  0  0999 V2000
  188.6590  175.2490  137.0510 N   0  0  0  0  0  2  0  0  0  0  0  0
  188.7100  176.2710  136.0210 C   0  0  2  0  0  3  0  0  0  0  0  0
  188.2730  174.0260  136.3410 C   0  0  2  0  0  3  0  0  0  0  0  0
  188.9150  174.0600  134.6080 S   0  0  0  0  0  0  0  0  0  0  0  0
  189.5350  175.7480  134.8510 C   0  0  2  0  0  3  0  0  0  0  0  0
  191.0270  175.6980  135.1010 C   0  0  0  0  0  0  0  0  0  0  0  0
  192.8400  175.1720  136.6620 C   0  0  2  0  0  3  0  0  0  0  0  0
  193.2860  176.3300  134.5590 N   0  0  0  0  0  0  0  0  0  0  0  0
  193.7710  175.7020  135.5960 C   0  0  0  0  0  0  0  0  0  0  0  0
  195.2200  175.5650  135.7900 C   0  0  0  0  0  3  0  0  0  0  0  0
  194.7530  173.8050  137.4340 C   0  0  0  0  0  3  0  0  0  0  0  0
  193.4280  173.9710  137.3580 C   0  0  0  0  0  3  0  0  0  0  0  0
  191.5700  174.8650  136.0830 O   0  0  0  0  0  0  0  0  0  0  0  0
  191.8660  176.4300  134.3460 C   0  0  0  0  0  3  0  0  0  0  0  0
  195.6860  174.7080  136.7130 C   0  0  0  0  0  0  0  0  0  0  0  0
  197.5800  173.7630  137.8020 O   0  0  0  0  0  0  0  0  0  0  0  0
  198.0520  175.4000  136.2110 N   0  0  0  0  0  1  0  0  0  0  0  0
  197.1390  174.5810  136.9510 C   0  0  0  0  0  0  0  0  0  0  0  0
  189.0460  177.6890  136.5300 C   0  0  2  0  0  3  0  0  0  0  0  0
  190.6040  176.7870  139.6180 O   0  0  0  0  0  0  0  0  0  0  0  0
  190.2370  177.7710  137.5080 C   0  0  0  0  0  2  0  0  0  0  0  0
  189.8410  177.4400  138.9160 C   0  0  0  0  0  0  0  0  0  0  0  0
  188.5560  178.0070  139.4660 C   0  0  1  0  0  3  0  0  0  0  0  0
  187.7940  178.3540  137.1020 C   0  0  0  0  0  2  0  0  0  0  0  0
  187.4270  177.7770  138.4700 C   0  0  0  0  0  2  0  0  0  0  0  0
  186.8300  179.1540  141.4010 O   0  0  0  0  0  0  0  0  0  0  0  0
  187.3950  178.0640  141.7040 C   0  0  0  0  0  0  0  0  0  0  0  0
  188.2180  177.3990  140.7450 N   0  0  0  0  0  2  0  0  0  0  0  0
  187.1870  177.4410  143.0570 C   0  0  0  0  0  2  0  0  0  0  0  0
  188.3230  176.4830  143.4380 C   0  0  0  0  0  2  0  0  0  0  0  0
  188.2760  178.0500  145.3260 N   0  0  0  0  0  1  0  0  0  0  0  0
  188.9610  176.9020  144.7600 C   0  0  2  0  0  3  0  0  0  0  0  0
  190.4600  177.1570  144.6070 C   0  0  0  0  0  2  0  0  0  0  0  0
  190.8100  178.2310  143.5860 C   0  0  0  0  0  2  0  0  0  0  0  0
  191.7480  179.1150  144.1160 O   0  0  0  0  0  1  0  0  0  0  0  0
  185.0140  173.2810  134.8060 C   0  0  0  0  0  3  0  0  0  0  0  0
  185.8420  174.3440  135.4390 C   0  0  0  0  0  2  0  0  0  0  0  0
  186.3550  173.1380  137.5470 C   0  0  0  0  0  3  0  0  0  0  0  0
  184.0510  172.4870  136.9550 C   0  0  0  0  0  3  0  0  0  0  0  0
  184.9910  172.7900  137.8120 N   0  0  0  0  0  0  0  0  0  0  0  0
  184.1920  172.4860  135.4870 C   0  0  0  0  0  3  0  0  0  0  0  0
  186.7940  173.7920  136.4650 C   0  0  0  0  0  0  0  0  0  0  0  0
  2 19  1  0  0  0  0
  2  1  1  1  0  0  0
  3 42  1  6  0  0  0
  3  1  1  0  0  0  0
  4  5  1  0  0  0  0
  4  3  1  0  0  0  0
  5  6  1  1  0  0  0
  5  2  1  0  0  0  0
  6 13  1  0  0  0  0
  7 12  1  6  0  0  0
  8  9  2  0  0  0  0
  9 10  1  0  0  0  0
  9  7  1  0  0  0  0
 10 15  2  0  0  0  0
 12 11  2  0  0  0  0
 13  7  1  0  0  0  0
 14  8  1  0  0  0  0
 14  6  2  0  0  0  0
 15 18  1  0  0  0  0
 15 11  1  0  0  0  0
 17 18  1  0  0  0  0
 18 16  2  0  0  0  0
 19 24  1  1  0  0  0
 19 21  1  0  0  0  0
 21 22  1  0  0  0  0
 22 23  1  0  0  0  0
 22 20  2  0  0  0  0
 23 28  1  1  0  0  0
 24 25  1  0  0  0  0
 25 23  1  0  0  0  0
 26 27  2  0  0  0  0
 27 29  1  0  0  0  0
 28 27  1  0  0  0  0
 29 30  1  0  0  0  0
 30 32  1  0  0  0  0
 32 31  1  6  0  0  0
 33 32  1  0  0  0  0
 34 35  1  0  0  0  0
 34 33  1  0  0  0  0
 36 37  1  0  0  0  0
 36 41  2  0  0  0  0
 37 42  1  0  0  0  0
 38 40  1  0  0  0  0
 39 40  2  0  0  0  0
 41 39  1  0  0  0  0
 42 38  2  0  0  0  0
M  END
>  <MODEL>
4

>  <REMARK>
 VINA RESULT:      -6.9      1.639      1.914
  Name = 
  10 active torsions:
  status: ('A' for Active; 'I' for Inactive)
    1  A    between atoms: C_1  and  C_24
    2  A    between atoms: C_6  and  C_11
    3  A    between atoms: C_9  and  C_21
    4  A    between atoms: C_13  and  C_28
    5  A    between atoms: C_18  and  C_38
    6  A    between atoms: C_20  and  N_34
    7  A    between atoms: C_21  and  C_35
    8  A    between atoms: C_27  and  C_42
    9  A    between atoms: C_28  and  C_33
   10  A    between atoms: C_33  and  C_35
                            x       y       z     vdW  Elec       q    Type
                         _______ _______ _______ _____ _____    ______ ____

>  <TORSDO>
F 10

$$$$
=
 OpenBabel10232410573D

 42 46  0  0  1  0  0  0  0  0999 V2000
  181.7630  179.4700  138.7700 N   0  0  0  0  0  2  0  0  0  0  0  0
  180.6750  178.6470  139.2670 C   0  0  2  0  0  3  0  0  0  0  0  0
  181.2230  180.8340  138.7620 C   0  0  2  0  0  3  0  0  0  0  0  0
  179.9820  181.0410  140.1160 S   0  0  0  0  0  0  0  0  0  0  0  0
  180.1210  179.2810  140.5380 C   0  0  2  0  0  3  0  0  0  0  0  0
  181.0050  179.1300  141.7570 C   0  0  0  0  0  0  0  0  0  0  0  0
  183.2150  178.5540  142.6430 C   0  0  2  0  0  3  0  0  0  0  0  0
  181.3110  178.8970  144.1330 N   0  0  0  0  0  0  0  0  0  0  0  0
  182.6040  178.7540  144.0110 C   0  0  0  0  0  0  0  0  0  0  0  0
  183.4770  178.7080  145.1900 C   0  0  0  0  0  3  0  0  0  0  0  0
  185.3800  179.1220  143.6990 C   0  0  0  0  0  3  0  0  0  0  0  0
  184.6300  179.0710  142.5920 C   0  0  0  0  0  3  0  0  0  0  0  0
  182.3980  179.1820  141.6530 O   0  0  0  0  0  0  0  0  0  0  0  0
  180.4590  178.9840  142.9770 C   0  0  0  0  0  3  0  0  0  0  0  0
  184.8070  178.8170  145.0340 C   0  0  0  0  0  0  0  0  0  0  0  0
  185.6090  179.5630  147.1470 O   0  0  0  0  0  0  0  0  0  0  0  0
  186.7060  177.7090  146.2570 N   0  0  0  0  0  1  0  0  0  0  0  0
  185.7070  178.7360  146.2030 C   0  0  0  0  0  0  0  0  0  0  0  0
  180.9760  177.1340  139.3180 C   0  0  2  0  0  3  0  0  0  0  0  0
  184.5060  177.2810  138.7690 O   0  0  0  0  0  0  0  0  0  0  0  0
  182.4170  176.7650  139.7310 C   0  0  0  0  0  2  0  0  0  0  0  0
  183.3760  176.8430  138.5830 C   0  0  0  0  0  0  0  0  0  0  0  0
  182.9610  176.2820  137.2450 C   0  0  1  0  0  3  0  0  0  0  0  0
  180.5760  176.4720  137.9990 C   0  0  0  0  0  2  0  0  0  0  0  0
  181.5730  176.7950  136.8840 C   0  0  0  0  0  2  0  0  0  0  0  0
  184.3940  174.4430  135.6310 O   0  0  0  0  0  0  0  0  0  0  0  0
  184.6490  175.6710  135.4730 C   0  0  0  0  0  0  0  0  0  0  0  0
  183.9090  176.6510  136.2030 N   0  0  0  0  0  2  0  0  0  0  0  0
  185.7060  176.1180  134.5010 C   0  0  0  0  0  2  0  0  0  0  0  0
  187.1090  176.1120  135.1220 C   0  0  0  0  0  2  0  0  0  0  0  0
  188.0180  178.3590  135.5070 N   0  0  0  0  0  1  0  0  0  0  0  0
  187.2690  177.2680  136.1050 C   0  0  2  0  0  3  0  0  0  0  0  0
  187.8950  176.8070  137.4200 C   0  0  0  0  0  2  0  0  0  0  0  0
  188.0120  177.9010  138.4740 C   0  0  0  0  0  2  0  0  0  0  0  0
  188.6230  177.4020  139.6240 O   0  0  0  0  0  1  0  0  0  0  0  0
  180.6630  183.3320  136.1210 C   0  0  0  0  0  3  0  0  0  0  0  0
  180.0000  182.4890  137.1540 C   0  0  0  0  0  2  0  0  0  0  0  0
  180.9040  180.3000  136.4090 C   0  0  0  0  0  3  0  0  0  0  0  0
  180.5280  181.5980  134.3460 C   0  0  0  0  0  3  0  0  0  0  0  0
  180.5370  180.4880  135.0370 N   0  0  0  0  0  0  0  0  0  0  0  0
  180.8580  182.9380  134.8650 C   0  0  0  0  0  3  0  0  0  0  0  0
  180.7300  181.1950  137.3890 C   0  0  0  0  0  0  0  0  0  0  0  0
  2  1  1  1  0  0  0
  2 19  1  0  0  0  0
  2  5  1  0  0  0  0
  3 42  1  6  0  0  0
  3  1  1  0  0  0  0
  3  4  1  0  0  0  0
  4  5  1  0  0  0  0
  5  6  1  1  0  0  0
  6 14  2  0  0  0  0
  7 12  1  1  0  0  0
  7  9  1  0  0  0  0
  9  8  2  0  0  0  0
  9 10  1  0  0  0  0
 11 15  1  0  0  0  0
 12 11  2  0  0  0  0
 13  6  1  0  0  0  0
 13  7  1  0  0  0  0
 14  8  1  0  0  0  0
 15 10  2  0  0  0  0
 15 18  1  0  0  0  0
 18 17  1  0  0  0  0
 18 16  2  0  0  0  0
 19 24  1  6  0  0  0
 19 21  1  0  0  0  0
 22 20  2  0  0  0  0
 22 21  1  0  0  0  0
 23 28  1  6  0  0  0
 23 22  1  0  0  0  0
 25 23  1  0  0  0  0
 25 24  1  0  0  0  0
 27 26  2  0  0  0  0
 27 28  1  0  0  0  0
 29 30  1  0  0  0  0
 29 27  1  0  0  0  0
 30 32  1  0  0  0  0
 32 31  1  6  0  0  0
 32 33  1  0  0  0  0
 33 34  1  0  0  0  0
 34 35  1  0  0  0  0
 36 37  1  0  0  0  0
 37 42  1  0  0  0  0
 38 42  2  0  0  0  0
 39 41  1  0  0  0  0
 39 40  2  0  0  0  0
 40 38  1  0  0  0  0
 41 36  2  0  0  0  0
M  END
>  <MODEL>
5

>  <REMARK>
 VINA RESULT:      -6.7      5.668     11.130
  Name = 
  10 active torsions:
  status: ('A' for Active; 'I' for Inactive)
    1  A    between atoms: C_1  and  C_24
    2  A    between atoms: C_6  and  C_11
    3  A    between atoms: C_9  and  C_21
    4  A    between atoms: C_13  and  C_28
    5  A    between atoms: C_18  and  C_38
    6  A    between atoms: C_20  and  N_34
    7  A    between atoms: C_21  and  C_35
    8  A    between atoms: C_27  and  C_42
    9  A    between atoms: C_28  and  C_33
   10  A    between atoms: C_33  and  C_35
                            x       y       z     vdW  Elec       q    Type
                         _______ _______ _______ _____ _____    ______ ____

>  <TORSDO>
F 10

$$$$
=
 OpenBabel10232410573D

 42 46  0  0  1  0  0  0  0  0999 V2000
  188.2000  175.8010  137.6590 N   0  0  0  0  0  2  0  0  0  0  0  0
  188.7810  176.7520  136.7290 C   0  0  2  0  0  3  0  0  0  0  0  0
  187.2740  175.0060  136.8450 C   0  0  2  0  0  3  0  0  0  0  0  0
  187.8930  174.8780  135.1090 S   0  0  0  0  0  0  0  0  0  0  0  0
  189.2660  175.9990  135.4950 C   0  0  2  0  0  3  0  0  0  0  0  0
  190.5270  175.1890  135.7040 C   0  0  0  0  0  0  0  0  0  0  0  0
  192.9530  175.0350  135.4020 C   0  0  2  0  0  3  0  0  0  0  0  0
  191.6560  173.1160  136.1750 N   0  0  0  0  0  0  0  0  0  0  0  0
  192.8340  173.6500  135.9970 C   0  0  0  0  0  0  0  0  0  0  0  0
  194.0610  172.9000  136.2930 C   0  0  0  0  0  3  0  0  0  0  0  0
  195.2800  175.0280  136.2440 C   0  0  0  0  0  3  0  0  0  0  0  0
  194.2040  175.7300  135.8740 C   0  0  0  0  0  3  0  0  0  0  0  0
  191.7860  175.7960  135.7160 O   0  0  0  0  0  0  0  0  0  0  0  0
  190.4530  173.8640  135.9240 C   0  0  0  0  0  3  0  0  0  0  0  0
  195.2360  173.5470  136.3460 C   0  0  0  0  0  0  0  0  0  0  0  0
  197.5170  173.0190  135.9100 O   0  0  0  0  0  0  0  0  0  0  0  0
  196.5290  171.8320  137.6560 N   0  0  0  0  0  1  0  0  0  0  0  0
  196.4880  172.8060  136.6060 C   0  0  0  0  0  0  0  0  0  0  0  0
  189.7670  177.7590  137.3610 C   0  0  2  0  0  3  0  0  0  0  0  0
  190.4730  175.9810  140.3800 O   0  0  0  0  0  0  0  0  0  0  0  0
  190.7760  177.1520  138.3580 C   0  0  0  0  0  2  0  0  0  0  0  0
  190.1900  176.9780  139.7270 C   0  0  0  0  0  0  0  0  0  0  0  0
  189.3480  178.0870  140.3070 C   0  0  1  0  0  3  0  0  0  0  0  0
  189.0010  178.9330  137.9710 C   0  0  0  0  0  2  0  0  0  0  0  0
  188.3160  178.5370  139.2810 C   0  0  0  0  0  2  0  0  0  0  0  0
  190.3730  178.4230  142.9290 O   0  0  0  0  0  0  0  0  0  0  0  0
  189.2830  177.7940  142.8110 C   0  0  0  0  0  0  0  0  0  0  0  0
  188.6770  177.6550  141.5250 N   0  0  0  0  0  2  0  0  0  0  0  0
  188.5970  177.2130  144.0170 C   0  0  0  0  0  2  0  0  0  0  0  0
  187.2150  176.6360  143.6800 C   0  0  0  0  0  2  0  0  0  0  0  0
  185.6490  178.5190  143.5220 N   0  0  0  0  0  1  0  0  0  0  0  0
  186.1140  177.4360  144.3700 C   0  0  2  0  0  3  0  0  0  0  0  0
  186.5610  177.9440  145.7410 C   0  0  0  0  0  2  0  0  0  0  0  0
  185.6620  179.0220  146.3310 C   0  0  0  0  0  2  0  0  0  0  0  0
  184.5360  178.4460  146.9170 O   0  0  0  0  0  1  0  0  0  0  0  0
  184.6030  177.3040  135.7880 C   0  0  0  0  0  3  0  0  0  0  0  0
  185.5910  177.0040  136.8610 C   0  0  0  0  0  2  0  0  0  0  0  0
  184.9060  174.6550  137.2810 C   0  0  0  0  0  3  0  0  0  0  0  0
  182.8230  175.8720  136.7650 C   0  0  0  0  0  3  0  0  0  0  0  0
  183.5130  174.9660  137.4080 N   0  0  0  0  0  0  0  0  0  0  0  0
  183.3620  176.8250  135.7770 C   0  0  0  0  0  3  0  0  0  0  0  0
  185.8730  175.5310  136.9820 C   0  0  0  0  0  0  0  0  0  0  0  0
  2 19  1  0  0  0  0
  2  1  1  1  0  0  0
  3 42  1  6  0  0  0
  3  1  1  0  0  0  0
  4  5  1  0  0  0  0
  4  3  1  0  0  0  0
  5  6  1  1  0  0  0
  5  2  1  0  0  0  0
  6 13  1  0  0  0  0
  6 14  2  0  0  0  0
  7 13  1  0  0  0  0
  7 12  1  1  0  0  0
  7  9  1  0  0  0  0
  9  8  2  0  0  0  0
  9 10  1  0  0  0  0
 10 15  2  0  0  0  0
 11 15  1  0  0  0  0
 12 11  2  0  0  0  0
 14  8  1  0  0  0  0
 15 18  1  0  0  0  0
 16 18  2  0  0  0  0
 18 17  1  0  0  0  0
 19 24  1  1  0  0  0
 19 21  1  0  0  0  0
 21 22  1  0  0  0  0
 22 23  1  0  0  0  0
 22 20  2  0  0  0  0
 23 28  1  1  0  0  0
 24 25  1  0  0  0  0
 25 23  1  0  0  0  0
 27 26  2  0  0  0  0
 27 29  1  0  0  0  0
 28 27  1  0  0  0  0
 30 29  1  0  0  0  0
 30 32  1  0  0  0  0
 32 31  1  6  0  0  0
 32 33  1  0  0  0  0
 33 34  1  0  0  0  0
 34 35  1  0  0  0  0
 36 37  1  0  0  0  0
 37 42  1  0  0  0  0
 38 40  1  0  0  0  0
 39 40  2  0  0  0  0
 41 36  2  0  0  0  0
 41 39  1  0  0  0  0
 42 38  2  0  0  0  0
M  END
>  <MODEL>
6

>  <REMARK>
 VINA RESULT:      -6.7      1.797      2.114
  Name = 
  10 active torsions:
  status: ('A' for Active; 'I' for Inactive)
    1  A    between atoms: C_1  and  C_24
    2  A    between atoms: C_6  and  C_11
    3  A    between atoms: C_9  and  C_21
    4  A    between atoms: C_13  and  C_28
    5  A    between atoms: C_18  and  C_38
    6  A    between atoms: C_20  and  N_34
    7  A    between atoms: C_21  and  C_35
    8  A    between atoms: C_27  and  C_42
    9  A    between atoms: C_28  and  C_33
   10  A    between atoms: C_33  and  C_35
                            x       y       z     vdW  Elec       q    Type
                         _______ _______ _______ _____ _____    ______ ____

>  <TORSDO>
F 10

$$$$
=
 OpenBabel10232410573D

 42 46  0  0  1  0  0  0  0  0999 V2000
  188.1640  174.7950  136.6860 N   0  0  0  0  0  2  0  0  0  0  0  0
  188.2340  175.6140  135.4900 C   0  0  2  0  0  3  0  0  0  0  0  0
  187.9040  173.4390  136.1920 C   0  0  2  0  0  3  0  0  0  0  0  0
  188.6700  173.2040  134.5260 S   0  0  0  0  0  0  0  0  0  0  0  0
  189.1730  174.9470  134.4910 C   0  0  2  0  0  3  0  0  0  0  0  0
  190.6420  175.0480  134.8390 C   0  0  0  0  0  0  0  0  0  0  0  0
  192.4690  174.3250  136.3020 C   0  0  2  0  0  3  0  0  0  0  0  0
  192.7730  176.1610  134.7210 N   0  0  0  0  0  0  0  0  0  0  0  0
  193.3270  175.3110  135.5440 C   0  0  0  0  0  0  0  0  0  0  0  0
  194.7710  175.3420  135.8080 C   0  0  0  0  0  3  0  0  0  0  0  0
  194.5650  173.0920  136.7620 C   0  0  0  0  0  3  0  0  0  0  0  0
  193.2340  173.0680  136.6290 C   0  0  0  0  0  3  0  0  0  0  0  0
  191.2900  174.0330  135.5490 O   0  0  0  0  0  0  0  0  0  0  0  0
  191.3650  176.1060  134.4300 C   0  0  0  0  0  3  0  0  0  0  0  0
  195.3490  174.3130  136.4470 C   0  0  0  0  0  0  0  0  0  0  0  0
  197.6180  173.7300  136.0250 O   0  0  0  0  0  0  0  0  0  0  0  0
  197.2600  175.0610  137.9040 N   0  0  0  0  0  1  0  0  0  0  0  0
  196.7940  174.3390  136.7570 C   0  0  0  0  0  0  0  0  0  0  0  0
  188.4490  177.1210  135.7470 C   0  0  2  0  0  3  0  0  0  0  0  0
  188.5300  177.0410  139.3200 O   0  0  0  0  0  0  0  0  0  0  0  0
  189.1380  177.4680  137.0830 C   0  0  0  0  0  2  0  0  0  0  0  0
  188.1770  177.4840  138.2330 C   0  0  0  0  0  0  0  0  0  0  0  0
  186.8310  178.1410  138.0510 C   0  0  1  0  0  3  0  0  0  0  0  0
  187.1320  177.8790  135.5740 C   0  0  0  0  0  2  0  0  0  0  0  0
  186.1920  177.6480  136.7590 C   0  0  0  0  0  2  0  0  0  0  0  0
  184.8580  179.9140  139.0510 O   0  0  0  0  0  0  0  0  0  0  0  0
  185.0240  178.8260  139.6720 C   0  0  0  0  0  0  0  0  0  0  0  0
  185.9510  177.8580  139.1760 N   0  0  0  0  0  2  0  0  0  0  0  0
  184.2350  178.5210  140.9150 C   0  0  0  0  0  2  0  0  0  0  0  0
  184.8820  179.1110  142.1750 C   0  0  0  0  0  2  0  0  0  0  0  0
  184.0680  178.4230  144.3850 N   0  0  0  0  0  1  0  0  0  0  0  0
  184.9480  178.0680  143.2870 C   0  0  2  0  0  3  0  0  0  0  0  0
  186.3820  177.8400  143.7620 C   0  0  0  0  0  2  0  0  0  0  0  0
  187.3910  177.6500  142.6370 C   0  0  0  0  0  2  0  0  0  0  0  0
  188.1400  176.4930  142.8490 O   0  0  0  0  0  1  0  0  0  0  0  0
  184.5970  173.9580  137.7180 C   0  0  0  0  0  3  0  0  0  0  0  0
  185.7410  173.0130  137.5940 C   0  0  0  0  0  2  0  0  0  0  0  0
  185.7910  172.8930  135.1150 C   0  0  0  0  0  3  0  0  0  0  0  0
  183.4070  173.0770  135.7220 C   0  0  0  0  0  3  0  0  0  0  0  0
  184.3890  172.6230  134.9880 N   0  0  0  0  0  0  0  0  0  0  0  0
  183.5460  173.9510  136.9020 C   0  0  0  0  0  3  0  0  0  0  0  0
  186.4350  173.1280  136.2640 C   0  0  0  0  0  0  0  0  0  0  0  0
  2 19  1  0  0  0  0
  2  1  1  1  0  0  0
  3 42  1  6  0  0  0
  3  1  1  0  0  0  0
  4  3  1  0  0  0  0
  5  4  1  0  0  0  0
  5  6  1  1  0  0  0
  5  2  1  0  0  0  0
  6 13  1  0  0  0  0
  7 12  1  6  0  0  0
  8  9  2  0  0  0  0
  9 10  1  0  0  0  0
  9  7  1  0  0  0  0
 10 15  2  0  0  0  0
 12 11  2  0  0  0  0
 13  7  1  0  0  0  0
 14  8  1  0  0  0  0
 14  6  2  0  0  0  0
 15 18  1  0  0  0  0
 15 11  1  0  0  0  0
 16 18  2  0  0  0  0
 18 17  1  0  0  0  0
 19 24  1  1  0  0  0
 19 21  1  0  0  0  0
 21 22  1  0  0  0  0
 22 20  2  0  0  0  0
 23 22  1  0  0  0  0
 23 28  1  1  0  0  0
 24 25  1  0  0  0  0
 25 23  1  0  0  0  0
 26 27  2  0  0  0  0
 27 29  1  0  0  0  0
 28 27  1  0  0  0  0
 29 30  1  0  0  0  0
 30 32  1  0  0  0  0
 32 33  1  0  0  0  0
 32 31  1  1  0  0  0
 34 35  1  0  0  0  0
 34 33  1  0  0  0  0
 37 36  1  0  0  0  0
 38 42  2  0  0  0  0
 39 41  1  0  0  0  0
 40 38  1  0  0  0  0
 40 39  2  0  0  0  0
 41 36  2  0  0  0  0
 42 37  1  0  0  0  0
M  END
>  <MODEL>
7

>  <REMARK>
 VINA RESULT:      -6.6      2.177      2.839
  Name = 
  10 active torsions:
  status: ('A' for Active; 'I' for Inactive)
    1  A    between atoms: C_1  and  C_24
    2  A    between atoms: C_6  and  C_11
    3  A    between atoms: C_9  and  C_21
    4  A    between atoms: C_13  and  C_28
    5  A    between atoms: C_18  and  C_38
    6  A    between atoms: C_20  and  N_34
    7  A    between atoms: C_21  and  C_35
    8  A    between atoms: C_27  and  C_42
    9  A    between atoms: C_28  and  C_33
   10  A    between atoms: C_33  and  C_35
                            x       y       z     vdW  Elec       q    Type
                         _______ _______ _______ _____ _____    ______ ____

>  <TORSDO>
F 10

$$$$
=
 OpenBabel10232410573D

 42 46  0  0  1  0  0  0  0  0999 V2000
  189.7810  176.8930  136.4660 N   0  0  0  0  0  2  0  0  0  0  0  0
  189.7100  175.5080  136.8950 C   0  0  2  0  0  3  0  0  0  0  0  0
  189.6770  177.6700  137.7050 C   0  0  2  0  0  3  0  0  0  0  0  0
  190.4140  176.7320  139.1160 S   0  0  0  0  0  0  0  0  0  0  0  0
  190.6930  175.2970  138.0410 C   0  0  2  0  0  3  0  0  0  0  0  0
  192.1480  175.2610  137.6270 C   0  0  0  0  0  0  0  0  0  0  0  0
  194.2320  173.9780  137.5260 C   0  0  2  0  0  3  0  0  0  0  0  0
  194.1900  176.3560  136.9740 N   0  0  0  0  0  0  0  0  0  0  0  0
  194.8550  175.2320  136.9570 C   0  0  0  0  0  0  0  0  0  0  0  0
  196.2360  175.1740  136.4620 C   0  0  0  0  0  3  0  0  0  0  0  0
  195.9980  172.7380  136.3130 C   0  0  0  0  0  3  0  0  0  0  0  0
  194.7750  172.7420  136.8550 C   0  0  0  0  0  3  0  0  0  0  0  0
  192.8100  174.0490  137.4090 O   0  0  0  0  0  0  0  0  0  0  0  0
  192.8230  176.4060  137.4200 C   0  0  0  0  0  3  0  0  0  0  0  0
  196.8030  173.9820  136.2180 C   0  0  0  0  0  0  0  0  0  0  0  0
  198.6490  172.8360  135.2460 O   0  0  0  0  0  0  0  0  0  0  0  0
  199.0640  175.0370  135.8930 N   0  0  0  0  0  1  0  0  0  0  0  0
  198.2040  173.8990  135.7550 C   0  0  0  0  0  0  0  0  0  0  0  0
  189.7430  174.4710  135.7510 C   0  0  2  0  0  3  0  0  0  0  0  0
  186.3810  174.8530  134.5960 O   0  0  0  0  0  0  0  0  0  0  0  0
  188.7350  174.7200  134.6100 C   0  0  0  0  0  2  0  0  0  0  0  0
  187.3650  174.2070  134.9370 C   0  0  0  0  0  0  0  0  0  0  0  0
  187.2290  172.8530  135.5890 C   0  0  1  0  0  3  0  0  0  0  0  0
  189.6210  173.0570  136.3190 C   0  0  0  0  0  2  0  0  0  0  0  0
  188.1890  172.7540  136.7670 C   0  0  0  0  0  2  0  0  0  0  0  0
  185.6710  170.5710  134.9510 O   0  0  0  0  0  0  0  0  0  0  0  0
  185.1120  171.4820  135.6280 C   0  0  0  0  0  0  0  0  0  0  0  0
  185.8650  172.6230  136.0430 N   0  0  0  0  0  2  0  0  0  0  0  0
  183.6670  171.3660  136.0270 C   0  0  0  0  0  2  0  0  0  0  0  0
  183.3470  172.1660  137.2960 C   0  0  0  0  0  2  0  0  0  0  0  0
  182.0540  173.3390  135.5720 N   0  0  0  0  0  1  0  0  0  0  0  0
  182.4090  173.3270  136.9800 C   0  0  2  0  0  3  0  0  0  0  0  0
  182.9990  174.6650  137.4250 C   0  0  0  0  0  2  0  0  0  0  0  0
  182.0500  175.5210  138.2530 C   0  0  0  0  0  2  0  0  0  0  0  0
  182.6060  175.7890  139.5030 O   0  0  0  0  0  1  0  0  0  0  0  0
  186.1300  177.6580  136.7290 C   0  0  0  0  0  3  0  0  0  0  0  0
  187.3810  178.4660  136.7470 C   0  0  0  0  0  2  0  0  0  0  0  0
  187.8420  178.2890  139.1790 C   0  0  0  0  0  3  0  0  0  0  0  0
  185.3870  178.4110  138.9770 C   0  0  0  0  0  3  0  0  0  0  0  0
  186.5200  178.6780  139.5720 N   0  0  0  0  0  0  0  0  0  0  0  0
  185.2330  177.6720  137.7100 C   0  0  0  0  0  3  0  0  0  0  0  0
  188.2620  178.1290  137.9190 C   0  0  0  0  0  0  0  0  0  0  0  0
  1  3  1  0  0  0  0
  2  1  1  6  0  0  0
  2  5  1  0  0  0  0
  3 42  1  1  0  0  0
  3  4  1  0  0  0  0
  5  6  1  6  0  0  0
  5  4  1  0  0  0  0
  7 12  1  6  0  0  0
  8 14  1  0  0  0  0
  9  8  2  0  0  0  0
  9  7  1  0  0  0  0
 10  9  1  0  0  0  0
 11 12  2  0  0  0  0
 13  7  1  0  0  0  0
 13  6  1  0  0  0  0
 14  6  2  0  0  0  0
 15 11  1  0  0  0  0
 15 10  2  0  0  0  0
 16 18  2  0  0  0  0
 18 17  1  0  0  0  0
 18 15  1  0  0  0  0
 19 21  1  6  0  0  0
 19 24  1  0  0  0  0
 19  2  1  0  0  0  0
 20 22  2  0  0  0  0
 21 22  1  0  0  0  0
 22 23  1  0  0  0  0
 23 28  1  1  0  0  0
 23 25  1  0  0  0  0
 24 25  1  0  0  0  0
 26 27  2  0  0  0  0
 27 29  1  0  0  0  0
 27 28  1  0  0  0  0
 29 30  1  0  0  0  0
 32 31  1  6  0  0  0
 32 30  1  0  0  0  0
 32 33  1  0  0  0  0
 33 34  1  0  0  0  0
 34 35  1  0  0  0  0
 36 37  1  0  0  0  0
 36 41  2  0  0  0  0
 37 42  1  0  0  0  0
 38 40  1  0  0  0  0
 39 40  2  0  0  0  0
 41 39  1  0  0  0  0
 42 38  2  0  0  0  0
M  END
>  <MODEL>
8

>  <REMARK>
 VINA RESULT:      -6.5      3.912      6.333
  Name = 
  10 active torsions:
  status: ('A' for Active; 'I' for Inactive)
    1  A    between atoms: C_1  and  C_24
    2  A    between atoms: C_6  and  C_11
    3  A    between atoms: C_9  and  C_21
    4  A    between atoms: C_13  and  C_28
    5  A    between atoms: C_18  and  C_38
    6  A    between atoms: C_20  and  N_34
    7  A    between atoms: C_21  and  C_35
    8  A    between atoms: C_27  and  C_42
    9  A    between atoms: C_28  and  C_33
   10  A    between atoms: C_33  and  C_35
                            x       y       z     vdW  Elec       q    Type
                         _______ _______ _______ _____ _____    ______ ____

>  <TORSDO>
F 10

$$$$
=
 OpenBabel10232410573D

 42 46  0  0  1  0  0  0  0  0999 V2000
  186.9890  174.8620  137.1400 N   0  0  0  0  0  2  0  0  0  0  0  0
  187.3950  175.4600  135.8810 C   0  0  2  0  0  3  0  0  0  0  0  0
  186.5300  173.5170  136.7800 C   0  0  2  0  0  3  0  0  0  0  0  0
  187.4630  172.8900  135.3130 S   0  0  0  0  0  0  0  0  0  0  0  0
  188.3120  174.4860  135.1480 C   0  0  2  0  0  3  0  0  0  0  0  0
  189.7050  174.3700  135.7270 C   0  0  0  0  0  0  0  0  0  0  0  0
  192.1130  174.2500  135.2970 C   0  0  2  0  0  3  0  0  0  0  0  0
  191.2100  173.8340  137.5280 N   0  0  0  0  0  0  0  0  0  0  0  0
  192.2640  174.0550  136.7880 C   0  0  0  0  0  0  0  0  0  0  0  0
  193.6140  174.0430  137.3680 C   0  0  0  0  0  3  0  0  0  0  0  0
  194.4070  175.1790  135.3440 C   0  0  0  0  0  3  0  0  0  0  0  0
  193.2140  175.1180  134.7420 C   0  0  0  0  0  3  0  0  0  0  0  0
  190.8260  174.7990  135.0110 O   0  0  0  0  0  0  0  0  0  0  0  0
  189.8850  173.8870  136.9700 C   0  0  0  0  0  3  0  0  0  0  0  0
  194.6450  174.5180  136.6520 C   0  0  0  0  0  0  0  0  0  0  0  0
  196.8340  175.4070  136.9490 O   0  0  0  0  0  0  0  0  0  0  0  0
  196.4230  173.3780  138.0200 N   0  0  0  0  0  1  0  0  0  0  0  0
  196.0170  174.4810  137.2000 C   0  0  0  0  0  0  0  0  0  0  0  0
  187.8760  176.9230  135.9820 C   0  0  2  0  0  3  0  0  0  0  0  0
  188.5720  177.0100  139.4870 O   0  0  0  0  0  0  0  0  0  0  0  0
  188.8340  177.2210  137.1540 C   0  0  0  0  0  2  0  0  0  0  0  0
  188.1030  177.4490  138.4430 C   0  0  0  0  0  0  0  0  0  0  0  0
  186.8600  178.3030  138.4370 C   0  0  1  0  0  3  0  0  0  0  0  0
  186.6770  177.8720  135.9730 C   0  0  0  0  0  2  0  0  0  0  0  0
  185.9370  177.8550  137.3120 C   0  0  0  0  0  2  0  0  0  0  0  0
  184.7160  179.9860  139.2200 O   0  0  0  0  0  0  0  0  0  0  0  0
  185.1330  179.1470  140.0700 C   0  0  0  0  0  0  0  0  0  0  0  0
  186.1600  178.2220  139.7110 N   0  0  0  0  0  2  0  0  0  0  0  0
  184.5370  179.0910  141.4490 C   0  0  0  0  0  2  0  0  0  0  0  0
  185.6060  178.9420  142.5400 C   0  0  0  0  0  2  0  0  0  0  0  0
  184.0110  179.2190  144.3840 N   0  0  0  0  0  1  0  0  0  0  0  0
  185.0050  178.3340  143.8050 C   0  0  2  0  0  3  0  0  0  0  0  0
  186.0860  177.9590  144.8180 C   0  0  0  0  0  2  0  0  0  0  0  0
  185.9680  178.6810  146.1530 C   0  0  0  0  0  2  0  0  0  0  0  0
  186.8560  178.1340  147.0790 O   0  0  0  0  0  1  0  0  0  0  0  0
  183.4100  171.6870  136.1090 C   0  0  0  0  0  3  0  0  0  0  0  0
  184.3800  172.6740  135.5590 C   0  0  0  0  0  2  0  0  0  0  0  0
  184.3180  174.2750  137.4560 C   0  0  0  0  0  3  0  0  0  0  0  0
  182.0200  173.4030  137.2490 C   0  0  0  0  0  3  0  0  0  0  0  0
  182.8880  174.3500  137.4920 N   0  0  0  0  0  0  0  0  0  0  0  0
  182.3430  172.0270  136.8280 C   0  0  0  0  0  3  0  0  0  0  0  0
  185.0340  173.4930  136.6380 C   0  0  0  0  0  0  0  0  0  0  0  0
  2 19  1  0  0  0  0
  2  1  1  1  0  0  0
  3 42  1  6  0  0  0
  3  1  1  0  0  0  0
  4  3  1  0  0  0  0
  5  4  1  0  0  0  0
  5  6  1  1  0  0  0
  5  2  1  0  0  0  0
  6 14  2  0  0  0  0
  7 12  1  1  0  0  0
  7  9  1  0  0  0  0
  9 10  1  0  0  0  0
  9  8  2  0  0  0  0
 11 15  1  0  0  0  0
 12 11  2  0  0  0  0
 13  7  1  0  0  0  0
 13  6  1  0  0  0  0
 14  8  1  0  0  0  0
 15 18  1  0  0  0  0
 15 10  2  0  0  0  0
 16 18  2  0  0  0  0
 18 17  1  0  0  0  0
 19 24  1  1  0  0  0
 19 21  1  0  0  0  0
 21 22  1  0  0  0  0
 22 20  2  0  0  0  0
 23 22  1  0  0  0  0
 23 28  1  1  0  0  0
 24 25  1  0  0  0  0
 25 23  1  0  0  0  0
 26 27  2  0  0  0  0
 27 29  1  0  0  0  0
 28 27  1  0  0  0  0
 29 30  1  0  0  0  0
 30 32  1  0  0  0  0
 32 31  1  1  0  0  0
 32 33  1  0  0  0  0
 33 34  1  0  0  0  0
 34 35  1  0  0  0  0
 36 41  2  0  0  0  0
 37 36  1  0  0  0  0
 37 42  1  0  0  0  0
 38 40  1  0  0  0  0
 39 40  2  0  0  0  0
 41 39  1  0  0  0  0
 42 38  2  0  0  0  0
M  END
>  <MODEL>
9

>  <REMARK>
 VINA RESULT:      -6.4      2.273      3.093
  Name = 
  10 active torsions:
  status: ('A' for Active; 'I' for Inactive)
    1  A    between atoms: C_1  and  C_24
    2  A    between atoms: C_6  and  C_11
    3  A    between atoms: C_9  and  C_21
    4  A    between atoms: C_13  and  C_28
    5  A    between atoms: C_18  and  C_38
    6  A    between atoms: C_20  and  N_34
    7  A    between atoms: C_21  and  C_35
    8  A    between atoms: C_27  and  C_42
    9  A    between atoms: C_28  and  C_33
   10  A    between atoms: C_33  and  C_35
                            x       y       z     vdW  Elec       q    Type
                         _______ _______ _______ _____ _____    ______ ____

>  <TORSDO>
F 10

$$$$
