=
 OpenBabel10232407463D

 25 27  0  0  1  0  0  0  0  0999 V2000
  189.2800  179.7150  143.0200 O   0  0  0  0  0  1  0  0  0  0  0  0
  189.6080  178.3590  143.1120 C   0  0  1  0  0  0  0  0  0  0  0  0
  190.8720  178.2490  143.9040 C   0  0  0  0  0  0  0  0  0  0  0  0
  190.6390  177.6140  145.1790 C   0  0  0  0  0  0  0  0  0  0  0  0
  188.5780  177.6530  144.0430 C   0  0  2  0  0  3  0  0  0  0  0  0
  191.9880  178.7060  143.5380 O   0  0  0  0  0  0  0  0  0  0  0  0
  189.3490  177.2980  145.2840 C   0  0  0  0  0  0  0  0  0  0  0  0
  187.9330  176.3970  143.4610 C   0  0  0  0  0  1  0  0  0  0  0  0
  188.0440  177.2030  138.3050 C   0  0  0  0  0  0  0  0  0  0  0  0
  187.4220  178.6710  141.0320 C   0  0  0  0  0  1  0  0  0  0  0  0
  188.6770  177.9100  140.7470 C   0  0  0  0  0  0  0  0  0  0  0  0
  188.8440  177.2920  139.5060 C   0  0  0  0  0  0  0  0  0  0  0  0
  188.7410  176.3950  137.3580 N   0  0  0  0  0  0  0  0  0  0  0  0
  189.8420  176.0100  137.8770 N   0  0  0  0  0  0  0  0  0  0  0  0
  190.9660  176.3380  140.1140 C   0  0  0  0  0  3  0  0  0  0  0  0
  190.8410  176.9480  141.3730 C   0  0  0  0  0  3  0  0  0  0  0  0
  189.7170  177.7530  141.7090 C   0  0  0  0  0  0  0  0  0  0  0  0
  189.9420  176.5390  139.1980 C   0  0  0  0  0  0  0  0  0  0  0  0
  186.9210  177.7360  138.1000 O   0  0  0  0  0  0  0  0  0  0  0  0
  191.6610  177.4090  146.1190 O   0  0  0  0  0  0  0  0  0  0  0  0
  192.0420  176.1820  146.5930 C   0  0  0  0  0  0  0  0  0  0  0  0
  192.3660  175.1450  146.9920 N   0  0  0  0  0  0  0  0  0  0  0  0
  188.6840  176.7090  146.4870 C   0  0  0  0  0  2  0  0  0  0  0  0
  187.9380  177.7850  147.2520 C   0  0  0  0  0  2  0  0  0  0  0  0
  188.6660  178.0830  148.5450 C   0  0  0  0  0  1  0  0  0  0  0  0
  2  1  1  6  0  0  0
  2  3  1  0  0  0  0
  2  5  1  0  0  0  0
  3  4  1  0  0  0  0
  4  7  2  0  0  0  0
  4 20  1  0  0  0  0
  5  8  1  6  0  0  0
  5  7  1  0  0  0  0
  6  3  2  0  0  0  0
  7 23  1  0  0  0  0
  9 12  1  0  0  0  0
 11 10  1  0  0  0  0
 11 17  1  0  0  0  0
 12 11  2  0  0  0  0
 13 14  2  0  0  0  0
 13  9  1  0  0  0  0
 14 18  1  0  0  0  0
 15 16  1  0  0  0  0
 16 17  2  0  0  0  0
 17  2  1  0  0  0  0
 18 12  1  0  0  0  0
 18 15  2  0  0  0  0
 19  9  2  0  0  0  0
 20 21  1  0  0  0  0
 21 22  3  0  0  0  0
 23 24  1  0  0  0  0
 24 25  1  0  0  0  0
M  END
>  <MODEL>
1

>  <REMARK>
 VINA RESULT:      -6.5      0.000      0.000
  Name = 
  5 active torsions:
  status: ('A' for Active; 'I' for Inactive)
    1  A    between atoms: O_1  and  C_4
    2  A    between atoms: O_1  and  C_12
    3  A    between atoms: C_6  and  C_9
    4  A    between atoms: C_9  and  C_20
    5  A    between atoms: C_10  and  C_22
                            x       y       z     vdW  Elec       q    Type
                         _______ _______ _______ _____ _____    ______ ____

>  <TORSDO>
F 5

$$$$
=
 OpenBabel10232407463D

 25 27  0  0  1  0  0  0  0  0999 V2000
  189.4200  175.2330  142.9640 O   0  0  0  0  0  1  0  0  0  0  0  0
  189.0750  176.5770  143.1300 C   0  0  1  0  0  0  0  0  0  0  0  0
  187.9030  176.6350  144.0580 C   0  0  0  0  0  0  0  0  0  0  0  0
  188.2590  177.2410  145.3170 C   0  0  0  0  0  0  0  0  0  0  0  0
  190.1840  177.2840  143.9640 C   0  0  2  0  0  3  0  0  0  0  0  0
  186.7630  176.1600  143.8020 O   0  0  0  0  0  0  0  0  0  0  0  0
  189.5460  177.5860  145.2910 C   0  0  0  0  0  0  0  0  0  0  0  0
  190.7340  178.5700  143.3530 C   0  0  0  0  0  1  0  0  0  0  0  0
  190.0050  177.7650  138.1690 C   0  0  0  0  0  0  0  0  0  0  0  0
  190.9320  176.2130  140.7600 C   0  0  0  0  0  1  0  0  0  0  0  0
  189.6870  177.0350  140.6650 C   0  0  0  0  0  0  0  0  0  0  0  0
  189.3780  177.6860  139.4700 C   0  0  0  0  0  0  0  0  0  0  0  0
  189.2230  178.6230  137.3420 N   0  0  0  0  0  0  0  0  0  0  0  0
  188.2240  179.0460  138.0160 N   0  0  0  0  0  0  0  0  0  0  0  0
  187.4090  178.7220  140.3830 C   0  0  0  0  0  3  0  0  0  0  0  0
  187.6790  178.0790  141.6030 C   0  0  0  0  0  3  0  0  0  0  0  0
  188.8000  177.2180  141.7660 C   0  0  0  0  0  0  0  0  0  0  0  0
  188.2840  178.4940  139.3300 C   0  0  0  0  0  0  0  0  0  0  0  0
  191.0620  177.1870  137.8010 O   0  0  0  0  0  0  0  0  0  0  0  0
  187.3410  177.3950  146.3680 O   0  0  0  0  0  0  0  0  0  0  0  0
  186.3780  178.3680  146.4180 C   0  0  0  0  0  0  0  0  0  0  0  0
  185.5670  179.1930  146.4630 N   0  0  0  0  0  0  0  0  0  0  0  0
  190.3250  178.1590  146.4320 C   0  0  0  0  0  2  0  0  0  0  0  0
  190.6070  177.0850  147.4650 C   0  0  0  0  0  2  0  0  0  0  0  0
  191.8350  176.3010  147.0550 C   0  0  0  0  0  1  0  0  0  0  0  0
  2  1  1  6  0  0  0
  2  5  1  0  0  0  0
  2  3  1  0  0  0  0
  3  4  1  0  0  0  0
  4 20  1  0  0  0  0
  5  8  1  6  0  0  0
  5  7  1  0  0  0  0
  6  3  2  0  0  0  0
  7  4  2  0  0  0  0
  7 23  1  0  0  0  0
  9 12  1  0  0  0  0
 11 10  1  0  0  0  0
 11 17  1  0  0  0  0
 12 11  2  0  0  0  0
 13 14  2  0  0  0  0
 13  9  1  0  0  0  0
 14 18  1  0  0  0  0
 15 16  1  0  0  0  0
 16 17  2  0  0  0  0
 17  2  1  0  0  0  0
 18 12  1  0  0  0  0
 18 15  2  0  0  0  0
 19  9  2  0  0  0  0
 20 21  1  0  0  0  0
 21 22  3  0  0  0  0
 23 24  1  0  0  0  0
 25 24  1  0  0  0  0
M  END
>  <MODEL>
2

>  <REMARK>
 VINA RESULT:      -6.5      2.656      3.652
  Name = 
  5 active torsions:
  status: ('A' for Active; 'I' for Inactive)
    1  A    between atoms: O_1  and  C_4
    2  A    between atoms: O_1  and  C_12
    3  A    between atoms: C_6  and  C_9
    4  A    between atoms: C_9  and  C_20
    5  A    between atoms: C_10  and  C_22
                            x       y       z     vdW  Elec       q    Type
                         _______ _______ _______ _____ _____    ______ ____

>  <TORSDO>
F 5

$$$$
=
 OpenBabel10232407463D

 25 27  0  0  1  0  0  0  0  0999 V2000
  187.8660  175.4100  142.9470 O   0  0  0  0  0  1  0  0  0  0  0  0
  188.7050  176.5270  143.0000 C   0  0  1  0  0  0  0  0  0  0  0  0
  189.9810  176.1710  142.3070 C   0  0  0  0  0  0  0  0  0  0  0  0
  190.1400  176.9170  141.0820 C   0  0  0  0  0  0  0  0  0  0  0  0
  188.1280  177.6350  142.0700 C   0  0  2  0  0  3  0  0  0  0  0  0
  190.7890  175.2880  142.7040 O   0  0  0  0  0  0  0  0  0  0  0  0
  189.0920  177.7250  140.9210 C   0  0  0  0  0  0  0  0  0  0  0  0
  187.9730  179.0090  142.7190 C   0  0  0  0  0  1  0  0  0  0  0  0
  187.2740  178.1670  147.7070 C   0  0  0  0  0  0  0  0  0  0  0  0
  186.3880  177.2780  144.8080 C   0  0  0  0  0  1  0  0  0  0  0  0
  187.8030  177.3100  145.2880 C   0  0  0  0  0  0  0  0  0  0  0  0
  188.0820  177.7290  146.5900 C   0  0  0  0  0  0  0  0  0  0  0  0
  188.1420  178.4970  148.7890 N   0  0  0  0  0  0  0  0  0  0  0  0
  189.3490  178.3020  148.4230 N   0  0  0  0  0  0  0  0  0  0  0  0
  190.4590  177.5260  146.2920 C   0  0  0  0  0  3  0  0  0  0  0  0
  190.2230  177.0930  144.9770 C   0  0  0  0  0  3  0  0  0  0  0  0
  188.9060  176.9600  144.4560 C   0  0  0  0  0  0  0  0  0  0  0  0
  189.3550  177.8310  147.0760 C   0  0  0  0  0  0  0  0  0  0  0  0
  186.0180  178.2540  147.7460 O   0  0  0  0  0  0  0  0  0  0  0  0
  191.2460  176.7510  140.2340 O   0  0  0  0  0  0  0  0  0  0  0  0
  191.2370  176.0010  139.0880 C   0  0  0  0  0  0  0  0  0  0  0  0
  191.2300  175.3640  138.1210 N   0  0  0  0  0  0  0  0  0  0  0  0
  188.8310  178.5960  139.7340 C   0  0  0  0  0  2  0  0  0  0  0  0
  188.0640  177.8250  138.6770 C   0  0  0  0  0  2  0  0  0  0  0  0
  188.6560  178.1120  137.3140 C   0  0  0  0  0  1  0  0  0  0  0  0
  2  1  1  6  0  0  0
  2 17  1  0  0  0  0
  3  6  2  0  0  0  0
  3  2  1  0  0  0  0
  4  3  1  0  0  0  0
  5  8  1  1  0  0  0
  5  2  1  0  0  0  0
  7  4  2  0  0  0  0
  7  5  1  0  0  0  0
  9 19  2  0  0  0  0
  9 13  1  0  0  0  0
 10 11  1  0  0  0  0
 11 12  1  0  0  0  0
 12 18  2  0  0  0  0
 12  9  1  0  0  0  0
 14 13  2  0  0  0  0
 15 18  1  0  0  0  0
 16 15  2  0  0  0  0
 17 16  1  0  0  0  0
 17 11  2  0  0  0  0
 18 14  1  0  0  0  0
 20  4  1  0  0  0  0
 21 20  1  0  0  0  0
 22 21  3  0  0  0  0
 23  7  1  0  0  0  0
 24 23  1  0  0  0  0
 25 24  1  0  0  0  0
M  END
>  <MODEL>
3

>  <REMARK>
 VINA RESULT:      -6.5      2.595      6.835
  Name = 
  5 active torsions:
  status: ('A' for Active; 'I' for Inactive)
    1  A    between atoms: O_1  and  C_4
    2  A    between atoms: O_1  and  C_12
    3  A    between atoms: C_6  and  C_9
    4  A    between atoms: C_9  and  C_20
    5  A    between atoms: C_10  and  C_22
                            x       y       z     vdW  Elec       q    Type
                         _______ _______ _______ _____ _____    ______ ____

>  <TORSDO>
F 5

$$$$
=
 OpenBabel10232407463D

 25 27  0  0  1  0  0  0  0  0999 V2000
  190.4270  179.3860  142.6120 O   0  0  0  0  0  1  0  0  0  0  0  0
  189.5980  178.2710  142.4690 C   0  0  1  0  0  0  0  0  0  0  0  0
  188.6480  178.5500  141.3480 C   0  0  0  0  0  0  0  0  0  0  0  0
  188.9060  177.6970  140.2140 C   0  0  0  0  0  0  0  0  0  0  0  0
  190.4350  177.0890  141.8960 C   0  0  2  0  0  3  0  0  0  0  0  0
  187.7720  179.4580  141.3620 O   0  0  0  0  0  0  0  0  0  0  0  0
  189.9270  176.8880  140.4960 C   0  0  0  0  0  0  0  0  0  0  0  0
  190.3270  175.7800  142.6760 C   0  0  0  0  0  1  0  0  0  0  0  0
  189.2550  177.4390  147.5760 C   0  0  0  0  0  0  0  0  0  0  0  0
  191.0900  178.1570  145.1070 C   0  0  0  0  0  1  0  0  0  0  0  0
  189.6170  177.9180  145.0250 C   0  0  0  0  0  0  0  0  0  0  0  0
  188.9030  177.5980  146.1820 C   0  0  0  0  0  0  0  0  0  0  0  0
  188.0810  177.0740  148.2980 N   0  0  0  0  0  0  0  0  0  0  0  0
  187.1010  177.0030  147.4830 N   0  0  0  0  0  0  0  0  0  0  0  0
  186.8310  177.3270  144.9930 C   0  0  0  0  0  3  0  0  0  0  0  0
  187.5090  177.6520  143.8060 C   0  0  0  0  0  3  0  0  0  0  0  0
  188.8960  177.9680  143.7960 C   0  0  0  0  0  0  0  0  0  0  0  0
  187.5660  177.3170  146.1700 C   0  0  0  0  0  0  0  0  0  0  0  0
  190.3940  177.5890  148.0930 O   0  0  0  0  0  0  0  0  0  0  0  0
  188.1650  177.7750  139.0250 O   0  0  0  0  0  0  0  0  0  0  0  0
  188.4590  178.6160  137.9840 C   0  0  0  0  0  0  0  0  0  0  0  0
  188.7080  179.3290  137.1060 N   0  0  0  0  0  0  0  0  0  0  0  0
  190.5640  175.9160  139.5550 C   0  0  0  0  0  2  0  0  0  0  0  0
  191.6160  176.6140  138.7160 C   0  0  0  0  0  2  0  0  0  0  0  0
  191.3360  176.3710  137.2490 C   0  0  0  0  0  1  0  0  0  0  0  0
  2  1  1  1  0  0  0
  2 17  1  0  0  0  0
  3  6  2  0  0  0  0
  3  2  1  0  0  0  0
  4  7  2  0  0  0  0
  4  3  1  0  0  0  0
  5  2  1  0  0  0  0
  5  8  1  1  0  0  0
  7  5  1  0  0  0  0
  9 19  2  0  0  0  0
  9 13  1  0  0  0  0
 11 10  1  0  0  0  0
 11 12  1  0  0  0  0
 12  9  1  0  0  0  0
 14 13  2  0  0  0  0
 15 18  1  0  0  0  0
 16 15  2  0  0  0  0
 17 16  1  0  0  0  0
 17 11  2  0  0  0  0
 18 12  2  0  0  0  0
 18 14  1  0  0  0  0
 20  4  1  0  0  0  0
 21 20  1  0  0  0  0
 22 21  3  0  0  0  0
 23  7  1  0  0  0  0
 24 23  1  0  0  0  0
 25 24  1  0  0  0  0
M  END
>  <MODEL>
4

>  <REMARK>
 VINA RESULT:      -6.2      2.071      7.208
  Name = 
  5 active torsions:
  status: ('A' for Active; 'I' for Inactive)
    1  A    between atoms: O_1  and  C_4
    2  A    between atoms: O_1  and  C_12
    3  A    between atoms: C_6  and  C_9
    4  A    between atoms: C_9  and  C_20
    5  A    between atoms: C_10  and  C_22
                            x       y       z     vdW  Elec       q    Type
                         _______ _______ _______ _____ _____    ______ ____

>  <TORSDO>
F 5

$$$$
=
 OpenBabel10232407463D

 25 27  0  0  1  0  0  0  0  0999 V2000
  190.7980  175.4350  143.3980 O   0  0  0  0  0  1  0  0  0  0  0  0
  190.0130  176.5840  143.2730 C   0  0  1  0  0  0  0  0  0  0  0  0
  188.6590  176.2740  143.8260 C   0  0  0  0  0  0  0  0  0  0  0  0
  188.4030  177.0150  145.0370 C   0  0  0  0  0  0  0  0  0  0  0  0
  190.5330  177.6610  144.2710 C   0  0  2  0  0  3  0  0  0  0  0  0
  187.8630  175.4270  143.3360 O   0  0  0  0  0  0  0  0  0  0  0  0
  189.4580  177.7790  145.3160 C   0  0  0  0  0  0  0  0  0  0  0  0
  190.8080  179.0330  143.6590 C   0  0  0  0  0  1  0  0  0  0  0  0
  187.8920  178.4690  138.9330 C   0  0  0  0  0  0  0  0  0  0  0  0
  187.5190  177.7270  141.9810 C   0  0  0  0  0  1  0  0  0  0  0  0
  188.7970  177.5710  141.2220 C   0  0  0  0  0  0  0  0  0  0  0  0
  188.8470  177.9240  139.8720 C   0  0  0  0  0  0  0  0  0  0  0  0
  188.5280  178.5920  137.6620 N   0  0  0  0  0  0  0  0  0  0  0  0
  189.7320  178.1800  137.7630 N   0  0  0  0  0  0  0  0  0  0  0  0
  191.1330  177.2180  139.6310 C   0  0  0  0  0  3  0  0  0  0  0  0
  191.1280  176.8560  140.9880 C   0  0  0  0  0  3  0  0  0  0  0  0
  189.9810  177.0370  141.8100 C   0  0  0  0  0  0  0  0  0  0  0  0
  189.9670  177.7590  139.1060 C   0  0  0  0  0  0  0  0  0  0  0  0
  186.6960  178.7890  139.1670 O   0  0  0  0  0  0  0  0  0  0  0  0
  187.2090  176.8870  145.7630 O   0  0  0  0  0  0  0  0  0  0  0  0
  186.2130  177.8270  145.7880 C   0  0  0  0  0  0  0  0  0  0  0  0
  185.3740  178.6240  145.8100 N   0  0  0  0  0  0  0  0  0  0  0  0
  189.6290  178.6290  146.5340 C   0  0  0  0  0  2  0  0  0  0  0  0
  189.7180  177.7590  147.7720 C   0  0  0  0  0  2  0  0  0  0  0  0
  188.5340  178.0380  148.6720 C   0  0  0  0  0  1  0  0  0  0  0  0
  2  1  1  1  0  0  0
  2  3  1  0  0  0  0
  2  5  1  0  0  0  0
  3  4  1  0  0  0  0
  4  7  2  0  0  0  0
  4 20  1  0  0  0  0
  5  8  1  6  0  0  0
  5  7  1  0  0  0  0
  6  3  2  0  0  0  0
  7 23  1  0  0  0  0
  9 19  2  0  0  0  0
  9 12  1  0  0  0  0
 11 17  1  0  0  0  0
 11 10  1  0  0  0  0
 12 11  2  0  0  0  0
 13 14  2  0  0  0  0
 13  9  1  0  0  0  0
 14 18  1  0  0  0  0
 15 16  1  0  0  0  0
 16 17  2  0  0  0  0
 17  2  1  0  0  0  0
 18 15  2  0  0  0  0
 18 12  1  0  0  0  0
 20 21  1  0  0  0  0
 21 22  3  0  0  0  0
 23 24  1  0  0  0  0
 24 25  1  0  0  0  0
M  END
>  <MODEL>
5

>  <REMARK>
 VINA RESULT:      -6.1      2.460      3.056
  Name = 
  5 active torsions:
  status: ('A' for Active; 'I' for Inactive)
    1  A    between atoms: O_1  and  C_4
    2  A    between atoms: O_1  and  C_12
    3  A    between atoms: C_6  and  C_9
    4  A    between atoms: C_9  and  C_20
    5  A    between atoms: C_10  and  C_22
                            x       y       z     vdW  Elec       q    Type
                         _______ _______ _______ _____ _____    ______ ____

>  <TORSDO>
F 5

$$$$
=
 OpenBabel10232407463D

 25 27  0  0  1  0  0  0  0  0999 V2000
  187.8570  175.6510  143.0610 O   0  0  0  0  0  1  0  0  0  0  0  0
  187.8440  177.0280  143.2940 C   0  0  1  0  0  0  0  0  0  0  0  0
  188.6180  177.6830  142.1940 C   0  0  0  0  0  0  0  0  0  0  0  0
  187.7590  178.4730  141.3450 C   0  0  0  0  0  0  0  0  0  0  0  0
  186.4050  177.5690  143.0450 C   0  0  2  0  0  3  0  0  0  0  0  0
  189.8520  177.5200  141.9910 O   0  0  0  0  0  0  0  0  0  0  0  0
  186.5070  178.3960  141.7940 C   0  0  0  0  0  0  0  0  0  0  0  0
  185.8260  178.4160  144.1760 C   0  0  0  0  0  1  0  0  0  0  0  0
  191.3190  176.9130  147.1400 C   0  0  0  0  0  0  0  0  0  0  0  0
  190.6080  176.1330  144.1630 C   0  0  0  0  0  1  0  0  0  0  0  0
  189.7050  176.8960  145.0770 C   0  0  0  0  0  0  0  0  0  0  0  0
  190.1190  177.1800  146.3800 C   0  0  0  0  0  0  0  0  0  0  0  0
  191.1440  177.4340  148.4560 N   0  0  0  0  0  0  0  0  0  0  0  0
  189.9860  177.9640  148.5390 N   0  0  0  0  0  0  0  0  0  0  0  0
  188.0390  178.2410  146.9550 C   0  0  0  0  0  3  0  0  0  0  0  0
  187.5850  177.9820  145.6520 C   0  0  0  0  0  3  0  0  0  0  0  0
  188.4020  177.3270  144.6880 C   0  0  0  0  0  0  0  0  0  0  0  0
  189.3230  177.8280  147.2830 C   0  0  0  0  0  0  0  0  0  0  0  0
  192.3570  176.3230  146.7380 O   0  0  0  0  0  0  0  0  0  0  0  0
  188.2390  179.1720  140.2270 O   0  0  0  0  0  0  0  0  0  0  0  0
  188.7390  178.5780  139.0980 C   0  0  0  0  0  0  0  0  0  0  0  0
  189.1640  178.0750  138.1460 N   0  0  0  0  0  0  0  0  0  0  0  0
  185.3020  178.9970  141.1420 C   0  0  0  0  0  2  0  0  0  0  0  0
  184.1300  178.0380  141.2230 C   0  0  0  0  0  2  0  0  0  0  0  0
  182.9070  178.7770  141.7220 C   0  0  0  0  0  1  0  0  0  0  0  0
  2  1  1  6  0  0  0
  2 17  1  0  0  0  0
  3  2  1  0  0  0  0
  4  7  2  0  0  0  0
  4  3  1  0  0  0  0
  5  2  1  0  0  0  0
  5  8  1  1  0  0  0
  6  3  2  0  0  0  0
  7  5  1  0  0  0  0
  9 13  1  0  0  0  0
 10 11  1  0  0  0  0
 11 12  1  0  0  0  0
 12  9  1  0  0  0  0
 12 18  2  0  0  0  0
 13 14  2  0  0  0  0
 15 18  1  0  0  0  0
 16 15  2  0  0  0  0
 17 11  2  0  0  0  0
 17 16  1  0  0  0  0
 18 14  1  0  0  0  0
 19  9  2  0  0  0  0
 20  4  1  0  0  0  0
 21 20  1  0  0  0  0
 22 21  3  0  0  0  0
 23 24  1  0  0  0  0
 23  7  1  0  0  0  0
 24 25  1  0  0  0  0
M  END
>  <MODEL>
6

>  <REMARK>
 VINA RESULT:      -5.7      2.281      6.933
  Name = 
  5 active torsions:
  status: ('A' for Active; 'I' for Inactive)
    1  A    between atoms: O_1  and  C_4
    2  A    between atoms: O_1  and  C_12
    3  A    between atoms: C_6  and  C_9
    4  A    between atoms: C_9  and  C_20
    5  A    between atoms: C_10  and  C_22
                            x       y       z     vdW  Elec       q    Type
                         _______ _______ _______ _____ _____    ______ ____

>  <TORSDO>
F 5

$$$$
=
 OpenBabel10232407463D

 25 27  0  0  1  0  0  0  0  0999 V2000
  186.3670  176.0250  144.0850 O   0  0  0  0  0  1  0  0  0  0  0  0
  186.5840  177.3550  144.4560 C   0  0  1  0  0  0  0  0  0  0  0  0
  186.7750  178.1510  143.2050 C   0  0  0  0  0  0  0  0  0  0  0  0
  185.6800  179.0660  142.9910 C   0  0  0  0  0  0  0  0  0  0  0  0
  185.2560  177.9450  145.0160 C   0  0  2  0  0  3  0  0  0  0  0  0
  187.7360  178.0020  142.4020 O   0  0  0  0  0  0  0  0  0  0  0  0
  184.8030  178.9420  143.9870 C   0  0  0  0  0  0  0  0  0  0  0  0
  185.3730  178.6280  146.3770 C   0  0  0  0  0  1  0  0  0  0  0  0
  191.4420  176.5540  146.0820 C   0  0  0  0  0  0  0  0  0  0  0  0
  189.3060  176.2000  143.7820 C   0  0  0  0  0  1  0  0  0  0  0  0
  189.0440  176.8910  145.0810 C   0  0  0  0  0  0  0  0  0  0  0  0
  190.0620  176.9840  146.0320 C   0  0  0  0  0  0  0  0  0  0  0  0
  191.9810  176.9130  147.3520 N   0  0  0  0  0  0  0  0  0  0  0  0
  191.0720  177.4940  148.0350 N   0  0  0  0  0  0  0  0  0  0  0  0
  188.6480  178.0800  147.6380 C   0  0  0  0  0  3  0  0  0  0  0  0
  187.5980  178.0150  146.7080 C   0  0  0  0  0  3  0  0  0  0  0  0
  187.7730  177.4420  145.4170 C   0  0  0  0  0  0  0  0  0  0  0  0
  189.8760  177.5560  147.2590 C   0  0  0  0  0  0  0  0  0  0  0  0
  192.0850  175.9620  145.1750 O   0  0  0  0  0  0  0  0  0  0  0  0
  185.6110  179.9130  141.8740 O   0  0  0  0  0  0  0  0  0  0  0  0
  185.2000  179.5190  140.6280 C   0  0  0  0  0  0  0  0  0  0  0  0
  184.8500  179.1840  139.5770 N   0  0  0  0  0  0  0  0  0  0  0  0
  183.4880  179.6460  144.0910 C   0  0  0  0  0  2  0  0  0  0  0  0
  182.3530  178.6780  143.8230 C   0  0  0  0  0  2  0  0  0  0  0  0
  181.9230  178.7910  142.3770 C   0  0  0  0  0  1  0  0  0  0  0  0
  2  1  1  6  0  0  0
  2  5  1  0  0  0  0
  2 17  1  0  0  0  0
  3  2  1  0  0  0  0
  4  3  1  0  0  0  0
  4  7  2  0  0  0  0
  5  8  1  1  0  0  0
  6  3  2  0  0  0  0
  7 23  1  0  0  0  0
  7  5  1  0  0  0  0
  9 13  1  0  0  0  0
 10 11  1  0  0  0  0
 11 17  2  0  0  0  0
 11 12  1  0  0  0  0
 12  9  1  0  0  0  0
 12 18  2  0  0  0  0
 13 14  2  0  0  0  0
 16 15  2  0  0  0  0
 17 16  1  0  0  0  0
 18 15  1  0  0  0  0
 18 14  1  0  0  0  0
 19  9  2  0  0  0  0
 20  4  1  0  0  0  0
 21 20  1  0  0  0  0
 22 21  3  0  0  0  0
 24 23  1  0  0  0  0
 25 24  1  0  0  0  0
M  END
>  <MODEL>
7

>  <REMARK>
 VINA RESULT:      -5.7      3.130      7.078
  Name = 
  5 active torsions:
  status: ('A' for Active; 'I' for Inactive)
    1  A    between atoms: O_1  and  C_4
    2  A    between atoms: O_1  and  C_12
    3  A    between atoms: C_6  and  C_9
    4  A    between atoms: C_9  and  C_20
    5  A    between atoms: C_10  and  C_22
                            x       y       z     vdW  Elec       q    Type
                         _______ _______ _______ _____ _____    ______ ____

>  <TORSDO>
F 5

$$$$
=
 OpenBabel10232407463D

 25 27  0  0  1  0  0  0  0  0999 V2000
  190.7270  179.5240  144.0570 O   0  0  0  0  0  1  0  0  0  0  0  0
  190.1540  178.2530  143.9720 C   0  0  1  0  0  0  0  0  0  0  0  0
  191.1900  177.2580  144.3900 C   0  0  0  0  0  0  0  0  0  0  0  0
  190.8390  176.6250  145.6370 C   0  0  0  0  0  0  0  0  0  0  0  0
  189.0880  178.1030  145.0970 C   0  0  2  0  0  3  0  0  0  0  0  0
  192.2660  177.0410  143.7690 O   0  0  0  0  0  0  0  0  0  0  0  0
  189.6720  177.1100  146.0630 C   0  0  0  0  0  0  0  0  0  0  0  0
  187.7170  177.6210  144.6300 C   0  0  0  0  0  1  0  0  0  0  0  0
  190.4350  177.0730  138.9300 C   0  0  0  0  0  0  0  0  0  0  0  0
  191.9490  177.3860  141.6850 C   0  0  0  0  0  1  0  0  0  0  0  0
  190.4830  177.6070  141.4950 C   0  0  0  0  0  0  0  0  0  0  0  0
  189.9190  177.4480  140.2280 C   0  0  0  0  0  0  0  0  0  0  0  0
  189.3640  177.1110  137.9900 N   0  0  0  0  0  0  0  0  0  0  0  0
  188.2970  177.4650  138.5950 N   0  0  0  0  0  0  0  0  0  0  0  0
  187.7280  178.1060  140.9700 C   0  0  0  0  0  3  0  0  0  0  0  0
  188.2540  178.2720  142.2630 C   0  0  0  0  0  3  0  0  0  0  0  0
  189.6210  178.0130  142.5560 C   0  0  0  0  0  0  0  0  0  0  0  0
  188.5970  177.6840  139.9730 C   0  0  0  0  0  0  0  0  0  0  0  0
  191.6230  176.7620  138.6480 O   0  0  0  0  0  0  0  0  0  0  0  0
  191.6570  175.6670  146.2560 O   0  0  0  0  0  0  0  0  0  0  0  0
  192.3420  175.8730  147.4240 C   0  0  0  0  0  0  0  0  0  0  0  0
  192.9230  176.0500  148.4100 N   0  0  0  0  0  0  0  0  0  0  0  0
  189.0050  176.7800  147.3600 C   0  0  0  0  0  2  0  0  0  0  0  0
  188.9850  177.9990  148.2630 C   0  0  0  0  0  2  0  0  0  0  0  0
  187.5840  178.2120  148.7920 C   0  0  0  0  0  1  0  0  0  0  0  0
  2  1  1  1  0  0  0
  2  3  1  0  0  0  0
  2  5  1  0  0  0  0
  3  4  1  0  0  0  0
  4  7  2  0  0  0  0
  4 20  1  0  0  0  0
  5  8  1  6  0  0  0
  5  7  1  0  0  0  0
  6  3  2  0  0  0  0
  7 23  1  0  0  0  0
  9 12  1  0  0  0  0
 11 10  1  0  0  0  0
 11 17  1  0  0  0  0
 12 11  2  0  0  0  0
 13 14  2  0  0  0  0
 13  9  1  0  0  0  0
 14 18  1  0  0  0  0
 15 16  1  0  0  0  0
 16 17  2  0  0  0  0
 17  2  1  0  0  0  0
 18 12  1  0  0  0  0
 18 15  2  0  0  0  0
 19  9  2  0  0  0  0
 20 21  1  0  0  0  0
 21 22  3  0  0  0  0
 23 24  1  0  0  0  0
 24 25  1  0  0  0  0
M  END
>  <MODEL>
8

>  <REMARK>
 VINA RESULT:      -5.6      1.520      2.176
  Name = 
  5 active torsions:
  status: ('A' for Active; 'I' for Inactive)
    1  A    between atoms: O_1  and  C_4
    2  A    between atoms: O_1  and  C_12
    3  A    between atoms: C_6  and  C_9
    4  A    between atoms: C_9  and  C_20
    5  A    between atoms: C_10  and  C_22
                            x       y       z     vdW  Elec       q    Type
                         _______ _______ _______ _____ _____    ______ ____

>  <TORSDO>
F 5

$$$$
=
 OpenBabel10232407463D

 25 27  0  0  1  0  0  0  0  0999 V2000
  189.5710  175.0400  142.7940 O   0  0  0  0  0  1  0  0  0  0  0  0
  189.5900  176.4370  142.7900 C   0  0  1  0  0  0  0  0  0  0  0  0
  190.9940  176.8730  142.5150 C   0  0  0  0  0  0  0  0  0  0  0  0
  191.1040  177.5120  141.2260 C   0  0  0  0  0  0  0  0  0  0  0  0
  188.8380  176.9480  141.5240 C   0  0  2  0  0  3  0  0  0  0  0  0
  191.9730  176.6570  143.2800 O   0  0  0  0  0  0  0  0  0  0  0  0
  189.9050  177.5370  140.6440 C   0  0  0  0  0  0  0  0  0  0  0  0
  187.7570  177.9930  141.7910 C   0  0  0  0  0  1  0  0  0  0  0  0
  189.6950  177.6550  147.8290 C   0  0  0  0  0  0  0  0  0  0  0  0
  191.2580  176.5380  145.3210 C   0  0  0  0  0  1  0  0  0  0  0  0
  189.8390  177.0090  145.2940 C   0  0  0  0  0  0  0  0  0  0  0  0
  189.2440  177.4770  146.4670 C   0  0  0  0  0  0  0  0  0  0  0  0
  188.6070  178.1550  148.6030 N   0  0  0  0  0  0  0  0  0  0  0  0
  187.5870  178.2820  147.8460 N   0  0  0  0  0  0  0  0  0  0  0  0
  187.1140  177.8280  145.4070 C   0  0  0  0  0  3  0  0  0  0  0  0
  187.6760  177.3710  144.2040 C   0  0  0  0  0  3  0  0  0  0  0  0
  189.0380  176.9720  144.1150 C   0  0  0  0  0  0  0  0  0  0  0  0
  187.9370  177.8740  146.5240 C   0  0  0  0  0  0  0  0  0  0  0  0
  190.8450  177.4160  148.2840 O   0  0  0  0  0  0  0  0  0  0  0  0
  192.3220  177.9930  140.7230 O   0  0  0  0  0  0  0  0  0  0  0  0
  193.1460  177.2880  139.8850 C   0  0  0  0  0  0  0  0  0  0  0  0
  193.8450  176.6950  139.1780 N   0  0  0  0  0  0  0  0  0  0  0  0
  189.6090  178.0300  139.2640 C   0  0  0  0  0  2  0  0  0  0  0  0
  189.0260  176.9120  138.4220 C   0  0  0  0  0  2  0  0  0  0  0  0
  190.1190  175.9310  138.0590 C   0  0  0  0  0  1  0  0  0  0  0  0
  2  1  1  1  0  0  0
  2 17  1  0  0  0  0
  3  2  1  0  0  0  0
  3  6  2  0  0  0  0
  4  3  1  0  0  0  0
  5  8  1  1  0  0  0
  5  2  1  0  0  0  0
  7  4  2  0  0  0  0
  7  5  1  0  0  0  0
  9 19  2  0  0  0  0
  9 13  1  0  0  0  0
 11 10  1  0  0  0  0
 11 12  1  0  0  0  0
 12 18  2  0  0  0  0
 12  9  1  0  0  0  0
 14 13  2  0  0  0  0
 15 18  1  0  0  0  0
 16 15  2  0  0  0  0
 17 16  1  0  0  0  0
 17 11  2  0  0  0  0
 18 14  1  0  0  0  0
 20  4  1  0  0  0  0
 21 20  1  0  0  0  0
 22 21  3  0  0  0  0
 23  7  1  0  0  0  0
 24 23  1  0  0  0  0
 25 24  1  0  0  0  0
M  END
>  <MODEL>
9

>  <REMARK>
 VINA RESULT:      -5.6      2.552      6.838
  Name = 
  5 active torsions:
  status: ('A' for Active; 'I' for Inactive)
    1  A    between atoms: O_1  and  C_4
    2  A    between atoms: O_1  and  C_12
    3  A    between atoms: C_6  and  C_9
    4  A    between atoms: C_9  and  C_20
    5  A    between atoms: C_10  and  C_22
                            x       y       z     vdW  Elec       q    Type
                         _______ _______ _______ _____ _____    ______ ____

>  <TORSDO>
F 5

$$$$
