=
 OpenBabel10232412463D

 40 41  0  0  1  0  0  0  0  0999 V2000
  183.9910  178.6660  139.8540 C   0  0  1  0  0  3  0  0  0  0  0  0
  180.7890  180.1080  139.0690 C   0  0  0  0  0  3  0  0  0  0  0  0
  181.5490  179.1330  139.6000 N   0  0  0  0  0  2  0  0  0  0  0  0
  181.6110  181.0850  138.5510 C   0  0  0  0  0  0  0  0  0  0  0  0
  182.9240  180.7290  138.7680 C   0  0  0  0  0  3  0  0  0  0  0  0
  182.8300  179.5140  139.4230 C   0  0  0  0  0  0  0  0  0  0  0  0
  181.1540  182.3510  137.9080 C   0  0  0  0  0  2  0  0  0  0  0  0
  181.9030  184.4930  137.1520 O   0  0  0  0  0  1  0  0  0  0  0  0
  182.2360  183.4150  137.9750 C   0  0  0  0  0  2  0  0  0  0  0  0
  184.2830  177.5870  137.6550 C   0  0  0  0  0  0  0  0  0  0  0  0
  182.8200  175.7210  137.5010 O   0  0  0  0  0  1  0  0  0  0  0  0
  184.3780  176.9180  136.2880 C   0  0  0  0  0  2  0  0  0  0  0  0
  183.1000  176.9580  136.9230 C   0  0  2  0  0  3  0  0  0  0  0  0
  184.8280  178.2240  138.6920 C   0  0  0  0  0  0  0  0  0  0  0  0
  186.2260  178.5190  138.7130 N   0  0  0  0  0  2  0  0  0  0  0  0
  186.9360  178.8430  137.5430 N   0  0  0  0  0  2  0  0  0  0  0  0
  188.8570  178.2260  136.1390 C   0  0  0  0  0  1  0  0  0  0  0  0
  188.0440  177.9030  137.3860 C   0  0  1  0  0  3  0  0  0  0  0  0
  189.7950  175.7800  138.1710 O   0  0  0  0  0  0  0  0  0  0  0  0
  188.8940  177.9010  138.5710 N   0  0  0  0  0  2  0  0  0  0  0  0
  189.7710  176.8170  138.8870 C   0  0  0  0  0  0  0  0  0  0  0  0
  190.6850  176.9280  140.0560 C   0  0  0  0  0  2  0  0  0  0  0  0
  189.8840  176.8190  141.3380 C   0  0  0  0  0  2  0  0  0  0  0  0
  190.2520  177.9020  142.2340 N   0  0  0  0  0  2  0  0  0  0  0  0
  191.7890  176.6130  143.4310 O   0  0  0  0  0  0  0  0  0  0  0  0
  191.2240  177.7270  143.2630 C   0  0  0  0  0  0  0  0  0  0  0  0
  191.5750  178.8690  144.1460 C   0  0  0  0  0  1  0  0  0  0  0  0
  184.8130  179.3370  140.8560 N   0  0  0  0  0  2  0  0  0  0  0  0
  184.8030  178.5390  142.0110 N   0  0  0  0  0  2  0  0  0  0  0  0
  184.1630  179.3080  143.0690 C   0  0  1  0  0  3  0  0  0  0  0  0
  182.9030  178.5990  143.5510 C   0  0  0  0  0  2  0  0  0  0  0  0
  181.7270  179.3500  143.1530 N   0  0  0  0  0  1  0  0  0  0  0  0
  185.1470  179.5540  144.2120 C   0  0  0  0  0  2  0  0  0  0  0  0
  185.2170  178.3710  145.1720 C   0  0  0  0  0  2  0  0  0  0  0  0
  187.2780  177.1980  144.2640 C   0  0  0  0  0  1  0  0  0  0  0  0
  186.6660  177.9770  145.4210 C   0  0  2  0  0  3  0  0  0  0  0  0
  186.8810  177.4030  146.6980 O   0  0  0  0  0  0  0  0  0  0  0  0
  188.1940  178.0510  149.0570 O   0  0  0  0  0  1  0  0  0  0  0  0
  189.2450  176.5750  147.2690 O   0  0  0  0  0  0  0  0  0  0  0  0
  188.4100  177.8440  147.3780 S   0  0  1  0  0  0  0  0  0  0  0  0
  1 14  1  6  0  0  0
  1 28  1  0  0  0  0
  2  3  1  0  0  0  0
  4  5  1  0  0  0  0
  4  2  2  0  0  0  0
  5  6  2  0  0  0  0
  6  3  1  0  0  0  0
  6  1  1  0  0  0  0
  7  9  1  0  0  0  0
  7  4  1  0  0  0  0
  8  9  1  0  0  0  0
 10 14  2  0  0  0  0
 12 13  1  0  0  0  0
 12 10  1  0  0  0  0
 13 11  1  1  0  0  0
 13 10  1  0  0  0  0
 14 15  1  0  0  0  0
 16 15  1  0  0  0  0
 18 17  1  6  0  0  0
 18 16  1  0  0  0  0
 18 20  1  0  0  0  0
 19 21  2  0  0  0  0
 20 21  1  0  0  0  0
 21 22  1  0  0  0  0
 22 23  1  0  0  0  0
 23 24  1  0  0  0  0
 24 26  1  0  0  0  0
 26 25  2  0  0  0  0
 26 27  1  0  0  0  0
 28 29  1  0  0  0  0
 29 30  1  0  0  0  0
 30 31  1  1  0  0  0
 30 33  1  0  0  0  0
 32 31  1  0  0  0  0
 33 34  1  0  0  0  0
 34 36  1  0  0  0  0
 36 35  1  6  0  0  0
 36 37  1  0  0  0  0
 37 40  1  0  0  0  0
 40 39  2  1  0  0  0
 40 38  1  0  0  0  0
M  END
>  <MODEL>
1

>  <REMARK>
 VINA RESULT:      -6.3      0.000      0.000
  Name = 
  20 active torsions:
  status: ('A' for Active; 'I' for Inactive)
    1  A    between atoms: N_2  and  C_22
    2  A    between atoms: C_4  and  C_27
    3  A    between atoms: C_4  and  C_33
    4  A    between atoms: C_5  and  C_14
    5  A    between atoms: C_5  and  C_28
    6  A    between atoms: C_6  and  N_18
    7  A    between atoms: C_6  and  C_37
    8  A    between atoms: C_6  and  C_40
    9  A    between atoms: C_11  and  N_12
   10  A    between atoms: C_11  and  N_34
   11  A    between atoms: C_14  and  O_20
   12  A    between atoms: C_16  and  C_21
   13  A    between atoms: C_16  and  C_28
   14  A    between atoms: C_16  and  N_30
   15  A    between atoms: N_18  and  N_30
   16  A    between atoms: S_19  and  O_20
   17  A    between atoms: C_22  and  C_26
   18  A    between atoms: C_25  and  C_26
   19  A    between atoms: N_31  and  N_34
   20  A    between atoms: N_31  and  C_37
                            x       y       z     vdW  Elec       q    Type
                         _______ _______ _______ _____ _____    ______ ____

>  <TORSDO>
F 20

$$$$
=
 OpenBabel10232412463D

 40 41  0  0  1  0  0  0  0  0999 V2000
  189.5800  177.9380  139.6260 C   0  0  1  0  0  3  0  0  0  0  0  0
  187.7040  178.8400  136.6910 C   0  0  0  0  0  3  0  0  0  0  0  0
  188.6060  179.1180  137.6510 N   0  0  0  0  0  2  0  0  0  0  0  0
  187.2280  177.5610  136.8800 C   0  0  0  0  0  0  0  0  0  0  0  0
  187.8490  177.0090  137.9790 C   0  0  0  0  0  3  0  0  0  0  0  0
  188.6940  178.0130  138.4170 C   0  0  0  0  0  0  0  0  0  0  0  0
  186.2390  176.8660  136.0060 C   0  0  0  0  0  2  0  0  0  0  0  0
  187.9900  175.8600  134.7230 O   0  0  0  0  0  1  0  0  0  0  0  0
  186.8200  176.6150  134.6240 C   0  0  0  0  0  2  0  0  0  0  0  0
  189.2630  177.5900  142.0470 C   0  0  0  0  0  0  0  0  0  0  0  0
  190.0920  175.4450  142.6430 O   0  0  0  0  0  1  0  0  0  0  0  0
  189.1480  177.3470  143.5480 C   0  0  0  0  0  2  0  0  0  0  0  0
  190.2820  176.8060  142.8700 C   0  0  2  0  0  3  0  0  0  0  0  0
  188.8080  178.0960  140.9010 C   0  0  0  0  0  0  0  0  0  0  0  0
  187.5780  178.8210  140.8620 N   0  0  0  0  0  2  0  0  0  0  0  0
  186.3300  178.1740  140.8890 N   0  0  0  0  0  2  0  0  0  0  0  0
  184.0000  178.8680  141.2450 C   0  0  0  0  0  1  0  0  0  0  0  0
  185.4290  178.9170  141.7670 C   0  0  1  0  0  3  0  0  0  0  0  0
  184.1790  180.1040  144.0520 O   0  0  0  0  0  0  0  0  0  0  0  0
  185.4980  178.4060  143.1310 N   0  0  0  0  0  2  0  0  0  0  0  0
  184.8210  179.0330  144.2230 C   0  0  0  0  0  0  0  0  0  0  0  0
  184.8520  178.3990  145.5690 C   0  0  0  0  0  2  0  0  0  0  0  0
  186.0340  178.9310  146.3540 C   0  0  0  0  0  2  0  0  0  0  0  0
  187.1260  177.9760  146.2960 N   0  0  0  0  0  2  0  0  0  0  0  0
  187.9650  178.5520  148.3990 O   0  0  0  0  0  0  0  0  0  0  0  0
  188.0590  177.8350  147.3660 C   0  0  0  0  0  0  0  0  0  0  0  0
  189.1520  176.8350  147.2640 C   0  0  0  0  0  1  0  0  0  0  0  0
  190.3690  176.7100  139.6480 N   0  0  0  0  0  2  0  0  0  0  0  0
  191.3180  176.8010  138.6190 N   0  0  0  0  0  2  0  0  0  0  0  0
  191.6540  175.4440  138.2120 C   0  0  1  0  0  3  0  0  0  0  0  0
  190.7920  175.0170  137.0300 C   0  0  0  0  0  2  0  0  0  0  0  0
  189.9670  173.8820  137.4000 N   0  0  0  0  0  1  0  0  0  0  0  0
  193.1450  175.3420  137.8920 C   0  0  0  0  0  2  0  0  0  0  0  0
  193.5190  173.9730  137.3340 C   0  0  0  0  0  2  0  0  0  0  0  0
  195.4580  172.4960  138.0470 C   0  0  0  0  0  1  0  0  0  0  0  0
  195.0300  173.7870  137.3600 C   0  0  2  0  0  3  0  0  0  0  0  0
  195.7320  174.9410  137.7840 O   0  0  0  0  0  0  0  0  0  0  0  0
  198.2280  175.4550  138.8870 O   0  0  0  0  0  0  0  0  0  0  0  0
  196.0990  175.4080  140.2830 O   0  0  0  0  0  1  0  0  0  0  0  0
  196.7540  174.6360  139.1460 S   0  0  1  0  0  0  0  0  0  0  0  0
  1 28  1  1  0  0  0
  1 14  1  0  0  0  0
  2  4  2  0  0  0  0
  2  3  1  0  0  0  0
  3  6  1  0  0  0  0
  4  5  1  0  0  0  0
  5  6  2  0  0  0  0
  6  1  1  0  0  0  0
  7  4  1  0  0  0  0
  9  8  1  0  0  0  0
  9  7  1  0  0  0  0
 10 13  1  0  0  0  0
 10 12  1  0  0  0  0
 13 11  1  6  0  0  0
 13 12  1  0  0  0  0
 14 10  2  0  0  0  0
 15 16  1  0  0  0  0
 15 14  1  0  0  0  0
 16 18  1  0  0  0  0
 18 17  1  6  0  0  0
 18 20  1  0  0  0  0
 19 21  2  0  0  0  0
 20 21  1  0  0  0  0
 21 22  1  0  0  0  0
 22 23  1  0  0  0  0
 24 23  1  0  0  0  0
 24 26  1  0  0  0  0
 26 25  2  0  0  0  0
 27 26  1  0  0  0  0
 29 28  1  0  0  0  0
 30 31  1  6  0  0  0
 30 29  1  0  0  0  0
 31 32  1  0  0  0  0
 33 30  1  0  0  0  0
 34 36  1  0  0  0  0
 34 33  1  0  0  0  0
 36 37  1  0  0  0  0
 36 35  1  1  0  0  0
 37 40  1  0  0  0  0
 40 38  2  6  0  0  0
 40 39  1  0  0  0  0
M  END
>  <MODEL>
2

>  <REMARK>
 VINA RESULT:      -6.2      3.797      8.565
  Name = 
  20 active torsions:
  status: ('A' for Active; 'I' for Inactive)
    1  A    between atoms: N_2  and  C_22
    2  A    between atoms: C_4  and  C_27
    3  A    between atoms: C_4  and  C_33
    4  A    between atoms: C_5  and  C_14
    5  A    between atoms: C_5  and  C_28
    6  A    between atoms: C_6  and  N_18
    7  A    between atoms: C_6  and  C_37
    8  A    between atoms: C_6  and  C_40
    9  A    between atoms: C_11  and  N_12
   10  A    between atoms: C_11  and  N_34
   11  A    between atoms: C_14  and  O_20
   12  A    between atoms: C_16  and  C_21
   13  A    between atoms: C_16  and  C_28
   14  A    between atoms: C_16  and  N_30
   15  A    between atoms: N_18  and  N_30
   16  A    between atoms: S_19  and  O_20
   17  A    between atoms: C_22  and  C_26
   18  A    between atoms: C_25  and  C_26
   19  A    between atoms: N_31  and  N_34
   20  A    between atoms: N_31  and  C_37
                            x       y       z     vdW  Elec       q    Type
                         _______ _______ _______ _____ _____    ______ ____

>  <TORSDO>
F 20

$$$$
=
 OpenBabel10232412463D

 40 41  0  0  1  0  0  0  0  0999 V2000
  184.2280  178.8980  139.3260 C   0  0  1  0  0  3  0  0  0  0  0  0
  182.7940  176.0450  137.6680 C   0  0  0  0  0  3  0  0  0  0  0  0
  183.5750  176.5930  138.6180 N   0  0  0  0  0  2  0  0  0  0  0  0
  182.2210  177.0520  136.9230 C   0  0  0  0  0  0  0  0  0  0  0  0
  182.6370  178.2690  137.4170 C   0  0  0  0  0  3  0  0  0  0  0  0
  183.4710  177.9280  138.4670 C   0  0  0  0  0  0  0  0  0  0  0  0
  181.2620  176.8590  135.7980 C   0  0  0  0  0  2  0  0  0  0  0  0
  180.1140  174.7600  135.7750 O   0  0  0  0  0  1  0  0  0  0  0  0
  181.2630  175.4140  135.3270 C   0  0  0  0  0  2  0  0  0  0  0  0
  182.4010  178.8820  140.9830 C   0  0  0  0  0  0  0  0  0  0  0  0
  180.5490  180.0910  140.1140 O   0  0  0  0  0  1  0  0  0  0  0  0
  181.2170  178.8520  141.9430 C   0  0  0  0  0  2  0  0  0  0  0  0
  180.9400  178.8250  140.5430 C   0  0  2  0  0  3  0  0  0  0  0  0
  183.7090  178.9310  140.7320 C   0  0  0  0  0  0  0  0  0  0  0  0
  184.6540  178.9970  141.8020 N   0  0  0  0  0  2  0  0  0  0  0  0
  184.6830  178.0390  142.8300 N   0  0  0  0  0  2  0  0  0  0  0  0
  183.5890  178.7970  144.8960 C   0  0  0  0  0  1  0  0  0  0  0  0
  184.8880  178.7190  144.1070 C   0  0  1  0  0  3  0  0  0  0  0  0
  185.7300  179.4700  146.7370 O   0  0  0  0  0  0  0  0  0  0  0  0
  185.9270  178.0550  144.8860 N   0  0  0  0  0  2  0  0  0  0  0  0
  186.2760  178.4640  146.2110 C   0  0  0  0  0  0  0  0  0  0  0  0
  187.2720  177.6760  146.9850 C   0  0  0  0  0  2  0  0  0  0  0  0
  188.5940  177.6610  146.2430 C   0  0  0  0  0  2  0  0  0  0  0  0
  189.5760  176.9180  147.0150 N   0  0  0  0  0  2  0  0  0  0  0  0
  191.3120  177.3140  145.5020 O   0  0  0  0  0  0  0  0  0  0  0  0
  190.9290  176.7890  146.5820 C   0  0  0  0  0  0  0  0  0  0  0  0
  191.8980  176.0280  147.4130 C   0  0  0  0  0  1  0  0  0  0  0  0
  185.6640  178.6320  139.3120 N   0  0  0  0  0  2  0  0  0  0  0  0
  186.0980  178.7430  137.9820 N   0  0  0  0  0  2  0  0  0  0  0  0
  187.1780  177.7850  137.7940 C   0  0  1  0  0  3  0  0  0  0  0  0
  187.1560  177.2350  136.3720 C   0  0  0  0  0  2  0  0  0  0  0  0
  185.8150  177.3230  135.8260 N   0  0  0  0  0  1  0  0  0  0  0  0
  188.5220  178.4300  138.1300 C   0  0  0  0  0  2  0  0  0  0  0  0
  189.0890  177.9180  139.4500 C   0  0  0  0  0  2  0  0  0  0  0  0
  190.6350  176.8050  137.7710 C   0  0  0  0  0  1  0  0  0  0  0  0
  190.4280  177.2310  139.2190 C   0  0  2  0  0  3  0  0  0  0  0  0
  190.7180  176.2280  140.1760 O   0  0  0  0  0  0  0  0  0  0  0  0
  190.3160  175.3630  142.7840 O   0  0  0  0  0  1  0  0  0  0  0  0
  191.7280  177.4050  142.2230 O   0  0  0  0  0  0  0  0  0  0  0  0
  190.4200  176.7510  141.7990 S   0  0  1  0  0  0  0  0  0  0  0  0
  1 28  1  1  0  0  0
  1 14  1  0  0  0  0
  2  3  1  0  0  0  0
  4  5  1  0  0  0  0
  4  2  2  0  0  0  0
  5  6  2  0  0  0  0
  6  3  1  0  0  0  0
  6  1  1  0  0  0  0
  7  4  1  0  0  0  0
  9  8  1  0  0  0  0
  9  7  1  0  0  0  0
 10 12  1  0  0  0  0
 13 11  1  6  0  0  0
 13 10  1  0  0  0  0
 13 12  1  0  0  0  0
 14 10  2  0  0  0  0
 14 15  1  0  0  0  0
 15 16  1  0  0  0  0
 16 18  1  0  0  0  0
 18 20  1  0  0  0  0
 18 17  1  1  0  0  0
 20 21  1  0  0  0  0
 21 19  2  0  0  0  0
 21 22  1  0  0  0  0
 23 22  1  0  0  0  0
 23 24  1  0  0  0  0
 25 26  2  0  0  0  0
 26 24  1  0  0  0  0
 26 27  1  0  0  0  0
 29 28  1  0  0  0  0
 30 31  1  6  0  0  0
 30 29  1  0  0  0  0
 30 33  1  0  0  0  0
 32 31  1  0  0  0  0
 33 34  1  0  0  0  0
 36 35  1  6  0  0  0
 36 34  1  0  0  0  0
 36 37  1  0  0  0  0
 37 40  1  0  0  0  0
 40 39  2  1  0  0  0
 40 38  1  0  0  0  0
M  END
>  <MODEL>
3

>  <REMARK>
 VINA RESULT:      -6.2      2.704      6.236
  Name = 
  20 active torsions:
  status: ('A' for Active; 'I' for Inactive)
    1  A    between atoms: N_2  and  C_22
    2  A    between atoms: C_4  and  C_27
    3  A    between atoms: C_4  and  C_33
    4  A    between atoms: C_5  and  C_14
    5  A    between atoms: C_5  and  C_28
    6  A    between atoms: C_6  and  N_18
    7  A    between atoms: C_6  and  C_37
    8  A    between atoms: C_6  and  C_40
    9  A    between atoms: C_11  and  N_12
   10  A    between atoms: C_11  and  N_34
   11  A    between atoms: C_14  and  O_20
   12  A    between atoms: C_16  and  C_21
   13  A    between atoms: C_16  and  C_28
   14  A    between atoms: C_16  and  N_30
   15  A    between atoms: N_18  and  N_30
   16  A    between atoms: S_19  and  O_20
   17  A    between atoms: C_22  and  C_26
   18  A    between atoms: C_25  and  C_26
   19  A    between atoms: N_31  and  N_34
   20  A    between atoms: N_31  and  C_37
                            x       y       z     vdW  Elec       q    Type
                         _______ _______ _______ _____ _____    ______ ____

>  <TORSDO>
F 20

$$$$
=
 OpenBabel10232412463D

 40 41  0  0  1  0  0  0  0  0999 V2000
  185.1010  179.0290  140.6420 C   0  0  1  0  0  3  0  0  0  0  0  0
  181.6270  178.4510  139.9020 C   0  0  0  0  0  3  0  0  0  0  0  0
  182.6680  179.2740  140.1270 N   0  0  0  0  0  2  0  0  0  0  0  0
  182.0630  177.1460  139.9770 C   0  0  0  0  0  0  0  0  0  0  0  0
  183.4140  177.1390  140.2430 C   0  0  0  0  0  3  0  0  0  0  0  0
  183.7400  178.4810  140.3240 C   0  0  0  0  0  0  0  0  0  0  0  0
  181.2200  175.9370  139.7520 C   0  0  0  0  0  2  0  0  0  0  0  0
  181.5330  176.0380  137.3830 O   0  0  0  0  0  1  0  0  0  0  0  0
  181.6510  175.2010  138.4940 C   0  0  0  0  0  2  0  0  0  0  0  0
  184.6940  178.6340  143.0430 C   0  0  0  0  0  0  0  0  0  0  0  0
  183.0970  180.2050  143.8330 O   0  0  0  0  0  1  0  0  0  0  0  0
  184.3590  178.3950  144.5110 C   0  0  0  0  0  2  0  0  0  0  0  0
  183.3100  178.8400  143.6510 C   0  0  2  0  0  3  0  0  0  0  0  0
  185.5510  178.6530  142.0210 C   0  0  0  0  0  0  0  0  0  0  0  0
  186.9210  178.2950  142.2130 N   0  0  0  0  0  2  0  0  0  0  0  0
  187.2990  177.1660  142.9610 N   0  0  0  0  0  2  0  0  0  0  0  0
  189.2140  177.6080  141.4850 C   0  0  0  0  0  1  0  0  0  0  0  0
  188.7210  176.9070  142.7440 C   0  0  1  0  0  3  0  0  0  0  0  0
  191.2190  175.7670  143.5470 O   0  0  0  0  0  0  0  0  0  0  0  0
  189.5040  177.3160  143.9040 N   0  0  0  0  0  2  0  0  0  0  0  0
  190.7630  176.7220  144.2300 C   0  0  0  0  0  0  0  0  0  0  0  0
  191.5560  177.2600  145.3680 C   0  0  0  0  0  2  0  0  0  0  0  0
  191.2630  176.4520  146.6170 C   0  0  0  0  0  2  0  0  0  0  0  0
  190.6060  177.2970  147.5990 N   0  0  0  0  0  2  0  0  0  0  0  0
  188.4530  176.6480  146.9660 O   0  0  0  0  0  0  0  0  0  0  0  0
  189.1860  177.3420  147.7220 C   0  0  0  0  0  0  0  0  0  0  0  0
  188.5620  178.2140  148.7510 C   0  0  0  0  0  1  0  0  0  0  0  0
  186.0940  178.6310  139.6480 N   0  0  0  0  0  2  0  0  0  0  0  0
  185.5460  178.8850  138.3820 N   0  0  0  0  0  2  0  0  0  0  0  0
  186.5400  178.5010  137.3900 C   0  0  1  0  0  3  0  0  0  0  0  0
  187.7840  177.9450  138.0740 C   0  0  0  0  0  2  0  0  0  0  0  0
  188.8600  178.9170  138.0140 N   0  0  0  0  0  1  0  0  0  0  0  0
  185.9420  177.4990  136.4030 C   0  0  0  0  0  2  0  0  0  0  0  0
  185.1090  176.4320  137.1040 C   0  0  0  0  0  2  0  0  0  0  0  0
  186.4150  175.0970  135.3830 C   0  0  0  0  0  1  0  0  0  0  0  0
  185.4600  175.0500  136.5700 C   0  0  2  0  0  3  0  0  0  0  0  0
  184.3320  174.2150  136.3860 O   0  0  0  0  0  0  0  0  0  0  0  0
  185.3110  171.6490  135.9720 O   0  0  0  0  0  0  0  0  0  0  0  0
  185.5880  172.8780  138.1840 O   0  0  0  0  0  1  0  0  0  0  0  0
  184.5330  172.6550  137.1080 S   0  0  1  0  0  0  0  0  0  0  0  0
  1 28  1  6  0  0  0
  1 14  1  0  0  0  0
  2  4  2  0  0  0  0
  2  3  1  0  0  0  0
  3  6  1  0  0  0  0
  4  5  1  0  0  0  0
  5  6  2  0  0  0  0
  6  1  1  0  0  0  0
  7  4  1  0  0  0  0
  8  9  1  0  0  0  0
  9  7  1  0  0  0  0
 10 13  1  0  0  0  0
 10 12  1  0  0  0  0
 13 11  1  1  0  0  0
 13 12  1  0  0  0  0
 14 15  1  0  0  0  0
 14 10  2  0  0  0  0
 15 16  1  0  0  0  0
 18 17  1  6  0  0  0
 18 16  1  0  0  0  0
 18 20  1  0  0  0  0
 19 21  2  0  0  0  0
 20 21  1  0  0  0  0
 21 22  1  0  0  0  0
 22 23  1  0  0  0  0
 23 24  1  0  0  0  0
 24 26  1  0  0  0  0
 25 26  2  0  0  0  0
 26 27  1  0  0  0  0
 29 28  1  0  0  0  0
 30 33  1  6  0  0  0
 30 31  1  0  0  0  0
 30 29  1  0  0  0  0
 32 31  1  0  0  0  0
 33 34  1  0  0  0  0
 36 35  1  6  0  0  0
 36 34  1  0  0  0  0
 37 36  1  0  0  0  0
 37 40  1  0  0  0  0
 40 38  2  6  0  0  0
 40 39  1  0  0  0  0
M  END
>  <MODEL>
4

>  <REMARK>
 VINA RESULT:      -6.2      3.170      6.901
  Name = 
  20 active torsions:
  status: ('A' for Active; 'I' for Inactive)
    1  A    between atoms: N_2  and  C_22
    2  A    between atoms: C_4  and  C_27
    3  A    between atoms: C_4  and  C_33
    4  A    between atoms: C_5  and  C_14
    5  A    between atoms: C_5  and  C_28
    6  A    between atoms: C_6  and  N_18
    7  A    between atoms: C_6  and  C_37
    8  A    between atoms: C_6  and  C_40
    9  A    between atoms: C_11  and  N_12
   10  A    between atoms: C_11  and  N_34
   11  A    between atoms: C_14  and  O_20
   12  A    between atoms: C_16  and  C_21
   13  A    between atoms: C_16  and  C_28
   14  A    between atoms: C_16  and  N_30
   15  A    between atoms: N_18  and  N_30
   16  A    between atoms: S_19  and  O_20
   17  A    between atoms: C_22  and  C_26
   18  A    between atoms: C_25  and  C_26
   19  A    between atoms: N_31  and  N_34
   20  A    between atoms: N_31  and  C_37
                            x       y       z     vdW  Elec       q    Type
                         _______ _______ _______ _____ _____    ______ ____

>  <TORSDO>
F 20

$$$$
=
 OpenBabel10232412463D

 40 41  0  0  1  0  0  0  0  0999 V2000
  189.3590  176.4530  139.0980 C   0  0  1  0  0  3  0  0  0  0  0  0
  192.0730  177.6350  141.1430 C   0  0  0  0  0  3  0  0  0  0  0  0
  191.4660  177.4900  139.9510 N   0  0  0  0  0  0  0  0  0  0  0  0
  191.2910  177.0530  142.1180 C   0  0  2  0  0  3  0  0  0  0  0  0
  190.1560  176.5380  141.5340 C   0  0  0  0  0  3  0  0  0  0  0  0
  190.3120  176.8370  140.1920 C   0  0  0  0  0  0  0  0  0  0  0  0
  191.5980  177.0330  143.5770 C   0  0  0  0  0  2  0  0  0  0  0  0
  190.5570  179.1770  143.7780 O   0  0  0  0  0  1  0  0  0  0  0  0
  191.6920  178.4450  144.1310 C   0  0  0  0  0  2  0  0  0  0  0  0
  187.9910  177.7820  137.5340 C   0  0  0  0  0  0  0  0  0  0  0  0
  189.1770  178.0510  135.4930 O   0  0  0  0  0  1  0  0  0  0  0  0
  187.1630  178.5460  136.5060 C   0  0  0  0  0  2  0  0  0  0  0  0
  188.0160  177.5030  136.0330 C   0  0  2  0  0  3  0  0  0  0  0  0
  188.3880  177.5510  138.7860 C   0  0  0  0  0  0  0  0  0  0  0  0
  187.8790  178.3340  139.8670 N   0  0  0  0  0  2  0  0  0  0  0  0
  186.5350  178.7400  139.9260 N   0  0  0  0  0  2  0  0  0  0  0  0
  184.6440  178.6600  141.4930 C   0  0  0  0  0  1  0  0  0  0  0  0
  186.1410  178.8790  141.3260 C   0  0  1  0  0  3  0  0  0  0  0  0
  185.8280  178.5800  144.1550 O   0  0  0  0  0  0  0  0  0  0  0  0
  186.8950  177.9580  142.1690 N   0  0  0  0  0  2  0  0  0  0  0  0
  186.6640  177.8380  143.5750 C   0  0  0  0  0  0  0  0  0  0  0  0
  187.3990  176.8040  144.3540 C   0  0  0  0  0  2  0  0  0  0  0  0
  187.8500  177.3910  145.6760 C   0  0  0  0  0  2  0  0  0  0  0  0
  189.1820  176.9060  145.9940 N   0  0  0  0  0  2  0  0  0  0  0  0
  189.2600  177.9780  148.0690 O   0  0  0  0  0  0  0  0  0  0  0  0
  189.8300  177.2380  147.2210 C   0  0  0  0  0  0  0  0  0  0  0  0
  191.1880  176.7070  147.5040 C   0  0  0  0  0  1  0  0  0  0  0  0
  190.0590  176.0240  137.8910 N   0  0  0  0  0  2  0  0  0  0  0  0
  190.6490  174.7810  138.1670 N   0  0  0  0  0  2  0  0  0  0  0  0
  191.2130  174.2780  136.9220 C   0  0  1  0  0  3  0  0  0  0  0  0
  190.1010  173.8390  135.9770 C   0  0  0  0  0  2  0  0  0  0  0  0
  190.5810  172.7860  135.1010 N   0  0  0  0  0  1  0  0  0  0  0  0
  192.1120  175.3360  136.2850 C   0  0  0  0  0  2  0  0  0  0  0  0
  193.4980  174.7900  135.9600 C   0  0  0  0  0  2  0  0  0  0  0  0
  195.0170  176.7070  135.2770 C   0  0  0  0  0  1  0  0  0  0  0  0
  194.5710  175.7770  136.3990 C   0  0  2  0  0  3  0  0  0  0  0  0
  195.6300  175.1730  137.1200 O   0  0  0  0  0  0  0  0  0  0  0  0
  195.8860  172.9250  138.7300 O   0  0  0  0  0  0  0  0  0  0  0  0
  195.7260  175.2800  139.6850 O   0  0  0  0  0  1  0  0  0  0  0  0
  195.0970  174.4300  138.5890 S   0  0  1  0  0  0  0  0  0  0  0  0
  1 28  1  6  0  0  0
  1  6  1  0  0  0  0
  2  4  1  0  0  0  0
  3  6  1  0  0  0  0
  3  2  2  0  0  0  0
  4  7  1  1  0  0  0
  5  4  1  0  0  0  0
  6  5  2  0  0  0  0
  7  9  1  0  0  0  0
  8  9  1  0  0  0  0
 10 14  2  0  0  0  0
 12 10  1  0  0  0  0
 13 11  1  6  0  0  0
 13 12  1  0  0  0  0
 13 10  1  0  0  0  0
 14  1  1  0  0  0  0
 14 15  1  0  0  0  0
 15 16  1  0  0  0  0
 16 18  1  0  0  0  0
 18 17  1  6  0  0  0
 18 20  1  0  0  0  0
 20 21  1  0  0  0  0
 21 19  2  0  0  0  0
 21 22  1  0  0  0  0
 22 23  1  0  0  0  0
 23 24  1  0  0  0  0
 24 26  1  0  0  0  0
 26 27  1  0  0  0  0
 26 25  2  0  0  0  0
 28 29  1  0  0  0  0
 30 31  1  6  0  0  0
 30 29  1  0  0  0  0
 32 31  1  0  0  0  0
 33 30  1  0  0  0  0
 34 33  1  0  0  0  0
 34 36  1  0  0  0  0
 36 35  1  6  0  0  0
 36 37  1  0  0  0  0
 37 40  1  0  0  0  0
 40 38  2  6  0  0  0
 40 39  1  0  0  0  0
M  END
>  <MODEL>
5

>  <REMARK>
 VINA RESULT:      -6.2      3.941      8.892
  Name = 
  20 active torsions:
  status: ('A' for Active; 'I' for Inactive)
    1  A    between atoms: N_2  and  C_22
    2  A    between atoms: C_4  and  C_27
    3  A    between atoms: C_4  and  C_33
    4  A    between atoms: C_5  and  C_14
    5  A    between atoms: C_5  and  C_28
    6  A    between atoms: C_6  and  N_18
    7  A    between atoms: C_6  and  C_37
    8  A    between atoms: C_6  and  C_40
    9  A    between atoms: C_11  and  N_12
   10  A    between atoms: C_11  and  N_34
   11  A    between atoms: C_14  and  O_20
   12  A    between atoms: C_16  and  C_21
   13  A    between atoms: C_16  and  C_28
   14  A    between atoms: C_16  and  N_30
   15  A    between atoms: N_18  and  N_30
   16  A    between atoms: S_19  and  O_20
   17  A    between atoms: C_22  and  C_26
   18  A    between atoms: C_25  and  C_26
   19  A    between atoms: N_31  and  N_34
   20  A    between atoms: N_31  and  C_37
                            x       y       z     vdW  Elec       q    Type
                         _______ _______ _______ _____ _____    ______ ____

>  <TORSDO>
F 20

$$$$
=
 OpenBabel10232412463D

 40 41  0  0  1  0  0  0  0  0999 V2000
  187.8940  178.5830  141.2420 C   0  0  1  0  0  3  0  0  0  0  0  0
  189.0510  176.5400  143.9680 C   0  0  0  0  0  3  0  0  0  0  0  0
  188.2380  176.7630  142.9190 N   0  0  0  0  0  0  0  0  0  0  0  0
  189.9020  177.6140  144.1130 C   0  0  2  0  0  3  0  0  0  0  0  0
  189.6320  178.5370  143.1260 C   0  0  0  0  0  3  0  0  0  0  0  0
  188.5960  177.9600  142.4130 C   0  0  0  0  0  0  0  0  0  0  0  0
  190.9770  177.7360  145.1390 C   0  0  0  0  0  2  0  0  0  0  0  0
  191.9670  175.8460  146.2210 O   0  0  0  0  0  1  0  0  0  0  0  0
  190.8340  176.6610  146.2040 C   0  0  0  0  0  2  0  0  0  0  0  0
  189.4960  177.3100  139.8640 C   0  0  0  0  0  0  0  0  0  0  0  0
  191.6950  177.6740  140.6880 O   0  0  0  0  0  1  0  0  0  0  0  0
  190.5230  176.4950  139.0850 C   0  0  0  0  0  2  0  0  0  0  0  0
  190.7400  176.6790  140.4840 C   0  0  2  0  0  3  0  0  0  0  0  0
  188.3750  178.0280  139.9350 C   0  0  0  0  0  0  0  0  0  0  0  0
  187.5900  178.2710  138.7660 N   0  0  0  0  0  2  0  0  0  0  0  0
  188.1460  178.8180  137.5960 N   0  0  0  0  0  2  0  0  0  0  0  0
  189.2480  177.6370  135.7440 C   0  0  0  0  0  1  0  0  0  0  0  0
  187.9450  177.8810  136.4920 C   0  0  1  0  0  3  0  0  0  0  0  0
  185.9620  176.3210  135.1430 O   0  0  0  0  0  0  0  0  0  0  0  0
  187.3830  176.6250  136.9750 N   0  0  0  0  0  2  0  0  0  0  0  0
  186.4150  175.8790  136.2330 C   0  0  0  0  0  0  0  0  0  0  0  0
  185.9630  174.5550  136.7380 C   0  0  0  0  0  2  0  0  0  0  0  0
  184.7070  174.1340  136.0020 C   0  0  0  0  0  2  0  0  0  0  0  0
  184.5940  172.6860  136.0240 N   0  0  0  0  0  2  0  0  0  0  0  0
  182.4570  172.6990  136.9690 O   0  0  0  0  0  0  0  0  0  0  0  0
  183.4280  172.0310  136.5210 C   0  0  0  0  0  0  0  0  0  0  0  0
  183.3560  170.5470  136.5110 C   0  0  0  0  0  1  0  0  0  0  0  0
  186.4430  178.4640  141.3510 N   0  0  0  0  0  2  0  0  0  0  0  0
  186.0080  179.4440  142.2560 N   0  0  0  0  0  2  0  0  0  0  0  0
  185.1270  178.7930  143.2160 C   0  0  1  0  0  3  0  0  0  0  0  0
  184.5640  179.8150  144.1960 C   0  0  0  0  0  2  0  0  0  0  0  0
  184.1030  179.1480  145.4000 N   0  0  0  0  0  1  0  0  0  0  0  0
  184.0180  178.0370  142.4860 C   0  0  0  0  0  2  0  0  0  0  0  0
  182.7580  178.8810  142.3280 C   0  0  0  0  0  2  0  0  0  0  0  0
  180.7050  178.0570  141.0810 C   0  0  0  0  0  1  0  0  0  0  0  0
  182.1150  178.6230  140.9720 C   0  0  2  0  0  3  0  0  0  0  0  0
  182.9610  177.9300  140.0720 O   0  0  0  0  0  0  0  0  0  0  0  0
  184.4030  180.1520  139.2380 O   0  0  0  0  0  1  0  0  0  0  0  0
  184.3340  177.9860  137.9020 O   0  0  0  0  0  0  0  0  0  0  0  0
  183.3970  178.8860  138.6970 S   0  0  1  0  0  0  0  0  0  0  0  0
  1 14  1  6  0  0  0
  1 28  1  0  0  0  0
  1  6  1  0  0  0  0
  2  4  1  0  0  0  0
  3  2  2  0  0  0  0
  4  7  1  6  0  0  0
  5  4  1  0  0  0  0
  6  3  1  0  0  0  0
  6  5  2  0  0  0  0
  7  9  1  0  0  0  0
  9  8  1  0  0  0  0
 10 14  2  0  0  0  0
 10 13  1  0  0  0  0
 12 10  1  0  0  0  0
 12 13  1  0  0  0  0
 13 11  1  6  0  0  0
 15 14  1  0  0  0  0
 16 15  1  0  0  0  0
 18 17  1  1  0  0  0
 18 20  1  0  0  0  0
 18 16  1  0  0  0  0
 19 21  2  0  0  0  0
 21 22  1  0  0  0  0
 21 20  1  0  0  0  0
 23 24  1  0  0  0  0
 23 22  1  0  0  0  0
 24 26  1  0  0  0  0
 26 25  2  0  0  0  0
 27 26  1  0  0  0  0
 28 29  1  0  0  0  0
 29 30  1  0  0  0  0
 30 33  1  6  0  0  0
 30 31  1  0  0  0  0
 31 32  1  0  0  0  0
 34 33  1  0  0  0  0
 36 35  1  1  0  0  0
 36 34  1  0  0  0  0
 37 36  1  0  0  0  0
 40 39  2  6  0  0  0
 40 38  1  0  0  0  0
 40 37  1  0  0  0  0
M  END
>  <MODEL>
6

>  <REMARK>
 VINA RESULT:      -6.0      3.318      7.970
  Name = 
  20 active torsions:
  status: ('A' for Active; 'I' for Inactive)
    1  A    between atoms: N_2  and  C_22
    2  A    between atoms: C_4  and  C_27
    3  A    between atoms: C_4  and  C_33
    4  A    between atoms: C_5  and  C_14
    5  A    between atoms: C_5  and  C_28
    6  A    between atoms: C_6  and  N_18
    7  A    between atoms: C_6  and  C_37
    8  A    between atoms: C_6  and  C_40
    9  A    between atoms: C_11  and  N_12
   10  A    between atoms: C_11  and  N_34
   11  A    between atoms: C_14  and  O_20
   12  A    between atoms: C_16  and  C_21
   13  A    between atoms: C_16  and  C_28
   14  A    between atoms: C_16  and  N_30
   15  A    between atoms: N_18  and  N_30
   16  A    between atoms: S_19  and  O_20
   17  A    between atoms: C_22  and  C_26
   18  A    between atoms: C_25  and  C_26
   19  A    between atoms: N_31  and  N_34
   20  A    between atoms: N_31  and  C_37
                            x       y       z     vdW  Elec       q    Type
                         _______ _______ _______ _____ _____    ______ ____

>  <TORSDO>
F 20

$$$$
=
 OpenBabel10232412463D

 40 41  0  0  1  0  0  0  0  0999 V2000
  188.9810  178.1920  140.3920 C   0  0  1  0  0  3  0  0  0  0  0  0
  187.3040  176.9230  143.3120 C   0  0  0  0  0  3  0  0  0  0  0  0
  188.3270  176.9150  142.4380 N   0  0  0  0  0  0  0  0  0  0  0  0
  186.4160  177.9140  142.9520 C   0  0  2  0  0  3  0  0  0  0  0  0
  186.8910  178.5570  141.8310 C   0  0  0  0  0  3  0  0  0  0  0  0
  188.0780  177.9020  141.5550 C   0  0  0  0  0  0  0  0  0  0  0  0
  185.1690  178.2680  143.6890 C   0  0  0  0  0  2  0  0  0  0  0  0
  182.9800  179.1680  143.3370 O   0  0  0  0  0  1  0  0  0  0  0  0
  184.0010  178.4320  142.7310 C   0  0  0  0  0  2  0  0  0  0  0  0
  191.0220  176.9960  139.6930 C   0  0  0  0  0  0  0  0  0  0  0  0
  190.4110  175.1050  138.3910 O   0  0  0  0  0  1  0  0  0  0  0  0
  192.2520  176.2520  139.1820 C   0  0  0  0  0  2  0  0  0  0  0  0
  191.1060  176.3110  138.3320 C   0  0  2  0  0  3  0  0  0  0  0  0
  190.3770  177.6970  140.6260 C   0  0  0  0  0  0  0  0  0  0  0  0
  191.0090  178.0120  141.8680 N   0  0  0  0  0  2  0  0  0  0  0  0
  191.3860  177.0160  142.7850 N   0  0  0  0  0  2  0  0  0  0  0  0
  191.6230  179.1360  144.0060 C   0  0  0  0  0  1  0  0  0  0  0  0
  191.5290  177.6200  144.1090 C   0  0  1  0  0  3  0  0  0  0  0  0
  191.7640  176.9110  146.8710 O   0  0  0  0  0  0  0  0  0  0  0  0
  190.4270  177.2280  144.9790 N   0  0  0  0  0  2  0  0  0  0  0  0
  190.6110  176.9160  146.3620 C   0  0  0  0  0  0  0  0  0  0  0  0
  189.4270  176.6250  147.2140 C   0  0  0  0  0  2  0  0  0  0  0  0
  188.6290  177.8960  147.4260 C   0  0  0  0  0  2  0  0  0  0  0  0
  187.2650  177.6950  146.9710 N   0  0  0  0  0  2  0  0  0  0  0  0
  186.4960  179.7190  147.8510 O   0  0  0  0  0  0  0  0  0  0  0  0
  186.2420  178.6590  147.2170 C   0  0  0  0  0  0  0  0  0  0  0  0
  184.8630  178.4130  146.7200 C   0  0  0  0  0  1  0  0  0  0  0  0
  188.4470  177.6610  139.1420 N   0  0  0  0  0  2  0  0  0  0  0  0
  187.6770  178.6740  138.5500 N   0  0  0  0  0  2  0  0  0  0  0  0
  187.1480  178.1480  137.3000 C   0  0  1  0  0  3  0  0  0  0  0  0
  188.2870  177.7620  136.3630 C   0  0  0  0  0  2  0  0  0  0  0  0
  189.3530  178.7420  136.4480 N   0  0  0  0  0  1  0  0  0  0  0  0
  186.2180  176.9670  137.5760 C   0  0  0  0  0  2  0  0  0  0  0  0
  184.7740  177.2730  137.1940 C   0  0  0  0  0  2  0  0  0  0  0  0
  182.5660  176.0850  137.5930 C   0  0  0  0  0  1  0  0  0  0  0  0
  183.8180  176.6820  138.2210 C   0  0  2  0  0  3  0  0  0  0  0  0
  183.5740  177.5410  139.3210 O   0  0  0  0  0  0  0  0  0  0  0  0
  182.0130  179.8120  139.6660 O   0  0  0  0  0  1  0  0  0  0  0  0
  184.5500  179.9110  139.4890 O   0  0  0  0  0  0  0  0  0  0  0  0
  183.3730  179.1930  138.8440 S   0  0  1  0  0  0  0  0  0  0  0  0
  1 28  1  6  0  0  0
  1 14  1  0  0  0  0
  1  6  1  0  0  0  0
  3  2  2  0  0  0  0
  4  2  1  0  0  0  0
  4  7  1  1  0  0  0
  5  4  1  0  0  0  0
  6  5  2  0  0  0  0
  6  3  1  0  0  0  0
  9  8  1  0  0  0  0
  9  7  1  0  0  0  0
 10 14  2  0  0  0  0
 12 10  1  0  0  0  0
 13 11  1  1  0  0  0
 13 12  1  0  0  0  0
 13 10  1  0  0  0  0
 14 15  1  0  0  0  0
 15 16  1  0  0  0  0
 16 18  1  0  0  0  0
 18 17  1  6  0  0  0
 18 20  1  0  0  0  0
 20 21  1  0  0  0  0
 21 19  2  0  0  0  0
 21 22  1  0  0  0  0
 22 23  1  0  0  0  0
 24 26  1  0  0  0  0
 24 23  1  0  0  0  0
 26 25  2  0  0  0  0
 27 26  1  0  0  0  0
 29 28  1  0  0  0  0
 30 31  1  6  0  0  0
 30 33  1  0  0  0  0
 30 29  1  0  0  0  0
 31 32  1  0  0  0  0
 34 33  1  0  0  0  0
 34 36  1  0  0  0  0
 36 35  1  6  0  0  0
 36 37  1  0  0  0  0
 40 37  1  0  0  0  0
 40 39  2  1  0  0  0
 40 38  1  0  0  0  0
M  END
>  <MODEL>
7

>  <REMARK>
 VINA RESULT:      -5.9      3.460      7.595
  Name = 
  20 active torsions:
  status: ('A' for Active; 'I' for Inactive)
    1  A    between atoms: N_2  and  C_22
    2  A    between atoms: C_4  and  C_27
    3  A    between atoms: C_4  and  C_33
    4  A    between atoms: C_5  and  C_14
    5  A    between atoms: C_5  and  C_28
    6  A    between atoms: C_6  and  N_18
    7  A    between atoms: C_6  and  C_37
    8  A    between atoms: C_6  and  C_40
    9  A    between atoms: C_11  and  N_12
   10  A    between atoms: C_11  and  N_34
   11  A    between atoms: C_14  and  O_20
   12  A    between atoms: C_16  and  C_21
   13  A    between atoms: C_16  and  C_28
   14  A    between atoms: C_16  and  N_30
   15  A    between atoms: N_18  and  N_30
   16  A    between atoms: S_19  and  O_20
   17  A    between atoms: C_22  and  C_26
   18  A    between atoms: C_25  and  C_26
   19  A    between atoms: N_31  and  N_34
   20  A    between atoms: N_31  and  C_37
                            x       y       z     vdW  Elec       q    Type
                         _______ _______ _______ _____ _____    ______ ____

>  <TORSDO>
F 20

$$$$
=
 OpenBabel10232412463D

 40 41  0  0  1  0  0  0  0  0999 V2000
  188.8580  177.3490  140.4870 C   0  0  1  0  0  3  0  0  0  0  0  0
  190.0720  178.3280  143.7290 C   0  0  0  0  0  3  0  0  0  0  0  0
  189.3420  178.5540  142.6210 N   0  0  0  0  0  0  0  0  0  0  0  0
  190.6870  177.0990  143.6180 C   0  0  2  0  0  3  0  0  0  0  0  0
  190.3310  176.5260  142.4170 C   0  0  0  0  0  3  0  0  0  0  0  0
  189.4950  177.4660  141.8400 C   0  0  0  0  0  0  0  0  0  0  0  0
  191.5550  176.4680  144.6530 C   0  0  0  0  0  2  0  0  0  0  0  0
  192.4050  174.3400  145.3390 O   0  0  0  0  0  1  0  0  0  0  0  0
  191.9780  175.0720  144.2290 C   0  0  0  0  0  2  0  0  0  0  0  0
  186.8700  178.1740  139.2820 C   0  0  0  0  0  0  0  0  0  0  0  0
  187.5400  179.0540  137.1790 O   0  0  0  0  0  1  0  0  0  0  0  0
  185.6690  178.6430  138.4670 C   0  0  0  0  0  2  0  0  0  0  0  0
  186.7630  178.0560  137.7640 C   0  0  2  0  0  3  0  0  0  0  0  0
  187.5130  178.0080  140.4380 C   0  0  0  0  0  0  0  0  0  0  0  0
  186.9240  178.4390  141.6670 N   0  0  0  0  0  2  0  0  0  0  0  0
  186.0220  179.5150  141.7240 N   0  0  0  0  0  2  0  0  0  0  0  0
  184.0400  178.0650  141.8120 C   0  0  0  0  0  1  0  0  0  0  0  0
  184.8670  179.1240  142.5290 C   0  0  1  0  0  3  0  0  0  0  0  0
  183.3620  179.3850  144.9490 O   0  0  0  0  0  0  0  0  0  0  0  0
  185.2870  178.6510  143.8420 N   0  0  0  0  0  2  0  0  0  0  0  0
  184.4690  178.7860  145.0070 C   0  0  0  0  0  0  0  0  0  0  0  0
  184.9180  178.1880  146.2930 C   0  0  0  0  0  2  0  0  0  0  0  0
  186.1850  178.8770  146.7590 C   0  0  0  0  0  2  0  0  0  0  0  0
  187.3120  177.9710  146.6150 N   0  0  0  0  0  2  0  0  0  0  0  0
  188.1580  178.4180  148.7470 O   0  0  0  0  0  0  0  0  0  0  0  0
  188.2640  177.7860  147.6610 C   0  0  0  0  0  0  0  0  0  0  0  0
  189.3920  176.8380  147.4700 C   0  0  0  0  0  1  0  0  0  0  0  0
  189.7240  177.8640  139.4300 N   0  0  0  0  0  2  0  0  0  0  0  0
  190.0570  176.7850  138.5970 N   0  0  0  0  0  2  0  0  0  0  0  0
  191.4590  176.9320  138.2310 C   0  0  1  0  0  3  0  0  0  0  0  0
  192.3550  176.5610  139.4080 C   0  0  0  0  0  2  0  0  0  0  0  0
  193.4810  177.4730  139.4810 N   0  0  0  0  0  1  0  0  0  0  0  0
  191.7730  176.0910  136.9940 C   0  0  0  0  0  2  0  0  0  0  0  0
  192.1490  174.6590  137.3550 C   0  0  0  0  0  2  0  0  0  0  0  0
  193.6870  172.7910  136.5820 C   0  0  0  0  0  1  0  0  0  0  0  0
  193.4940  174.2940  136.7410 C   0  0  2  0  0  3  0  0  0  0  0  0
  194.5860  174.9690  137.3380 O   0  0  0  0  0  0  0  0  0  0  0  0
  196.0190  176.6020  135.6080 O   0  0  0  0  0  0  0  0  0  0  0  0
  197.1530  175.0320  137.2600 O   0  0  0  0  0  1  0  0  0  0  0  0
  195.9700  175.0450  136.3010 S   0  0  1  0  0  0  0  0  0  0  0  0
  1 28  1  6  0  0  0
  1  6  1  0  0  0  0
  3  2  2  0  0  0  0
  4  2  1  0  0  0  0
  4  7  1  1  0  0  0
  5  4  1  0  0  0  0
  6  5  2  0  0  0  0
  6  3  1  0  0  0  0
  9  7  1  0  0  0  0
  9  8  1  0  0  0  0
 10 14  2  0  0  0  0
 12 10  1  0  0  0  0
 13 11  1  6  0  0  0
 13 12  1  0  0  0  0
 13 10  1  0  0  0  0
 14  1  1  0  0  0  0
 14 15  1  0  0  0  0
 15 16  1  0  0  0  0
 16 18  1  0  0  0  0
 18 17  1  6  0  0  0
 18 20  1  0  0  0  0
 19 21  2  0  0  0  0
 20 21  1  0  0  0  0
 21 22  1  0  0  0  0
 22 23  1  0  0  0  0
 24 23  1  0  0  0  0
 24 26  1  0  0  0  0
 26 25  2  0  0  0  0
 27 26  1  0  0  0  0
 29 28  1  0  0  0  0
 30 33  1  6  0  0  0
 30 29  1  0  0  0  0
 30 31  1  0  0  0  0
 31 32  1  0  0  0  0
 33 34  1  0  0  0  0
 36 35  1  1  0  0  0
 36 37  1  0  0  0  0
 36 34  1  0  0  0  0
 40 38  2  1  0  0  0
 40 39  1  0  0  0  0
 40 37  1  0  0  0  0
M  END
>  <MODEL>
8

>  <REMARK>
 VINA RESULT:      -5.9      3.856      9.288
  Name = 
  20 active torsions:
  status: ('A' for Active; 'I' for Inactive)
    1  A    between atoms: N_2  and  C_22
    2  A    between atoms: C_4  and  C_27
    3  A    between atoms: C_4  and  C_33
    4  A    between atoms: C_5  and  C_14
    5  A    between atoms: C_5  and  C_28
    6  A    between atoms: C_6  and  N_18
    7  A    between atoms: C_6  and  C_37
    8  A    between atoms: C_6  and  C_40
    9  A    between atoms: C_11  and  N_12
   10  A    between atoms: C_11  and  N_34
   11  A    between atoms: C_14  and  O_20
   12  A    between atoms: C_16  and  C_21
   13  A    between atoms: C_16  and  C_28
   14  A    between atoms: C_16  and  N_30
   15  A    between atoms: N_18  and  N_30
   16  A    between atoms: S_19  and  O_20
   17  A    between atoms: C_22  and  C_26
   18  A    between atoms: C_25  and  C_26
   19  A    between atoms: N_31  and  N_34
   20  A    between atoms: N_31  and  C_37
                            x       y       z     vdW  Elec       q    Type
                         _______ _______ _______ _____ _____    ______ ____

>  <TORSDO>
F 20

$$$$
=
 OpenBabel10232412463D

 40 41  0  0  1  0  0  0  0  0999 V2000
  186.3170  178.2710  140.4880 C   0  0  1  0  0  3  0  0  0  0  0  0
  189.1110  178.6850  138.2600 C   0  0  0  0  0  3  0  0  0  0  0  0
  188.3660  179.0790  139.3090 N   0  0  0  0  0  2  0  0  0  0  0  0
  188.5730  177.5280  137.7370 C   0  0  0  0  0  0  0  0  0  0  0  0
  187.4680  177.1730  138.4780 C   0  0  0  0  0  3  0  0  0  0  0  0
  187.3850  178.1630  139.4400 C   0  0  0  0  0  0  0  0  0  0  0  0
  189.1290  176.7570  136.5880 C   0  0  0  0  0  2  0  0  0  0  0  0
  188.2270  177.6440  134.5580 O   0  0  0  0  0  1  0  0  0  0  0  0
  189.3510  177.6600  135.3860 C   0  0  0  0  0  2  0  0  0  0  0  0
  186.0680  178.1400  142.9390 C   0  0  0  0  0  0  0  0  0  0  0  0
  184.5200  179.7930  143.6560 O   0  0  0  0  0  1  0  0  0  0  0  0
  185.8290  178.0630  144.4440 C   0  0  0  0  0  2  0  0  0  0  0  0
  184.7250  178.4160  143.6100 C   0  0  2  0  0  3  0  0  0  0  0  0
  186.8570  178.0450  141.8680 C   0  0  0  0  0  0  0  0  0  0  0  0
  188.2380  177.7050  142.0090 N   0  0  0  0  0  2  0  0  0  0  0  0
  188.6530  176.4170  142.3880 N   0  0  0  0  0  2  0  0  0  0  0  0
  190.8150  177.2800  141.6010 C   0  0  0  0  0  1  0  0  0  0  0  0
  190.0920  176.4380  142.6430 C   0  0  1  0  0  3  0  0  0  0  0  0
  191.9870  175.3030  144.4620 O   0  0  0  0  0  0  0  0  0  0  0  0
  190.3730  176.9270  143.9880 N   0  0  0  0  0  2  0  0  0  0  0  0
  191.3580  176.3300  144.8340 C   0  0  0  0  0  0  0  0  0  0  0  0
  191.6640  176.9450  146.1540 C   0  0  0  0  0  2  0  0  0  0  0  0
  190.8850  176.2300  147.2400 C   0  0  0  0  0  2  0  0  0  0  0  0
  189.4810  176.5920  147.1490 N   0  0  0  0  0  2  0  0  0  0  0  0
  189.6840  178.4160  148.5940 O   0  0  0  0  0  0  0  0  0  0  0  0
  188.9460  177.7100  147.8560 C   0  0  0  0  0  0  0  0  0  0  0  0
  187.5060  178.0460  147.7200 C   0  0  0  0  0  1  0  0  0  0  0  0
  185.6060  179.5430  140.4140 N   0  0  0  0  0  2  0  0  0  0  0  0
  184.8580  179.5380  139.2260 N   0  0  0  0  0  2  0  0  0  0  0  0
  183.8530  178.4910  139.3470 C   0  0  1  0  0  3  0  0  0  0  0  0
  182.5640  179.0580  139.9320 C   0  0  0  0  0  2  0  0  0  0  0  0
  182.0490  180.1070  139.0710 N   0  0  0  0  0  1  0  0  0  0  0  0
  183.6160  177.8270  137.9920 C   0  0  0  0  0  2  0  0  0  0  0  0
  183.7720  176.3120  138.0600 C   0  0  0  0  0  2  0  0  0  0  0  0
  184.9710  176.9170  135.9050 C   0  0  0  0  0  1  0  0  0  0  0  0
  184.4860  175.7970  136.8170 C   0  0  2  0  0  3  0  0  0  0  0  0
  183.7850  174.7600  136.1560 O   0  0  0  0  0  0  0  0  0  0  0  0
  183.1600  172.0540  136.1230 O   0  0  0  0  0  0  0  0  0  0  0  0
  185.0120  173.0120  137.5830 O   0  0  0  0  0  1  0  0  0  0  0  0
  183.5940  173.3500  137.1420 S   0  0  1  0  0  0  0  0  0  0  0  0
  1 28  1  1  0  0  0
  1 14  1  0  0  0  0
  2  3  1  0  0  0  0
  3  6  1  0  0  0  0
  4  2  2  0  0  0  0
  4  5  1  0  0  0  0
  5  6  2  0  0  0  0
  6  1  1  0  0  0  0
  7  4  1  0  0  0  0
  8  9  1  0  0  0  0
  9  7  1  0  0  0  0
 10 13  1  0  0  0  0
 10 12  1  0  0  0  0
 13 11  1  1  0  0  0
 13 12  1  0  0  0  0
 14 15  1  0  0  0  0
 14 10  2  0  0  0  0
 15 16  1  0  0  0  0
 16 18  1  0  0  0  0
 18 17  1  6  0  0  0
 18 20  1  0  0  0  0
 19 21  2  0  0  0  0
 20 21  1  0  0  0  0
 21 22  1  0  0  0  0
 22 23  1  0  0  0  0
 24 23  1  0  0  0  0
 24 26  1  0  0  0  0
 26 25  2  0  0  0  0
 27 26  1  0  0  0  0
 29 30  1  0  0  0  0
 29 28  1  0  0  0  0
 30 33  1  6  0  0  0
 30 31  1  0  0  0  0
 32 31  1  0  0  0  0
 33 34  1  0  0  0  0
 36 35  1  6  0  0  0
 36 34  1  0  0  0  0
 37 36  1  0  0  0  0
 37 40  1  0  0  0  0
 40 38  2  6  0  0  0
 40 39  1  0  0  0  0
M  END
>  <MODEL>
9

>  <REMARK>
 VINA RESULT:      -5.8      3.147      7.266
  Name = 
  20 active torsions:
  status: ('A' for Active; 'I' for Inactive)
    1  A    between atoms: N_2  and  C_22
    2  A    between atoms: C_4  and  C_27
    3  A    between atoms: C_4  and  C_33
    4  A    between atoms: C_5  and  C_14
    5  A    between atoms: C_5  and  C_28
    6  A    between atoms: C_6  and  N_18
    7  A    between atoms: C_6  and  C_37
    8  A    between atoms: C_6  and  C_40
    9  A    between atoms: C_11  and  N_12
   10  A    between atoms: C_11  and  N_34
   11  A    between atoms: C_14  and  O_20
   12  A    between atoms: C_16  and  C_21
   13  A    between atoms: C_16  and  C_28
   14  A    between atoms: C_16  and  N_30
   15  A    between atoms: N_18  and  N_30
   16  A    between atoms: S_19  and  O_20
   17  A    between atoms: C_22  and  C_26
   18  A    between atoms: C_25  and  C_26
   19  A    between atoms: N_31  and  N_34
   20  A    between atoms: N_31  and  C_37
                            x       y       z     vdW  Elec       q    Type
                         _______ _______ _______ _____ _____    ______ ____

>  <TORSDO>
F 20

$$$$
