=
 OpenBabel10232411133D

 33 36  0  0  1  0  0  0  0  0999 V2000
  188.5770  177.7430  140.2680 C   0  0  1  0  0  3  0  0  0  0  0  0
  188.9350  178.9240  142.3200 O   0  0  0  0  0  1  0  0  0  0  0  0
  189.3490  177.8040  141.5910 C   0  0  1  0  0  3  0  0  0  0  0  0
  189.6910  177.0560  144.8620 C   0  0  0  0  0  0  0  0  0  0  0  0
  189.5110  177.8490  146.0800 C   0  0  0  0  0  2  0  0  0  0  0  0
  190.8740  176.5570  144.6580 N   0  0  0  0  0  2  0  0  0  0  0  0
  191.1900  175.7880  143.4900 C   0  0  0  0  0  3  0  0  0  0  0  0
  186.5830  177.2610  145.2280 C   0  0  0  0  0  3  0  0  0  0  0  0
  188.3800  178.1510  146.7110 C   0  0  0  0  0  3  0  0  0  0  0  0
  187.0030  177.7610  146.3880 C   0  0  0  0  0  0  0  0  0  0  0  0
  189.1330  176.5300  142.4300 C   0  0  2  0  0  3  0  0  0  0  0  0
  188.6550  176.8690  143.8210 C   0  0  0  0  0  0  0  0  0  0  0  0
  186.0180  177.9990  147.3860 N   0  0  0  0  0  1  0  0  0  0  0  0
  187.3390  176.9460  144.0100 C   0  0  0  0  0  3  0  0  0  0  0  0
  190.3670  175.7380  142.4860 N   0  0  0  0  0  0  0  0  0  0  0  0
  186.2380  178.0560  140.4990 N   0  0  0  0  0  0  0  0  0  0  0  0
  187.3860  178.5790  140.3420 N   0  0  0  0  0  0  0  0  0  0  0  0
  184.5220  179.4390  139.3570 C   0  0  0  0  0  1  0  0  0  0  0  0
  185.0730  178.8390  140.5710 N   0  0  0  0  0  0  0  0  0  0  0  0
  182.3370  178.9870  143.2960 C   0  0  0  0  0  2  0  0  0  0  0  0
  183.0260  178.4710  142.0340 C   0  0  0  0  0  2  0  0  0  0  0  0
  185.0970  179.5590  142.8740 C   0  0  0  0  0  3  0  0  0  0  0  0
  184.4780  179.8070  144.2220 C   0  0  0  0  0  2  0  0  0  0  0  0
  184.4250  179.0180  141.8430 C   0  0  0  0  0  0  0  0  0  0  0  0
  183.2930  178.8850  144.4750 C   0  0  0  0  0  2  0  0  0  0  0  0
  189.4230  178.2060  139.1740 N   0  0  0  0  0  2  0  0  0  0  0  0
  191.4870  175.6220  136.5310 C   0  0  0  0  0  0  0  0  0  0  0  0
  190.4320  176.4130  136.0670 C   0  0  0  0  0  3  0  0  0  0  0  0
  191.1930  176.5350  138.7550 C   0  0  0  0  0  3  0  0  0  0  0  0
  190.1290  177.3260  138.2940 C   0  0  0  0  0  0  0  0  0  0  0  0
  191.8680  175.6840  137.8740 C   0  0  0  0  0  3  0  0  0  0  0  0
  189.7560  177.2640  136.9470 C   0  0  0  0  0  3  0  0  0  0  0  0
  192.1560  174.7770  135.6580 O   0  0  0  0  0  1  0  0  0  0  0  0
  1 26  1  6  0  0  0
  1 17  1  0  0  0  0
  1  3  1  0  0  0  0
  3  2  1  1  0  0  0
  4  5  1  0  0  0  0
  5  9  1  0  0  0  0
  6  4  1  0  0  0  0
  7  6  1  0  0  0  0
  8 10  1  0  0  0  0
 10  9  2  0  0  0  0
 10 13  1  0  0  0  0
 11  3  1  6  0  0  0
 11 15  1  0  0  0  0
 11 12  1  0  0  0  0
 12 14  1  0  0  0  0
 12  4  2  0  0  0  0
 14  8  2  0  0  0  0
 15  7  2  0  0  0  0
 16 19  1  0  0  0  0
 17 16  2  0  0  0  0
 18 19  1  0  0  0  0
 19 24  1  0  0  0  0
 20 25  1  0  0  0  0
 21 20  1  0  0  0  0
 22 23  1  0  0  0  0
 23 25  1  0  0  0  0
 24 21  1  0  0  0  0
 24 22  2  0  0  0  0
 27 31  1  0  0  0  0
 28 27  2  0  0  0  0
 28 32  1  0  0  0  0
 30 29  1  0  0  0  0
 30 26  1  0  0  0  0
 31 29  2  0  0  0  0
 32 30  2  0  0  0  0
 33 27  1  0  0  0  0
M  END
>  <MODEL>
1

>  <REMARK>
 VINA RESULT:      -8.6      0.000      0.000
  Name = 
  7 active torsions:
  status: ('A' for Active; 'I' for Inactive)
    1  A    between atoms: N_6  and  N_24
    2  A    between atoms: N_6  and  C_26
    3  A    between atoms: C_17  and  C_23
    4  A    between atoms: C_18  and  N_19
    5  A    between atoms: N_19  and  C_22
    6  A    between atoms: C_22  and  C_23
    7  A    between atoms: C_22  and  N_25
                            x       y       z     vdW  Elec       q    Type
                         _______ _______ _______ _____ _____    ______ ____

>  <TORSDO>
F 7

$$$$
=
 OpenBabel10232411133D

 33 36  0  0  1  0  0  0  0  0999 V2000
  188.3240  178.5040  141.9140 C   0  0  1  0  0  3  0  0  0  0  0  0
  190.0230  179.0210  143.5210 O   0  0  0  0  0  1  0  0  0  0  0  0
  189.6090  178.0420  142.6110 C   0  0  1  0  0  3  0  0  0  0  0  0
  190.6830  176.7840  145.5500 C   0  0  0  0  0  0  0  0  0  0  0  0
  190.9840  177.4080  146.8400 C   0  0  0  0  0  2  0  0  0  0  0  0
  191.6580  176.1550  144.9620 N   0  0  0  0  0  2  0  0  0  0  0  0
  191.5030  175.5270  143.6830 C   0  0  0  0  0  3  0  0  0  0  0  0
  187.8780  177.3780  146.8220 C   0  0  0  0  0  3  0  0  0  0  0  0
  190.1390  177.7740  147.8000 C   0  0  0  0  0  3  0  0  0  0  0  0
  188.6790  177.6370  147.8530 C   0  0  0  0  0  0  0  0  0  0  0  0
  189.4030  176.7040  143.3450 C   0  0  2  0  0  3  0  0  0  0  0  0
  189.3880  176.9010  144.8420 C   0  0  0  0  0  0  0  0  0  0  0  0
  188.0600  177.8660  149.1140 N   0  0  0  0  0  1  0  0  0  0  0  0
  188.2080  177.1390  145.4120 C   0  0  0  0  0  3  0  0  0  0  0  0
  190.4440  175.7420  142.9620 N   0  0  0  0  0  0  0  0  0  0  0  0
  189.4840  177.8910  139.9390 N   0  0  0  0  0  0  0  0  0  0  0  0
  188.5120  178.5160  140.4690 N   0  0  0  0  0  0  0  0  0  0  0  0
  188.9530  178.8230  137.7020 C   0  0  0  0  0  1  0  0  0  0  0  0
  189.6910  177.8880  138.5500 N   0  0  0  0  0  0  0  0  0  0  0  0
  192.9590  175.9090  137.9680 C   0  0  0  0  0  2  0  0  0  0  0  0
  191.8850  176.6250  138.7870 C   0  0  0  0  0  2  0  0  0  0  0  0
  190.3920  176.3620  136.8170 C   0  0  0  0  0  3  0  0  0  0  0  0
  191.3570  175.4220  136.1490 C   0  0  0  0  0  2  0  0  0  0  0  0
  190.6490  176.9760  137.9840 C   0  0  0  0  0  0  0  0  0  0  0  0
  192.3190  174.7980  137.1510 C   0  0  0  0  0  2  0  0  0  0  0  0
  187.2240  177.6050  142.2490 N   0  0  0  0  0  2  0  0  0  0  0  0
  183.3320  178.9490  143.2290 C   0  0  0  0  0  0  0  0  0  0  0  0
  184.2850  178.7510  144.2320 C   0  0  0  0  0  3  0  0  0  0  0  0
  184.9460  178.2620  141.5600 C   0  0  0  0  0  3  0  0  0  0  0  0
  185.9040  178.0560  142.5640 C   0  0  0  0  0  0  0  0  0  0  0  0
  183.6620  178.7060  141.8930 C   0  0  0  0  0  3  0  0  0  0  0  0
  185.5690  178.3070  143.8990 C   0  0  0  0  0  3  0  0  0  0  0  0
  182.0580  179.3880  143.5600 O   0  0  0  0  0  1  0  0  0  0  0  0
  1 17  1  6  0  0  0
  1 26  1  0  0  0  0
  1  3  1  0  0  0  0
  3  2  1  1  0  0  0
  4  5  1  0  0  0  0
  5  9  1  0  0  0  0
  6  4  1  0  0  0  0
  7  6  1  0  0  0  0
  8 10  1  0  0  0  0
  9 10  2  0  0  0  0
 10 13  1  0  0  0  0
 11  3  1  6  0  0  0
 11 12  1  0  0  0  0
 12 14  1  0  0  0  0
 12  4  2  0  0  0  0
 14  8  2  0  0  0  0
 15 11  1  0  0  0  0
 15  7  2  0  0  0  0
 16 17  2  0  0  0  0
 18 19  1  0  0  0  0
 19 16  1  0  0  0  0
 20 21  1  0  0  0  0
 22 24  2  0  0  0  0
 23 22  1  0  0  0  0
 23 25  1  0  0  0  0
 24 19  1  0  0  0  0
 24 21  1  0  0  0  0
 25 20  1  0  0  0  0
 26 30  1  0  0  0  0
 27 33  1  0  0  0  0
 27 28  1  0  0  0  0
 29 31  1  0  0  0  0
 29 30  2  0  0  0  0
 30 32  1  0  0  0  0
 31 27  2  0  0  0  0
 32 28  2  0  0  0  0
M  END
>  <MODEL>
2

>  <REMARK>
 VINA RESULT:      -8.4      2.094      6.602
  Name = 
  7 active torsions:
  status: ('A' for Active; 'I' for Inactive)
    1  A    between atoms: N_6  and  N_24
    2  A    between atoms: N_6  and  C_26
    3  A    between atoms: C_17  and  C_23
    4  A    between atoms: C_18  and  N_19
    5  A    between atoms: N_19  and  C_22
    6  A    between atoms: C_22  and  C_23
    7  A    between atoms: C_22  and  N_25
                            x       y       z     vdW  Elec       q    Type
                         _______ _______ _______ _____ _____    ______ ____

>  <TORSDO>
F 7

$$$$
=
 OpenBabel10232411133D

 33 36  0  0  1  0  0  0  0  0999 V2000
  188.1480  178.6480  141.7250 C   0  0  1  0  0  3  0  0  0  0  0  0
  189.8820  179.0520  143.3270 O   0  0  0  0  0  1  0  0  0  0  0  0
  189.4230  178.1180  142.3920 C   0  0  1  0  0  3  0  0  0  0  0  0
  190.5310  176.7060  145.2480 C   0  0  0  0  0  0  0  0  0  0  0  0
  190.9060  177.2700  146.5470 C   0  0  0  0  0  2  0  0  0  0  0  0
  191.4530  176.0520  144.6050 N   0  0  0  0  0  2  0  0  0  0  0  0
  191.2240  175.4780  143.3120 C   0  0  0  0  0  3  0  0  0  0  0  0
  187.8040  177.3920  146.6380 C   0  0  0  0  0  3  0  0  0  0  0  0
  190.1130  177.6420  147.5470 C   0  0  0  0  0  3  0  0  0  0  0  0
  188.6510  177.5750  147.6480 C   0  0  0  0  0  0  0  0  0  0  0  0
  189.1750  176.7660  143.0880 C   0  0  2  0  0  3  0  0  0  0  0  0
  189.2200  176.9120  144.5910 C   0  0  0  0  0  0  0  0  0  0  0  0
  188.0870  177.7890  148.9360 N   0  0  0  0  0  1  0  0  0  0  0  0
  188.0730  177.1860  145.2100 C   0  0  0  0  0  3  0  0  0  0  0  0
  190.1530  175.7700  142.6360 N   0  0  0  0  0  0  0  0  0  0  0  0
  187.6530  178.1600  139.4580 N   0  0  0  0  0  0  0  0  0  0  0  0
  188.3600  178.8080  140.2920 N   0  0  0  0  0  0  0  0  0  0  0  0
  189.0330  178.9590  137.5570 C   0  0  0  0  0  1  0  0  0  0  0  0
  187.8380  178.2930  138.0720 N   0  0  0  0  0  0  0  0  0  0  0  0
  184.5880  176.6680  136.7580 C   0  0  0  0  0  2  0  0  0  0  0  0
  185.4440  177.5280  137.6860 C   0  0  0  0  0  2  0  0  0  0  0  0
  187.1550  177.5430  135.8830 C   0  0  0  0  0  3  0  0  0  0  0  0
  186.1900  176.9460  134.8960 C   0  0  0  0  0  2  0  0  0  0  0  0
  186.8540  177.7470  137.1770 C   0  0  0  0  0  0  0  0  0  0  0  0
  184.7440  177.1550  135.3250 C   0  0  0  0  0  2  0  0  0  0  0  0
  187.0450  177.7190  141.9480 N   0  0  0  0  0  2  0  0  0  0  0  0
  183.1960  178.9450  143.2110 C   0  0  0  0  0  0  0  0  0  0  0  0
  184.2410  178.8370  144.1320 C   0  0  0  0  0  3  0  0  0  0  0  0
  184.6870  178.2450  141.4360 C   0  0  0  0  0  3  0  0  0  0  0  0
  185.7380  178.1290  142.3590 C   0  0  0  0  0  0  0  0  0  0  0  0
  183.4190  178.6500  141.8630 C   0  0  0  0  0  3  0  0  0  0  0  0
  185.5100  178.4310  143.7060 C   0  0  0  0  0  3  0  0  0  0  0  0
  181.9360  179.3460  143.6350 O   0  0  0  0  0  1  0  0  0  0  0  0
  1 17  1  6  0  0  0
  1 26  1  0  0  0  0
  1  3  1  0  0  0  0
  3  2  1  1  0  0  0
  4  5  1  0  0  0  0
  5  9  1  0  0  0  0
  6  4  1  0  0  0  0
  7  6  1  0  0  0  0
  8 10  1  0  0  0  0
  9 10  2  0  0  0  0
 10 13  1  0  0  0  0
 11  3  1  6  0  0  0
 11 12  1  0  0  0  0
 12 14  1  0  0  0  0
 12  4  2  0  0  0  0
 14  8  2  0  0  0  0
 15 11  1  0  0  0  0
 15  7  2  0  0  0  0
 16 17  2  0  0  0  0
 18 19  1  0  0  0  0
 19 16  1  0  0  0  0
 20 21  1  0  0  0  0
 22 24  2  0  0  0  0
 23 25  1  0  0  0  0
 23 22  1  0  0  0  0
 24 21  1  0  0  0  0
 24 19  1  0  0  0  0
 25 20  1  0  0  0  0
 26 30  1  0  0  0  0
 27 33  1  0  0  0  0
 27 28  1  0  0  0  0
 29 31  1  0  0  0  0
 29 30  2  0  0  0  0
 30 32  1  0  0  0  0
 31 27  2  0  0  0  0
 32 28  2  0  0  0  0
M  END
>  <MODEL>
3

>  <REMARK>
 VINA RESULT:      -8.3      2.456      5.806
  Name = 
  7 active torsions:
  status: ('A' for Active; 'I' for Inactive)
    1  A    between atoms: N_6  and  N_24
    2  A    between atoms: N_6  and  C_26
    3  A    between atoms: C_17  and  C_23
    4  A    between atoms: C_18  and  N_19
    5  A    between atoms: N_19  and  C_22
    6  A    between atoms: C_22  and  C_23
    7  A    between atoms: C_22  and  N_25
                            x       y       z     vdW  Elec       q    Type
                         _______ _______ _______ _____ _____    ______ ____

>  <TORSDO>
F 7

$$$$
=
 OpenBabel10232411133D

 33 36  0  0  1  0  0  0  0  0999 V2000
  185.9550  178.6390  141.0440 C   0  0  1  0  0  3  0  0  0  0  0  0
  188.1490  179.2100  141.8150 O   0  0  0  0  0  1  0  0  0  0  0  0
  187.4450  178.7440  140.6990 C   0  0  1  0  0  3  0  0  0  0  0  0
  190.5500  177.4360  140.5530 C   0  0  0  0  0  0  0  0  0  0  0  0
  191.7440  177.6330  141.3790 C   0  0  0  0  0  2  0  0  0  0  0  0
  190.6540  177.7380  139.2930 N   0  0  0  0  0  2  0  0  0  0  0  0
  189.5510  177.6200  138.3840 C   0  0  0  0  0  3  0  0  0  0  0  0
  189.9830  175.8120  143.1760 C   0  0  0  0  0  3  0  0  0  0  0  0
  192.0370  177.0850  142.5540 C   0  0  0  0  0  3  0  0  0  0  0  0
  191.2680  176.1180  143.3450 C   0  0  0  0  0  0  0  0  0  0  0  0
  188.0180  177.3850  140.2550 C   0  0  2  0  0  3  0  0  0  0  0  0
  189.2310  177.0120  141.0730 C   0  0  0  0  0  0  0  0  0  0  0  0
  191.9440  175.4980  144.4330 N   0  0  0  0  0  1  0  0  0  0  0  0
  189.0220  176.3070  142.1840 C   0  0  0  0  0  3  0  0  0  0  0  0
  188.3480  177.4100  138.8250 N   0  0  0  0  0  0  0  0  0  0  0  0
  185.6160  178.0880  143.3250 N   0  0  0  0  0  0  0  0  0  0  0  0
  185.7360  178.9930  142.4400 N   0  0  0  0  0  0  0  0  0  0  0  0
  184.1060  178.9220  145.1080 C   0  0  0  0  0  1  0  0  0  0  0  0
  185.4010  178.4000  144.6770 N   0  0  0  0  0  0  0  0  0  0  0  0
  187.4490  178.4450  147.9540 C   0  0  0  0  0  2  0  0  0  0  0  0
  186.1850  178.4120  147.0960 C   0  0  0  0  0  2  0  0  0  0  0  0
  187.6330  177.6610  145.2210 C   0  0  0  0  0  3  0  0  0  0  0  0
  188.7950  177.4300  146.1460 C   0  0  0  0  0  2  0  0  0  0  0  0
  186.4600  178.1770  145.6250 C   0  0  0  0  0  0  0  0  0  0  0  0
  188.3410  177.2680  147.5910 C   0  0  0  0  0  2  0  0  0  0  0  0
  185.1810  179.5370  140.1920 N   0  0  0  0  0  2  0  0  0  0  0  0
  182.2900  178.2410  137.3860 C   0  0  0  0  0  0  0  0  0  0  0  0
  182.0620  179.3820  138.1610 C   0  0  0  0  0  3  0  0  0  0  0  0
  184.4410  177.9430  138.4570 C   0  0  0  0  0  3  0  0  0  0  0  0
  184.2130  179.0850  139.2420 C   0  0  0  0  0  0  0  0  0  0  0  0
  183.4790  177.5220  137.5330 C   0  0  0  0  0  3  0  0  0  0  0  0
  183.0230  179.8030  139.0860 C   0  0  0  0  0  3  0  0  0  0  0  0
  181.3350  177.8230  136.4700 O   0  0  0  0  0  1  0  0  0  0  0  0
  1 26  1  6  0  0  0
  1 17  1  0  0  0  0
  3  1  1  0  0  0  0
  3  2  1  1  0  0  0
  4 12  2  0  0  0  0
  4  5  1  0  0  0  0
  5  9  1  0  0  0  0
  6  4  1  0  0  0  0
  7 15  2  0  0  0  0
  7  6  1  0  0  0  0
  8 10  1  0  0  0  0
  9 10  2  0  0  0  0
 10 13  1  0  0  0  0
 11  3  1  1  0  0  0
 11 12  1  0  0  0  0
 12 14  1  0  0  0  0
 14  8  2  0  0  0  0
 15 11  1  0  0  0  0
 16 19  1  0  0  0  0
 17 16  2  0  0  0  0
 19 18  1  0  0  0  0
 19 24  1  0  0  0  0
 21 20  1  0  0  0  0
 22 24  2  0  0  0  0
 22 23  1  0  0  0  0
 23 25  1  0  0  0  0
 24 21  1  0  0  0  0
 25 20  1  0  0  0  0
 27 31  2  0  0  0  0
 27 28  1  0  0  0  0
 28 32  2  0  0  0  0
 29 30  2  0  0  0  0
 30 26  1  0  0  0  0
 31 29  1  0  0  0  0
 32 30  1  0  0  0  0
 33 27  1  0  0  0  0
M  END
>  <MODEL>
4

>  <REMARK>
 VINA RESULT:      -8.2      2.356      5.735
  Name = 
  7 active torsions:
  status: ('A' for Active; 'I' for Inactive)
    1  A    between atoms: N_6  and  N_24
    2  A    between atoms: N_6  and  C_26
    3  A    between atoms: C_17  and  C_23
    4  A    between atoms: C_18  and  N_19
    5  A    between atoms: N_19  and  C_22
    6  A    between atoms: C_22  and  C_23
    7  A    between atoms: C_22  and  N_25
                            x       y       z     vdW  Elec       q    Type
                         _______ _______ _______ _____ _____    ______ ____

>  <TORSDO>
F 7

$$$$
=
 OpenBabel10232411133D

 33 36  0  0  1  0  0  0  0  0999 V2000
  189.6940  177.4040  141.0370 C   0  0  1  0  0  3  0  0  0  0  0  0
  190.4930  175.9070  139.3470 O   0  0  0  0  0  1  0  0  0  0  0  0
  189.9790  177.1930  139.5460 C   0  0  1  0  0  3  0  0  0  0  0  0
  189.3160  177.0510  136.2420 C   0  0  0  0  0  0  0  0  0  0  0  0
  189.8850  176.2510  135.1540 C   0  0  0  0  0  3  0  0  0  0  0  0
  189.4150  178.3430  136.1330 N   0  0  0  0  0  2  0  0  0  0  0  0
  188.9260  179.2360  137.1420 C   0  0  0  0  0  3  0  0  0  0  0  0
  188.0780  174.1930  136.6190 C   0  0  0  0  0  3  0  0  0  0  0  0
  189.6140  174.9930  134.8230 C   0  0  0  0  0  3  0  0  0  0  0  0
  188.6600  174.0570  135.4290 C   0  0  0  0  0  0  0  0  0  0  0  0
  188.7080  177.3810  138.6960 C   0  0  2  0  0  3  0  0  0  0  0  0
  188.7290  176.4880  137.4790 C   0  0  1  0  0  3  0  0  0  0  0  0
  188.3810  172.8660  134.7040 N   0  0  0  0  0  1  0  0  0  0  0  0
  188.1950  175.2740  137.6050 C   0  0  0  0  0  3  0  0  0  0  0  0
  188.5560  178.7870  138.3030 N   0  0  0  0  0  0  0  0  0  0  0  0
  187.7360  178.5000  141.8030 N   0  0  0  0  0  0  0  0  0  0  0  0
  188.2570  177.4710  141.2690 N   0  0  0  0  0  0  0  0  0  0  0  0
  185.4340  178.7910  140.9230 C   0  0  0  0  0  1  0  0  0  0  0  0
  186.3540  178.5900  142.0410 N   0  0  0  0  0  0  0  0  0  0  0  0
  186.0550  177.5010  145.7370 C   0  0  0  0  0  2  0  0  0  0  0  0
  186.7790  177.8750  144.4440 C   0  0  0  0  0  2  0  0  0  0  0  0
  184.6580  178.9500  143.7190 C   0  0  0  0  0  3  0  0  0  0  0  0
  184.0660  178.8220  145.0950 C   0  0  0  0  0  2  0  0  0  0  0  0
  185.8640  178.4580  143.3870 C   0  0  0  0  0  0  0  0  0  0  0  0
  185.1430  178.6430  146.1570 C   0  0  0  0  0  2  0  0  0  0  0  0
  190.2560  176.3040  141.8130 N   0  0  0  0  0  2  0  0  0  0  0  0
  191.5200  176.7350  145.8300 C   0  0  0  0  0  0  0  0  0  0  0  0
  190.6800  177.6880  145.2470 C   0  0  0  0  0  3  0  0  0  0  0  0
  191.5320  175.4790  143.7600 C   0  0  0  0  0  3  0  0  0  0  0  0
  190.6940  176.4370  143.1690 C   0  0  0  0  0  0  0  0  0  0  0  0
  191.9450  175.6300  145.0880 C   0  0  0  0  0  3  0  0  0  0  0  0
  190.2670  177.5370  143.9190 C   0  0  0  0  0  3  0  0  0  0  0  0
  191.9300  176.8860  147.1470 O   0  0  0  0  0  1  0  0  0  0  0  0
  1 17  1  6  0  0  0
  1 26  1  0  0  0  0
  3  2  1  1  0  0  0
  3  1  1  0  0  0  0
  4 12  1  0  0  0  0
  5  4  2  0  0  0  0
  6  4  1  0  0  0  0
  6  7  1  0  0  0  0
  7 15  2  0  0  0  0
  8 14  2  0  0  0  0
  9  5  1  0  0  0  0
  9 10  2  0  0  0  0
 10  8  1  0  0  0  0
 11  3  1  6  0  0  0
 12 14  1  6  0  0  0
 12 11  1  0  0  0  0
 13 10  1  0  0  0  0
 15 11  1  0  0  0  0
 16 19  1  0  0  0  0
 17 16  2  0  0  0  0
 18 19  1  0  0  0  0
 19 24  1  0  0  0  0
 20 25  1  0  0  0  0
 21 20  1  0  0  0  0
 22 23  1  0  0  0  0
 23 25  1  0  0  0  0
 24 22  2  0  0  0  0
 24 21  1  0  0  0  0
 26 30  1  0  0  0  0
 27 33  1  0  0  0  0
 28 27  1  0  0  0  0
 29 31  1  0  0  0  0
 30 29  2  0  0  0  0
 30 32  1  0  0  0  0
 31 27  2  0  0  0  0
 32 28  2  0  0  0  0
M  END
>  <MODEL>
5

>  <REMARK>
 VINA RESULT:      -8.2      2.403      6.966
  Name = 
  7 active torsions:
  status: ('A' for Active; 'I' for Inactive)
    1  A    between atoms: N_6  and  N_24
    2  A    between atoms: N_6  and  C_26
    3  A    between atoms: C_17  and  C_23
    4  A    between atoms: C_18  and  N_19
    5  A    between atoms: N_19  and  C_22
    6  A    between atoms: C_22  and  C_23
    7  A    between atoms: C_22  and  N_25
                            x       y       z     vdW  Elec       q    Type
                         _______ _______ _______ _____ _____    ______ ____

>  <TORSDO>
F 7

$$$$
=
 OpenBabel10232411133D

 33 36  0  0  1  0  0  0  0  0999 V2000
  188.6120  178.3660  140.3780 C   0  0  1  0  0  3  0  0  0  0  0  0
  189.7460  178.6730  138.2910 O   0  0  0  0  0  1  0  0  0  0  0  0
  188.5020  178.3590  138.8490 C   0  0  1  0  0  3  0  0  0  0  0  0
  188.8760  176.7010  135.9360 C   0  0  0  0  0  0  0  0  0  0  0  0
  189.9590  176.6670  134.9510 C   0  0  0  0  0  3  0  0  0  0  0  0
  187.7150  177.1110  135.5160 N   0  0  0  0  0  2  0  0  0  0  0  0
  186.5810  177.2190  136.3860 C   0  0  0  0  0  3  0  0  0  0  0  0
  191.0910  174.9090  137.2470 C   0  0  0  0  0  3  0  0  0  0  0  0
  191.0940  175.9750  134.9920 C   0  0  0  0  0  3  0  0  0  0  0  0
  191.5730  175.0360  136.0130 C   0  0  0  0  0  0  0  0  0  0  0  0
  188.0290  176.9900  138.3240 C   0  0  2  0  0  3  0  0  0  0  0  0
  189.0390  176.3930  137.3750 C   0  0  1  0  0  3  0  0  0  0  0  0
  192.6960  174.2340  135.6690 N   0  0  0  0  0  1  0  0  0  0  0  0
  189.9820  175.6130  137.9020 C   0  0  0  0  0  3  0  0  0  0  0  0
  186.7190  177.1150  137.6730 N   0  0  0  0  0  0  0  0  0  0  0  0
  186.7830  178.8330  141.8130 N   0  0  0  0  0  0  0  0  0  0  0  0
  187.3230  178.0430  140.9760 N   0  0  0  0  0  0  0  0  0  0  0  0
  184.3560  178.3730  141.5700 C   0  0  0  0  0  1  0  0  0  0  0  0
  185.5430  178.5450  142.4070 N   0  0  0  0  0  0  0  0  0  0  0  0
  186.3790  177.4850  146.0280 C   0  0  0  0  0  2  0  0  0  0  0  0
  186.6790  177.8870  144.5840 C   0  0  0  0  0  2  0  0  0  0  0  0
  184.3760  178.8180  144.5010 C   0  0  0  0  0  3  0  0  0  0  0  0
  184.2100  178.6700  145.9880 C   0  0  0  0  0  2  0  0  0  0  0  0
  185.4660  178.3990  143.8360 C   0  0  0  0  0  0  0  0  0  0  0  0
  185.5540  178.5720  146.6980 C   0  0  0  0  0  2  0  0  0  0  0  0
  189.6030  177.3870  140.8120 N   0  0  0  0  0  2  0  0  0  0  0  0
  191.2490  177.2360  144.7090 C   0  0  0  0  0  0  0  0  0  0  0  0
  191.2630  176.1030  143.8910 C   0  0  0  0  0  3  0  0  0  0  0  0
  190.1470  178.4890  142.9540 C   0  0  0  0  0  3  0  0  0  0  0  0
  190.1530  177.3510  142.1320 C   0  0  0  0  0  0  0  0  0  0  0  0
  190.6930  178.4290  144.2400 C   0  0  0  0  0  3  0  0  0  0  0  0
  190.7170  176.1610  142.6040 C   0  0  0  0  0  3  0  0  0  0  0  0
  191.7900  177.1760  145.9860 O   0  0  0  0  0  1  0  0  0  0  0  0
  1 26  1  6  0  0  0
  1 17  1  0  0  0  0
  3  2  1  6  0  0  0
  3  1  1  0  0  0  0
  4 12  1  0  0  0  0
  5  9  1  0  0  0  0
  5  4  2  0  0  0  0
  6  4  1  0  0  0  0
  6  7  1  0  0  0  0
  7 15  2  0  0  0  0
  8 14  2  0  0  0  0
  9 10  2  0  0  0  0
 10  8  1  0  0  0  0
 11  3  1  6  0  0  0
 12 14  1  6  0  0  0
 12 11  1  0  0  0  0
 13 10  1  0  0  0  0
 15 11  1  0  0  0  0
 16 19  1  0  0  0  0
 17 16  2  0  0  0  0
 18 19  1  0  0  0  0
 19 24  1  0  0  0  0
 20 25  1  0  0  0  0
 21 20  1  0  0  0  0
 22 23  1  0  0  0  0
 23 25  1  0  0  0  0
 24 22  2  0  0  0  0
 24 21  1  0  0  0  0
 26 30  1  0  0  0  0
 27 33  1  0  0  0  0
 28 27  2  0  0  0  0
 29 31  2  0  0  0  0
 30 32  2  0  0  0  0
 30 29  1  0  0  0  0
 31 27  1  0  0  0  0
 32 28  1  0  0  0  0
M  END
>  <MODEL>
6

>  <REMARK>
 VINA RESULT:      -8.1      2.266      6.890
  Name = 
  7 active torsions:
  status: ('A' for Active; 'I' for Inactive)
    1  A    between atoms: N_6  and  N_24
    2  A    between atoms: N_6  and  C_26
    3  A    between atoms: C_17  and  C_23
    4  A    between atoms: C_18  and  N_19
    5  A    between atoms: N_19  and  C_22
    6  A    between atoms: C_22  and  C_23
    7  A    between atoms: C_22  and  N_25
                            x       y       z     vdW  Elec       q    Type
                         _______ _______ _______ _____ _____    ______ ____

>  <TORSDO>
F 7

$$$$
=
 OpenBabel10232411133D

 33 36  0  0  1  0  0  0  0  0999 V2000
  187.3700  178.8540  141.1000 C   0  0  1  0  0  3  0  0  0  0  0  0
  185.2490  179.6650  140.3380 O   0  0  0  0  0  1  0  0  0  0  0  0
  185.9420  179.2590  141.4840 C   0  0  1  0  0  3  0  0  0  0  0  0
  182.7580  178.7920  142.4910 C   0  0  0  0  0  0  0  0  0  0  0  0
  181.4760  179.2750  141.9700 C   0  0  0  0  0  2  0  0  0  0  0  0
  183.0590  179.1290  143.7100 N   0  0  0  0  0  2  0  0  0  0  0  0
  184.2950  178.7460  144.3270 C   0  0  0  0  0  3  0  0  0  0  0  0
  182.2170  177.0380  139.9470 C   0  0  0  0  0  3  0  0  0  0  0  0
  180.7670  178.8030  140.9490 C   0  0  0  0  0  3  0  0  0  0  0  0
  181.0470  177.6590  140.0740 C   0  0  0  0  0  0  0  0  0  0  0  0
  185.1900  178.0990  142.1620 C   0  0  2  0  0  3  0  0  0  0  0  0
  183.7550  178.0360  141.6980 C   0  0  0  0  0  0  0  0  0  0  0  0
  179.9840  177.2170  139.2380 N   0  0  0  0  0  1  0  0  0  0  0  0
  183.4920  177.2850  140.6300 C   0  0  0  0  0  3  0  0  0  0  0  0
  185.2560  178.2280  143.6230 N   0  0  0  0  0  0  0  0  0  0  0  0
  188.7320  177.9990  142.8430 N   0  0  0  0  0  0  0  0  0  0  0  0
  187.8370  177.7800  141.9670 N   0  0  0  0  0  0  0  0  0  0  0  0
  189.8200  175.7860  143.1170 C   0  0  0  0  0  1  0  0  0  0  0  0
  189.2030  176.9810  143.6890 N   0  0  0  0  0  0  0  0  0  0  0  0
  190.0780  176.9880  147.4530 C   0  0  0  0  0  2  0  0  0  0  0  0
  190.3490  177.1160  145.9550 C   0  0  0  0  0  2  0  0  0  0  0  0
  187.9000  177.4310  145.6700 C   0  0  0  0  0  3  0  0  0  0  0  0
  187.6970  177.5840  147.1510 C   0  0  0  0  0  2  0  0  0  0  0  0
  189.0900  177.1450  145.1130 C   0  0  0  0  0  0  0  0  0  0  0  0
  188.9900  177.9700  147.8590 C   0  0  0  0  0  2  0  0  0  0  0  0
  187.4050  178.4040  139.7130 N   0  0  0  0  0  2  0  0  0  0  0  0
  190.5700  176.0800  138.1310 C   0  0  0  0  0  0  0  0  0  0  0  0
  190.8130  177.0070  139.1480 C   0  0  0  0  0  3  0  0  0  0  0  0
  188.2230  176.6760  138.1490 C   0  0  0  0  0  3  0  0  0  0  0  0
  188.4650  177.6130  139.1660 C   0  0  0  0  0  0  0  0  0  0  0  0
  189.2750  175.9130  137.6320 C   0  0  0  0  0  3  0  0  0  0  0  0
  189.7610  177.7700  139.6650 C   0  0  0  0  0  3  0  0  0  0  0  0
  191.6140  175.3240  137.6170 O   0  0  0  0  0  1  0  0  0  0  0  0
  1 26  1  6  0  0  0
  1  3  1  0  0  0  0
  1 17  1  0  0  0  0
  3  2  1  6  0  0  0
  4  6  1  0  0  0  0
  5  4  1  0  0  0  0
  6  7  1  0  0  0  0
  8 10  1  0  0  0  0
  8 14  2  0  0  0  0
  9  5  1  0  0  0  0
 10  9  2  0  0  0  0
 11  3  1  6  0  0  0
 11 15  1  0  0  0  0
 12 11  1  0  0  0  0
 12  4  2  0  0  0  0
 13 10  1  0  0  0  0
 14 12  1  0  0  0  0
 15  7  2  0  0  0  0
 16 19  1  0  0  0  0
 17 16  2  0  0  0  0
 18 19  1  0  0  0  0
 19 24  1  0  0  0  0
 20 25  1  0  0  0  0
 21 20  1  0  0  0  0
 22 23  1  0  0  0  0
 23 25  1  0  0  0  0
 24 22  2  0  0  0  0
 24 21  1  0  0  0  0
 27 28  1  0  0  0  0
 28 32  2  0  0  0  0
 29 30  2  0  0  0  0
 30 32  1  0  0  0  0
 30 26  1  0  0  0  0
 31 27  2  0  0  0  0
 31 29  1  0  0  0  0
 33 27  1  0  0  0  0
M  END
>  <MODEL>
7

>  <REMARK>
 VINA RESULT:      -8.1      2.142      5.913
  Name = 
  7 active torsions:
  status: ('A' for Active; 'I' for Inactive)
    1  A    between atoms: N_6  and  N_24
    2  A    between atoms: N_6  and  C_26
    3  A    between atoms: C_17  and  C_23
    4  A    between atoms: C_18  and  N_19
    5  A    between atoms: N_19  and  C_22
    6  A    between atoms: C_22  and  C_23
    7  A    between atoms: C_22  and  N_25
                            x       y       z     vdW  Elec       q    Type
                         _______ _______ _______ _____ _____    ______ ____

>  <TORSDO>
F 7

$$$$
=
 OpenBabel10232411133D

 33 36  0  0  1  0  0  0  0  0999 V2000
  187.1650  178.4370  142.1890 C   0  0  1  0  0  3  0  0  0  0  0  0
  186.5090  178.6280  139.8940 O   0  0  0  0  0  1  0  0  0  0  0  0
  187.4550  178.0370  140.7380 C   0  0  1  0  0  3  0  0  0  0  0  0
  189.8800  176.6020  138.8840 C   0  0  0  0  0  0  0  0  0  0  0  0
  189.8380  175.6980  137.7330 C   0  0  0  0  0  3  0  0  0  0  0  0
  190.4820  176.1650  139.9510 N   0  0  0  0  0  2  0  0  0  0  0  0
  190.5670  176.9390  141.1540 C   0  0  0  0  0  3  0  0  0  0  0  0
  189.1000  178.4330  136.4590 C   0  0  0  0  0  3  0  0  0  0  0  0
  189.6350  175.9960  136.4530 C   0  0  0  0  0  3  0  0  0  0  0  0
  189.4210  177.3060  135.8270 C   0  0  0  0  0  0  0  0  0  0  0  0
  188.8720  178.4620  140.3080 C   0  0  2  0  0  3  0  0  0  0  0  0
  189.2110  177.9220  138.9400 C   0  0  1  0  0  3  0  0  0  0  0  0
  189.5010  177.3590  134.4080 N   0  0  0  0  0  1  0  0  0  0  0  0
  188.9070  178.6850  137.8920 C   0  0  0  0  0  3  0  0  0  0  0  0
  189.8620  178.0220  141.2980 N   0  0  0  0  0  0  0  0  0  0  0  0
  184.8490  178.1160  142.5810 N   0  0  0  0  0  0  0  0  0  0  0  0
  185.7960  178.9200  142.3130 N   0  0  0  0  0  0  0  0  0  0  0  0
  183.0650  179.1650  143.9500 C   0  0  0  0  0  1  0  0  0  0  0  0
  183.5200  178.5540  142.7020 N   0  0  0  0  0  0  0  0  0  0  0  0
  182.2090  177.8530  139.1350 C   0  0  0  0  0  2  0  0  0  0  0  0
  183.1110  177.6670  140.3540 C   0  0  0  0  0  2  0  0  0  0  0  0
  181.3580  178.8410  141.6690 C   0  0  0  0  0  3  0  0  0  0  0  0
  180.3790  178.7590  140.5300 C   0  0  0  0  0  2  0  0  0  0  0  0
  182.6290  178.4150  141.5810 C   0  0  0  0  0  0  0  0  0  0  0  0
  180.7560  177.6620  139.5430 C   0  0  0  0  0  2  0  0  0  0  0  0
  187.3520  177.2890  143.0710 N   0  0  0  0  0  2  0  0  0  0  0  0
  188.6220  177.6120  147.0960 C   0  0  0  0  0  0  0  0  0  0  0  0
  187.2670  177.7210  146.7710 C   0  0  0  0  0  3  0  0  0  0  0  0
  189.1560  177.2830  144.7580 C   0  0  0  0  0  3  0  0  0  0  0  0
  187.7970  177.3990  144.4260 C   0  0  0  0  0  0  0  0  0  0  0  0
  189.5660  177.3920  146.0900 C   0  0  0  0  0  3  0  0  0  0  0  0
  186.8560  177.6130  145.4380 C   0  0  0  0  0  3  0  0  0  0  0  0
  189.0280  177.7210  148.4180 O   0  0  0  0  0  1  0  0  0  0  0  0
  1 17  1  6  0  0  0
  1 26  1  0  0  0  0
  3  2  1  6  0  0  0
  3  1  1  0  0  0  0
  4 12  1  0  0  0  0
  4  6  1  0  0  0  0
  5  4  2  0  0  0  0
  6  7  1  0  0  0  0
  7 15  2  0  0  0  0
  8 14  2  0  0  0  0
  9  5  1  0  0  0  0
 10  9  2  0  0  0  0
 10  8  1  0  0  0  0
 11  3  1  1  0  0  0
 11 15  1  0  0  0  0
 12 14  1  1  0  0  0
 12 11  1  0  0  0  0
 13 10  1  0  0  0  0
 16 19  1  0  0  0  0
 17 16  2  0  0  0  0
 19 18  1  0  0  0  0
 20 25  1  0  0  0  0
 20 21  1  0  0  0  0
 21 24  1  0  0  0  0
 23 22  1  0  0  0  0
 24 22  2  0  0  0  0
 24 19  1  0  0  0  0
 25 23  1  0  0  0  0
 26 30  1  0  0  0  0
 27 33  1  0  0  0  0
 28 27  1  0  0  0  0
 29 31  1  0  0  0  0
 30 29  2  0  0  0  0
 30 32  1  0  0  0  0
 31 27  2  0  0  0  0
 32 28  2  0  0  0  0
M  END
>  <MODEL>
8

>  <REMARK>
 VINA RESULT:      -7.9      2.381      6.921
  Name = 
  7 active torsions:
  status: ('A' for Active; 'I' for Inactive)
    1  A    between atoms: N_6  and  N_24
    2  A    between atoms: N_6  and  C_26
    3  A    between atoms: C_17  and  C_23
    4  A    between atoms: C_18  and  N_19
    5  A    between atoms: N_19  and  C_22
    6  A    between atoms: C_22  and  C_23
    7  A    between atoms: C_22  and  N_25
                            x       y       z     vdW  Elec       q    Type
                         _______ _______ _______ _____ _____    ______ ____

>  <TORSDO>
F 7

$$$$
=
 OpenBabel10232411133D

 33 36  0  0  1  0  0  0  0  0999 V2000
  186.7980  178.1020  140.1560 C   0  0  1  0  0  3  0  0  0  0  0  0
  188.4470  179.1800  141.5170 O   0  0  0  0  0  1  0  0  0  0  0  0
  188.2900  178.3550  140.3980 C   0  0  1  0  0  3  0  0  0  0  0  0
  191.1930  177.5450  141.9110 C   0  0  0  0  0  0  0  0  0  0  0  0
  191.8900  178.1030  143.0730 C   0  0  0  0  0  2  0  0  0  0  0  0
  191.8300  177.5730  140.7770 N   0  0  0  0  0  2  0  0  0  0  0  0
  191.2480  177.0870  139.5600 C   0  0  0  0  0  3  0  0  0  0  0  0
  189.5960  176.4750  144.3890 C   0  0  0  0  0  3  0  0  0  0  0  0
  191.6570  177.8820  144.3620 C   0  0  0  0  0  3  0  0  0  0  0  0
  190.6600  177.0060  144.9890 C   0  0  0  0  0  0  0  0  0  0  0  0
  189.0580  177.0370  140.6130 C   0  0  2  0  0  3  0  0  0  0  0  0
  189.7990  177.0470  141.9280 C   0  0  0  0  0  0  0  0  0  0  0  0
  190.8120  176.7550  146.3810 N   0  0  0  0  0  1  0  0  0  0  0  0
  189.1520  176.5830  142.9950 C   0  0  0  0  0  3  0  0  0  0  0  0
  189.9840  176.7950  139.5000 N   0  0  0  0  0  0  0  0  0  0  0  0
  185.1630  177.9340  141.8650 N   0  0  0  0  0  0  0  0  0  0  0  0
  186.0110  178.6550  141.2510 N   0  0  0  0  0  0  0  0  0  0  0  0
  183.0780  179.0280  142.6480 C   0  0  0  0  0  1  0  0  0  0  0  0
  184.3890  178.4420  142.9220 N   0  0  0  0  0  0  0  0  0  0  0  0
  186.6670  177.6020  145.9290 C   0  0  0  0  0  2  0  0  0  0  0  0
  186.3410  177.9610  144.4800 C   0  0  0  0  0  2  0  0  0  0  0  0
  184.1240  178.7260  145.3030 C   0  0  0  0  0  3  0  0  0  0  0  0
  184.5690  178.6320  146.7360 C   0  0  0  0  0  2  0  0  0  0  0  0
  184.8930  178.3540  144.2660 C   0  0  0  0  0  0  0  0  0  0  0  0
  186.0870  178.6590  146.8570 C   0  0  0  0  0  2  0  0  0  0  0  0
  186.3820  178.7230  138.9030 N   0  0  0  0  0  2  0  0  0  0  0  0
  184.0960  176.7310  135.9510 C   0  0  0  0  0  0  0  0  0  0  0  0
  185.4800  176.8530  135.8090 C   0  0  0  0  0  3  0  0  0  0  0  0
  184.2050  177.9240  138.0540 C   0  0  0  0  0  3  0  0  0  0  0  0
  185.5950  178.0550  137.9130 C   0  0  0  0  0  0  0  0  0  0  0  0
  183.4580  177.2650  137.0740 C   0  0  0  0  0  3  0  0  0  0  0  0
  186.2290  177.5130  136.7900 C   0  0  0  0  0  3  0  0  0  0  0  0
  183.3540  176.0770  134.9770 O   0  0  0  0  0  1  0  0  0  0  0  0
  1 26  1  6  0  0  0
  1  3  1  0  0  0  0
  1 17  1  0  0  0  0
  3  2  1  1  0  0  0
  4 12  2  0  0  0  0
  4  5  1  0  0  0  0
  5  9  1  0  0  0  0
  6  4  1  0  0  0  0
  7  6  1  0  0  0  0
  8 10  1  0  0  0  0
  9 10  2  0  0  0  0
 10 13  1  0  0  0  0
 11  3  1  6  0  0  0
 11 12  1  0  0  0  0
 12 14  1  0  0  0  0
 14  8  2  0  0  0  0
 15  7  2  0  0  0  0
 15 11  1  0  0  0  0
 16 19  1  0  0  0  0
 17 16  2  0  0  0  0
 18 19  1  0  0  0  0
 19 24  1  0  0  0  0
 20 25  1  0  0  0  0
 21 20  1  0  0  0  0
 22 23  1  0  0  0  0
 23 25  1  0  0  0  0
 24 21  1  0  0  0  0
 24 22  2  0  0  0  0
 27 31  1  0  0  0  0
 28 27  2  0  0  0  0
 28 32  1  0  0  0  0
 30 29  1  0  0  0  0
 30 26  1  0  0  0  0
 31 29  2  0  0  0  0
 32 30  2  0  0  0  0
 33 27  1  0  0  0  0
M  END
>  <MODEL>
9

>  <REMARK>
 VINA RESULT:      -7.9      2.558      4.238
  Name = 
  7 active torsions:
  status: ('A' for Active; 'I' for Inactive)
    1  A    between atoms: N_6  and  N_24
    2  A    between atoms: N_6  and  C_26
    3  A    between atoms: C_17  and  C_23
    4  A    between atoms: C_18  and  N_19
    5  A    between atoms: N_19  and  C_22
    6  A    between atoms: C_22  and  C_23
    7  A    between atoms: C_22  and  N_25
                            x       y       z     vdW  Elec       q    Type
                         _______ _______ _______ _____ _____    ______ ____

>  <TORSDO>
F 7

$$$$
