=
 OpenBabel10222422063D

 31 35  0  0  1  0  0  0  0  0999 V2000
  185.5110  178.9700  143.9490 C   0  0  1  0  0  3  0  0  0  0  0  0
  188.7960  177.4990  143.4780 N   0  0  0  0  0  0  0  0  0  0  0  0
  191.8830  177.5360  140.4410 N   0  0  0  0  0  1  0  0  0  0  0  0
  187.3830  177.5900  143.3630 C   0  0  2  0  0  3  0  0  0  0  0  0
  190.5860  176.8960  140.3090 C   0  0  1  0  0  3  0  0  0  0  0  0
  187.0470  178.0320  142.1920 C   0  0  2  0  0  3  0  0  0  0  0  0
  188.2640  177.8600  139.9960 C   0  0  2  0  0  3  0  0  0  0  0  0
  189.9900  176.6360  141.6950 C   0  0  0  0  0  2  0  0  0  0  0  0
  188.2920  178.3830  141.4460 C   0  0  2  0  0  3  0  0  0  0  0  0
  186.4230  177.8520  144.4630 C   0  0  0  0  0  2  0  0  0  0  0  0
  189.4210  177.8650  142.2690 N   0  0  1  0  0  0  0  0  0  0  0  0
  189.6790  177.7560  139.4250 C   0  0  0  0  0  2  0  0  0  0  0  0
  185.4940  178.8950  142.1150 S   0  0  0  0  0  0  0  0  0  0  0  0
  189.5990  176.9620  147.1060 C   0  0  0  0  0  3  0  0  0  0  0  0
  190.9800  176.7600  147.0460 C   0  0  0  0  0  0  0  0  0  0  0  0
  191.6400  176.8030  145.8160 C   0  0  0  0  0  3  0  0  0  0  0  0
  188.8780  177.2090  145.9350 C   0  0  0  0  0  3  0  0  0  0  0  0
  191.6800  176.5210  148.1820 F   0  0  0  0  0  0  0  0  0  0  0  0
  189.5320  177.2600  144.6930 C   0  0  0  0  0  0  0  0  0  0  0  0
  190.9180  177.0500  144.6450 C   0  0  0  0  0  3  0  0  0  0  0  0
  184.1250  178.8710  144.5200 C   0  0  0  0  0  0  0  0  0  0  0  0
  183.1060  179.0590  143.7490 N   0  0  0  0  0  2  0  0  0  0  0  0
  183.9320  178.9240  145.9320 N   0  0  0  0  0  1  0  0  0  0  0  0
  187.3850  178.6560  139.1340 N   0  0  0  0  0  2  0  0  0  0  0  0
  186.8090  177.8290  138.0780 C   0  0  0  0  0  2  0  0  0  0  0  0
  187.1870  178.3890  136.7180 C   0  0  0  0  0  2  0  0  0  0  0  0
  187.7260  176.1130  136.6480 C   0  0  0  0  0  2  0  0  0  0  0  0
  189.1710  177.6480  135.7340 C   0  0  0  0  0  2  0  0  0  0  0  0
  187.7590  177.3440  135.8830 N   0  0  0  0  0  0  0  0  0  0  0  0
  189.0870  175.4730  136.5100 C   0  0  0  0  0  2  0  0  0  0  0  0
  189.9300  176.4080  135.7890 N   0  0  0  0  0  2  0  0  0  0  0  0
  1 10  1  0  0  0  0
  1 21  1  1  0  0  0
  2 19  1  0  0  0  0
  4  2  1  0  0  0  0
  4 10  1  1  0  0  0
  5  3  1  1  0  0  0
  5  8  1  0  0  0  0
  6 13  1  1  0  0  0
  6  4  1  0  0  0  0
  7 24  1  6  0  0  0
  7  9  1  0  0  0  0
  8 11  1  0  0  0  0
  9  6  1  0  0  0  0
  9 11  1  0  0  0  0
 11  2  1  0  0  0  0
 12  7  1  0  0  0  0
 12  5  1  0  0  0  0
 13  1  1  0  0  0  0
 15 14  1  0  0  0  0
 15 18  1  0  0  0  0
 16 15  2  0  0  0  0
 17 14  2  0  0  0  0
 19 17  1  0  0  0  0
 20 19  2  0  0  0  0
 20 16  1  0  0  0  0
 21 23  1  0  0  0  0
 22 21  2  0  0  0  0
 25 24  1  0  0  0  0
 26 25  1  0  0  0  0
 28 31  1  0  0  0  0
 28 29  1  0  0  0  0
 29 27  1  0  0  0  0
 29 26  1  0  0  0  0
 30 27  1  0  0  0  0
 31 30  1  0  0  0  0
M  END
>  <MODEL>
1

>  <REMARK>
 VINA RESULT:      -9.3      0.000      0.000
  Name = 
  6 active torsions:
  status: ('A' for Active; 'I' for Inactive)
    1  A    between atoms: C_1  and  C_3
    2  A    between atoms: N_4  and  C_16
    3  A    between atoms: N_4  and  C_28
    4  A    between atoms: N_6  and  C_24
    5  A    between atoms: C_11  and  N_14
    6  A    between atoms: C_11  and  C_28
                            x       y       z     vdW  Elec       q    Type
                         _______ _______ _______ _____ _____    ______ ____

>  <TORSDO>
F 6

$$$$
=
 OpenBabel10222422063D

 31 35  0  0  1  0  0  0  0  0999 V2000
  185.4990  178.9910  144.3890 C   0  0  1  0  0  3  0  0  0  0  0  0
  188.7150  177.4760  143.6560 N   0  0  0  0  0  0  0  0  0  0  0  0
  191.5520  177.4810  140.3840 N   0  0  0  0  0  1  0  0  0  0  0  0
  187.2990  177.5870  143.6530 C   0  0  2  0  0  3  0  0  0  0  0  0
  190.2400  176.8600  140.3540 C   0  0  1  0  0  3  0  0  0  0  0  0
  186.8780  178.0390  142.5130 C   0  0  2  0  0  3  0  0  0  0  0  0
  187.9150  177.8580  140.2270 C   0  0  2  0  0  3  0  0  0  0  0  0
  189.7520  176.6030  141.7820 C   0  0  0  0  0  2  0  0  0  0  0  0
  188.0650  178.3750  141.6720 C   0  0  2  0  0  3  0  0  0  0  0  0
  186.4330  177.8590  144.8260 C   0  0  0  0  0  2  0  0  0  0  0  0
  189.2480  177.8370  142.4020 N   0  0  1  0  0  0  0  0  0  0  0  0
  189.2790  177.7360  139.5470 C   0  0  0  0  0  2  0  0  0  0  0  0
  185.3360  178.9230  142.5620 S   0  0  0  0  0  0  0  0  0  0  0  0
  189.8250  177.0650  147.2190 C   0  0  0  0  0  3  0  0  0  0  0  0
  191.1600  176.6910  147.0410 C   0  0  0  0  0  0  0  0  0  0  0  0
  191.6870  176.5750  145.7520 C   0  0  0  0  0  3  0  0  0  0  0  0
  189.0200  177.3280  146.1080 C   0  0  0  0  0  3  0  0  0  0  0  0
  191.9410  176.4360  148.1180 F   0  0  0  0  0  0  0  0  0  0  0  0
  189.5410  177.2220  144.8080 C   0  0  0  0  0  0  0  0  0  0  0  0
  190.8800  176.8380  144.6420 C   0  0  0  0  0  3  0  0  0  0  0  0
  184.1610  178.9100  145.0670 C   0  0  0  0  0  0  0  0  0  0  0  0
  184.1060  178.7010  146.3410 N   0  0  0  0  0  1  0  0  0  0  0  0
  182.9820  178.7080  144.2900 N   0  0  0  0  0  2  0  0  0  0  0  0
  186.9820  178.6690  139.4400 N   0  0  0  0  0  2  0  0  0  0  0  0
  186.6690  178.0140  138.1730 C   0  0  0  0  0  2  0  0  0  0  0  0
  185.1640  177.9600  137.9770 C   0  0  0  0  0  2  0  0  0  0  0  0
  183.4850  177.3720  139.4980 C   0  0  0  0  0  2  0  0  0  0  0  0
  183.7170  179.5680  138.8590 C   0  0  0  0  0  2  0  0  0  0  0  0
  184.4820  178.3780  139.1920 N   0  0  0  0  0  0  0  0  0  0  0  0
  182.2020  178.1040  139.8130 C   0  0  0  0  0  2  0  0  0  0  0  0
  182.4360  179.5120  139.5460 N   0  0  0  0  0  2  0  0  0  0  0  0
  1 10  1  0  0  0  0
  1 21  1  1  0  0  0
  2 19  1  0  0  0  0
  4  2  1  0  0  0  0
  4 10  1  1  0  0  0
  5  3  1  1  0  0  0
  5  8  1  0  0  0  0
  6 13  1  1  0  0  0
  6  4  1  0  0  0  0
  7 24  1  6  0  0  0
  7  9  1  0  0  0  0
  8 11  1  0  0  0  0
  9 11  1  0  0  0  0
  9  6  1  0  0  0  0
 11  2  1  0  0  0  0
 12  7  1  0  0  0  0
 12  5  1  0  0  0  0
 13  1  1  0  0  0  0
 15 14  1  0  0  0  0
 15 18  1  0  0  0  0
 16 15  2  0  0  0  0
 17 14  2  0  0  0  0
 19 17  1  0  0  0  0
 20 19  2  0  0  0  0
 20 16  1  0  0  0  0
 21 22  1  0  0  0  0
 23 21  2  0  0  0  0
 25 24  1  0  0  0  0
 26 25  1  0  0  0  0
 26 29  1  0  0  0  0
 27 30  1  0  0  0  0
 28 29  1  0  0  0  0
 28 31  1  0  0  0  0
 29 27  1  0  0  0  0
 31 30  1  0  0  0  0
M  END
>  <MODEL>
2

>  <REMARK>
 VINA RESULT:      -9.2      1.643      2.889
  Name = 
  6 active torsions:
  status: ('A' for Active; 'I' for Inactive)
    1  A    between atoms: C_1  and  C_3
    2  A    between atoms: N_4  and  C_16
    3  A    between atoms: N_4  and  C_28
    4  A    between atoms: N_6  and  C_24
    5  A    between atoms: C_11  and  N_14
    6  A    between atoms: C_11  and  C_28
                            x       y       z     vdW  Elec       q    Type
                         _______ _______ _______ _____ _____    ______ ____

>  <TORSDO>
F 6

$$$$
=
 OpenBabel10222422063D

 31 35  0  0  1  0  0  0  0  0999 V2000
  185.4690  178.9450  143.9690 C   0  0  1  0  0  3  0  0  0  0  0  0
  188.7520  177.4830  143.4550 N   0  0  0  0  0  0  0  0  0  0  0  0
  191.8040  177.5360  140.3830 N   0  0  0  0  0  1  0  0  0  0  0  0
  187.3380  177.5710  143.3570 C   0  0  2  0  0  3  0  0  0  0  0  0
  190.5070  176.8940  140.2640 C   0  0  1  0  0  3  0  0  0  0  0  0
  186.9880  178.0170  142.1910 C   0  0  2  0  0  3  0  0  0  0  0  0
  188.1800  177.8540  139.9800 C   0  0  2  0  0  3  0  0  0  0  0  0
  189.9270  176.6280  141.6560 C   0  0  0  0  0  2  0  0  0  0  0  0
  188.2240  178.3720  141.4320 C   0  0  2  0  0  3  0  0  0  0  0  0
  186.3900  177.8270  144.4690 C   0  0  0  0  0  2  0  0  0  0  0  0
  189.3630  177.8530  142.2400 N   0  0  1  0  0  0  0  0  0  0  0  0
  189.5880  177.7550  139.3940 C   0  0  0  0  0  2  0  0  0  0  0  0
  185.4320  178.8760  142.1350 S   0  0  0  0  0  0  0  0  0  0  0  0
  191.6100  176.8090  145.7950 C   0  0  0  0  0  3  0  0  0  0  0  0
  190.9510  176.8050  147.0270 C   0  0  0  0  0  0  0  0  0  0  0  0
  189.5720  177.0230  147.0820 C   0  0  0  0  0  3  0  0  0  0  0  0
  190.8890  177.0270  144.6180 C   0  0  0  0  0  3  0  0  0  0  0  0
  191.6500  176.5930  148.1680 F   0  0  0  0  0  0  0  0  0  0  0  0
  189.5020  177.2410  144.6610 C   0  0  0  0  0  0  0  0  0  0  0  0
  188.8520  177.2420  145.9040 C   0  0  0  0  0  3  0  0  0  0  0  0
  184.0900  178.8410  144.5550 C   0  0  0  0  0  0  0  0  0  0  0  0
  183.0630  179.0720  143.8060 N   0  0  0  0  0  2  0  0  0  0  0  0
  183.9180  178.8420  145.9700 N   0  0  0  0  0  1  0  0  0  0  0  0
  187.2900  178.6510  139.1320 N   0  0  0  0  0  2  0  0  0  0  0  0
  186.7790  177.8500  138.0220 C   0  0  0  0  0  2  0  0  0  0  0  0
  185.2680  177.9850  137.9390 C   0  0  0  0  0  2  0  0  0  0  0  0
  183.6560  176.2890  137.8610 C   0  0  0  0  0  2  0  0  0  0  0  0
  185.7420  175.9120  136.9720 C   0  0  0  0  0  2  0  0  0  0  0  0
  184.7140  176.9300  137.1040 N   0  0  0  0  0  0  0  0  0  0  0  0
  183.8640  174.7990  137.7330 C   0  0  0  0  0  2  0  0  0  0  0  0
  185.1170  174.6000  137.0270 N   0  0  0  0  0  2  0  0  0  0  0  0
  1 10  1  0  0  0  0
  1 21  1  1  0  0  0
  2 19  1  0  0  0  0
  4  2  1  0  0  0  0
  4 10  1  1  0  0  0
  5  3  1  1  0  0  0
  5  8  1  0  0  0  0
  6 13  1  1  0  0  0
  6  4  1  0  0  0  0
  7 24  1  6  0  0  0
  7  9  1  0  0  0  0
  8 11  1  0  0  0  0
  9  6  1  0  0  0  0
  9 11  1  0  0  0  0
 11  2  1  0  0  0  0
 12  7  1  0  0  0  0
 12  5  1  0  0  0  0
 13  1  1  0  0  0  0
 14 15  1  0  0  0  0
 15 16  2  0  0  0  0
 15 18  1  0  0  0  0
 17 19  1  0  0  0  0
 17 14  2  0  0  0  0
 19 20  2  0  0  0  0
 20 16  1  0  0  0  0
 21 23  1  0  0  0  0
 22 21  2  0  0  0  0
 25 24  1  0  0  0  0
 26 25  1  0  0  0  0
 28 31  1  0  0  0  0
 28 29  1  0  0  0  0
 29 27  1  0  0  0  0
 29 26  1  0  0  0  0
 30 27  1  0  0  0  0
 31 30  1  0  0  0  0
M  END
>  <MODEL>
3

>  <REMARK>
 VINA RESULT:      -9.2      1.432      2.058
  Name = 
  6 active torsions:
  status: ('A' for Active; 'I' for Inactive)
    1  A    between atoms: C_1  and  C_3
    2  A    between atoms: N_4  and  C_16
    3  A    between atoms: N_4  and  C_28
    4  A    between atoms: N_6  and  C_24
    5  A    between atoms: C_11  and  N_14
    6  A    between atoms: C_11  and  C_28
                            x       y       z     vdW  Elec       q    Type
                         _______ _______ _______ _____ _____    ______ ____

>  <TORSDO>
F 6

$$$$
=
 OpenBabel10222422063D

 31 35  0  0  1  0  0  0  0  0999 V2000
  185.0580  179.1950  143.1520 C   0  0  1  0  0  3  0  0  0  0  0  0
  188.3760  177.7240  143.1740 N   0  0  0  0  0  0  0  0  0  0  0  0
  191.8220  177.6260  140.5520 N   0  0  0  0  0  1  0  0  0  0  0  0
  186.9900  177.7990  142.8780 C   0  0  2  0  0  3  0  0  0  0  0  0
  190.5520  176.9720  140.2920 C   0  0  1  0  0  3  0  0  0  0  0  0
  186.8040  178.1790  141.6530 C   0  0  2  0  0  3  0  0  0  0  0  0
  188.2880  177.9030  139.6390 C   0  0  2  0  0  3  0  0  0  0  0  0
  189.7860  176.7790  141.6030 C   0  0  0  0  0  2  0  0  0  0  0  0
  188.1330  178.5000  141.0520 C   0  0  2  0  0  3  0  0  0  0  0  0
  185.8990  178.1110  143.8340 C   0  0  0  0  0  2  0  0  0  0  0  0
  189.1500  178.0310  142.0370 N   0  0  1  0  0  0  0  0  0  0  0  0
  189.7640  177.7790  139.2570 C   0  0  0  0  0  2  0  0  0  0  0  0
  185.2730  179.0260  141.3370 S   0  0  0  0  0  0  0  0  0  0  0  0
  190.8880  177.2250  145.9200 C   0  0  0  0  0  3  0  0  0  0  0  0
  190.0610  177.2520  147.0460 C   0  0  0  0  0  0  0  0  0  0  0  0
  188.6840  177.4330  146.8970 C   0  0  0  0  0  3  0  0  0  0  0  0
  190.3360  177.3750  144.6450 C   0  0  0  0  0  3  0  0  0  0  0  0
  190.5960  177.1050  148.2830 F   0  0  0  0  0  0  0  0  0  0  0  0
  188.9530  177.5520  144.4830 C   0  0  0  0  0  0  0  0  0  0  0  0
  188.1340  177.5840  145.6210 C   0  0  0  0  0  3  0  0  0  0  0  0
  183.6110  179.1160  143.5480 C   0  0  0  0  0  0  0  0  0  0  0  0
  183.3010  178.9360  144.7890 N   0  0  0  0  0  1  0  0  0  0  0  0
  182.6150  178.8860  142.5540 N   0  0  0  0  0  2  0  0  0  0  0  0
  187.5250  178.6480  138.6340 N   0  0  0  0  0  2  0  0  0  0  0  0
  188.0650  178.4160  137.2970 C   0  0  0  0  0  2  0  0  0  0  0  0
  187.1140  177.5410  136.4990 C   0  0  0  0  0  2  0  0  0  0  0  0
  187.8920  175.3740  136.9200 C   0  0  0  0  0  2  0  0  0  0  0  0
  189.2090  176.8420  135.7400 C   0  0  0  0  0  2  0  0  0  0  0  0
  187.8310  176.4180  135.9160 N   0  0  0  0  0  0  0  0  0  0  0  0
  189.3170  174.8760  136.9510 C   0  0  0  0  0  2  0  0  0  0  0  0
  190.0900  175.7330  136.0710 N   0  0  0  0  0  2  0  0  0  0  0  0
  1 21  1  6  0  0  0
  1 10  1  0  0  0  0
  2 19  1  0  0  0  0
  4  2  1  0  0  0  0
  4 10  1  1  0  0  0
  5  3  1  1  0  0  0
  5  8  1  0  0  0  0
  6 13  1  1  0  0  0
  6  4  1  0  0  0  0
  7 24  1  6  0  0  0
  7  9  1  0  0  0  0
  8 11  1  0  0  0  0
  9  6  1  0  0  0  0
  9 11  1  0  0  0  0
 11  2  1  0  0  0  0
 12  7  1  0  0  0  0
 12  5  1  0  0  0  0
 13  1  1  0  0  0  0
 14 15  1  0  0  0  0
 15 18  1  0  0  0  0
 16 15  2  0  0  0  0
 17 14  2  0  0  0  0
 19 17  1  0  0  0  0
 19 20  2  0  0  0  0
 20 16  1  0  0  0  0
 21 22  1  0  0  0  0
 23 21  2  0  0  0  0
 25 24  1  0  0  0  0
 26 25  1  0  0  0  0
 27 30  1  0  0  0  0
 28 29  1  0  0  0  0
 28 31  1  0  0  0  0
 29 26  1  0  0  0  0
 29 27  1  0  0  0  0
 31 30  1  0  0  0  0
M  END
>  <MODEL>
4

>  <REMARK>
 VINA RESULT:      -8.8      0.812      1.342
  Name = 
  6 active torsions:
  status: ('A' for Active; 'I' for Inactive)
    1  A    between atoms: C_1  and  C_3
    2  A    between atoms: N_4  and  C_16
    3  A    between atoms: N_4  and  C_28
    4  A    between atoms: N_6  and  C_24
    5  A    between atoms: C_11  and  N_14
    6  A    between atoms: C_11  and  C_28
                            x       y       z     vdW  Elec       q    Type
                         _______ _______ _______ _____ _____    ______ ____

>  <TORSDO>
F 6

$$$$
=
 OpenBabel10222422063D

 31 35  0  0  1  0  0  0  0  0999 V2000
  190.0850  176.7220  145.3290 C   0  0  1  0  0  3  0  0  0  0  0  0
  187.7000  177.9910  142.9050 N   0  0  0  0  0  0  0  0  0  0  0  0
  187.1060  177.7680  138.6210 N   0  0  0  0  0  1  0  0  0  0  0  0
  188.8920  177.9860  143.6760 C   0  0  2  0  0  3  0  0  0  0  0  0
  188.1820  178.4850  139.2810 C   0  0  1  0  0  3  0  0  0  0  0  0
  189.8930  177.5660  142.9670 C   0  0  2  0  0  3  0  0  0  0  0  0
  190.2580  177.6640  140.4790 C   0  0  2  0  0  3  0  0  0  0  0  0
  187.7980  178.7800  140.7330 C   0  0  0  0  0  2  0  0  0  0  0  0
  189.3780  177.1400  141.6310 C   0  0  2  0  0  3  0  0  0  0  0  0
  188.9960  177.7820  145.1410 C   0  0  0  0  0  2  0  0  0  0  0  0
  187.9580  177.5890  141.5790 N   0  0  1  0  0  0  0  0  0  0  0  0
  189.4800  177.6820  139.1630 C   0  0  0  0  0  2  0  0  0  0  0  0
  191.2110  176.7990  143.8810 S   0  0  0  0  0  0  0  0  0  0  0  0
  184.8310  178.4940  145.2750 C   0  0  0  0  0  3  0  0  0  0  0  0
  183.7610  178.5930  144.3810 C   0  0  0  0  0  0  0  0  0  0  0  0
  183.9880  178.4940  143.0060 C   0  0  0  0  0  3  0  0  0  0  0  0
  186.1270  178.2910  144.7920 C   0  0  0  0  0  3  0  0  0  0  0  0
  182.5040  178.7890  144.8480 F   0  0  0  0  0  0  0  0  0  0  0  0
  186.3650  178.1840  143.4130 C   0  0  0  0  0  0  0  0  0  0  0  0
  185.2850  178.2920  142.5250 C   0  0  0  0  0  3  0  0  0  0  0  0
  190.8310  176.9050  146.6200 C   0  0  0  0  0  0  0  0  0  0  0  0
  192.0180  176.4110  146.7440 N   0  0  0  0  0  2  0  0  0  0  0  0
  190.1270  177.2960  147.7980 N   0  0  0  0  0  1  0  0  0  0  0  0
  191.5170  176.9240  140.3590 N   0  0  0  0  0  2  0  0  0  0  0  0
  191.7150  176.4590  138.9880 C   0  0  0  0  0  2  0  0  0  0  0  0
  193.1090  176.8300  138.5120 C   0  0  0  0  0  2  0  0  0  0  0  0
  193.8510  176.1550  136.3970 C   0  0  0  0  0  2  0  0  0  0  0  0
  192.7010  174.6700  137.7210 C   0  0  0  0  0  2  0  0  0  0  0  0
  193.6990  175.7240  137.7730 N   0  0  0  0  0  0  0  0  0  0  0  0
  193.3210  175.0420  135.5260 C   0  0  0  0  0  2  0  0  0  0  0  0
  192.7400  174.0460  136.4080 N   0  0  0  0  0  2  0  0  0  0  0  0
  1 21  1  1  0  0  0
  2 19  1  0  0  0  0
  2  4  1  0  0  0  0
  4 10  1  1  0  0  0
  5  3  1  1  0  0  0
  5  8  1  0  0  0  0
  6  4  1  0  0  0  0
  6 13  1  1  0  0  0
  7 24  1  6  0  0  0
  7  9  1  0  0  0  0
  8 11  1  0  0  0  0
  9  6  1  0  0  0  0
 10  1  1  0  0  0  0
 11  9  1  0  0  0  0
 11  2  1  0  0  0  0
 12  5  1  0  0  0  0
 12  7  1  0  0  0  0
 13  1  1  0  0  0  0
 15 18  1  0  0  0  0
 15 14  2  0  0  0  0
 16 15  1  0  0  0  0
 17 14  1  0  0  0  0
 19 17  2  0  0  0  0
 20 16  2  0  0  0  0
 20 19  1  0  0  0  0
 21 22  2  0  0  0  0
 21 23  1  0  0  0  0
 25 24  1  0  0  0  0
 26 25  1  0  0  0  0
 27 29  1  0  0  0  0
 28 29  1  0  0  0  0
 29 26  1  0  0  0  0
 30 27  1  0  0  0  0
 30 31  1  0  0  0  0
 31 28  1  0  0  0  0
M  END
>  <MODEL>
5

>  <REMARK>
 VINA RESULT:      -8.0      3.137      5.342
  Name = 
  6 active torsions:
  status: ('A' for Active; 'I' for Inactive)
    1  A    between atoms: C_1  and  C_3
    2  A    between atoms: N_4  and  C_16
    3  A    between atoms: N_4  and  C_28
    4  A    between atoms: N_6  and  C_24
    5  A    between atoms: C_11  and  N_14
    6  A    between atoms: C_11  and  C_28
                            x       y       z     vdW  Elec       q    Type
                         _______ _______ _______ _____ _____    ______ ____

>  <TORSDO>
F 6

$$$$
=
 OpenBabel10222422063D

 31 35  0  0  1  0  0  0  0  0999 V2000
  189.4920  177.0770  140.8060 C   0  0  1  0  0  3  0  0  0  0  0  0
  188.4620  177.7330  144.2240 N   0  0  0  0  0  0  0  0  0  0  0  0
  184.7370  178.0670  146.4080 N   0  0  0  0  0  1  0  0  0  0  0  0
  188.7780  178.0530  142.8770 C   0  0  2  0  0  3  0  0  0  0  0  0
  185.2150  179.0150  145.4180 C   0  0  1  0  0  3  0  0  0  0  0  0
  187.6960  178.1870  142.1750 C   0  0  2  0  0  3  0  0  0  0  0  0
  185.3810  178.8630  142.8940 C   0  0  2  0  0  3  0  0  0  0  0  0
  186.7300  178.8730  145.2480 C   0  0  0  0  0  2  0  0  0  0  0  0
  186.5280  177.8420  143.0370 C   0  0  2  0  0  3  0  0  0  0  0  0
  189.9960  177.6470  142.1350 C   0  0  0  0  0  2  0  0  0  0  0  0
  187.0670  177.7060  144.4200 N   0  0  1  0  0  0  0  0  0  0  0  0
  184.4510  178.8130  144.1060 C   0  0  0  0  0  2  0  0  0  0  0  0
  187.8640  177.8410  140.4380 S   0  0  0  0  0  0  0  0  0  0  0  0
  191.6070  176.5110  145.8730 C   0  0  0  0  0  3  0  0  0  0  0  0
  191.2140  176.4900  147.2140 C   0  0  0  0  0  0  0  0  0  0  0  0
  189.9200  176.8770  147.5680 C   0  0  0  0  0  3  0  0  0  0  0  0
  190.7030  176.9150  144.8870 C   0  0  0  0  0  3  0  0  0  0  0  0
  192.0900  176.0980  148.1700 F   0  0  0  0  0  0  0  0  0  0  0  0
  189.3970  177.3000  145.2310 C   0  0  0  0  0  0  0  0  0  0  0  0
  189.0170  177.2820  146.5810 C   0  0  0  0  0  3  0  0  0  0  0  0
  190.4720  177.3000  139.6900 C   0  0  0  0  0  0  0  0  0  0  0  0
  191.7380  177.3000  139.9480 N   0  0  0  0  0  1  0  0  0  0  0  0
  190.0270  177.8510  138.4530 N   0  0  0  0  0  2  0  0  0  0  0  0
  184.6480  178.7020  141.6360 N   0  0  0  0  0  2  0  0  0  0  0  0
  183.2770  178.2640  141.8890 C   0  0  0  0  0  2  0  0  0  0  0  0
  182.4920  178.2450  140.5890 C   0  0  0  0  0  2  0  0  0  0  0  0
  180.7210  179.6270  139.9310 C   0  0  0  0  0  2  0  0  0  0  0  0
  181.0280  179.1630  142.1610 C   0  0  0  0  0  2  0  0  0  0  0  0
  181.0940  178.5610  140.8400 N   0  0  0  0  0  0  0  0  0  0  0  0
  179.9830  180.6620  140.7450 C   0  0  0  0  0  2  0  0  0  0  0  0
  180.0650  180.2530  142.1360 N   0  0  0  0  0  2  0  0  0  0  0  0
  1 21  1  6  0  0  0
  1 10  1  0  0  0  0
  2 11  1  0  0  0  0
  2 19  1  0  0  0  0
  4 10  1  6  0  0  0
  4  2  1  0  0  0  0
  5  3  1  1  0  0  0
  6 13  1  6  0  0  0
  6  4  1  0  0  0  0
  6  9  1  0  0  0  0
  7 24  1  6  0  0  0
  7  9  1  0  0  0  0
  7 12  1  0  0  0  0
  8  5  1  0  0  0  0
  9 11  1  0  0  0  0
 11  8  1  0  0  0  0
 12  5  1  0  0  0  0
 13  1  1  0  0  0  0
 14 15  1  0  0  0  0
 15 16  2  0  0  0  0
 15 18  1  0  0  0  0
 17 19  1  0  0  0  0
 17 14  2  0  0  0  0
 19 20  2  0  0  0  0
 20 16  1  0  0  0  0
 21 22  1  0  0  0  0
 23 21  2  0  0  0  0
 24 25  1  0  0  0  0
 26 29  1  0  0  0  0
 26 25  1  0  0  0  0
 27 30  1  0  0  0  0
 27 29  1  0  0  0  0
 29 28  1  0  0  0  0
 30 31  1  0  0  0  0
 31 28  1  0  0  0  0
M  END
>  <MODEL>
6

>  <REMARK>
 VINA RESULT:      -8.0      2.409      6.240
  Name = 
  6 active torsions:
  status: ('A' for Active; 'I' for Inactive)
    1  A    between atoms: C_1  and  C_3
    2  A    between atoms: N_4  and  C_16
    3  A    between atoms: N_4  and  C_28
    4  A    between atoms: N_6  and  C_24
    5  A    between atoms: C_11  and  N_14
    6  A    between atoms: C_11  and  C_28
                            x       y       z     vdW  Elec       q    Type
                         _______ _______ _______ _____ _____    ______ ____

>  <TORSDO>
F 6

$$$$
=
 OpenBabel10222422063D

 31 35  0  0  1  0  0  0  0  0999 V2000
  189.2790  177.2840  140.7270 C   0  0  1  0  0  3  0  0  0  0  0  0
  188.3690  177.7730  144.2070 N   0  0  0  0  0  0  0  0  0  0  0  0
  184.7250  177.9480  146.5410 N   0  0  0  0  0  1  0  0  0  0  0  0
  188.6280  178.1570  142.8650 C   0  0  2  0  0  3  0  0  0  0  0  0
  185.1510  178.9460  145.5760 C   0  0  1  0  0  3  0  0  0  0  0  0
  187.5200  178.3030  142.2100 C   0  0  2  0  0  3  0  0  0  0  0  0
  185.2230  178.9080  143.0430 C   0  0  2  0  0  3  0  0  0  0  0  0
  186.6600  178.8380  145.3440 C   0  0  0  0  0  2  0  0  0  0  0  0
  186.3900  177.9010  143.0990 C   0  0  2  0  0  3  0  0  0  0  0  0
  189.8240  177.8040  142.0610 C   0  0  0  0  0  2  0  0  0  0  0  0
  186.9830  177.7140  144.4540 N   0  0  1  0  0  0  0  0  0  0  0  0
  184.3410  178.7890  144.2860 C   0  0  0  0  0  2  0  0  0  0  0  0
  187.6260  178.0360  140.4550 S   0  0  0  0  0  0  0  0  0  0  0  0
  191.5930  176.5360  145.6830 C   0  0  0  0  0  3  0  0  0  0  0  0
  191.2510  176.4480  147.0350 C   0  0  0  0  0  0  0  0  0  0  0  0
  189.9640  176.7950  147.4540 C   0  0  0  0  0  3  0  0  0  0  0  0
  190.6460  176.9670  144.7500 C   0  0  0  0  0  3  0  0  0  0  0  0
  192.1680  176.0290  147.9400 F   0  0  0  0  0  0  0  0  0  0  0  0
  189.3480  177.3120  145.1590 C   0  0  0  0  0  0  0  0  0  0  0  0
  189.0180  177.2270  146.5200 C   0  0  0  0  0  3  0  0  0  0  0  0
  190.2130  177.5730  139.5870 C   0  0  0  0  0  0  0  0  0  0  0  0
  189.7310  177.9640  138.4550 N   0  0  0  0  0  2  0  0  0  0  0  0
  191.5550  177.0910  139.6300 N   0  0  0  0  0  1  0  0  0  0  0  0
  184.4450  178.7900  141.8080 N   0  0  0  0  0  2  0  0  0  0  0  0
  183.0200  178.6670  142.1040 C   0  0  0  0  0  2  0  0  0  0  0  0
  182.2470  178.3940  140.8250 C   0  0  0  0  0  2  0  0  0  0  0  0
  182.9140  178.4670  138.5820 C   0  0  0  0  0  2  0  0  0  0  0  0
  182.5920  176.4330  139.6030 C   0  0  0  0  0  2  0  0  0  0  0  0
  183.1130  177.7690  139.8370 N   0  0  0  0  0  0  0  0  0  0  0  0
  182.7410  177.4130  137.5150 C   0  0  0  0  0  2  0  0  0  0  0  0
  182.6980  176.1260  138.1850 N   0  0  0  0  0  2  0  0  0  0  0  0
  1 21  1  6  0  0  0
  1 10  1  0  0  0  0
  2 11  1  0  0  0  0
  2 19  1  0  0  0  0
  4 10  1  6  0  0  0
  4  2  1  0  0  0  0
  5  3  1  1  0  0  0
  6 13  1  6  0  0  0
  6  4  1  0  0  0  0
  6  9  1  0  0  0  0
  7 24  1  6  0  0  0
  7  9  1  0  0  0  0
  7 12  1  0  0  0  0
  8  5  1  0  0  0  0
  9 11  1  0  0  0  0
 11  8  1  0  0  0  0
 12  5  1  0  0  0  0
 13  1  1  0  0  0  0
 14 15  1  0  0  0  0
 15 16  2  0  0  0  0
 15 18  1  0  0  0  0
 17 19  1  0  0  0  0
 17 14  2  0  0  0  0
 19 20  2  0  0  0  0
 20 16  1  0  0  0  0
 21 23  1  0  0  0  0
 22 21  2  0  0  0  0
 24 25  1  0  0  0  0
 26 25  1  0  0  0  0
 27 29  1  0  0  0  0
 28 29  1  0  0  0  0
 29 26  1  0  0  0  0
 30 31  1  0  0  0  0
 30 27  1  0  0  0  0
 31 28  1  0  0  0  0
M  END
>  <MODEL>
7

>  <REMARK>
 VINA RESULT:      -7.8      2.327      5.413
  Name = 
  6 active torsions:
  status: ('A' for Active; 'I' for Inactive)
    1  A    between atoms: C_1  and  C_3
    2  A    between atoms: N_4  and  C_16
    3  A    between atoms: N_4  and  C_28
    4  A    between atoms: N_6  and  C_24
    5  A    between atoms: C_11  and  N_14
    6  A    between atoms: C_11  and  C_28
                            x       y       z     vdW  Elec       q    Type
                         _______ _______ _______ _____ _____    ______ ____

>  <TORSDO>
F 6

$$$$
=
 OpenBabel10222422063D

 31 35  0  0  1  0  0  0  0  0999 V2000
  187.4970  178.0060  140.2300 C   0  0  1  0  0  3  0  0  0  0  0  0
  185.2920  178.5460  143.0620 N   0  0  0  0  0  0  0  0  0  0  0  0
  181.0520  178.2320  143.8880 N   0  0  0  0  0  1  0  0  0  0  0  0
  185.9790  178.8850  141.8670 C   0  0  2  0  0  3  0  0  0  0  0  0
  181.6660  179.2270  143.0260 C   0  0  1  0  0  3  0  0  0  0  0  0
  185.1880  178.7950  140.8440 C   0  0  2  0  0  3  0  0  0  0  0  0
  182.6880  179.0430  140.7150 C   0  0  2  0  0  3  0  0  0  0  0  0
  183.1510  179.3670  143.3690 C   0  0  0  0  0  2  0  0  0  0  0  0
  183.8750  178.2590  141.3090 C   0  0  2  0  0  3  0  0  0  0  0  0
  187.4250  178.6950  141.5970 C   0  0  0  0  0  2  0  0  0  0  0  0
  183.9360  178.2630  142.7980 N   0  0  1  0  0  0  0  0  0  0  0  0
  181.4290  178.8510  141.5610 C   0  0  0  0  0  2  0  0  0  0  0  0
  185.9810  178.4420  139.2920 S   0  0  0  0  0  0  0  0  0  0  0  0
  187.6330  177.3300  145.7340 C   0  0  0  0  0  3  0  0  0  0  0  0
  187.0770  177.9260  146.8680 C   0  0  0  0  0  0  0  0  0  0  0  0
  185.9360  178.7240  146.7490 C   0  0  0  0  0  3  0  0  0  0  0  0
  187.0460  177.5280  144.4810 C   0  0  0  0  0  3  0  0  0  0  0  0
  187.6460  177.7340  148.0830 F   0  0  0  0  0  0  0  0  0  0  0  0
  185.8960  178.3230  144.3510 C   0  0  0  0  0  0  0  0  0  0  0  0
  185.3500  178.9220  145.4960 C   0  0  0  0  0  3  0  0  0  0  0  0
  188.7410  178.3800  139.4770 C   0  0  0  0  0  0  0  0  0  0  0  0
  188.6440  179.0970  138.4060 N   0  0  0  0  0  2  0  0  0  0  0  0
  189.9580  177.6770  139.7200 N   0  0  0  0  0  1  0  0  0  0  0  0
  182.4530  178.7150  139.3060 N   0  0  0  0  0  2  0  0  0  0  0  0
  182.2790  179.9300  138.5140 C   0  0  0  0  0  2  0  0  0  0  0  0
  181.2480  179.6940  137.4240 C   0  0  0  0  0  2  0  0  0  0  0  0
  180.4790  181.2890  135.8930 C   0  0  0  0  0  2  0  0  0  0  0  0
  181.0160  181.9370  138.0320 C   0  0  0  0  0  2  0  0  0  0  0  0
  180.3950  180.8630  137.2770 N   0  0  0  0  0  0  0  0  0  0  0  0
  180.6930  182.7830  135.9050 C   0  0  0  0  0  2  0  0  0  0  0  0
  180.8730  183.1800  137.2900 N   0  0  0  0  0  2  0  0  0  0  0  0
  1 21  1  6  0  0  0
  1 10  1  0  0  0  0
  2 19  1  0  0  0  0
  4 10  1  6  0  0  0
  4  2  1  0  0  0  0
  5  8  1  0  0  0  0
  5  3  1  1  0  0  0
  6 13  1  6  0  0  0
  6  9  1  0  0  0  0
  6  4  1  0  0  0  0
  7 24  1  6  0  0  0
  7  9  1  0  0  0  0
  7 12  1  0  0  0  0
  9 11  1  0  0  0  0
 11  2  1  0  0  0  0
 11  8  1  0  0  0  0
 12  5  1  0  0  0  0
 13  1  1  0  0  0  0
 14 15  1  0  0  0  0
 15 18  1  0  0  0  0
 16 15  2  0  0  0  0
 17 14  2  0  0  0  0
 19 17  1  0  0  0  0
 19 20  2  0  0  0  0
 20 16  1  0  0  0  0
 21 23  1  0  0  0  0
 22 21  2  0  0  0  0
 25 24  1  0  0  0  0
 26 25  1  0  0  0  0
 27 30  1  0  0  0  0
 27 29  1  0  0  0  0
 29 26  1  0  0  0  0
 29 28  1  0  0  0  0
 30 31  1  0  0  0  0
 31 28  1  0  0  0  0
M  END
>  <MODEL>
8

>  <REMARK>
 VINA RESULT:      -7.8      3.968      6.705
  Name = 
  6 active torsions:
  status: ('A' for Active; 'I' for Inactive)
    1  A    between atoms: C_1  and  C_3
    2  A    between atoms: N_4  and  C_16
    3  A    between atoms: N_4  and  C_28
    4  A    between atoms: N_6  and  C_24
    5  A    between atoms: C_11  and  N_14
    6  A    between atoms: C_11  and  C_28
                            x       y       z     vdW  Elec       q    Type
                         _______ _______ _______ _____ _____    ______ ____

>  <TORSDO>
F 6

$$$$
=
 OpenBabel10222422063D

 31 35  0  0  1  0  0  0  0  0999 V2000
  190.5760  177.6570  142.6040 C   0  0  1  0  0  3  0  0  0  0  0  0
  189.7660  176.7460  139.1850 N   0  0  0  0  0  0  0  0  0  0  0  0
  187.0840  178.1360  136.0810 N   0  0  0  0  0  1  0  0  0  0  0  0
  189.6260  176.7470  140.5980 C   0  0  2  0  0  3  0  0  0  0  0  0
  186.6750  177.4740  137.3070 C   0  0  1  0  0  3  0  0  0  0  0  0
  188.6730  177.5470  140.9620 C   0  0  2  0  0  3  0  0  0  0  0  0
  186.6160  178.2780  139.7090 C   0  0  2  0  0  3  0  0  0  0  0  0
  187.8500  176.6850  137.8910 C   0  0  0  0  0  2  0  0  0  0  0  0
  188.1570  178.2490  139.7490 C   0  0  2  0  0  3  0  0  0  0  0  0
  190.7020  176.5140  141.5920 C   0  0  0  0  0  2  0  0  0  0  0  0
  188.7940  177.5720  138.5840 N   0  0  1  0  0  0  0  0  0  0  0  0
  186.1120  178.5090  138.2840 C   0  0  0  0  0  2  0  0  0  0  0  0
  188.8350  178.2400  142.5920 S   0  0  0  0  0  0  0  0  0  0  0  0
  191.7440  174.3650  137.0610 C   0  0  0  0  0  3  0  0  0  0  0  0
  192.9670  175.0360  136.9750 C   0  0  0  0  0  0  0  0  0  0  0  0
  193.1340  176.2660  137.6150 C   0  0  0  0  0  3  0  0  0  0  0  0
  190.6910  174.9230  137.7910 C   0  0  0  0  0  3  0  0  0  0  0  0
  193.9890  174.4960  136.2680 F   0  0  0  0  0  0  0  0  0  0  0  0
  190.8500  176.1550  138.4430 C   0  0  0  0  0  0  0  0  0  0  0  0
  192.0790  176.8240  138.3440 C   0  0  0  0  0  3  0  0  0  0  0  0
  191.0100  177.2390  143.9800 C   0  0  0  0  0  0  0  0  0  0  0  0
  191.6150  176.1090  144.1390 N   0  0  0  0  0  2  0  0  0  0  0  0
  190.4610  177.8890  145.1250 N   0  0  0  0  0  1  0  0  0  0  0  0
  186.0530  179.2480  140.6520 N   0  0  0  0  0  2  0  0  0  0  0  0
  184.6510  178.9450  140.9300 C   0  0  0  0  0  2  0  0  0  0  0  0
  184.5390  178.1610  142.2270 C   0  0  0  0  0  2  0  0  0  0  0  0
  185.5800  178.4250  144.3070 C   0  0  0  0  0  2  0  0  0  0  0  0
  183.3880  179.0660  144.0470 C   0  0  0  0  0  2  0  0  0  0  0  0
  184.6720  179.0540  143.3680 N   0  0  0  0  0  0  0  0  0  0  0  0
  184.9410  178.5270  145.6710 C   0  0  0  0  0  2  0  0  0  0  0  0
  183.6130  179.0830  145.4840 N   0  0  0  0  0  2  0  0  0  0  0  0
  1 21  1  1  0  0  0
  2  4  1  0  0  0  0
  4  6  1  0  0  0  0
  4 10  1  1  0  0  0
  5  3  1  6  0  0  0
  5  8  1  0  0  0  0
  5 12  1  0  0  0  0
  6 13  1  1  0  0  0
  7  9  1  0  0  0  0
  7 24  1  1  0  0  0
  8 11  1  0  0  0  0
  9  6  1  0  0  0  0
 10  1  1  0  0  0  0
 11  2  1  0  0  0  0
 11  9  1  0  0  0  0
 12  7  1  0  0  0  0
 13  1  1  0  0  0  0
 14 17  1  0  0  0  0
 15 14  2  0  0  0  0
 15 16  1  0  0  0  0
 16 20  2  0  0  0  0
 17 19  2  0  0  0  0
 18 15  1  0  0  0  0
 19  2  1  0  0  0  0
 20 19  1  0  0  0  0
 21 22  2  0  0  0  0
 21 23  1  0  0  0  0
 24 25  1  0  0  0  0
 25 26  1  0  0  0  0
 26 29  1  0  0  0  0
 27 30  1  0  0  0  0
 28 31  1  0  0  0  0
 29 28  1  0  0  0  0
 29 27  1  0  0  0  0
 31 30  1  0  0  0  0
M  END
>  <MODEL>
9

>  <REMARK>
 VINA RESULT:      -7.7      2.999      7.077
  Name = 
  6 active torsions:
  status: ('A' for Active; 'I' for Inactive)
    1  A    between atoms: C_1  and  C_3
    2  A    between atoms: N_4  and  C_16
    3  A    between atoms: N_4  and  C_28
    4  A    between atoms: N_6  and  C_24
    5  A    between atoms: C_11  and  N_14
    6  A    between atoms: C_11  and  C_28
                            x       y       z     vdW  Elec       q    Type
                         _______ _______ _______ _____ _____    ______ ____

>  <TORSDO>
F 6

$$$$
