=
 OpenBabel10232412023D

 41 43  0  0  1  0  0  0  0  0999 V2000
  188.2570  177.9610  140.5630 C   0  0  0  0  0  0  0  0  0  0  0  0
  189.0810  177.1220  141.1240 N   0  0  0  0  0  0  0  0  0  0  0  0
  188.2650  175.8380  142.9200 O   0  0  0  0  0  0  0  0  0  0  0  0
  189.1020  176.6800  142.4920 C   0  0  0  0  0  0  0  0  0  0  0  0
  191.5710  179.0020  144.1200 C   0  0  0  0  0  3  0  0  0  0  0  0
  190.5660  176.4820  144.4460 N   0  0  0  0  0  0  0  0  0  0  0  0
  191.4870  176.9690  145.3180 C   0  0  0  0  0  0  0  0  0  0  0  0
  190.6210  178.5230  143.2180 C   0  0  0  0  0  3  0  0  0  0  0  0
  191.9580  176.1230  146.4440 C   0  0  0  0  0  1  0  0  0  0  0  0
  190.1190  177.2310  143.4010 C   0  0  0  0  0  0  0  0  0  0  0  0
  191.9870  178.2200  145.1500 N   0  0  0  0  0  0  0  0  0  0  0  0
  188.4060  178.2360  139.1010 C   0  0  0  0  0  2  0  0  0  0  0  0
  189.4690  176.6110  137.6330 C   0  0  0  0  0  0  0  0  0  0  0  0
  190.5570  176.2720  137.0040 C   0  0  0  0  0  3  0  0  0  0  0  0
  188.4090  176.9680  138.3080 C   0  0  0  0  0  3  0  0  0  0  0  0
  191.3330  175.0830  137.4510 C   0  0  0  0  0  2  0  0  0  0  0  0
  197.5270  173.9590  137.7300 C   0  0  0  0  0  2  0  0  0  0  0  0
  193.6930  174.6280  137.6830 N   0  0  0  0  0  0  0  0  0  0  0  0
  195.7110  173.2820  139.1110 O   0  0  0  0  0  0  0  0  0  0  0  0
  199.1780  174.8880  136.0680 N   0  0  0  0  0  1  0  0  0  0  0  0
  196.0730  173.9350  138.0980 C   0  0  0  0  0  0  0  0  0  0  0  0
  193.0270  175.8680  135.6780 C   0  0  0  0  0  2  0  0  0  0  0  0
  195.0730  174.6610  137.2930 C   0  0  0  0  0  0  0  0  0  0  0  0
  197.8290  174.7840  136.5070 C   0  0  0  0  0  0  0  0  0  0  0  0
  196.8740  175.4220  135.8240 C   0  0  0  0  0  3  0  0  0  0  0  0
  194.4560  176.0790  135.4570 N   0  0  0  0  0  0  0  0  0  0  0  0
  195.4500  175.3660  136.2140 C   0  0  0  0  0  0  0  0  0  0  0  0
  192.7460  175.1900  136.9920 C   0  0  0  0  0  0  0  0  0  0  0  0
  194.8380  176.9450  134.3520 C   0  0  0  0  0  1  0  0  0  0  0  0
  187.1250  178.6000  141.3040 C   0  0  0  0  0  2  0  0  0  0  0  0
  186.0700  178.9600  140.3730 N   0  0  0  0  0  2  0  0  0  0  0  0
  184.8190  178.8480  141.0950 C   0  0  0  0  0  2  0  0  0  0  0  0
  185.0840  178.9610  142.5840 C   0  0  0  0  0  2  0  0  0  0  0  0
  182.7260  178.6910  142.8160 O   0  0  0  0  0  1  0  0  0  0  0  0
  183.8230  179.4040  143.3040 C   0  0  1  0  0  3  0  0  0  0  0  0
  183.9810  179.1470  144.7900 C   0  0  0  0  0  2  0  0  0  0  0  0
  185.3040  178.4520  145.0580 C   0  0  0  0  0  2  0  0  0  0  0  0
  185.5180  178.2710  146.5540 C   0  0  2  0  0  3  0  0  0  0  0  0
  185.5430  179.5210  147.1720 O   0  0  0  0  0  1  0  0  0  0  0  0
  186.8420  177.5640  146.8050 C   0  0  0  0  0  2  0  0  0  0  0  0
  187.8890  178.0270  145.8070 C   0  0  0  0  0  1  0  0  0  0  0  0
  1  2  2  0  0  0  0
  1 30  1  0  0  0  0
  2  4  1  0  0  0  0
  4  3  2  0  0  0  0
  4 10  1  0  0  0  0
  5 11  2  0  0  0  0
  6  7  2  0  0  0  0
  7  9  1  0  0  0  0
  8 10  2  0  0  0  0
  8  5  1  0  0  0  0
 10  6  1  0  0  0  0
 11  7  1  0  0  0  0
 12  1  1  0  0  0  0
 13 15  2  0  0  0  0
 14 16  1  0  0  0  0
 14 13  2  0  0  0  0
 15 12  1  0  0  0  0
 17 21  1  0  0  0  0
 20 24  1  0  0  0  0
 21 19  2  0  0  0  0
 22 28  1  0  0  0  0
 23 18  1  0  0  0  0
 23 21  1  0  0  0  0
 24 17  1  0  0  0  0
 25 27  1  0  0  0  0
 25 24  2  0  0  0  0
 26 22  1  0  0  0  0
 26 27  1  0  0  0  0
 27 23  2  0  0  0  0
 28 16  1  0  0  0  0
 28 18  2  0  0  0  0
 29 26  1  0  0  0  0
 31 32  1  0  0  0  0
 31 30  1  0  0  0  0
 32 33  1  0  0  0  0
 33 35  1  0  0  0  0
 35 34  1  6  0  0  0
 35 36  1  0  0  0  0
 36 37  1  0  0  0  0
 37 38  1  0  0  0  0
 38 40  1  0  0  0  0
 38 39  1  1  0  0  0
 41 40  1  0  0  0  0
M  END
>  <MODEL>
1

>  <REMARK>
 VINA RESULT:      -8.1      0.000      0.000
  Name = 
  15 active torsions:
  status: ('A' for Active; 'I' for Inactive)
    1  A    between atoms: C_8  and  C_23
    2  A    between atoms: C_8  and  C_31
    3  A    between atoms: C_9  and  C_41
    4  A    between atoms: C_11  and  C_16
    5  A    between atoms: C_11  and  N_19
    6  A    between atoms: C_14  and  C_25
    7  A    between atoms: C_14  and  C_34
    8  A    between atoms: C_16  and  C_38
    9  A    between atoms: N_19  and  C_36
   10  A    between atoms: C_23  and  C_36
   11  A    between atoms: C_27  and  C_30
   12  A    between atoms: C_28  and  C_34
   13  A    between atoms: C_28  and  C_38
   14  A    between atoms: C_30  and  N_32
   15  A    between atoms: C_39  and  C_41
                            x       y       z     vdW  Elec       q    Type
                         _______ _______ _______ _____ _____    ______ ____

>  <TORSDO>
F 15

$$$$
=
 OpenBabel10232412023D

 41 43  0  0  1  0  0  0  0  0999 V2000
  182.7900  178.3080  139.4610 C   0  0  0  0  0  0  0  0  0  0  0  0
  181.7460  178.8080  138.8650 N   0  0  0  0  0  0  0  0  0  0  0  0
  180.6970  180.4340  140.2050 O   0  0  0  0  0  0  0  0  0  0  0  0
  181.1360  180.0940  139.0720 C   0  0  0  0  0  0  0  0  0  0  0  0
  180.5450  181.4810  135.6290 C   0  0  0  0  0  3  0  0  0  0  0  0
  181.2700  182.3450  138.1170 N   0  0  0  0  0  0  0  0  0  0  0  0
  181.1540  183.2300  137.0930 C   0  0  0  0  0  0  0  0  0  0  0  0
  180.6520  180.5580  136.6680 C   0  0  0  0  0  3  0  0  0  0  0  0
  181.4350  184.6700  137.3240 C   0  0  0  0  0  1  0  0  0  0  0  0
  181.0250  181.0190  137.9340 C   0  0  0  0  0  0  0  0  0  0  0  0
  180.7960  182.7960  135.8570 N   0  0  0  0  0  0  0  0  0  0  0  0
  183.2700  176.9540  139.0450 C   0  0  0  0  0  2  0  0  0  0  0  0
  185.0010  177.5270  137.4330 C   0  0  0  0  0  0  0  0  0  0  0  0
  186.1810  178.0460  137.2520 C   0  0  0  0  0  3  0  0  0  0  0  0
  183.8360  176.9810  137.6610 C   0  0  0  0  0  3  0  0  0  0  0  0
  187.3250  177.1750  136.8670 C   0  0  0  0  0  2  0  0  0  0  0  0
  189.5120  178.2410  142.6810 C   0  0  0  0  0  2  0  0  0  0  0  0
  188.0700  177.6710  139.1110 N   0  0  0  0  0  0  0  0  0  0  0  0
  187.3820  178.5980  141.6780 O   0  0  0  0  0  0  0  0  0  0  0  0
  191.8820  177.7500  143.3790 N   0  0  0  0  0  1  0  0  0  0  0  0
  188.5640  178.1950  141.5190 C   0  0  0  0  0  0  0  0  0  0  0  0
  189.6860  176.5270  137.6670 C   0  0  0  0  0  2  0  0  0  0  0  0
  188.9990  177.6870  140.2030 C   0  0  0  0  0  0  0  0  0  0  0  0
  190.8950  177.7440  142.3550 C   0  0  0  0  0  0  0  0  0  0  0  0
  191.2240  177.2990  141.1390 C   0  0  0  0  0  3  0  0  0  0  0  0
  190.6610  176.7870  138.7240 N   0  0  0  0  0  0  0  0  0  0  0  0
  190.2580  177.2610  140.0220 C   0  0  0  0  0  0  0  0  0  0  0  0
  188.3580  177.1820  137.9410 C   0  0  0  0  0  0  0  0  0  0  0  0
  192.0440  176.4260  138.4560 C   0  0  0  0  0  1  0  0  0  0  0  0
  183.5730  179.0640  140.4890 C   0  0  0  0  0  2  0  0  0  0  0  0
  183.6090  178.3100  141.7300 N   0  0  0  0  0  2  0  0  0  0  0  0
  184.3410  179.1170  142.6870 C   0  0  0  0  0  2  0  0  0  0  0  0
  184.0270  178.6420  144.0920 C   0  0  0  0  0  2  0  0  0  0  0  0
  184.7580  179.1080  146.3130 O   0  0  0  0  0  1  0  0  0  0  0  0
  185.2080  178.9070  145.0070 C   0  0  1  0  0  3  0  0  0  0  0  0
  186.1480  177.7180  144.9660 C   0  0  0  0  0  2  0  0  0  0  0  0
  186.8530  177.5690  146.3020 C   0  0  0  0  0  2  0  0  0  0  0  0
  188.3520  177.7810  146.1400 C   0  0  2  0  0  3  0  0  0  0  0  0
  188.8840  176.7440  145.3740 O   0  0  0  0  0  1  0  0  0  0  0  0
  189.0240  177.7880  147.5050 C   0  0  0  0  0  2  0  0  0  0  0  0
  187.9830  177.8710  148.6090 C   0  0  0  0  0  1  0  0  0  0  0  0
  1 30  1  0  0  0  0
  2  4  1  0  0  0  0
  2  1  2  0  0  0  0
  4  3  2  0  0  0  0
  5 11  2  0  0  0  0
  5  8  1  0  0  0  0
  7  9  1  0  0  0  0
  7  6  2  0  0  0  0
  8 10  2  0  0  0  0
 10  6  1  0  0  0  0
 10  4  1  0  0  0  0
 11  7  1  0  0  0  0
 12  1  1  0  0  0  0
 13 15  2  0  0  0  0
 14 13  2  0  0  0  0
 15 12  1  0  0  0  0
 16 14  1  0  0  0  0
 16 28  1  0  0  0  0
 18 23  1  0  0  0  0
 21 19  2  0  0  0  0
 21 17  1  0  0  0  0
 22 28  1  0  0  0  0
 22 26  1  0  0  0  0
 23 21  1  0  0  0  0
 24 17  1  0  0  0  0
 24 20  1  0  0  0  0
 25 24  2  0  0  0  0
 26 27  1  0  0  0  0
 27 23  2  0  0  0  0
 27 25  1  0  0  0  0
 28 18  2  0  0  0  0
 29 26  1  0  0  0  0
 30 31  1  0  0  0  0
 31 32  1  0  0  0  0
 32 33  1  0  0  0  0
 33 35  1  0  0  0  0
 35 34  1  1  0  0  0
 36 35  1  0  0  0  0
 36 37  1  0  0  0  0
 38 39  1  6  0  0  0
 38 37  1  0  0  0  0
 38 40  1  0  0  0  0
 40 41  1  0  0  0  0
M  END
>  <MODEL>
2

>  <REMARK>
 VINA RESULT:      -7.9      3.573      8.010
  Name = 
  15 active torsions:
  status: ('A' for Active; 'I' for Inactive)
    1  A    between atoms: C_8  and  C_23
    2  A    between atoms: C_8  and  C_31
    3  A    between atoms: C_9  and  C_41
    4  A    between atoms: C_11  and  C_16
    5  A    between atoms: C_11  and  N_19
    6  A    between atoms: C_14  and  C_25
    7  A    between atoms: C_14  and  C_34
    8  A    between atoms: C_16  and  C_38
    9  A    between atoms: N_19  and  C_36
   10  A    between atoms: C_23  and  C_36
   11  A    between atoms: C_27  and  C_30
   12  A    between atoms: C_28  and  C_34
   13  A    between atoms: C_28  and  C_38
   14  A    between atoms: C_30  and  N_32
   15  A    between atoms: C_39  and  C_41
                            x       y       z     vdW  Elec       q    Type
                         _______ _______ _______ _____ _____    ______ ____

>  <TORSDO>
F 15

$$$$
=
 OpenBabel10232412023D

 41 43  0  0  1  0  0  0  0  0999 V2000
  185.8370  178.6600  141.5970 C   0  0  0  0  0  0  0  0  0  0  0  0
  185.4560  178.6150  140.3520 N   0  0  0  0  0  0  0  0  0  0  0  0
  184.2900  180.2780  139.1620 O   0  0  0  0  0  0  0  0  0  0  0  0
  184.2640  179.1720  139.7690 C   0  0  0  0  0  0  0  0  0  0  0  0
  180.7660  178.1950  140.7370 C   0  0  0  0  0  3  0  0  0  0  0  0
  182.8410  177.2530  139.2300 N   0  0  0  0  0  0  0  0  0  0  0  0
  181.6780  176.5550  139.3040 C   0  0  0  0  0  0  0  0  0  0  0  0
  181.9490  178.9300  140.6680 C   0  0  0  0  0  3  0  0  0  0  0  0
  181.5390  175.2700  138.5740 C   0  0  0  0  0  1  0  0  0  0  0  0
  182.9990  178.4310  139.8930 C   0  0  0  0  0  0  0  0  0  0  0  0
  180.6500  177.0250  140.0560 N   0  0  0  0  0  0  0  0  0  0  0  0
  187.1480  178.0410  141.9640 C   0  0  0  0  0  2  0  0  0  0  0  0
  189.0880  177.9750  140.4950 C   0  0  0  0  0  0  0  0  0  0  0  0
  189.8510  177.2350  139.7450 C   0  0  0  0  0  3  0  0  0  0  0  0
  188.2780  178.6900  141.2300 C   0  0  0  0  0  3  0  0  0  0  0  0
  189.8210  177.3970  138.2660 C   0  0  0  0  0  2  0  0  0  0  0  0
  184.2640  175.5720  135.9200 C   0  0  0  0  0  2  0  0  0  0  0  0
  187.6360  176.7930  137.4330 N   0  0  0  0  0  0  0  0  0  0  0  0
  185.0270  177.6460  136.8060 O   0  0  0  0  0  0  0  0  0  0  0  0
  183.8130  173.2380  135.0860 N   0  0  0  0  0  1  0  0  0  0  0  0
  185.3130  176.4500  136.5380 C   0  0  0  0  0  0  0  0  0  0  0  0
  189.3730  175.0750  137.2450 C   0  0  0  0  0  2  0  0  0  0  0  0
  186.6620  175.9300  136.8290 C   0  0  0  0  0  0  0  0  0  0  0  0
  184.7270  174.1640  135.6610 C   0  0  0  0  0  0  0  0  0  0  0  0
  185.9660  173.7560  135.9530 C   0  0  0  0  0  3  0  0  0  0  0  0
  188.2920  174.1680  136.8640 N   0  0  0  0  0  0  0  0  0  0  0  0
  186.9740  174.6540  136.5530 C   0  0  0  0  0  0  0  0  0  0  0  0
  188.8620  176.4280  137.6630 C   0  0  0  0  0  0  0  0  0  0  0  0
  188.6330  172.7660  136.6860 C   0  0  0  0  0  1  0  0  0  0  0  0
  185.0550  179.3690  142.6570 C   0  0  0  0  0  2  0  0  0  0  0  0
  184.4500  178.3990  143.5530 N   0  0  0  0  0  2  0  0  0  0  0  0
  183.8580  179.1490  144.6430 C   0  0  0  0  0  2  0  0  0  0  0  0
  184.3100  178.5600  145.9650 C   0  0  0  0  0  2  0  0  0  0  0  0
  185.8020  179.7260  147.4140 O   0  0  0  0  0  1  0  0  0  0  0  0
  185.7460  178.9590  146.2480 C   0  0  1  0  0  3  0  0  0  0  0  0
  186.5880  177.7090  146.4170 C   0  0  0  0  0  2  0  0  0  0  0  0
  187.5430  177.5660  145.2460 C   0  0  0  0  0  2  0  0  0  0  0  0
  188.9520  177.2660  145.7390 C   0  0  2  0  0  3  0  0  0  0  0  0
  189.1760  177.9470  146.9350 O   0  0  0  0  0  1  0  0  0  0  0  0
  189.9690  177.7240  144.7050 C   0  0  0  0  0  2  0  0  0  0  0  0
  190.3700  176.5680  143.8050 C   0  0  0  0  0  1  0  0  0  0  0  0
  1 12  1  0  0  0  0
  1 30  1  0  0  0  0
  2  1  2  0  0  0  0
  3  4  2  0  0  0  0
  4 10  1  0  0  0  0
  4  2  1  0  0  0  0
  6  7  2  0  0  0  0
  6 10  1  0  0  0  0
  7 11  1  0  0  0  0
  8  5  1  0  0  0  0
  9  7  1  0  0  0  0
 10  8  2  0  0  0  0
 11  5  2  0  0  0  0
 13 15  2  0  0  0  0
 14 13  2  0  0  0  0
 15 12  1  0  0  0  0
 16 14  1  0  0  0  0
 17 21  1  0  0  0  0
 18 28  2  0  0  0  0
 20 24  1  0  0  0  0
 21 19  2  0  0  0  0
 21 23  1  0  0  0  0
 22 28  1  0  0  0  0
 23 18  1  0  0  0  0
 24 17  1  0  0  0  0
 24 25  2  0  0  0  0
 25 27  1  0  0  0  0
 26 22  1  0  0  0  0
 27 23  2  0  0  0  0
 27 26  1  0  0  0  0
 28 16  1  0  0  0  0
 29 26  1  0  0  0  0
 30 31  1  0  0  0  0
 31 32  1  0  0  0  0
 32 33  1  0  0  0  0
 33 35  1  0  0  0  0
 35 36  1  0  0  0  0
 35 34  1  1  0  0  0
 37 38  1  0  0  0  0
 37 36  1  0  0  0  0
 38 39  1  1  0  0  0
 40 38  1  0  0  0  0
 41 40  1  0  0  0  0
M  END
>  <MODEL>
3

>  <REMARK>
 VINA RESULT:      -7.8      4.697      7.727
  Name = 
  15 active torsions:
  status: ('A' for Active; 'I' for Inactive)
    1  A    between atoms: C_8  and  C_23
    2  A    between atoms: C_8  and  C_31
    3  A    between atoms: C_9  and  C_41
    4  A    between atoms: C_11  and  C_16
    5  A    between atoms: C_11  and  N_19
    6  A    between atoms: C_14  and  C_25
    7  A    between atoms: C_14  and  C_34
    8  A    between atoms: C_16  and  C_38
    9  A    between atoms: N_19  and  C_36
   10  A    between atoms: C_23  and  C_36
   11  A    between atoms: C_27  and  C_30
   12  A    between atoms: C_28  and  C_34
   13  A    between atoms: C_28  and  C_38
   14  A    between atoms: C_30  and  N_32
   15  A    between atoms: C_39  and  C_41
                            x       y       z     vdW  Elec       q    Type
                         _______ _______ _______ _____ _____    ______ ____

>  <TORSDO>
F 15

$$$$
=
 OpenBabel10232412023D

 41 43  0  0  1  0  0  0  0  0999 V2000
  185.9610  178.7690  141.6880 C   0  0  0  0  0  0  0  0  0  0  0  0
  185.5510  178.6610  140.4560 N   0  0  0  0  0  0  0  0  0  0  0  0
  184.3230  180.2630  139.2450 O   0  0  0  0  0  0  0  0  0  0  0  0
  184.3380  179.1700  139.8760 C   0  0  0  0  0  0  0  0  0  0  0  0
  180.9160  178.0730  140.9820 C   0  0  0  0  0  3  0  0  0  0  0  0
  182.9250  177.2470  139.3250 N   0  0  0  0  0  0  0  0  0  0  0  0
  181.7820  176.5200  139.4290 C   0  0  0  0  0  0  0  0  0  0  0  0
  182.0800  178.8360  140.8850 C   0  0  0  0  0  3  0  0  0  0  0  0
  181.6290  175.2670  138.6480 C   0  0  0  0  0  1  0  0  0  0  0  0
  183.0960  178.3960  140.0330 C   0  0  0  0  0  0  0  0  0  0  0  0
  180.7870  176.9330  140.2560 N   0  0  0  0  0  0  0  0  0  0  0  0
  187.2900  178.1890  142.0510 C   0  0  0  0  0  2  0  0  0  0  0  0
  188.8090  177.8380  140.1810 C   0  0  0  0  0  0  0  0  0  0  0  0
  189.2070  177.0190  139.2510 C   0  0  0  0  0  3  0  0  0  0  0  0
  188.3560  178.6430  141.1050 C   0  0  0  0  0  3  0  0  0  0  0  0
  188.9020  177.3110  137.8240 C   0  0  0  0  0  2  0  0  0  0  0  0
  185.4410  172.1970  136.5670 C   0  0  0  0  0  2  0  0  0  0  0  0
  187.6840  175.2860  137.3230 N   0  0  0  0  0  0  0  0  0  0  0  0
  187.6890  172.4710  137.2970 O   0  0  0  0  0  0  0  0  0  0  0  0
  183.0520  172.3040  135.7730 N   0  0  0  0  0  1  0  0  0  0  0  0
  186.6190  173.0390  136.9600 C   0  0  0  0  0  0  0  0  0  0  0  0
  186.4090  177.3730  137.1790 C   0  0  0  0  0  2  0  0  0  0  0  0
  186.5340  174.5120  136.9560 C   0  0  0  0  0  0  0  0  0  0  0  0
  184.2270  172.9970  136.1740 C   0  0  0  0  0  0  0  0  0  0  0  0
  184.2190  174.3330  136.1890 C   0  0  0  0  0  3  0  0  0  0  0  0
  185.3490  176.5650  136.5800 N   0  0  0  0  0  0  0  0  0  0  0  0
  185.3980  175.1270  136.5920 C   0  0  0  0  0  0  0  0  0  0  0  0
  187.6710  176.5840  137.4040 C   0  0  0  0  0  0  0  0  0  0  0  0
  184.1770  177.2690  136.0830 C   0  0  0  0  0  1  0  0  0  0  0  0
  185.1910  179.5140  142.7330 C   0  0  0  0  0  2  0  0  0  0  0  0
  184.6340  178.5770  143.6930 N   0  0  0  0  0  2  0  0  0  0  0  0
  185.1420  178.9610  144.9950 C   0  0  0  0  0  2  0  0  0  0  0  0
  185.8330  177.7740  145.6380 C   0  0  0  0  0  2  0  0  0  0  0  0
  187.3820  177.9530  147.4410 O   0  0  0  0  0  1  0  0  0  0  0  0
  187.2360  178.1590  146.0680 C   0  0  1  0  0  3  0  0  0  0  0  0
  188.2400  177.3110  145.3120 C   0  0  0  0  0  2  0  0  0  0  0  0
  189.5000  177.1400  146.1390 C   0  0  0  0  0  2  0  0  0  0  0  0
  190.7080  176.9330  145.2360 C   0  0  2  0  0  3  0  0  0  0  0  0
  191.8540  177.3910  145.8860 O   0  0  0  0  0  1  0  0  0  0  0  0
  190.5240  177.7110  143.9410 C   0  0  0  0  0  2  0  0  0  0  0  0
  191.3470  178.9880  143.9660 C   0  0  0  0  0  1  0  0  0  0  0  0
  1 12  1  0  0  0  0
  1 30  1  0  0  0  0
  2  1  2  0  0  0  0
  3  4  2  0  0  0  0
  4 10  1  0  0  0  0
  4  2  1  0  0  0  0
  6  7  2  0  0  0  0
  6 10  1  0  0  0  0
  7 11  1  0  0  0  0
  8  5  1  0  0  0  0
  9  7  1  0  0  0  0
 10  8  2  0  0  0  0
 11  5  2  0  0  0  0
 13 15  2  0  0  0  0
 14 13  2  0  0  0  0
 15 12  1  0  0  0  0
 16 14  1  0  0  0  0
 17 21  1  0  0  0  0
 18 28  2  0  0  0  0
 20 24  1  0  0  0  0
 21 19  2  0  0  0  0
 22 28  1  0  0  0  0
 23 21  1  0  0  0  0
 23 18  1  0  0  0  0
 24 25  2  0  0  0  0
 24 17  1  0  0  0  0
 25 27  1  0  0  0  0
 26 27  1  0  0  0  0
 26 22  1  0  0  0  0
 27 23  2  0  0  0  0
 28 16  1  0  0  0  0
 29 26  1  0  0  0  0
 30 31  1  0  0  0  0
 31 32  1  0  0  0  0
 32 33  1  0  0  0  0
 33 35  1  0  0  0  0
 35 34  1  1  0  0  0
 36 35  1  0  0  0  0
 36 37  1  0  0  0  0
 38 39  1  1  0  0  0
 38 37  1  0  0  0  0
 40 41  1  0  0  0  0
 40 38  1  0  0  0  0
M  END
>  <MODEL>
4

>  <REMARK>
 VINA RESULT:      -7.8      4.863      8.018
  Name = 
  15 active torsions:
  status: ('A' for Active; 'I' for Inactive)
    1  A    between atoms: C_8  and  C_23
    2  A    between atoms: C_8  and  C_31
    3  A    between atoms: C_9  and  C_41
    4  A    between atoms: C_11  and  C_16
    5  A    between atoms: C_11  and  N_19
    6  A    between atoms: C_14  and  C_25
    7  A    between atoms: C_14  and  C_34
    8  A    between atoms: C_16  and  C_38
    9  A    between atoms: N_19  and  C_36
   10  A    between atoms: C_23  and  C_36
   11  A    between atoms: C_27  and  C_30
   12  A    between atoms: C_28  and  C_34
   13  A    between atoms: C_28  and  C_38
   14  A    between atoms: C_30  and  N_32
   15  A    between atoms: C_39  and  C_41
                            x       y       z     vdW  Elec       q    Type
                         _______ _______ _______ _____ _____    ______ ____

>  <TORSDO>
F 15

$$$$
=
 OpenBabel10232412023D

 41 43  0  0  1  0  0  0  0  0999 V2000
  188.9060  177.4200  142.8300 C   0  0  0  0  0  0  0  0  0  0  0  0
  190.1790  177.5830  143.0550 N   0  0  0  0  0  0  0  0  0  0  0  0
  191.8600  175.9480  143.2570 O   0  0  0  0  0  0  0  0  0  0  0  0
  191.0590  176.7420  143.8220 C   0  0  0  0  0  0  0  0  0  0  0  0
  191.8910  176.2900  147.4600 C   0  0  0  0  0  3  0  0  0  0  0  0
  190.0240  177.5300  145.8970 N   0  0  0  0  0  0  0  0  0  0  0  0
  189.9630  177.6370  147.2500 C   0  0  0  0  0  0  0  0  0  0  0  0
  191.9750  176.1740  146.0730 C   0  0  0  0  0  3  0  0  0  0  0  0
  188.8710  178.4200  147.8820 C   0  0  0  0  0  1  0  0  0  0  0  0
  191.0100  176.8150  145.2910 C   0  0  0  0  0  0  0  0  0  0  0  0
  190.8910  177.0170  148.0230 N   0  0  0  0  0  0  0  0  0  0  0  0
  188.2040  178.4120  141.9580 C   0  0  0  0  0  2  0  0  0  0  0  0
  188.8870  177.8380  139.6940 C   0  0  0  0  0  0  0  0  0  0  0  0
  188.7480  177.0080  138.7000 C   0  0  0  0  0  3  0  0  0  0  0  0
  188.9710  178.6660  140.7000 C   0  0  0  0  0  3  0  0  0  0  0  0
  188.0640  177.4500  137.4540 C   0  0  0  0  0  2  0  0  0  0  0  0
  182.1990  179.1690  138.9910 C   0  0  0  0  0  2  0  0  0  0  0  0
  185.8660  178.1930  138.1250 N   0  0  0  0  0  0  0  0  0  0  0  0
  184.2950  180.2820  139.1700 O   0  0  0  0  0  0  0  0  0  0  0  0
  180.1930  177.6800  138.6710 N   0  0  0  0  0  1  0  0  0  0  0  0
  183.6890  179.2360  138.8230 C   0  0  0  0  0  0  0  0  0  0  0  0
  185.9690  176.0280  136.9840 C   0  0  0  0  0  2  0  0  0  0  0  0
  184.4420  178.0990  138.2580 C   0  0  0  0  0  0  0  0  0  0  0  0
  181.5970  177.8610  138.5490 C   0  0  0  0  0  0  0  0  0  0  0  0
  182.3390  176.8690  138.0490 C   0  0  0  0  0  3  0  0  0  0  0  0
  184.5650  175.8770  137.3600 N   0  0  0  0  0  0  0  0  0  0  0  0
  183.8040  176.9770  137.8900 C   0  0  0  0  0  0  0  0  0  0  0  0
  186.5920  177.2610  137.5820 C   0  0  0  0  0  0  0  0  0  0  0  0
  183.9280  174.6050  137.0570 C   0  0  0  0  0  1  0  0  0  0  0  0
  188.1380  176.2430  143.3440 C   0  0  0  0  0  2  0  0  0  0  0  0
  186.7840  176.6480  143.6760 N   0  0  0  0  0  2  0  0  0  0  0  0
  186.7630  176.9030  145.1030 C   0  0  0  0  0  2  0  0  0  0  0  0
  186.4750  178.3720  145.3490 C   0  0  0  0  0  2  0  0  0  0  0  0
  185.6100  179.7050  147.1260 O   0  0  0  0  0  1  0  0  0  0  0  0
  185.4060  178.5210  146.4160 C   0  0  1  0  0  3  0  0  0  0  0  0
  184.0420  178.5470  145.7540 C   0  0  0  0  0  2  0  0  0  0  0  0
  184.1010  179.3650  144.4770 C   0  0  0  0  0  2  0  0  0  0  0  0
  183.4890  178.5910  143.3180 C   0  0  2  0  0  3  0  0  0  0  0  0
  184.3260  178.6840  142.2070 O   0  0  0  0  0  1  0  0  0  0  0  0
  182.1280  179.1750  142.9690 C   0  0  0  0  0  2  0  0  0  0  0  0
  181.0760  178.7010  143.9570 C   0  0  0  0  0  1  0  0  0  0  0  0
  1  2  2  0  0  0  0
  1 30  1  0  0  0  0
  2  4  1  0  0  0  0
  3  4  2  0  0  0  0
  4 10  1  0  0  0  0
  5 11  2  0  0  0  0
  6  7  2  0  0  0  0
  7  9  1  0  0  0  0
  7 11  1  0  0  0  0
  8  5  1  0  0  0  0
 10  6  1  0  0  0  0
 10  8  2  0  0  0  0
 12  1  1  0  0  0  0
 13 15  2  0  0  0  0
 14 13  2  0  0  0  0
 15 12  1  0  0  0  0
 16 28  1  0  0  0  0
 16 14  1  0  0  0  0
 18 23  1  0  0  0  0
 21 17  1  0  0  0  0
 21 19  2  0  0  0  0
 22 26  1  0  0  0  0
 22 28  1  0  0  0  0
 23 21  1  0  0  0  0
 24 20  1  0  0  0  0
 24 17  1  0  0  0  0
 25 24  2  0  0  0  0
 26 27  1  0  0  0  0
 27 25  1  0  0  0  0
 27 23  2  0  0  0  0
 28 18  2  0  0  0  0
 29 26  1  0  0  0  0
 30 31  1  0  0  0  0
 31 32  1  0  0  0  0
 32 33  1  0  0  0  0
 33 35  1  0  0  0  0
 35 34  1  6  0  0  0
 36 35  1  0  0  0  0
 37 36  1  0  0  0  0
 38 39  1  6  0  0  0
 38 37  1  0  0  0  0
 40 38  1  0  0  0  0
 40 41  1  0  0  0  0
M  END
>  <MODEL>
5

>  <REMARK>
 VINA RESULT:      -7.7      4.737      7.891
  Name = 
  15 active torsions:
  status: ('A' for Active; 'I' for Inactive)
    1  A    between atoms: C_8  and  C_23
    2  A    between atoms: C_8  and  C_31
    3  A    between atoms: C_9  and  C_41
    4  A    between atoms: C_11  and  C_16
    5  A    between atoms: C_11  and  N_19
    6  A    between atoms: C_14  and  C_25
    7  A    between atoms: C_14  and  C_34
    8  A    between atoms: C_16  and  C_38
    9  A    between atoms: N_19  and  C_36
   10  A    between atoms: C_23  and  C_36
   11  A    between atoms: C_27  and  C_30
   12  A    between atoms: C_28  and  C_34
   13  A    between atoms: C_28  and  C_38
   14  A    between atoms: C_30  and  N_32
   15  A    between atoms: C_39  and  C_41
                            x       y       z     vdW  Elec       q    Type
                         _______ _______ _______ _____ _____    ______ ____

>  <TORSDO>
F 15

$$$$
=
 OpenBabel10232412023D

 41 43  0  0  1  0  0  0  0  0999 V2000
  188.2280  178.1990  139.3450 C   0  0  0  0  0  0  0  0  0  0  0  0
  187.1230  178.3490  138.6720 N   0  0  0  0  0  0  0  0  0  0  0  0
  187.0840  179.4380  136.5860 O   0  0  0  0  0  0  0  0  0  0  0  0
  186.9500  178.3700  137.2450 C   0  0  0  0  0  0  0  0  0  0  0  0
  186.5420  175.7430  134.5870 C   0  0  0  0  0  3  0  0  0  0  0  0
  186.0370  176.0970  137.2480 N   0  0  0  0  0  0  0  0  0  0  0  0
  185.7280  174.9200  136.6440 C   0  0  0  0  0  0  0  0  0  0  0  0
  186.8720  176.9560  135.1890 C   0  0  0  0  0  3  0  0  0  0  0  0
  185.1020  173.8270  137.4310 C   0  0  0  0  0  1  0  0  0  0  0  0
  186.6060  177.1180  136.5520 C   0  0  0  0  0  0  0  0  0  0  0  0
  185.9780  174.7490  135.3210 N   0  0  0  0  0  0  0  0  0  0  0  0
  188.1540  178.1670  140.8390 C   0  0  0  0  0  2  0  0  0  0  0  0
  186.2130  178.3380  142.2970 C   0  0  0  0  0  0  0  0  0  0  0  0
  185.5490  177.8040  143.2800 C   0  0  0  0  0  3  0  0  0  0  0  0
  186.9260  178.8610  141.3360 C   0  0  0  0  0  3  0  0  0  0  0  0
  185.5230  178.4720  144.6100 C   0  0  0  0  0  2  0  0  0  0  0  0
  191.4540  176.4760  145.3550 C   0  0  0  0  0  2  0  0  0  0  0  0
  187.7880  177.6510  144.7810 N   0  0  0  0  0  0  0  0  0  0  0  0
  190.1100  176.8210  143.4220 O   0  0  0  0  0  0  0  0  0  0  0  0
  192.5500  176.2070  147.6080 N   0  0  0  0  0  1  0  0  0  0  0  0
  190.1730  176.8660  144.6780 C   0  0  0  0  0  0  0  0  0  0  0  0
  186.7340  178.3490  146.8790 C   0  0  0  0  0  2  0  0  0  0  0  0
  189.0000  177.2990  145.4610 C   0  0  0  0  0  0  0  0  0  0  0  0
  191.3960  176.5630  146.8570 C   0  0  0  0  0  0  0  0  0  0  0  0
  190.2970  176.9600  147.5060 C   0  0  0  0  0  3  0  0  0  0  0  0
  187.8930  177.7540  147.5410 N   0  0  0  0  0  0  0  0  0  0  0  0
  189.0570  177.3450  146.8010 C   0  0  0  0  0  0  0  0  0  0  0  0
  186.7340  178.1000  145.3950 C   0  0  0  0  0  0  0  0  0  0  0  0
  187.8770  177.7070  148.9950 C   0  0  0  0  0  1  0  0  0  0  0  0
  189.5530  177.9830  138.6860 C   0  0  0  0  0  2  0  0  0  0  0  0
  189.7530  176.5660  138.4370 N   0  0  0  0  0  2  0  0  0  0  0  0
  191.0890  176.2450  138.9020 C   0  0  0  0  0  2  0  0  0  0  0  0
  191.8530  175.5440  137.7960 C   0  0  0  0  0  2  0  0  0  0  0  0
  193.6350  176.8850  138.6380 O   0  0  0  0  0  1  0  0  0  0  0  0
  193.1210  176.3130  137.4730 C   0  0  1  0  0  3  0  0  0  0  0  0
  194.1410  175.3630  136.8750 C   0  0  0  0  0  2  0  0  0  0  0  0
  194.8870  174.6400  137.9810 C   0  0  0  0  0  2  0  0  0  0  0  0
  194.6410  173.1400  137.8980 C   0  0  2  0  0  3  0  0  0  0  0  0
  195.4850  172.4840  138.7940 O   0  0  0  0  0  1  0  0  0  0  0  0
  194.9290  172.6460  136.4880 C   0  0  0  0  0  2  0  0  0  0  0  0
  194.7960  171.1350  136.4160 C   0  0  0  0  0  1  0  0  0  0  0  0
  1 12  1  0  0  0  0
  2  1  2  0  0  0  0
  3  4  2  0  0  0  0
  4  2  1  0  0  0  0
  5  8  1  0  0  0  0
  5 11  2  0  0  0  0
  7  6  2  0  0  0  0
  7  9  1  0  0  0  0
  8 10  2  0  0  0  0
 10  4  1  0  0  0  0
 10  6  1  0  0  0  0
 11  7  1  0  0  0  0
 12 15  1  0  0  0  0
 13 14  2  0  0  0  0
 14 16  1  0  0  0  0
 15 13  2  0  0  0  0
 16 28  1  0  0  0  0
 17 24  1  0  0  0  0
 18 28  2  0  0  0  0
 18 23  1  0  0  0  0
 19 21  2  0  0  0  0
 21 17  1  0  0  0  0
 21 23  1  0  0  0  0
 22 26  1  0  0  0  0
 23 27  2  0  0  0  0
 24 25  2  0  0  0  0
 24 20  1  0  0  0  0
 26 29  1  0  0  0  0
 27 25  1  0  0  0  0
 27 26  1  0  0  0  0
 28 22  1  0  0  0  0
 30  1  1  0  0  0  0
 31 30  1  0  0  0  0
 31 32  1  0  0  0  0
 33 32  1  0  0  0  0
 35 33  1  0  0  0  0
 35 34  1  1  0  0  0
 36 35  1  0  0  0  0
 36 37  1  0  0  0  0
 38 37  1  0  0  0  0
 38 39  1  1  0  0  0
 40 38  1  0  0  0  0
 41 40  1  0  0  0  0
M  END
>  <MODEL>
6

>  <REMARK>
 VINA RESULT:      -7.7      3.040     10.444
  Name = 
  15 active torsions:
  status: ('A' for Active; 'I' for Inactive)
    1  A    between atoms: C_8  and  C_23
    2  A    between atoms: C_8  and  C_31
    3  A    between atoms: C_9  and  C_41
    4  A    between atoms: C_11  and  C_16
    5  A    between atoms: C_11  and  N_19
    6  A    between atoms: C_14  and  C_25
    7  A    between atoms: C_14  and  C_34
    8  A    between atoms: C_16  and  C_38
    9  A    between atoms: N_19  and  C_36
   10  A    between atoms: C_23  and  C_36
   11  A    between atoms: C_27  and  C_30
   12  A    between atoms: C_28  and  C_34
   13  A    between atoms: C_28  and  C_38
   14  A    between atoms: C_30  and  N_32
   15  A    between atoms: C_39  and  C_41
                            x       y       z     vdW  Elec       q    Type
                         _______ _______ _______ _____ _____    ______ ____

>  <TORSDO>
F 15

$$$$
=
 OpenBabel10232412023D

 41 43  0  0  1  0  0  0  0  0999 V2000
  186.8840  178.2700  142.3520 C   0  0  0  0  0  0  0  0  0  0  0  0
  187.0720  177.3450  143.2490 N   0  0  0  0  0  0  0  0  0  0  0  0
  188.7710  175.7940  142.7480 O   0  0  0  0  0  0  0  0  0  0  0  0
  188.2880  176.6380  143.5530 C   0  0  0  0  0  0  0  0  0  0  0  0
  190.9490  177.0630  146.1730 C   0  0  0  0  0  3  0  0  0  0  0  0
  188.2410  177.3130  145.9070 N   0  0  0  0  0  0  0  0  0  0  0  0
  188.8400  177.5930  147.0930 C   0  0  0  0  0  0  0  0  0  0  0  0
  190.3540  176.7760  144.9450 C   0  0  0  0  0  3  0  0  0  0  0  0
  188.0180  178.0240  148.2520 C   0  0  0  0  0  1  0  0  0  0  0  0
  188.9680  176.9090  144.8290 C   0  0  0  0  0  0  0  0  0  0  0  0
  190.1850  177.4650  147.2230 N   0  0  0  0  0  0  0  0  0  0  0  0
  185.5290  178.8960  142.2470 C   0  0  0  0  0  2  0  0  0  0  0  0
  183.3970  178.7930  143.4170 C   0  0  0  0  0  0  0  0  0  0  0  0
  182.2380  179.3550  143.6020 C   0  0  0  0  0  3  0  0  0  0  0  0
  184.5560  178.2420  143.1760 C   0  0  0  0  0  3  0  0  0  0  0  0
  181.0040  178.6980  143.0920 C   0  0  0  0  0  2  0  0  0  0  0  0
  181.1970  176.4340  137.2140 C   0  0  0  0  0  2  0  0  0  0  0  0
  181.1450  177.7310  140.8830 N   0  0  0  0  0  0  0  0  0  0  0  0
  181.4270  175.3920  139.3410 O   0  0  0  0  0  0  0  0  0  0  0  0
  180.9330  177.8780  135.1660 N   0  0  0  0  0  1  0  0  0  0  0  0
  181.2450  176.4670  138.7130 C   0  0  0  0  0  0  0  0  0  0  0  0
  180.5660  180.1090  140.9830 C   0  0  0  0  0  2  0  0  0  0  0  0
  181.0800  177.7340  139.4510 C   0  0  0  0  0  0  0  0  0  0  0  0
  180.9850  177.7850  136.5840 C   0  0  0  0  0  0  0  0  0  0  0  0
  180.8470  178.8970  137.3120 C   0  0  0  0  0  3  0  0  0  0  0  0
  180.7510  180.1110  139.5330 N   0  0  0  0  0  0  0  0  0  0  0  0
  180.8910  178.8870  138.7890 C   0  0  0  0  0  0  0  0  0  0  0  0
  180.9490  178.7940  141.6060 C   0  0  0  0  0  0  0  0  0  0  0  0
  180.6590  181.3920  138.8520 C   0  0  0  0  0  1  0  0  0  0  0  0
  187.9830  178.7830  141.4760 C   0  0  0  0  0  2  0  0  0  0  0  0
  187.9880  178.0570  140.2180 N   0  0  0  0  0  2  0  0  0  0  0  0
  189.3770  177.8040  139.8880 C   0  0  0  0  0  2  0  0  0  0  0  0
  189.5100  177.5930  138.3920 C   0  0  0  0  0  2  0  0  0  0  0  0
  188.9870  179.7030  137.4110 O   0  0  0  0  0  1  0  0  0  0  0  0
  188.4770  178.4270  137.6570 C   0  0  1  0  0  3  0  0  0  0  0  0
  188.1340  177.7510  136.3430 C   0  0  0  0  0  2  0  0  0  0  0  0
  186.6270  177.7030  136.1630 C   0  0  0  0  0  2  0  0  0  0  0  0
  185.9730  176.9750  137.3300 C   0  0  2  0  0  3  0  0  0  0  0  0
  185.7800  175.6370  136.9880 O   0  0  0  0  0  1  0  0  0  0  0  0
  184.6270  177.6100  137.6450 C   0  0  0  0  0  2  0  0  0  0  0  0
  184.7880  178.7130  138.6770 C   0  0  0  0  0  1  0  0  0  0  0  0
  1  2  2  0  0  0  0
  2  4  1  0  0  0  0
  3  4  2  0  0  0  0
  4 10  1  0  0  0  0
  5 11  2  0  0  0  0
  6  7  2  0  0  0  0
  7 11  1  0  0  0  0
  7  9  1  0  0  0  0
  8  5  1  0  0  0  0
 10  8  2  0  0  0  0
 10  6  1  0  0  0  0
 12  1  1  0  0  0  0
 12 15  1  0  0  0  0
 13 14  2  0  0  0  0
 15 13  2  0  0  0  0
 16 14  1  0  0  0  0
 17 21  1  0  0  0  0
 18 28  2  0  0  0  0
 20 24  1  0  0  0  0
 21 19  2  0  0  0  0
 21 23  1  0  0  0  0
 22 28  1  0  0  0  0
 23 18  1  0  0  0  0
 24 17  1  0  0  0  0
 24 25  2  0  0  0  0
 25 27  1  0  0  0  0
 26 22  1  0  0  0  0
 27 23  2  0  0  0  0
 27 26  1  0  0  0  0
 28 16  1  0  0  0  0
 29 26  1  0  0  0  0
 30  1  1  0  0  0  0
 31 30  1  0  0  0  0
 32 31  1  0  0  0  0
 33 32  1  0  0  0  0
 35 34  1  6  0  0  0
 35 33  1  0  0  0  0
 36 35  1  0  0  0  0
 37 36  1  0  0  0  0
 37 38  1  0  0  0  0
 38 39  1  6  0  0  0
 38 40  1  0  0  0  0
 40 41  1  0  0  0  0
M  END
>  <MODEL>
7

>  <REMARK>
 VINA RESULT:      -7.6      4.820     10.217
  Name = 
  15 active torsions:
  status: ('A' for Active; 'I' for Inactive)
    1  A    between atoms: C_8  and  C_23
    2  A    between atoms: C_8  and  C_31
    3  A    between atoms: C_9  and  C_41
    4  A    between atoms: C_11  and  C_16
    5  A    between atoms: C_11  and  N_19
    6  A    between atoms: C_14  and  C_25
    7  A    between atoms: C_14  and  C_34
    8  A    between atoms: C_16  and  C_38
    9  A    between atoms: N_19  and  C_36
   10  A    between atoms: C_23  and  C_36
   11  A    between atoms: C_27  and  C_30
   12  A    between atoms: C_28  and  C_34
   13  A    between atoms: C_28  and  C_38
   14  A    between atoms: C_30  and  N_32
   15  A    between atoms: C_39  and  C_41
                            x       y       z     vdW  Elec       q    Type
                         _______ _______ _______ _____ _____    ______ ____

>  <TORSDO>
F 15

$$$$
=
 OpenBabel10232412023D

 41 43  0  0  1  0  0  0  0  0999 V2000
  186.0230  178.0540  143.5390 C   0  0  0  0  0  0  0  0  0  0  0  0
  184.9800  178.4570  142.8700 N   0  0  0  0  0  0  0  0  0  0  0  0
  184.0540  180.2440  144.0900 O   0  0  0  0  0  0  0  0  0  0  0  0
  183.8730  179.2430  143.3430 C   0  0  0  0  0  0  0  0  0  0  0  0
  180.1440  178.7650  143.3420 C   0  0  0  0  0  3  0  0  0  0  0  0
  182.3020  178.2510  141.7470 N   0  0  0  0  0  0  0  0  0  0  0  0
  181.0530  177.9050  141.3400 C   0  0  0  0  0  0  0  0  0  0  0  0
  181.4170  179.1330  143.7750 C   0  0  0  0  0  3  0  0  0  0  0  0
  180.8620  177.2340  140.0290 C   0  0  0  0  0  1  0  0  0  0  0  0
  182.5090  178.8610  142.9460 C   0  0  0  0  0  0  0  0  0  0  0  0
  179.9830  178.1590  142.1360 N   0  0  0  0  0  0  0  0  0  0  0  0
  187.0760  177.2760  142.8170 C   0  0  0  0  0  2  0  0  0  0  0  0
  188.8660  177.8140  141.2570 C   0  0  0  0  0  0  0  0  0  0  0  0
  189.5380  177.4320  140.2100 C   0  0  0  0  0  3  0  0  0  0  0  0
  188.1460  178.1770  142.2840 C   0  0  0  0  0  3  0  0  0  0  0  0
  189.3710  178.1510  138.9170 C   0  0  0  0  0  2  0  0  0  0  0  0
  183.1440  178.7740  138.1740 C   0  0  0  0  0  2  0  0  0  0  0  0
  186.9790  178.4400  138.7500 N   0  0  0  0  0  0  0  0  0  0  0  0
  184.7070  179.8740  139.5920 O   0  0  0  0  0  0  0  0  0  0  0  0
  181.7980  177.3840  136.5600 N   0  0  0  0  0  1  0  0  0  0  0  0
  184.5290  178.9970  138.7070 C   0  0  0  0  0  0  0  0  0  0  0  0
  187.9890  176.8750  137.1590 C   0  0  0  0  0  2  0  0  0  0  0  0
  185.6720  178.2090  138.2080 C   0  0  0  0  0  0  0  0  0  0  0  0
  183.0640  177.6910  137.1300 C   0  0  0  0  0  0  0  0  0  0  0  0
  184.1400  177.0110  136.7250 C   0  0  0  0  0  3  0  0  0  0  0  0
  186.6190  176.5010  136.8120 N   0  0  0  0  0  0  0  0  0  0  0  0
  185.4900  177.2680  137.2680 C   0  0  0  0  0  0  0  0  0  0  0  0
  188.0440  177.8310  138.3200 C   0  0  0  0  0  0  0  0  0  0  0  0
  186.4460  175.3970  135.8820 C   0  0  0  0  0  1  0  0  0  0  0  0
  186.2450  178.4030  144.9770 C   0  0  0  0  0  2  0  0  0  0  0  0
  186.8110  177.2630  145.6770 N   0  0  0  0  0  2  0  0  0  0  0  0
  187.1240  177.7100  147.0200 C   0  0  0  0  0  2  0  0  0  0  0  0
  188.2510  176.8660  147.5830 C   0  0  0  0  0  2  0  0  0  0  0  0
  189.8980  178.2930  148.5520 O   0  0  0  0  0  1  0  0  0  0  0  0
  189.5770  177.5790  147.3950 C   0  0  1  0  0  3  0  0  0  0  0  0
  190.6580  176.5540  147.1100 C   0  0  0  0  0  2  0  0  0  0  0  0
  191.6090  177.0850  146.0530 C   0  0  0  0  0  2  0  0  0  0  0  0
  191.2480  176.5290  144.6830 C   0  0  2  0  0  3  0  0  0  0  0  0
  191.9780  175.3630  144.4510 O   0  0  0  0  0  1  0  0  0  0  0  0
  191.5840  177.5500  143.6060 C   0  0  0  0  0  2  0  0  0  0  0  0
  191.3960  178.9620  144.1350 C   0  0  0  0  0  1  0  0  0  0  0  0
  1 30  1  0  0  0  0
  2  4  1  0  0  0  0
  2  1  2  0  0  0  0
  4  3  2  0  0  0  0
  5  8  1  0  0  0  0
  6 10  1  0  0  0  0
  7  6  2  0  0  0  0
  7 11  1  0  0  0  0
  9  7  1  0  0  0  0
 10  4  1  0  0  0  0
 10  8  2  0  0  0  0
 11  5  2  0  0  0  0
 12  1  1  0  0  0  0
 13 15  2  0  0  0  0
 14 13  2  0  0  0  0
 15 12  1  0  0  0  0
 16 14  1  0  0  0  0
 17 21  1  0  0  0  0
 20 24  1  0  0  0  0
 21 19  2  0  0  0  0
 22 28  1  0  0  0  0
 23 21  1  0  0  0  0
 23 18  1  0  0  0  0
 24 17  1  0  0  0  0
 25 24  2  0  0  0  0
 25 27  1  0  0  0  0
 26 22  1  0  0  0  0
 26 27  1  0  0  0  0
 27 23  2  0  0  0  0
 28 18  2  0  0  0  0
 28 16  1  0  0  0  0
 29 26  1  0  0  0  0
 30 31  1  0  0  0  0
 31 32  1  0  0  0  0
 32 33  1  0  0  0  0
 35 33  1  0  0  0  0
 35 34  1  1  0  0  0
 36 35  1  0  0  0  0
 37 36  1  0  0  0  0
 38 39  1  6  0  0  0
 38 37  1  0  0  0  0
 40 41  1  0  0  0  0
 40 38  1  0  0  0  0
M  END
>  <MODEL>
8

>  <REMARK>
 VINA RESULT:      -7.6      4.889      8.867
  Name = 
  15 active torsions:
  status: ('A' for Active; 'I' for Inactive)
    1  A    between atoms: C_8  and  C_23
    2  A    between atoms: C_8  and  C_31
    3  A    between atoms: C_9  and  C_41
    4  A    between atoms: C_11  and  C_16
    5  A    between atoms: C_11  and  N_19
    6  A    between atoms: C_14  and  C_25
    7  A    between atoms: C_14  and  C_34
    8  A    between atoms: C_16  and  C_38
    9  A    between atoms: N_19  and  C_36
   10  A    between atoms: C_23  and  C_36
   11  A    between atoms: C_27  and  C_30
   12  A    between atoms: C_28  and  C_34
   13  A    between atoms: C_28  and  C_38
   14  A    between atoms: C_30  and  N_32
   15  A    between atoms: C_39  and  C_41
                            x       y       z     vdW  Elec       q    Type
                         _______ _______ _______ _____ _____    ______ ____

>  <TORSDO>
F 15

$$$$
=
 OpenBabel10232412023D

 41 43  0  0  1  0  0  0  0  0999 V2000
  190.2480  177.1860  139.0210 C   0  0  0  0  0  0  0  0  0  0  0  0
  189.5540  178.2270  138.6600 N   0  0  0  0  0  0  0  0  0  0  0  0
  189.1360  178.6840  136.3890 O   0  0  0  0  0  0  0  0  0  0  0  0
  188.6840  178.3620  137.5230 C   0  0  0  0  0  0  0  0  0  0  0  0
  185.1640  177.1540  136.9960 C   0  0  0  0  0  3  0  0  0  0  0  0
  186.6030  178.6340  138.7850 N   0  0  0  0  0  0  0  0  0  0  0  0
  185.2780  178.4140  138.9900 C   0  0  0  0  0  0  0  0  0  0  0  0
  186.5240  177.3640  136.7720 C   0  0  0  0  0  3  0  0  0  0  0  0
  184.6090  178.9900  140.1830 C   0  0  0  0  0  1  0  0  0  0  0  0
  187.2430  178.1240  137.6980 C   0  0  0  0  0  0  0  0  0  0  0  0
  184.5660  177.6810  138.0960 N   0  0  0  0  0  0  0  0  0  0  0  0
  191.0550  177.2680  140.2780 C   0  0  0  0  0  2  0  0  0  0  0  0
  190.7610  176.5110  142.5720 C   0  0  0  0  0  0  0  0  0  0  0  0
  191.3470  176.0810  143.6520 C   0  0  0  0  0  3  0  0  0  0  0  0
  190.2160  176.9780  141.4810 C   0  0  0  0  0  3  0  0  0  0  0  0
  191.4030  176.9470  144.8610 C   0  0  0  0  0  2  0  0  0  0  0  0
  185.3120  178.3550  144.0690 C   0  0  0  0  0  2  0  0  0  0  0  0
  189.0970  177.5280  144.4400 N   0  0  0  0  0  0  0  0  0  0  0  0
  187.0690  177.9140  142.5260 O   0  0  0  0  0  0  0  0  0  0  0  0
  183.7320  178.7900  145.9830 N   0  0  0  0  0  1  0  0  0  0  0  0
  186.7360  178.0240  143.7340 C   0  0  0  0  0  0  0  0  0  0  0  0
  189.7200  177.2280  146.7900 C   0  0  0  0  0  2  0  0  0  0  0  0
  187.7410  177.8290  144.7970 C   0  0  0  0  0  0  0  0  0  0  0  0
  185.0470  178.4700  145.5470 C   0  0  0  0  0  0  0  0  0  0  0  0
  186.0060  178.2840  146.4590 C   0  0  0  0  0  3  0  0  0  0  0  0
  188.4010  177.7720  147.1040 N   0  0  0  0  0  0  0  0  0  0  0  0
  187.3970  177.9510  146.0890 C   0  0  0  0  0  0  0  0  0  0  0  0
  190.0240  177.2820  145.3170 C   0  0  0  0  0  0  0  0  0  0  0  0
  188.0950  178.0080  148.5060 C   0  0  0  0  0  1  0  0  0  0  0  0
  190.2110  175.8900  138.2740 C   0  0  0  0  0  2  0  0  0  0  0  0
  191.1670  175.9260  137.1810 N   0  0  0  0  0  2  0  0  0  0  0  0
  192.4230  175.4310  137.7090 C   0  0  0  0  0  2  0  0  0  0  0  0
  193.5700  176.2210  137.1070 C   0  0  0  0  0  2  0  0  0  0  0  0
  193.9930  176.5570  134.7850 O   0  0  0  0  0  1  0  0  0  0  0  0
  194.0000  175.5920  135.7950 C   0  0  1  0  0  3  0  0  0  0  0  0
  195.3970  175.0220  135.9490 C   0  0  0  0  0  2  0  0  0  0  0  0
  195.3180  173.5550  136.3310 C   0  0  0  0  0  2  0  0  0  0  0  0
  196.2170  173.2660  137.5250 C   0  0  2  0  0  3  0  0  0  0  0  0
  196.5670  171.9150  137.5220 O   0  0  0  0  0  1  0  0  0  0  0  0
  195.4810  173.5880  138.8170 C   0  0  0  0  0  2  0  0  0  0  0  0
  196.2190  174.6640  139.5950 C   0  0  0  0  0  1  0  0  0  0  0  0
  1 12  1  0  0  0  0
  2  1  2  0  0  0  0
  3  4  2  0  0  0  0
  4 10  1  0  0  0  0
  4  2  1  0  0  0  0
  5 11  2  0  0  0  0
  6  7  2  0  0  0  0
  7  9  1  0  0  0  0
  8  5  1  0  0  0  0
  8 10  2  0  0  0  0
 10  6  1  0  0  0  0
 11  7  1  0  0  0  0
 12 15  1  0  0  0  0
 13 14  2  0  0  0  0
 14 16  1  0  0  0  0
 15 13  2  0  0  0  0
 16 28  1  0  0  0  0
 17 24  1  0  0  0  0
 18 23  1  0  0  0  0
 18 28  2  0  0  0  0
 19 21  2  0  0  0  0
 21 17  1  0  0  0  0
 21 23  1  0  0  0  0
 22 26  1  0  0  0  0
 23 27  2  0  0  0  0
 24 20  1  0  0  0  0
 24 25  2  0  0  0  0
 26 29  1  0  0  0  0
 27 25  1  0  0  0  0
 27 26  1  0  0  0  0
 28 22  1  0  0  0  0
 30  1  1  0  0  0  0
 31 32  1  0  0  0  0
 31 30  1  0  0  0  0
 33 32  1  0  0  0  0
 35 34  1  6  0  0  0
 35 36  1  0  0  0  0
 35 33  1  0  0  0  0
 36 37  1  0  0  0  0
 37 38  1  0  0  0  0
 38 39  1  1  0  0  0
 38 40  1  0  0  0  0
 40 41  1  0  0  0  0
M  END
>  <MODEL>
9

>  <REMARK>
 VINA RESULT:      -7.5      2.495     10.947
  Name = 
  15 active torsions:
  status: ('A' for Active; 'I' for Inactive)
    1  A    between atoms: C_8  and  C_23
    2  A    between atoms: C_8  and  C_31
    3  A    between atoms: C_9  and  C_41
    4  A    between atoms: C_11  and  C_16
    5  A    between atoms: C_11  and  N_19
    6  A    between atoms: C_14  and  C_25
    7  A    between atoms: C_14  and  C_34
    8  A    between atoms: C_16  and  C_38
    9  A    between atoms: N_19  and  C_36
   10  A    between atoms: C_23  and  C_36
   11  A    between atoms: C_27  and  C_30
   12  A    between atoms: C_28  and  C_34
   13  A    between atoms: C_28  and  C_38
   14  A    between atoms: C_30  and  N_32
   15  A    between atoms: C_39  and  C_41
                            x       y       z     vdW  Elec       q    Type
                         _______ _______ _______ _____ _____    ______ ____

>  <TORSDO>
F 15

$$$$
