=
 OpenBabel10232409223D

 60 64  0  0  1  0  0  0  0  0999 V2000
  189.0180  176.9280  137.6030 C   0  0  1  0  0  3  0  0  0  0  0  0
  188.9070  177.0980  141.4170 N   0  0  0  0  0  2  0  0  0  0  0  0
  189.0330  177.2390  143.8750 N   0  0  0  0  0  2  0  0  0  0  0  0
  188.5800  176.8290  138.9900 N   0  0  0  0  0  2  0  0  0  0  0  0
  189.4150  177.2020  140.0840 C   0  0  0  0  0  0  0  0  0  0  0  0
  190.9380  177.3910  142.5420 O   0  0  0  0  0  0  0  0  0  0  0  0
  189.6860  177.2560  142.6070 C   0  0  0  0  0  0  0  0  0  0  0  0
  190.5850  177.6230  139.8710 O   0  0  0  0  0  0  0  0  0  0  0  0
  191.0990  177.6320  144.8900 O   0  0  0  0  0  1  0  0  0  0  0  0
  189.7700  177.2720  145.1310 C   0  0  1  0  0  3  0  0  0  0  0  0
  189.0970  178.2250  146.1340 C   0  0  1  0  0  3  0  0  0  0  0  0
  187.0430  177.9540  147.4300 C   0  0  0  0  0  2  0  0  0  0  0  0
  187.5830  178.1230  146.0180 C   0  0  0  0  0  2  0  0  0  0  0  0
  188.1690  175.9020  148.2420 C   0  0  0  0  0  1  0  0  0  0  0  0
  190.5810  177.2260  147.8330 O   0  0  0  0  0  1  0  0  0  0  0  0
  188.1910  177.4270  148.2760 C   0  0  1  0  0  3  0  0  0  0  0  0
  189.4360  178.0050  147.6180 C   0  0  2  0  0  3  0  0  0  0  0  0
  192.1590  174.1050  136.7200 C   0  0  0  0  0  0  0  0  0  0  0  0
  191.3910  176.3870  137.0110 C   0  0  0  0  0  3  0  0  0  0  0  0
  189.8340  174.5500  137.2730 C   0  0  0  0  0  3  0  0  0  0  0  0
  190.0980  175.9280  137.2910 C   0  0  0  0  0  0  0  0  0  0  0  0
  192.4140  175.4790  136.7240 C   0  0  0  0  0  3  0  0  0  0  0  0
  190.8620  173.6450  136.9900 C   0  0  0  0  0  3  0  0  0  0  0  0
  197.5740  173.1450  136.8060 C   0  0  2  0  0  3  0  0  0  0  0  0
  192.5020  172.3910  134.3520 O   0  0  0  0  0  0  0  0  0  0  0  0
  197.8920  170.7290  136.4380 C   0  0  0  0  0  3  0  0  0  0  0  0
  196.0680  172.8860  136.6840 C   0  0  0  0  0  2  0  0  0  0  0  0
  199.5790  171.8530  137.6350 O   0  0  0  0  0  1  0  0  0  0  0  0
  196.6300  170.7040  135.7550 N   0  0  0  0  0  0  0  0  0  0  0  0
  198.3500  171.8600  136.9850 C   0  0  0  0  0  0  0  0  0  0  0  0
  193.4000  172.4180  135.2310 C   0  0  0  0  0  0  0  0  0  0  0  0
  195.7820  171.6910  135.8060 C   0  0  0  0  0  0  0  0  0  0  0  0
  193.2350  173.2060  136.4210 N   0  0  0  0  0  2  0  0  0  0  0  0
  194.5610  171.5950  135.0600 N   0  0  0  0  0  2  0  0  0  0  0  0
  197.8450  174.1360  137.8970 C   0  0  0  0  0  0  0  0  0  0  0  0
  198.8250  175.7040  139.0290 O   0  0  0  0  0  0  0  0  0  0  0  0
  197.0110  174.2590  139.1290 C   0  0  0  0  0  3  0  0  0  0  0  0
  198.8420  174.9530  137.8820 N   0  0  0  0  0  0  0  0  0  0  0  0
  197.7310  175.3820  139.8810 C   0  0  0  0  0  3  0  0  0  0  0  0
  187.8220  176.9080  136.6430 C   0  0  2  0  0  3  0  0  0  0  0  0
  187.7690  178.0510  135.6270 C   0  0  0  0  0  2  0  0  0  0  0  0
  187.4660  179.3980  136.2640 C   0  0  0  0  0  1  0  0  0  0  0  0
  186.4990  176.6660  137.3600 C   0  0  0  0  0  2  0  0  0  0  0  0
  186.4960  174.9030  135.6290 C   0  0  0  0  0  1  0  0  0  0  0  0
  185.9370  175.3090  136.9800 C   0  0  2  0  0  3  0  0  0  0  0  0
  184.4850  175.3880  136.9030 N   0  0  0  0  0  2  0  0  0  0  0  0
  183.7420  177.0030  135.3980 O   0  0  0  0  0  1  0  0  0  0  0  0
  184.1270  176.7880  136.7250 C   0  0  1  0  0  3  0  0  0  0  0  0
  182.9850  177.1620  137.6650 C   0  0  1  0  0  3  0  0  0  0  0  0
  183.4390  177.0690  139.1140 C   0  0  2  0  0  3  0  0  0  0  0  0
  181.9100  178.4090  140.3540 F   0  0  0  0  0  0  0  0  0  0  0  0
  182.7420  176.0560  139.7760 O   0  0  0  0  0  1  0  0  0  0  0  0
  183.0360  179.2790  138.4360 C   0  0  1  0  0  3  0  0  0  0  0  0
  183.1290  178.4290  139.6870 C   0  0  2  0  0  0  0  0  0  0  0  0
  182.5410  178.4740  137.3970 O   0  0  0  0  0  0  0  0  0  0  0  0
  180.7520  180.2400  138.1630 C   0  0  0  0  0  1  0  0  0  0  0  0
  182.1700  180.5180  138.6250 C   0  0  0  0  0  2  0  0  0  0  0  0
  184.2240  178.9100  140.6490 C   0  0  0  0  0  2  0  0  0  0  0  0
  183.9830  178.5280  142.1080 C   0  0  0  0  0  2  0  0  0  0  0  0
  185.2740  178.0760  142.7650 C   0  0  0  0  0  1  0  0  0  0  0  0
  1  4  1  1  0  0  0
  2  7  1  0  0  0  0
  3 10  1  0  0  0  0
  4  5  1  0  0  0  0
  5  2  1  0  0  0  0
  6  7  2  0  0  0  0
  7  3  1  0  0  0  0
  8  5  2  0  0  0  0
 10  9  1  6  0  0  0
 11 10  1  6  0  0  0
 11 17  1  0  0  0  0
 12 16  1  0  0  0  0
 13 11  1  0  0  0  0
 13 12  1  0  0  0  0
 16 14  1  6  0  0  0
 17 15  1  6  0  0  0
 17 16  1  0  0  0  0
 18 22  2  0  0  0  0
 18 23  1  0  0  0  0
 19 21  2  0  0  0  0
 20 21  1  0  0  0  0
 21  1  1  0  0  0  0
 22 19  1  0  0  0  0
 23 20  2  0  0  0  0
 24 30  1  0  0  0  0
 24 35  1  1  0  0  0
 25 31  2  0  0  0  0
 26 30  2  0  0  0  0
 27 24  1  0  0  0  0
 29 32  2  0  0  0  0
 29 26  1  0  0  0  0
 30 28  1  0  0  0  0
 31 33  1  0  0  0  0
 32 27  1  0  0  0  0
 33 18  1  0  0  0  0
 34 31  1  0  0  0  0
 34 32  1  0  0  0  0
 35 37  1  0  0  0  0
 36 39  1  0  0  0  0
 37 39  2  0  0  0  0
 38 35  2  0  0  0  0
 38 36  1  0  0  0  0
 40 41  1  1  0  0  0
 40 43  1  0  0  0  0
 40  1  1  0  0  0  0
 41 42  1  0  0  0  0
 45 44  1  6  0  0  0
 45 43  1  0  0  0  0
 46 45  1  0  0  0  0
 48 47  1  6  0  0  0
 48 46  1  0  0  0  0
 49 48  1  6  0  0  0
 49 50  1  0  0  0  0
 50 54  1  0  0  0  0
 50 52  1  1  0  0  0
 53 57  1  1  0  0  0
 53 54  1  0  0  0  0
 54 51  1  1  0  0  0
 54 58  1  0  0  0  0
 55 49  1  0  0  0  0
 55 53  1  0  0  0  0
 56 57  1  0  0  0  0
 58 59  1  0  0  0  0
 59 60  1  0  0  0  0
M  END
>  <MODEL>
1

>  <REMARK>
 VINA RESULT:      -7.3      0.000      0.000
  Name = 
  16 active torsions:
  status: ('A' for Active; 'I' for Inactive)
    1  A    between atoms: C_1  and  C_58
    2  A    between atoms: C_2  and  C_15
    3  A    between atoms: C_2  and  C_33
    4  A    between atoms: C_2  and  C_41
    5  A    between atoms: C_3  and  C_11
    6  A    between atoms: N_6  and  C_58
    7  A    between atoms: N_8  and  C_15
    8  A    between atoms: C_9  and  C_53
    9  A    between atoms: C_13  and  N_47
   10  A    between atoms: C_15  and  C_35
   11  A    between atoms: C_25  and  C_27
   12  A    between atoms: C_25  and  N_45
   13  A    between atoms: C_30  and  C_46
   14  A    between atoms: C_41  and  C_57
   15  A    between atoms: N_45  and  C_57
   16  A    between atoms: C_50  and  C_53
                            x       y       z     vdW  Elec       q    Type
                         _______ _______ _______ _____ _____    ______ ____

>  <TORSDO>
F 16

$$$$
=
 OpenBabel10232409223D

 60 64  0  0  1  0  0  0  0  0999 V2000
  188.8730  177.2560  137.4520 C   0  0  1  0  0  3  0  0  0  0  0  0
  185.1380  176.6910  136.8910 N   0  0  0  0  0  2  0  0  0  0  0  0
  182.6950  176.5030  136.6190 N   0  0  0  0  0  2  0  0  0  0  0  0
  187.5870  176.6390  137.1480 N   0  0  0  0  0  2  0  0  0  0  0  0
  186.3590  177.3580  137.2260 C   0  0  0  0  0  0  0  0  0  0  0  0
  183.6670  178.3090  137.7240 O   0  0  0  0  0  0  0  0  0  0  0  0
  183.8270  177.2230  137.1030 C   0  0  0  0  0  0  0  0  0  0  0  0
  186.3550  178.5670  137.5830 O   0  0  0  0  0  0  0  0  0  0  0  0
  181.0360  178.0910  136.1980 O   0  0  0  0  0  1  0  0  0  0  0  0
  181.3270  176.9190  136.9010 C   0  0  1  0  0  3  0  0  0  0  0  0
  180.3340  175.7940  136.5630 C   0  0  1  0  0  3  0  0  0  0  0  0
  180.6940  173.6670  135.4140 C   0  0  0  0  0  2  0  0  0  0  0  0
  180.6820  175.1750  135.2160 C   0  0  0  0  0  2  0  0  0  0  0  0
  182.3890  173.3260  137.1900 C   0  0  0  0  0  1  0  0  0  0  0  0
  180.8000  174.9220  138.8230 O   0  0  0  0  0  1  0  0  0  0  0  0
  180.8930  173.4230  136.9010 C   0  0  1  0  0  3  0  0  0  0  0  0
  180.2510  174.6320  137.5670 C   0  0  2  0  0  3  0  0  0  0  0  0
  189.6660  177.1550  141.6920 C   0  0  0  0  0  0  0  0  0  0  0  0
  188.2560  177.7820  139.8210 C   0  0  0  0  0  3  0  0  0  0  0  0
  190.3460  176.6270  139.4180 C   0  0  0  0  0  3  0  0  0  0  0  0
  189.1710  177.2160  138.9260 C   0  0  0  0  0  0  0  0  0  0  0  0
  188.5040  177.7540  141.1960 C   0  0  0  0  0  3  0  0  0  0  0  0
  190.5880  176.5970  140.7960 C   0  0  0  0  0  3  0  0  0  0  0  0
  187.8180  178.5150  146.6910 C   0  0  2  0  0  3  0  0  0  0  0  0
  192.1780  177.6210  143.1540 O   0  0  0  0  0  0  0  0  0  0  0  0
  189.1400  177.2350  148.3300 C   0  0  0  0  0  3  0  0  0  0  0  0
  188.6620  177.8440  145.6020 C   0  0  0  0  0  2  0  0  0  0  0  0
  186.9750  177.8830  148.9850 O   0  0  0  0  0  1  0  0  0  0  0  0
  190.2030  177.1690  147.3670 N   0  0  0  0  0  0  0  0  0  0  0  0
  187.9810  177.8290  148.0280 C   0  0  0  0  0  0  0  0  0  0  0  0
  191.1150  177.4270  143.7970 C   0  0  0  0  0  0  0  0  0  0  0  0
  190.0360  177.4800  146.1130 C   0  0  0  0  0  0  0  0  0  0  0  0
  189.8850  177.1460  143.1090 N   0  0  0  0  0  2  0  0  0  0  0  0
  191.1640  177.4210  145.2290 N   0  0  0  0  0  2  0  0  0  0  0  0
  186.3850  178.6000  146.2600 C   0  0  0  0  0  0  0  0  0  0  0  0
  184.2520  178.9790  146.3400 O   0  0  0  0  0  0  0  0  0  0  0  0
  185.8920  178.1330  144.9310 C   0  0  0  0  0  3  0  0  0  0  0  0
  185.4440  179.0600  147.0120 N   0  0  0  0  0  0  0  0  0  0  0  0
  184.3940  178.4350  145.0320 C   0  0  0  0  0  3  0  0  0  0  0  0
  189.9810  176.6920  136.5540 C   0  0  2  0  0  3  0  0  0  0  0  0
  189.8410  176.9960  135.0600 C   0  0  0  0  0  2  0  0  0  0  0  0
  188.8760  176.0580  134.3520 C   0  0  0  0  0  1  0  0  0  0  0  0
  190.2930  175.2300  136.8530 C   0  0  0  0  0  2  0  0  0  0  0  0
  191.5440  173.6200  135.4560 C   0  0  0  0  0  1  0  0  0  0  0  0
  191.6640  174.8660  136.3160 C   0  0  2  0  0  3  0  0  0  0  0  0
  192.5680  174.6050  137.4270 N   0  0  0  0  0  2  0  0  0  0  0  0
  193.6480  176.4350  138.3820 O   0  0  0  0  0  1  0  0  0  0  0  0
  193.6860  175.5320  137.3150 C   0  0  1  0  0  3  0  0  0  0  0  0
  195.0060  174.7660  137.3290 C   0  0  1  0  0  3  0  0  0  0  0  0
  194.7930  173.3510  137.8440 C   0  0  2  0  0  3  0  0  0  0  0  0
  196.6570  172.0940  137.0610 F   0  0  0  0  0  0  0  0  0  0  0  0
  195.4640  173.1710  139.0550 O   0  0  0  0  0  1  0  0  0  0  0  0
  195.3380  173.4060  135.5630 C   0  0  1  0  0  3  0  0  0  0  0  0
  195.3550  172.4710  136.7560 C   0  0  2  0  0  0  0  0  0  0  0  0
  195.5530  174.7120  136.0290 O   0  0  0  0  0  0  0  0  0  0  0  0
  197.4170  174.1170  134.3850 C   0  0  0  0  0  1  0  0  0  0  0  0
  196.3660  173.0300  134.5030 C   0  0  0  0  0  2  0  0  0  0  0  0
  194.5020  171.2150  136.5350 C   0  0  0  0  0  2  0  0  0  0  0  0
  195.0380  170.2820  135.4500 C   0  0  0  0  0  2  0  0  0  0  0  0
  194.0830  169.1260  135.2160 C   0  0  0  0  0  1  0  0  0  0  0  0
  1  4  1  1  0  0  0
  1 21  1  0  0  0  0
  2  7  1  0  0  0  0
  2  5  1  0  0  0  0
  3 10  1  0  0  0  0
  3  7  1  0  0  0  0
  4  5  1  0  0  0  0
  5  8  2  0  0  0  0
  7  6  2  0  0  0  0
 10  9  1  6  0  0  0
 11 10  1  1  0  0  0
 11 17  1  0  0  0  0
 12 16  1  0  0  0  0
 13 12  1  0  0  0  0
 13 11  1  0  0  0  0
 16 14  1  6  0  0  0
 16 17  1  0  0  0  0
 17 15  1  1  0  0  0
 18 33  1  0  0  0  0
 19 22  2  0  0  0  0
 20 23  1  0  0  0  0
 21 20  2  0  0  0  0
 21 19  1  0  0  0  0
 22 18  1  0  0  0  0
 23 18  2  0  0  0  0
 24 35  1  6  0  0  0
 24 30  1  0  0  0  0
 25 31  2  0  0  0  0
 27 32  1  0  0  0  0
 27 24  1  0  0  0  0
 29 26  1  0  0  0  0
 30 26  2  0  0  0  0
 30 28  1  0  0  0  0
 31 34  1  0  0  0  0
 32 29  2  0  0  0  0
 33 31  1  0  0  0  0
 34 32  1  0  0  0  0
 35 38  2  0  0  0  0
 36 38  1  0  0  0  0
 37 39  2  0  0  0  0
 37 35  1  0  0  0  0
 39 36  1  0  0  0  0
 40 41  1  6  0  0  0
 40 43  1  0  0  0  0
 40  1  1  0  0  0  0
 42 41  1  0  0  0  0
 45 44  1  6  0  0  0
 45 43  1  0  0  0  0
 45 46  1  0  0  0  0
 48 46  1  0  0  0  0
 48 47  1  1  0  0  0
 49 48  1  6  0  0  0
 49 50  1  0  0  0  0
 50 52  1  1  0  0  0
 53 57  1  6  0  0  0
 53 55  1  0  0  0  0
 53 54  1  0  0  0  0
 54 51  1  1  0  0  0
 54 50  1  0  0  0  0
 55 49  1  0  0  0  0
 56 57  1  0  0  0  0
 58 54  1  0  0  0  0
 59 58  1  0  0  0  0
 60 59  1  0  0  0  0
M  END
>  <MODEL>
2

>  <REMARK>
 VINA RESULT:      -7.1      3.333     11.681
  Name = 
  16 active torsions:
  status: ('A' for Active; 'I' for Inactive)
    1  A    between atoms: C_1  and  C_58
    2  A    between atoms: C_2  and  C_15
    3  A    between atoms: C_2  and  C_33
    4  A    between atoms: C_2  and  C_41
    5  A    between atoms: C_3  and  C_11
    6  A    between atoms: N_6  and  C_58
    7  A    between atoms: N_8  and  C_15
    8  A    between atoms: C_9  and  C_53
    9  A    between atoms: C_13  and  N_47
   10  A    between atoms: C_15  and  C_35
   11  A    between atoms: C_25  and  C_27
   12  A    between atoms: C_25  and  N_45
   13  A    between atoms: C_30  and  C_46
   14  A    between atoms: C_41  and  C_57
   15  A    between atoms: N_45  and  C_57
   16  A    between atoms: C_50  and  C_53
                            x       y       z     vdW  Elec       q    Type
                         _______ _______ _______ _____ _____    ______ ____

>  <TORSDO>
F 16

$$$$
=
 OpenBabel10232409223D

 60 64  0  0  1  0  0  0  0  0999 V2000
  188.4320  177.1950  137.3500 C   0  0  1  0  0  3  0  0  0  0  0  0
  184.6390  176.9970  136.9520 N   0  0  0  0  0  2  0  0  0  0  0  0
  182.1820  177.0590  136.7570 N   0  0  0  0  0  2  0  0  0  0  0  0
  187.0740  176.6950  137.1700 N   0  0  0  0  0  2  0  0  0  0  0  0
  185.9390  177.5580  137.1560 C   0  0  0  0  0  0  0  0  0  0  0  0
  183.3930  178.8850  137.5480 O   0  0  0  0  0  0  0  0  0  0  0  0
  183.4060  177.7060  137.1010 C   0  0  0  0  0  0  0  0  0  0  0  0
  186.0860  178.7990  137.3200 O   0  0  0  0  0  0  0  0  0  0  0  0
  180.1470  177.6980  135.8070 O   0  0  0  0  0  1  0  0  0  0  0  0
  180.8820  177.6720  136.9950 C   0  0  1  0  0  3  0  0  0  0  0  0
  180.1270  176.9320  138.1130 C   0  0  1  0  0  3  0  0  0  0  0  0
  180.9760  175.5430  139.9360 C   0  0  0  0  0  2  0  0  0  0  0  0
  180.8160  175.6110  138.4240 C   0  0  0  0  0  2  0  0  0  0  0  0
  182.3040  177.5650  140.4720 C   0  0  0  0  0  1  0  0  0  0  0  0
  180.2300  179.0550  139.3670 O   0  0  0  0  0  1  0  0  0  0  0  0
  180.8980  176.9720  140.4480 C   0  0  1  0  0  3  0  0  0  0  0  0
  179.9880  177.6770  139.4510 C   0  0  2  0  0  3  0  0  0  0  0  0
  189.5570  177.1210  141.5140 C   0  0  0  0  0  0  0  0  0  0  0  0
  188.0090  177.7460  139.7550 C   0  0  0  0  0  3  0  0  0  0  0  0
  190.0500  176.5680  139.1990 C   0  0  0  0  0  3  0  0  0  0  0  0
  188.8450  177.1640  138.7950 C   0  0  0  0  0  0  0  0  0  0  0  0
  188.3650  177.7260  141.1060 C   0  0  0  0  0  3  0  0  0  0  0  0
  190.4010  176.5470  140.5530 C   0  0  0  0  0  3  0  0  0  0  0  0
  188.0900  178.4750  146.6400 C   0  0  2  0  0  3  0  0  0  0  0  0
  192.1690  177.6280  142.7720 O   0  0  0  0  0  0  0  0  0  0  0  0
  189.5560  177.2220  148.1720 C   0  0  0  0  0  3  0  0  0  0  0  0
  188.8550  177.8110  145.4890 C   0  0  0  0  0  2  0  0  0  0  0  0
  187.4400  177.8410  148.9950 O   0  0  0  0  0  1  0  0  0  0  0  0
  190.5400  177.1660  147.1290 N   0  0  0  0  0  0  0  0  0  0  0  0
  188.3680  177.7980  147.9610 C   0  0  0  0  0  0  0  0  0  0  0  0
  191.1640  177.4210  143.4970 C   0  0  0  0  0  0  0  0  0  0  0  0
  190.2700  177.4700  145.8910 C   0  0  0  0  0  0  0  0  0  0  0  0
  189.8870  177.1200  142.9090 N   0  0  0  0  0  2  0  0  0  0  0  0
  191.3260  177.4230  144.9210 N   0  0  0  0  0  2  0  0  0  0  0  0
  186.6270  178.5380  146.3230 C   0  0  0  0  0  0  0  0  0  0  0  0
  184.5000  178.8790  146.5730 O   0  0  0  0  0  0  0  0  0  0  0  0
  186.0380  178.0710  145.0330 C   0  0  0  0  0  3  0  0  0  0  0  0
  185.7400  178.9760  147.1500 N   0  0  0  0  0  0  0  0  0  0  0  0
  184.5480  178.3460  145.2540 C   0  0  0  0  0  3  0  0  0  0  0  0
  189.4060  176.5060  136.3850 C   0  0  2  0  0  3  0  0  0  0  0  0
  189.3210  176.9580  134.9250 C   0  0  0  0  0  2  0  0  0  0  0  0
  188.3100  178.0720  134.7060 C   0  0  0  0  0  1  0  0  0  0  0  0
  189.4290  174.9920  136.5550 C   0  0  0  0  0  2  0  0  0  0  0  0
  190.3610  173.1080  135.2550 C   0  0  0  0  0  1  0  0  0  0  0  0
  190.6950  174.4150  135.9510 C   0  0  2  0  0  3  0  0  0  0  0  0
  191.6690  174.1710  137.0050 N   0  0  0  0  0  2  0  0  0  0  0  0
  193.2140  175.5380  138.0860 O   0  0  0  0  0  1  0  0  0  0  0  0
  192.7580  175.1230  136.8320 C   0  0  1  0  0  3  0  0  0  0  0  0
  193.8990  174.4780  136.0500 C   0  0  1  0  0  3  0  0  0  0  0  0
  195.2390  175.0100  136.5320 C   0  0  2  0  0  3  0  0  0  0  0  0
  196.8540  173.3970  135.8540 F   0  0  0  0  0  0  0  0  0  0  0  0
  195.8660  175.7370  135.5180 O   0  0  0  0  0  1  0  0  0  0  0  0
  194.9130  172.7540  137.0880 C   0  0  1  0  0  3  0  0  0  0  0  0
  196.0190  173.7730  136.8990 C   0  0  2  0  0  0  0  0  0  0  0  0
  193.8680  173.0760  136.2070 O   0  0  0  0  0  0  0  0  0  0  0  0
  194.2140  170.4390  136.4820 C   0  0  0  0  0  1  0  0  0  0  0  0
  195.3840  171.3220  136.8720 C   0  0  0  0  0  2  0  0  0  0  0  0
  196.8570  173.9760  138.1680 C   0  0  0  0  0  2  0  0  0  0  0  0
  198.2190  174.6240  137.9180 C   0  0  0  0  0  2  0  0  0  0  0  0
  199.3000  173.5660  137.7890 C   0  0  0  0  0  1  0  0  0  0  0  0
  1  4  1  1  0  0  0
  1 21  1  0  0  0  0
  2  7  1  0  0  0  0
  2  5  1  0  0  0  0
  3 10  1  0  0  0  0
  3  7  1  0  0  0  0
  5  4  1  0  0  0  0
  5  8  2  0  0  0  0
  7  6  2  0  0  0  0
 10  9  1  6  0  0  0
 11 10  1  6  0  0  0
 11 13  1  0  0  0  0
 11 17  1  0  0  0  0
 12 16  1  0  0  0  0
 13 12  1  0  0  0  0
 16 14  1  6  0  0  0
 17 15  1  6  0  0  0
 17 16  1  0  0  0  0
 18 33  1  0  0  0  0
 19 22  2  0  0  0  0
 20 23  1  0  0  0  0
 21 20  2  0  0  0  0
 21 19  1  0  0  0  0
 22 18  1  0  0  0  0
 23 18  2  0  0  0  0
 24 35  1  6  0  0  0
 24 30  1  0  0  0  0
 25 31  2  0  0  0  0
 27 32  1  0  0  0  0
 27 24  1  0  0  0  0
 29 26  1  0  0  0  0
 30 26  2  0  0  0  0
 30 28  1  0  0  0  0
 31 34  1  0  0  0  0
 32 29  2  0  0  0  0
 33 31  1  0  0  0  0
 34 32  1  0  0  0  0
 35 38  2  0  0  0  0
 36 38  1  0  0  0  0
 37 39  2  0  0  0  0
 37 35  1  0  0  0  0
 39 36  1  0  0  0  0
 40 41  1  6  0  0  0
 40 43  1  0  0  0  0
 40  1  1  0  0  0  0
 42 41  1  0  0  0  0
 45 44  1  1  0  0  0
 45 43  1  0  0  0  0
 45 46  1  0  0  0  0
 48 46  1  0  0  0  0
 48 47  1  1  0  0  0
 49 55  1  0  0  0  0
 49 50  1  0  0  0  0
 49 48  1  1  0  0  0
 50 52  1  6  0  0  0
 50 54  1  0  0  0  0
 53 57  1  6  0  0  0
 54 51  1  6  0  0  0
 54 53  1  0  0  0  0
 54 58  1  0  0  0  0
 55 53  1  0  0  0  0
 56 57  1  0  0  0  0
 59 58  1  0  0  0  0
 60 59  1  0  0  0  0
M  END
>  <MODEL>
3

>  <REMARK>
 VINA RESULT:      -7.0      3.238     11.274
  Name = 
  16 active torsions:
  status: ('A' for Active; 'I' for Inactive)
    1  A    between atoms: C_1  and  C_58
    2  A    between atoms: C_2  and  C_15
    3  A    between atoms: C_2  and  C_33
    4  A    between atoms: C_2  and  C_41
    5  A    between atoms: C_3  and  C_11
    6  A    between atoms: N_6  and  C_58
    7  A    between atoms: N_8  and  C_15
    8  A    between atoms: C_9  and  C_53
    9  A    between atoms: C_13  and  N_47
   10  A    between atoms: C_15  and  C_35
   11  A    between atoms: C_25  and  C_27
   12  A    between atoms: C_25  and  N_45
   13  A    between atoms: C_30  and  C_46
   14  A    between atoms: C_41  and  C_57
   15  A    between atoms: N_45  and  C_57
   16  A    between atoms: C_50  and  C_53
                            x       y       z     vdW  Elec       q    Type
                         _______ _______ _______ _____ _____    ______ ____

>  <TORSDO>
F 16

$$$$
=
 OpenBabel10232409223D

 60 64  0  0  1  0  0  0  0  0999 V2000
  188.3040  177.2230  136.9980 C   0  0  1  0  0  3  0  0  0  0  0  0
  184.8870  175.6180  136.4240 N   0  0  0  0  0  2  0  0  0  0  0  0
  182.5990  174.7470  136.1320 N   0  0  0  0  0  2  0  0  0  0  0  0
  187.2470  176.2590  136.7150 N   0  0  0  0  0  2  0  0  0  0  0  0
  185.8660  176.6130  136.7350 C   0  0  0  0  0  0  0  0  0  0  0  0
  183.0030  176.8070  137.1420 O   0  0  0  0  0  0  0  0  0  0  0  0
  183.4740  175.7770  136.5870 C   0  0  0  0  0  0  0  0  0  0  0  0
  185.5190  177.7910  137.0210 O   0  0  0  0  0  0  0  0  0  0  0  0
  180.6240  175.9570  135.8410 O   0  0  0  0  0  1  0  0  0  0  0  0
  181.1620  174.7820  136.3720 C   0  0  1  0  0  3  0  0  0  0  0  0
  180.4810  173.5320  135.7890 C   0  0  1  0  0  3  0  0  0  0  0  0
  181.4580  171.5270  134.7890 C   0  0  0  0  0  2  0  0  0  0  0  0
  181.2630  173.0220  134.5860 C   0  0  0  0  0  2  0  0  0  0  0  0
  182.6570  171.3840  136.9520 C   0  0  0  0  0  1  0  0  0  0  0  0
  180.4670  172.6610  138.0970 O   0  0  0  0  0  1  0  0  0  0  0  0
  181.2940  171.2630  136.2770 C   0  0  1  0  0  3  0  0  0  0  0  0
  180.3190  172.3360  136.7420 C   0  0  2  0  0  3  0  0  0  0  0  0
  189.4360  177.1160  141.1600 C   0  0  0  0  0  0  0  0  0  0  0  0
  187.9400  177.8450  139.3970 C   0  0  0  0  0  3  0  0  0  0  0  0
  189.8700  176.4890  138.8520 C   0  0  0  0  0  3  0  0  0  0  0  0
  188.7190  177.1790  138.4430 C   0  0  0  0  0  0  0  0  0  0  0  0
  188.2980  177.8150  140.7470 C   0  0  0  0  0  3  0  0  0  0  0  0
  190.2230  176.4570  140.2050 C   0  0  0  0  0  3  0  0  0  0  0  0
  187.9970  178.4650  146.2950 C   0  0  2  0  0  3  0  0  0  0  0  0
  192.0560  177.5990  142.4110 O   0  0  0  0  0  0  0  0  0  0  0  0
  189.4580  177.1950  147.8190 C   0  0  0  0  0  3  0  0  0  0  0  0
  188.7530  177.7990  145.1400 C   0  0  0  0  0  2  0  0  0  0  0  0
  187.3500  177.8290  148.6500 O   0  0  0  0  0  1  0  0  0  0  0  0
  190.4380  177.1350  146.7720 N   0  0  0  0  0  0  0  0  0  0  0  0
  188.2750  177.7810  147.6130 C   0  0  0  0  0  0  0  0  0  0  0  0
  191.0520  177.3980  143.1390 C   0  0  0  0  0  0  0  0  0  0  0  0
  190.1670  177.4450  145.5360 C   0  0  0  0  0  0  0  0  0  0  0  0
  189.7710  177.1080  142.5540 N   0  0  0  0  0  2  0  0  0  0  0  0
  191.2190  177.3930  144.5620 N   0  0  0  0  0  2  0  0  0  0  0  0
  186.5330  178.5410  145.9840 C   0  0  0  0  0  0  0  0  0  0  0  0
  184.4100  178.8970  146.2420 O   0  0  0  0  0  0  0  0  0  0  0  0
  185.9370  178.0830  144.6940 C   0  0  0  0  0  3  0  0  0  0  0  0
  185.6530  178.9820  146.8150 N   0  0  0  0  0  0  0  0  0  0  0  0
  184.4500  178.3690  144.9210 C   0  0  0  0  0  3  0  0  0  0  0  0
  189.4540  177.0930  135.9920 C   0  0  2  0  0  3  0  0  0  0  0  0
  189.1460  177.5680  134.5700 C   0  0  0  0  0  2  0  0  0  0  0  0
  187.8380  178.3370  134.4710 C   0  0  0  0  0  1  0  0  0  0  0  0
  190.1300  175.7280  136.0460 C   0  0  0  0  0  2  0  0  0  0  0  0
  192.1270  175.4640  134.6140 C   0  0  0  0  0  1  0  0  0  0  0  0
  191.6380  175.8880  135.9870 C   0  0  2  0  0  3  0  0  0  0  0  0
  192.2560  175.0490  137.0050 N   0  0  0  0  0  2  0  0  0  0  0  0
  193.6160  176.5580  138.1430 O   0  0  0  0  0  1  0  0  0  0  0  0
  193.6180  175.5240  137.2020 C   0  0  1  0  0  3  0  0  0  0  0  0
  194.5070  174.3820  137.6860 C   0  0  1  0  0  3  0  0  0  0  0  0
  194.8540  173.4540  136.5330 C   0  0  2  0  0  3  0  0  0  0  0  0
  196.8060  172.2760  137.2180 F   0  0  0  0  0  0  0  0  0  0  0  0
  194.2910  172.1930  136.7400 O   0  0  0  0  0  1  0  0  0  0  0  0
  196.7110  174.6610  137.3060 C   0  0  1  0  0  3  0  0  0  0  0  0
  196.3610  173.4030  136.5380 C   0  0  2  0  0  0  0  0  0  0  0  0
  195.6960  174.8940  138.2480 O   0  0  0  0  0  0  0  0  0  0  0  0
  197.9710  175.0450  139.4230 C   0  0  0  0  0  1  0  0  0  0  0  0
  198.0740  174.5820  137.9820 C   0  0  0  0  0  2  0  0  0  0  0  0
  196.9400  173.3980  135.1160 C   0  0  0  0  0  2  0  0  0  0  0  0
  198.2560  174.1630  134.9790 C   0  0  0  0  0  2  0  0  0  0  0  0
  199.4170  173.2040  134.7880 C   0  0  0  0  0  1  0  0  0  0  0  0
  1  4  1  1  0  0  0
  1 21  1  0  0  0  0
  2  7  1  0  0  0  0
  2  5  1  0  0  0  0
  3 10  1  0  0  0  0
  3  7  1  0  0  0  0
  4  5  1  0  0  0  0
  5  8  2  0  0  0  0
  7  6  2  0  0  0  0
 10  9  1  6  0  0  0
 11 10  1  1  0  0  0
 11 17  1  0  0  0  0
 12 16  1  0  0  0  0
 13 12  1  0  0  0  0
 13 11  1  0  0  0  0
 16 17  1  0  0  0  0
 16 14  1  1  0  0  0
 17 15  1  1  0  0  0
 18 33  1  0  0  0  0
 19 22  2  0  0  0  0
 20 23  1  0  0  0  0
 21 20  2  0  0  0  0
 21 19  1  0  0  0  0
 22 18  1  0  0  0  0
 23 18  2  0  0  0  0
 24 35  1  6  0  0  0
 24 30  1  0  0  0  0
 25 31  2  0  0  0  0
 27 32  1  0  0  0  0
 27 24  1  0  0  0  0
 29 26  1  0  0  0  0
 30 26  2  0  0  0  0
 30 28  1  0  0  0  0
 31 34  1  0  0  0  0
 32 29  2  0  0  0  0
 33 31  1  0  0  0  0
 34 32  1  0  0  0  0
 35 38  2  0  0  0  0
 36 38  1  0  0  0  0
 37 39  2  0  0  0  0
 37 35  1  0  0  0  0
 39 36  1  0  0  0  0
 40 41  1  6  0  0  0
 40 43  1  0  0  0  0
 40  1  1  0  0  0  0
 42 41  1  0  0  0  0
 45 44  1  6  0  0  0
 45 43  1  0  0  0  0
 45 46  1  0  0  0  0
 46 48  1  0  0  0  0
 48 47  1  1  0  0  0
 49 48  1  6  0  0  0
 49 55  1  0  0  0  0
 50 54  1  0  0  0  0
 50 52  1  1  0  0  0
 50 49  1  0  0  0  0
 53 57  1  1  0  0  0
 53 55  1  0  0  0  0
 54 51  1  1  0  0  0
 54 53  1  0  0  0  0
 57 56  1  0  0  0  0
 58 54  1  0  0  0  0
 59 58  1  0  0  0  0
 60 59  1  0  0  0  0
M  END
>  <MODEL>
4

>  <REMARK>
 VINA RESULT:      -6.9      3.471     11.875
  Name = 
  16 active torsions:
  status: ('A' for Active; 'I' for Inactive)
    1  A    between atoms: C_1  and  C_58
    2  A    between atoms: C_2  and  C_15
    3  A    between atoms: C_2  and  C_33
    4  A    between atoms: C_2  and  C_41
    5  A    between atoms: C_3  and  C_11
    6  A    between atoms: N_6  and  C_58
    7  A    between atoms: N_8  and  C_15
    8  A    between atoms: C_9  and  C_53
    9  A    between atoms: C_13  and  N_47
   10  A    between atoms: C_15  and  C_35
   11  A    between atoms: C_25  and  C_27
   12  A    between atoms: C_25  and  N_45
   13  A    between atoms: C_30  and  C_46
   14  A    between atoms: C_41  and  C_57
   15  A    between atoms: N_45  and  C_57
   16  A    between atoms: C_50  and  C_53
                            x       y       z     vdW  Elec       q    Type
                         _______ _______ _______ _____ _____    ______ ____

>  <TORSDO>
F 16

$$$$
=
 OpenBabel10232409223D

 60 64  0  0  1  0  0  0  0  0999 V2000
  188.2920  175.8450  137.7900 C   0  0  1  0  0  3  0  0  0  0  0  0
  184.8050  175.1400  136.4020 N   0  0  0  0  0  2  0  0  0  0  0  0
  182.4880  174.8410  135.6110 N   0  0  0  0  0  2  0  0  0  0  0  0
  187.1520  175.2030  137.1460 N   0  0  0  0  0  2  0  0  0  0  0  0
  185.8700  175.8220  137.0700 C   0  0  0  0  0  0  0  0  0  0  0  0
  183.0560  176.5110  137.1340 O   0  0  0  0  0  0  0  0  0  0  0  0
  183.4330  175.5480  136.4130 C   0  0  0  0  0  0  0  0  0  0  0  0
  185.6840  176.9580  137.5850 O   0  0  0  0  0  0  0  0  0  0  0  0
  180.7040  175.9610  134.6040 O   0  0  0  0  0  1  0  0  0  0  0  0
  181.0590  175.1210  135.6630 C   0  0  1  0  0  3  0  0  0  0  0  0
  180.2470  173.8150  135.6480 C   0  0  1  0  0  3  0  0  0  0  0  0
  180.9550  171.5250  135.1710 C   0  0  0  0  0  2  0  0  0  0  0  0
  180.7530  172.8960  134.5440 C   0  0  0  0  0  2  0  0  0  0  0  0
  182.5730  171.9520  136.9990 C   0  0  0  0  0  1  0  0  0  0  0  0
  180.6920  173.6990  138.0720 O   0  0  0  0  0  1  0  0  0  0  0  0
  181.0970  171.7450  136.6690 C   0  0  1  0  0  3  0  0  0  0  0  0
  180.2610  172.9870  136.9440 C   0  0  2  0  0  3  0  0  0  0  0  0
  191.9530  173.7710  136.8370 C   0  0  0  0  0  0  0  0  0  0  0  0
  189.5380  173.9540  136.7200 C   0  0  0  0  0  3  0  0  0  0  0  0
  190.8150  175.6250  137.9200 C   0  0  0  0  0  3  0  0  0  0  0  0
  189.5780  175.1340  137.4730 C   0  0  0  0  0  0  0  0  0  0  0  0
  190.7180  173.2760  136.4060 C   0  0  0  0  0  3  0  0  0  0  0  0
  191.9950  174.9460  137.6000 C   0  0  0  0  0  3  0  0  0  0  0  0
  197.4460  173.5130  136.9860 C   0  0  2  0  0  3  0  0  0  0  0  0
  192.5540  172.3230  134.3460 O   0  0  0  0  0  0  0  0  0  0  0  0
  198.0820  171.1990  136.4290 C   0  0  0  0  0  3  0  0  0  0  0  0
  195.9880  173.0740  136.8030 C   0  0  0  0  0  2  0  0  0  0  0  0
  199.5890  172.4250  137.7570 O   0  0  0  0  0  1  0  0  0  0  0  0
  196.8450  171.0690  135.7120 N   0  0  0  0  0  0  0  0  0  0  0  0
  198.3790  172.3290  137.0780 C   0  0  0  0  0  0  0  0  0  0  0  0
  193.4270  172.3910  135.2470 C   0  0  0  0  0  0  0  0  0  0  0  0
  195.8740  171.9310  135.8230 C   0  0  0  0  0  0  0  0  0  0  0  0
  193.1420  173.0470  136.4940 N   0  0  0  0  0  2  0  0  0  0  0  0
  194.6880  171.7420  135.0390 N   0  0  0  0  0  2  0  0  0  0  0  0
  197.5680  174.4350  138.1620 C   0  0  0  0  0  0  0  0  0  0  0  0
  198.3500  175.9760  139.4700 O   0  0  0  0  0  0  0  0  0  0  0  0
  196.6460  174.4050  139.3360 C   0  0  0  0  0  3  0  0  0  0  0  0
  198.5000  175.3180  138.2770 N   0  0  0  0  0  0  0  0  0  0  0  0
  197.2280  175.5150  140.2150 C   0  0  0  0  0  3  0  0  0  0  0  0
  188.3040  177.3540  137.5140 C   0  0  2  0  0  3  0  0  0  0  0  0
  188.8320  177.7710  136.1390 C   0  0  0  0  0  2  0  0  0  0  0  0
  187.7370  178.2700  135.2090 C   0  0  0  0  0  1  0  0  0  0  0  0
  188.8970  178.1570  138.6650 C   0  0  0  0  0  2  0  0  0  0  0  0
  187.9070  178.6490  140.8750 C   0  0  0  0  0  1  0  0  0  0  0  0
  188.4810  177.5540  139.9940 C   0  0  2  0  0  3  0  0  0  0  0  0
  189.6420  176.9630  140.6450 N   0  0  0  0  0  2  0  0  0  0  0  0
  189.0040  175.6260  142.4430 O   0  0  0  0  0  1  0  0  0  0  0  0
  189.3740  176.9240  142.0760 C   0  0  1  0  0  3  0  0  0  0  0  0
  190.6150  177.3500  142.8540 C   0  0  1  0  0  3  0  0  0  0  0  0
  190.2320  178.2760  143.9990 C   0  0  2  0  0  3  0  0  0  0  0  0
  192.0490  178.1850  145.5350 F   0  0  0  0  0  0  0  0  0  0  0  0
  190.7630  179.5500  143.7910 O   0  0  0  0  0  1  0  0  0  0  0  0
  191.0020  176.1890  144.7460 C   0  0  1  0  0  3  0  0  0  0  0  0
  190.8210  177.6170  145.2210 C   0  0  2  0  0  0  0  0  0  0  0  0
  191.2810  176.2180  143.3710 O   0  0  0  0  0  0  0  0  0  0  0  0
  191.9270  175.6570  147.0000 C   0  0  0  0  0  1  0  0  0  0  0  0
  192.0930  175.4460  145.5070 C   0  0  0  0  0  2  0  0  0  0  0  0
  189.8890  177.7220  146.4360 C   0  0  0  0  0  2  0  0  0  0  0  0
  188.4440  178.0720  146.0820 C   0  0  0  0  0  2  0  0  0  0  0  0
  187.5220  177.7930  147.2560 C   0  0  0  0  0  1  0  0  0  0  0  0
  1  4  1  6  0  0  0
  2  7  1  0  0  0  0
  2  5  1  0  0  0  0
  3 10  1  0  0  0  0
  3  7  1  0  0  0  0
  5  4  1  0  0  0  0
  5  8  2  0  0  0  0
  7  6  2  0  0  0  0
 10  9  1  6  0  0  0
 11 10  1  1  0  0  0
 11 17  1  0  0  0  0
 12 16  1  0  0  0  0
 13 12  1  0  0  0  0
 13 11  1  0  0  0  0
 16 17  1  0  0  0  0
 16 14  1  6  0  0  0
 17 15  1  1  0  0  0
 18 23  1  0  0  0  0
 19 21  2  0  0  0  0
 21  1  1  0  0  0  0
 21 20  1  0  0  0  0
 22 19  1  0  0  0  0
 22 18  2  0  0  0  0
 23 20  2  0  0  0  0
 24 30  1  0  0  0  0
 24 35  1  1  0  0  0
 25 31  2  0  0  0  0
 26 30  2  0  0  0  0
 27 24  1  0  0  0  0
 29 32  2  0  0  0  0
 29 26  1  0  0  0  0
 30 28  1  0  0  0  0
 31 33  1  0  0  0  0
 32 27  1  0  0  0  0
 33 18  1  0  0  0  0
 34 31  1  0  0  0  0
 34 32  1  0  0  0  0
 35 38  2  0  0  0  0
 35 37  1  0  0  0  0
 36 39  1  0  0  0  0
 37 39  2  0  0  0  0
 38 36  1  0  0  0  0
 40 41  1  6  0  0  0
 40  1  1  0  0  0  0
 40 43  1  0  0  0  0
 42 41  1  0  0  0  0
 43 45  1  0  0  0  0
 45 46  1  0  0  0  0
 45 44  1  1  0  0  0
 46 48  1  0  0  0  0
 48 47  1  1  0  0  0
 49 48  1  1  0  0  0
 49 55  1  0  0  0  0
 49 50  1  0  0  0  0
 50 52  1  6  0  0  0
 50 54  1  0  0  0  0
 53 54  1  0  0  0  0
 53 57  1  1  0  0  0
 54 51  1  1  0  0  0
 54 58  1  0  0  0  0
 55 53  1  0  0  0  0
 57 56  1  0  0  0  0
 59 58  1  0  0  0  0
 59 60  1  0  0  0  0
M  END
>  <MODEL>
5

>  <REMARK>
 VINA RESULT:      -6.4      2.690      7.910
  Name = 
  16 active torsions:
  status: ('A' for Active; 'I' for Inactive)
    1  A    between atoms: C_1  and  C_58
    2  A    between atoms: C_2  and  C_15
    3  A    between atoms: C_2  and  C_33
    4  A    between atoms: C_2  and  C_41
    5  A    between atoms: C_3  and  C_11
    6  A    between atoms: N_6  and  C_58
    7  A    between atoms: N_8  and  C_15
    8  A    between atoms: C_9  and  C_53
    9  A    between atoms: C_13  and  N_47
   10  A    between atoms: C_15  and  C_35
   11  A    between atoms: C_25  and  C_27
   12  A    between atoms: C_25  and  N_45
   13  A    between atoms: C_30  and  C_46
   14  A    between atoms: C_41  and  C_57
   15  A    between atoms: N_45  and  C_57
   16  A    between atoms: C_50  and  C_53
                            x       y       z     vdW  Elec       q    Type
                         _______ _______ _______ _____ _____    ______ ____

>  <TORSDO>
F 16

$$$$
=
 OpenBabel10232409223D

 60 64  0  0  1  0  0  0  0  0999 V2000
  191.6220  175.6230  137.2440 C   0  0  1  0  0  3  0  0  0  0  0  0
  194.6250  173.2770  137.4890 N   0  0  0  0  0  2  0  0  0  0  0  0
  196.6290  171.8400  137.4760 N   0  0  0  0  0  2  0  0  0  0  0  0
  192.5190  174.5450  137.6440 N   0  0  0  0  0  2  0  0  0  0  0  0
  193.7890  174.3410  137.0280 C   0  0  0  0  0  0  0  0  0  0  0  0
  196.1700  173.3160  135.7330 O   0  0  0  0  0  0  0  0  0  0  0  0
  195.8270  172.8390  136.8480 C   0  0  0  0  0  0  0  0  0  0  0  0
  194.1650  175.0950  136.0900 O   0  0  0  0  0  0  0  0  0  0  0  0
  198.9560  171.6590  137.5000 O   0  0  0  0  0  1  0  0  0  0  0  0
  197.7980  171.2590  136.8280 C   0  0  1  0  0  3  0  0  0  0  0  0
  197.6800  169.7260  136.7640 C   0  0  1  0  0  3  0  0  0  0  0  0
  195.9700  168.2380  137.6750 C   0  0  0  0  0  2  0  0  0  0  0  0
  197.0910  169.1910  138.0610 C   0  0  0  0  0  2  0  0  0  0  0  0
  194.4380  169.6510  136.3360 C   0  0  0  0  0  1  0  0  0  0  0  0
  196.5630  170.0650  134.5900 O   0  0  0  0  0  1  0  0  0  0  0  0
  195.5490  168.6070  136.2620 C   0  0  1  0  0  3  0  0  0  0  0  0
  196.8180  169.1550  135.6260 C   0  0  2  0  0  3  0  0  0  0  0  0
  187.7920  174.0620  136.0140 C   0  0  0  0  0  0  0  0  0  0  0  0
  189.8350  173.8690  137.3070 C   0  0  0  0  0  3  0  0  0  0  0  0
  189.4900  175.7970  135.8820 C   0  0  0  0  0  3  0  0  0  0  0  0
  190.2870  175.0930  136.7980 C   0  0  0  0  0  0  0  0  0  0  0  0
  188.5960  173.3570  136.9150 C   0  0  0  0  0  3  0  0  0  0  0  0
  188.2480  175.2820  135.4950 C   0  0  0  0  0  3  0  0  0  0  0  0
  182.3780  173.7620  136.9410 C   0  0  2  0  0  3  0  0  0  0  0  0
  187.1920  171.3050  135.1760 O   0  0  0  0  0  0  0  0  0  0  0  0
  181.3540  172.7320  134.9510 C   0  0  0  0  0  3  0  0  0  0  0  0
  183.7280  173.6050  136.2320 C   0  0  0  0  0  2  0  0  0  0  0  0
  179.9880  174.1560  136.2330 O   0  0  0  0  0  1  0  0  0  0  0  0
  182.6120  172.0950  134.6780 N   0  0  0  0  0  0  0  0  0  0  0  0
  181.2210  173.5600  135.9920 C   0  0  0  0  0  0  0  0  0  0  0  0
  186.2560  172.1380  135.2790 C   0  0  0  0  0  0  0  0  0  0  0  0
  183.7170  172.4370  135.2750 C   0  0  0  0  0  0  0  0  0  0  0  0
  186.5270  173.5030  135.6360 N   0  0  0  0  0  2  0  0  0  0  0  0
  184.9210  171.7200  134.9670 N   0  0  0  0  0  2  0  0  0  0  0  0
  182.3150  175.0790  137.6540 C   0  0  0  0  0  0  0  0  0  0  0  0
  181.8640  176.5500  139.1810 O   0  0  0  0  0  0  0  0  0  0  0  0
  182.8230  176.3580  137.0760 C   0  0  0  0  0  3  0  0  0  0  0  0
  181.7890  175.2290  138.8210 N   0  0  0  0  0  0  0  0  0  0  0  0
  182.4970  177.3540  138.1930 C   0  0  0  0  0  3  0  0  0  0  0  0
  191.5560  176.7150  138.3190 C   0  0  2  0  0  3  0  0  0  0  0  0
  192.8930  177.3650  138.6840 C   0  0  0  0  0  2  0  0  0  0  0  0
  193.3590  177.0160  140.0890 C   0  0  0  0  0  1  0  0  0  0  0  0
  190.7300  176.2980  139.5300 C   0  0  0  0  0  2  0  0  0  0  0  0
  189.5560  178.2640  138.6020 C   0  0  0  0  0  1  0  0  0  0  0  0
  189.6090  177.2920  139.7670 C   0  0  2  0  0  3  0  0  0  0  0  0
  189.8600  178.0230  141.0000 N   0  0  0  0  0  2  0  0  0  0  0  0
  187.9270  179.1170  140.2980 O   0  0  0  0  0  1  0  0  0  0  0  0
  188.6030  178.6280  141.4200 C   0  0  1  0  0  3  0  0  0  0  0  0
  187.7400  177.5980  142.1410 C   0  0  1  0  0  3  0  0  0  0  0  0
  188.4650  177.0610  143.3660 C   0  0  2  0  0  3  0  0  0  0  0  0
  186.7710  176.1540  144.7710 F   0  0  0  0  0  0  0  0  0  0  0  0
  188.7470  175.7030  143.2050 O   0  0  0  0  0  1  0  0  0  0  0  0
  186.6080  178.3810  143.9260 C   0  0  1  0  0  3  0  0  0  0  0  0
  187.5030  177.3030  144.5020 C   0  0  2  0  0  0  0  0  0  0  0  0
  186.5170  178.1780  142.5400 O   0  0  0  0  0  0  0  0  0  0  0  0
  184.3150  179.3520  143.8050 C   0  0  0  0  0  1  0  0  0  0  0  0
  185.2250  178.4060  144.5640 C   0  0  0  0  0  2  0  0  0  0  0  0
  188.2250  177.7540  145.7790 C   0  0  0  0  0  2  0  0  0  0  0  0
  189.6880  178.1380  145.5640 C   0  0  0  0  0  2  0  0  0  0  0  0
  190.6070  177.1880  146.3100 C   0  0  0  0  0  1  0  0  0  0  0  0
  1  4  1  1  0  0  0
  1 40  1  0  0  0  0
  5  2  1  0  0  0  0
  5  4  1  0  0  0  0
  6  7  2  0  0  0  0
  7  3  1  0  0  0  0
  7  2  1  0  0  0  0
  8  5  2  0  0  0  0
 10  3  1  0  0  0  0
 10  9  1  1  0  0  0
 11 10  1  1  0  0  0
 11 13  1  0  0  0  0
 12 13  1  0  0  0  0
 16 14  1  1  0  0  0
 16 12  1  0  0  0  0
 17 15  1  6  0  0  0
 17 16  1  0  0  0  0
 17 11  1  0  0  0  0
 18 22  1  0  0  0  0
 20 21  2  0  0  0  0
 21  1  1  0  0  0  0
 21 19  1  0  0  0  0
 22 19  2  0  0  0  0
 23 20  1  0  0  0  0
 23 18  2  0  0  0  0
 24 35  1  6  0  0  0
 25 31  2  0  0  0  0
 26 30  2  0  0  0  0
 27 24  1  0  0  0  0
 29 26  1  0  0  0  0
 29 32  2  0  0  0  0
 30 28  1  0  0  0  0
 30 24  1  0  0  0  0
 31 33  1  0  0  0  0
 32 27  1  0  0  0  0
 33 18  1  0  0  0  0
 34 32  1  0  0  0  0
 34 31  1  0  0  0  0
 35 38  2  0  0  0  0
 37 35  1  0  0  0  0
 37 39  2  0  0  0  0
 38 36  1  0  0  0  0
 39 36  1  0  0  0  0
 40 41  1  1  0  0  0
 40 43  1  0  0  0  0
 41 42  1  0  0  0  0
 43 45  1  0  0  0  0
 45 44  1  6  0  0  0
 45 46  1  0  0  0  0
 46 48  1  0  0  0  0
 48 47  1  6  0  0  0
 49 48  1  1  0  0  0
 49 55  1  0  0  0  0
 49 50  1  0  0  0  0
 50 52  1  6  0  0  0
 50 54  1  0  0  0  0
 53 54  1  0  0  0  0
 53 57  1  1  0  0  0
 54 51  1  1  0  0  0
 54 58  1  0  0  0  0
 55 53  1  0  0  0  0
 56 57  1  0  0  0  0
 59 58  1  0  0  0  0
 59 60  1  0  0  0  0
M  END
>  <MODEL>
6

>  <REMARK>
 VINA RESULT:      -6.3      2.788     10.555
  Name = 
  16 active torsions:
  status: ('A' for Active; 'I' for Inactive)
    1  A    between atoms: C_1  and  C_58
    2  A    between atoms: C_2  and  C_15
    3  A    between atoms: C_2  and  C_33
    4  A    between atoms: C_2  and  C_41
    5  A    between atoms: C_3  and  C_11
    6  A    between atoms: N_6  and  C_58
    7  A    between atoms: N_8  and  C_15
    8  A    between atoms: C_9  and  C_53
    9  A    between atoms: C_13  and  N_47
   10  A    between atoms: C_15  and  C_35
   11  A    between atoms: C_25  and  C_27
   12  A    between atoms: C_25  and  N_45
   13  A    between atoms: C_30  and  C_46
   14  A    between atoms: C_41  and  C_57
   15  A    between atoms: N_45  and  C_57
   16  A    between atoms: C_50  and  C_53
                            x       y       z     vdW  Elec       q    Type
                         _______ _______ _______ _____ _____    ______ ____

>  <TORSDO>
F 16

$$$$
=
 OpenBabel10232409223D

 60 64  0  0  1  0  0  0  0  0999 V2000
  190.2020  176.7840  136.8130 C   0  0  1  0  0  3  0  0  0  0  0  0
  189.8160  177.8910  140.4480 N   0  0  0  0  0  2  0  0  0  0  0  0
  189.4720  178.4320  142.8280 N   0  0  0  0  0  2  0  0  0  0  0  0
  190.1750  177.5870  138.0300 N   0  0  0  0  0  2  0  0  0  0  0  0
  189.7950  177.0470  139.2930 C   0  0  0  0  0  0  0  0  0  0  0  0
  188.6460  176.4670  141.8890 O   0  0  0  0  0  0  0  0  0  0  0  0
  189.2860  177.5410  141.7300 C   0  0  0  0  0  0  0  0  0  0  0  0
  189.4500  175.8370  139.3860 O   0  0  0  0  0  0  0  0  0  0  0  0
  187.4800  178.0390  143.9800 O   0  0  0  0  0  1  0  0  0  0  0  0
  188.8590  178.2030  144.1300 C   0  0  1  0  0  3  0  0  0  0  0  0
  189.5020  176.9930  144.8300 C   0  0  1  0  0  3  0  0  0  0  0  0
  191.2390  176.9060  146.5470 C   0  0  0  0  0  2  0  0  0  0  0  0
  190.9780  177.2620  145.0910 C   0  0  0  0  0  2  0  0  0  0  0  0
  189.6740  178.3650  147.7950 C   0  0  0  0  0  1  0  0  0  0  0  0
  187.6130  177.1080  146.4120 O   0  0  0  0  0  1  0  0  0  0  0  0
  189.8960  176.9540  147.2570 C   0  0  1  0  0  3  0  0  0  0  0  0
  188.8900  176.5800  146.1780 C   0  0  2  0  0  3  0  0  0  0  0  0
  193.9770  174.7650  136.2810 C   0  0  0  0  0  0  0  0  0  0  0  0
  192.0140  175.8500  135.3590 C   0  0  0  0  0  3  0  0  0  0  0  0
  192.2510  175.6280  137.7590 C   0  0  0  0  0  3  0  0  0  0  0  0
  191.5160  176.0730  136.6480 C   0  0  0  0  0  0  0  0  0  0  0  0
  193.2360  175.1970  135.1770 C   0  0  0  0  0  3  0  0  0  0  0  0
  193.4760  174.9790  137.5720 C   0  0  0  0  0  3  0  0  0  0  0  0
  197.1180  170.3380  137.1710 C   0  0  2  0  0  3  0  0  0  0  0  0
  196.6810  175.9270  136.2310 O   0  0  0  0  0  0  0  0  0  0  0  0
  198.9530  170.4050  135.5280 C   0  0  0  0  0  3  0  0  0  0  0  0
  196.6220  171.6500  136.5530 C   0  0  0  0  0  2  0  0  0  0  0  0
  198.3330  168.2860  136.3440 O   0  0  0  0  0  1  0  0  0  0  0  0
  198.7940  171.8300  135.4610 N   0  0  0  0  0  0  0  0  0  0  0  0
  198.1490  169.6630  136.2960 C   0  0  0  0  0  0  0  0  0  0  0  0
  196.5380  174.6870  136.0840 C   0  0  0  0  0  0  0  0  0  0  0  0
  197.7590  172.4460  135.9580 C   0  0  0  0  0  0  0  0  0  0  0  0
  195.2270  174.1000  136.0530 N   0  0  0  0  0  2  0  0  0  0  0  0
  197.7020  173.8770  135.8800 N   0  0  0  0  0  2  0  0  0  0  0  0
  195.9600  169.4420  137.4900 C   0  0  0  0  0  0  0  0  0  0  0  0
  194.0550  168.4260  137.2930 O   0  0  0  0  0  0  0  0  0  0  0  0
  195.8360  168.6710  138.7620 C   0  0  0  0  0  3  0  0  0  0  0  0
  194.9500  169.2810  136.7040 N   0  0  0  0  0  0  0  0  0  0  0  0
  194.4920  167.9630  138.5660 C   0  0  0  0  0  3  0  0  0  0  0  0
  188.9640  175.8830  136.7200 C   0  0  2  0  0  3  0  0  0  0  0  0
  189.1940  174.5060  136.0920 C   0  0  0  0  0  2  0  0  0  0  0  0
  188.6900  173.3650  136.9630 C   0  0  0  0  0  1  0  0  0  0  0  0
  187.7470  176.6120  136.1630 C   0  0  0  0  0  2  0  0  0  0  0  0
  185.6840  175.3480  136.6650 C   0  0  0  0  0  1  0  0  0  0  0  0
  186.5770  176.4880  137.1210 C   0  0  2  0  0  3  0  0  0  0  0  0
  185.8180  177.7300  137.1240 N   0  0  0  0  0  2  0  0  0  0  0  0
  185.6110  179.1540  138.9560 O   0  0  0  0  0  1  0  0  0  0  0  0
  185.2520  177.8990  138.4550 C   0  0  1  0  0  3  0  0  0  0  0  0
  183.7320  177.7770  138.3990 C   0  0  1  0  0  3  0  0  0  0  0  0
  183.1860  177.3210  139.7440 C   0  0  2  0  0  3  0  0  0  0  0  0
  180.8900  177.9520  139.7530 F   0  0  0  0  0  0  0  0  0  0  0  0
  182.6080  176.0560  139.6290 O   0  0  0  0  0  1  0  0  0  0  0  0
  182.6010  179.5360  139.2370 C   0  0  1  0  0  3  0  0  0  0  0  0
  182.1670  178.3720  140.1050 C   0  0  2  0  0  0  0  0  0  0  0  0
  183.1540  179.0180  138.0560 O   0  0  0  0  0  0  0  0  0  0  0  0
  180.9940  180.3140  137.4970 C   0  0  0  0  0  1  0  0  0  0  0  0
  181.4620  180.5000  138.9270 C   0  0  0  0  0  2  0  0  0  0  0  0
  182.1940  178.7090  141.6020 C   0  0  0  0  0  2  0  0  0  0  0  0
  183.3990  178.1360  142.3460 C   0  0  0  0  0  2  0  0  0  0  0  0
  184.5130  179.1640  142.4340 C   0  0  0  0  0  1  0  0  0  0  0  0
  1  4  1  1  0  0  0
  2  7  1  0  0  0  0
  3 10  1  0  0  0  0
  4  5  1  0  0  0  0
  5  8  2  0  0  0  0
  5  2  1  0  0  0  0
  7  6  2  0  0  0  0
  7  3  1  0  0  0  0
 10  9  1  6  0  0  0
 11 10  1  1  0  0  0
 11 13  1  0  0  0  0
 11 17  1  0  0  0  0
 12 16  1  0  0  0  0
 13 12  1  0  0  0  0
 16 14  1  6  0  0  0
 17 15  1  1  0  0  0
 17 16  1  0  0  0  0
 18 23  1  0  0  0  0
 19 21  2  0  0  0  0
 21  1  1  0  0  0  0
 21 20  1  0  0  0  0
 22 19  1  0  0  0  0
 22 18  2  0  0  0  0
 23 20  2  0  0  0  0
 24 35  1  6  0  0  0
 26 30  2  0  0  0  0
 27 24  1  0  0  0  0
 29 26  1  0  0  0  0
 29 32  2  0  0  0  0
 30 28  1  0  0  0  0
 30 24  1  0  0  0  0
 31 25  2  0  0  0  0
 32 27  1  0  0  0  0
 33 31  1  0  0  0  0
 33 18  1  0  0  0  0
 34 32  1  0  0  0  0
 34 31  1  0  0  0  0
 35 37  1  0  0  0  0
 36 39  1  0  0  0  0
 38 36  1  0  0  0  0
 38 35  2  0  0  0  0
 39 37  2  0  0  0  0
 40 41  1  6  0  0  0
 40  1  1  0  0  0  0
 41 42  1  0  0  0  0
 43 40  1  0  0  0  0
 43 45  1  0  0  0  0
 45 44  1  6  0  0  0
 45 46  1  0  0  0  0
 46 48  1  0  0  0  0
 48 47  1  6  0  0  0
 49 48  1  1  0  0  0
 49 50  1  0  0  0  0
 50 52  1  6  0  0  0
 50 54  1  0  0  0  0
 53 57  1  6  0  0  0
 53 54  1  0  0  0  0
 54 51  1  6  0  0  0
 54 58  1  0  0  0  0
 55 49  1  0  0  0  0
 55 53  1  0  0  0  0
 56 57  1  0  0  0  0
 58 59  1  0  0  0  0
 59 60  1  0  0  0  0
M  END
>  <MODEL>
7

>  <REMARK>
 VINA RESULT:      -6.3      2.073      3.195
  Name = 
  16 active torsions:
  status: ('A' for Active; 'I' for Inactive)
    1  A    between atoms: C_1  and  C_58
    2  A    between atoms: C_2  and  C_15
    3  A    between atoms: C_2  and  C_33
    4  A    between atoms: C_2  and  C_41
    5  A    between atoms: C_3  and  C_11
    6  A    between atoms: N_6  and  C_58
    7  A    between atoms: N_8  and  C_15
    8  A    between atoms: C_9  and  C_53
    9  A    between atoms: C_13  and  N_47
   10  A    between atoms: C_15  and  C_35
   11  A    between atoms: C_25  and  C_27
   12  A    between atoms: C_25  and  N_45
   13  A    between atoms: C_30  and  C_46
   14  A    between atoms: C_41  and  C_57
   15  A    between atoms: N_45  and  C_57
   16  A    between atoms: C_50  and  C_53
                            x       y       z     vdW  Elec       q    Type
                         _______ _______ _______ _____ _____    ______ ____

>  <TORSDO>
F 16

$$$$
=
 OpenBabel10232409223D

 60 64  0  0  1  0  0  0  0  0999 V2000
  189.7940  176.5520  137.6470 C   0  0  1  0  0  3  0  0  0  0  0  0
  188.5980  176.9650  141.2500 N   0  0  0  0  0  2  0  0  0  0  0  0
  187.9640  177.3740  143.5980 N   0  0  0  0  0  2  0  0  0  0  0  0
  189.1370  176.3350  138.9310 N   0  0  0  0  0  2  0  0  0  0  0  0
  189.2920  177.2310  140.0290 C   0  0  0  0  0  0  0  0  0  0  0  0
  189.7280  178.5140  142.5900 O   0  0  0  0  0  0  0  0  0  0  0  0
  188.8050  177.6630  142.4820 C   0  0  0  0  0  0  0  0  0  0  0  0
  190.0320  178.2470  139.9170 O   0  0  0  0  0  0  0  0  0  0  0  0
  187.0070  178.5240  145.3890 O   0  0  0  0  0  1  0  0  0  0  0  0
  188.1910  177.9540  144.9150 C   0  0  1  0  0  3  0  0  0  0  0  0
  188.7420  176.8990  145.8890 C   0  0  1  0  0  3  0  0  0  0  0  0
  190.5850  177.0410  147.4880 C   0  0  0  0  0  2  0  0  0  0  0  0
  190.2550  177.0310  146.0030 C   0  0  0  0  0  2  0  0  0  0  0  0
  189.2980  178.9720  148.3580 C   0  0  0  0  0  1  0  0  0  0  0  0
  187.0060  177.6760  147.4600 O   0  0  0  0  0  1  0  0  0  0  0  0
  189.3160  177.4520  148.2160 C   0  0  1  0  0  3  0  0  0  0  0  0
  188.1920  176.9410  147.3240 C   0  0  2  0  0  3  0  0  0  0  0  0
  193.5590  174.4570  137.4330 C   0  0  0  0  0  0  0  0  0  0  0  0
  192.2860  176.4710  137.8810 C   0  0  0  0  0  3  0  0  0  0  0  0
  191.1440  174.4610  137.1620 C   0  0  0  0  0  3  0  0  0  0  0  0
  191.0970  175.8060  137.5600 C   0  0  0  0  0  0  0  0  0  0  0  0
  193.5100  175.8010  137.8150 C   0  0  0  0  0  3  0  0  0  0  0  0
  192.3710  173.7920  137.1020 C   0  0  0  0  0  3  0  0  0  0  0  0
  196.3570  169.7700  136.7480 C   0  0  2  0  0  3  0  0  0  0  0  0
  195.9180  174.9110  139.1340 O   0  0  0  0  0  0  0  0  0  0  0  0
  198.7080  170.3790  136.3350 C   0  0  0  0  0  3  0  0  0  0  0  0
  196.0710  171.2710  136.8700 C   0  0  0  0  0  2  0  0  0  0  0  0
  197.9700  168.3270  135.4500 O   0  0  0  0  0  1  0  0  0  0  0  0
  198.4790  171.6040  137.0480 N   0  0  0  0  0  0  0  0  0  0  0  0
  197.7140  169.5070  136.1390 C   0  0  0  0  0  0  0  0  0  0  0  0
  195.9530  174.0120  138.2570 C   0  0  0  0  0  0  0  0  0  0  0  0
  197.2860  172.0280  137.3520 C   0  0  0  0  0  0  0  0  0  0  0  0
  194.8340  173.8030  137.3780 N   0  0  0  0  0  2  0  0  0  0  0  0
  197.1520  173.2450  138.1000 N   0  0  0  0  0  2  0  0  0  0  0  0
  195.2500  169.0890  136.0020 C   0  0  0  0  0  0  0  0  0  0  0  0
  194.0610  168.3500  134.3470 O   0  0  0  0  0  0  0  0  0  0  0  0
  194.0670  168.4640  136.6650 C   0  0  0  0  0  3  0  0  0  0  0  0
  195.2060  169.0060  134.7160 N   0  0  0  0  0  0  0  0  0  0  0  0
  193.2730  167.9480  135.4620 C   0  0  0  0  0  3  0  0  0  0  0  0
  188.8270  176.3010  136.4830 C   0  0  2  0  0  3  0  0  0  0  0  0
  189.2210  176.9350  135.1470 C   0  0  0  0  0  2  0  0  0  0  0  0
  188.3980  178.1680  134.8090 C   0  0  0  0  0  1  0  0  0  0  0  0
  187.3710  176.5400  136.8670 C   0  0  0  0  0  2  0  0  0  0  0  0
  187.4630  174.1960  136.0920 C   0  0  0  0  0  1  0  0  0  0  0  0
  186.5610  175.2730  136.6660 C   0  0  2  0  0  3  0  0  0  0  0  0
  185.4670  175.5370  135.7420 N   0  0  0  0  0  2  0  0  0  0  0  0
  184.7580  177.6350  135.0210 O   0  0  0  0  0  1  0  0  0  0  0  0
  184.8490  176.7960  136.1350 C   0  0  1  0  0  3  0  0  0  0  0  0
  183.4590  176.5410  136.7100 C   0  0  1  0  0  3  0  0  0  0  0  0
  183.5470  176.2370  138.1980 C   0  0  2  0  0  3  0  0  0  0  0  0
  181.3760  176.6690  139.0730 F   0  0  0  0  0  0  0  0  0  0  0  0
  183.1440  174.9240  138.4490 O   0  0  0  0  0  1  0  0  0  0  0  0
  182.5220  178.3010  137.7590 C   0  0  1  0  0  3  0  0  0  0  0  0
  182.6200  177.2400  138.8370 C   0  0  2  0  0  0  0  0  0  0  0  0
  182.6340  177.6680  136.5110 O   0  0  0  0  0  0  0  0  0  0  0  0
  181.1380  180.0640  136.6660 C   0  0  0  0  0  1  0  0  0  0  0  0
  181.2360  179.1140  137.8440 C   0  0  0  0  0  2  0  0  0  0  0  0
  183.1850  177.7870  140.1550 C   0  0  0  0  0  2  0  0  0  0  0  0
  184.0770  179.0160  139.9870 C   0  0  0  0  0  2  0  0  0  0  0  0
  185.3010  178.9170  140.8790 C   0  0  0  0  0  1  0  0  0  0  0  0
  1  4  1  1  0  0  0
  2  7  1  0  0  0  0
  3 10  1  0  0  0  0
  4  5  1  0  0  0  0
  5  2  1  0  0  0  0
  7  6  2  0  0  0  0
  7  3  1  0  0  0  0
  8  5  2  0  0  0  0
 10  9  1  1  0  0  0
 11 10  1  6  0  0  0
 11 13  1  0  0  0  0
 11 17  1  0  0  0  0
 12 16  1  0  0  0  0
 13 12  1  0  0  0  0
 16 14  1  6  0  0  0
 17 15  1  6  0  0  0
 17 16  1  0  0  0  0
 18 22  1  0  0  0  0
 20 21  2  0  0  0  0
 21  1  1  0  0  0  0
 21 19  1  0  0  0  0
 22 19  2  0  0  0  0
 23 20  1  0  0  0  0
 23 18  2  0  0  0  0
 24 35  1  6  0  0  0
 24 27  1  0  0  0  0
 26 29  1  0  0  0  0
 27 32  1  0  0  0  0
 28 30  1  0  0  0  0
 29 32  2  0  0  0  0
 30 26  2  0  0  0  0
 30 24  1  0  0  0  0
 31 25  2  0  0  0  0
 32 34  1  0  0  0  0
 33 18  1  0  0  0  0
 33 31  1  0  0  0  0
 34 31  1  0  0  0  0
 35 37  1  0  0  0  0
 36 38  1  0  0  0  0
 36 39  1  0  0  0  0
 38 35  2  0  0  0  0
 39 37  2  0  0  0  0
 40 41  1  6  0  0  0
 40 43  1  0  0  0  0
 40  1  1  0  0  0  0
 42 41  1  0  0  0  0
 45 44  1  6  0  0  0
 45 43  1  0  0  0  0
 46 48  1  0  0  0  0
 46 45  1  0  0  0  0
 48 47  1  6  0  0  0
 49 48  1  1  0  0  0
 49 50  1  0  0  0  0
 50 52  1  6  0  0  0
 50 54  1  0  0  0  0
 53 57  1  6  0  0  0
 53 54  1  0  0  0  0
 54 51  1  1  0  0  0
 54 58  1  0  0  0  0
 55 49  1  0  0  0  0
 55 53  1  0  0  0  0
 56 57  1  0  0  0  0
 59 58  1  0  0  0  0
 59 60  1  0  0  0  0
M  END
>  <MODEL>
8

>  <REMARK>
 VINA RESULT:      -6.2      1.874      3.199
  Name = 
  16 active torsions:
  status: ('A' for Active; 'I' for Inactive)
    1  A    between atoms: C_1  and  C_58
    2  A    between atoms: C_2  and  C_15
    3  A    between atoms: C_2  and  C_33
    4  A    between atoms: C_2  and  C_41
    5  A    between atoms: C_3  and  C_11
    6  A    between atoms: N_6  and  C_58
    7  A    between atoms: N_8  and  C_15
    8  A    between atoms: C_9  and  C_53
    9  A    between atoms: C_13  and  N_47
   10  A    between atoms: C_15  and  C_35
   11  A    between atoms: C_25  and  C_27
   12  A    between atoms: C_25  and  N_45
   13  A    between atoms: C_30  and  C_46
   14  A    between atoms: C_41  and  C_57
   15  A    between atoms: N_45  and  C_57
   16  A    between atoms: C_50  and  C_53
                            x       y       z     vdW  Elec       q    Type
                         _______ _______ _______ _____ _____    ______ ____

>  <TORSDO>
F 16

$$$$
=
 OpenBabel10232409223D

 60 64  0  0  1  0  0  0  0  0999 V2000
  183.3720  178.0690  139.9180 C   0  0  1  0  0  3  0  0  0  0  0  0
  182.9750  174.7930  137.9970 N   0  0  0  0  0  2  0  0  0  0  0  0
  182.5210  172.7090  136.7590 N   0  0  0  0  0  2  0  0  0  0  0  0
  183.6360  176.7730  139.3030 N   0  0  0  0  0  2  0  0  0  0  0  0
  182.6350  176.0480  138.5930 C   0  0  0  0  0  0  0  0  0  0  0  0
  180.7980  174.0830  137.5140 O   0  0  0  0  0  0  0  0  0  0  0  0
  182.0380  173.8760  137.4230 C   0  0  0  0  0  0  0  0  0  0  0  0
  181.4680  176.5140  138.4910 O   0  0  0  0  0  0  0  0  0  0  0  0
  180.3280  172.1760  136.1590 O   0  0  0  0  0  1  0  0  0  0  0  0
  181.6280  171.6720  136.2580 C   0  0  1  0  0  3  0  0  0  0  0  0
  182.1290  171.1260  134.9090 C   0  0  1  0  0  3  0  0  0  0  0  0
  184.2180  169.9890  134.3480 C   0  0  0  0  0  2  0  0  0  0  0  0
  183.6340  171.3220  134.7920 C   0  0  0  0  0  2  0  0  0  0  0  0
  183.5040  168.4190  136.1270 C   0  0  0  0  0  1  0  0  0  0  0  0
  180.8830  169.0700  135.4620 O   0  0  0  0  0  1  0  0  0  0  0  0
  183.2020  168.9220  134.7180 C   0  0  1  0  0  3  0  0  0  0  0  0
  181.8610  169.6380  134.6330 C   0  0  2  0  0  3  0  0  0  0  0  0
  185.2860  178.3910  143.7710 C   0  0  0  0  0  0  0  0  0  0  0  0
  185.3910  177.9280  141.3930 C   0  0  0  0  0  3  0  0  0  0  0  0
  183.2770  178.5280  142.4100 C   0  0  0  0  0  3  0  0  0  0  0  0
  184.0200  178.1800  141.2710 C   0  0  0  0  0  0  0  0  0  0  0  0
  186.0190  178.0310  142.6370 C   0  0  0  0  0  3  0  0  0  0  0  0
  183.9110  178.6350  143.6530 C   0  0  0  0  0  3  0  0  0  0  0  0
  189.5960  176.9070  146.8510 C   0  0  2  0  0  3  0  0  0  0  0  0
  184.1270  178.4140  146.4760 O   0  0  0  0  0  0  0  0  0  0  0  0
  189.6860  178.4490  148.7700 C   0  0  0  0  0  3  0  0  0  0  0  0
  188.3520  177.6750  146.3910 C   0  0  0  0  0  2  0  0  0  0  0  0
  191.7160  177.4630  148.1030 O   0  0  0  0  0  1  0  0  0  0  0  0
  188.2750  178.6640  148.6180 N   0  0  0  0  0  0  0  0  0  0  0  0
  190.3510  177.6560  147.9240 C   0  0  0  0  0  0  0  0  0  0  0  0
  185.3760  178.4450  146.3390 C   0  0  0  0  0  0  0  0  0  0  0  0
  187.6160  178.2860  147.5600 C   0  0  0  0  0  0  0  0  0  0  0  0
  185.9670  178.4870  145.0300 N   0  0  0  0  0  2  0  0  0  0  0  0
  186.1990  178.5080  147.5100 N   0  0  0  0  0  2  0  0  0  0  0  0
  190.4590  176.5630  145.6750 C   0  0  0  0  0  0  0  0  0  0  0  0
  192.0980  175.7350  144.5230 O   0  0  0  0  0  0  0  0  0  0  0  0
  190.1950  177.0420  144.2860 C   0  0  0  0  0  3  0  0  0  0  0  0
  191.5250  175.8430  145.7640 N   0  0  0  0  0  0  0  0  0  0  0  0
  191.3640  176.4210  143.5160 C   0  0  0  0  0  3  0  0  0  0  0  0
  183.6960  179.2140  138.9510 C   0  0  2  0  0  3  0  0  0  0  0  0
  182.5560  180.2030  138.6910 C   0  0  0  0  0  2  0  0  0  0  0  0
  181.2460  179.5170  138.3330 C   0  0  0  0  0  1  0  0  0  0  0  0
  184.3880  178.7330  137.6810 C   0  0  0  0  0  2  0  0  0  0  0  0
  186.4440  178.8810  136.3190 C   0  0  0  0  0  1  0  0  0  0  0  0
  185.8440  179.1590  137.6850 C   0  0  2  0  0  3  0  0  0  0  0  0
  186.5690  178.4040  138.6970 N   0  0  0  0  0  2  0  0  0  0  0  0
  188.7690  179.1560  138.8380 O   0  0  0  0  0  1  0  0  0  0  0  0
  187.9330  178.2210  138.2210 C   0  0  1  0  0  3  0  0  0  0  0  0
  188.4130  176.8070  138.5340 C   0  0  1  0  0  3  0  0  0  0  0  0
  188.4630  175.9700  137.2650 C   0  0  2  0  0  3  0  0  0  0  0  0
  189.9390  174.1640  137.7420 F   0  0  0  0  0  0  0  0  0  0  0  0
  187.5310  174.9330  137.3310 O   0  0  0  0  0  1  0  0  0  0  0  0
  190.5970  176.4280  138.1260 C   0  0  1  0  0  3  0  0  0  0  0  0
  189.8770  175.4500  137.2190 C   0  0  2  0  0  0  0  0  0  0  0  0
  189.6960  176.8450  139.1190 O   0  0  0  0  0  0  0  0  0  0  0  0
  192.8130  176.9510  139.1420 C   0  0  0  0  0  1  0  0  0  0  0  0
  191.8580  175.8410  138.7470 C   0  0  0  0  0  2  0  0  0  0  0  0
  190.4420  175.4440  135.7920 C   0  0  0  0  0  2  0  0  0  0  0  0
  189.5210  176.0870  134.7560 C   0  0  0  0  0  2  0  0  0  0  0  0
  189.8190  177.5690  134.6200 C   0  0  0  0  0  1  0  0  0  0  0  0
  1  4  1  6  0  0  0
  1 21  1  0  0  0  0
  2  5  1  0  0  0  0
  3  7  1  0  0  0  0
  5  4  1  0  0  0  0
  7  6  2  0  0  0  0
  7  2  1  0  0  0  0
  8  5  2  0  0  0  0
 10  9  1  6  0  0  0
 10  3  1  0  0  0  0
 11 10  1  1  0  0  0
 12 16  1  0  0  0  0
 12 13  1  0  0  0  0
 13 11  1  0  0  0  0
 16 14  1  1  0  0  0
 17 16  1  0  0  0  0
 17 11  1  0  0  0  0
 17 15  1  1  0  0  0
 18 33  1  0  0  0  0
 19 22  1  0  0  0  0
 20 23  2  0  0  0  0
 21 19  2  0  0  0  0
 21 20  1  0  0  0  0
 22 18  2  0  0  0  0
 23 18  1  0  0  0  0
 24 35  1  6  0  0  0
 24 30  1  0  0  0  0
 27 24  1  0  0  0  0
 27 32  1  0  0  0  0
 29 26  1  0  0  0  0
 30 28  1  0  0  0  0
 30 26  2  0  0  0  0
 31 25  2  0  0  0  0
 31 34  1  0  0  0  0
 32 29  2  0  0  0  0
 33 31  1  0  0  0  0
 34 32  1  0  0  0  0
 35 38  2  0  0  0  0
 36 38  1  0  0  0  0
 37 35  1  0  0  0  0
 39 37  2  0  0  0  0
 39 36  1  0  0  0  0
 40 43  1  6  0  0  0
 40  1  1  0  0  0  0
 41 40  1  0  0  0  0
 42 41  1  0  0  0  0
 43 45  1  0  0  0  0
 45 44  1  6  0  0  0
 45 46  1  0  0  0  0
 48 46  1  0  0  0  0
 48 47  1  1  0  0  0
 49 48  1  6  0  0  0
 49 55  1  0  0  0  0
 50 52  1  1  0  0  0
 50 49  1  0  0  0  0
 53 57  1  1  0  0  0
 53 55  1  0  0  0  0
 54 50  1  0  0  0  0
 54 51  1  1  0  0  0
 54 53  1  0  0  0  0
 57 56  1  0  0  0  0
 58 54  1  0  0  0  0
 59 58  1  0  0  0  0
 60 59  1  0  0  0  0
M  END
>  <MODEL>
9

>  <REMARK>
 VINA RESULT:      -6.2      4.641     11.074
  Name = 
  16 active torsions:
  status: ('A' for Active; 'I' for Inactive)
    1  A    between atoms: C_1  and  C_58
    2  A    between atoms: C_2  and  C_15
    3  A    between atoms: C_2  and  C_33
    4  A    between atoms: C_2  and  C_41
    5  A    between atoms: C_3  and  C_11
    6  A    between atoms: N_6  and  C_58
    7  A    between atoms: N_8  and  C_15
    8  A    between atoms: C_9  and  C_53
    9  A    between atoms: C_13  and  N_47
   10  A    between atoms: C_15  and  C_35
   11  A    between atoms: C_25  and  C_27
   12  A    between atoms: C_25  and  N_45
   13  A    between atoms: C_30  and  C_46
   14  A    between atoms: C_41  and  C_57
   15  A    between atoms: N_45  and  C_57
   16  A    between atoms: C_50  and  C_53
                            x       y       z     vdW  Elec       q    Type
                         _______ _______ _______ _____ _____    ______ ____

>  <TORSDO>
F 16

$$$$
