=
 OpenBabel10232409073D

 28 31  0  0  1  0  0  0  0  0999 V2000
  186.8550  178.5510  142.4730 C   0  0  0  0  0  3  0  0  0  0  0  0
  190.8930  177.4480  141.7470 O   0  0  0  0  0  0  0  0  0  0  0  0
  190.5760  176.2830  143.8500 C   0  0  0  0  0  2  0  0  0  0  0  0
  187.6990  177.7690  143.1490 C   0  0  0  0  0  0  0  0  0  0  0  0
  187.7140  178.3870  140.0980 C   0  0  0  0  0  0  0  0  0  0  0  0
  189.2520  175.7470  143.3250 C   0  0  0  0  0  2  0  0  0  0  0  0
  186.7440  178.6130  141.0030 C   0  0  0  0  0  3  0  0  0  0  0  0
  191.4910  176.5330  142.6630 C   0  0  0  0  0  2  0  0  0  0  0  0
  189.0840  178.1580  140.4740 N   0  0  0  0  0  0  0  0  0  0  0  0
  189.5160  177.4790  141.4950 C   0  0  0  0  0  0  0  0  0  0  0  0
  188.5570  176.7700  142.4160 C   0  0  2  0  0  3  0  0  0  0  0  0
  188.9330  177.7480  145.3230 C   0  0  0  0  0  3  0  0  0  0  0  0
  185.2430  178.3240  145.0330 C   0  0  0  0  0  0  0  0  0  0  0  0
  186.5910  178.2510  146.7240 C   0  0  0  0  0  0  0  0  0  0  0  0
  184.5310  178.5470  146.1610 N   0  0  0  0  0  0  0  0  0  0  0  0
  187.7760  178.1250  147.4460 C   0  0  0  0  0  0  0  0  0  0  0  0
  188.9600  177.8700  146.7300 C   0  0  0  0  0  3  0  0  0  0  0  0
  185.3580  178.5020  147.2020 N   0  0  0  0  0  2  0  0  0  0  0  0
  187.7950  178.2480  148.8290 O   0  0  0  0  0  1  0  0  0  0  0  0
  187.7210  177.8790  144.6160 C   0  0  0  0  0  0  0  0  0  0  0  0
  186.5650  178.1310  145.3620 C   0  0  0  0  0  0  0  0  0  0  0  0
  184.6980  178.2950  143.7070 N   0  0  0  0  0  2  0  0  0  0  0  0
  182.9650  178.6790  142.0570 C   0  0  0  0  0  2  0  0  0  0  0  0
  183.3910  178.7310  143.3120 C   0  0  0  0  0  3  0  0  0  0  0  0
  187.4370  178.5440  138.6980 N   0  0  0  0  0  2  0  0  0  0  0  0
  187.1060  177.8830  136.2890 C   0  0  0  0  0  1  0  0  0  0  0  0
  187.4870  177.5320  137.6830 C   0  0  0  0  0  0  0  0  0  0  0  0
  187.8580  176.3580  137.9440 O   0  0  0  0  0  0  0  0  0  0  0  0
  1  4  2  0  0  0  0
  2  8  1  0  0  0  0
  4 20  1  0  0  0  0
  5  9  1  0  0  0  0
  5  7  2  0  0  0  0
  6  3  1  0  0  0  0
  7  1  1  0  0  0  0
  8  3  1  0  0  0  0
  9 10  2  0  0  0  0
 10  2  1  0  0  0  0
 10 11  1  0  0  0  0
 11  4  1  0  0  0  0
 11  6  1  1  0  0  0
 12 17  1  0  0  0  0
 13 21  1  0  0  0  0
 13 15  2  0  0  0  0
 14 18  1  0  0  0  0
 14 16  1  0  0  0  0
 15 18  1  0  0  0  0
 16 19  1  0  0  0  0
 17 16  2  0  0  0  0
 20 12  2  0  0  0  0
 20 21  1  0  0  0  0
 21 14  2  0  0  0  0
 22 13  1  0  0  0  0
 23 24  2  0  0  0  0
 24 22  1  0  0  0  0
 25  5  1  0  0  0  0
 26 27  1  0  0  0  0
 27 28  2  0  0  0  0
 27 25  1  0  0  0  0
M  END
>  <MODEL>
1

>  <REMARK>
 VINA RESULT:      -9.5      0.000      0.000
  Name = 
  4 active torsions:
  status: ('A' for Active; 'I' for Inactive)
    1  A    between atoms: N_3  and  C_15
    2  A    between atoms: C_5  and  N_19
    3  A    between atoms: C_9  and  C_22
    4  A    between atoms: C_14  and  N_19
                            x       y       z     vdW  Elec       q    Type
                         _______ _______ _______ _____ _____    ______ ____

>  <TORSDO>
F 4

$$$$
=
 OpenBabel10232409073D

 28 31  0  0  1  0  0  0  0  0999 V2000
  187.0750  178.7060  143.8230 C   0  0  0  0  0  3  0  0  0  0  0  0
  189.5890  177.7370  140.5380 O   0  0  0  0  0  0  0  0  0  0  0  0
  190.5160  176.1950  142.1660 C   0  0  0  0  0  2  0  0  0  0  0  0
  188.0500  177.8040  143.6840 C   0  0  0  0  0  0  0  0  0  0  0  0
  186.2280  178.9900  141.4560 C   0  0  0  0  0  0  0  0  0  0  0  0
  189.1010  175.7770  142.5370 C   0  0  0  0  0  2  0  0  0  0  0  0
  186.0770  179.0460  142.7920 C   0  0  0  0  0  3  0  0  0  0  0  0
  190.5080  176.6610  140.7190 C   0  0  0  0  0  2  0  0  0  0  0  0
  187.4890  178.6850  140.8320 N   0  0  0  0  0  0  0  0  0  0  0  0
  188.3760  177.8230  141.2320 C   0  0  0  0  0  0  0  0  0  0  0  0
  188.1250  176.9580  142.4400 C   0  0  2  0  0  3  0  0  0  0  0  0
  190.3870  177.6080  144.5500 C   0  0  0  0  0  3  0  0  0  0  0  0
  187.3450  177.5000  146.7340 C   0  0  0  0  0  0  0  0  0  0  0  0
  189.4640  177.3690  147.1560 C   0  0  0  0  0  0  0  0  0  0  0  0
  187.5110  177.3600  148.0690 N   0  0  0  0  0  0  0  0  0  0  0  0
  190.8400  177.3400  146.9400 C   0  0  0  0  0  0  0  0  0  0  0  0
  191.3020  177.4620  145.6170 C   0  0  0  0  0  3  0  0  0  0  0  0
  188.8130  177.2790  148.3300 N   0  0  0  0  0  2  0  0  0  0  0  0
  191.7330  177.1980  147.9940 O   0  0  0  0  0  1  0  0  0  0  0  0
  188.9990  177.6340  144.7950 C   0  0  0  0  0  0  0  0  0  0  0  0
  188.5780  177.5080  146.1240 C   0  0  0  0  0  0  0  0  0  0  0  0
  186.0810  177.6200  146.0680 N   0  0  0  0  0  2  0  0  0  0  0  0
  183.9900  178.7900  145.7010 C   0  0  0  0  0  2  0  0  0  0  0  0
  184.9480  178.3730  146.5180 C   0  0  0  0  0  3  0  0  0  0  0  0
  185.1580  179.4110  140.5960 N   0  0  0  0  0  2  0  0  0  0  0  0
  182.9080  179.3610  139.4640 C   0  0  0  0  0  1  0  0  0  0  0  0
  183.9210  178.7290  140.3490 C   0  0  0  0  0  0  0  0  0  0  0  0
  183.6810  177.6010  140.8540 O   0  0  0  0  0  0  0  0  0  0  0  0
  2  8  1  0  0  0  0
  2 10  1  0  0  0  0
  3  6  1  0  0  0  0
  4  1  2  0  0  0  0
  4 20  1  0  0  0  0
  5  7  2  0  0  0  0
  7  1  1  0  0  0  0
  8  3  1  0  0  0  0
  9 10  2  0  0  0  0
  9  5  1  0  0  0  0
 10 11  1  0  0  0  0
 11  6  1  1  0  0  0
 11  4  1  0  0  0  0
 12 20  2  0  0  0  0
 12 17  1  0  0  0  0
 13 15  2  0  0  0  0
 14 18  1  0  0  0  0
 15 18  1  0  0  0  0
 16 14  1  0  0  0  0
 16 19  1  0  0  0  0
 17 16  2  0  0  0  0
 20 21  1  0  0  0  0
 21 13  1  0  0  0  0
 21 14  2  0  0  0  0
 22 24  1  0  0  0  0
 22 13  1  0  0  0  0
 23 24  2  0  0  0  0
 25  5  1  0  0  0  0
 26 27  1  0  0  0  0
 27 25  1  0  0  0  0
 27 28  2  0  0  0  0
M  END
>  <MODEL>
2

>  <REMARK>
 VINA RESULT:      -9.3      2.101      2.926
  Name = 
  4 active torsions:
  status: ('A' for Active; 'I' for Inactive)
    1  A    between atoms: N_3  and  C_15
    2  A    between atoms: C_5  and  N_19
    3  A    between atoms: C_9  and  C_22
    4  A    between atoms: C_14  and  N_19
                            x       y       z     vdW  Elec       q    Type
                         _______ _______ _______ _____ _____    ______ ____

>  <TORSDO>
F 4

$$$$
=
 OpenBabel10232409073D

 28 31  0  0  1  0  0  0  0  0999 V2000
  184.3480  179.2610  139.7820 C   0  0  0  0  0  3  0  0  0  0  0  0
  181.4950  179.2180  142.9290 O   0  0  0  0  0  0  0  0  0  0  0  0
  179.9820  178.8480  141.0690 C   0  0  0  0  0  2  0  0  0  0  0  0
  183.0280  179.0610  139.7840 C   0  0  0  0  0  0  0  0  0  0  0  0
  185.0350  178.5180  142.1010 C   0  0  0  0  0  0  0  0  0  0  0  0
  180.9400  177.7930  140.5340 C   0  0  0  0  0  2  0  0  0  0  0  0
  185.2880  178.7560  140.8010 C   0  0  0  0  0  3  0  0  0  0  0  0
  180.1460  178.9130  142.5780 C   0  0  0  0  0  2  0  0  0  0  0  0
  183.7790  178.8550  142.7190 N   0  0  0  0  0  0  0  0  0  0  0  0
  182.5930  178.7480  142.1990 C   0  0  0  0  0  0  0  0  0  0  0  0
  182.4010  178.1670  140.8220 C   0  0  2  0  0  3  0  0  0  0  0  0
  181.7590  181.0110  138.8680 C   0  0  0  0  0  3  0  0  0  0  0  0
  182.2090  177.7770  137.0320 C   0  0  0  0  0  0  0  0  0  0  0  0
  181.1960  179.6230  136.5330 C   0  0  0  0  0  0  0  0  0  0  0  0
  181.6680  177.6510  135.7990 N   0  0  0  0  0  0  0  0  0  0  0  0
  180.7190  180.9260  136.6550 C   0  0  0  0  0  0  0  0  0  0  0  0
  181.0070  181.6240  137.8420 C   0  0  0  0  0  3  0  0  0  0  0  0
  181.0460  178.7860  135.4900 N   0  0  0  0  0  2  0  0  0  0  0  0
  179.9820  181.5230  135.6410 O   0  0  0  0  0  1  0  0  0  0  0  0
  182.2300  179.6910  138.7200 C   0  0  0  0  0  0  0  0  0  0  0  0
  181.9220  179.0280  137.5270 C   0  0  0  0  0  0  0  0  0  0  0  0
  182.9600  176.7610  137.7110 N   0  0  0  0  0  2  0  0  0  0  0  0
  185.1950  177.1520  136.8600 C   0  0  0  0  0  2  0  0  0  0  0  0
  184.2980  176.3450  137.4090 C   0  0  0  0  0  3  0  0  0  0  0  0
  186.0910  178.0730  142.9660 N   0  0  0  0  0  2  0  0  0  0  0  0
  187.2810  177.5330  145.1190 C   0  0  0  0  0  1  0  0  0  0  0  0
  186.1100  178.0970  144.3990 C   0  0  0  0  0  0  0  0  0  0  0  0
  185.1630  178.5980  145.0600 O   0  0  0  0  0  0  0  0  0  0  0  0
  1  4  2  0  0  0  0
  1  7  1  0  0  0  0
  3  8  1  0  0  0  0
  4 11  1  0  0  0  0
  5  9  1  0  0  0  0
  5 25  1  0  0  0  0
  6  3  1  0  0  0  0
  7  5  2  0  0  0  0
  8  2  1  0  0  0  0
 10  9  2  0  0  0  0
 10  2  1  0  0  0  0
 11  6  1  6  0  0  0
 11 10  1  0  0  0  0
 13 21  1  0  0  0  0
 13 22  1  0  0  0  0
 14 16  2  0  0  0  0
 14 21  1  0  0  0  0
 15 13  2  0  0  0  0
 16 17  1  0  0  0  0
 17 12  2  0  0  0  0
 18 15  1  0  0  0  0
 18 14  1  0  0  0  0
 19 16  1  0  0  0  0
 20 12  1  0  0  0  0
 20  4  1  0  0  0  0
 21 20  2  0  0  0  0
 23 24  2  0  0  0  0
 24 22  1  0  0  0  0
 25 27  1  0  0  0  0
 27 28  2  0  0  0  0
 27 26  1  0  0  0  0
M  END
>  <MODEL>
3

>  <REMARK>
 VINA RESULT:      -8.7      4.453      8.986
  Name = 
  4 active torsions:
  status: ('A' for Active; 'I' for Inactive)
    1  A    between atoms: N_3  and  C_15
    2  A    between atoms: C_5  and  N_19
    3  A    between atoms: C_9  and  C_22
    4  A    between atoms: C_14  and  N_19
                            x       y       z     vdW  Elec       q    Type
                         _______ _______ _______ _____ _____    ______ ____

>  <TORSDO>
F 4

$$$$
=
 OpenBabel10232409073D

 28 31  0  0  1  0  0  0  0  0999 V2000
  189.1180  174.1040  137.1850 C   0  0  0  0  0  3  0  0  0  0  0  0
  186.5550  177.4920  137.1750 O   0  0  0  0  0  0  0  0  0  0  0  0
  188.6780  178.6490  136.9810 C   0  0  0  0  0  2  0  0  0  0  0  0
  189.3700  175.4100  137.0650 C   0  0  0  0  0  0  0  0  0  0  0  0
  186.7570  173.9010  136.2980 C   0  0  0  0  0  0  0  0  0  0  0  0
  189.0860  177.6630  135.8950 C   0  0  0  0  0  2  0  0  0  0  0  0
  187.9740  173.3980  136.5780 C   0  0  0  0  0  3  0  0  0  0  0  0
  187.1630  178.7660  136.9690 C   0  0  0  0  0  2  0  0  0  0  0  0
  186.3620  175.2300  136.6830 N   0  0  0  0  0  0  0  0  0  0  0  0
  187.0960  176.3030  136.6720 C   0  0  0  0  0  0  0  0  0  0  0  0
  188.5150  176.2650  136.1660 C   0  0  2  0  0  3  0  0  0  0  0  0
  190.3840  176.4200  139.1150 C   0  0  0  0  0  3  0  0  0  0  0  0
  192.3100  175.6930  135.9860 C   0  0  0  0  0  0  0  0  0  0  0  0
  192.8730  176.5380  137.8970 C   0  0  0  0  0  0  0  0  0  0  0  0
  193.6320  175.9780  135.9570 N   0  0  0  0  0  0  0  0  0  0  0  0
  192.7600  176.9970  139.2070 C   0  0  0  0  0  0  0  0  0  0  0  0
  191.4950  176.9350  139.8190 C   0  0  0  0  0  3  0  0  0  0  0  0
  193.9800  176.4980  137.1320 N   0  0  0  0  0  2  0  0  0  0  0  0
  193.8570  177.5010  139.8940 O   0  0  0  0  0  1  0  0  0  0  0  0
  190.5250  175.9620  137.7900 C   0  0  0  0  0  0  0  0  0  0  0  0
  191.7980  176.0420  137.2140 C   0  0  0  0  0  0  0  0  0  0  0  0
  191.5670  175.1190  134.9020 N   0  0  0  0  0  2  0  0  0  0  0  0
  191.9810  172.7590  135.2690 C   0  0  0  0  0  2  0  0  0  0  0  0
  191.6000  173.7510  134.4750 C   0  0  0  0  0  3  0  0  0  0  0  0
  185.7400  173.0480  135.7510 N   0  0  0  0  0  2  0  0  0  0  0  0
  183.6990  171.5710  135.7070 C   0  0  0  0  0  1  0  0  0  0  0  0
  184.6990  172.3670  136.4650 C   0  0  0  0  0  0  0  0  0  0  0  0
  184.6240  172.4170  137.7210 O   0  0  0  0  0  0  0  0  0  0  0  0
  4  1  2  0  0  0  0
  4 20  1  0  0  0  0
  5  7  2  0  0  0  0
  5  9  1  0  0  0  0
  6  3  1  0  0  0  0
  7  1  1  0  0  0  0
  8  3  1  0  0  0  0
  8  2  1  0  0  0  0
 10  9  2  0  0  0  0
 10  2  1  0  0  0  0
 11  6  1  1  0  0  0
 11 10  1  0  0  0  0
 11  4  1  0  0  0  0
 12 17  1  0  0  0  0
 13 21  1  0  0  0  0
 14 16  1  0  0  0  0
 15 13  2  0  0  0  0
 15 18  1  0  0  0  0
 16 17  2  0  0  0  0
 16 19  1  0  0  0  0
 18 14  1  0  0  0  0
 20 12  2  0  0  0  0
 21 20  1  0  0  0  0
 21 14  2  0  0  0  0
 22 13  1  0  0  0  0
 24 22  1  0  0  0  0
 24 23  2  0  0  0  0
 25  5  1  0  0  0  0
 25 27  1  0  0  0  0
 26 27  1  0  0  0  0
 27 28  2  0  0  0  0
M  END
>  <MODEL>
4

>  <REMARK>
 VINA RESULT:      -8.5      6.308      8.891
  Name = 
  4 active torsions:
  status: ('A' for Active; 'I' for Inactive)
    1  A    between atoms: N_3  and  C_15
    2  A    between atoms: C_5  and  N_19
    3  A    between atoms: C_9  and  C_22
    4  A    between atoms: C_14  and  N_19
                            x       y       z     vdW  Elec       q    Type
                         _______ _______ _______ _____ _____    ______ ____

>  <TORSDO>
F 4

$$$$
=
 OpenBabel10232409073D

 28 31  0  0  1  0  0  0  0  0999 V2000
  188.9910  177.8990  136.9340 C   0  0  0  0  0  3  0  0  0  0  0  0
  186.9930  174.4160  135.5450 O   0  0  0  0  0  0  0  0  0  0  0  0
  189.1760  173.4390  135.9510 C   0  0  0  0  0  2  0  0  0  0  0  0
  189.3970  176.6340  136.7980 C   0  0  0  0  0  0  0  0  0  0  0  0
  186.4940  177.6550  137.2670 C   0  0  0  0  0  0  0  0  0  0  0  0
  189.2090  174.1370  137.3030 C   0  0  0  0  0  2  0  0  0  0  0  0
  187.6570  178.3180  137.4060 C   0  0  0  0  0  3  0  0  0  0  0  0
  187.7240  173.1910  135.5810 C   0  0  0  0  0  2  0  0  0  0  0  0
  186.3810  176.4440  136.4980 N   0  0  0  0  0  0  0  0  0  0  0  0
  187.2440  175.4740  136.4270 C   0  0  0  0  0  0  0  0  0  0  0  0
  188.5090  175.5020  137.2440 C   0  0  2  0  0  3  0  0  0  0  0  0
  190.9260  176.1730  134.8740 C   0  0  0  0  0  3  0  0  0  0  0  0
  192.0970  176.5780  138.4090 C   0  0  0  0  0  0  0  0  0  0  0  0
  193.1360  176.1880  136.5510 C   0  0  0  0  0  0  0  0  0  0  0  0
  193.4220  176.4840  138.6680 N   0  0  0  0  0  0  0  0  0  0  0  0
  193.3440  175.9660  135.1910 C   0  0  0  0  0  0  0  0  0  0  0  0
  192.2190  175.9600  134.3460 C   0  0  0  0  0  3  0  0  0  0  0  0
  194.0620  176.2440  137.5270 N   0  0  0  0  0  2  0  0  0  0  0  0
  194.6180  175.7590  134.6800 O   0  0  0  0  0  1  0  0  0  0  0  0
  190.7430  176.3950  136.2530 C   0  0  0  0  0  0  0  0  0  0  0  0
  191.8850  176.3930  137.0620 C   0  0  0  0  0  0  0  0  0  0  0  0
  191.0820  176.8310  139.3890 N   0  0  0  0  0  2  0  0  0  0  0  0
  190.4420  176.9290  141.7250 C   0  0  0  0  0  2  0  0  0  0  0  0
  191.2910  177.2280  140.7500 C   0  0  0  0  0  3  0  0  0  0  0  0
  185.2750  178.2410  137.7470 N   0  0  0  0  0  2  0  0  0  0  0  0
  183.7020  179.3960  139.3410 C   0  0  0  0  0  1  0  0  0  0  0  0
  185.0200  178.7730  139.0540 C   0  0  0  0  0  0  0  0  0  0  0  0
  185.8850  178.7120  139.9670 O   0  0  0  0  0  0  0  0  0  0  0  0
  1  7  1  0  0  0  0
  2  8  1  0  0  0  0
  2 10  1  0  0  0  0
  3  6  1  0  0  0  0
  4  1  2  0  0  0  0
  4 11  1  0  0  0  0
  5  7  2  0  0  0  0
  5 25  1  0  0  0  0
  8  3  1  0  0  0  0
  9  5  1  0  0  0  0
 10  9  2  0  0  0  0
 10 11  1  0  0  0  0
 11  6  1  6  0  0  0
 12 20  1  0  0  0  0
 13 15  2  0  0  0  0
 13 22  1  0  0  0  0
 14 21  1  0  0  0  0
 14 18  1  0  0  0  0
 16 14  2  0  0  0  0
 17 12  2  0  0  0  0
 17 16  1  0  0  0  0
 18 15  1  0  0  0  0
 19 16  1  0  0  0  0
 20  4  1  0  0  0  0
 20 21  2  0  0  0  0
 21 13  1  0  0  0  0
 22 24  1  0  0  0  0
 24 23  2  0  0  0  0
 25 27  1  0  0  0  0
 27 26  1  0  0  0  0
 27 28  2  0  0  0  0
M  END
>  <MODEL>
5

>  <REMARK>
 VINA RESULT:      -8.3      4.725      8.760
  Name = 
  4 active torsions:
  status: ('A' for Active; 'I' for Inactive)
    1  A    between atoms: N_3  and  C_15
    2  A    between atoms: C_5  and  N_19
    3  A    between atoms: C_9  and  C_22
    4  A    between atoms: C_14  and  N_19
                            x       y       z     vdW  Elec       q    Type
                         _______ _______ _______ _____ _____    ______ ____

>  <TORSDO>
F 4

$$$$
=
 OpenBabel10232409073D

 28 31  0  0  1  0  0  0  0  0999 V2000
  189.4690  173.4380  136.9690 C   0  0  0  0  0  3  0  0  0  0  0  0
  187.5830  177.2450  136.9640 O   0  0  0  0  0  0  0  0  0  0  0  0
  189.4730  177.7790  135.5410 C   0  0  0  0  0  2  0  0  0  0  0  0
  189.7720  174.5800  136.3490 C   0  0  0  0  0  0  0  0  0  0  0  0
  186.9620  173.6080  137.2710 C   0  0  0  0  0  0  0  0  0  0  0  0
  189.2130  176.5000  134.7580 C   0  0  0  0  0  2  0  0  0  0  0  0
  188.1060  172.9070  137.1580 C   0  0  0  0  0  3  0  0  0  0  0  0
  188.1540  178.2510  136.1300 C   0  0  0  0  0  2  0  0  0  0  0  0
  186.9400  175.0450  137.3440 N   0  0  0  0  0  0  0  0  0  0  0  0
  187.6930  175.8770  136.6860 C   0  0  0  0  0  0  0  0  0  0  0  0
  188.6910  175.3820  135.6720 C   0  0  2  0  0  3  0  0  0  0  0  0
  191.9940  174.6480  135.2040 C   0  0  0  0  0  3  0  0  0  0  0  0
  191.3120  176.2600  138.5160 C   0  0  0  0  0  0  0  0  0  0  0  0
  193.0810  176.1400  137.2740 C   0  0  0  0  0  0  0  0  0  0  0  0
  192.3140  176.9300  139.1290 N   0  0  0  0  0  0  0  0  0  0  0  0
  193.9020  175.8130  136.1970 C   0  0  0  0  0  0  0  0  0  0  0  0
  193.3450  175.0560  135.1510 C   0  0  0  0  0  3  0  0  0  0  0  0
  193.4030  176.8580  138.3670 N   0  0  0  0  0  2  0  0  0  0  0  0
  195.2290  176.2200  136.1520 O   0  0  0  0  0  1  0  0  0  0  0  0
  191.1840  174.9910  136.3050 C   0  0  0  0  0  0  0  0  0  0  0  0
  191.7740  175.7440  137.3270 C   0  0  0  0  0  0  0  0  0  0  0  0
  189.9820  176.1160  139.0300 N   0  0  0  0  0  2  0  0  0  0  0  0
  188.9090  178.1310  139.8460 C   0  0  0  0  0  2  0  0  0  0  0  0
  189.3750  176.9070  140.0590 C   0  0  0  0  0  3  0  0  0  0  0  0
  185.7230  172.9220  137.5040 N   0  0  0  0  0  2  0  0  0  0  0  0
  183.6090  171.6620  136.9650 C   0  0  0  0  0  1  0  0  0  0  0  0
  184.8220  172.3960  136.5200 C   0  0  0  0  0  0  0  0  0  0  0  0
  185.0300  172.5550  135.2880 O   0  0  0  0  0  0  0  0  0  0  0  0
  1  7  1  0  0  0  0
  3  8  1  0  0  0  0
  4  1  2  0  0  0  0
  5  9  1  0  0  0  0
  5 25  1  0  0  0  0
  6  3  1  0  0  0  0
  7  5  2  0  0  0  0
  8  2  1  0  0  0  0
 10  2  1  0  0  0  0
 10  9  2  0  0  0  0
 11  6  1  1  0  0  0
 11  4  1  0  0  0  0
 11 10  1  0  0  0  0
 12 20  1  0  0  0  0
 13 22  1  0  0  0  0
 13 15  2  0  0  0  0
 14 21  1  0  0  0  0
 14 18  1  0  0  0  0
 16 14  2  0  0  0  0
 17 12  2  0  0  0  0
 17 16  1  0  0  0  0
 18 15  1  0  0  0  0
 19 16  1  0  0  0  0
 20  4  1  0  0  0  0
 20 21  2  0  0  0  0
 21 13  1  0  0  0  0
 22 24  1  0  0  0  0
 23 24  2  0  0  0  0
 27 26  1  0  0  0  0
 27 25  1  0  0  0  0
 28 27  2  0  0  0  0
M  END
>  <MODEL>
6

>  <REMARK>
 VINA RESULT:      -8.2      5.625      8.814
  Name = 
  4 active torsions:
  status: ('A' for Active; 'I' for Inactive)
    1  A    between atoms: N_3  and  C_15
    2  A    between atoms: C_5  and  N_19
    3  A    between atoms: C_9  and  C_22
    4  A    between atoms: C_14  and  N_19
                            x       y       z     vdW  Elec       q    Type
                         _______ _______ _______ _____ _____    ______ ____

>  <TORSDO>
F 4

$$$$
=
 OpenBabel10232409073D

 28 31  0  0  1  0  0  0  0  0999 V2000
  187.6850  177.2700  144.6020 C   0  0  0  0  0  3  0  0  0  0  0  0
  189.6530  176.7700  140.8700 O   0  0  0  0  0  0  0  0  0  0  0  0
  188.0040  178.4130  140.1880 C   0  0  0  0  0  2  0  0  0  0  0  0
  187.5060  177.8560  143.4160 C   0  0  0  0  0  0  0  0  0  0  0  0
  190.1260  176.6030  144.5380 C   0  0  0  0  0  0  0  0  0  0  0  0
  188.3410  179.2280  141.4280 C   0  0  0  0  0  2  0  0  0  0  0  0
  188.9930  176.9220  145.1910 C   0  0  0  0  0  3  0  0  0  0  0  0
  189.2360  177.6130  139.7970 C   0  0  0  0  0  2  0  0  0  0  0  0
  190.1750  176.4400  143.1090 N   0  0  0  0  0  0  0  0  0  0  0  0
  189.5490  177.1450  142.2150 C   0  0  0  0  0  0  0  0  0  0  0  0
  188.6950  178.3200  142.6140 C   0  0  2  0  0  3  0  0  0  0  0  0
  185.7800  177.8420  141.6080 C   0  0  0  0  0  3  0  0  0  0  0  0
  185.0660  178.8120  145.1550 C   0  0  0  0  0  0  0  0  0  0  0  0
  183.8250  178.6880  143.3860 C   0  0  0  0  0  0  0  0  0  0  0  0
  183.8040  179.1640  145.4890 N   0  0  0  0  0  0  0  0  0  0  0  0
  183.4570  178.4640  142.0610 C   0  0  0  0  0  0  0  0  0  0  0  0
  184.4520  178.0360  141.1640 C   0  0  0  0  0  3  0  0  0  0  0  0
  183.0400  179.0880  144.4030 N   0  0  0  0  0  2  0  0  0  0  0  0
  182.1500  178.6550  141.6330 O   0  0  0  0  0  1  0  0  0  0  0  0
  186.1270  178.0760  142.9530 C   0  0  0  0  0  0  0  0  0  0  0  0
  185.1100  178.5030  143.8150 C   0  0  0  0  0  0  0  0  0  0  0  0
  186.1780  178.7700  146.0600 N   0  0  0  0  0  0  0  0  0  0  0  0
  187.2040  178.4050  148.2250 C   0  0  0  0  0  1  0  0  0  0  0  0
  186.1200  178.5220  147.4700 C   0  0  0  0  0  3  0  0  0  0  0  0
  191.3000  176.2390  145.2790 N   0  0  0  0  0  2  0  0  0  0  0  0
  192.7350  175.7240  147.2850 C   0  0  0  0  0  1  0  0  0  0  0  0
  191.4470  176.1850  146.7050 C   0  0  0  0  0  0  0  0  0  0  0  0
  190.5130  176.5320  147.4740 O   0  0  0  0  0  0  0  0  0  0  0  0
  1  7  1  0  0  0  0
  2 10  1  0  0  0  0
  3  6  1  0  0  0  0
  4  1  2  0  0  0  0
  5  7  2  0  0  0  0
  5 25  1  0  0  0  0
  8  3  1  0  0  0  0
  8  2  1  0  0  0  0
  9  5  1  0  0  0  0
 10 11  1  0  0  0  0
 10  9  2  0  0  0  0
 11  6  1  6  0  0  0
 11  4  1  0  0  0  0
 12 20  1  0  0  0  0
 13 15  2  0  0  0  0
 13 22  1  0  0  0  0
 14 21  1  0  0  0  0
 14 18  1  0  0  0  0
 16 14  2  0  0  0  0
 17 12  2  0  0  0  0
 17 16  1  0  0  0  0
 18 15  1  0  0  0  0
 19 16  1  0  0  0  0
 20  4  1  0  0  0  0
 20 21  2  0  0  0  0
 21 13  1  0  0  0  0
 22 24  2  0  0  0  0
 24 23  1  0  0  0  0
 25 27  1  0  0  0  0
 27 26  1  0  0  0  0
 27 28  2  0  0  0  0
M  END
>  <MODEL>
7

>  <REMARK>
 VINA RESULT:      -8.1      2.411      5.641
  Name = 
  4 active torsions:
  status: ('A' for Active; 'I' for Inactive)
    1  A    between atoms: N_3  and  C_15
    2  A    between atoms: C_5  and  N_19
    3  A    between atoms: C_9  and  C_22
    4  A    between atoms: C_14  and  N_19
                            x       y       z     vdW  Elec       q    Type
                         _______ _______ _______ _____ _____    ______ ____

>  <TORSDO>
F 4

$$$$
=
 OpenBabel10232409073D

 28 31  0  0  1  0  0  0  0  0999 V2000
  186.9680  177.5730  143.4630 C   0  0  0  0  0  3  0  0  0  0  0  0
  191.0230  176.5320  144.1890 O   0  0  0  0  0  0  0  0  0  0  0  0
  191.3240  177.7030  142.0860 C   0  0  0  0  0  2  0  0  0  0  0  0
  188.0890  177.8360  142.7870 C   0  0  0  0  0  0  0  0  0  0  0  0
  187.7950  177.2890  145.8370 C   0  0  0  0  0  0  0  0  0  0  0  0
  190.4390  178.8240  142.6120 C   0  0  0  0  0  2  0  0  0  0  0  0
  186.8400  177.5730  144.9320 C   0  0  0  0  0  3  0  0  0  0  0  0
  191.9960  177.0320  143.2730 C   0  0  0  0  0  2  0  0  0  0  0  0
  189.0990  176.8100  145.4610 N   0  0  0  0  0  0  0  0  0  0  0  0
  189.8110  177.1870  144.4400 C   0  0  0  0  0  0  0  0  0  0  0  0
  189.3280  178.2780  143.5210 C   0  0  2  0  0  3  0  0  0  0  0  0
  189.0660  177.0340  140.6300 C   0  0  0  0  0  3  0  0  0  0  0  0
  185.8930  179.0110  140.8660 C   0  0  0  0  0  0  0  0  0  0  0  0
  186.9850  178.1760  139.1940 C   0  0  0  0  0  0  0  0  0  0  0  0
  185.2240  179.3010  139.7270 N   0  0  0  0  0  0  0  0  0  0  0  0
  187.9740  177.4930  138.4890 C   0  0  0  0  0  0  0  0  0  0  0  0
  189.0260  176.9170  139.2220 C   0  0  0  0  0  3  0  0  0  0  0  0
  185.8940  178.7890  138.6980 N   0  0  0  0  0  2  0  0  0  0  0  0
  187.9260  177.3800  137.1060 O   0  0  0  0  0  1  0  0  0  0  0  0
  188.0540  177.7300  141.3200 C   0  0  0  0  0  0  0  0  0  0  0  0
  187.0240  178.2910  140.5560 C   0  0  0  0  0  0  0  0  0  0  0  0
  185.4820  179.3950  142.1850 N   0  0  0  0  0  0  0  0  0  0  0  0
  183.9030  179.5310  144.0190 C   0  0  0  0  0  1  0  0  0  0  0  0
  184.1970  179.1670  142.7780 C   0  0  0  0  0  3  0  0  0  0  0  0
  187.4770  177.2880  147.2370 N   0  0  0  0  0  2  0  0  0  0  0  0
  187.7080  177.8160  149.6900 C   0  0  0  0  0  1  0  0  0  0  0  0
  188.2390  177.8720  148.3030 C   0  0  0  0  0  0  0  0  0  0  0  0
  189.3530  178.4180  148.0900 O   0  0  0  0  0  0  0  0  0  0  0  0
  1  7  1  0  0  0  0
  2 10  1  0  0  0  0
  3  6  1  0  0  0  0
  3  8  1  0  0  0  0
  4  1  2  0  0  0  0
  4 11  1  0  0  0  0
  5 25  1  0  0  0  0
  7  5  2  0  0  0  0
  8  2  1  0  0  0  0
  9  5  1  0  0  0  0
 10  9  2  0  0  0  0
 11  6  1  6  0  0  0
 11 10  1  0  0  0  0
 12 20  1  0  0  0  0
 13 22  1  0  0  0  0
 14 21  1  0  0  0  0
 15 13  2  0  0  0  0
 16 14  2  0  0  0  0
 16 17  1  0  0  0  0
 17 12  2  0  0  0  0
 18 14  1  0  0  0  0
 18 15  1  0  0  0  0
 19 16  1  0  0  0  0
 20  4  1  0  0  0  0
 21 13  1  0  0  0  0
 21 20  2  0  0  0  0
 22 24  2  0  0  0  0
 24 23  1  0  0  0  0
 25 27  1  0  0  0  0
 27 26  1  0  0  0  0
 28 27  2  0  0  0  0
M  END
>  <MODEL>
8

>  <REMARK>
 VINA RESULT:      -7.9      1.745      6.349
  Name = 
  4 active torsions:
  status: ('A' for Active; 'I' for Inactive)
    1  A    between atoms: N_3  and  C_15
    2  A    between atoms: C_5  and  N_19
    3  A    between atoms: C_9  and  C_22
    4  A    between atoms: C_14  and  N_19
                            x       y       z     vdW  Elec       q    Type
                         _______ _______ _______ _____ _____    ______ ____

>  <TORSDO>
F 4

$$$$
=
 OpenBabel10232409073D

 28 31  0  0  1  0  0  0  0  0999 V2000
  187.4840  177.1080  142.4680 C   0  0  0  0  0  3  0  0  0  0  0  0
  190.8300  177.2410  145.0820 O   0  0  0  0  0  0  0  0  0  0  0  0
  191.8490  178.2820  143.1430 C   0  0  0  0  0  2  0  0  0  0  0  0
  188.7130  177.6050  142.3150 C   0  0  0  0  0  0  0  0  0  0  0  0
  187.1300  177.2390  144.9710 C   0  0  0  0  0  0  0  0  0  0  0  0
  190.6170  179.1650  143.0020 C   0  0  0  0  0  2  0  0  0  0  0  0
  186.6800  177.1880  143.7030 C   0  0  0  0  0  3  0  0  0  0  0  0
  191.9990  177.9080  144.6080 C   0  0  0  0  0  2  0  0  0  0  0  0
  188.5230  177.0960  145.3040 N   0  0  0  0  0  0  0  0  0  0  0  0
  189.5410  177.5670  144.6470 C   0  0  0  0  0  0  0  0  0  0  0  0
  189.3430  178.4160  143.4180 C   0  0  2  0  0  3  0  0  0  0  0  0
  190.6470  176.7310  140.9930 C   0  0  0  0  0  3  0  0  0  0  0  0
  187.6690  178.4090  139.4600 C   0  0  0  0  0  0  0  0  0  0  0  0
  189.4700  177.5510  138.6190 C   0  0  0  0  0  0  0  0  0  0  0  0
  187.6220  178.5430  138.1150 N   0  0  0  0  0  0  0  0  0  0  0  0
  190.7060  176.9110  138.5540 C   0  0  0  0  0  0  0  0  0  0  0  0
  191.2970  176.4980  139.7610 C   0  0  0  0  0  3  0  0  0  0  0  0
  188.7280  178.0160  137.5960 N   0  0  0  0  0  2  0  0  0  0  0  0
  191.3380  176.6850  137.3390 O   0  0  0  0  0  1  0  0  0  0  0  0
  189.3970  177.3800  141.0320 C   0  0  0  0  0  0  0  0  0  0  0  0
  188.8410  177.7780  139.8110 C   0  0  0  0  0  0  0  0  0  0  0  0
  186.6550  178.8560  140.3690 N   0  0  0  0  0  2  0  0  0  0  0  0
  184.3680  178.7650  141.1670 C   0  0  0  0  0  2  0  0  0  0  0  0
  185.2380  178.7880  140.1660 C   0  0  0  0  0  3  0  0  0  0  0  0
  186.1960  177.2630  146.0600 N   0  0  0  0  0  2  0  0  0  0  0  0
  184.4810  178.1970  147.6530 C   0  0  0  0  0  1  0  0  0  0  0  0
  185.4490  178.3890  146.5420 C   0  0  0  0  0  0  0  0  0  0  0  0
  185.6070  179.5380  146.0530 O   0  0  0  0  0  0  0  0  0  0  0  0
  1  7  1  0  0  0  0
  3  8  1  0  0  0  0
  4  1  2  0  0  0  0
  4 11  1  0  0  0  0
  5  9  1  0  0  0  0
  5 25  1  0  0  0  0
  6  3  1  0  0  0  0
  7  5  2  0  0  0  0
  8  2  1  0  0  0  0
 10  2  1  0  0  0  0
 10  9  2  0  0  0  0
 11  6  1  6  0  0  0
 11 10  1  0  0  0  0
 12 20  1  0  0  0  0
 13 21  1  0  0  0  0
 13 22  1  0  0  0  0
 14 21  1  0  0  0  0
 15 13  2  0  0  0  0
 16 14  2  0  0  0  0
 16 17  1  0  0  0  0
 17 12  2  0  0  0  0
 18 15  1  0  0  0  0
 18 14  1  0  0  0  0
 19 16  1  0  0  0  0
 20  4  1  0  0  0  0
 21 20  2  0  0  0  0
 24 22  1  0  0  0  0
 24 23  2  0  0  0  0
 25 27  1  0  0  0  0
 27 26  1  0  0  0  0
 28 27  2  0  0  0  0
M  END
>  <MODEL>
9

>  <REMARK>
 VINA RESULT:      -7.7      2.126      6.438
  Name = 
  4 active torsions:
  status: ('A' for Active; 'I' for Inactive)
    1  A    between atoms: N_3  and  C_15
    2  A    between atoms: C_5  and  N_19
    3  A    between atoms: C_9  and  C_22
    4  A    between atoms: C_14  and  N_19
                            x       y       z     vdW  Elec       q    Type
                         _______ _______ _______ _____ _____    ______ ____

>  <TORSDO>
F 4

$$$$
