=
 OpenBabel10232411463D

 27 29  0  0  1  0  0  0  0  0999 V2000
  187.5290  177.7070  144.1310 C   0  0  1  0  0  3  0  0  0  0  0  0
  189.9760  177.3870  147.7260 C   0  0  0  0  0  2  0  0  0  0  0  0
  189.8560  177.4900  145.1130 C   0  0  1  0  0  3  0  0  0  0  0  0
  188.3840  177.8510  145.3960 C   0  0  2  0  0  3  0  0  0  0  0  0
  190.5040  178.5940  144.2920 C   0  0  0  0  0  1  0  0  0  0  0  0
  187.8260  177.0670  146.5620 C   0  0  0  0  0  3  0  0  0  0  0  0
  190.6420  177.2620  146.3850 C   0  0  0  0  0  0  0  0  0  0  0  0
  188.5730  176.8550  147.6510 C   0  0  0  0  0  3  0  0  0  0  0  0
  191.8250  176.9640  146.3280 O   0  0  0  0  0  0  0  0  0  0  0  0
  188.0250  176.6680  143.2300 N   0  0  0  0  0  2  0  0  0  0  0  0
  188.4020  177.2960  142.0330 N   0  0  0  0  0  2  0  0  0  0  0  0
  189.5820  176.9120  141.3210 C   0  0  0  0  0  0  0  0  0  0  0  0
  190.3560  176.0400  141.7980 O   0  0  0  0  0  0  0  0  0  0  0  0
  189.0260  178.7510  138.0420 C   0  0  0  0  0  2  0  0  0  0  0  0
  188.6600  178.0700  139.3430 C   0  0  2  0  0  3  0  0  0  0  0  0
  189.9210  177.5800  140.0290 C   0  0  2  0  0  3  0  0  0  0  0  0
  189.3300  176.8010  138.8690 C   0  0  2  0  0  3  0  0  0  0  0  0
  189.6950  177.4800  137.5650 C   0  0  0  0  0  2  0  0  0  0  0  0
  186.1540  177.5570  144.4130 O   0  0  0  0  0  0  0  0  0  0  0  0
  185.5980  178.7520  144.3110 O   0  0  0  0  0  0  0  0  0  0  0  0
  184.2210  178.5050  144.2930 C   0  0  1  0  0  3  0  0  0  0  0  0
  183.6110  179.1370  145.3750 O   0  0  0  0  0  1  0  0  0  0  0  0
  183.6090  178.9710  142.9740 C   0  0  0  0  0  2  0  0  0  0  0  0
  184.1900  178.2470  141.7630 C   0  0  0  0  0  2  0  0  0  0  0  0
  184.4480  179.6160  139.6560 N   0  0  0  0  0  1  0  0  0  0  0  0
  186.1020  179.5850  141.2860 O   0  0  0  0  0  0  0  0  0  0  0  0
  184.9750  179.1790  140.9050 C   0  0  0  0  0  0  0  0  0  0  0  0
  1 10  1  1  0  0  0
  1 19  1  0  0  0  0
  3  5  1  1  0  0  0
  3  4  1  0  0  0  0
  3  7  1  0  0  0  0
  4  1  1  6  0  0  0
  4  6  1  0  0  0  0
  6  8  2  0  0  0  0
  7  2  1  0  0  0  0
  8  2  1  0  0  0  0
  9  7  2  0  0  0  0
 11 10  1  0  0  0  0
 12 13  2  0  0  0  0
 12 11  1  0  0  0  0
 15 14  1  6  0  0  0
 15 16  1  0  0  0  0
 16 12  1  1  0  0  0
 17 18  1  6  0  0  0
 17 15  1  0  0  0  0
 17 16  1  0  0  0  0
 18 14  1  0  0  0  0
 20 19  1  0  0  0  0
 21 20  1  0  0  0  0
 21 22  1  1  0  0  0
 23 21  1  0  0  0  0
 24 23  1  0  0  0  0
 25 27  1  0  0  0  0
 27 26  2  0  0  0  0
 27 24  1  0  0  0  0
M  END
>  <MODEL>
1

>  <REMARK>
 VINA RESULT:      -8.0      0.000      0.000
  Name = 
  10 active torsions:
  status: ('A' for Active; 'I' for Inactive)
    1  A    between atoms: C_2  and  O_11
    2  A    between atoms: C_2  and  C_14
    3  A    between atoms: C_4  and  C_14
    4  A    between atoms: C_4  and  C_18
    5  A    between atoms: C_5  and  C_23
    6  A    between atoms: O_11  and  O_24
    7  A    between atoms: N_17  and  N_21
    8  A    between atoms: C_19  and  C_25
    9  A    between atoms: N_21  and  C_23
   10  A    between atoms: C_23  and  O_24
                            x       y       z     vdW  Elec       q    Type
                         _______ _______ _______ _____ _____    ______ ____

>  <TORSDO>
F 10

$$$$
=
 OpenBabel10232411463D

 27 29  0  0  1  0  0  0  0  0999 V2000
  188.4940  177.7660  142.9910 C   0  0  1  0  0  3  0  0  0  0  0  0
  188.8010  177.6300  147.3380 C   0  0  0  0  0  2  0  0  0  0  0  0
  189.9590  177.3180  145.0110 C   0  0  1  0  0  3  0  0  0  0  0  0
  188.6570  177.9690  144.5030 C   0  0  2  0  0  3  0  0  0  0  0  0
  191.1530  178.1420  144.5570 C   0  0  0  0  0  1  0  0  0  0  0  0
  187.4500  177.4970  145.2800 C   0  0  0  0  0  3  0  0  0  0  0  0
  189.9730  177.1710  146.5170 C   0  0  0  0  0  0  0  0  0  0  0  0
  187.5210  177.3430  146.6070 C   0  0  0  0  0  3  0  0  0  0  0  0
  190.9370  176.6690  147.0740 O   0  0  0  0  0  0  0  0  0  0  0  0
  189.2290  176.6020  142.4950 N   0  0  0  0  0  2  0  0  0  0  0  0
  189.4660  176.8080  141.1280 N   0  0  0  0  0  2  0  0  0  0  0  0
  190.7680  177.1300  140.6300 C   0  0  0  0  0  0  0  0  0  0  0  0
  191.7260  177.3100  141.4290 O   0  0  0  0  0  0  0  0  0  0  0  0
  190.1030  176.8060  136.9030 C   0  0  0  0  0  2  0  0  0  0  0  0
  189.8710  176.6160  138.3860 C   0  0  2  0  0  3  0  0  0  0  0  0
  190.9830  177.2990  139.1620 C   0  0  2  0  0  3  0  0  0  0  0  0
  191.2230  175.9480  138.5120 C   0  0  2  0  0  3  0  0  0  0  0  0
  191.4540  176.1360  137.0270 C   0  0  0  0  0  2  0  0  0  0  0  0
  187.1440  177.7600  142.5810 O   0  0  0  0  0  0  0  0  0  0  0  0
  187.0550  178.5190  141.5040 O   0  0  0  0  0  0  0  0  0  0  0  0
  185.9130  179.3010  141.7100 C   0  0  1  0  0  3  0  0  0  0  0  0
  185.2250  179.4650  140.5090 O   0  0  0  0  0  1  0  0  0  0  0  0
  185.0140  178.6680  142.7700 C   0  0  0  0  0  2  0  0  0  0  0  0
  184.6450  179.6380  143.8890 C   0  0  0  0  0  2  0  0  0  0  0  0
  184.1610  178.7840  146.2160 N   0  0  0  0  0  1  0  0  0  0  0  0
  182.5740  178.6450  144.5250 O   0  0  0  0  0  0  0  0  0  0  0  0
  183.7300  178.9960  144.8760 C   0  0  0  0  0  0  0  0  0  0  0  0
  1 10  1  1  0  0  0
  3  5  1  1  0  0  0
  3  7  1  0  0  0  0
  4  1  1  6  0  0  0
  4  3  1  0  0  0  0
  4  6  1  0  0  0  0
  6  8  2  0  0  0  0
  7  9  2  0  0  0  0
  7  2  1  0  0  0  0
  8  2  1  0  0  0  0
 11 10  1  0  0  0  0
 12 11  1  0  0  0  0
 12 13  2  0  0  0  0
 14 18  1  0  0  0  0
 15 14  1  6  0  0  0
 15 17  1  0  0  0  0
 15 16  1  0  0  0  0
 16 12  1  1  0  0  0
 17 18  1  6  0  0  0
 17 16  1  0  0  0  0
 19  1  1  0  0  0  0
 20 21  1  0  0  0  0
 20 19  1  0  0  0  0
 21 22  1  6  0  0  0
 21 23  1  0  0  0  0
 23 24  1  0  0  0  0
 24 27  1  0  0  0  0
 26 27  2  0  0  0  0
 27 25  1  0  0  0  0
M  END
>  <MODEL>
2

>  <REMARK>
 VINA RESULT:      -7.8      1.772      2.643
  Name = 
  10 active torsions:
  status: ('A' for Active; 'I' for Inactive)
    1  A    between atoms: C_2  and  O_11
    2  A    between atoms: C_2  and  C_14
    3  A    between atoms: C_4  and  C_14
    4  A    between atoms: C_4  and  C_18
    5  A    between atoms: C_5  and  C_23
    6  A    between atoms: O_11  and  O_24
    7  A    between atoms: N_17  and  N_21
    8  A    between atoms: C_19  and  C_25
    9  A    between atoms: N_21  and  C_23
   10  A    between atoms: C_23  and  O_24
                            x       y       z     vdW  Elec       q    Type
                         _______ _______ _______ _____ _____    ______ ____

>  <TORSDO>
F 10

$$$$
=
 OpenBabel10232411463D

 27 29  0  0  1  0  0  0  0  0999 V2000
  187.6890  177.4470  143.0770 C   0  0  1  0  0  3  0  0  0  0  0  0
  184.6360  178.5790  145.9770 C   0  0  0  0  0  2  0  0  0  0  0  0
  185.4770  178.6100  143.4970 C   0  0  1  0  0  3  0  0  0  0  0  0
  186.5150  177.6130  144.0500 C   0  0  2  0  0  3  0  0  0  0  0  0
  184.7120  177.9670  142.3510 C   0  0  0  0  0  1  0  0  0  0  0  0
  186.9690  177.9870  145.4420 C   0  0  0  0  0  3  0  0  0  0  0  0
  184.5110  179.0780  144.5640 C   0  0  0  0  0  0  0  0  0  0  0  0
  186.0860  178.4350  146.3420 C   0  0  0  0  0  3  0  0  0  0  0  0
  183.6290  179.8740  144.2850 O   0  0  0  0  0  0  0  0  0  0  0  0
  187.7650  178.5260  142.0930 N   0  0  0  0  0  2  0  0  0  0  0  0
  188.2370  177.9690  140.8950 N   0  0  0  0  0  2  0  0  0  0  0  0
  187.5400  178.1420  139.6580 C   0  0  0  0  0  0  0  0  0  0  0  0
  186.4340  178.7460  139.6320 O   0  0  0  0  0  0  0  0  0  0  0  0
  190.1680  177.0370  137.1450 C   0  0  0  0  0  2  0  0  0  0  0  0
  189.6180  177.6330  138.4230 C   0  0  2  0  0  3  0  0  0  0  0  0
  188.1020  177.5670  138.4000 C   0  0  2  0  0  3  0  0  0  0  0  0
  188.8320  178.6420  137.6160 C   0  0  2  0  0  3  0  0  0  0  0  0
  189.3830  178.0480  136.3360 C   0  0  0  0  0  2  0  0  0  0  0  0
  188.9200  177.2360  143.7340 O   0  0  0  0  0  0  0  0  0  0  0  0
  189.4130  176.0930  143.2930 O   0  0  0  0  0  0  0  0  0  0  0  0
  190.8010  176.2470  143.3720 C   0  0  1  0  0  3  0  0  0  0  0  0
  191.2820  176.8340  142.2020 O   0  0  0  0  0  1  0  0  0  0  0  0
  191.1790  177.0810  144.5940 C   0  0  0  0  0  2  0  0  0  0  0  0
  191.7800  176.2430  145.7200 C   0  0  0  0  0  2  0  0  0  0  0  0
  189.8450  176.7790  147.2520 N   0  0  0  0  0  1  0  0  0  0  0  0
  192.0430  176.9230  147.9880 O   0  0  0  0  0  0  0  0  0  0  0  0
  191.2490  176.6670  147.0470 C   0  0  0  0  0  0  0  0  0  0  0  0
  1 10  1  1  0  0  0
  1 19  1  0  0  0  0
  2  8  1  0  0  0  0
  3  5  1  6  0  0  0
  3  4  1  0  0  0  0
  3  7  1  0  0  0  0
  4  1  1  6  0  0  0
  4  6  1  0  0  0  0
  6  8  2  0  0  0  0
  7  2  1  0  0  0  0
  9  7  2  0  0  0  0
 11 10  1  0  0  0  0
 12 11  1  0  0  0  0
 13 12  2  0  0  0  0
 15 14  1  6  0  0  0
 16 15  1  0  0  0  0
 16 12  1  1  0  0  0
 17 18  1  6  0  0  0
 17 16  1  0  0  0  0
 17 15  1  0  0  0  0
 18 14  1  0  0  0  0
 20 21  1  0  0  0  0
 20 19  1  0  0  0  0
 21 22  1  6  0  0  0
 21 23  1  0  0  0  0
 23 24  1  0  0  0  0
 24 27  1  0  0  0  0
 27 25  1  0  0  0  0
 27 26  2  0  0  0  0
M  END
>  <MODEL>
3

>  <REMARK>
 VINA RESULT:      -7.7      1.820      5.646
  Name = 
  10 active torsions:
  status: ('A' for Active; 'I' for Inactive)
    1  A    between atoms: C_2  and  O_11
    2  A    between atoms: C_2  and  C_14
    3  A    between atoms: C_4  and  C_14
    4  A    between atoms: C_4  and  C_18
    5  A    between atoms: C_5  and  C_23
    6  A    between atoms: O_11  and  O_24
    7  A    between atoms: N_17  and  N_21
    8  A    between atoms: C_19  and  C_25
    9  A    between atoms: N_21  and  C_23
   10  A    between atoms: C_23  and  O_24
                            x       y       z     vdW  Elec       q    Type
                         _______ _______ _______ _____ _____    ______ ____

>  <TORSDO>
F 10

$$$$
=
 OpenBabel10232411463D

 27 29  0  0  1  0  0  0  0  0999 V2000
  187.5080  177.7530  144.0570 C   0  0  1  0  0  3  0  0  0  0  0  0
  189.7660  177.4440  147.7750 C   0  0  0  0  0  2  0  0  0  0  0  0
  189.7790  177.5130  145.1580 C   0  0  1  0  0  3  0  0  0  0  0  0
  188.3010  177.9010  145.3620 C   0  0  2  0  0  3  0  0  0  0  0  0
  190.4850  178.5960  144.3570 C   0  0  0  0  0  1  0  0  0  0  0  0
  187.6720  177.1420  146.5080 C   0  0  0  0  0  3  0  0  0  0  0  0
  190.4970  177.2900  146.4710 C   0  0  0  0  0  0  0  0  0  0  0  0
  188.3600  176.9330  147.6360 C   0  0  0  0  0  3  0  0  0  0  0  0
  191.6760  176.9730  146.4780 O   0  0  0  0  0  0  0  0  0  0  0  0
  188.0440  176.7070  143.1870 N   0  0  0  0  0  2  0  0  0  0  0  0
  188.4090  177.3150  141.9770 N   0  0  0  0  0  2  0  0  0  0  0  0
  189.5820  176.9180  141.2590 C   0  0  0  0  0  0  0  0  0  0  0  0
  190.3610  176.0540  141.7440 O   0  0  0  0  0  0  0  0  0  0  0  0
  189.0120  178.8110  138.0140 C   0  0  0  0  0  2  0  0  0  0  0  0
  188.6580  178.1550  139.3310 C   0  0  2  0  0  3  0  0  0  0  0  0
  189.9090  177.5640  139.9530 C   0  0  2  0  0  3  0  0  0  0  0  0
  189.2040  176.8390  138.8220 C   0  0  2  0  0  3  0  0  0  0  0  0
  189.5570  177.4940  137.5040 C   0  0  0  0  0  2  0  0  0  0  0  0
  186.1210  177.6110  144.2720 O   0  0  0  0  0  0  0  0  0  0  0  0
  185.6010  178.8250  144.3110 O   0  0  0  0  0  0  0  0  0  0  0  0
  184.2960  178.6410  144.7780 C   0  0  1  0  0  3  0  0  0  0  0  0
  184.2490  178.8580  146.1550 O   0  0  0  0  0  1  0  0  0  0  0  0
  183.3280  179.5700  144.0480 C   0  0  0  0  0  2  0  0  0  0  0  0
  182.4050  178.8260  143.0870 C   0  0  0  0  0  2  0  0  0  0  0  0
  180.3550  180.2810  142.8330 N   0  0  0  0  0  1  0  0  0  0  0  0
  180.3090  178.3430  144.1120 O   0  0  0  0  0  0  0  0  0  0  0  0
  180.9730  179.1210  143.3820 C   0  0  0  0  0  0  0  0  0  0  0  0
  1 10  1  1  0  0  0
  1 19  1  0  0  0  0
  3  5  1  1  0  0  0
  3  4  1  0  0  0  0
  3  7  1  0  0  0  0
  4  1  1  6  0  0  0
  4  6  1  0  0  0  0
  6  8  2  0  0  0  0
  7  9  2  0  0  0  0
  7  2  1  0  0  0  0
  8  2  1  0  0  0  0
 11 10  1  0  0  0  0
 12 13  2  0  0  0  0
 12 11  1  0  0  0  0
 15 14  1  6  0  0  0
 15 16  1  0  0  0  0
 16 12  1  1  0  0  0
 17 18  1  6  0  0  0
 17 15  1  0  0  0  0
 17 16  1  0  0  0  0
 18 14  1  0  0  0  0
 19 20  1  0  0  0  0
 20 21  1  0  0  0  0
 21 22  1  1  0  0  0
 23 21  1  0  0  0  0
 24 27  1  0  0  0  0
 24 23  1  0  0  0  0
 25 27  1  0  0  0  0
 27 26  2  0  0  0  0
M  END
>  <MODEL>
4

>  <REMARK>
 VINA RESULT:      -7.6      1.444      1.935
  Name = 
  10 active torsions:
  status: ('A' for Active; 'I' for Inactive)
    1  A    between atoms: C_2  and  O_11
    2  A    between atoms: C_2  and  C_14
    3  A    between atoms: C_4  and  C_14
    4  A    between atoms: C_4  and  C_18
    5  A    between atoms: C_5  and  C_23
    6  A    between atoms: O_11  and  O_24
    7  A    between atoms: N_17  and  N_21
    8  A    between atoms: C_19  and  C_25
    9  A    between atoms: N_21  and  C_23
   10  A    between atoms: C_23  and  O_24
                            x       y       z     vdW  Elec       q    Type
                         _______ _______ _______ _____ _____    ______ ____

>  <TORSDO>
F 10

$$$$
=
 OpenBabel10232411463D

 27 29  0  0  1  0  0  0  0  0999 V2000
  186.7040  177.4220  143.5420 C   0  0  1  0  0  3  0  0  0  0  0  0
  187.3080  178.1300  147.8020 C   0  0  0  0  0  2  0  0  0  0  0  0
  185.9660  178.6720  145.6200 C   0  0  1  0  0  3  0  0  0  0  0  0
  186.7610  177.4690  145.0750 C   0  0  2  0  0  3  0  0  0  0  0  0
  184.4760  178.4100  145.4720 C   0  0  0  0  0  1  0  0  0  0  0  0
  188.1790  177.4450  145.6000 C   0  0  0  0  0  3  0  0  0  0  0  0
  186.2980  178.9660  147.0670 C   0  0  0  0  0  0  0  0  0  0  0  0
  188.4300  177.7520  146.8770 C   0  0  0  0  0  3  0  0  0  0  0  0
  185.7530  179.8940  147.6440 O   0  0  0  0  0  0  0  0  0  0  0  0
  186.6330  178.7520  142.9390 N   0  0  0  0  0  2  0  0  0  0  0  0
  185.3740  178.8690  142.3300 N   0  0  0  0  0  2  0  0  0  0  0  0
  185.2210  178.8510  140.9080 C   0  0  0  0  0  0  0  0  0  0  0  0
  186.2360  178.8020  140.1610 O   0  0  0  0  0  0  0  0  0  0  0  0
  181.4330  178.6370  140.6960 C   0  0  0  0  0  2  0  0  0  0  0  0
  182.8070  178.5360  141.3230 C   0  0  2  0  0  3  0  0  0  0  0  0
  183.8580  178.9360  140.3050 C   0  0  2  0  0  3  0  0  0  0  0  0
  183.2260  177.5580  140.2480 C   0  0  2  0  0  3  0  0  0  0  0  0
  181.8520  177.6570  139.6210 C   0  0  0  0  0  2  0  0  0  0  0  0
  187.7310  176.6340  142.9800 O   0  0  0  0  0  0  0  0  0  0  0  0
  188.4550  177.4230  142.2060 O   0  0  0  0  0  0  0  0  0  0  0  0
  189.5620  176.6500  141.8410 C   0  0  1  0  0  3  0  0  0  0  0  0
  190.5570  177.4660  141.3040 O   0  0  0  0  0  1  0  0  0  0  0  0
  190.0890  175.8680  143.0420 C   0  0  0  0  0  2  0  0  0  0  0  0
  191.5220  176.2440  143.4100 C   0  0  0  0  0  2  0  0  0  0  0  0
  191.7440  176.5750  145.9040 N   0  0  0  0  0  1  0  0  0  0  0  0
  191.4180  178.3740  144.4720 O   0  0  0  0  0  0  0  0  0  0  0  0
  191.5550  177.1310  144.6070 C   0  0  0  0  0  0  0  0  0  0  0  0
  1 10  1  6  0  0  0
  3  5  1  1  0  0  0
  3  7  1  0  0  0  0
  4  1  1  6  0  0  0
  4  6  1  0  0  0  0
  4  3  1  0  0  0  0
  6  8  2  0  0  0  0
  7  9  2  0  0  0  0
  7  2  1  0  0  0  0
  8  2  1  0  0  0  0
 11 10  1  0  0  0  0
 12 11  1  0  0  0  0
 13 12  2  0  0  0  0
 15 14  1  6  0  0  0
 16 12  1  1  0  0  0
 16 15  1  0  0  0  0
 17 18  1  6  0  0  0
 17 16  1  0  0  0  0
 17 15  1  0  0  0  0
 18 14  1  0  0  0  0
 19  1  1  0  0  0  0
 20 19  1  0  0  0  0
 21 22  1  1  0  0  0
 21 20  1  0  0  0  0
 21 23  1  0  0  0  0
 23 24  1  0  0  0  0
 24 27  1  0  0  0  0
 26 27  2  0  0  0  0
 27 25  1  0  0  0  0
M  END
>  <MODEL>
5

>  <REMARK>
 VINA RESULT:      -7.5      2.300      5.754
  Name = 
  10 active torsions:
  status: ('A' for Active; 'I' for Inactive)
    1  A    between atoms: C_2  and  O_11
    2  A    between atoms: C_2  and  C_14
    3  A    between atoms: C_4  and  C_14
    4  A    between atoms: C_4  and  C_18
    5  A    between atoms: C_5  and  C_23
    6  A    between atoms: O_11  and  O_24
    7  A    between atoms: N_17  and  N_21
    8  A    between atoms: C_19  and  C_25
    9  A    between atoms: N_21  and  C_23
   10  A    between atoms: C_23  and  O_24
                            x       y       z     vdW  Elec       q    Type
                         _______ _______ _______ _____ _____    ______ ____

>  <TORSDO>
F 10

$$$$
=
 OpenBabel10232411463D

 27 29  0  0  1  0  0  0  0  0999 V2000
  188.6120  177.1180  141.7790 C   0  0  1  0  0  3  0  0  0  0  0  0
  192.4670  177.5860  139.7940 C   0  0  0  0  0  2  0  0  0  0  0  0
  189.9600  176.8450  139.6490 C   0  0  1  0  0  3  0  0  0  0  0  0
  189.8900  177.5230  141.0320 C   0  0  2  0  0  3  0  0  0  0  0  0
  188.9530  177.4920  138.7120 C   0  0  0  0  0  1  0  0  0  0  0  0
  191.1380  177.2710  141.8470 C   0  0  0  0  0  3  0  0  0  0  0  0
  191.3470  176.9170  139.0480 C   0  0  0  0  0  0  0  0  0  0  0  0
  192.3420  177.3050  141.2650 C   0  0  0  0  0  3  0  0  0  0  0  0
  191.5660  176.4210  137.9540 O   0  0  0  0  0  0  0  0  0  0  0  0
  188.8760  176.2250  142.9060 N   0  0  0  0  0  2  0  0  0  0  0  0
  188.4390  176.8760  144.0690 N   0  0  0  0  0  2  0  0  0  0  0  0
  189.3380  177.2010  145.1330 C   0  0  0  0  0  0  0  0  0  0  0  0
  190.5440  176.8380  145.0780 O   0  0  0  0  0  0  0  0  0  0  0  0
  189.1970  178.3960  148.7380 C   0  0  0  0  0  2  0  0  0  0  0  0
  189.7170  177.6390  147.5340 C   0  0  2  0  0  3  0  0  0  0  0  0
  188.8370  177.9330  146.3340 C   0  0  2  0  0  3  0  0  0  0  0  0
  188.3800  176.9460  147.3920 C   0  0  2  0  0  3  0  0  0  0  0  0
  187.8600  177.7010  148.5970 C   0  0  0  0  0  2  0  0  0  0  0  0
  187.8200  178.2260  142.1490 O   0  0  0  0  0  0  0  0  0  0  0  0
  186.5790  177.9660  141.7770 O   0  0  0  0  0  0  0  0  0  0  0  0
  185.9070  179.1860  141.8990 C   0  0  1  0  0  3  0  0  0  0  0  0
  185.3290  179.5340  140.6780 O   0  0  0  0  0  1  0  0  0  0  0  0
  184.8500  179.1100  142.9980 C   0  0  0  0  0  2  0  0  0  0  0  0
  185.4110  178.6060  144.3250 C   0  0  0  0  0  2  0  0  0  0  0  0
  184.8550  178.7130  146.7870 N   0  0  0  0  0  1  0  0  0  0  0  0
  183.2230  179.0360  145.1650 O   0  0  0  0  0  0  0  0  0  0  0  0
  184.4290  178.7960  145.4310 C   0  0  0  0  0  0  0  0  0  0  0  0
  1 19  1  1  0  0  0
  1 10  1  0  0  0  0
  2  8  1  0  0  0  0
  3  5  1  6  0  0  0
  3  4  1  0  0  0  0
  4  1  1  1  0  0  0
  4  6  1  0  0  0  0
  7  3  1  0  0  0  0
  7  2  1  0  0  0  0
  8  6  2  0  0  0  0
  9  7  2  0  0  0  0
 10 11  1  0  0  0  0
 11 12  1  0  0  0  0
 13 12  2  0  0  0  0
 15 14  1  1  0  0  0
 16 12  1  6  0  0  0
 16 17  1  0  0  0  0
 16 15  1  0  0  0  0
 17 15  1  0  0  0  0
 17 18  1  1  0  0  0
 18 14  1  0  0  0  0
 20 21  1  0  0  0  0
 20 19  1  0  0  0  0
 21 22  1  6  0  0  0
 21 23  1  0  0  0  0
 23 24  1  0  0  0  0
 24 27  1  0  0  0  0
 26 27  2  0  0  0  0
 27 25  1  0  0  0  0
M  END
>  <MODEL>
6

>  <REMARK>
 VINA RESULT:      -7.5      1.943      6.046
  Name = 
  10 active torsions:
  status: ('A' for Active; 'I' for Inactive)
    1  A    between atoms: C_2  and  O_11
    2  A    between atoms: C_2  and  C_14
    3  A    between atoms: C_4  and  C_14
    4  A    between atoms: C_4  and  C_18
    5  A    between atoms: C_5  and  C_23
    6  A    between atoms: O_11  and  O_24
    7  A    between atoms: N_17  and  N_21
    8  A    between atoms: C_19  and  C_25
    9  A    between atoms: N_21  and  C_23
   10  A    between atoms: C_23  and  O_24
                            x       y       z     vdW  Elec       q    Type
                         _______ _______ _______ _____ _____    ______ ____

>  <TORSDO>
F 10

$$$$
=
 OpenBabel10232411463D

 27 29  0  0  1  0  0  0  0  0999 V2000
  188.9220  178.0500  140.4540 C   0  0  1  0  0  3  0  0  0  0  0  0
  190.1230  175.3770  137.2250 C   0  0  0  0  0  2  0  0  0  0  0  0
  190.7790  177.2640  138.9180 C   0  0  1  0  0  3  0  0  0  0  0  0
  189.3910  176.9400  139.5050 C   0  0  2  0  0  3  0  0  0  0  0  0
  191.8410  177.0870  139.9900 C   0  0  0  0  0  1  0  0  0  0  0  0
  188.3770  176.6400  138.4240 C   0  0  0  0  0  3  0  0  0  0  0  0
  191.1060  176.4010  137.7180 C   0  0  0  0  0  0  0  0  0  0  0  0
  188.7230  175.9060  137.3610 C   0  0  0  0  0  3  0  0  0  0  0  0
  192.1710  176.5390  137.1380 O   0  0  0  0  0  0  0  0  0  0  0  0
  187.5350  178.4480  140.2160 N   0  0  0  0  0  2  0  0  0  0  0  0
  186.9670  178.7520  141.4630 N   0  0  0  0  0  2  0  0  0  0  0  0
  185.6390  179.2710  141.5780 C   0  0  0  0  0  0  0  0  0  0  0  0
  184.9690  179.5370  140.5430 O   0  0  0  0  0  0  0  0  0  0  0  0
  184.8570  178.7340  145.2580 C   0  0  0  0  0  2  0  0  0  0  0  0
  185.4460  178.4380  143.8950 C   0  0  2  0  0  3  0  0  0  0  0  0
  185.0590  179.5410  142.9270 C   0  0  2  0  0  3  0  0  0  0  0  0
  184.0590  178.4590  143.2910 C   0  0  2  0  0  3  0  0  0  0  0  0
  183.4690  178.7540  144.6540 C   0  0  0  0  0  2  0  0  0  0  0  0
  189.1680  177.7510  141.8110 O   0  0  0  0  0  0  0  0  0  0  0  0
  189.2650  176.4380  141.9150 O   0  0  0  0  0  0  0  0  0  0  0  0
  189.5260  176.2040  143.2690 C   0  0  1  0  0  3  0  0  0  0  0  0
  190.8040  175.6680  143.4210 O   0  0  0  0  0  1  0  0  0  0  0  0
  189.3770  177.4920  144.0740 C   0  0  0  0  0  2  0  0  0  0  0  0
  188.6010  177.2920  145.3730 C   0  0  0  0  0  2  0  0  0  0  0  0
  189.0360  177.9540  147.7720 N   0  0  0  0  0  1  0  0  0  0  0  0
  190.6790  176.9370  146.4830 O   0  0  0  0  0  0  0  0  0  0  0  0
  189.5040  177.3780  146.5570 C   0  0  0  0  0  0  0  0  0  0  0  0
  1 10  1  1  0  0  0
  1 19  1  0  0  0  0
  2  8  1  0  0  0  0
  2  7  1  0  0  0  0
  3  4  1  0  0  0  0
  3  5  1  1  0  0  0
  4  1  1  6  0  0  0
  6  4  1  0  0  0  0
  7  3  1  0  0  0  0
  8  6  2  0  0  0  0
  9  7  2  0  0  0  0
 10 11  1  0  0  0  0
 11 12  1  0  0  0  0
 13 12  2  0  0  0  0
 15 14  1  1  0  0  0
 16 12  1  6  0  0  0
 16 17  1  0  0  0  0
 16 15  1  0  0  0  0
 17 15  1  0  0  0  0
 17 18  1  1  0  0  0
 18 14  1  0  0  0  0
 19 20  1  0  0  0  0
 20 21  1  0  0  0  0
 21 22  1  6  0  0  0
 21 23  1  0  0  0  0
 23 24  1  0  0  0  0
 24 27  1  0  0  0  0
 26 27  2  0  0  0  0
 27 25  1  0  0  0  0
M  END
>  <MODEL>
7

>  <REMARK>
 VINA RESULT:      -7.3      2.079      7.029
  Name = 
  10 active torsions:
  status: ('A' for Active; 'I' for Inactive)
    1  A    between atoms: C_2  and  O_11
    2  A    between atoms: C_2  and  C_14
    3  A    between atoms: C_4  and  C_14
    4  A    between atoms: C_4  and  C_18
    5  A    between atoms: C_5  and  C_23
    6  A    between atoms: O_11  and  O_24
    7  A    between atoms: N_17  and  N_21
    8  A    between atoms: C_19  and  C_25
    9  A    between atoms: N_21  and  C_23
   10  A    between atoms: C_23  and  O_24
                            x       y       z     vdW  Elec       q    Type
                         _______ _______ _______ _____ _____    ______ ____

>  <TORSDO>
F 10

$$$$
=
 OpenBabel10232411463D

 27 29  0  0  1  0  0  0  0  0999 V2000
  188.9640  177.3270  142.0020 C   0  0  1  0  0  3  0  0  0  0  0  0
  189.3590  177.6100  146.3360 C   0  0  0  0  0  2  0  0  0  0  0  0
  190.5240  177.4690  143.9950 C   0  0  1  0  0  3  0  0  0  0  0  0
  189.0830  177.6800  143.4910 C   0  0  2  0  0  3  0  0  0  0  0  0
  191.4230  178.5640  143.4460 C   0  0  0  0  0  1  0  0  0  0  0  0
  188.0740  176.9420  144.3400 C   0  0  0  0  0  3  0  0  0  0  0  0
  190.6010  177.4460  145.5070 C   0  0  0  0  0  0  0  0  0  0  0  0
  188.2050  176.9140  145.6710 C   0  0  0  0  0  3  0  0  0  0  0  0
  191.6770  177.2830  146.0620 O   0  0  0  0  0  0  0  0  0  0  0  0
  187.9240  178.0970  141.3210 N   0  0  0  0  0  2  0  0  0  0  0  0
  186.9740  178.4640  142.2850 N   0  0  0  0  0  2  0  0  0  0  0  0
  185.7760  179.1630  141.9340 C   0  0  0  0  0  0  0  0  0  0  0  0
  185.5830  179.5330  140.7440 O   0  0  0  0  0  0  0  0  0  0  0  0
  183.7700  178.8020  145.1400 C   0  0  0  0  0  2  0  0  0  0  0  0
  184.7870  178.4420  144.0790 C   0  0  2  0  0  3  0  0  0  0  0  0
  184.7720  179.4960  142.9880 C   0  0  2  0  0  3  0  0  0  0  0  0
  183.6930  178.4300  143.0340 C   0  0  2  0  0  3  0  0  0  0  0  0
  182.6740  178.7880  144.0960 C   0  0  0  0  0  2  0  0  0  0  0  0
  190.2010  177.3830  141.3260 O   0  0  0  0  0  0  0  0  0  0  0  0
  190.2710  176.3210  140.5420 O   0  0  0  0  0  0  0  0  0  0  0  0
  190.5870  176.8290  139.2780 C   0  0  1  0  0  3  0  0  0  0  0  0
  191.7820  176.2690  138.8270 O   0  0  0  0  0  1  0  0  0  0  0  0
  189.4540  176.5580  138.2920 C   0  0  0  0  0  2  0  0  0  0  0  0
  189.4620  177.5160  137.1030 C   0  0  0  0  0  2  0  0  0  0  0  0
  187.4330  178.9480  136.6410 N   0  0  0  0  0  1  0  0  0  0  0  0
  188.9830  179.5390  138.2670 O   0  0  0  0  0  0  0  0  0  0  0  0
  188.6300  178.7220  137.3790 C   0  0  0  0  0  0  0  0  0  0  0  0
  1 10  1  6  0  0  0
  3  5  1  1  0  0  0
  3  7  1  0  0  0  0
  4  1  1  6  0  0  0
  4  3  1  0  0  0  0
  4  6  1  0  0  0  0
  6  8  2  0  0  0  0
  7  9  2  0  0  0  0
  7  2  1  0  0  0  0
  8  2  1  0  0  0  0
 10 11  1  0  0  0  0
 12 11  1  0  0  0  0
 13 12  2  0  0  0  0
 15 14  1  1  0  0  0
 16 12  1  6  0  0  0
 16 17  1  0  0  0  0
 16 15  1  0  0  0  0
 17 15  1  0  0  0  0
 17 18  1  1  0  0  0
 18 14  1  0  0  0  0
 19  1  1  0  0  0  0
 20 19  1  0  0  0  0
 21 22  1  6  0  0  0
 21 20  1  0  0  0  0
 23 21  1  0  0  0  0
 24 27  1  0  0  0  0
 24 23  1  0  0  0  0
 25 27  1  0  0  0  0
 27 26  2  0  0  0  0
M  END
>  <MODEL>
8

>  <REMARK>
 VINA RESULT:      -7.2      1.957      5.510
  Name = 
  10 active torsions:
  status: ('A' for Active; 'I' for Inactive)
    1  A    between atoms: C_2  and  O_11
    2  A    between atoms: C_2  and  C_14
    3  A    between atoms: C_4  and  C_14
    4  A    between atoms: C_4  and  C_18
    5  A    between atoms: C_5  and  C_23
    6  A    between atoms: O_11  and  O_24
    7  A    between atoms: N_17  and  N_21
    8  A    between atoms: C_19  and  C_25
    9  A    between atoms: N_21  and  C_23
   10  A    between atoms: C_23  and  O_24
                            x       y       z     vdW  Elec       q    Type
                         _______ _______ _______ _____ _____    ______ ____

>  <TORSDO>
F 10

$$$$
=
 OpenBabel10232411463D

 27 29  0  0  1  0  0  0  0  0999 V2000
  186.3910  178.1050  142.1260 C   0  0  1  0  0  3  0  0  0  0  0  0
  183.0000  178.7810  144.7830 C   0  0  0  0  0  2  0  0  0  0  0  0
  183.9560  178.7740  142.3450 C   0  0  1  0  0  3  0  0  0  0  0  0
  185.1540  178.0910  143.0340 C   0  0  2  0  0  3  0  0  0  0  0  0
  183.4190  177.8740  141.2430 C   0  0  0  0  0  1  0  0  0  0  0  0
  185.4330  178.6820  144.3970 C   0  0  0  0  0  3  0  0  0  0  0  0
  182.8500  179.1080  143.3230 C   0  0  0  0  0  0  0  0  0  0  0  0
  184.4220  179.0010  145.2130 C   0  0  0  0  0  3  0  0  0  0  0  0
  181.8320  179.6570  142.9320 O   0  0  0  0  0  0  0  0  0  0  0  0
  186.3430  179.1680  141.1240 N   0  0  0  0  0  2  0  0  0  0  0  0
  186.3660  178.5560  139.8620 N   0  0  0  0  0  2  0  0  0  0  0  0
  187.5810  178.3990  139.1230 C   0  0  0  0  0  0  0  0  0  0  0  0
  188.6590  178.8800  139.5650 O   0  0  0  0  0  0  0  0  0  0  0  0
  188.6890  177.4580  135.6120 C   0  0  0  0  0  2  0  0  0  0  0  0
  188.7190  178.1810  136.9410 C   0  0  2  0  0  3  0  0  0  0  0  0
  187.5650  177.7030  137.8020 C   0  0  2  0  0  3  0  0  0  0  0  0
  187.3230  178.7050  136.6880 C   0  0  2  0  0  3  0  0  0  0  0  0
  187.2930  177.9840  135.3570 C   0  0  0  0  0  2  0  0  0  0  0  0
  187.6020  178.1070  142.8510 O   0  0  0  0  0  0  0  0  0  0  0  0
  188.3100  177.0690  142.4390 O   0  0  0  0  0  0  0  0  0  0  0  0
  188.8220  176.4990  143.6090 C   0  0  1  0  0  3  0  0  0  0  0  0
  189.9810  175.7790  143.3190 O   0  0  0  0  0  1  0  0  0  0  0  0
  189.0990  177.5770  144.6550 C   0  0  0  0  0  2  0  0  0  0  0  0
  188.4120  177.2980  145.9890 C   0  0  0  0  0  2  0  0  0  0  0  0
  189.0790  178.0310  148.3130 N   0  0  0  0  0  1  0  0  0  0  0  0
  190.4910  176.7300  147.0050 O   0  0  0  0  0  0  0  0  0  0  0  0
  189.3900  177.3290  147.1140 C   0  0  0  0  0  0  0  0  0  0  0  0
  1 10  1  1  0  0  0
  1 19  1  0  0  0  0
  2  8  1  0  0  0  0
  3  5  1  6  0  0  0
  3  4  1  0  0  0  0
  3  7  1  0  0  0  0
  4  1  1  6  0  0  0
  4  6  1  0  0  0  0
  6  8  2  0  0  0  0
  7  2  1  0  0  0  0
  9  7  2  0  0  0  0
 11 10  1  0  0  0  0
 12 13  2  0  0  0  0
 12 11  1  0  0  0  0
 15 14  1  6  0  0  0
 15 16  1  0  0  0  0
 16 12  1  1  0  0  0
 17 18  1  6  0  0  0
 17 15  1  0  0  0  0
 17 16  1  0  0  0  0
 18 14  1  0  0  0  0
 20 19  1  0  0  0  0
 20 21  1  0  0  0  0
 21 22  1  6  0  0  0
 21 23  1  0  0  0  0
 23 24  1  0  0  0  0
 24 27  1  0  0  0  0
 26 27  2  0  0  0  0
 27 25  1  0  0  0  0
M  END
>  <MODEL>
9

>  <REMARK>
 VINA RESULT:      -7.1      2.112      5.800
  Name = 
  10 active torsions:
  status: ('A' for Active; 'I' for Inactive)
    1  A    between atoms: C_2  and  O_11
    2  A    between atoms: C_2  and  C_14
    3  A    between atoms: C_4  and  C_14
    4  A    between atoms: C_4  and  C_18
    5  A    between atoms: C_5  and  C_23
    6  A    between atoms: O_11  and  O_24
    7  A    between atoms: N_17  and  N_21
    8  A    between atoms: C_19  and  C_25
    9  A    between atoms: N_21  and  C_23
   10  A    between atoms: C_23  and  O_24
                            x       y       z     vdW  Elec       q    Type
                         _______ _______ _______ _____ _____    ______ ____

>  <TORSDO>
F 10

$$$$
