=
 OpenBabel10232411283D

 54 57  0  0  1  0  0  0  0  0999 V2000
  190.1050  176.4590  139.2490 C   0  0  1  0  0  3  0  0  0  0  0  0
  192.0670  174.8680  136.9060 C   0  0  0  0  0  0  0  0  0  0  0  0
  190.8820  175.5320  137.0710 C   0  0  0  0  0  0  0  0  0  0  0  0
  192.1430  173.7640  136.0540 C   0  0  0  0  0  0  0  0  0  0  0  0
  192.5120  176.7100  138.3530 C   0  0  0  0  0  3  0  0  0  0  0  0
  189.8240  174.0220  135.5440 C   0  0  0  0  0  0  0  0  0  0  0  0
  193.1590  175.4660  137.7130 C   0  0  0  0  0  3  0  0  0  0  0  0
  191.0140  173.3710  135.3890 N   0  0  0  0  0  0  0  0  0  0  0  0
  188.4130  173.4750  134.6650 Cl  0  0  0  0  0  0  0  0  0  0  0  0
  191.0080  176.6690  138.0150 C   0  0  2  0  0  3  0  0  0  0  0  0
  189.7330  175.1310  136.3970 C   0  0  0  0  0  3  0  0  0  0  0  0
  193.5650  171.8820  136.4080 C   0  0  0  0  0  3  0  0  0  0  0  0
  193.3770  173.0520  135.8920 N   0  0  0  0  0  0  0  0  0  0  0  0
  195.6180  172.6000  138.2920 C   0  0  0  0  0  1  0  0  0  0  0  0
  194.8760  171.1810  136.2250 C   0  0  2  0  0  3  0  0  0  0  0  0
  194.7810  169.8250  136.7520 N   0  0  0  0  0  2  0  0  0  0  0  0
  195.8170  170.1530  137.7290 C   0  0  0  0  0  2  0  0  0  0  0  0
  195.9600  171.5660  137.2260 C   0  0  0  0  0  0  0  0  0  0  0  0
  197.3050  171.8000  136.5640 C   0  0  0  0  0  1  0  0  0  0  0  0
  190.3730  176.1520  141.7630 N   0  0  0  0  0  2  0  0  0  0  0  0
  191.5770  177.7740  140.5950 O   0  0  0  0  0  0  0  0  0  0  0  0
  190.7430  176.8330  140.5610 C   0  0  0  0  0  0  0  0  0  0  0  0
  190.9350  176.5000  143.0590 C   0  0  0  0  0  2  0  0  0  0  0  0
  189.8260  176.6090  144.0930 C   0  0  2  0  0  3  0  0  0  0  0  0
  187.5040  176.3210  143.8110 O   0  0  0  0  0  0  0  0  0  0  0  0
  188.5160  176.8910  143.4330 C   0  0  0  0  0  3  0  0  0  0  0  0
  190.1270  177.6360  144.9930 O   0  0  0  0  0  0  0  0  0  0  0  0
  190.5120  176.9970  146.1800 C   0  0  2  0  0  3  0  0  0  0  0  0
  189.8720  177.6230  147.3400 N   0  0  0  0  0  2  0  0  0  0  0  0
  188.4870  177.1770  147.4500 C   0  0  0  0  0  2  0  0  0  0  0  0
  187.9920  177.4960  148.7120 O   0  0  0  0  0  1  0  0  0  0  0  0
  191.9060  177.0350  146.3030 O   0  0  0  0  0  0  0  0  0  0  0  0
  192.2600  175.7870  146.8240 C   0  0  0  0  0  2  0  0  0  0  0  0
  192.5980  175.9280  148.2300 N   0  0  0  0  0  1  0  0  0  0  0  0
  188.8040  177.1120  139.0880 N   0  0  0  0  0  2  0  0  0  0  0  0
  188.9060  178.2300  138.1470 C   0  0  0  0  0  2  0  0  0  0  0  0
  187.5600  178.5920  137.5280 C   0  0  1  0  0  3  0  0  0  0  0  0
  187.4250  177.9640  136.2280 N   0  0  0  0  0  1  0  0  0  0  0  0
  186.4230  178.1340  138.4280 C   0  0  0  0  0  2  0  0  0  0  0  0
  185.1990  178.8490  138.0990 N   0  0  0  0  0  2  0  0  0  0  0  0
  184.8650  179.6170  139.2260 N   0  0  0  0  0  2  0  0  0  0  0  0
  182.9300  178.9460  142.7960 C   0  0  0  0  0  2  0  0  0  0  0  0
  184.5580  178.6890  140.3060 C   0  0  1  0  0  3  0  0  0  0  0  0
  186.4750  179.0360  141.6780 O   0  0  0  0  0  1  0  0  0  0  0  0
  185.0990  179.2540  141.6240 C   0  0  2  0  0  3  0  0  0  0  0  0
  182.3190  178.4910  141.5490 N   0  0  0  0  0  0  0  0  0  0  0  0
  183.0780  178.4130  140.3260 C   0  0  0  0  0  0  0  0  0  0  0  0
  182.5130  178.0490  139.2570 O   0  0  0  0  0  0  0  0  0  0  0  0
  184.4150  178.6150  142.8380 C   0  0  1  0  0  3  0  0  0  0  0  0
  184.9910  179.1710  144.1350 C   0  0  0  0  0  2  0  0  0  0  0  0
  185.0270  178.1670  145.0990 O   0  0  0  0  0  1  0  0  0  0  0  0
  180.8690  178.3350  141.5050 C   0  0  0  0  0  2  0  0  0  0  0  0
  180.2140  179.6050  141.0610 C   0  0  0  0  0  3  0  0  0  0  0  0
  180.2550  180.6010  141.7590 O   0  0  0  0  0  0  0  0  0  0  0  0
  1 35  1  6  0  0  0
  1 22  1  0  0  0  0
  2  3  2  0  0  0  0
  2  7  1  0  0  0  0
  3 10  1  0  0  0  0
  4  2  1  0  0  0  0
  6 11  2  0  0  0  0
  7  5  2  0  0  0  0
  8  6  1  0  0  0  0
  8  4  2  0  0  0  0
  9  6  1  0  0  0  0
 10  5  1  0  0  0  0
 10  1  1  1  0  0  0
 11  3  1  0  0  0  0
 13  4  1  0  0  0  0
 13 12  2  0  0  0  0
 15 12  1  1  0  0  0
 15 16  1  0  0  0  0
 15 18  1  0  0  0  0
 16 17  1  0  0  0  0
 18 17  1  0  0  0  0
 18 14  1  0  0  0  0
 19 18  1  0  0  0  0
 20 23  1  0  0  0  0
 22 21  2  0  0  0  0
 22 20  1  0  0  0  0
 24 23  1  6  0  0  0
 24 27  1  0  0  0  0
 26 25  2  0  0  0  0
 26 24  1  0  0  0  0
 28 27  1  6  0  0  0
 28 32  1  0  0  0  0
 28 29  1  0  0  0  0
 29 30  1  0  0  0  0
 30 31  1  0  0  0  0
 32 33  1  0  0  0  0
 33 34  1  0  0  0  0
 36 35  1  0  0  0  0
 37 38  1  6  0  0  0
 37 36  1  0  0  0  0
 37 39  1  0  0  0  0
 40 39  1  0  0  0  0
 40 41  1  0  0  0  0
 42 49  1  0  0  0  0
 43 41  1  6  0  0  0
 43 47  1  0  0  0  0
 43 45  1  0  0  0  0
 45 44  1  1  0  0  0
 45 49  1  0  0  0  0
 46 42  1  0  0  0  0
 47 46  1  0  0  0  0
 48 47  2  0  0  0  0
 49 50  1  1  0  0  0
 50 51  1  0  0  0  0
 52 46  1  0  0  0  0
 53 52  1  0  0  0  0
 53 54  2  0  0  0  0
M  END
>  <MODEL>
1

>  <REMARK>
 VINA RESULT:      -6.9      0.000      0.000
  Name = 
  23 active torsions:
  status: ('A' for Active; 'I' for Inactive)
    1  A    between atoms: C_2  and  O_5
    2  A    between atoms: C_2  and  O_19
    3  A    between atoms: C_2  and  N_50
    4  A    between atoms: N_4  and  C_27
    5  A    between atoms: N_4  and  C_37
    6  A    between atoms: O_5  and  C_48
    7  A    between atoms: C_6  and  C_46
    8  A    between atoms: C_7  and  N_51
    9  A    between atoms: C_9  and  C_41
   10  A    between atoms: N_10  and  C_49
   11  A    between atoms: C_14  and  N_53
   12  A    between atoms: C_15  and  C_21
   13  A    between atoms: C_17  and  C_32
   14  A    between atoms: C_17  and  N_54
   15  A    between atoms: O_19  and  C_39
   16  A    between atoms: C_21  and  N_25
   17  A    between atoms: C_24  and  N_50
   18  A    between atoms: C_27  and  C_33
   19  A    between atoms: C_27  and  C_42
   20  A    between atoms: C_28  and  C_48
   21  A    between atoms: C_32  and  C_37
   22  A    between atoms: C_48  and  C_49
   23  A    between atoms: N_51  and  N_54
                            x       y       z     vdW  Elec       q    Type
                         _______ _______ _______ _____ _____    ______ ____

>  <TORSDO>
F 23

$$$$
=
 OpenBabel10232411283D

 54 57  0  0  1  0  0  0  0  0999 V2000
  188.7270  177.5230  141.0200 C   0  0  1  0  0  3  0  0  0  0  0  0
  189.8170  176.9200  137.8070 C   0  0  0  0  0  0  0  0  0  0  0  0
  188.9130  177.6420  138.5380 C   0  0  0  0  0  0  0  0  0  0  0  0
  189.4540  176.3820  136.5710 C   0  0  0  0  0  0  0  0  0  0  0  0
  190.9670  177.6900  139.7480 C   0  0  0  0  0  3  0  0  0  0  0  0
  187.2700  177.3160  136.8270 C   0  0  0  0  0  0  0  0  0  0  0  0
  191.1300  176.8150  138.4900 C   0  0  0  0  0  3  0  0  0  0  0  0
  188.1840  176.6000  136.1090 N   0  0  0  0  0  0  0  0  0  0  0  0
  185.6610  177.5640  136.1850 Cl  0  0  0  0  0  0  0  0  0  0  0  0
  189.4890  178.1220  139.8180 C   0  0  2  0  0  3  0  0  0  0  0  0
  187.6210  177.8600  138.0710 C   0  0  0  0  0  3  0  0  0  0  0  0
  190.8660  174.4890  136.2440 C   0  0  0  0  0  3  0  0  0  0  0  0
  190.3910  175.6100  135.8090 N   0  0  0  0  0  0  0  0  0  0  0  0
  193.6210  174.8070  137.0140 C   0  0  0  0  0  1  0  0  0  0  0  0
  191.8550  173.7210  135.4200 C   0  0  2  0  0  3  0  0  0  0  0  0
  191.8400  172.3200  135.8230 N   0  0  0  0  0  2  0  0  0  0  0  0
  193.2380  172.4440  136.2320 C   0  0  0  0  0  2  0  0  0  0  0  0
  193.3130  173.8950  135.8320 C   0  0  0  0  0  0  0  0  0  0  0  0
  194.2300  174.1100  134.6430 C   0  0  0  0  0  1  0  0  0  0  0  0
  190.0800  177.7710  143.1640 N   0  0  0  0  0  2  0  0  0  0  0  0
  189.9600  175.7390  142.0220 O   0  0  0  0  0  0  0  0  0  0  0  0
  189.6110  176.9450  142.0940 C   0  0  0  0  0  0  0  0  0  0  0  0
  190.9640  177.2680  144.2050 C   0  0  0  0  0  2  0  0  0  0  0  0
  190.3030  177.4240  145.5650 C   0  0  2  0  0  3  0  0  0  0  0  0
  192.2710  176.6670  146.6170 O   0  0  0  0  0  0  0  0  0  0  0  0
  191.0510  176.6540  146.6050 C   0  0  0  0  0  3  0  0  0  0  0  0
  188.9850  176.9630  145.4990 O   0  0  0  0  0  0  0  0  0  0  0  0
  188.2590  177.7690  146.3870 C   0  0  2  0  0  3  0  0  0  0  0  0
  187.8570  177.0070  147.5730 N   0  0  0  0  0  2  0  0  0  0  0  0
  188.0160  177.8250  148.7710 C   0  0  0  0  0  2  0  0  0  0  0  0
  189.3090  178.3410  148.8170 O   0  0  0  0  0  1  0  0  0  0  0  0
  187.1380  178.2950  145.7340 O   0  0  0  0  0  0  0  0  0  0  0  0
  186.0690  178.0740  146.6080 C   0  0  0  0  0  2  0  0  0  0  0  0
  185.2130  179.2470  146.6320 N   0  0  0  0  0  1  0  0  0  0  0  0
  187.7640  178.4720  141.5810 N   0  0  0  0  0  2  0  0  0  0  0  0
  186.7130  177.7630  142.3130 C   0  0  0  0  0  2  0  0  0  0  0  0
  185.3350  178.3780  142.0910 C   0  0  1  0  0  3  0  0  0  0  0  0
  184.9960  179.2500  143.1990 N   0  0  0  0  0  1  0  0  0  0  0  0
  185.3120  179.1760  140.7980 C   0  0  0  0  0  2  0  0  0  0  0  0
  184.4320  178.5440  139.8280 N   0  0  0  0  0  2  0  0  0  0  0  0
  183.4100  177.9170  140.5590 N   0  0  0  0  0  2  0  0  0  0  0  0
  181.9440  178.0770  136.7160 C   0  0  0  0  0  2  0  0  0  0  0  0
  182.2640  177.7810  139.6710 C   0  0  1  0  0  3  0  0  0  0  0  0
  181.3580  179.9760  139.8580 O   0  0  0  0  0  1  0  0  0  0  0  0
  182.0080  179.1200  138.9700 C   0  0  2  0  0  3  0  0  0  0  0  0
  182.2860  176.7830  137.3040 N   0  0  0  0  0  0  0  0  0  0  0  0
  182.4970  176.6350  138.7220 C   0  0  0  0  0  0  0  0  0  0  0  0
  182.8260  175.5110  139.1960 O   0  0  0  0  0  0  0  0  0  0  0  0
  181.1700  178.9440  137.6990 C   0  0  1  0  0  3  0  0  0  0  0  0
  180.9030  180.2910  137.0390 C   0  0  0  0  0  2  0  0  0  0  0  0
  180.6700  180.1080  135.6780 O   0  0  0  0  0  1  0  0  0  0  0  0
  182.6380  175.6870  136.4080 C   0  0  0  0  0  2  0  0  0  0  0  0
  182.3320  176.0460  134.9880 C   0  0  0  0  0  3  0  0  0  0  0  0
  181.5050  175.4180  134.3530 O   0  0  0  0  0  0  0  0  0  0  0  0
  1 35  1  1  0  0  0
  1 22  1  0  0  0  0
  2  7  1  0  0  0  0
  2  3  2  0  0  0  0
  3 10  1  0  0  0  0
  4  2  1  0  0  0  0
  5 10  1  0  0  0  0
  6 11  2  0  0  0  0
  7  5  2  0  0  0  0
  8  4  2  0  0  0  0
  8  6  1  0  0  0  0
  9  6  1  0  0  0  0
 10  1  1  1  0  0  0
 11  3  1  0  0  0  0
 13 12  2  0  0  0  0
 13  4  1  0  0  0  0
 15 16  1  0  0  0  0
 15 18  1  0  0  0  0
 15 12  1  1  0  0  0
 16 17  1  0  0  0  0
 18 17  1  0  0  0  0
 18 14  1  0  0  0  0
 19 18  1  0  0  0  0
 20 23  1  0  0  0  0
 21 22  2  0  0  0  0
 22 20  1  0  0  0  0
 24 23  1  6  0  0  0
 24 26  1  0  0  0  0
 26 25  2  0  0  0  0
 27 24  1  0  0  0  0
 28 27  1  6  0  0  0
 28 29  1  0  0  0  0
 29 30  1  0  0  0  0
 30 31  1  0  0  0  0
 32 28  1  0  0  0  0
 32 33  1  0  0  0  0
 33 34  1  0  0  0  0
 35 36  1  0  0  0  0
 37 36  1  0  0  0  0
 37 38  1  1  0  0  0
 39 37  1  0  0  0  0
 40 41  1  0  0  0  0
 40 39  1  0  0  0  0
 42 46  1  0  0  0  0
 42 49  1  0  0  0  0
 43 41  1  1  0  0  0
 45 43  1  0  0  0  0
 45 44  1  1  0  0  0
 46 47  1  0  0  0  0
 47 48  2  0  0  0  0
 47 43  1  0  0  0  0
 49 50  1  6  0  0  0
 49 45  1  0  0  0  0
 51 50  1  0  0  0  0
 52 46  1  0  0  0  0
 53 52  1  0  0  0  0
 54 53  2  0  0  0  0
M  END
>  <MODEL>
2

>  <REMARK>
 VINA RESULT:      -6.4      2.553      4.574
  Name = 
  23 active torsions:
  status: ('A' for Active; 'I' for Inactive)
    1  A    between atoms: C_2  and  O_5
    2  A    between atoms: C_2  and  O_19
    3  A    between atoms: C_2  and  N_50
    4  A    between atoms: N_4  and  C_27
    5  A    between atoms: N_4  and  C_37
    6  A    between atoms: O_5  and  C_48
    7  A    between atoms: C_6  and  C_46
    8  A    between atoms: C_7  and  N_51
    9  A    between atoms: C_9  and  C_41
   10  A    between atoms: N_10  and  C_49
   11  A    between atoms: C_14  and  N_53
   12  A    between atoms: C_15  and  C_21
   13  A    between atoms: C_17  and  C_32
   14  A    between atoms: C_17  and  N_54
   15  A    between atoms: O_19  and  C_39
   16  A    between atoms: C_21  and  N_25
   17  A    between atoms: C_24  and  N_50
   18  A    between atoms: C_27  and  C_33
   19  A    between atoms: C_27  and  C_42
   20  A    between atoms: C_28  and  C_48
   21  A    between atoms: C_32  and  C_37
   22  A    between atoms: C_48  and  C_49
   23  A    between atoms: N_51  and  N_54
                            x       y       z     vdW  Elec       q    Type
                         _______ _______ _______ _____ _____    ______ ____

>  <TORSDO>
F 23

$$$$
=
 OpenBabel10232411283D

 54 57  0  0  1  0  0  0  0  0999 V2000
  190.3910  177.7310  141.5930 C   0  0  1  0  0  3  0  0  0  0  0  0
  187.0700  178.1530  140.7770 C   0  0  0  0  0  0  0  0  0  0  0  0
  188.2360  177.5750  140.3530 C   0  0  0  0  0  0  0  0  0  0  0  0
  186.1950  178.7330  139.8560 C   0  0  0  0  0  0  0  0  0  0  0  0
  188.1180  177.2300  142.7090 C   0  0  0  0  0  3  0  0  0  0  0  0
  187.6880  178.1330  138.0900 C   0  0  0  0  0  0  0  0  0  0  0  0
  186.9080  178.0650  142.2490 C   0  0  0  0  0  3  0  0  0  0  0  0
  186.5280  178.7030  138.5280 N   0  0  0  0  0  0  0  0  0  0  0  0
  188.0590  178.1220  136.3790 Cl  0  0  0  0  0  0  0  0  0  0  0  0
  189.0250  177.0210  141.4800 C   0  0  2  0  0  3  0  0  0  0  0  0
  188.5760  177.5480  139.0040 C   0  0  0  0  0  3  0  0  0  0  0  0
  183.8480  178.7340  140.2750 C   0  0  0  0  0  3  0  0  0  0  0  0
  184.9820  179.3550  140.2960 N   0  0  0  0  0  0  0  0  0  0  0  0
  181.4540  178.0380  138.8380 C   0  0  0  0  0  1  0  0  0  0  0  0
  182.6010  179.4300  140.7320 C   0  0  2  0  0  3  0  0  0  0  0  0
  182.1190  178.8090  141.9590 N   0  0  0  0  0  2  0  0  0  0  0  0
  180.8910  178.4310  141.2610 C   0  0  0  0  0  2  0  0  0  0  0  0
  181.3360  179.0580  139.9650 C   0  0  0  0  0  0  0  0  0  0  0  0
  180.5000  180.2700  139.6030 C   0  0  0  0  0  1  0  0  0  0  0  0
  191.1870  177.4510  143.9970 N   0  0  0  0  0  2  0  0  0  0  0  0
  190.4630  179.5140  143.1820 O   0  0  0  0  0  0  0  0  0  0  0  0
  190.6890  178.2970  142.9570 C   0  0  0  0  0  0  0  0  0  0  0  0
  191.4570  177.9430  145.3390 C   0  0  0  0  0  2  0  0  0  0  0  0
  190.9400  176.9520  146.3690 C   0  0  2  0  0  3  0  0  0  0  0  0
  192.5520  175.6920  147.5390 O   0  0  0  0  0  0  0  0  0  0  0  0
  191.8880  175.8070  146.5200 C   0  0  0  0  0  3  0  0  0  0  0  0
  189.6880  176.4730  145.9700 O   0  0  0  0  0  0  0  0  0  0  0  0
  188.7520  177.3520  146.5320 C   0  0  2  0  0  3  0  0  0  0  0  0
  188.2270  176.8170  147.7910 N   0  0  0  0  0  2  0  0  0  0  0  0
  188.3520  177.8140  148.8500 C   0  0  0  0  0  2  0  0  0  0  0  0
  189.3490  178.7280  148.5150 O   0  0  0  0  0  1  0  0  0  0  0  0
  187.7140  177.5800  145.6190 O   0  0  0  0  0  0  0  0  0  0  0  0
  186.7370  178.2680  146.3440 C   0  0  0  0  0  2  0  0  0  0  0  0
  185.5310  178.3810  145.5420 N   0  0  0  0  0  1  0  0  0  0  0  0
  191.4860  176.8810  141.1220 N   0  0  0  0  0  2  0  0  0  0  0  0
  191.9210  177.2990  139.7880 C   0  0  0  0  0  2  0  0  0  0  0  0
  192.2260  176.1120  138.8790 C   0  0  1  0  0  3  0  0  0  0  0  0
  191.0000  175.4150  138.5430 N   0  0  0  0  0  1  0  0  0  0  0  0
  192.9040  176.5830  137.6030 C   0  0  0  0  0  2  0  0  0  0  0  0
  194.1890  175.9210  137.4390 N   0  0  0  0  0  2  0  0  0  0  0  0
  194.3780  175.7400  136.0600 N   0  0  0  0  0  2  0  0  0  0  0  0
  196.9360  173.0400  137.8230 C   0  0  0  0  0  2  0  0  0  0  0  0
  195.4530  174.7720  135.8940 C   0  0  1  0  0  3  0  0  0  0  0  0
  197.3240  176.2460  135.9790 O   0  0  0  0  0  1  0  0  0  0  0  0
  196.6770  175.2380  136.6920 C   0  0  2  0  0  3  0  0  0  0  0  0
  195.7190  172.5610  137.1720 N   0  0  0  0  0  0  0  0  0  0  0  0
  194.9620  173.4030  136.2810 C   0  0  0  0  0  0  0  0  0  0  0  0
  193.8950  172.9710  135.7610 O   0  0  0  0  0  0  0  0  0  0  0  0
  197.6450  174.0830  136.9700 C   0  0  1  0  0  3  0  0  0  0  0  0
  198.8660  174.5770  137.7370 C   0  0  0  0  0  2  0  0  0  0  0  0
  198.4560  175.3310  138.8330 O   0  0  0  0  0  1  0  0  0  0  0  0
  195.1510  171.2920  137.6160 C   0  0  0  0  0  2  0  0  0  0  0  0
  195.8970  170.1410  137.0200 C   0  0  0  0  0  3  0  0  0  0  0  0
  195.6790  169.7830  135.8780 O   0  0  0  0  0  0  0  0  0  0  0  0
  1 35  1  1  0  0  0
  1 22  1  0  0  0  0
  2  7  1  0  0  0  0
  3  2  2  0  0  0  0
  3 10  1  0  0  0  0
  4 13  1  0  0  0  0
  4  2  1  0  0  0  0
  6  8  1  0  0  0  0
  6 11  2  0  0  0  0
  7  5  2  0  0  0  0
  8  4  2  0  0  0  0
  9  6  1  0  0  0  0
 10  1  1  1  0  0  0
 10  5  1  0  0  0  0
 11  3  1  0  0  0  0
 12 13  2  0  0  0  0
 14 18  1  0  0  0  0
 15 12  1  6  0  0  0
 15 16  1  0  0  0  0
 17 16  1  0  0  0  0
 18 15  1  0  0  0  0
 18 17  1  0  0  0  0
 19 18  1  0  0  0  0
 20 23  1  0  0  0  0
 22 21  2  0  0  0  0
 22 20  1  0  0  0  0
 24 23  1  6  0  0  0
 24 26  1  0  0  0  0
 26 25  2  0  0  0  0
 27 24  1  0  0  0  0
 27 28  1  0  0  0  0
 28 32  1  6  0  0  0
 28 29  1  0  0  0  0
 29 30  1  0  0  0  0
 31 30  1  0  0  0  0
 32 33  1  0  0  0  0
 34 33  1  0  0  0  0
 36 35  1  0  0  0  0
 37 38  1  6  0  0  0
 37 36  1  0  0  0  0
 39 37  1  0  0  0  0
 40 39  1  0  0  0  0
 41 40  1  0  0  0  0
 43 41  1  1  0  0  0
 43 47  1  0  0  0  0
 43 45  1  0  0  0  0
 45 44  1  6  0  0  0
 45 49  1  0  0  0  0
 46 52  1  0  0  0  0
 46 42  1  0  0  0  0
 47 46  1  0  0  0  0
 48 47  2  0  0  0  0
 49 50  1  1  0  0  0
 49 42  1  0  0  0  0
 50 51  1  0  0  0  0
 53 52  1  0  0  0  0
 54 53  2  0  0  0  0
M  END
>  <MODEL>
3

>  <REMARK>
 VINA RESULT:      -6.2      3.016     10.525
  Name = 
  23 active torsions:
  status: ('A' for Active; 'I' for Inactive)
    1  A    between atoms: C_2  and  O_5
    2  A    between atoms: C_2  and  O_19
    3  A    between atoms: C_2  and  N_50
    4  A    between atoms: N_4  and  C_27
    5  A    between atoms: N_4  and  C_37
    6  A    between atoms: O_5  and  C_48
    7  A    between atoms: C_6  and  C_46
    8  A    between atoms: C_7  and  N_51
    9  A    between atoms: C_9  and  C_41
   10  A    between atoms: N_10  and  C_49
   11  A    between atoms: C_14  and  N_53
   12  A    between atoms: C_15  and  C_21
   13  A    between atoms: C_17  and  C_32
   14  A    between atoms: C_17  and  N_54
   15  A    between atoms: O_19  and  C_39
   16  A    between atoms: C_21  and  N_25
   17  A    between atoms: C_24  and  N_50
   18  A    between atoms: C_27  and  C_33
   19  A    between atoms: C_27  and  C_42
   20  A    between atoms: C_28  and  C_48
   21  A    between atoms: C_32  and  C_37
   22  A    between atoms: C_48  and  C_49
   23  A    between atoms: N_51  and  N_54
                            x       y       z     vdW  Elec       q    Type
                         _______ _______ _______ _____ _____    ______ ____

>  <TORSDO>
F 23

$$$$
=
 OpenBabel10232411283D

 54 57  0  0  1  0  0  0  0  0999 V2000
  186.7590  176.6630  136.0400 C   0  0  1  0  0  3  0  0  0  0  0  0
  189.6260  175.1050  134.9340 C   0  0  0  0  0  0  0  0  0  0  0  0
  188.2670  174.9680  135.0100 C   0  0  0  0  0  0  0  0  0  0  0  0
  190.4580  173.9990  135.1200 C   0  0  0  0  0  0  0  0  0  0  0  0
  188.6940  177.2420  134.4330 C   0  0  0  0  0  3  0  0  0  0  0  0
  188.5290  172.6300  135.4540 C   0  0  0  0  0  0  0  0  0  0  0  0
  190.0300  176.5040  134.6450 C   0  0  0  0  0  3  0  0  0  0  0  0
  189.8830  172.7830  135.3720 N   0  0  0  0  0  0  0  0  0  0  0  0
  187.8510  171.0490  135.7770 Cl  0  0  0  0  0  0  0  0  0  0  0  0
  187.5640  176.2550  134.7870 C   0  0  2  0  0  3  0  0  0  0  0  0
  187.6830  173.7320  135.2700 C   0  0  0  0  0  3  0  0  0  0  0  0
  192.6780  173.1340  135.2270 C   0  0  0  0  0  3  0  0  0  0  0  0
  191.8830  174.1400  135.0590 N   0  0  0  0  0  0  0  0  0  0  0  0
  193.9000  174.0030  137.6830 C   0  0  0  0  0  1  0  0  0  0  0  0
  194.1620  173.3310  135.1700 C   0  0  2  0  0  3  0  0  0  0  0  0
  194.8270  172.0350  135.2250 N   0  0  0  0  0  2  0  0  0  0  0  0
  195.4620  172.4370  136.4790 C   0  0  0  0  0  2  0  0  0  0  0  0
  194.8040  173.7920  136.4740 C   0  0  0  0  0  0  0  0  0  0  0  0
  195.8070  174.9100  136.2630 C   0  0  0  0  0  1  0  0  0  0  0  0
  184.5360  176.2290  137.2050 N   0  0  0  0  0  2  0  0  0  0  0  0
  184.7780  175.9690  134.8980 O   0  0  0  0  0  0  0  0  0  0  0  0
  185.3030  176.2790  135.9990 C   0  0  0  0  0  0  0  0  0  0  0  0
  183.1370  175.8300  137.2210 C   0  0  0  0  0  2  0  0  0  0  0  0
  182.2500  177.0550  137.3770 C   0  0  2  0  0  3  0  0  0  0  0  0
  181.9560  177.5240  135.0860 O   0  0  0  0  0  0  0  0  0  0  0  0
  181.4200  177.2640  136.1520 C   0  0  0  0  0  3  0  0  0  0  0  0
  183.0460  178.1820  137.6010 O   0  0  0  0  0  0  0  0  0  0  0  0
  182.4340  178.8730  138.6560 C   0  0  2  0  0  3  0  0  0  0  0  0
  183.3730  179.8120  139.2770 N   0  0  0  0  0  2  0  0  0  0  0  0
  184.4100  179.0820  139.9970 C   0  0  0  0  0  2  0  0  0  0  0  0
  185.6140  179.1720  139.3010 O   0  0  0  0  0  1  0  0  0  0  0  0
  181.9530  177.9570  139.6000 O   0  0  0  0  0  0  0  0  0  0  0  0
  180.7770  178.5290  140.0940 C   0  0  0  0  0  2  0  0  0  0  0  0
  181.0230  179.0730  141.4190 N   0  0  0  0  0  1  0  0  0  0  0  0
  187.3960  176.1940  137.2720 N   0  0  0  0  0  2  0  0  0  0  0  0
  188.0930  177.2950  137.9390 C   0  0  0  0  0  2  0  0  0  0  0  0
  189.1380  176.8010  138.9340 C   0  0  1  0  0  3  0  0  0  0  0  0
  190.3560  176.4360  138.2370 N   0  0  0  0  0  1  0  0  0  0  0  0
  189.4490  177.8820  139.9570 C   0  0  0  0  0  2  0  0  0  0  0  0
  188.3550  178.0090  140.9080 N   0  0  0  0  0  2  0  0  0  0  0  0
  188.6210  177.1080  141.9510 N   0  0  0  0  0  2  0  0  0  0  0  0
  188.9700  177.1010  146.0520 C   0  0  0  0  0  2  0  0  0  0  0  0
  188.6890  177.8810  143.1830 C   0  0  1  0  0  3  0  0  0  0  0  0
  186.3600  178.1380  143.6150 O   0  0  0  0  0  1  0  0  0  0  0  0
  187.5080  177.5000  144.0830 C   0  0  2  0  0  3  0  0  0  0  0  0
  190.1500  177.3550  145.2280 N   0  0  0  0  0  0  0  0  0  0  0  0
  190.0340  177.6790  143.8290 C   0  0  0  0  0  0  0  0  0  0  0  0
  191.0740  177.8590  143.1360 O   0  0  0  0  0  0  0  0  0  0  0  0
  187.7640  177.8800  145.5450 C   0  0  1  0  0  3  0  0  0  0  0  0
  186.5640  177.5190  146.4130 C   0  0  0  0  0  2  0  0  0  0  0  0
  185.9910  178.6800  146.9260 O   0  0  0  0  0  1  0  0  0  0  0  0
  191.4630  177.0500  145.7880 C   0  0  0  0  0  2  0  0  0  0  0  0
  191.3370  176.5670  147.1980 C   0  0  0  0  0  3  0  0  0  0  0  0
  192.2840  176.6240  147.9610 O   0  0  0  0  0  0  0  0  0  0  0  0
  1 22  1  6  0  0  0
  1 35  1  0  0  0  0
  2  3  2  0  0  0  0
  2  4  1  0  0  0  0
  3 11  1  0  0  0  0
  4  8  2  0  0  0  0
  5  7  2  0  0  0  0
  5 10  1  0  0  0  0
  6  9  1  0  0  0  0
  7  2  1  0  0  0  0
  8  6  1  0  0  0  0
 10  3  1  0  0  0  0
 10  1  1  1  0  0  0
 11  6  2  0  0  0  0
 13  4  1  0  0  0  0
 13 12  2  0  0  0  0
 15 16  1  0  0  0  0
 15 12  1  1  0  0  0
 15 18  1  0  0  0  0
 16 17  1  0  0  0  0
 18 17  1  0  0  0  0
 18 14  1  0  0  0  0
 19 18  1  0  0  0  0
 20 23  1  0  0  0  0
 21 22  2  0  0  0  0
 22 20  1  0  0  0  0
 23 24  1  0  0  0  0
 24 26  1  6  0  0  0
 24 27  1  0  0  0  0
 25 26  2  0  0  0  0
 28 27  1  6  0  0  0
 28 29  1  0  0  0  0
 28 32  1  0  0  0  0
 29 30  1  0  0  0  0
 31 30  1  0  0  0  0
 32 33  1  0  0  0  0
 33 34  1  0  0  0  0
 35 36  1  0  0  0  0
 36 37  1  0  0  0  0
 37 38  1  6  0  0  0
 37 39  1  0  0  0  0
 39 40  1  0  0  0  0
 40 41  1  0  0  0  0
 43 41  1  6  0  0  0
 43 47  1  0  0  0  0
 43 45  1  0  0  0  0
 45 44  1  6  0  0  0
 45 49  1  0  0  0  0
 46 52  1  0  0  0  0
 46 42  1  0  0  0  0
 47 46  1  0  0  0  0
 48 47  2  0  0  0  0
 49 42  1  0  0  0  0
 49 50  1  1  0  0  0
 50 51  1  0  0  0  0
 52 53  1  0  0  0  0
 53 54  2  0  0  0  0
M  END
>  <MODEL>
4

>  <REMARK>
 VINA RESULT:      -6.2      2.265      7.163
  Name = 
  23 active torsions:
  status: ('A' for Active; 'I' for Inactive)
    1  A    between atoms: C_2  and  O_5
    2  A    between atoms: C_2  and  O_19
    3  A    between atoms: C_2  and  N_50
    4  A    between atoms: N_4  and  C_27
    5  A    between atoms: N_4  and  C_37
    6  A    between atoms: O_5  and  C_48
    7  A    between atoms: C_6  and  C_46
    8  A    between atoms: C_7  and  N_51
    9  A    between atoms: C_9  and  C_41
   10  A    between atoms: N_10  and  C_49
   11  A    between atoms: C_14  and  N_53
   12  A    between atoms: C_15  and  C_21
   13  A    between atoms: C_17  and  C_32
   14  A    between atoms: C_17  and  N_54
   15  A    between atoms: O_19  and  C_39
   16  A    between atoms: C_21  and  N_25
   17  A    between atoms: C_24  and  N_50
   18  A    between atoms: C_27  and  C_33
   19  A    between atoms: C_27  and  C_42
   20  A    between atoms: C_28  and  C_48
   21  A    between atoms: C_32  and  C_37
   22  A    between atoms: C_48  and  C_49
   23  A    between atoms: N_51  and  N_54
                            x       y       z     vdW  Elec       q    Type
                         _______ _______ _______ _____ _____    ______ ____

>  <TORSDO>
F 23

$$$$
=
 OpenBabel10232411283D

 54 57  0  0  1  0  0  0  0  0999 V2000
  190.3960  176.3310  139.4060 C   0  0  1  0  0  3  0  0  0  0  0  0
  192.6980  174.7050  137.4230 C   0  0  0  0  0  0  0  0  0  0  0  0
  191.4480  175.2610  137.4170 C   0  0  0  0  0  0  0  0  0  0  0  0
  192.9510  173.5300  136.7130 C   0  0  0  0  0  0  0  0  0  0  0  0
  192.8410  176.7270  138.6790 C   0  0  0  0  0  3  0  0  0  0  0  0
  190.6730  173.4970  135.9940 C   0  0  0  0  0  0  0  0  0  0  0  0
  193.6540  175.4930  138.2400 C   0  0  0  0  0  3  0  0  0  0  0  0
  191.9270  172.9570  136.0090 N   0  0  0  0  0  0  0  0  0  0  0  0
  189.4030  172.7200  135.0750 Cl  0  0  0  0  0  0  0  0  0  0  0  0
  191.3830  176.4990  138.2310 C   0  0  2  0  0  3  0  0  0  0  0  0
  190.4050  174.6760  136.7050 C   0  0  0  0  0  3  0  0  0  0  0  0
  194.4200  171.6520  136.7770 C   0  0  0  0  0  3  0  0  0  0  0  0
  194.2540  172.9340  136.7310 N   0  0  0  0  0  0  0  0  0  0  0  0
  194.9360  169.5910  134.8360 C   0  0  0  0  0  1  0  0  0  0  0  0
  195.8010  171.0730  136.8090 C   0  0  2  0  0  3  0  0  0  0  0  0
  196.7310  171.9950  136.1680 N   0  0  0  0  0  2  0  0  0  0  0  0
  197.0150  170.9750  135.1600 C   0  0  0  0  0  2  0  0  0  0  0  0
  196.0680  169.9800  135.7800 C   0  0  0  0  0  0  0  0  0  0  0  0
  196.8010  168.7920  136.3720 C   0  0  0  0  0  1  0  0  0  0  0  0
  190.5030  176.1120  141.9410 N   0  0  0  0  0  2  0  0  0  0  0  0
  191.7500  177.7210  140.8000 O   0  0  0  0  0  0  0  0  0  0  0  0
  190.9380  176.7620  140.7440 C   0  0  0  0  0  0  0  0  0  0  0  0
  190.9710  176.5150  143.2590 C   0  0  0  0  0  2  0  0  0  0  0  0
  189.9670  177.4600  143.8990 C   0  0  2  0  0  3  0  0  0  0  0  0
  191.7460  179.0060  143.8660 O   0  0  0  0  0  0  0  0  0  0  0  0
  190.6200  178.7530  144.2660 C   0  0  0  0  0  3  0  0  0  0  0  0
  189.4320  176.8650  145.0460 O   0  0  0  0  0  0  0  0  0  0  0  0
  188.1810  177.4700  145.2350 C   0  0  2  0  0  3  0  0  0  0  0  0
  187.8060  177.4570  146.6520 N   0  0  0  0  0  2  0  0  0  0  0  0
  188.9750  177.7310  147.4820 C   0  0  0  0  0  2  0  0  0  0  0  0
  188.5630  178.1390  148.7490 O   0  0  0  0  0  1  0  0  0  0  0  0
  187.2180  176.8090  144.4620 O   0  0  0  0  0  0  0  0  0  0  0  0
  186.5540  177.8220  143.7640 C   0  0  0  0  0  2  0  0  0  0  0  0
  185.4450  178.3130  144.5630 N   0  0  0  0  0  1  0  0  0  0  0  0
  189.1070  176.9680  139.1270 N   0  0  0  0  0  2  0  0  0  0  0  0
  189.3080  178.2900  138.5300 C   0  0  0  0  0  2  0  0  0  0  0  0
  188.3380  178.5620  137.3850 C   0  0  1  0  0  3  0  0  0  0  0  0
  188.8300  177.9570  136.1620 N   0  0  0  0  0  1  0  0  0  0  0  0
  186.9640  177.9970  137.7080 C   0  0  0  0  0  2  0  0  0  0  0  0
  186.3950  178.6790  138.8610 N   0  0  0  0  0  2  0  0  0  0  0  0
  185.0890  179.0510  138.5060 N   0  0  0  0  0  2  0  0  0  0  0  0
  181.2100  178.0720  139.4750 C   0  0  0  0  0  2  0  0  0  0  0  0
  184.1810  178.1310  139.1760 C   0  0  1  0  0  3  0  0  0  0  0  0
  184.2540  179.0410  141.3770 O   0  0  0  0  0  1  0  0  0  0  0  0
  183.4190  178.8850  140.2720 C   0  0  2  0  0  3  0  0  0  0  0  0
  181.8600  177.4100  138.3460 N   0  0  0  0  0  0  0  0  0  0  0  0
  183.2870  177.4740  138.1580 C   0  0  0  0  0  0  0  0  0  0  0  0
  183.8160  176.9210  137.1530 O   0  0  0  0  0  0  0  0  0  0  0  0
  182.1370  178.1500  140.6800 C   0  0  1  0  0  3  0  0  0  0  0  0
  181.4140  178.9020  141.7900 C   0  0  0  0  0  2  0  0  0  0  0  0
  180.4430  179.7320  141.2370 O   0  0  0  0  0  1  0  0  0  0  0  0
  181.0200  176.8740  137.2810 C   0  0  0  0  0  2  0  0  0  0  0  0
  180.4080  175.5720  137.6940 C   0  0  0  0  0  3  0  0  0  0  0  0
  181.1080  174.6430  138.0530 O   0  0  0  0  0  0  0  0  0  0  0  0
  1 35  1  6  0  0  0
  1 22  1  0  0  0  0
  2  7  1  0  0  0  0
  3  2  2  0  0  0  0
  3 10  1  0  0  0  0
  4 13  1  0  0  0  0
  4  2  1  0  0  0  0
  6  8  1  0  0  0  0
  6 11  2  0  0  0  0
  7  5  2  0  0  0  0
  8  4  2  0  0  0  0
  9  6  1  0  0  0  0
 10  5  1  0  0  0  0
 10  1  1  1  0  0  0
 11  3  1  0  0  0  0
 13 12  2  0  0  0  0
 14 18  1  0  0  0  0
 15 12  1  6  0  0  0
 16 15  1  0  0  0  0
 17 18  1  0  0  0  0
 17 16  1  0  0  0  0
 18 19  1  0  0  0  0
 18 15  1  0  0  0  0
 20 23  1  0  0  0  0
 22 21  2  0  0  0  0
 22 20  1  0  0  0  0
 24 23  1  1  0  0  0
 24 26  1  0  0  0  0
 24 27  1  0  0  0  0
 25 26  2  0  0  0  0
 27 28  1  0  0  0  0
 28 32  1  6  0  0  0
 28 29  1  0  0  0  0
 29 30  1  0  0  0  0
 30 31  1  0  0  0  0
 33 32  1  0  0  0  0
 33 34  1  0  0  0  0
 36 35  1  0  0  0  0
 37 38  1  6  0  0  0
 37 39  1  0  0  0  0
 37 36  1  0  0  0  0
 39 40  1  0  0  0  0
 41 40  1  0  0  0  0
 42 49  1  0  0  0  0
 43 41  1  6  0  0  0
 43 45  1  0  0  0  0
 45 49  1  0  0  0  0
 45 44  1  1  0  0  0
 46 42  1  0  0  0  0
 47 46  1  0  0  0  0
 47 43  1  0  0  0  0
 48 47  2  0  0  0  0
 49 50  1  1  0  0  0
 51 50  1  0  0  0  0
 52 53  1  0  0  0  0
 52 46  1  0  0  0  0
 53 54  2  0  0  0  0
M  END
>  <MODEL>
5

>  <REMARK>
 VINA RESULT:      -6.2      1.825      2.974
  Name = 
  23 active torsions:
  status: ('A' for Active; 'I' for Inactive)
    1  A    between atoms: C_2  and  O_5
    2  A    between atoms: C_2  and  O_19
    3  A    between atoms: C_2  and  N_50
    4  A    between atoms: N_4  and  C_27
    5  A    between atoms: N_4  and  C_37
    6  A    between atoms: O_5  and  C_48
    7  A    between atoms: C_6  and  C_46
    8  A    between atoms: C_7  and  N_51
    9  A    between atoms: C_9  and  C_41
   10  A    between atoms: N_10  and  C_49
   11  A    between atoms: C_14  and  N_53
   12  A    between atoms: C_15  and  C_21
   13  A    between atoms: C_17  and  C_32
   14  A    between atoms: C_17  and  N_54
   15  A    between atoms: O_19  and  C_39
   16  A    between atoms: C_21  and  N_25
   17  A    between atoms: C_24  and  N_50
   18  A    between atoms: C_27  and  C_33
   19  A    between atoms: C_27  and  C_42
   20  A    between atoms: C_28  and  C_48
   21  A    between atoms: C_32  and  C_37
   22  A    between atoms: C_48  and  C_49
   23  A    between atoms: N_51  and  N_54
                            x       y       z     vdW  Elec       q    Type
                         _______ _______ _______ _____ _____    ______ ____

>  <TORSDO>
F 23

$$$$
=
 OpenBabel10232411283D

 54 57  0  0  1  0  0  0  0  0999 V2000
  189.2510  177.4330  137.5730 C   0  0  1  0  0  3  0  0  0  0  0  0
  186.4280  176.4590  135.8530 C   0  0  0  0  0  0  0  0  0  0  0  0
  186.9270  177.4350  136.6720 C   0  0  0  0  0  0  0  0  0  0  0  0
  185.1080  176.0260  135.9960 C   0  0  0  0  0  0  0  0  0  0  0  0
  188.6550  176.8930  135.1200 C   0  0  0  0  0  3  0  0  0  0  0  0
  184.8140  177.5770  137.7890 C   0  0  0  0  0  0  0  0  0  0  0  0
  187.4370  175.9810  134.8750 C   0  0  0  0  0  3  0  0  0  0  0  0
  184.3300  176.6040  136.9630 N   0  0  0  0  0  0  0  0  0  0  0  0
  183.7730  178.2800  139.0070 Cl  0  0  0  0  0  0  0  0  0  0  0  0
  188.3440  177.7490  136.3640 C   0  0  2  0  0  3  0  0  0  0  0  0
  186.1390  178.0190  137.6580 C   0  0  0  0  0  3  0  0  0  0  0  0
  184.0240  173.9330  135.6380 C   0  0  0  0  0  3  0  0  0  0  0  0
  184.5850  174.9920  135.1530 N   0  0  0  0  0  0  0  0  0  0  0  0
  183.3540  171.4350  136.9010 C   0  0  0  0  0  1  0  0  0  0  0  0
  183.5040  172.8690  134.7200 C   0  0  2  0  0  3  0  0  0  0  0  0
  182.1110  173.1470  134.3920 N   0  0  0  0  0  2  0  0  0  0  0  0
  181.7310  171.8890  135.0300 C   0  0  0  0  0  2  0  0  0  0  0  0
  183.1520  171.5470  135.3940 C   0  0  0  0  0  0  0  0  0  0  0  0
  183.6640  170.3470  134.6220 C   0  0  0  0  0  1  0  0  0  0  0  0
  188.6180  177.6340  140.0320 N   0  0  0  0  0  2  0  0  0  0  0  0
  189.0180  179.5190  138.7150 O   0  0  0  0  0  0  0  0  0  0  0  0
  188.9710  178.2640  138.7980 C   0  0  0  0  0  0  0  0  0  0  0  0
  188.3050  178.3950  141.2320 C   0  0  0  0  0  2  0  0  0  0  0  0
  188.9970  177.7730  142.4350 C   0  0  2  0  0  3  0  0  0  0  0  0
  190.2470  175.7830  142.2600 O   0  0  0  0  0  0  0  0  0  0  0  0
  190.1850  176.9750  142.0060 C   0  0  0  0  0  3  0  0  0  0  0  0
  188.0980  176.9450  143.1140 O   0  0  0  0  0  0  0  0  0  0  0  0
  187.9750  177.4940  144.3980 C   0  0  2  0  0  3  0  0  0  0  0  0
  189.0010  176.9560  145.2950 N   0  0  0  0  0  2  0  0  0  0  0  0
  189.0050  177.6970  146.5520 C   0  0  0  0  0  2  0  0  0  0  0  0
  188.5680  176.8680  147.5840 O   0  0  0  0  0  1  0  0  0  0  0  0
  186.6930  177.2350  144.8990 O   0  0  0  0  0  0  0  0  0  0  0  0
  185.9130  178.3170  144.4810 C   0  0  0  0  0  2  0  0  0  0  0  0
  184.9030  178.6020  145.4850 N   0  0  0  0  0  1  0  0  0  0  0  0
  189.2510  176.0040  137.8920 N   0  0  0  0  0  2  0  0  0  0  0  0
  190.6240  175.5010  137.9830 C   0  0  0  0  0  2  0  0  0  0  0  0
  190.8670  174.3090  137.0620 C   0  0  1  0  0  3  0  0  0  0  0  0
  189.6350  173.5680  136.8730 N   0  0  0  0  0  1  0  0  0  0  0  0
  191.3840  174.7800  135.7120 C   0  0  0  0  0  2  0  0  0  0  0  0
  192.2780  173.7860  135.1390 N   0  0  0  0  0  2  0  0  0  0  0  0
  192.9020  173.1350  136.2150 N   0  0  0  0  0  2  0  0  0  0  0  0
  196.6890  172.2430  137.5580 C   0  0  0  0  0  2  0  0  0  0  0  0
  194.3390  173.2810  136.0350 C   0  0  1  0  0  3  0  0  0  0  0  0
  194.6720  175.3440  137.1810 O   0  0  0  0  0  1  0  0  0  0  0  0
  194.9330  173.9770  137.2650 C   0  0  2  0  0  3  0  0  0  0  0  0
  196.1160  171.4750  136.4550 N   0  0  0  0  0  0  0  0  0  0  0  0
  194.9490  171.9350  135.7450 C   0  0  0  0  0  0  0  0  0  0  0  0
  194.4560  171.2320  134.8200 O   0  0  0  0  0  0  0  0  0  0  0  0
  196.4420  173.7350  137.3800 C   0  0  1  0  0  3  0  0  0  0  0  0
  197.0140  174.4610  138.5920 C   0  0  0  0  0  2  0  0  0  0  0  0
  196.2920  174.1110  139.7300 O   0  0  0  0  0  1  0  0  0  0  0  0
  196.6020  170.1180  136.2310 C   0  0  0  0  0  2  0  0  0  0  0  0
  195.8770  169.1440  137.1050 C   0  0  0  0  0  3  0  0  0  0  0  0
  196.4190  168.6640  138.0820 O   0  0  0  0  0  0  0  0  0  0  0  0
  1 35  1  1  0  0  0
  1 22  1  0  0  0  0
  2  4  1  0  0  0  0
  2  3  2  0  0  0  0
  3 11  1  0  0  0  0
  4  8  2  0  0  0  0
  5 10  1  0  0  0  0
  6  9  1  0  0  0  0
  7  5  2  0  0  0  0
  7  2  1  0  0  0  0
  8  6  1  0  0  0  0
 10  3  1  0  0  0  0
 10  1  1  1  0  0  0
 11  6  2  0  0  0  0
 13 12  2  0  0  0  0
 13  4  1  0  0  0  0
 15 18  1  0  0  0  0
 15 12  1  1  0  0  0
 16 15  1  0  0  0  0
 16 17  1  0  0  0  0
 17 18  1  0  0  0  0
 18 14  1  0  0  0  0
 19 18  1  0  0  0  0
 20 23  1  0  0  0  0
 21 22  2  0  0  0  0
 22 20  1  0  0  0  0
 24 23  1  6  0  0  0
 24 27  1  0  0  0  0
 26 25  2  0  0  0  0
 26 24  1  0  0  0  0
 28 27  1  6  0  0  0
 28 32  1  0  0  0  0
 28 29  1  0  0  0  0
 29 30  1  0  0  0  0
 30 31  1  0  0  0  0
 33 32  1  0  0  0  0
 33 34  1  0  0  0  0
 35 36  1  0  0  0  0
 37 38  1  6  0  0  0
 37 36  1  0  0  0  0
 39 37  1  0  0  0  0
 40 39  1  0  0  0  0
 40 41  1  0  0  0  0
 43 41  1  1  0  0  0
 43 45  1  0  0  0  0
 45 44  1  6  0  0  0
 45 49  1  0  0  0  0
 46 42  1  0  0  0  0
 47 43  1  0  0  0  0
 47 46  1  0  0  0  0
 48 47  2  0  0  0  0
 49 42  1  0  0  0  0
 49 50  1  1  0  0  0
 50 51  1  0  0  0  0
 52 46  1  0  0  0  0
 52 53  1  0  0  0  0
 53 54  2  0  0  0  0
M  END
>  <MODEL>
6

>  <REMARK>
 VINA RESULT:      -5.9      3.984      9.786
  Name = 
  23 active torsions:
  status: ('A' for Active; 'I' for Inactive)
    1  A    between atoms: C_2  and  O_5
    2  A    between atoms: C_2  and  O_19
    3  A    between atoms: C_2  and  N_50
    4  A    between atoms: N_4  and  C_27
    5  A    between atoms: N_4  and  C_37
    6  A    between atoms: O_5  and  C_48
    7  A    between atoms: C_6  and  C_46
    8  A    between atoms: C_7  and  N_51
    9  A    between atoms: C_9  and  C_41
   10  A    between atoms: N_10  and  C_49
   11  A    between atoms: C_14  and  N_53
   12  A    between atoms: C_15  and  C_21
   13  A    between atoms: C_17  and  C_32
   14  A    between atoms: C_17  and  N_54
   15  A    between atoms: O_19  and  C_39
   16  A    between atoms: C_21  and  N_25
   17  A    between atoms: C_24  and  N_50
   18  A    between atoms: C_27  and  C_33
   19  A    between atoms: C_27  and  C_42
   20  A    between atoms: C_28  and  C_48
   21  A    between atoms: C_32  and  C_37
   22  A    between atoms: C_48  and  C_49
   23  A    between atoms: N_51  and  N_54
                            x       y       z     vdW  Elec       q    Type
                         _______ _______ _______ _____ _____    ______ ____

>  <TORSDO>
F 23

$$$$
=
 OpenBabel10232411283D

 54 57  0  0  1  0  0  0  0  0999 V2000
  189.9770  177.0620  139.3610 C   0  0  1  0  0  3  0  0  0  0  0  0
  191.3660  174.8820  137.0820 C   0  0  0  0  0  0  0  0  0  0  0  0
  190.4680  175.9070  137.2080 C   0  0  0  0  0  0  0  0  0  0  0  0
  191.0950  173.8090  136.2320 C   0  0  0  0  0  0  0  0  0  0  0  0
  192.3560  176.4830  138.5450 C   0  0  0  0  0  3  0  0  0  0  0  0
  189.0140  174.8240  135.6450 C   0  0  0  0  0  0  0  0  0  0  0  0
  192.5690  175.0880  137.9260 C   0  0  0  0  0  3  0  0  0  0  0  0
  189.9210  173.8100  135.5280 N   0  0  0  0  0  0  0  0  0  0  0  0
  187.5300  174.7730  134.7180 Cl  0  0  0  0  0  0  0  0  0  0  0  0
  190.9380  176.9460  138.1580 C   0  0  2  0  0  3  0  0  0  0  0  0
  189.2730  175.9080  136.4960 C   0  0  0  0  0  3  0  0  0  0  0  0
  193.0280  172.7710  135.2980 C   0  0  0  0  0  3  0  0  0  0  0  0
  192.0230  172.7230  136.1100 N   0  0  0  0  0  0  0  0  0  0  0  0
  195.5440  173.0880  136.6580 C   0  0  0  0  0  1  0  0  0  0  0  0
  193.9650  171.6060  135.1920 C   0  0  2  0  0  3  0  0  0  0  0  0
  193.5360  170.5520  136.1020 N   0  0  0  0  0  2  0  0  0  0  0  0
  194.8000  170.6880  136.8240 C   0  0  0  0  0  2  0  0  0  0  0  0
  195.2970  171.7810  135.9140 C   0  0  0  0  0  0  0  0  0  0  0  0
  196.4760  171.3290  135.0730 C   0  0  0  0  0  1  0  0  0  0  0  0
  190.0440  176.2150  141.7610 N   0  0  0  0  0  2  0  0  0  0  0  0
  191.7230  177.5890  140.9030 O   0  0  0  0  0  0  0  0  0  0  0  0
  190.6470  176.9690  140.7060 C   0  0  0  0  0  0  0  0  0  0  0  0
  190.6340  176.1230  143.0880 C   0  0  0  0  0  2  0  0  0  0  0  0
  190.1400  177.2680  143.9560 C   0  0  2  0  0  3  0  0  0  0  0  0
  191.9560  177.5780  145.4260 O   0  0  0  0  0  0  0  0  0  0  0  0
  191.2910  178.0420  144.5130 C   0  0  0  0  0  3  0  0  0  0  0  0
  189.3670  176.7600  145.0050 O   0  0  0  0  0  0  0  0  0  0  0  0
  188.2360  177.5850  145.0740 C   0  0  2  0  0  3  0  0  0  0  0  0
  187.9760  177.9970  146.4560 N   0  0  0  0  0  2  0  0  0  0  0  0
  188.9730  177.4150  147.3480 C   0  0  0  0  0  2  0  0  0  0  0  0
  188.4120  177.2100  148.6070 O   0  0  0  0  0  1  0  0  0  0  0  0
  187.1300  176.9120  144.5400 O   0  0  0  0  0  0  0  0  0  0  0  0
  186.4360  177.8770  143.8060 C   0  0  0  0  0  2  0  0  0  0  0  0
  185.4740  178.5420  144.6670 N   0  0  0  0  0  1  0  0  0  0  0  0
  189.1360  178.2580  139.2700 N   0  0  0  0  0  2  0  0  0  0  0  0
  187.7200  177.8940  139.3440 C   0  0  0  0  0  2  0  0  0  0  0  0
  186.9300  178.3880  138.1360 C   0  0  1  0  0  3  0  0  0  0  0  0
  187.8020  179.1250  137.2400 N   0  0  0  0  0  1  0  0  0  0  0  0
  186.3150  177.2160  137.3880 C   0  0  0  0  0  2  0  0  0  0  0  0
  184.9030  177.0930  137.7160 N   0  0  0  0  0  2  0  0  0  0  0  0
  184.5460  178.2590  138.4110 N   0  0  0  0  0  2  0  0  0  0  0  0
  181.3340  179.6570  140.5720 C   0  0  0  0  0  2  0  0  0  0  0  0
  183.3600  177.9470  139.1960 C   0  0  1  0  0  3  0  0  0  0  0  0
  184.3710  177.6510  141.3330 O   0  0  0  0  0  1  0  0  0  0  0  0
  183.5340  178.5040  140.6140 C   0  0  2  0  0  3  0  0  0  0  0  0
  181.1440  179.2450  139.1820 N   0  0  0  0  0  0  0  0  0  0  0  0
  182.1370  178.4660  138.4870 C   0  0  0  0  0  0  0  0  0  0  0  0
  181.9600  178.1550  137.2760 O   0  0  0  0  0  0  0  0  0  0  0  0
  182.1900  178.6540  141.3340 C   0  0  1  0  0  3  0  0  0  0  0  0
  182.3920  179.1800  142.7500 C   0  0  0  0  0  2  0  0  0  0  0  0
  181.3270  178.7810  143.5530 O   0  0  0  0  0  1  0  0  0  0  0  0
  180.0370  179.8300  138.4330 C   0  0  0  0  0  2  0  0  0  0  0  0
  180.3490  181.2400  138.0420 C   0  0  0  0  0  3  0  0  0  0  0  0
  181.5010  181.6310  137.9970 O   0  0  0  0  0  0  0  0  0  0  0  0
  1 35  1  1  0  0  0
  1 22  1  0  0  0  0
  2  3  2  0  0  0  0
  2  7  1  0  0  0  0
  3 10  1  0  0  0  0
  4  2  1  0  0  0  0
  6 11  2  0  0  0  0
  7  5  2  0  0  0  0
  8  6  1  0  0  0  0
  8  4  2  0  0  0  0
  9  6  1  0  0  0  0
 10  5  1  0  0  0  0
 10  1  1  1  0  0  0
 11  3  1  0  0  0  0
 12 13  2  0  0  0  0
 13  4  1  0  0  0  0
 15 12  1  1  0  0  0
 15 18  1  0  0  0  0
 15 16  1  0  0  0  0
 16 17  1  0  0  0  0
 18 14  1  0  0  0  0
 18 17  1  0  0  0  0
 19 18  1  0  0  0  0
 20 23  1  0  0  0  0
 22 21  2  0  0  0  0
 22 20  1  0  0  0  0
 24 23  1  1  0  0  0
 24 26  1  0  0  0  0
 24 27  1  0  0  0  0
 26 25  2  0  0  0  0
 27 28  1  0  0  0  0
 28 32  1  1  0  0  0
 28 29  1  0  0  0  0
 29 30  1  0  0  0  0
 30 31  1  0  0  0  0
 33 32  1  0  0  0  0
 33 34  1  0  0  0  0
 35 36  1  0  0  0  0
 37 38  1  6  0  0  0
 37 36  1  0  0  0  0
 39 40  1  0  0  0  0
 39 37  1  0  0  0  0
 40 41  1  0  0  0  0
 42 49  1  0  0  0  0
 43 41  1  6  0  0  0
 43 45  1  0  0  0  0
 45 44  1  1  0  0  0
 45 49  1  0  0  0  0
 46 42  1  0  0  0  0
 47 46  1  0  0  0  0
 47 43  1  0  0  0  0
 48 47  2  0  0  0  0
 49 50  1  1  0  0  0
 50 51  1  0  0  0  0
 52 46  1  0  0  0  0
 53 52  1  0  0  0  0
 54 53  2  0  0  0  0
M  END
>  <MODEL>
7

>  <REMARK>
 VINA RESULT:      -5.9      1.659      2.536
  Name = 
  23 active torsions:
  status: ('A' for Active; 'I' for Inactive)
    1  A    between atoms: C_2  and  O_5
    2  A    between atoms: C_2  and  O_19
    3  A    between atoms: C_2  and  N_50
    4  A    between atoms: N_4  and  C_27
    5  A    between atoms: N_4  and  C_37
    6  A    between atoms: O_5  and  C_48
    7  A    between atoms: C_6  and  C_46
    8  A    between atoms: C_7  and  N_51
    9  A    between atoms: C_9  and  C_41
   10  A    between atoms: N_10  and  C_49
   11  A    between atoms: C_14  and  N_53
   12  A    between atoms: C_15  and  C_21
   13  A    between atoms: C_17  and  C_32
   14  A    between atoms: C_17  and  N_54
   15  A    between atoms: O_19  and  C_39
   16  A    between atoms: C_21  and  N_25
   17  A    between atoms: C_24  and  N_50
   18  A    between atoms: C_27  and  C_33
   19  A    between atoms: C_27  and  C_42
   20  A    between atoms: C_28  and  C_48
   21  A    between atoms: C_32  and  C_37
   22  A    between atoms: C_48  and  C_49
   23  A    between atoms: N_51  and  N_54
                            x       y       z     vdW  Elec       q    Type
                         _______ _______ _______ _____ _____    ______ ____

>  <TORSDO>
F 23

$$$$
=
 OpenBabel10232411283D

 54 57  0  0  1  0  0  0  0  0999 V2000
  188.9550  176.6340  138.7010 C   0  0  1  0  0  3  0  0  0  0  0  0
  192.0140  175.4050  137.6970 C   0  0  0  0  0  0  0  0  0  0  0  0
  190.7190  175.5830  137.2900 C   0  0  0  0  0  0  0  0  0  0  0  0
  192.7090  174.2450  137.3490 C   0  0  0  0  0  0  0  0  0  0  0  0
  191.3500  177.5660  138.4540 C   0  0  0  0  0  3  0  0  0  0  0  0
  190.7790  173.4630  136.1790 C   0  0  0  0  0  0  0  0  0  0  0  0
  192.5080  176.5510  138.4990 C   0  0  0  0  0  3  0  0  0  0  0  0
  192.0700  173.3010  136.5910 N   0  0  0  0  0  0  0  0  0  0  0  0
  190.0140  172.2230  135.2090 Cl  0  0  0  0  0  0  0  0  0  0  0  0
  190.1590  176.8720  137.7640 C   0  0  2  0  0  3  0  0  0  0  0  0
  190.0690  174.6220  136.5230 C   0  0  0  0  0  3  0  0  0  0  0  0
  194.9990  173.6980  136.9720 C   0  0  0  0  0  3  0  0  0  0  0  0
  194.0590  174.0450  137.7880 N   0  0  0  0  0  0  0  0  0  0  0  0
  197.0220  173.4560  134.9390 C   0  0  0  0  0  1  0  0  0  0  0  0
  196.3940  173.4850  137.4770 C   0  0  2  0  0  3  0  0  0  0  0  0
  196.9370  174.7520  137.9540 N   0  0  0  0  0  2  0  0  0  0  0  0
  197.9770  174.6680  136.9300 C   0  0  0  0  0  2  0  0  0  0  0  0
  197.4610  173.3570  136.3960 C   0  0  0  0  0  0  0  0  0  0  0  0
  198.4240  172.2160  136.6640 C   0  0  0  0  0  1  0  0  0  0  0  0
  189.4750  177.1480  141.1410 N   0  0  0  0  0  2  0  0  0  0  0  0
  188.3190  178.6620  139.7930 O   0  0  0  0  0  0  0  0  0  0  0  0
  188.9020  177.5520  139.8950 C   0  0  0  0  0  0  0  0  0  0  0  0
  189.4180  177.9840  142.3310 C   0  0  0  0  0  2  0  0  0  0  0  0
  189.5890  177.1280  143.5750 C   0  0  2  0  0  3  0  0  0  0  0  0
  191.5980  176.0190  144.1150 O   0  0  0  0  0  0  0  0  0  0  0  0
  190.6410  176.0880  143.3590 C   0  0  0  0  0  3  0  0  0  0  0  0
  188.3750  176.5070  143.8850 O   0  0  0  0  0  0  0  0  0  0  0  0
  188.0060  177.0080  145.1410 C   0  0  2  0  0  3  0  0  0  0  0  0
  186.9920  178.0580  145.0060 N   0  0  0  0  0  2  0  0  0  0  0  0
  186.0290  177.6930  143.9710 C   0  0  0  0  0  2  0  0  0  0  0  0
  186.0010  178.6810  142.9890 O   0  0  0  0  0  1  0  0  0  0  0  0
  189.1390  177.4980  145.8030 O   0  0  0  0  0  0  0  0  0  0  0  0
  189.0150  177.0440  147.1200 C   0  0  0  0  0  2  0  0  0  0  0  0
  189.1590  178.1640  148.0330 N   0  0  0  0  0  1  0  0  0  0  0  0
  187.6870  176.6440  137.9700 N   0  0  0  0  0  2  0  0  0  0  0  0
  187.7960  177.4710  136.7660 C   0  0  0  0  0  2  0  0  0  0  0  0
  187.1600  176.8090  135.5480 C   0  0  1  0  0  3  0  0  0  0  0  0
  186.8540  175.4220  135.8390 N   0  0  0  0  0  1  0  0  0  0  0  0
  185.8830  177.5350  135.1570 C   0  0  0  0  0  2  0  0  0  0  0  0
  184.8620  177.3460  136.1750 N   0  0  0  0  0  2  0  0  0  0  0  0
  183.7230  176.8550  135.5170 N   0  0  0  0  0  2  0  0  0  0  0  0
  182.0320  178.7770  138.7410 C   0  0  0  0  0  2  0  0  0  0  0  0
  182.6110  176.9450  136.4540 C   0  0  1  0  0  3  0  0  0  0  0  0
  183.3330  175.3580  138.0770 O   0  0  0  0  0  1  0  0  0  0  0  0
  183.1320  176.7230  137.8780 C   0  0  2  0  0  3  0  0  0  0  0  0
  181.5840  179.1050  137.3890 N   0  0  0  0  0  0  0  0  0  0  0  0
  181.9020  178.2600  136.2660 C   0  0  0  0  0  0  0  0  0  0  0  0
  181.5300  178.5900  135.1050 O   0  0  0  0  0  0  0  0  0  0  0  0
  182.1620  177.2720  138.9300 C   0  0  1  0  0  3  0  0  0  0  0  0
  182.6880  177.0110  140.3360 C   0  0  0  0  0  2  0  0  0  0  0  0
  183.6950  177.9240  140.6350 O   0  0  0  0  0  1  0  0  0  0  0  0
  181.0060  180.4240  137.1530 C   0  0  0  0  0  2  0  0  0  0  0  0
  181.0960  181.2690  138.3850 C   0  0  0  0  0  3  0  0  0  0  0  0
  181.8310  182.2370  138.4220 O   0  0  0  0  0  0  0  0  0  0  0  0
  1 35  1  6  0  0  0
  1 22  1  0  0  0  0
  2  7  1  0  0  0  0
  3  2  2  0  0  0  0
  3 10  1  0  0  0  0
  4  2  1  0  0  0  0
  4 13  1  0  0  0  0
  5  7  2  0  0  0  0
  6 11  2  0  0  0  0
  6  8  1  0  0  0  0
  8  4  2  0  0  0  0
  9  6  1  0  0  0  0
 10  5  1  0  0  0  0
 10  1  1  1  0  0  0
 11  3  1  0  0  0  0
 12 13  2  0  0  0  0
 14 18  1  0  0  0  0
 15 12  1  6  0  0  0
 15 16  1  0  0  0  0
 17 16  1  0  0  0  0
 18 19  1  0  0  0  0
 18 17  1  0  0  0  0
 18 15  1  0  0  0  0
 20 23  1  0  0  0  0
 21 22  2  0  0  0  0
 22 20  1  0  0  0  0
 24 23  1  6  0  0  0
 24 27  1  0  0  0  0
 26 24  1  0  0  0  0
 26 25  2  0  0  0  0
 28 27  1  6  0  0  0
 28 32  1  0  0  0  0
 29 28  1  0  0  0  0
 30 29  1  0  0  0  0
 31 30  1  0  0  0  0
 32 33  1  0  0  0  0
 33 34  1  0  0  0  0
 36 35  1  0  0  0  0
 37 38  1  1  0  0  0
 37 36  1  0  0  0  0
 39 37  1  0  0  0  0
 39 40  1  0  0  0  0
 41 40  1  0  0  0  0
 42 49  1  0  0  0  0
 43 41  1  6  0  0  0
 43 45  1  0  0  0  0
 45 44  1  1  0  0  0
 45 49  1  0  0  0  0
 46 42  1  0  0  0  0
 47 43  1  0  0  0  0
 47 46  1  0  0  0  0
 48 47  2  0  0  0  0
 49 50  1  1  0  0  0
 50 51  1  0  0  0  0
 52 46  1  0  0  0  0
 52 53  1  0  0  0  0
 53 54  2  0  0  0  0
M  END
>  <MODEL>
8

>  <REMARK>
 VINA RESULT:      -5.7      2.361      3.380
  Name = 
  23 active torsions:
  status: ('A' for Active; 'I' for Inactive)
    1  A    between atoms: C_2  and  O_5
    2  A    between atoms: C_2  and  O_19
    3  A    between atoms: C_2  and  N_50
    4  A    between atoms: N_4  and  C_27
    5  A    between atoms: N_4  and  C_37
    6  A    between atoms: O_5  and  C_48
    7  A    between atoms: C_6  and  C_46
    8  A    between atoms: C_7  and  N_51
    9  A    between atoms: C_9  and  C_41
   10  A    between atoms: N_10  and  C_49
   11  A    between atoms: C_14  and  N_53
   12  A    between atoms: C_15  and  C_21
   13  A    between atoms: C_17  and  C_32
   14  A    between atoms: C_17  and  N_54
   15  A    between atoms: O_19  and  C_39
   16  A    between atoms: C_21  and  N_25
   17  A    between atoms: C_24  and  N_50
   18  A    between atoms: C_27  and  C_33
   19  A    between atoms: C_27  and  C_42
   20  A    between atoms: C_28  and  C_48
   21  A    between atoms: C_32  and  C_37
   22  A    between atoms: C_48  and  C_49
   23  A    between atoms: N_51  and  N_54
                            x       y       z     vdW  Elec       q    Type
                         _______ _______ _______ _____ _____    ______ ____

>  <TORSDO>
F 23

$$$$
=
 OpenBabel10232411283D

 54 57  0  0  1  0  0  0  0  0999 V2000
  188.7940  176.9060  137.4110 C   0  0  1  0  0  3  0  0  0  0  0  0
  191.5580  174.8540  137.2500 C   0  0  0  0  0  0  0  0  0  0  0  0
  190.8810  175.7140  138.0710 C   0  0  0  0  0  0  0  0  0  0  0  0
  192.9540  174.8340  137.2490 C   0  0  0  0  0  0  0  0  0  0  0  0
  189.2370  174.4060  136.9440 C   0  0  0  0  0  3  0  0  0  0  0  0
  192.9620  176.5490  138.9110 C   0  0  0  0  0  0  0  0  0  0  0  0
  190.6390  174.0220  136.4350 C   0  0  0  0  0  3  0  0  0  0  0  0
  193.6230  175.6840  138.0880 N   0  0  0  0  0  0  0  0  0  0  0  0
  193.8690  177.6120  139.9640 Cl  0  0  0  0  0  0  0  0  0  0  0  0
  189.4100  175.5850  137.9220 C   0  0  2  0  0  3  0  0  0  0  0  0
  191.5600  176.5810  138.9210 C   0  0  0  0  0  3  0  0  0  0  0  0
  194.9330  174.0910  136.1440 C   0  0  0  0  0  3  0  0  0  0  0  0
  193.6690  173.9480  136.3780 N   0  0  0  0  0  0  0  0  0  0  0  0
  197.1380  172.6440  137.2950 C   0  0  0  0  0  1  0  0  0  0  0  0
  195.6370  173.1500  135.2140 C   0  0  2  0  0  3  0  0  0  0  0  0
  194.8430  171.9370  135.0570 N   0  0  0  0  0  2  0  0  0  0  0  0
  195.9400  171.1680  135.6430 C   0  0  0  0  0  2  0  0  0  0  0  0
  196.8050  172.3870  135.8290 C   0  0  0  0  0  0  0  0  0  0  0  0
  198.0230  172.3630  134.9250 C   0  0  0  0  0  1  0  0  0  0  0  0
  188.3940  177.6180  139.8240 N   0  0  0  0  0  2  0  0  0  0  0  0
  188.7160  179.1840  138.1240 O   0  0  0  0  0  0  0  0  0  0  0  0
  188.6480  177.9740  138.4620 C   0  0  0  0  0  0  0  0  0  0  0  0
  188.2110  178.6140  140.8680 C   0  0  0  0  0  2  0  0  0  0  0  0
  187.1560  178.1420  141.8560 C   0  0  2  0  0  3  0  0  0  0  0  0
  185.6230  179.5220  140.7160 O   0  0  0  0  0  0  0  0  0  0  0  0
  185.9370  179.0020  141.7750 C   0  0  0  0  0  3  0  0  0  0  0  0
  187.6770  178.1890  143.1530 O   0  0  0  0  0  0  0  0  0  0  0  0
  187.5250  176.8940  143.6670 C   0  0  2  0  0  3  0  0  0  0  0  0
  187.3550  176.9290  145.1220 N   0  0  0  0  0  2  0  0  0  0  0  0
  186.7440  178.1910  145.5250 C   0  0  0  0  0  2  0  0  0  0  0  0
  185.4360  177.9640  145.9480 O   0  0  0  0  0  1  0  0  0  0  0  0
  188.6360  176.1170  143.3170 O   0  0  0  0  0  0  0  0  0  0  0  0
  189.7270  176.7470  143.9220 C   0  0  0  0  0  2  0  0  0  0  0  0
  190.9570  176.1080  143.4870 N   0  0  0  0  0  1  0  0  0  0  0  0
  189.4990  177.4150  136.2330 N   0  0  0  0  0  2  0  0  0  0  0  0
  188.8060  177.0110  135.0080 C   0  0  0  0  0  2  0  0  0  0  0  0
  187.2910  177.1440  135.1270 C   0  0  1  0  0  3  0  0  0  0  0  0
  186.8290  178.2760  134.3460 N   0  0  0  0  0  1  0  0  0  0  0  0
  186.6080  175.8800  134.6330 C   0  0  0  0  0  2  0  0  0  0  0  0
  185.3900  175.6340  135.3910 N   0  0  0  0  0  2  0  0  0  0  0  0
  185.7650  175.5540  136.7420 N   0  0  0  0  0  2  0  0  0  0  0  0
  182.0050  173.8780  136.7090 C   0  0  0  0  0  2  0  0  0  0  0  0
  184.5800  175.1700  137.4970 C   0  0  1  0  0  3  0  0  0  0  0  0
  183.4030  177.2410  137.4590 O   0  0  0  0  0  1  0  0  0  0  0  0
  183.3690  175.9400  136.9590 C   0  0  2  0  0  3  0  0  0  0  0  0
  183.1510  173.0700  137.1190 N   0  0  0  0  0  0  0  0  0  0  0  0
  184.4170  173.6740  137.4500 C   0  0  0  0  0  0  0  0  0  0  0  0
  185.3980  172.9460  137.7680 O   0  0  0  0  0  0  0  0  0  0  0  0
  182.0490  175.2620  137.3420 C   0  0  1  0  0  3  0  0  0  0  0  0
  180.8610  176.0630  136.8230 C   0  0  0  0  0  2  0  0  0  0  0  0
  180.2060  175.3370  135.8310 O   0  0  0  0  0  1  0  0  0  0  0  0
  183.0660  171.6210  136.9670 C   0  0  0  0  0  2  0  0  0  0  0  0
  182.0340  171.2570  135.9470 C   0  0  0  0  0  3  0  0  0  0  0  0
  181.7030  170.0970  135.7850 O   0  0  0  0  0  0  0  0  0  0  0  0
  1 35  1  6  0  0  0
  1 22  1  0  0  0  0
  2  3  2  0  0  0  0
  3 11  1  0  0  0  0
  4  2  1  0  0  0  0
  4  8  2  0  0  0  0
  5 10  1  0  0  0  0
  6 11  2  0  0  0  0
  6  9  1  0  0  0  0
  7  5  2  0  0  0  0
  7  2  1  0  0  0  0
  8  6  1  0  0  0  0
 10  1  1  6  0  0  0
 10  3  1  0  0  0  0
 12 13  2  0  0  0  0
 13  4  1  0  0  0  0
 15 18  1  0  0  0  0
 15 12  1  1  0  0  0
 16 15  1  0  0  0  0
 16 17  1  0  0  0  0
 17 18  1  0  0  0  0
 18 14  1  0  0  0  0
 19 18  1  0  0  0  0
 20 23  1  0  0  0  0
 21 22  2  0  0  0  0
 22 20  1  0  0  0  0
 24 23  1  6  0  0  0
 24 27  1  0  0  0  0
 25 26  2  0  0  0  0
 26 24  1  0  0  0  0
 28 27  1  1  0  0  0
 28 29  1  0  0  0  0
 29 30  1  0  0  0  0
 30 31  1  0  0  0  0
 32 28  1  0  0  0  0
 32 33  1  0  0  0  0
 34 33  1  0  0  0  0
 36 37  1  0  0  0  0
 36 35  1  0  0  0  0
 37 38  1  6  0  0  0
 39 37  1  0  0  0  0
 39 40  1  0  0  0  0
 40 41  1  0  0  0  0
 42 46  1  0  0  0  0
 42 49  1  0  0  0  0
 43 41  1  6  0  0  0
 45 49  1  0  0  0  0
 45 44  1  1  0  0  0
 45 43  1  0  0  0  0
 46 47  1  0  0  0  0
 47 43  1  0  0  0  0
 47 48  2  0  0  0  0
 49 50  1  6  0  0  0
 51 50  1  0  0  0  0
 52 46  1  0  0  0  0
 53 52  1  0  0  0  0
 54 53  2  0  0  0  0
M  END
>  <MODEL>
9

>  <REMARK>
 VINA RESULT:      -5.7      3.534      5.019
  Name = 
  23 active torsions:
  status: ('A' for Active; 'I' for Inactive)
    1  A    between atoms: C_2  and  O_5
    2  A    between atoms: C_2  and  O_19
    3  A    between atoms: C_2  and  N_50
    4  A    between atoms: N_4  and  C_27
    5  A    between atoms: N_4  and  C_37
    6  A    between atoms: O_5  and  C_48
    7  A    between atoms: C_6  and  C_46
    8  A    between atoms: C_7  and  N_51
    9  A    between atoms: C_9  and  C_41
   10  A    between atoms: N_10  and  C_49
   11  A    between atoms: C_14  and  N_53
   12  A    between atoms: C_15  and  C_21
   13  A    between atoms: C_17  and  C_32
   14  A    between atoms: C_17  and  N_54
   15  A    between atoms: O_19  and  C_39
   16  A    between atoms: C_21  and  N_25
   17  A    between atoms: C_24  and  N_50
   18  A    between atoms: C_27  and  C_33
   19  A    between atoms: C_27  and  C_42
   20  A    between atoms: C_28  and  C_48
   21  A    between atoms: C_32  and  C_37
   22  A    between atoms: C_48  and  C_49
   23  A    between atoms: N_51  and  N_54
                            x       y       z     vdW  Elec       q    Type
                         _______ _______ _______ _____ _____    ______ ____

>  <TORSDO>
F 23

$$$$
