=
 OpenBabel10232410543D

 49 53  0  0  1  0  0  0  0  0999 V2000
  184.1790  177.6920  142.4390 C   0  0  0  0  0  2  0  0  0  0  0  0
  186.0030  179.4630  141.2790 C   0  0  2  0  0  3  0  0  0  0  0  0
  182.6240  177.9050  138.9220 C   0  0  1  0  0  3  0  0  0  0  0  0
  185.6070  179.8140  142.7200 C   0  0  0  0  0  2  0  0  0  0  0  0
  184.7310  179.2180  140.4500 C   0  0  1  0  0  3  0  0  0  0  0  0
  184.7540  178.7340  143.4120 C   0  0  2  0  0  3  0  0  0  0  0  0
  185.0410  178.7760  139.0160 C   0  0  0  0  0  2  0  0  0  0  0  0
  183.6580  178.3440  141.1600 C   0  0  1  0  0  3  0  0  0  0  0  0
  183.0620  177.2790  140.2440 C   0  0  0  0  0  2  0  0  0  0  0  0
  183.7580  178.6420  138.1950 C   0  0  0  0  0  2  0  0  0  0  0  0
  182.0560  176.8610  138.0310 C   0  0  0  0  0  3  0  0  0  0  0  0
  183.6450  175.1530  136.8580 C   0  0  0  0  0  0  0  0  0  0  0  0
  183.6740  171.3560  137.0210 C   0  0  0  0  0  1  0  0  0  0  0  0
  182.8460  176.0100  137.4420 C   0  0  0  0  0  0  0  0  0  0  0  0
  185.5400  172.9900  136.8450 C   0  0  0  0  0  2  0  0  0  0  0  0
  185.4440  176.7280  137.0710 O   0  0  0  0  0  1  0  0  0  0  0  0
  185.0890  175.4800  136.5520 C   0  0  1  0  0  0  0  0  0  0  0  0
  185.9980  174.4140  137.1760 C   0  0  0  0  0  2  0  0  0  0  0  0
  183.1650  173.7530  136.6340 C   0  0  0  0  0  2  0  0  0  0  0  0
  184.1060  172.7740  137.3250 C   0  0  1  0  0  3  0  0  0  0  0  0
  185.2980  175.5120  135.0490 C   0  0  0  0  0  1  0  0  0  0  0  0
  185.5640  178.0780  144.4300 N   0  0  0  0  0  2  0  0  0  0  0  0
  185.6030  180.2440  145.9440 O   0  0  0  0  0  0  0  0  0  0  0  0
  183.7810  178.6520  146.2710 O   0  0  0  0  0  0  0  0  0  0  0  0
  185.2470  178.7860  145.9790 S   0  0  0  0  0  0  0  0  0  0  0  0
  186.1940  177.9780  147.2600 C   0  0  0  0  0  2  0  0  0  0  0  0
  188.6780  177.5410  147.1110 C   0  0  0  0  0  0  0  0  0  0  0  0
  187.3360  177.2880  146.6790 N   0  0  0  0  0  2  0  0  0  0  0  0
  188.9020  178.2760  148.1100 O   0  0  0  0  0  0  0  0  0  0  0  0
  189.8210  176.9190  146.3830 C   0  0  0  0  0  2  0  0  0  0  0  0
  189.2710  177.5920  144.1620 C   0  0  0  0  0  2  0  0  0  0  0  0
  190.2290  177.7660  145.2650 N   0  0  0  0  0  0  0  0  0  0  0  0
  189.4710  176.2480  143.4490 C   0  0  0  0  0  2  0  0  0  0  0  0
  191.5940  177.4070  144.8490 C   0  0  0  0  0  2  0  0  0  0  0  0
  190.7840  176.1600  142.9620 O   0  0  0  0  0  0  0  0  0  0  0  0
  191.6190  176.0780  144.0860 C   0  0  0  0  0  2  0  0  0  0  0  0
  186.9610  178.2680  141.2440 C   0  0  0  0  0  2  0  0  0  0  0  0
  188.3740  178.6930  140.8740 C   0  0  0  0  0  2  0  0  0  0  0  0
  188.7030  178.3100  139.4640 C   0  0  0  0  0  0  0  0  0  0  0  0
  188.6800  179.1610  138.5870 O   0  0  0  0  0  0  0  0  0  0  0  0
  191.5170  176.2500  138.9810 C   0  0  0  0  0  3  0  0  0  0  0  0
  189.1030  176.8980  139.1500 C   0  0  1  0  0  3  0  0  0  0  0  0
  188.9840  176.5850  137.6480 C   0  0  0  0  0  2  0  0  0  0  0  0
  190.4620  176.5920  139.7340 C   0  0  0  0  0  3  0  0  0  0  0  0
  190.2780  176.9140  136.9130 C   0  0  0  0  0  2  0  0  0  0  0  0
  191.4020  176.0630  137.4910 C   0  0  1  0  0  3  0  0  0  0  0  0
  192.7200  176.4000  136.8080 C   0  0  0  0  0  2  0  0  0  0  0  0
  193.7790  176.1760  137.6870 O   0  0  0  0  0  0  0  0  0  0  0  0
  194.4240  175.0470  137.1790 C   0  0  0  0  0  1  0  0  0  0  0  0
  1  6  1  0  0  0  0
  2 37  1  1  0  0  0
  2  4  1  0  0  0  0
  3 11  1  6  0  0  0
  3  9  1  0  0  0  0
  4  6  1  0  0  0  0
  5  7  1  6  0  0  0
  5  8  1  0  0  0  0
  5  2  1  0  0  0  0
  6 22  1  1  0  0  0
  8  9  1  6  0  0  0
  8  1  1  0  0  0  0
 10  3  1  0  0  0  0
 10  7  1  0  0  0  0
 12 14  2  0  0  0  0
 14 11  2  0  0  0  0
 15 18  1  0  0  0  0
 15 20  1  0  0  0  0
 17 21  1  6  0  0  0
 17 12  1  0  0  0  0
 17 16  1  0  0  0  0
 17 18  1  0  0  0  0
 19 12  1  0  0  0  0
 19 20  1  0  0  0  0
 20 13  1  6  0  0  0
 22 25  1  0  0  0  0
 23 25  2  0  0  0  0
 25 24  2  0  0  0  0
 25 26  1  0  0  0  0
 27 29  2  0  0  0  0
 28 27  1  0  0  0  0
 28 26  1  0  0  0  0
 30 27  1  0  0  0  0
 31 32  1  0  0  0  0
 32 30  1  0  0  0  0
 33 31  1  0  0  0  0
 34 32  1  0  0  0  0
 35 33  1  0  0  0  0
 35 36  1  0  0  0  0
 36 34  1  0  0  0  0
 38 37  1  0  0  0  0
 39 38  1  0  0  0  0
 40 39  2  0  0  0  0
 41 44  2  0  0  0  0
 42 39  1  6  0  0  0
 42 44  1  0  0  0  0
 43 42  1  0  0  0  0
 45 46  1  0  0  0  0
 45 43  1  0  0  0  0
 46 47  1  6  0  0  0
 46 41  1  0  0  0  0
 47 48  1  0  0  0  0
 49 48  1  0  0  0  0
M  END
>  <MODEL>
1

>  <REMARK>
 VINA RESULT:      -7.8      0.000      0.000
  Name = 
  13 active torsions:
  status: ('A' for Active; 'I' for Inactive)
    1  A    between atoms: C_1  and  C_13
    2  A    between atoms: C_2  and  C_32
    3  A    between atoms: N_4  and  C_32
    4  A    between atoms: N_7  and  C_35
    5  A    between atoms: C_8  and  C_43
    6  A    between atoms: C_16  and  C_41
    7  A    between atoms: C_16  and  C_43
    8  A    between atoms: N_21  and  C_22
    9  A    between atoms: N_21  and  S_38
   10  A    between atoms: C_26  and  O_31
   11  A    between atoms: C_26  and  C_46
   12  A    between atoms: C_28  and  C_41
   13  A    between atoms: C_35  and  S_38
                            x       y       z     vdW  Elec       q    Type
                         _______ _______ _______ _____ _____    ______ ____

>  <TORSDO>
F 13

$$$$
=
 OpenBabel10232410543D

 49 53  0  0  1  0  0  0  0  0999 V2000
  185.6410  178.1640  139.8890 C   0  0  0  0  0  2  0  0  0  0  0  0
  183.0350  179.1080  140.2470 C   0  0  2  0  0  3  0  0  0  0  0  0
  185.6500  178.4460  143.7300 C   0  0  1  0  0  3  0  0  0  0  0  0
  183.7790  179.7350  139.0600 C   0  0  0  0  0  2  0  0  0  0  0  0
  183.9240  179.1860  141.5010 C   0  0  1  0  0  3  0  0  0  0  0  0
  185.1380  179.0740  138.7570 C   0  0  2  0  0  3  0  0  0  0  0  0
  183.2880  178.5020  142.7150 C   0  0  0  0  0  2  0  0  0  0  0  0
  185.4090  178.7930  141.2620 C   0  0  1  0  0  3  0  0  0  0  0  0
  185.9590  177.8730  142.3490 C   0  0  0  0  0  2  0  0  0  0  0  0
  184.1510  178.6900  143.9630 C   0  0  0  0  0  2  0  0  0  0  0  0
  186.1770  177.5410  144.7830 C   0  0  0  0  0  3  0  0  0  0  0  0
  188.7120  176.9160  144.8070 C   0  0  0  0  0  0  0  0  0  0  0  0
  191.3090  177.4080  147.5370 C   0  0  0  0  0  1  0  0  0  0  0  0
  187.4400  177.2250  144.7950 C   0  0  0  0  0  0  0  0  0  0  0  0
  191.5110  177.5260  145.0620 C   0  0  0  0  0  2  0  0  0  0  0  0
  188.8210  177.4010  142.4570 O   0  0  0  0  0  1  0  0  0  0  0  0
  189.5520  176.9240  143.5490 C   0  0  1  0  0  0  0  0  0  0  0  0
  190.7730  177.8290  143.7540 C   0  0  0  0  0  2  0  0  0  0  0  0
  189.3960  176.7090  146.1220 C   0  0  0  0  0  2  0  0  0  0  0  0
  190.5630  177.6800  146.2490 C   0  0  1  0  0  3  0  0  0  0  0  0
  190.0110  175.5120  143.2340 C   0  0  0  0  0  1  0  0  0  0  0  0
  185.0260  178.3190  137.5170 N   0  0  0  0  0  2  0  0  0  0  0  0
  186.5080  178.0320  135.3470 O   0  0  0  0  0  0  0  0  0  0  0  0
  187.4900  179.1930  137.2590 O   0  0  0  0  0  0  0  0  0  0  0  0
  186.6000  178.0560  136.8450 S   0  0  0  0  0  0  0  0  0  0  0  0
  187.2930  176.5110  137.4170 C   0  0  0  0  0  2  0  0  0  0  0  0
  189.7620  176.6150  137.9440 C   0  0  0  0  0  0  0  0  0  0  0  0
  188.6890  176.4110  137.0180 N   0  0  0  0  0  2  0  0  0  0  0  0
  189.5280  176.7570  139.1750 O   0  0  0  0  0  0  0  0  0  0  0  0
  191.1690  176.6480  137.4530 C   0  0  0  0  0  2  0  0  0  0  0  0
  193.3630  175.8410  137.9250 C   0  0  0  0  0  2  0  0  0  0  0  0
  191.9270  175.5350  138.0180 N   0  0  0  0  0  0  0  0  0  0  0  0
  193.8780  175.6960  136.4870 C   0  0  0  0  0  2  0  0  0  0  0  0
  191.5970  174.2970  137.2940 C   0  0  0  0  0  2  0  0  0  0  0  0
  193.6360  174.3930  136.0260 O   0  0  0  0  0  0  0  0  0  0  0  0
  192.2430  174.2690  135.9040 C   0  0  0  0  0  2  0  0  0  0  0  0
  182.5990  177.6730  139.9320 C   0  0  0  0  0  2  0  0  0  0  0  0
  181.4750  177.6420  138.9070 C   0  0  0  0  0  2  0  0  0  0  0  0
  180.9630  176.2500  138.7060 C   0  0  0  0  0  0  0  0  0  0  0  0
  180.4170  175.6680  139.6340 O   0  0  0  0  0  0  0  0  0  0  0  0
  181.8230  173.2170  137.1390 C   0  0  0  0  0  3  0  0  0  0  0  0
  181.0800  175.6000  137.3600 C   0  0  1  0  0  3  0  0  0  0  0  0
  182.3770  176.0000  136.6350 C   0  0  0  0  0  2  0  0  0  0  0  0
  180.8780  174.1070  137.4740 C   0  0  0  0  0  3  0  0  0  0  0  0
  183.5180  175.0490  136.9820 C   0  0  0  0  0  2  0  0  0  0  0  0
  183.1370  173.6420  136.5380 C   0  0  1  0  0  3  0  0  0  0  0  0
  184.2380  172.6590  136.9120 C   0  0  0  0  0  2  0  0  0  0  0  0
  185.1010  173.2450  137.8390 O   0  0  0  0  0  0  0  0  0  0  0  0
  186.3740  172.8370  137.4390 C   0  0  0  0  0  1  0  0  0  0  0  0
  2 37  1  6  0  0  0
  2  5  1  0  0  0  0
  3 10  1  0  0  0  0
  3 11  1  1  0  0  0
  4  2  1  0  0  0  0
  5  7  1  1  0  0  0
  6 22  1  6  0  0  0
  6  4  1  0  0  0  0
  6  1  1  0  0  0  0
  7 10  1  0  0  0  0
  8  1  1  6  0  0  0
  8  5  1  0  0  0  0
  8  9  1  0  0  0  0
  9  3  1  0  0  0  0
 11 14  2  0  0  0  0
 12 19  1  0  0  0  0
 14 12  2  0  0  0  0
 15 20  1  0  0  0  0
 16 17  1  0  0  0  0
 17 21  1  6  0  0  0
 17 18  1  0  0  0  0
 17 12  1  0  0  0  0
 18 15  1  0  0  0  0
 19 20  1  0  0  0  0
 20 13  1  1  0  0  0
 23 25  2  0  0  0  0
 25 24  2  0  0  0  0
 25 26  1  0  0  0  0
 25 22  1  0  0  0  0
 27 29  2  0  0  0  0
 28 26  1  0  0  0  0
 28 27  1  0  0  0  0
 30 27  1  0  0  0  0
 30 32  1  0  0  0  0
 31 32  1  0  0  0  0
 33 31  1  0  0  0  0
 34 32  1  0  0  0  0
 35 33  1  0  0  0  0
 36 35  1  0  0  0  0
 36 34  1  0  0  0  0
 38 37  1  0  0  0  0
 39 38  1  0  0  0  0
 39 40  2  0  0  0  0
 41 44  2  0  0  0  0
 42 44  1  0  0  0  0
 42 39  1  1  0  0  0
 43 45  1  0  0  0  0
 43 42  1  0  0  0  0
 46 47  1  1  0  0  0
 46 45  1  0  0  0  0
 46 41  1  0  0  0  0
 47 48  1  0  0  0  0
 49 48  1  0  0  0  0
M  END
>  <MODEL>
2

>  <REMARK>
 VINA RESULT:      -7.7      3.145      8.289
  Name = 
  13 active torsions:
  status: ('A' for Active; 'I' for Inactive)
    1  A    between atoms: C_1  and  C_13
    2  A    between atoms: C_2  and  C_32
    3  A    between atoms: N_4  and  C_32
    4  A    between atoms: N_7  and  C_35
    5  A    between atoms: C_8  and  C_43
    6  A    between atoms: C_16  and  C_41
    7  A    between atoms: C_16  and  C_43
    8  A    between atoms: N_21  and  C_22
    9  A    between atoms: N_21  and  S_38
   10  A    between atoms: C_26  and  O_31
   11  A    between atoms: C_26  and  C_46
   12  A    between atoms: C_28  and  C_41
   13  A    between atoms: C_35  and  S_38
                            x       y       z     vdW  Elec       q    Type
                         _______ _______ _______ _____ _____    ______ ____

>  <TORSDO>
F 13

$$$$
=
 OpenBabel10232410543D

 49 53  0  0  1  0  0  0  0  0999 V2000
  189.4660  174.4080  137.1170 C   0  0  0  0  0  2  0  0  0  0  0  0
  189.8790  177.1410  137.5300 C   0  0  2  0  0  3  0  0  0  0  0  0
  193.3150  174.4380  136.9930 C   0  0  1  0  0  3  0  0  0  0  0  0
  188.7140  176.8120  136.5870 C   0  0  0  0  0  2  0  0  0  0  0  0
  191.1290  176.3630  137.0830 C   0  0  1  0  0  3  0  0  0  0  0  0
  188.3760  175.3100  136.5160 C   0  0  2  0  0  3  0  0  0  0  0  0
  192.3180  176.5700  138.0260 C   0  0  0  0  0  2  0  0  0  0  0  0
  190.8650  174.8750  136.7190 C   0  0  1  0  0  3  0  0  0  0  0  0
  191.9100  173.9290  137.3050 C   0  0  0  0  0  2  0  0  0  0  0  0
  193.5670  175.8680  137.4950 C   0  0  0  0  0  2  0  0  0  0  0  0
  194.3270  173.5200  137.5750 C   0  0  0  0  0  3  0  0  0  0  0  0
  196.7170  173.3930  136.5310 C   0  0  0  0  0  0  0  0  0  0  0  0
  200.1050  174.0080  138.1400 C   0  0  0  0  0  1  0  0  0  0  0  0
  195.5180  173.4520  137.0550 C   0  0  0  0  0  0  0  0  0  0  0  0
  199.2860  174.4880  135.8420 C   0  0  0  0  0  2  0  0  0  0  0  0
  195.8180  174.1960  134.4540 O   0  0  0  0  0  1  0  0  0  0  0  0
  196.9770  173.7270  135.0800 C   0  0  1  0  0  0  0  0  0  0  0  0
  198.0550  174.8140  134.9900 C   0  0  0  0  0  2  0  0  0  0  0  0
  197.8880  173.1490  137.4300 C   0  0  0  0  0  2  0  0  0  0  0  0
  198.8790  174.3000  137.3030 C   0  0  1  0  0  3  0  0  0  0  0  0
  197.4450  172.4840  134.3460 C   0  0  0  0  0  1  0  0  0  0  0  0
  187.1060  175.0830  137.1920 N   0  0  0  0  0  2  0  0  0  0  0  0
  186.4020  174.5080  134.7110 O   0  0  0  0  0  0  0  0  0  0  0  0
  186.1470  172.7680  136.4060 O   0  0  0  0  0  0  0  0  0  0  0  0
  186.0210  174.2400  136.1380 S   0  0  0  0  0  0  0  0  0  0  0  0
  184.3320  174.7590  136.4050 C   0  0  0  0  0  2  0  0  0  0  0  0
  182.9320  175.7960  138.2350 C   0  0  0  0  0  0  0  0  0  0  0  0
  184.1960  175.3580  137.7250 N   0  0  0  0  0  2  0  0  0  0  0  0
  181.8670  175.5510  137.6060 O   0  0  0  0  0  0  0  0  0  0  0  0
  182.8700  176.5350  139.5280 C   0  0  0  0  0  2  0  0  0  0  0  0
  183.5970  178.4800  138.3570 C   0  0  0  0  0  2  0  0  0  0  0  0
  182.5920  177.9480  139.2890 N   0  0  0  0  0  0  0  0  0  0  0  0
  184.9540  178.6790  139.0440 C   0  0  0  0  0  2  0  0  0  0  0  0
  182.6120  178.6760  140.5680 C   0  0  0  0  0  2  0  0  0  0  0  0
  184.8090  179.5470  140.1370 O   0  0  0  0  0  0  0  0  0  0  0  0
  184.0420  178.8600  141.0890 C   0  0  0  0  0  2  0  0  0  0  0  0
  189.5080  176.8560  138.9890 C   0  0  0  0  0  2  0  0  0  0  0  0
  189.4780  178.1310  139.8190 C   0  0  0  0  0  2  0  0  0  0  0  0
  188.7220  177.9290  141.0950 C   0  0  0  0  0  0  0  0  0  0  0  0
  187.7500  178.6310  141.3380 O   0  0  0  0  0  0  0  0  0  0  0  0
  188.2110  176.7400  144.3690 C   0  0  0  0  0  3  0  0  0  0  0  0
  189.1330  176.8400  142.0410 C   0  0  1  0  0  3  0  0  0  0  0  0
  190.5100  177.1100  142.6710 C   0  0  0  0  0  2  0  0  0  0  0  0
  188.0390  176.5760  143.0500 C   0  0  0  0  0  3  0  0  0  0  0  0
  190.3790  177.9180  143.9580 C   0  0  0  0  0  2  0  0  0  0  0  0
  189.5460  177.1210  144.9550 C   0  0  1  0  0  3  0  0  0  0  0  0
  189.3580  177.9200  146.2360 C   0  0  0  0  0  2  0  0  0  0  0  0
  188.8630  177.0900  147.2430 O   0  0  0  0  0  0  0  0  0  0  0  0
  188.1490  177.9460  148.0840 C   0  0  0  0  0  1  0  0  0  0  0  0
  2 37  1  1  0  0  0
  3  9  1  0  0  0  0
  3 10  1  0  0  0  0
  3 11  1  1  0  0  0
  4  2  1  0  0  0  0
  5  2  1  0  0  0  0
  5  7  1  1  0  0  0
  6  4  1  0  0  0  0
  6  1  1  0  0  0  0
  6 22  1  1  0  0  0
  8  5  1  0  0  0  0
  8  1  1  1  0  0  0
  8  9  1  0  0  0  0
 10  7  1  0  0  0  0
 12 14  2  0  0  0  0
 12 19  1  0  0  0  0
 14 11  2  0  0  0  0
 15 20  1  0  0  0  0
 16 17  1  0  0  0  0
 17 21  1  6  0  0  0
 17 12  1  0  0  0  0
 18 17  1  0  0  0  0
 18 15  1  0  0  0  0
 20 19  1  0  0  0  0
 20 13  1  1  0  0  0
 23 25  2  0  0  0  0
 25 26  1  0  0  0  0
 25 24  2  0  0  0  0
 25 22  1  0  0  0  0
 26 28  1  0  0  0  0
 27 30  1  0  0  0  0
 28 27  1  0  0  0  0
 29 27  2  0  0  0  0
 31 33  1  0  0  0  0
 31 32  1  0  0  0  0
 32 30  1  0  0  0  0
 32 34  1  0  0  0  0
 33 35  1  0  0  0  0
 34 36  1  0  0  0  0
 35 36  1  0  0  0  0
 37 38  1  0  0  0  0
 38 39  1  0  0  0  0
 39 40  2  0  0  0  0
 41 46  1  0  0  0  0
 42 39  1  1  0  0  0
 42 43  1  0  0  0  0
 42 44  1  0  0  0  0
 43 45  1  0  0  0  0
 44 41  2  0  0  0  0
 45 46  1  0  0  0  0
 46 47  1  1  0  0  0
 47 48  1  0  0  0  0
 48 49  1  0  0  0  0
M  END
>  <MODEL>
3

>  <REMARK>
 VINA RESULT:      -7.7      3.407      9.988
  Name = 
  13 active torsions:
  status: ('A' for Active; 'I' for Inactive)
    1  A    between atoms: C_1  and  C_13
    2  A    between atoms: C_2  and  C_32
    3  A    between atoms: N_4  and  C_32
    4  A    between atoms: N_7  and  C_35
    5  A    between atoms: C_8  and  C_43
    6  A    between atoms: C_16  and  C_41
    7  A    between atoms: C_16  and  C_43
    8  A    between atoms: N_21  and  C_22
    9  A    between atoms: N_21  and  S_38
   10  A    between atoms: C_26  and  O_31
   11  A    between atoms: C_26  and  C_46
   12  A    between atoms: C_28  and  C_41
   13  A    between atoms: C_35  and  S_38
                            x       y       z     vdW  Elec       q    Type
                         _______ _______ _______ _____ _____    ______ ____

>  <TORSDO>
F 13

$$$$
=
 OpenBabel10232410543D

 49 53  0  0  1  0  0  0  0  0999 V2000
  188.8540  176.9910  140.5660 C   0  0  0  0  0  2  0  0  0  0  0  0
  191.1910  177.2110  139.0500 C   0  0  2  0  0  3  0  0  0  0  0  0
  187.3250  178.4790  137.3600 C   0  0  1  0  0  3  0  0  0  0  0  0
  191.3510  177.6100  140.5230 C   0  0  0  0  0  2  0  0  0  0  0  0
  189.9710  177.9380  138.4580 C   0  0  1  0  0  3  0  0  0  0  0  0
  190.1140  177.3060  141.3890 C   0  0  2  0  0  3  0  0  0  0  0  0
  189.6880  177.5270  137.0100 C   0  0  0  0  0  2  0  0  0  0  0  0
  188.7130  177.9320  139.3720 C   0  0  1  0  0  3  0  0  0  0  0  0
  187.4300  177.6080  138.6100 C   0  0  0  0  0  2  0  0  0  0  0  0
  188.5360  178.3440  136.4240 C   0  0  0  0  0  2  0  0  0  0  0  0
  186.0820  178.1510  136.6170 C   0  0  0  0  0  3  0  0  0  0  0  0
  185.3470  175.6590  136.3540 C   0  0  0  0  0  0  0  0  0  0  0  0
  182.1140  173.9580  137.4010 C   0  0  0  0  0  1  0  0  0  0  0  0
  185.7150  176.9090  136.4820 C   0  0  0  0  0  0  0  0  0  0  0  0
  184.4540  173.1190  137.3650 C   0  0  0  0  0  2  0  0  0  0  0  0
  187.6290  174.9850  136.6780 O   0  0  0  0  0  1  0  0  0  0  0  0
  186.3430  174.5210  136.3870 C   0  0  1  0  0  0  0  0  0  0  0  0
  185.9310  173.5120  137.4660 C   0  0  0  0  0  2  0  0  0  0  0  0
  183.8870  175.3320  136.3410 C   0  0  0  0  0  2  0  0  0  0  0  0
  183.5700  174.3610  137.4720 C   0  0  1  0  0  3  0  0  0  0  0  0
  186.3770  173.8350  135.0350 C   0  0  0  0  0  1  0  0  0  0  0  0
  190.4250  176.1950  142.2780 N   0  0  0  0  0  2  0  0  0  0  0  0
  191.8990  175.7870  144.4330 O   0  0  0  0  0  0  0  0  0  0  0  0
  191.7650  178.0610  143.5510 O   0  0  0  0  0  0  0  0  0  0  0  0
  190.9890  176.7990  143.7990 S   0  0  0  0  0  0  0  0  0  0  0  0
  189.6250  177.1380  144.9030 C   0  0  0  0  0  2  0  0  0  0  0  0
  187.1710  177.7190  144.7390 C   0  0  0  0  0  0  0  0  0  0  0  0
  188.3860  177.2440  144.1470 N   0  0  0  0  0  2  0  0  0  0  0  0
  187.1710  178.1930  145.9080 O   0  0  0  0  0  0  0  0  0  0  0  0
  185.8990  177.6690  143.9640 C   0  0  0  0  0  2  0  0  0  0  0  0
  184.4680  179.5750  143.9030 C   0  0  0  0  0  2  0  0  0  0  0  0
  185.6570  178.9490  143.3050 N   0  0  0  0  0  0  0  0  0  0  0  0
  183.1770  178.8890  143.4390 C   0  0  0  0  0  2  0  0  0  0  0  0
  185.4780  178.7330  141.8610 C   0  0  0  0  0  2  0  0  0  0  0  0
  183.0910  178.9390  142.0390 O   0  0  0  0  0  0  0  0  0  0  0  0
  184.1120  178.1100  141.5500 C   0  0  0  0  0  2  0  0  0  0  0  0
  191.0920  175.6890  138.8960 C   0  0  0  0  0  2  0  0  0  0  0  0
  191.8210  175.2040  137.6520 C   0  0  0  0  0  2  0  0  0  0  0  0
  193.3010  175.1680  137.8700 C   0  0  0  0  0  0  0  0  0  0  0  0
  193.8510  176.1000  138.4400 O   0  0  0  0  0  0  0  0  0  0  0  0
  196.3550  173.4940  138.3910 C   0  0  0  0  0  3  0  0  0  0  0  0
  194.0900  173.9700  137.4300 C   0  0  1  0  0  3  0  0  0  0  0  0
  194.7870  174.2000  136.0780 C   0  0  0  0  0  2  0  0  0  0  0  0
  195.0220  173.5180  138.5310 C   0  0  0  0  0  3  0  0  0  0  0  0
  196.1740  174.8060  136.2700 C   0  0  0  0  0  2  0  0  0  0  0  0
  197.0230  173.8400  137.0860 C   0  0  1  0  0  3  0  0  0  0  0  0
  198.4020  174.4350  137.3340 C   0  0  0  0  0  2  0  0  0  0  0  0
  198.3430  175.3390  138.3950 O   0  0  0  0  0  0  0  0  0  0  0  0
  199.3640  174.9360  139.2570 C   0  0  0  0  0  1  0  0  0  0  0  0
  1  6  1  0  0  0  0
  2 37  1  1  0  0  0
  2  4  1  0  0  0  0
  3 11  1  6  0  0  0
  3  9  1  0  0  0  0
  4  6  1  0  0  0  0
  5  7  1  6  0  0  0
  5  2  1  0  0  0  0
  5  8  1  0  0  0  0
  6 22  1  1  0  0  0
  8  9  1  6  0  0  0
  8  1  1  0  0  0  0
 10  7  1  0  0  0  0
 10  3  1  0  0  0  0
 12 17  1  0  0  0  0
 12 14  2  0  0  0  0
 14 11  2  0  0  0  0
 15 18  1  0  0  0  0
 15 20  1  0  0  0  0
 17 21  1  6  0  0  0
 17 16  1  0  0  0  0
 17 18  1  0  0  0  0
 19 12  1  0  0  0  0
 19 20  1  0  0  0  0
 20 13  1  6  0  0  0
 22 25  1  0  0  0  0
 24 25  2  0  0  0  0
 25 23  2  0  0  0  0
 25 26  1  0  0  0  0
 27 29  2  0  0  0  0
 28 27  1  0  0  0  0
 28 26  1  0  0  0  0
 30 27  1  0  0  0  0
 32 31  1  0  0  0  0
 32 30  1  0  0  0  0
 33 31  1  0  0  0  0
 34 32  1  0  0  0  0
 35 33  1  0  0  0  0
 36 34  1  0  0  0  0
 36 35  1  0  0  0  0
 38 39  1  0  0  0  0
 38 37  1  0  0  0  0
 39 40  2  0  0  0  0
 41 44  2  0  0  0  0
 42 39  1  1  0  0  0
 42 44  1  0  0  0  0
 43 45  1  0  0  0  0
 43 42  1  0  0  0  0
 45 46  1  0  0  0  0
 46 47  1  1  0  0  0
 46 41  1  0  0  0  0
 47 48  1  0  0  0  0
 48 49  1  0  0  0  0
M  END
>  <MODEL>
4

>  <REMARK>
 VINA RESULT:      -7.5      2.296      5.265
  Name = 
  13 active torsions:
  status: ('A' for Active; 'I' for Inactive)
    1  A    between atoms: C_1  and  C_13
    2  A    between atoms: C_2  and  C_32
    3  A    between atoms: N_4  and  C_32
    4  A    between atoms: N_7  and  C_35
    5  A    between atoms: C_8  and  C_43
    6  A    between atoms: C_16  and  C_41
    7  A    between atoms: C_16  and  C_43
    8  A    between atoms: N_21  and  C_22
    9  A    between atoms: N_21  and  S_38
   10  A    between atoms: C_26  and  O_31
   11  A    between atoms: C_26  and  C_46
   12  A    between atoms: C_28  and  C_41
   13  A    between atoms: C_35  and  S_38
                            x       y       z     vdW  Elec       q    Type
                         _______ _______ _______ _____ _____    ______ ____

>  <TORSDO>
F 13

$$$$
=
 OpenBabel10232410543D

 49 53  0  0  1  0  0  0  0  0999 V2000
  188.1530  176.5270  138.1120 C   0  0  0  0  0  2  0  0  0  0  0  0
  190.2320  177.9110  139.3670 C   0  0  2  0  0  3  0  0  0  0  0  0
  191.1290  174.7070  136.4800 C   0  0  1  0  0  3  0  0  0  0  0  0
  189.0590  178.7950  138.9230 C   0  0  0  0  0  2  0  0  0  0  0  0
  190.6710  177.0230  138.1900 C   0  0  1  0  0  3  0  0  0  0  0  0
  187.8420  178.0030  138.4080 C   0  0  2  0  0  3  0  0  0  0  0  0
  191.7850  176.0450  138.5750 C   0  0  0  0  0  2  0  0  0  0  0  0
  189.4980  176.3670  137.4070 C   0  0  1  0  0  3  0  0  0  0  0  0
  189.7460  174.8920  137.0990 C   0  0  0  0  0  2  0  0  0  0  0  0
  192.2640  175.2540  137.3580 C   0  0  0  0  0  2  0  0  0  0  0  0
  191.3680  173.2700  136.1940 C   0  0  0  0  0  3  0  0  0  0  0  0
  193.8130  172.3600  136.0760 C   0  0  0  0  0  0  0  0  0  0  0  0
  195.4730  169.5940  138.0840 C   0  0  0  0  0  1  0  0  0  0  0  0
  192.5860  172.8140  136.1310 C   0  0  0  0  0  0  0  0  0  0  0  0
  196.3830  171.7340  137.2040 C   0  0  0  0  0  2  0  0  0  0  0  0
  194.5790  174.5770  135.5610 O   0  0  0  0  0  1  0  0  0  0  0  0
  194.9820  173.2470  135.7080 C   0  0  1  0  0  0  0  0  0  0  0  0
  196.0450  173.1750  136.8110 C   0  0  0  0  0  2  0  0  0  0  0  0
  194.0910  170.9680  136.5490 C   0  0  0  0  0  2  0  0  0  0  0  0
  195.1230  171.0060  137.6700 C   0  0  1  0  0  3  0  0  0  0  0  0
  195.5800  172.7810  134.3930 C   0  0  0  0  0  1  0  0  0  0  0  0
  186.7680  178.1050  139.3860 N   0  0  0  0  0  2  0  0  0  0  0  0
  184.8410  179.9130  139.4290 O   0  0  0  0  0  0  0  0  0  0  0  0
  185.7100  179.2180  137.2550 O   0  0  0  0  0  0  0  0  0  0  0  0
  185.3460  178.7450  138.6330 S   0  0  0  0  0  0  0  0  0  0  0  0
  184.0620  177.5070  138.5250 C   0  0  0  0  0  2  0  0  0  0  0  0
  183.8110  175.2010  137.5220 C   0  0  0  0  0  0  0  0  0  0  0  0
  184.4240  176.4950  137.5440 N   0  0  0  0  0  2  0  0  0  0  0  0
  182.8340  174.9420  138.2750 O   0  0  0  0  0  0  0  0  0  0  0  0
  184.3220  174.1540  136.5920 C   0  0  0  0  0  2  0  0  0  0  0  0
  186.1630  172.8460  137.3580 C   0  0  0  0  0  2  0  0  0  0  0  0
  184.6970  172.9550  137.3380 N   0  0  0  0  0  0  0  0  0  0  0  0
  186.7130  172.3900  136.0000 C   0  0  0  0  0  2  0  0  0  0  0  0
  184.0820  171.7740  136.7120 C   0  0  0  0  0  2  0  0  0  0  0  0
  186.1460  171.1550  135.6500 O   0  0  0  0  0  0  0  0  0  0  0  0
  184.7860  171.4000  135.4030 C   0  0  0  0  0  2  0  0  0  0  0  0
  189.8680  177.0910  140.6100 C   0  0  0  0  0  2  0  0  0  0  0  0
  190.9760  177.1320  141.6520 C   0  0  0  0  0  2  0  0  0  0  0  0
  190.4610  177.6120  142.9720 C   0  0  0  0  0  0  0  0  0  0  0  0
  190.6380  178.7770  143.3020 O   0  0  0  0  0  0  0  0  0  0  0  0
  187.2030  176.8540  144.0710 C   0  0  0  0  0  3  0  0  0  0  0  0
  189.6930  176.6760  143.8580 C   0  0  1  0  0  3  0  0  0  0  0  0
  189.7810  177.0790  145.3400 C   0  0  0  0  0  2  0  0  0  0  0  0
  188.2790  176.5090  143.3510 C   0  0  0  0  0  3  0  0  0  0  0  0
  188.6630  178.0460  145.7150 C   0  0  0  0  0  2  0  0  0  0  0  0
  187.3220  177.3600  145.4850 C   0  0  1  0  0  3  0  0  0  0  0  0
  186.1820  178.3160  145.8080 C   0  0  0  0  0  2  0  0  0  0  0  0
  185.1070  178.0770  144.9510 O   0  0  0  0  0  0  0  0  0  0  0  0
  184.5150  179.3280  144.7730 C   0  0  0  0  0  1  0  0  0  0  0  0
  1  6  1  0  0  0  0
  2 37  1  1  0  0  0
  3 11  1  1  0  0  0
  3  9  1  0  0  0  0
  3 10  1  0  0  0  0
  4  2  1  0  0  0  0
  5  7  1  1  0  0  0
  5  2  1  0  0  0  0
  6  4  1  0  0  0  0
  6 22  1  1  0  0  0
  8  9  1  1  0  0  0
  8  1  1  0  0  0  0
  8  5  1  0  0  0  0
 10  7  1  0  0  0  0
 12 14  2  0  0  0  0
 12 19  1  0  0  0  0
 14 11  2  0  0  0  0
 15 20  1  0  0  0  0
 16 17  1  0  0  0  0
 17 21  1  6  0  0  0
 17 12  1  0  0  0  0
 17 18  1  0  0  0  0
 18 15  1  0  0  0  0
 19 20  1  0  0  0  0
 20 13  1  6  0  0  0
 24 25  2  0  0  0  0
 25 22  1  0  0  0  0
 25 23  2  0  0  0  0
 26 25  1  0  0  0  0
 27 28  1  0  0  0  0
 27 29  2  0  0  0  0
 28 26  1  0  0  0  0
 30 32  1  0  0  0  0
 30 27  1  0  0  0  0
 32 31  1  0  0  0  0
 33 31  1  0  0  0  0
 34 32  1  0  0  0  0
 35 33  1  0  0  0  0
 36 35  1  0  0  0  0
 36 34  1  0  0  0  0
 37 38  1  0  0  0  0
 38 39  1  0  0  0  0
 39 40  2  0  0  0  0
 41 46  1  0  0  0  0
 42 39  1  6  0  0  0
 42 43  1  0  0  0  0
 43 45  1  0  0  0  0
 44 42  1  0  0  0  0
 44 41  2  0  0  0  0
 46 45  1  0  0  0  0
 46 47  1  6  0  0  0
 48 47  1  0  0  0  0
 49 48  1  0  0  0  0
M  END
>  <MODEL>
5

>  <REMARK>
 VINA RESULT:      -7.5      3.144      9.047
  Name = 
  13 active torsions:
  status: ('A' for Active; 'I' for Inactive)
    1  A    between atoms: C_1  and  C_13
    2  A    between atoms: C_2  and  C_32
    3  A    between atoms: N_4  and  C_32
    4  A    between atoms: N_7  and  C_35
    5  A    between atoms: C_8  and  C_43
    6  A    between atoms: C_16  and  C_41
    7  A    between atoms: C_16  and  C_43
    8  A    between atoms: N_21  and  C_22
    9  A    between atoms: N_21  and  S_38
   10  A    between atoms: C_26  and  O_31
   11  A    between atoms: C_26  and  C_46
   12  A    between atoms: C_28  and  C_41
   13  A    between atoms: C_35  and  S_38
                            x       y       z     vdW  Elec       q    Type
                         _______ _______ _______ _____ _____    ______ ____

>  <TORSDO>
F 13

$$$$
=
 OpenBabel10232410543D

 49 53  0  0  1  0  0  0  0  0999 V2000
  188.8430  176.7740  137.6400 C   0  0  0  0  0  2  0  0  0  0  0  0
  190.3380  177.7350  139.7970 C   0  0  2  0  0  3  0  0  0  0  0  0
  192.3420  175.6900  136.4490 C   0  0  1  0  0  3  0  0  0  0  0  0
  189.2200  178.6780  139.3300 C   0  0  0  0  0  2  0  0  0  0  0  0
  191.1730  177.2990  138.5800 C   0  0  1  0  0  3  0  0  0  0  0  0
  188.2860  178.0600  138.2720 C   0  0  2  0  0  3  0  0  0  0  0  0
  192.2610  176.2850  138.9490 C   0  0  0  0  0  2  0  0  0  0  0  0
  190.3340  176.8980  137.3340 C   0  0  1  0  0  3  0  0  0  0  0  0
  190.8340  175.6160  136.6740 C   0  0  0  0  0  2  0  0  0  0  0  0
  193.1340  175.9550  137.7380 C   0  0  0  0  0  2  0  0  0  0  0  0
  192.8220  174.4360  135.8170 C   0  0  0  0  0  3  0  0  0  0  0  0
  195.3650  173.8410  135.8840 C   0  0  0  0  0  0  0  0  0  0  0  0
  197.1030  170.7700  137.2940 C   0  0  0  0  0  1  0  0  0  0  0  0
  194.0900  174.1380  135.8460 C   0  0  0  0  0  0  0  0  0  0  0  0
  197.8120  173.1520  137.2290 C   0  0  0  0  0  2  0  0  0  0  0  0
  195.8700  176.1720  136.1590 O   0  0  0  0  0  1  0  0  0  0  0  0
  196.4340  174.9040  135.9940 C   0  0  1  0  0  0  0  0  0  0  0  0
  197.3290  174.6050  137.2040 C   0  0  0  0  0  2  0  0  0  0  0  0
  195.7700  172.4040  135.9880 C   0  0  0  0  0  2  0  0  0  0  0  0
  196.6160  172.2010  137.2390 C   0  0  1  0  0  3  0  0  0  0  0  0
  197.2730  174.9160  134.7300 C   0  0  0  0  0  1  0  0  0  0  0  0
  186.9910  177.7990  138.8840 N   0  0  0  0  0  2  0  0  0  0  0  0
  186.3170  178.6340  136.4690 O   0  0  0  0  0  0  0  0  0  0  0  0
  185.0790  176.7550  137.4170 O   0  0  0  0  0  0  0  0  0  0  0  0
  185.7290  178.0720  137.7300 S   0  0  0  0  0  0  0  0  0  0  0  0
  184.5080  179.2090  138.3690 C   0  0  0  0  0  2  0  0  0  0  0  0
  184.3220  178.7410  140.8450 C   0  0  0  0  0  0  0  0  0  0  0  0
  184.8060  179.5350  139.7560 N   0  0  0  0  0  2  0  0  0  0  0  0
  183.7300  177.6490  140.6290 O   0  0  0  0  0  0  0  0  0  0  0  0
  184.5310  179.2000  142.2480 C   0  0  0  0  0  2  0  0  0  0  0  0
  182.8710  178.4100  143.7670 C   0  0  0  0  0  2  0  0  0  0  0  0
  184.1930  178.1320  143.1850 N   0  0  0  0  0  0  0  0  0  0  0  0
  182.9380  179.5400  144.8020 C   0  0  0  0  0  2  0  0  0  0  0  0
  185.2280  178.0470  144.2270 C   0  0  0  0  0  2  0  0  0  0  0  0
  183.8450  179.2010  145.8170 O   0  0  0  0  0  0  0  0  0  0  0  0
  185.1180  179.2040  145.2260 C   0  0  0  0  0  2  0  0  0  0  0  0
  189.7680  176.5410  140.5700 C   0  0  0  0  0  2  0  0  0  0  0  0
  190.2530  176.5250  142.0120 C   0  0  0  0  0  2  0  0  0  0  0  0
  189.1080  176.6160  142.9710 C   0  0  0  0  0  0  0  0  0  0  0  0
  188.2540  175.7400  142.9760 O   0  0  0  0  0  0  0  0  0  0  0  0
  191.0100  178.3370  145.3820 C   0  0  0  0  0  3  0  0  0  0  0  0
  189.0410  177.7530  143.9470 C   0  0  1  0  0  3  0  0  0  0  0  0
  188.3010  177.3640  145.2380 C   0  0  0  0  0  2  0  0  0  0  0  0
  190.4170  178.3310  144.1800 C   0  0  0  0  0  3  0  0  0  0  0  0
  189.2620  176.7850  146.2710 C   0  0  0  0  0  2  0  0  0  0  0  0
  190.3050  177.8390  146.6180 C   0  0  1  0  0  3  0  0  0  0  0  0
  191.3090  177.2760  147.6140 C   0  0  0  0  0  2  0  0  0  0  0  0
  192.2770  176.5320  146.9400 O   0  0  0  0  0  0  0  0  0  0  0  0
  192.2670  175.2880  147.5740 C   0  0  0  0  0  1  0  0  0  0  0  0
  1  6  1  0  0  0  0
  2 37  1  6  0  0  0
  3 11  1  1  0  0  0
  3  9  1  0  0  0  0
  3 10  1  0  0  0  0
  4  2  1  0  0  0  0
  5  7  1  1  0  0  0
  5  2  1  0  0  0  0
  6 22  1  1  0  0  0
  6  4  1  0  0  0  0
  8  9  1  1  0  0  0
  8  1  1  0  0  0  0
  8  5  1  0  0  0  0
 10  7  1  0  0  0  0
 11 14  2  0  0  0  0
 12 19  1  0  0  0  0
 12 17  1  0  0  0  0
 14 12  2  0  0  0  0
 15 20  1  0  0  0  0
 17 21  1  6  0  0  0
 17 16  1  0  0  0  0
 17 18  1  0  0  0  0
 18 15  1  0  0  0  0
 19 20  1  0  0  0  0
 20 13  1  6  0  0  0
 23 25  2  0  0  0  0
 24 25  2  0  0  0  0
 25 26  1  0  0  0  0
 25 22  1  0  0  0  0
 26 28  1  0  0  0  0
 27 30  1  0  0  0  0
 28 27  1  0  0  0  0
 29 27  2  0  0  0  0
 30 32  1  0  0  0  0
 31 33  1  0  0  0  0
 32 31  1  0  0  0  0
 32 34  1  0  0  0  0
 33 35  1  0  0  0  0
 34 36  1  0  0  0  0
 36 35  1  0  0  0  0
 37 38  1  0  0  0  0
 38 39  1  0  0  0  0
 39 40  2  0  0  0  0
 41 46  1  0  0  0  0
 42 39  1  6  0  0  0
 42 44  1  0  0  0  0
 42 43  1  0  0  0  0
 43 45  1  0  0  0  0
 44 41  2  0  0  0  0
 45 46  1  0  0  0  0
 46 47  1  1  0  0  0
 48 49  1  0  0  0  0
 48 47  1  0  0  0  0
M  END
>  <MODEL>
6

>  <REMARK>
 VINA RESULT:      -7.4      3.165      8.768
  Name = 
  13 active torsions:
  status: ('A' for Active; 'I' for Inactive)
    1  A    between atoms: C_1  and  C_13
    2  A    between atoms: C_2  and  C_32
    3  A    between atoms: N_4  and  C_32
    4  A    between atoms: N_7  and  C_35
    5  A    between atoms: C_8  and  C_43
    6  A    between atoms: C_16  and  C_41
    7  A    between atoms: C_16  and  C_43
    8  A    between atoms: N_21  and  C_22
    9  A    between atoms: N_21  and  S_38
   10  A    between atoms: C_26  and  O_31
   11  A    between atoms: C_26  and  C_46
   12  A    between atoms: C_28  and  C_41
   13  A    between atoms: C_35  and  S_38
                            x       y       z     vdW  Elec       q    Type
                         _______ _______ _______ _____ _____    ______ ____

>  <TORSDO>
F 13

$$$$
=
 OpenBabel10232410543D

 49 53  0  0  1  0  0  0  0  0999 V2000
  185.9170  178.0100  140.1370 C   0  0  0  0  0  2  0  0  0  0  0  0
  188.6300  178.4170  140.6700 C   0  0  2  0  0  3  0  0  0  0  0  0
  187.1710  178.3770  136.5140 C   0  0  1  0  0  3  0  0  0  0  0  0
  187.6790  179.1540  141.6240 C   0  0  0  0  0  2  0  0  0  0  0  0
  188.2110  178.7020  139.2170 C   0  0  1  0  0  3  0  0  0  0  0  0
  186.1970  178.7740  141.4420 C   0  0  2  0  0  3  0  0  0  0  0  0
  189.0600  177.9320  138.2010 C   0  0  0  0  0  2  0  0  0  0  0  0
  186.6810  178.6110  138.9590 C   0  0  1  0  0  3  0  0  0  0  0  0
  186.3420  177.8470  137.6820 C   0  0  0  0  0  2  0  0  0  0  0  0
  188.6840  178.3180  136.7700 C   0  0  0  0  0  2  0  0  0  0  0  0
  186.8450  177.6220  135.2780 C   0  0  0  0  0  3  0  0  0  0  0  0
  186.6010  175.0230  135.3700 C   0  0  0  0  0  0  0  0  0  0  0  0
  183.6500  172.8260  134.4170 C   0  0  0  0  0  1  0  0  0  0  0  0
  186.7260  176.3260  135.3200 C   0  0  0  0  0  0  0  0  0  0  0  0
  185.3370  172.5860  136.2270 C   0  0  0  0  0  2  0  0  0  0  0  0
  187.9850  174.9950  137.3330 O   0  0  0  0  0  1  0  0  0  0  0  0
  187.3100  174.1880  136.4130 C   0  0  1  0  0  0  0  0  0  0  0  0
  186.2830  173.3360  137.1700 C   0  0  0  0  0  2  0  0  0  0  0  0
  185.6020  174.3570  134.4780 C   0  0  0  0  0  2  0  0  0  0  0  0
  184.6040  173.5740  135.3220 C   0  0  1  0  0  3  0  0  0  0  0  0
  188.3240  173.2830  135.7380 C   0  0  0  0  0  1  0  0  0  0  0  0
  185.7710  177.9830  142.5880 N   0  0  0  0  0  2  0  0  0  0  0  0
  185.4020  178.6850  145.1090 O   0  0  0  0  0  0  0  0  0  0  0  0
  185.2470  180.4250  143.4030 O   0  0  0  0  0  0  0  0  0  0  0  0
  184.9300  178.9920  143.7180 S   0  0  0  0  0  0  0  0  0  0  0  0
  183.1650  178.7310  143.6220 C   0  0  0  0  0  2  0  0  0  0  0  0
  181.3330  178.8640  141.8870 C   0  0  0  0  0  0  0  0  0  0  0  0
  182.7200  178.8210  142.2400 N   0  0  0  0  0  2  0  0  0  0  0  0
  180.4480  178.9610  142.7800 O   0  0  0  0  0  0  0  0  0  0  0  0
  180.9300  178.8070  140.4530 C   0  0  0  0  0  2  0  0  0  0  0  0
  182.4110  179.7330  138.8310 C   0  0  0  0  0  2  0  0  0  0  0  0
  182.0910  178.5300  139.6120 N   0  0  0  0  0  0  0  0  0  0  0  0
  181.4100  179.9450  137.6870 C   0  0  0  0  0  2  0  0  0  0  0  0
  181.8010  177.3840  138.7350 C   0  0  0  0  0  2  0  0  0  0  0  0
  181.4010  178.8200  136.8500 O   0  0  0  0  0  0  0  0  0  0  0  0
  180.8450  177.7720  137.6010 C   0  0  0  0  0  2  0  0  0  0  0  0
  188.6720  176.9170  140.9800 C   0  0  0  0  0  2  0  0  0  0  0  0
  189.1470  176.6520  142.4010 C   0  0  0  0  0  2  0  0  0  0  0  0
  190.5980  176.9870  142.5580 C   0  0  0  0  0  0  0  0  0  0  0  0
  191.3830  176.7060  141.6630 O   0  0  0  0  0  0  0  0  0  0  0  0
  191.1230  176.5480  146.0120 C   0  0  0  0  0  3  0  0  0  0  0  0
  191.0680  177.7040  143.7890 C   0  0  1  0  0  3  0  0  0  0  0  0
  189.9830  178.6250  144.3720 C   0  0  0  0  0  2  0  0  0  0  0  0
  191.6380  176.7220  144.7870 C   0  0  0  0  0  3  0  0  0  0  0  0
  189.1050  177.8800  145.3720 C   0  0  0  0  0  2  0  0  0  0  0  0
  189.9780  177.3860  146.5190 C   0  0  1  0  0  3  0  0  0  0  0  0
  189.1390  176.5970  147.5140 C   0  0  0  0  0  2  0  0  0  0  0  0
  187.9150  177.2350  147.7110 O   0  0  0  0  0  0  0  0  0  0  0  0
  188.1350  178.0900  148.7920 C   0  0  0  0  0  1  0  0  0  0  0  0
  1  6  1  0  0  0  0
  2 37  1  1  0  0  0
  2  4  1  0  0  0  0
  3 11  1  6  0  0  0
  3 10  1  0  0  0  0
  3  9  1  0  0  0  0
  5  7  1  6  0  0  0
  5  2  1  0  0  0  0
  6  4  1  0  0  0  0
  6 22  1  1  0  0  0
  8  9  1  6  0  0  0
  8  5  1  0  0  0  0
  8  1  1  0  0  0  0
 10  7  1  0  0  0  0
 11 14  2  0  0  0  0
 12 17  1  0  0  0  0
 14 12  2  0  0  0  0
 15 18  1  0  0  0  0
 17 21  1  6  0  0  0
 17 18  1  0  0  0  0
 17 16  1  0  0  0  0
 19 20  1  0  0  0  0
 19 12  1  0  0  0  0
 20 13  1  6  0  0  0
 20 15  1  0  0  0  0
 22 25  1  0  0  0  0
 24 25  2  0  0  0  0
 25 23  2  0  0  0  0
 26 25  1  0  0  0  0
 27 28  1  0  0  0  0
 27 29  2  0  0  0  0
 28 26  1  0  0  0  0
 30 27  1  0  0  0  0
 31 32  1  0  0  0  0
 32 30  1  0  0  0  0
 33 31  1  0  0  0  0
 34 32  1  0  0  0  0
 35 36  1  0  0  0  0
 35 33  1  0  0  0  0
 36 34  1  0  0  0  0
 37 38  1  0  0  0  0
 38 39  1  0  0  0  0
 40 39  2  0  0  0  0
 41 46  1  0  0  0  0
 42 39  1  6  0  0  0
 42 43  1  0  0  0  0
 42 44  1  0  0  0  0
 43 45  1  0  0  0  0
 44 41  2  0  0  0  0
 45 46  1  0  0  0  0
 46 47  1  1  0  0  0
 47 48  1  0  0  0  0
 48 49  1  0  0  0  0
M  END
>  <MODEL>
7

>  <REMARK>
 VINA RESULT:      -7.2      2.387      6.675
  Name = 
  13 active torsions:
  status: ('A' for Active; 'I' for Inactive)
    1  A    between atoms: C_1  and  C_13
    2  A    between atoms: C_2  and  C_32
    3  A    between atoms: N_4  and  C_32
    4  A    between atoms: N_7  and  C_35
    5  A    between atoms: C_8  and  C_43
    6  A    between atoms: C_16  and  C_41
    7  A    between atoms: C_16  and  C_43
    8  A    between atoms: N_21  and  C_22
    9  A    between atoms: N_21  and  S_38
   10  A    between atoms: C_26  and  O_31
   11  A    between atoms: C_26  and  C_46
   12  A    between atoms: C_28  and  C_41
   13  A    between atoms: C_35  and  S_38
                            x       y       z     vdW  Elec       q    Type
                         _______ _______ _______ _____ _____    ______ ____

>  <TORSDO>
F 13

$$$$
=
 OpenBabel10232410543D

 49 53  0  0  1  0  0  0  0  0999 V2000
  189.9140  176.3650  139.0010 C   0  0  0  0  0  2  0  0  0  0  0  0
  188.3120  178.4570  138.0680 C   0  0  2  0  0  3  0  0  0  0  0  0
  188.4540  177.5230  142.3710 C   0  0  1  0  0  3  0  0  0  0  0  0
  189.6900  178.3660  137.3980 C   0  0  0  0  0  2  0  0  0  0  0  0
  188.4880  178.4150  139.5960 C   0  0  1  0  0  3  0  0  0  0  0  0
  190.4860  177.1040  137.7800 C   0  0  2  0  0  3  0  0  0  0  0  0
  187.1500  178.4130  140.3420 C   0  0  0  0  0  2  0  0  0  0  0  0
  189.4910  177.3380  140.0990 C   0  0  1  0  0  3  0  0  0  0  0  0
  188.9680  176.5600  141.3030 C   0  0  0  0  0  2  0  0  0  0  0  0
  187.3660  178.4760  141.8540 C   0  0  0  0  0  2  0  0  0  0  0  0
  187.9350  176.7590  143.5340 C   0  0  0  0  0  3  0  0  0  0  0  0
  189.1650  176.9050  145.8340 C   0  0  0  0  0  0  0  0  0  0  0  0
  187.8460  177.9960  149.2270 C   0  0  0  0  0  1  0  0  0  0  0  0
  188.5480  176.8280  144.6810 C   0  0  0  0  0  0  0  0  0  0  0  0
  190.0800  178.2960  148.1790 C   0  0  0  0  0  2  0  0  0  0  0  0
  191.1790  177.5220  144.6810 O   0  0  0  0  0  1  0  0  0  0  0  0
  190.6390  177.2240  145.9360 C   0  0  1  0  0  0  0  0  0  0  0  0
  190.8380  178.4360  146.8550 C   0  0  0  0  0  2  0  0  0  0  0  0
  188.3580  176.8400  147.0920 C   0  0  0  0  0  2  0  0  0  0  0  0
  188.5880  178.1030  147.9130 C   0  0  1  0  0  3  0  0  0  0  0  0
  191.3810  176.0280  146.5020 C   0  0  0  0  0  1  0  0  0  0  0  0
  190.5330  176.2120  136.6290 N   0  0  0  0  0  2  0  0  0  0  0  0
  191.6230  174.0880  137.7620 O   0  0  0  0  0  0  0  0  0  0  0  0
  192.1370  174.5240  135.4140 O   0  0  0  0  0  0  0  0  0  0  0  0
  191.9050  175.1630  136.7530 S   0  0  0  0  0  0  0  0  0  0  0  0
  193.3640  176.0690  137.2480 C   0  0  0  0  0  2  0  0  0  0  0  0
  195.5300  175.7730  135.9810 C   0  0  0  0  0  0  0  0  0  0  0  0
  194.5600  175.3050  136.9250 N   0  0  0  0  0  2  0  0  0  0  0  0
  195.4450  176.9340  135.4960 O   0  0  0  0  0  0  0  0  0  0  0  0
  196.6590  174.8870  135.5770 C   0  0  0  0  0  2  0  0  0  0  0  0
  199.0260  175.0470  135.3470 C   0  0  0  0  0  2  0  0  0  0  0  0
  197.8900  175.3000  136.2450 N   0  0  0  0  0  0  0  0  0  0  0  0
  199.3600  173.5510  135.2680 C   0  0  0  0  0  2  0  0  0  0  0  0
  198.0340  174.5630  137.5100 C   0  0  0  0  0  2  0  0  0  0  0  0
  199.6450  173.0610  136.5510 O   0  0  0  0  0  0  0  0  0  0  0  0
  198.4400  173.1050  137.2680 C   0  0  0  0  0  2  0  0  0  0  0  0
  187.3760  177.3550  137.5600 C   0  0  0  0  0  2  0  0  0  0  0  0
  186.1360  177.9350  136.8960 C   0  0  0  0  0  2  0  0  0  0  0  0
  184.9050  177.1840  137.2970 C   0  0  0  0  0  0  0  0  0  0  0  0
  184.8770  175.9670  137.1850 O   0  0  0  0  0  0  0  0  0  0  0  0
  183.9740  179.2840  139.9650 C   0  0  0  0  0  3  0  0  0  0  0  0
  183.7350  177.9260  137.8730 C   0  0  1  0  0  3  0  0  0  0  0  0
  182.7950  176.9990  138.6630 C   0  0  0  0  0  2  0  0  0  0  0  0
  184.2060  179.1310  138.6540 C   0  0  0  0  0  3  0  0  0  0  0  0
  183.2150  176.9070  140.1260 C   0  0  0  0  0  2  0  0  0  0  0  0
  183.1460  178.2970  140.7460 C   0  0  1  0  0  3  0  0  0  0  0  0
  183.6030  178.2480  142.1970 C   0  0  0  0  0  2  0  0  0  0  0  0
  182.9210  179.2110  142.9410 O   0  0  0  0  0  0  0  0  0  0  0  0
  183.4430  179.0930  144.2300 C   0  0  0  0  0  1  0  0  0  0  0  0
  2 37  1  6  0  0  0
  2  5  1  0  0  0  0
  3 11  1  1  0  0  0
  4  6  1  0  0  0  0
  4  2  1  0  0  0  0
  5  8  1  0  0  0  0
  5  7  1  1  0  0  0
  6 22  1  6  0  0  0
  6  1  1  0  0  0  0
  7 10  1  0  0  0  0
  8  1  1  6  0  0  0
  8  9  1  0  0  0  0
  9  3  1  0  0  0  0
 10  3  1  0  0  0  0
 11 14  2  0  0  0  0
 12 17  1  0  0  0  0
 12 19  1  0  0  0  0
 14 12  2  0  0  0  0
 16 17  1  0  0  0  0
 17 21  1  1  0  0  0
 17 18  1  0  0  0  0
 18 15  1  0  0  0  0
 19 20  1  0  0  0  0
 20 15  1  0  0  0  0
 20 13  1  1  0  0  0
 22 25  1  0  0  0  0
 24 25  2  0  0  0  0
 25 26  1  0  0  0  0
 25 23  2  0  0  0  0
 27 28  1  0  0  0  0
 28 26  1  0  0  0  0
 29 27  2  0  0  0  0
 30 27  1  0  0  0  0
 30 32  1  0  0  0  0
 31 32  1  0  0  0  0
 32 34  1  0  0  0  0
 33 31  1  0  0  0  0
 33 35  1  0  0  0  0
 35 36  1  0  0  0  0
 36 34  1  0  0  0  0
 38 39  1  0  0  0  0
 38 37  1  0  0  0  0
 40 39  2  0  0  0  0
 41 46  1  0  0  0  0
 42 39  1  1  0  0  0
 42 44  1  0  0  0  0
 42 43  1  0  0  0  0
 43 45  1  0  0  0  0
 44 41  2  0  0  0  0
 45 46  1  0  0  0  0
 46 47  1  1  0  0  0
 47 48  1  0  0  0  0
 48 49  1  0  0  0  0
M  END
>  <MODEL>
8

>  <REMARK>
 VINA RESULT:      -7.2      3.811     10.049
  Name = 
  13 active torsions:
  status: ('A' for Active; 'I' for Inactive)
    1  A    between atoms: C_1  and  C_13
    2  A    between atoms: C_2  and  C_32
    3  A    between atoms: N_4  and  C_32
    4  A    between atoms: N_7  and  C_35
    5  A    between atoms: C_8  and  C_43
    6  A    between atoms: C_16  and  C_41
    7  A    between atoms: C_16  and  C_43
    8  A    between atoms: N_21  and  C_22
    9  A    between atoms: N_21  and  S_38
   10  A    between atoms: C_26  and  O_31
   11  A    between atoms: C_26  and  C_46
   12  A    between atoms: C_28  and  C_41
   13  A    between atoms: C_35  and  S_38
                            x       y       z     vdW  Elec       q    Type
                         _______ _______ _______ _____ _____    ______ ____

>  <TORSDO>
F 13

$$$$
=
 OpenBabel10232410543D

 49 53  0  0  1  0  0  0  0  0999 V2000
  188.7430  176.8250  138.7980 C   0  0  0  0  0  2  0  0  0  0  0  0
  190.9780  176.5480  137.1420 C   0  0  2  0  0  3  0  0  0  0  0  0
  187.0240  177.4080  135.4020 C   0  0  1  0  0  3  0  0  0  0  0  0
  191.2390  177.3350  138.4340 C   0  0  0  0  0  2  0  0  0  0  0  0
  189.7290  177.1170  136.4460 C   0  0  1  0  0  3  0  0  0  0  0  0
  190.0580  177.3190  139.4230 C   0  0  2  0  0  3  0  0  0  0  0  0
  189.3480  176.3290  135.1890 C   0  0  0  0  0  2  0  0  0  0  0  0
  188.5340  177.4010  137.3990 C   0  0  1  0  0  3  0  0  0  0  0  0
  187.2010  176.9160  136.8360 C   0  0  0  0  0  2  0  0  0  0  0  0
  188.1690  176.9840  134.4690 C   0  0  0  0  0  2  0  0  0  0  0  0
  185.7310  176.9230  134.8560 C   0  0  0  0  0  3  0  0  0  0  0  0
  184.9270  174.4960  135.3880 C   0  0  0  0  0  0  0  0  0  0  0  0
  181.7270  173.3100  137.0600 C   0  0  0  0  0  1  0  0  0  0  0  0
  185.3290  175.7120  135.1170 C   0  0  0  0  0  0  0  0  0  0  0  0
  184.0410  172.4080  137.1560 C   0  0  0  0  0  2  0  0  0  0  0  0
  187.2090  173.8600  135.7800 O   0  0  0  0  0  1  0  0  0  0  0  0
  185.8980  173.3820  135.7070 C   0  0  1  0  0  0  0  0  0  0  0  0
  185.5300  172.7560  137.0580 C   0  0  0  0  0  2  0  0  0  0  0  0
  183.4620  174.2370  135.5480 C   0  0  0  0  0  2  0  0  0  0  0  0
  183.1930  173.6590  136.9320 C   0  0  1  0  0  3  0  0  0  0  0  0
  185.8350  172.3240  134.6220 C   0  0  0  0  0  1  0  0  0  0  0  0
  190.4140  176.4890  140.5660 N   0  0  0  0  0  2  0  0  0  0  0  0
  188.8680  178.3250  141.6710 O   0  0  0  0  0  0  0  0  0  0  0  0
  189.0000  176.1390  142.7520 O   0  0  0  0  0  0  0  0  0  0  0  0
  189.7850  177.1890  142.0190 S   0  0  0  0  0  0  0  0  0  0  0  0
  191.1020  177.7940  143.0640 C   0  0  0  0  0  2  0  0  0  0  0  0
  190.6350  177.4020  145.5160 C   0  0  0  0  0  0  0  0  0  0  0  0
  190.5650  178.2250  144.3470 N   0  0  0  0  0  2  0  0  0  0  0  0
  191.2890  176.3240  145.5040 O   0  0  0  0  0  0  0  0  0  0  0  0
  189.9400  177.8270  146.7650 C   0  0  0  0  0  2  0  0  0  0  0  0
  187.8520  177.0090  145.9560 C   0  0  0  0  0  2  0  0  0  0  0  0
  188.8270  176.9280  147.0550 N   0  0  0  0  0  0  0  0  0  0  0  0
  187.0460  178.3130  146.0120 C   0  0  0  0  0  2  0  0  0  0  0  0
  188.2150  177.3010  148.3400 C   0  0  0  0  0  2  0  0  0  0  0  0
  186.3860  178.4100  147.2460 O   0  0  0  0  0  0  0  0  0  0  0  0
  187.3840  178.5830  148.2170 C   0  0  0  0  0  2  0  0  0  0  0  0
  190.8530  175.0470  137.4250 C   0  0  0  0  0  2  0  0  0  0  0  0
  191.7990  174.2330  136.5550 C   0  0  0  0  0  2  0  0  0  0  0  0
  193.1750  174.1910  137.1430 C   0  0  0  0  0  0  0  0  0  0  0  0
  193.4090  174.8020  138.1760 O   0  0  0  0  0  0  0  0  0  0  0  0
  196.3190  172.7190  137.7280 C   0  0  0  0  0  3  0  0  0  0  0  0
  194.2410  173.3640  136.4860 C   0  0  1  0  0  3  0  0  0  0  0  0
  195.1360  174.2040  135.5600 C   0  0  0  0  0  2  0  0  0  0  0  0
  195.0040  172.5690  137.5200 C   0  0  0  0  0  3  0  0  0  0  0  0
  196.3230  174.7860  136.3200 C   0  0  0  0  0  2  0  0  0  0  0  0
  197.1570  173.6410  136.8800 C   0  0  1  0  0  3  0  0  0  0  0  0
  198.3270  174.1900  137.6850 C   0  0  0  0  0  2  0  0  0  0  0  0
  197.9780  175.4150  138.2520 O   0  0  0  0  0  0  0  0  0  0  0  0
  198.3270  175.2920  139.5980 C   0  0  0  0  0  1  0  0  0  0  0  0
  1  6  1  0  0  0  0
  2 37  1  1  0  0  0
  2  4  1  0  0  0  0
  3 11  1  6  0  0  0
  3  9  1  0  0  0  0
  4  6  1  0  0  0  0
  5  7  1  6  0  0  0
  5  2  1  0  0  0  0
  5  8  1  0  0  0  0
  6 22  1  1  0  0  0
  8  9  1  6  0  0  0
  8  1  1  0  0  0  0
 10  7  1  0  0  0  0
 10  3  1  0  0  0  0
 11 14  2  0  0  0  0
 12 19  1  0  0  0  0
 12 17  1  0  0  0  0
 14 12  2  0  0  0  0
 17 21  1  6  0  0  0
 17 16  1  0  0  0  0
 17 18  1  0  0  0  0
 18 15  1  0  0  0  0
 19 20  1  0  0  0  0
 20 13  1  6  0  0  0
 20 15  1  0  0  0  0
 22 25  1  0  0  0  0
 23 25  2  0  0  0  0
 25 24  2  0  0  0  0
 25 26  1  0  0  0  0
 26 28  1  0  0  0  0
 27 30  1  0  0  0  0
 28 27  1  0  0  0  0
 29 27  2  0  0  0  0
 30 32  1  0  0  0  0
 31 33  1  0  0  0  0
 31 32  1  0  0  0  0
 32 34  1  0  0  0  0
 33 35  1  0  0  0  0
 35 36  1  0  0  0  0
 36 34  1  0  0  0  0
 38 39  1  0  0  0  0
 38 37  1  0  0  0  0
 39 40  2  0  0  0  0
 42 39  1  1  0  0  0
 42 44  1  0  0  0  0
 43 45  1  0  0  0  0
 43 42  1  0  0  0  0
 44 41  2  0  0  0  0
 45 46  1  0  0  0  0
 46 47  1  1  0  0  0
 46 41  1  0  0  0  0
 47 48  1  0  0  0  0
 48 49  1  0  0  0  0
M  END
>  <MODEL>
9

>  <REMARK>
 VINA RESULT:      -7.0      2.829      5.295
  Name = 
  13 active torsions:
  status: ('A' for Active; 'I' for Inactive)
    1  A    between atoms: C_1  and  C_13
    2  A    between atoms: C_2  and  C_32
    3  A    between atoms: N_4  and  C_32
    4  A    between atoms: N_7  and  C_35
    5  A    between atoms: C_8  and  C_43
    6  A    between atoms: C_16  and  C_41
    7  A    between atoms: C_16  and  C_43
    8  A    between atoms: N_21  and  C_22
    9  A    between atoms: N_21  and  S_38
   10  A    between atoms: C_26  and  O_31
   11  A    between atoms: C_26  and  C_46
   12  A    between atoms: C_28  and  C_41
   13  A    between atoms: C_35  and  S_38
                            x       y       z     vdW  Elec       q    Type
                         _______ _______ _______ _____ _____    ______ ____

>  <TORSDO>
F 13

$$$$
