=
 OpenBabel10232412303D

 29 31  0  0  1  0  0  0  0  0999 V2000
  186.6780  178.7360  140.8350 C   0  0  0  0  0  3  0  0  0  0  0  0
  186.4830  177.8070  144.4750 C   0  0  0  0  0  3  0  0  0  0  0  0
  185.0400  179.2270  142.5950 N   0  0  0  0  0  2  0  0  0  0  0  0
  184.5690  179.1490  143.8690 C   0  0  0  0  0  0  0  0  0  0  0  0
  185.2860  178.4270  144.8370 C   0  0  0  0  0  0  0  0  0  0  0  0
  188.1780  177.2750  142.7450 N   0  0  0  0  0  0  0  0  0  0  0  0
  186.2000  178.6240  142.2210 C   0  0  0  0  0  0  0  0  0  0  0  0
  187.8210  178.1590  140.4590 C   0  0  0  0  0  0  0  0  0  0  0  0
  188.6000  177.4180  141.4100 N   0  0  0  0  0  2  0  0  0  0  0  0
  186.9500  177.8970  143.1590 C   0  0  0  0  0  0  0  0  0  0  0  0
  183.4900  179.7270  144.1670 O   0  0  0  0  0  0  0  0  0  0  0  0
  189.3930  177.2690  144.9100 C   0  0  0  0  0  2  0  0  0  0  0  0
  191.3030  176.6960  142.6810 C   0  0  0  0  0  2  0  0  0  0  0  0
  191.3190  177.9250  143.4930 N   0  0  0  0  0  2  0  0  0  0  0  0
  188.9580  176.4630  143.6800 C   0  0  2  0  0  3  0  0  0  0  0  0
  190.1230  175.7600  142.9830 C   0  0  0  0  0  2  0  0  0  0  0  0
  190.8620  177.7050  144.8700 C   0  0  2  0  0  3  0  0  0  0  0  0
  191.7540  176.7240  145.6290 C   0  0  0  0  0  2  0  0  0  0  0  0
  191.2810  176.5490  147.0640 C   0  0  0  0  0  2  0  0  0  0  0  0
  192.3220  175.8100  147.8860 C   0  0  0  0  0  1  0  0  0  0  0  0
  184.8200  178.3460  146.2530 C   0  0  0  0  0  2  0  0  0  0  0  0
  185.6140  179.2340  147.0820 N   0  0  0  0  0  1  0  0  0  0  0  0
  189.7520  177.9320  138.9210 C   0  0  0  0  0  1  0  0  0  0  0  0
  188.2830  178.2960  139.0440 C   0  0  1  0  0  3  0  0  0  0  0  0
  187.4480  177.4710  138.1190 C   0  0  0  0  0  0  0  0  0  0  0  0
  187.7910  176.2830  137.8760 O   0  0  0  0  0  0  0  0  0  0  0  0
  186.3230  178.0280  137.5060 O   0  0  0  0  0  0  0  0  0  0  0  0
  185.0680  177.3650  137.5070 C   0  0  0  0  0  2  0  0  0  0  0  0
  184.0860  178.1450  138.3550 C   0  0  0  0  0  1  0  0  0  0  0  0
  1  7  1  0  0  0  0
  2  5  2  0  0  0  0
  3  4  1  0  0  0  0
  4 11  2  0  0  0  0
  4  5  1  0  0  0  0
  5 21  1  0  0  0  0
  6 10  1  0  0  0  0
  7  3  1  0  0  0  0
  7 10  2  0  0  0  0
  8  1  2  0  0  0  0
  8  9  1  0  0  0  0
  9  6  1  0  0  0  0
 10  2  1  0  0  0  0
 13 16  1  0  0  0  0
 13 14  1  0  0  0  0
 14 17  1  0  0  0  0
 15  6  1  6  0  0  0
 15 12  1  0  0  0  0
 16 15  1  0  0  0  0
 17 12  1  0  0  0  0
 17 18  1  6  0  0  0
 18 19  1  0  0  0  0
 19 20  1  0  0  0  0
 21 22  1  0  0  0  0
 24 23  1  1  0  0  0
 24  8  1  0  0  0  0
 25 24  1  0  0  0  0
 26 25  2  0  0  0  0
 27 28  1  0  0  0  0
 27 25  1  0  0  0  0
 28 29  1  0  0  0  0
M  END
>  <MODEL>
1

>  <REMARK>
 VINA RESULT:      -8.5      0.000      0.000
  Name = 
  8 active torsions:
  status: ('A' for Active; 'I' for Inactive)
    1  A    between atoms: C_1  and  C_5
    2  A    between atoms: C_1  and  C_25
    3  A    between atoms: C_6  and  C_15
    4  A    between atoms: O_9  and  C_10
    5  A    between atoms: O_9  and  C_16
    6  A    between atoms: C_10  and  C_18
    7  A    between atoms: C_14  and  N_19
    8  A    between atoms: C_18  and  C_21
                            x       y       z     vdW  Elec       q    Type
                         _______ _______ _______ _____ _____    ______ ____

>  <TORSDO>
F 8

$$$$
=
 OpenBabel10232412303D

 29 31  0  0  1  0  0  0  0  0999 V2000
  187.4880  178.4300  139.9600 C   0  0  0  0  0  3  0  0  0  0  0  0
  190.7880  176.6510  139.6500 C   0  0  0  0  0  3  0  0  0  0  0  0
  188.8650  177.7970  138.0300 N   0  0  0  0  0  2  0  0  0  0  0  0
  189.9630  177.2320  137.4560 C   0  0  0  0  0  0  0  0  0  0  0  0
  190.9530  176.6500  138.2640 C   0  0  0  0  0  0  0  0  0  0  0  0
  189.4450  177.2590  141.6440 N   0  0  0  0  0  0  0  0  0  0  0  0
  188.6900  177.8140  139.3790 C   0  0  0  0  0  0  0  0  0  0  0  0
  187.2990  178.4420  141.2810 C   0  0  0  0  0  0  0  0  0  0  0  0
  188.2740  177.8520  142.1530 N   0  0  0  0  0  2  0  0  0  0  0  0
  189.6540  177.2380  140.2210 C   0  0  0  0  0  0  0  0  0  0  0  0
  190.0780  177.2390  136.2020 O   0  0  0  0  0  0  0  0  0  0  0  0
  189.8410  176.2980  143.8970 C   0  0  0  0  0  2  0  0  0  0  0  0
  191.3390  178.8720  143.6220 C   0  0  0  0  0  2  0  0  0  0  0  0
  190.1910  178.6710  144.5230 N   0  0  0  0  0  2  0  0  0  0  0  0
  190.4540  176.7190  142.5560 C   0  0  2  0  0  3  0  0  0  0  0  0
  191.6400  177.6700  142.7130 C   0  0  0  0  0  2  0  0  0  0  0  0
  190.0980  177.2970  145.0310 C   0  0  2  0  0  3  0  0  0  0  0  0
  191.3180  176.8980  145.8580 C   0  0  0  0  0  2  0  0  0  0  0  0
  190.9280  176.5730  147.2910 C   0  0  0  0  0  2  0  0  0  0  0  0
  189.5530  177.1270  147.6130 C   0  0  0  0  0  1  0  0  0  0  0  0
  192.1540  175.9910  137.6710 C   0  0  0  0  0  2  0  0  0  0  0  0
  193.3590  176.6130  138.1870 N   0  0  0  0  0  1  0  0  0  0  0  0
  184.9320  179.0250  140.8290 C   0  0  0  0  0  1  0  0  0  0  0  0
  186.0640  179.0710  141.8410 C   0  0  1  0  0  3  0  0  0  0  0  0
  185.6600  178.4230  143.1250 C   0  0  0  0  0  0  0  0  0  0  0  0
  184.4760  178.0130  143.2620 O   0  0  0  0  0  0  0  0  0  0  0  0
  186.5790  178.3070  144.1700 O   0  0  0  0  0  0  0  0  0  0  0  0
  186.2800  177.5770  145.3500 C   0  0  0  0  0  2  0  0  0  0  0  0
  185.9570  178.5410  146.4720 C   0  0  0  0  0  1  0  0  0  0  0  0
  1  8  2  0  0  0  0
  2 10  1  0  0  0  0
  3  7  1  0  0  0  0
  4  3  1  0  0  0  0
  4  5  1  0  0  0  0
  5  2  2  0  0  0  0
  6  9  1  0  0  0  0
  7  1  1  0  0  0  0
  7 10  2  0  0  0  0
  8 24  1  0  0  0  0
  8  9  1  0  0  0  0
 10  6  1  0  0  0  0
 11  4  2  0  0  0  0
 12 17  1  0  0  0  0
 13 14  1  0  0  0  0
 14 17  1  0  0  0  0
 15  6  1  6  0  0  0
 15 16  1  0  0  0  0
 15 12  1  0  0  0  0
 16 13  1  0  0  0  0
 17 18  1  6  0  0  0
 18 19  1  0  0  0  0
 19 20  1  0  0  0  0
 21 22  1  0  0  0  0
 21  5  1  0  0  0  0
 24 23  1  6  0  0  0
 24 25  1  0  0  0  0
 25 26  2  0  0  0  0
 25 27  1  0  0  0  0
 27 28  1  0  0  0  0
 28 29  1  0  0  0  0
M  END
>  <MODEL>
2

>  <REMARK>
 VINA RESULT:      -7.9      2.016      5.826
  Name = 
  8 active torsions:
  status: ('A' for Active; 'I' for Inactive)
    1  A    between atoms: C_1  and  C_5
    2  A    between atoms: C_1  and  C_25
    3  A    between atoms: C_6  and  C_15
    4  A    between atoms: O_9  and  C_10
    5  A    between atoms: O_9  and  C_16
    6  A    between atoms: C_10  and  C_18
    7  A    between atoms: C_14  and  N_19
    8  A    between atoms: C_18  and  C_21
                            x       y       z     vdW  Elec       q    Type
                         _______ _______ _______ _____ _____    ______ ____

>  <TORSDO>
F 8

$$$$
=
 OpenBabel10232412303D

 29 31  0  0  1  0  0  0  0  0999 V2000
  189.3360  177.9880  139.5110 C   0  0  0  0  0  3  0  0  0  0  0  0
  187.1650  177.7130  142.5700 C   0  0  0  0  0  3  0  0  0  0  0  0
  187.0610  178.7570  140.0140 N   0  0  0  0  0  2  0  0  0  0  0  0
  185.9810  178.8980  140.8300 C   0  0  0  0  0  0  0  0  0  0  0  0
  186.0130  178.3690  142.1310 C   0  0  0  0  0  0  0  0  0  0  0  0
  189.4690  176.9100  142.1290 N   0  0  0  0  0  0  0  0  0  0  0  0
  188.1890  178.1150  140.4210 C   0  0  0  0  0  0  0  0  0  0  0  0
  190.4530  177.3720  139.9030 C   0  0  0  0  0  0  0  0  0  0  0  0
  190.5450  176.8210  141.2250 N   0  0  0  0  0  2  0  0  0  0  0  0
  188.2640  177.5770  141.7150 C   0  0  0  0  0  0  0  0  0  0  0  0
  184.9600  179.5030  140.4080 O   0  0  0  0  0  0  0  0  0  0  0  0
  188.6670  176.9900  144.4760 C   0  0  0  0  0  2  0  0  0  0  0  0
  191.6150  177.4890  144.4020 C   0  0  0  0  0  2  0  0  0  0  0  0
  190.6110  178.4990  144.7780 N   0  0  0  0  0  2  0  0  0  0  0  0
  189.5640  176.2880  143.4500 C   0  0  2  0  0  3  0  0  0  0  0  0
  191.0160  176.1620  143.9120 C   0  0  0  0  0  2  0  0  0  0  0  0
  189.4310  177.9160  145.4290 C   0  0  2  0  0  3  0  0  0  0  0  0
  189.7790  177.2060  146.7350 C   0  0  0  0  0  2  0  0  0  0  0  0
  188.5470  177.0230  147.6070 C   0  0  0  0  0  2  0  0  0  0  0  0
  188.4250  178.1560  148.6100 C   0  0  0  0  0  1  0  0  0  0  0  0
  184.8630  178.5320  143.0670 C   0  0  0  0  0  2  0  0  0  0  0  0
  185.3070  178.3160  144.4320 N   0  0  0  0  0  1  0  0  0  0  0  0
  192.9130  177.1330  139.7150 C   0  0  0  0  0  1  0  0  0  0  0  0
  191.6050  177.2630  138.9550 C   0  0  1  0  0  3  0  0  0  0  0  0
  191.4200  176.1240  138.0070 C   0  0  0  0  0  0  0  0  0  0  0  0
  192.0990  176.0910  136.9450 O   0  0  0  0  0  0  0  0  0  0  0  0
  190.4790  175.1300  138.2810 O   0  0  0  0  0  0  0  0  0  0  0  0
  189.7080  174.5280  137.2530 C   0  0  0  0  0  2  0  0  0  0  0  0
  188.4720  175.3630  136.9940 C   0  0  0  0  0  1  0  0  0  0  0  0
  1  8  2  0  0  0  0
  1  7  1  0  0  0  0
  3  7  1  0  0  0  0
  3  4  1  0  0  0  0
  4  5  1  0  0  0  0
  5  2  2  0  0  0  0
  5 21  1  0  0  0  0
  7 10  2  0  0  0  0
  8  9  1  0  0  0  0
  9  6  1  0  0  0  0
 10  6  1  0  0  0  0
 10  2  1  0  0  0  0
 11  4  2  0  0  0  0
 12 17  1  0  0  0  0
 13 14  1  0  0  0  0
 14 17  1  0  0  0  0
 15  6  1  6  0  0  0
 15 16  1  0  0  0  0
 15 12  1  0  0  0  0
 16 13  1  0  0  0  0
 17 18  1  1  0  0  0
 18 19  1  0  0  0  0
 19 20  1  0  0  0  0
 21 22  1  0  0  0  0
 24 23  1  1  0  0  0
 24  8  1  0  0  0  0
 25 27  1  0  0  0  0
 25 24  1  0  0  0  0
 26 25  2  0  0  0  0
 28 27  1  0  0  0  0
 29 28  1  0  0  0  0
M  END
>  <MODEL>
3

>  <REMARK>
 VINA RESULT:      -7.8      2.178      3.190
  Name = 
  8 active torsions:
  status: ('A' for Active; 'I' for Inactive)
    1  A    between atoms: C_1  and  C_5
    2  A    between atoms: C_1  and  C_25
    3  A    between atoms: C_6  and  C_15
    4  A    between atoms: O_9  and  C_10
    5  A    between atoms: O_9  and  C_16
    6  A    between atoms: C_10  and  C_18
    7  A    between atoms: C_14  and  N_19
    8  A    between atoms: C_18  and  C_21
                            x       y       z     vdW  Elec       q    Type
                         _______ _______ _______ _____ _____    ______ ____

>  <TORSDO>
F 8

$$$$
=
 OpenBabel10232412303D

 29 31  0  0  1  0  0  0  0  0999 V2000
  189.1500  178.0640  139.6280 C   0  0  0  0  0  3  0  0  0  0  0  0
  186.8200  177.8010  142.5690 C   0  0  0  0  0  3  0  0  0  0  0  0
  186.8480  178.8250  140.0040 N   0  0  0  0  0  2  0  0  0  0  0  0
  185.7250  178.9660  140.7600 C   0  0  0  0  0  0  0  0  0  0  0  0
  185.6910  178.4480  142.0650 C   0  0  0  0  0  0  0  0  0  0  0  0
  189.1490  177.0070  142.2580 N   0  0  0  0  0  0  0  0  0  0  0  0
  187.9550  178.1920  140.4760 C   0  0  0  0  0  0  0  0  0  0  0  0
  190.2480  177.4570  140.0840 C   0  0  0  0  0  0  0  0  0  0  0  0
  190.2720  176.9170  141.4140 N   0  0  0  0  0  2  0  0  0  0  0  0
  187.9640  177.6640  141.7760 C   0  0  0  0  0  0  0  0  0  0  0  0
  184.7250  179.5620  140.2800 O   0  0  0  0  0  0  0  0  0  0  0  0
  188.6570  177.3530  144.6660 C   0  0  0  0  0  2  0  0  0  0  0  0
  191.5880  176.8870  144.2930 C   0  0  0  0  0  2  0  0  0  0  0  0
  190.9990  178.1660  144.7240 N   0  0  0  0  0  2  0  0  0  0  0  0
  189.1760  176.3950  143.5870 C   0  0  2  0  0  3  0  0  0  0  0  0
  190.5530  175.8160  143.9140 C   0  0  0  0  0  2  0  0  0  0  0  0
  189.7680  177.9930  145.5060 C   0  0  2  0  0  3  0  0  0  0  0  0
  190.0060  177.2170  146.8000 C   0  0  0  0  0  2  0  0  0  0  0  0
  188.7030  176.9910  147.5520 C   0  0  0  0  0  2  0  0  0  0  0  0
  188.4830  178.0800  148.5850 C   0  0  0  0  0  1  0  0  0  0  0  0
  184.4910  178.6120  142.9380 C   0  0  0  0  0  2  0  0  0  0  0  0
  184.6750  179.7540  143.8140 N   0  0  0  0  0  1  0  0  0  0  0  0
  192.7230  177.3410  140.0250 C   0  0  0  0  0  1  0  0  0  0  0  0
  191.4480  177.3470  139.2000 C   0  0  1  0  0  3  0  0  0  0  0  0
  191.3700  176.1370  138.3270 C   0  0  0  0  0  0  0  0  0  0  0  0
  190.5470  175.2260  138.6110 O   0  0  0  0  0  0  0  0  0  0  0  0
  192.2270  176.0070  137.2320 O   0  0  0  0  0  0  0  0  0  0  0  0
  192.9010  174.7900  136.9510 C   0  0  0  0  0  2  0  0  0  0  0  0
  194.1570  174.7030  137.7920 C   0  0  0  0  0  1  0  0  0  0  0  0
  1  8  2  0  0  0  0
  1  7  1  0  0  0  0
  3  7  1  0  0  0  0
  3  4  1  0  0  0  0
  4  5  1  0  0  0  0
  5  2  2  0  0  0  0
  5 21  1  0  0  0  0
  7 10  2  0  0  0  0
  8  9  1  0  0  0  0
  9  6  1  0  0  0  0
 10  6  1  0  0  0  0
 10  2  1  0  0  0  0
 11  4  2  0  0  0  0
 12 17  1  0  0  0  0
 13 14  1  0  0  0  0
 14 17  1  0  0  0  0
 15  6  1  6  0  0  0
 15 16  1  0  0  0  0
 15 12  1  0  0  0  0
 16 13  1  0  0  0  0
 17 18  1  1  0  0  0
 18 19  1  0  0  0  0
 19 20  1  0  0  0  0
 21 22  1  0  0  0  0
 24 23  1  1  0  0  0
 24  8  1  0  0  0  0
 25 26  2  0  0  0  0
 25 24  1  0  0  0  0
 27 25  1  0  0  0  0
 28 27  1  0  0  0  0
 28 29  1  0  0  0  0
M  END
>  <MODEL>
4

>  <REMARK>
 VINA RESULT:      -7.8      2.379      3.756
  Name = 
  8 active torsions:
  status: ('A' for Active; 'I' for Inactive)
    1  A    between atoms: C_1  and  C_5
    2  A    between atoms: C_1  and  C_25
    3  A    between atoms: C_6  and  C_15
    4  A    between atoms: O_9  and  C_10
    5  A    between atoms: O_9  and  C_16
    6  A    between atoms: C_10  and  C_18
    7  A    between atoms: C_14  and  N_19
    8  A    between atoms: C_18  and  C_21
                            x       y       z     vdW  Elec       q    Type
                         _______ _______ _______ _____ _____    ______ ____

>  <TORSDO>
F 8

$$$$
=
 OpenBabel10232412303D

 29 31  0  0  1  0  0  0  0  0999 V2000
  186.6620  178.5700  140.5300 C   0  0  0  0  0  3  0  0  0  0  0  0
  186.7120  177.7820  144.2080 C   0  0  0  0  0  3  0  0  0  0  0  0
  185.1720  179.1730  142.3840 N   0  0  0  0  0  2  0  0  0  0  0  0
  184.7950  179.1560  143.6920 C   0  0  0  0  0  0  0  0  0  0  0  0
  185.5620  178.4500  144.6320 C   0  0  0  0  0  0  0  0  0  0  0  0
  188.2610  177.1380  142.3820 N   0  0  0  0  0  0  0  0  0  0  0  0
  186.2860  178.5230  141.9510 C   0  0  0  0  0  0  0  0  0  0  0  0
  187.7590  177.9460  140.0940 C   0  0  0  0  0  0  0  0  0  0  0  0
  188.5860  177.2180  141.0140 N   0  0  0  0  0  2  0  0  0  0  0  0
  187.0830  177.8100  142.8590 C   0  0  0  0  0  0  0  0  0  0  0  0
  183.7570  179.7750  144.0450 O   0  0  0  0  0  0  0  0  0  0  0  0
  189.2530  177.0170  144.6540 C   0  0  0  0  0  2  0  0  0  0  0  0
  191.4320  177.1060  142.6070 C   0  0  0  0  0  2  0  0  0  0  0  0
  191.1490  178.1870  143.5660 N   0  0  0  0  0  2  0  0  0  0  0  0
  189.0860  176.3390  143.2890 C   0  0  2  0  0  3  0  0  0  0  0  0
  190.4180  175.9510  142.6470 C   0  0  0  0  0  2  0  0  0  0  0  0
  190.6150  177.6930  144.8410 C   0  0  2  0  0  3  0  0  0  0  0  0
  191.5970  176.7750  145.5660 C   0  0  0  0  0  2  0  0  0  0  0  0
  191.1050  176.4370  146.9640 C   0  0  0  0  0  2  0  0  0  0  0  0
  192.2080  175.7910  147.7820 C   0  0  0  0  0  1  0  0  0  0  0  0
  185.2000  178.4360  146.0800 C   0  0  0  0  0  2  0  0  0  0  0  0
  186.4050  178.3520  146.8860 N   0  0  0  0  0  1  0  0  0  0  0  0
  189.1370  179.1150  138.3970 C   0  0  0  0  0  1  0  0  0  0  0  0
  188.1180  178.0170  138.6450 C   0  0  1  0  0  3  0  0  0  0  0  0
  188.6180  176.7010  138.1460 C   0  0  0  0  0  0  0  0  0  0  0  0
  187.7910  175.8460  137.7280 O   0  0  0  0  0  0  0  0  0  0  0  0
  189.9850  176.4130  138.1800 O   0  0  0  0  0  0  0  0  0  0  0  0
  190.6250  175.7060  137.1290 C   0  0  0  0  0  2  0  0  0  0  0  0
  191.7020  174.8120  137.7040 C   0  0  0  0  0  1  0  0  0  0  0  0
  1  7  1  0  0  0  0
  2  5  2  0  0  0  0
  3  4  1  0  0  0  0
  4 11  2  0  0  0  0
  4  5  1  0  0  0  0
  5 21  1  0  0  0  0
  6 10  1  0  0  0  0
  7  3  1  0  0  0  0
  7 10  2  0  0  0  0
  8  1  2  0  0  0  0
  8  9  1  0  0  0  0
  9  6  1  0  0  0  0
 10  2  1  0  0  0  0
 12 17  1  0  0  0  0
 13 16  1  0  0  0  0
 13 14  1  0  0  0  0
 14 17  1  0  0  0  0
 15  6  1  6  0  0  0
 15 12  1  0  0  0  0
 16 15  1  0  0  0  0
 17 18  1  6  0  0  0
 18 19  1  0  0  0  0
 19 20  1  0  0  0  0
 21 22  1  0  0  0  0
 24 23  1  1  0  0  0
 24  8  1  0  0  0  0
 25 27  1  0  0  0  0
 25 24  1  0  0  0  0
 26 25  2  0  0  0  0
 28 29  1  0  0  0  0
 28 27  1  0  0  0  0
M  END
>  <MODEL>
5

>  <REMARK>
 VINA RESULT:      -7.7      1.131      2.103
  Name = 
  8 active torsions:
  status: ('A' for Active; 'I' for Inactive)
    1  A    between atoms: C_1  and  C_5
    2  A    between atoms: C_1  and  C_25
    3  A    between atoms: C_6  and  C_15
    4  A    between atoms: O_9  and  C_10
    5  A    between atoms: O_9  and  C_16
    6  A    between atoms: C_10  and  C_18
    7  A    between atoms: C_14  and  N_19
    8  A    between atoms: C_18  and  C_21
                            x       y       z     vdW  Elec       q    Type
                         _______ _______ _______ _____ _____    ______ ____

>  <TORSDO>
F 8

$$$$
=
 OpenBabel10232412303D

 29 31  0  0  1  0  0  0  0  0999 V2000
  186.5040  178.5530  146.5010 C   0  0  0  0  0  3  0  0  0  0  0  0
  185.0810  177.9840  143.0650 C   0  0  0  0  0  3  0  0  0  0  0  0
  184.3220  179.0550  145.4960 N   0  0  0  0  0  2  0  0  0  0  0  0
  183.4330  179.0570  144.4660 C   0  0  0  0  0  0  0  0  0  0  0  0
  183.8030  178.5220  143.2220 C   0  0  0  0  0  0  0  0  0  0  0  0
  187.3070  177.4460  144.0180 N   0  0  0  0  0  0  0  0  0  0  0  0
  185.5750  178.5420  145.3610 C   0  0  0  0  0  0  0  0  0  0  0  0
  187.7310  178.0410  146.3850 C   0  0  0  0  0  0  0  0  0  0  0  0
  188.1590  177.4710  145.1380 N   0  0  0  0  0  2  0  0  0  0  0  0
  185.9820  177.9920  144.1360 C   0  0  0  0  0  0  0  0  0  0  0  0
  182.2840  179.5420  144.6410 O   0  0  0  0  0  0  0  0  0  0  0  0
  189.1260  176.1850  142.8940 C   0  0  0  0  0  2  0  0  0  0  0  0
  189.0000  178.9640  141.7960 C   0  0  0  0  0  2  0  0  0  0  0  0
  190.1120  178.4410  142.6080 N   0  0  0  0  0  2  0  0  0  0  0  0
  187.7870  176.9160  142.7400 C   0  0  2  0  0  3  0  0  0  0  0  0
  187.8160  177.9940  141.6570 C   0  0  0  0  0  2  0  0  0  0  0  0
  190.3310  177.0020  142.4170 C   0  0  2  0  0  3  0  0  0  0  0  0
  190.7030  176.6560  140.9770 C   0  0  0  0  0  2  0  0  0  0  0  0
  192.0370  177.2750  140.5910 C   0  0  0  0  0  2  0  0  0  0  0  0
  192.4230  176.8830  139.1760 C   0  0  0  0  0  1  0  0  0  0  0  0
  182.8450  178.4760  142.0780 C   0  0  0  0  0  2  0  0  0  0  0  0
  183.5670  178.2220  140.8440 N   0  0  0  0  0  1  0  0  0  0  0  0
  187.8660  177.9880  148.8600 C   0  0  0  0  0  1  0  0  0  0  0  0
  188.6520  178.0630  147.5620 C   0  0  1  0  0  3  0  0  0  0  0  0
  189.6590  176.9630  147.4830 C   0  0  0  0  0  0  0  0  0  0  0  0
  189.3290  175.7990  147.8370 O   0  0  0  0  0  0  0  0  0  0  0  0
  190.9610  177.2350  147.0550 O   0  0  0  0  0  0  0  0  0  0  0  0
  191.9280  176.2070  146.9080 C   0  0  0  0  0  2  0  0  0  0  0  0
  191.9650  175.7510  145.4640 C   0  0  0  0  0  1  0  0  0  0  0  0
  2  5  2  0  0  0  0
  2 10  1  0  0  0  0
  4 11  2  0  0  0  0
  4  3  1  0  0  0  0
  5  4  1  0  0  0  0
  6 10  1  0  0  0  0
  6  9  1  0  0  0  0
  7  3  1  0  0  0  0
  7  1  1  0  0  0  0
  8  1  2  0  0  0  0
  8 24  1  0  0  0  0
  9  8  1  0  0  0  0
 10  7  2  0  0  0  0
 13 14  1  0  0  0  0
 15 16  1  6  0  0  0
 15 12  1  0  0  0  0
 15  6  1  0  0  0  0
 16 13  1  0  0  0  0
 17 18  1  6  0  0  0
 17 14  1  0  0  0  0
 17 12  1  0  0  0  0
 19 18  1  0  0  0  0
 20 19  1  0  0  0  0
 21  5  1  0  0  0  0
 22 21  1  0  0  0  0
 24 23  1  1  0  0  0
 25 24  1  0  0  0  0
 25 26  2  0  0  0  0
 27 25  1  0  0  0  0
 28 27  1  0  0  0  0
 29 28  1  0  0  0  0
M  END
>  <MODEL>
6

>  <REMARK>
 VINA RESULT:      -7.1      3.073      6.170
  Name = 
  8 active torsions:
  status: ('A' for Active; 'I' for Inactive)
    1  A    between atoms: C_1  and  C_5
    2  A    between atoms: C_1  and  C_25
    3  A    between atoms: C_6  and  C_15
    4  A    between atoms: O_9  and  C_10
    5  A    between atoms: O_9  and  C_16
    6  A    between atoms: C_10  and  C_18
    7  A    between atoms: C_14  and  N_19
    8  A    between atoms: C_18  and  C_21
                            x       y       z     vdW  Elec       q    Type
                         _______ _______ _______ _____ _____    ______ ____

>  <TORSDO>
F 8

$$$$
=
 OpenBabel10232412303D

 29 31  0  0  1  0  0  0  0  0999 V2000
  188.6860  178.0290  141.1830 C   0  0  0  0  0  3  0  0  0  0  0  0
  185.7570  178.3580  143.5200 C   0  0  0  0  0  3  0  0  0  0  0  0
  188.4340  177.6810  143.5990 N   0  0  0  0  0  2  0  0  0  0  0  0
  187.7130  177.6630  144.7530 C   0  0  0  0  0  0  0  0  0  0  0  0
  186.3520  178.0080  144.7330 C   0  0  0  0  0  0  0  0  0  0  0  0
  185.9400  178.7250  141.0740 N   0  0  0  0  0  0  0  0  0  0  0  0
  187.8730  178.0260  142.4080 C   0  0  0  0  0  0  0  0  0  0  0  0
  188.1440  178.3530  140.0070 C   0  0  0  0  0  0  0  0  0  0  0  0
  186.7550  178.7050  139.9270 N   0  0  0  0  0  2  0  0  0  0  0  0
  186.5150  178.3730  142.3440 C   0  0  0  0  0  0  0  0  0  0  0  0
  188.2770  177.3350  145.8300 O   0  0  0  0  0  0  0  0  0  0  0  0
  183.5830  178.0590  141.4740 C   0  0  0  0  0  2  0  0  0  0  0  0
  184.0170  178.5180  138.5520 C   0  0  0  0  0  2  0  0  0  0  0  0
  183.7410  177.2030  139.1530 N   0  0  0  0  0  2  0  0  0  0  0  0
  184.5420  179.1470  140.9770 C   0  0  2  0  0  3  0  0  0  0  0  0
  184.2000  179.6500  139.5740 C   0  0  0  0  0  2  0  0  0  0  0  0
  182.8890  177.2880  140.3460 C   0  0  2  0  0  3  0  0  0  0  0  0
  181.5130  177.8730  140.0370 C   0  0  0  0  0  2  0  0  0  0  0  0
  180.8930  178.5040  141.2740 C   0  0  0  0  0  2  0  0  0  0  0  0
  180.2970  179.8600  140.9440 C   0  0  0  0  0  1  0  0  0  0  0  0
  185.5200  177.9670  145.9710 C   0  0  0  0  0  2  0  0  0  0  0  0
  185.6010  179.2430  146.6590 N   0  0  0  0  0  1  0  0  0  0  0  0
  190.0660  177.2700  138.8750 C   0  0  0  0  0  1  0  0  0  0  0  0
  188.9950  178.3420  138.7770 C   0  0  1  0  0  3  0  0  0  0  0  0
  188.1670  178.1610  137.5470 C   0  0  0  0  0  0  0  0  0  0  0  0
  187.6890  179.1750  136.9710 O   0  0  0  0  0  0  0  0  0  0  0  0
  187.8980  176.8760  137.0670 O   0  0  0  0  0  0  0  0  0  0  0  0
  186.5730  176.4340  136.8210 C   0  0  0  0  0  2  0  0  0  0  0  0
  186.5070  174.9290  136.9710 C   0  0  0  0  0  1  0  0  0  0  0  0
  1  7  1  0  0  0  0
  2  5  2  0  0  0  0
  3  4  1  0  0  0  0
  4 11  2  0  0  0  0
  5  4  1  0  0  0  0
  5 21  1  0  0  0  0
  6 10  1  0  0  0  0
  7  3  1  0  0  0  0
  8  1  2  0  0  0  0
  9  8  1  0  0  0  0
  9  6  1  0  0  0  0
 10  7  2  0  0  0  0
 10  2  1  0  0  0  0
 13 14  1  0  0  0  0
 13 16  1  0  0  0  0
 14 17  1  0  0  0  0
 15 16  1  6  0  0  0
 15  6  1  0  0  0  0
 15 12  1  0  0  0  0
 17 18  1  6  0  0  0
 17 12  1  0  0  0  0
 18 19  1  0  0  0  0
 20 19  1  0  0  0  0
 21 22  1  0  0  0  0
 24 23  1  1  0  0  0
 24  8  1  0  0  0  0
 25 24  1  0  0  0  0
 26 25  2  0  0  0  0
 27 25  1  0  0  0  0
 28 29  1  0  0  0  0
 28 27  1  0  0  0  0
M  END
>  <MODEL>
7

>  <REMARK>
 VINA RESULT:      -7.1      2.480      5.859
  Name = 
  8 active torsions:
  status: ('A' for Active; 'I' for Inactive)
    1  A    between atoms: C_1  and  C_5
    2  A    between atoms: C_1  and  C_25
    3  A    between atoms: C_6  and  C_15
    4  A    between atoms: O_9  and  C_10
    5  A    between atoms: O_9  and  C_16
    6  A    between atoms: C_10  and  C_18
    7  A    between atoms: C_14  and  N_19
    8  A    between atoms: C_18  and  C_21
                            x       y       z     vdW  Elec       q    Type
                         _______ _______ _______ _____ _____    ______ ____

>  <TORSDO>
F 8

$$$$
=
 OpenBabel10232412303D

 29 31  0  0  1  0  0  0  0  0999 V2000
  189.6640  178.0410  142.1080 C   0  0  0  0  0  3  0  0  0  0  0  0
  188.1790  177.2660  145.4760 C   0  0  0  0  0  3  0  0  0  0  0  0
  190.6570  177.6490  144.3170 N   0  0  0  0  0  2  0  0  0  0  0  0
  190.5850  177.3730  145.6480 C   0  0  0  0  0  0  0  0  0  0  0  0
  189.3340  177.1790  146.2550 C   0  0  0  0  0  0  0  0  0  0  0  0
  187.1090  177.6490  143.2730 N   0  0  0  0  0  0  0  0  0  0  0  0
  189.5430  177.7450  143.5430 C   0  0  0  0  0  0  0  0  0  0  0  0
  188.5780  178.1250  141.3360 C   0  0  0  0  0  0  0  0  0  0  0  0
  187.2740  177.9260  141.9020 N   0  0  0  0  0  2  0  0  0  0  0  0
  188.2740  177.5540  144.1100 C   0  0  0  0  0  0  0  0  0  0  0  0
  191.6460  177.2920  146.3220 O   0  0  0  0  0  0  0  0  0  0  0  0
  184.6880  178.0360  142.8830 C   0  0  0  0  0  2  0  0  0  0  0  0
  185.6050  179.6630  145.2190 C   0  0  0  0  0  2  0  0  0  0  0  0
  185.1730  180.2300  143.9310 N   0  0  0  0  0  2  0  0  0  0  0  0
  185.7660  177.5120  143.8390 C   0  0  2  0  0  3  0  0  0  0  0  0
  185.6770  178.1280  145.2360 C   0  0  0  0  0  2  0  0  0  0  0  0
  184.1470  179.4180  143.2640 C   0  0  2  0  0  3  0  0  0  0  0  0
  182.8680  179.3060  144.0910 C   0  0  0  0  0  2  0  0  0  0  0  0
  181.7060  178.8140  143.2410 C   0  0  0  0  0  2  0  0  0  0  0  0
  180.4660  178.6110  144.0920 C   0  0  0  0  0  1  0  0  0  0  0  0
  189.2160  176.8410  147.7040 C   0  0  0  0  0  2  0  0  0  0  0  0
  188.1670  177.6410  148.3100 N   0  0  0  0  0  1  0  0  0  0  0  0
  189.9660  177.7320  139.3190 C   0  0  0  0  0  1  0  0  0  0  0  0
  188.7340  178.4220  139.8790 C   0  0  1  0  0  3  0  0  0  0  0  0
  187.5100  178.0360  139.1140 C   0  0  0  0  0  0  0  0  0  0  0  0
  187.5640  177.0590  138.3190 O   0  0  0  0  0  0  0  0  0  0  0  0
  186.3330  178.7760  139.2550 O   0  0  0  0  0  0  0  0  0  0  0  0
  185.1390  178.4150  138.5780 C   0  0  0  0  0  2  0  0  0  0  0  0
  183.9600  179.1010  139.2340 C   0  0  0  0  0  1  0  0  0  0  0  0
  1  7  1  0  0  0  0
  2  5  2  0  0  0  0
  3  4  1  0  0  0  0
  4  5  1  0  0  0  0
  4 11  2  0  0  0  0
  5 21  1  0  0  0  0
  6 15  1  0  0  0  0
  6 10  1  0  0  0  0
  7 10  2  0  0  0  0
  7  3  1  0  0  0  0
  8  9  1  0  0  0  0
  8  1  2  0  0  0  0
  9  6  1  0  0  0  0
 10  2  1  0  0  0  0
 12 17  1  0  0  0  0
 13 16  1  0  0  0  0
 14 13  1  0  0  0  0
 15 12  1  6  0  0  0
 15 16  1  0  0  0  0
 17 14  1  0  0  0  0
 17 18  1  1  0  0  0
 19 18  1  0  0  0  0
 19 20  1  0  0  0  0
 21 22  1  0  0  0  0
 24 23  1  6  0  0  0
 24  8  1  0  0  0  0
 25 27  1  0  0  0  0
 25 24  1  0  0  0  0
 26 25  2  0  0  0  0
 28 29  1  0  0  0  0
 28 27  1  0  0  0  0
M  END
>  <MODEL>
8

>  <REMARK>
 VINA RESULT:      -7.0      2.337      5.353
  Name = 
  8 active torsions:
  status: ('A' for Active; 'I' for Inactive)
    1  A    between atoms: C_1  and  C_5
    2  A    between atoms: C_1  and  C_25
    3  A    between atoms: C_6  and  C_15
    4  A    between atoms: O_9  and  C_10
    5  A    between atoms: O_9  and  C_16
    6  A    between atoms: C_10  and  C_18
    7  A    between atoms: C_14  and  N_19
    8  A    between atoms: C_18  and  C_21
                            x       y       z     vdW  Elec       q    Type
                         _______ _______ _______ _____ _____    ______ ____

>  <TORSDO>
F 8

$$$$
=
 OpenBabel10232412303D

 29 31  0  0  1  0  0  0  0  0999 V2000
  187.1510  178.1720  140.1800 C   0  0  0  0  0  3  0  0  0  0  0  0
  190.6490  176.8630  139.7340 C   0  0  0  0  0  3  0  0  0  0  0  0
  188.5750  177.8610  138.2060 N   0  0  0  0  0  2  0  0  0  0  0  0
  189.7290  177.4860  137.5900 C   0  0  0  0  0  0  0  0  0  0  0  0
  190.7960  176.9810  138.3510 C   0  0  0  0  0  0  0  0  0  0  0  0
  189.2630  177.1480  141.7700 N   0  0  0  0  0  0  0  0  0  0  0  0
  188.4160  177.7600  139.5530 C   0  0  0  0  0  0  0  0  0  0  0  0
  186.9780  178.0670  141.4990 C   0  0  0  0  0  0  0  0  0  0  0  0
  188.0320  177.5470  142.3240 N   0  0  0  0  0  2  0  0  0  0  0  0
  189.4560  177.2560  140.3490 C   0  0  0  0  0  0  0  0  0  0  0  0
  189.8280  177.5960  136.3390 O   0  0  0  0  0  0  0  0  0  0  0  0
  189.8370  176.3410  144.0450 C   0  0  0  0  0  2  0  0  0  0  0  0
  191.2700  178.9080  143.4960 C   0  0  0  0  0  2  0  0  0  0  0  0
  190.1940  178.7540  144.4900 N   0  0  0  0  0  2  0  0  0  0  0  0
  190.3440  176.6800  142.6380 C   0  0  2  0  0  3  0  0  0  0  0  0
  191.5230  177.6530  142.6460 C   0  0  0  0  0  2  0  0  0  0  0  0
  190.1590  177.4140  145.0900 C   0  0  2  0  0  3  0  0  0  0  0  0
  191.4430  177.0840  145.8500 C   0  0  0  0  0  2  0  0  0  0  0  0
  191.1370  176.5020  147.2200 C   0  0  0  0  0  2  0  0  0  0  0  0
  192.1560  175.4420  147.5950 C   0  0  0  0  0  1  0  0  0  0  0  0
  192.0650  176.5270  137.7090 C   0  0  0  0  0  2  0  0  0  0  0  0
  193.1930  176.8670  138.5570 N   0  0  0  0  0  1  0  0  0  0  0  0
  185.8350  179.8060  142.8460 C   0  0  0  0  0  1  0  0  0  0  0  0
  185.6790  178.4890  142.1060 C   0  0  1  0  0  3  0  0  0  0  0  0
  184.6030  178.5800  141.0740 C   0  0  0  0  0  0  0  0  0  0  0  0
  183.7480  177.6570  140.9920 O   0  0  0  0  0  0  0  0  0  0  0  0
  184.5710  179.6610  140.1890 O   0  0  0  0  0  0  0  0  0  0  0  0
  184.0170  179.5440  138.8870 C   0  0  0  0  0  2  0  0  0  0  0  0
  182.6990  180.2870  138.8310 C   0  0  0  0  0  1  0  0  0  0  0  0
  1  8  2  0  0  0  0
  2 10  1  0  0  0  0
  3  7  1  0  0  0  0
  4  3  1  0  0  0  0
  4  5  1  0  0  0  0
  5  2  2  0  0  0  0
  6  9  1  0  0  0  0
  7  1  1  0  0  0  0
  7 10  2  0  0  0  0
  8 24  1  0  0  0  0
  8  9  1  0  0  0  0
 10  6  1  0  0  0  0
 11  4  2  0  0  0  0
 12 17  1  0  0  0  0
 13 14  1  0  0  0  0
 14 17  1  0  0  0  0
 15  6  1  6  0  0  0
 15 16  1  0  0  0  0
 15 12  1  0  0  0  0
 16 13  1  0  0  0  0
 17 18  1  6  0  0  0
 18 19  1  0  0  0  0
 19 20  1  0  0  0  0
 21  5  1  0  0  0  0
 21 22  1  0  0  0  0
 24 23  1  6  0  0  0
 25 24  1  0  0  0  0
 26 25  2  0  0  0  0
 27 25  1  0  0  0  0
 28 27  1  0  0  0  0
 29 28  1  0  0  0  0
M  END
>  <MODEL>
9

>  <REMARK>
 VINA RESULT:      -6.8      2.157      5.139
  Name = 
  8 active torsions:
  status: ('A' for Active; 'I' for Inactive)
    1  A    between atoms: C_1  and  C_5
    2  A    between atoms: C_1  and  C_25
    3  A    between atoms: C_6  and  C_15
    4  A    between atoms: O_9  and  C_10
    5  A    between atoms: O_9  and  C_16
    6  A    between atoms: C_10  and  C_18
    7  A    between atoms: C_14  and  N_19
    8  A    between atoms: C_18  and  C_21
                            x       y       z     vdW  Elec       q    Type
                         _______ _______ _______ _____ _____    ______ ____

>  <TORSDO>
F 8

$$$$
