=
 OpenBabel10232407553D

 26 29  0  0  1  0  0  0  0  0999 V2000
  182.7670  178.3890  138.4970 C   0  0  1  0  0  3  0  0  0  0  0  0
  186.9560  178.2290  138.8260 S   0  0  0  0  0  0  0  0  0  0  0  0
  181.9330  177.4700  139.0200 C   0  0  1  0  0  3  0  0  0  0  0  0
  185.5610  176.6600  136.8500 C   0  0  2  0  0  3  0  0  0  0  0  0
  183.2840  179.5900  139.2940 C   0  0  1  0  0  3  0  0  0  0  0  0
  182.2700  176.0460  138.8210 C   0  0  0  0  0  0  0  0  0  0  0  0
  186.3790  177.9510  137.0930 C   0  0  0  0  0  2  0  0  0  0  0  0
  183.6730  177.9820  137.4670 N   0  0  0  0  0  2  0  0  0  0  0  0
  180.1730  179.1220  139.7990 C   0  0  0  0  0  1  0  0  0  0  0  0
  185.4980  176.3940  135.3590 C   0  0  0  0  0  1  0  0  0  0  0  0
  185.3360  178.6200  141.1030 C   0  0  0  0  0  2  0  0  0  0  0  0
  180.7680  177.7940  139.8050 N   0  0  0  0  0  0  0  0  0  0  0  0
  183.0060  179.5750  140.8160 C   0  0  0  0  0  2  0  0  0  0  0  0
  181.5050  175.1160  139.3940 C   0  0  0  0  0  3  0  0  0  0  0  0
  179.9860  176.7180  140.3410 C   0  0  0  0  0  3  0  0  0  0  0  0
  183.5950  175.6620  138.2160 C   0  0  0  0  0  2  0  0  0  0  0  0
  180.3340  175.4790  140.1450 N   0  0  0  0  0  0  0  0  0  0  0  0
  185.3340  178.5980  139.5880 C   0  0  1  0  0  3  0  0  0  0  0  0
  184.1670  176.7850  137.3890 C   0  0  2  0  0  3  0  0  0  0  0  0
  184.6880  179.7540  139.0790 O   0  0  0  0  0  0  0  0  0  0  0  0
  183.8760  178.5410  141.5460 C   0  0  2  0  0  3  0  0  0  0  0  0
  183.6960  178.8960  144.1850 C   0  0  0  0  0  0  0  0  0  0  0  0
  183.7780  178.7360  142.9930 C   0  0  0  0  0  0  0  0  0  0  0  0
  183.6030  179.0810  145.5720 N   0  0  0  0  0  2  0  0  0  0  0  0
  184.4600  178.4500  146.4100 O   0  0  0  0  0  0  0  0  0  0  0  0
  185.7000  179.0440  146.1720 C   0  0  0  0  0  1  0  0  0  0  0  0
  1  8  1  1  0  0  0
  1  3  1  0  0  0  0
  1  5  1  0  0  0  0
  2 18  1  0  0  0  0
  3  6  1  1  0  0  0
  3 12  1  0  0  0  0
  4 10  1  6  0  0  0
  4  7  1  0  0  0  0
  4 19  1  0  0  0  0
  5 13  1  1  0  0  0
  6 14  2  0  0  0  0
  7  2  1  0  0  0  0
  9 12  1  0  0  0  0
 11 21  1  0  0  0  0
 12 15  1  0  0  0  0
 13 21  1  0  0  0  0
 14 17  1  0  0  0  0
 16  6  1  0  0  0  0
 17 15  2  0  0  0  0
 18 11  1  1  0  0  0
 19  8  1  0  0  0  0
 19 16  1  1  0  0  0
 20  5  1  0  0  0  0
 20 18  1  0  0  0  0
 21 23  1  1  0  0  0
 22 24  1  0  0  0  0
 23 22  3  0  0  0  0
 24 25  1  0  0  0  0
 26 25  1  0  0  0  0
M  END
>  <MODEL>
1

>  <REMARK>
 VINA RESULT:      -5.8      0.000      0.000
  Name = 
  3 active torsions:
  status: ('A' for Active; 'I' for Inactive)
    1  A    between atoms: C_7  and  N_9
    2  A    between atoms: N_9  and  O_14
    3  A    between atoms: C_12  and  C_26
                            x       y       z     vdW  Elec       q    Type
                         _______ _______ _______ _____ _____    ______ ____

>  <TORSDO>
F 3

$$$$
=
 OpenBabel10232407553D

 26 29  0  0  1  0  0  0  0  0999 V2000
  188.6620  176.0390  135.9270 C   0  0  1  0  0  3  0  0  0  0  0  0
  192.2880  176.2280  138.0480 S   0  0  0  0  0  0  0  0  0  0  0  0
  187.5950  175.3160  136.3180 C   0  0  1  0  0  3  0  0  0  0  0  0
  191.6930  173.9980  136.3210 C   0  0  2  0  0  3  0  0  0  0  0  0
  188.9210  177.4680  136.4130 C   0  0  1  0  0  3  0  0  0  0  0  0
  187.8350  173.9320  136.7740 C   0  0  0  0  0  0  0  0  0  0  0  0
  192.4630  175.3340  136.4410 C   0  0  0  0  0  2  0  0  0  0  0  0
  189.8680  175.3490  135.5870 N   0  0  0  0  0  2  0  0  0  0  0  0
  185.8530  177.0400  135.6640 C   0  0  0  0  0  1  0  0  0  0  0  0
  192.2320  173.2270  135.1320 C   0  0  0  0  0  1  0  0  0  0  0  0
  189.9150  177.2990  139.1350 C   0  0  0  0  0  2  0  0  0  0  0  0
  186.2490  175.8300  136.3700 N   0  0  0  0  0  0  0  0  0  0  0  0
  188.0310  177.9680  137.5770 C   0  0  0  0  0  2  0  0  0  0  0  0
  186.8090  173.2200  137.2390 C   0  0  0  0  0  3  0  0  0  0  0  0
  185.2080  174.9680  136.8470 C   0  0  0  0  0  3  0  0  0  0  0  0
  189.2440  173.4340  136.9620 C   0  0  0  0  0  2  0  0  0  0  0  0
  185.4750  173.7580  137.2470 N   0  0  0  0  0  0  0  0  0  0  0  0
  190.5440  176.7510  137.8700 C   0  0  1  0  0  3  0  0  0  0  0  0
  190.2230  174.2280  136.1350 C   0  0  2  0  0  3  0  0  0  0  0  0
  190.2950  177.6220  136.7780 O   0  0  0  0  0  0  0  0  0  0  0  0
  188.4040  177.3010  138.9090 C   0  0  2  0  0  3  0  0  0  0  0  0
  187.1740  178.5420  140.9270 C   0  0  0  0  0  0  0  0  0  0  0  0
  187.7300  177.9810  140.0150 C   0  0  0  0  0  0  0  0  0  0  0  0
  186.5270  179.1910  141.9870 N   0  0  0  0  0  2  0  0  0  0  0  0
  185.2290  179.5620  141.8790 O   0  0  0  0  0  0  0  0  0  0  0  0
  184.5050  178.5050  142.4340 C   0  0  0  0  0  1  0  0  0  0  0  0
  1  8  1  1  0  0  0
  1  3  1  0  0  0  0
  1  5  1  0  0  0  0
  3 12  1  0  0  0  0
  3  6  1  1  0  0  0
  4 10  1  6  0  0  0
  4  7  1  0  0  0  0
  5 20  1  0  0  0  0
  5 13  1  1  0  0  0
  6 16  1  0  0  0  0
  6 14  2  0  0  0  0
  7  2  1  0  0  0  0
  8 19  1  0  0  0  0
  9 12  1  0  0  0  0
 12 15  1  0  0  0  0
 13 21  1  0  0  0  0
 14 17  1  0  0  0  0
 15 17  2  0  0  0  0
 18  2  1  0  0  0  0
 18 11  1  1  0  0  0
 19  4  1  0  0  0  0
 19 16  1  1  0  0  0
 20 18  1  0  0  0  0
 21 11  1  0  0  0  0
 21 23  1  1  0  0  0
 22 24  1  0  0  0  0
 23 22  3  0  0  0  0
 25 24  1  0  0  0  0
 25 26  1  0  0  0  0
M  END
>  <MODEL>
2

>  <REMARK>
 VINA RESULT:      -5.1      4.356      6.130
  Name = 
  3 active torsions:
  status: ('A' for Active; 'I' for Inactive)
    1  A    between atoms: C_7  and  N_9
    2  A    between atoms: N_9  and  O_14
    3  A    between atoms: C_12  and  C_26
                            x       y       z     vdW  Elec       q    Type
                         _______ _______ _______ _____ _____    ______ ____

>  <TORSDO>
F 3

$$$$
=
 OpenBabel10232407553D

 26 29  0  0  1  0  0  0  0  0999 V2000
  188.5800  175.6630  135.4090 C   0  0  1  0  0  3  0  0  0  0  0  0
  191.5780  176.3230  138.2830 S   0  0  0  0  0  0  0  0  0  0  0  0
  187.4640  174.9430  135.6340 C   0  0  1  0  0  3  0  0  0  0  0  0
  191.4620  173.8540  136.7980 C   0  0  2  0  0  3  0  0  0  0  0  0
  188.6860  177.1560  135.7350 C   0  0  1  0  0  3  0  0  0  0  0  0
  187.6120  173.6470  136.3250 C   0  0  0  0  0  0  0  0  0  0  0  0
  192.1550  175.2340  136.9080 C   0  0  0  0  0  2  0  0  0  0  0  0
  189.8450  174.9980  135.4680 N   0  0  0  0  0  2  0  0  0  0  0  0
  185.9010  176.4710  134.3460 C   0  0  0  0  0  1  0  0  0  0  0  0
  192.2880  172.9620  135.8940 C   0  0  0  0  0  1  0  0  0  0  0  0
  188.9920  177.4030  138.6110 C   0  0  0  0  0  2  0  0  0  0  0  0
  186.1360  175.3880  135.2900 N   0  0  0  0  0  0  0  0  0  0  0  0
  187.5310  177.7590  136.5710 C   0  0  0  0  0  2  0  0  0  0  0  0
  186.5170  172.9500  136.6300 C   0  0  0  0  0  3  0  0  0  0  0  0
  185.0270  174.5440  135.6230 C   0  0  0  0  0  3  0  0  0  0  0  0
  188.9420  173.2530  136.9120 C   0  0  0  0  0  2  0  0  0  0  0  0
  185.2110  173.4140  136.2440 N   0  0  0  0  0  0  0  0  0  0  0  0
  189.9200  176.7250  137.6230 C   0  0  1  0  0  3  0  0  0  0  0  0
  190.0770  173.9800  136.2380 C   0  0  2  0  0  3  0  0  0  0  0  0
  189.9260  177.4290  136.3910 O   0  0  0  0  0  0  0  0  0  0  0  0
  187.5810  177.2950  138.0340 C   0  0  2  0  0  3  0  0  0  0  0  0
  185.8760  178.7270  139.5050 C   0  0  0  0  0  0  0  0  0  0  0  0
  186.6460  178.0810  138.8400 C   0  0  0  0  0  0  0  0  0  0  0  0
  184.9820  179.4800  140.2790 N   0  0  0  0  0  2  0  0  0  0  0  0
  185.0930  179.5080  141.6290 O   0  0  0  0  0  0  0  0  0  0  0  0
  184.4270  178.3620  142.0690 C   0  0  0  0  0  1  0  0  0  0  0  0
  1  8  1  1  0  0  0
  1  3  1  0  0  0  0
  1  5  1  0  0  0  0
  3  6  1  1  0  0  0
  4 10  1  6  0  0  0
  4  7  1  0  0  0  0
  5 20  1  0  0  0  0
  5 13  1  1  0  0  0
  6 14  2  0  0  0  0
  6 16  1  0  0  0  0
  7  2  1  0  0  0  0
  8 19  1  0  0  0  0
  9 12  1  0  0  0  0
 12 15  1  0  0  0  0
 12  3  1  0  0  0  0
 13 21  1  0  0  0  0
 15 17  2  0  0  0  0
 17 14  1  0  0  0  0
 18  2  1  0  0  0  0
 18 11  1  1  0  0  0
 19  4  1  0  0  0  0
 19 16  1  1  0  0  0
 20 18  1  0  0  0  0
 21 11  1  0  0  0  0
 21 23  1  1  0  0  0
 22 24  1  0  0  0  0
 23 22  3  0  0  0  0
 24 25  1  0  0  0  0
 25 26  1  0  0  0  0
M  END
>  <MODEL>
3

>  <REMARK>
 VINA RESULT:      -5.0      4.194      6.289
  Name = 
  3 active torsions:
  status: ('A' for Active; 'I' for Inactive)
    1  A    between atoms: C_7  and  N_9
    2  A    between atoms: N_9  and  O_14
    3  A    between atoms: C_12  and  C_26
                            x       y       z     vdW  Elec       q    Type
                         _______ _______ _______ _____ _____    ______ ____

>  <TORSDO>
F 3

$$$$
=
 OpenBabel10232407553D

 26 29  0  0  1  0  0  0  0  0999 V2000
  186.8740  176.4100  135.9000 C   0  0  1  0  0  3  0  0  0  0  0  0
  190.7750  176.8830  137.3950 S   0  0  0  0  0  0  0  0  0  0  0  0
  185.9380  175.6250  136.4670 C   0  0  1  0  0  3  0  0  0  0  0  0
  190.0630  174.5840  135.8090 C   0  0  2  0  0  3  0  0  0  0  0  0
  187.1090  177.8630  136.3230 C   0  0  1  0  0  3  0  0  0  0  0  0
  186.3440  174.2700  136.8900 C   0  0  0  0  0  0  0  0  0  0  0  0
  190.7480  175.9710  135.7890 C   0  0  0  0  0  2  0  0  0  0  0  0
  188.0540  175.7950  135.3730 N   0  0  0  0  0  2  0  0  0  0  0  0
  183.9980  177.2150  136.0920 C   0  0  0  0  0  1  0  0  0  0  0  0
  190.4530  173.8270  134.5560 C   0  0  0  0  0  1  0  0  0  0  0  0
  188.5430  177.8160  138.8470 C   0  0  0  0  0  2  0  0  0  0  0  0
  184.5860  176.0490  136.7340 N   0  0  0  0  0  0  0  0  0  0  0  0
  186.3890  178.3260  137.6130 C   0  0  0  0  0  2  0  0  0  0  0  0
  185.4590  173.5000  137.5240 C   0  0  0  0  0  3  0  0  0  0  0  0
  183.6990  175.1300  137.3830 C   0  0  0  0  0  3  0  0  0  0  0  0
  187.7960  173.8710  136.8490 C   0  0  0  0  0  2  0  0  0  0  0  0
  184.1110  173.9490  137.7460 N   0  0  0  0  0  0  0  0  0  0  0  0
  188.9940  177.2850  137.5010 C   0  0  1  0  0  3  0  0  0  0  0  0
  188.5690  174.7110  135.8660 C   0  0  2  0  0  3  0  0  0  0  0  0
  188.5100  178.1150  136.4570 O   0  0  0  0  0  0  0  0  0  0  0  0
  187.0190  177.7120  138.8720 C   0  0  2  0  0  3  0  0  0  0  0  0
  186.0530  178.9090  141.0530 C   0  0  0  0  0  0  0  0  0  0  0  0
  186.4890  178.3680  140.0680 C   0  0  0  0  0  0  0  0  0  0  0  0
  185.5480  179.5400  142.1980 N   0  0  0  0  0  2  0  0  0  0  0  0
  184.3800  179.1330  142.7510 O   0  0  0  0  0  0  0  0  0  0  0  0
  184.4090  179.6250  144.0570 C   0  0  0  0  0  1  0  0  0  0  0  0
  1  8  1  1  0  0  0
  1  5  1  0  0  0  0
  1  3  1  0  0  0  0
  2 18  1  0  0  0  0
  3 12  1  0  0  0  0
  3  6  1  1  0  0  0
  4 10  1  6  0  0  0
  4 19  1  0  0  0  0
  5 20  1  0  0  0  0
  5 13  1  1  0  0  0
  6 14  2  0  0  0  0
  7  4  1  0  0  0  0
  7  2  1  0  0  0  0
  8 19  1  0  0  0  0
  9 12  1  0  0  0  0
 11 21  1  0  0  0  0
 12 15  1  0  0  0  0
 13 21  1  0  0  0  0
 14 17  1  0  0  0  0
 15 17  2  0  0  0  0
 16  6  1  0  0  0  0
 18 11  1  1  0  0  0
 19 16  1  1  0  0  0
 20 18  1  0  0  0  0
 21 23  1  1  0  0  0
 22 24  1  0  0  0  0
 23 22  3  0  0  0  0
 24 25  1  0  0  0  0
 25 26  1  0  0  0  0
M  END
>  <MODEL>
4

>  <REMARK>
 VINA RESULT:      -4.6      3.240      4.711
  Name = 
  3 active torsions:
  status: ('A' for Active; 'I' for Inactive)
    1  A    between atoms: C_7  and  N_9
    2  A    between atoms: N_9  and  O_14
    3  A    between atoms: C_12  and  C_26
                            x       y       z     vdW  Elec       q    Type
                         _______ _______ _______ _____ _____    ______ ____

>  <TORSDO>
F 3

$$$$
=
 OpenBabel10232407553D

 26 29  0  0  1  0  0  0  0  0999 V2000
  182.1710  177.0010  138.9750 C   0  0  1  0  0  3  0  0  0  0  0  0
  180.0800  176.7840  135.3350 S   0  0  0  0  0  0  0  0  0  0  0  0
  183.3800  177.5780  139.1190 C   0  0  1  0  0  3  0  0  0  0  0  0
  182.1960  174.9240  135.9430 C   0  0  2  0  0  3  0  0  0  0  0  0
  180.8600  177.7860  139.0680 C   0  0  1  0  0  3  0  0  0  0  0  0
  184.4130  177.2640  138.1110 C   0  0  0  0  0  0  0  0  0  0  0  0
  180.6620  175.1280  135.9060 C   0  0  0  0  0  2  0  0  0  0  0  0
  182.0610  175.8450  138.1410 N   0  0  0  0  0  2  0  0  0  0  0  0
  182.8920  178.6600  141.3610 C   0  0  0  0  0  1  0  0  0  0  0  0
  182.4910  173.4420  136.0580 C   0  0  0  0  0  1  0  0  0  0  0  0
  180.5520  179.2670  136.5900 C   0  0  0  0  0  2  0  0  0  0  0  0
  183.7040  178.5210  140.1610 N   0  0  0  0  0  0  0  0  0  0  0  0
  180.9840  179.3290  139.0870 C   0  0  0  0  0  2  0  0  0  0  0  0
  185.5930  177.8810  138.1850 C   0  0  0  0  0  3  0  0  0  0  0  0
  185.0160  179.0960  140.1760 C   0  0  0  0  0  3  0  0  0  0  0  0
  184.0510  176.4760  136.8800 C   0  0  0  0  0  2  0  0  0  0  0  0
  185.8880  178.7930  139.2570 N   0  0  0  0  0  0  0  0  0  0  0  0
  180.6080  177.7650  136.7860 C   0  0  1  0  0  3  0  0  0  0  0  0
  182.8150  175.6430  137.1050 C   0  0  2  0  0  3  0  0  0  0  0  0
  179.9820  177.4030  138.0060 O   0  0  0  0  0  0  0  0  0  0  0  0
  181.3820  179.8880  137.7130 C   0  0  2  0  0  3  0  0  0  0  0  0
  181.1110  182.5430  137.6930 C   0  0  0  0  0  0  0  0  0  0  0  0
  181.2340  181.3430  137.7020 C   0  0  0  0  0  0  0  0  0  0  0  0
  180.9670  183.9370  137.6820 N   0  0  0  0  0  2  0  0  0  0  0  0
  181.5020  184.6780  136.6830 O   0  0  0  0  0  0  0  0  0  0  0  0
  180.7330  184.3760  135.5580 C   0  0  0  0  0  1  0  0  0  0  0  0
  1  8  1  6  0  0  0
  1  5  1  0  0  0  0
  1  3  1  0  0  0  0
  2  7  1  0  0  0  0
  2 18  1  0  0  0  0
  3  6  1  6  0  0  0
  3 12  1  0  0  0  0
  4 10  1  1  0  0  0
  4 19  1  0  0  0  0
  5 13  1  6  0  0  0
  6 14  2  0  0  0  0
  7  4  1  0  0  0  0
 11 21  1  0  0  0  0
 12 15  1  0  0  0  0
 12  9  1  0  0  0  0
 14 17  1  0  0  0  0
 16  6  1  0  0  0  0
 17 15  2  0  0  0  0
 18 11  1  6  0  0  0
 18 20  1  0  0  0  0
 19 16  1  6  0  0  0
 19  8  1  0  0  0  0
 20  5  1  0  0  0  0
 21 23  1  1  0  0  0
 21 13  1  0  0  0  0
 22 23  3  0  0  0  0
 24 22  1  0  0  0  0
 25 24  1  0  0  0  0
 26 25  1  0  0  0  0
M  END
>  <MODEL>
5

>  <REMARK>
 VINA RESULT:      -4.6      3.549      5.971
  Name = 
  3 active torsions:
  status: ('A' for Active; 'I' for Inactive)
    1  A    between atoms: C_7  and  N_9
    2  A    between atoms: N_9  and  O_14
    3  A    between atoms: C_12  and  C_26
                            x       y       z     vdW  Elec       q    Type
                         _______ _______ _______ _____ _____    ______ ____

>  <TORSDO>
F 3

$$$$
=
 OpenBabel10232407553D

 26 29  0  0  1  0  0  0  0  0999 V2000
  184.8900  175.8620  135.4210 C   0  0  1  0  0  3  0  0  0  0  0  0
  184.0170  172.0590  136.9870 S   0  0  0  0  0  0  0  0  0  0  0  0
  185.3980  176.8780  136.1430 C   0  0  1  0  0  3  0  0  0  0  0  0
  182.1950  174.2640  137.3430 C   0  0  2  0  0  3  0  0  0  0  0  0
  185.7650  174.7980  134.7530 C   0  0  1  0  0  3  0  0  0  0  0  0
  184.7970  177.1460  137.4660 C   0  0  0  0  0  0  0  0  0  0  0  0
  182.4920  172.9890  136.5180 C   0  0  0  0  0  2  0  0  0  0  0  0
  183.5880  175.3720  135.7530 N   0  0  0  0  0  2  0  0  0  0  0  0
  186.9820  177.7150  134.3470 C   0  0  0  0  0  1  0  0  0  0  0  0
  180.7580  174.6810  137.1000 C   0  0  0  0  0  1  0  0  0  0  0  0
  186.6770  172.9870  136.8300 C   0  0  0  0  0  2  0  0  0  0  0  0
  186.5240  177.6780  135.7280 N   0  0  0  0  0  0  0  0  0  0  0  0
  187.2620  174.7920  135.1500 C   0  0  0  0  0  2  0  0  0  0  0  0
  185.3310  178.0950  138.2350 C   0  0  0  0  0  3  0  0  0  0  0  0
  186.9950  178.7030  136.6120 C   0  0  0  0  0  3  0  0  0  0  0  0
  183.7830  176.1930  138.0400 C   0  0  0  0  0  2  0  0  0  0  0  0
  186.4360  178.8910  137.7730 N   0  0  0  0  0  0  0  0  0  0  0  0
  185.2560  173.2610  136.3810 C   0  0  1  0  0  3  0  0  0  0  0  0
  183.1090  175.3900  136.9580 C   0  0  2  0  0  3  0  0  0  0  0  0
  185.2180  173.4970  134.9820 O   0  0  0  0  0  0  0  0  0  0  0  0
  187.4720  174.2670  136.5780 C   0  0  2  0  0  3  0  0  0  0  0  0
  190.0690  173.8370  137.0180 C   0  0  0  0  0  0  0  0  0  0  0  0
  188.8960  174.0320  136.8190 C   0  0  0  0  0  0  0  0  0  0  0  0
  191.4330  173.6090  137.2490 N   0  0  0  0  0  2  0  0  0  0  0  0
  192.1500  174.4510  138.0300 O   0  0  0  0  0  0  0  0  0  0  0  0
  191.9970  175.7070  137.4410 C   0  0  0  0  0  1  0  0  0  0  0  0
  1  8  1  1  0  0  0
  1  3  1  0  0  0  0
  3  6  1  1  0  0  0
  4 10  1  6  0  0  0
  5 20  1  0  0  0  0
  5 13  1  1  0  0  0
  5  1  1  0  0  0  0
  6 16  1  0  0  0  0
  6 14  2  0  0  0  0
  7  2  1  0  0  0  0
  7  4  1  0  0  0  0
  8 19  1  0  0  0  0
  9 12  1  0  0  0  0
 12  3  1  0  0  0  0
 12 15  1  0  0  0  0
 13 21  1  0  0  0  0
 15 17  2  0  0  0  0
 17 14  1  0  0  0  0
 18 11  1  6  0  0  0
 18  2  1  0  0  0  0
 19  4  1  0  0  0  0
 19 16  1  1  0  0  0
 20 18  1  0  0  0  0
 21 23  1  6  0  0  0
 21 11  1  0  0  0  0
 22 24  1  0  0  0  0
 23 22  3  0  0  0  0
 24 25  1  0  0  0  0
 26 25  1  0  0  0  0
M  END
>  <MODEL>
6

>  <REMARK>
 VINA RESULT:      -4.4      4.910      7.432
  Name = 
  3 active torsions:
  status: ('A' for Active; 'I' for Inactive)
    1  A    between atoms: C_7  and  N_9
    2  A    between atoms: N_9  and  O_14
    3  A    between atoms: C_12  and  C_26
                            x       y       z     vdW  Elec       q    Type
                         _______ _______ _______ _____ _____    ______ ____

>  <TORSDO>
F 3

$$$$
=
 OpenBabel10232407553D

 26 29  0  0  1  0  0  0  0  0999 V2000
  186.1920  175.6480  135.2410 C   0  0  1  0  0  3  0  0  0  0  0  0
  188.9180  178.3420  136.9700 S   0  0  0  0  0  0  0  0  0  0  0  0
  185.6330  174.6130  135.8980 C   0  0  1  0  0  3  0  0  0  0  0  0
  189.7800  175.7580  136.0300 C   0  0  2  0  0  3  0  0  0  0  0  0
  185.6030  177.0610  135.2610 C   0  0  1  0  0  3  0  0  0  0  0  0
  186.5160  173.7710  136.7290 C   0  0  0  0  0  0  0  0  0  0  0  0
  189.7110  177.2670  135.6960 C   0  0  0  0  0  2  0  0  0  0  0  0
  187.6100  175.6470  135.0460 N   0  0  0  0  0  2  0  0  0  0  0  0
  183.3260  174.8660  134.8730 C   0  0  0  0  0  1  0  0  0  0  0  0
  190.7700  175.0940  135.0930 C   0  0  0  0  0  1  0  0  0  0  0  0
  186.2350  178.2350  137.8390 C   0  0  0  0  0  2  0  0  0  0  0  0
  184.2220  174.3170  135.8810 N   0  0  0  0  0  0  0  0  0  0  0  0
  184.4640  177.3150  136.2770 C   0  0  0  0  0  2  0  0  0  0  0  0
  185.9770  172.7880  137.4510 C   0  0  0  0  0  3  0  0  0  0  0  0
  183.7480  173.2110  136.6590 C   0  0  0  0  0  3  0  0  0  0  0  0
  187.9460  174.1820  136.9660 C   0  0  0  0  0  2  0  0  0  0  0  0
  184.5680  172.5060  137.3840 N   0  0  0  0  0  0  0  0  0  0  0  0
  187.1910  177.7750  136.7580 C   0  0  1  0  0  3  0  0  0  0  0  0
  188.4400  175.1010  135.8790 C   0  0  2  0  0  3  0  0  0  0  0  0
  186.6400  178.0220  135.4740 O   0  0  0  0  0  0  0  0  0  0  0  0
  184.9860  177.3640  137.7210 C   0  0  2  0  0  3  0  0  0  0  0  0
  183.0770  178.2690  139.3520 C   0  0  0  0  0  0  0  0  0  0  0  0
  183.9390  177.8600  138.6150 C   0  0  0  0  0  0  0  0  0  0  0  0
  182.0760  178.7450  140.2100 N   0  0  0  0  0  2  0  0  0  0  0  0
  182.2790  178.7880  141.5490 O   0  0  0  0  0  0  0  0  0  0  0  0
  181.0000  178.8360  142.1060 C   0  0  0  0  0  1  0  0  0  0  0  0
  1  8  1  1  0  0  0
  1  5  1  0  0  0  0
  1  3  1  0  0  0  0
  3  6  1  1  0  0  0
  4 10  1  6  0  0  0
  5 20  1  0  0  0  0
  5 13  1  1  0  0  0
  6 16  1  0  0  0  0
  6 14  2  0  0  0  0
  7  4  1  0  0  0  0
  7  2  1  0  0  0  0
  8 19  1  0  0  0  0
  9 12  1  0  0  0  0
 12  3  1  0  0  0  0
 12 15  1  0  0  0  0
 13 21  1  0  0  0  0
 15 17  2  0  0  0  0
 17 14  1  0  0  0  0
 18  2  1  0  0  0  0
 18 11  1  1  0  0  0
 19  4  1  0  0  0  0
 19 16  1  1  0  0  0
 20 18  1  0  0  0  0
 21 11  1  0  0  0  0
 21 23  1  1  0  0  0
 22 24  1  0  0  0  0
 23 22  3  0  0  0  0
 24 25  1  0  0  0  0
 25 26  1  0  0  0  0
M  END
>  <MODEL>
7

>  <REMARK>
 VINA RESULT:      -4.3      3.143      5.137
  Name = 
  3 active torsions:
  status: ('A' for Active; 'I' for Inactive)
    1  A    between atoms: C_7  and  N_9
    2  A    between atoms: N_9  and  O_14
    3  A    between atoms: C_12  and  C_26
                            x       y       z     vdW  Elec       q    Type
                         _______ _______ _______ _____ _____    ______ ____

>  <TORSDO>
F 3

$$$$
=
 OpenBabel10232407553D

 26 29  0  0  1  0  0  0  0  0999 V2000
  184.5390  174.4150  134.8030 C   0  0  1  0  0  3  0  0  0  0  0  0
  187.6160  171.7820  135.9330 S   0  0  0  0  0  0  0  0  0  0  0  0
  183.6630  174.9680  135.6640 C   0  0  1  0  0  3  0  0  0  0  0  0
  184.9090  170.8480  135.6050 C   0  0  2  0  0  3  0  0  0  0  0  0
  185.9060  175.0330  134.4980 C   0  0  1  0  0  3  0  0  0  0  0  0
  183.0480  174.0850  136.6760 C   0  0  0  0  0  0  0  0  0  0  0  0
  186.3040  170.9410  134.9430 C   0  0  0  0  0  2  0  0  0  0  0  0
  184.5290  172.9940  134.6350 N   0  0  0  0  0  2  0  0  0  0  0  0
  183.6250  177.2560  134.5710 C   0  0  0  0  0  1  0  0  0  0  0  0
  184.0780  169.8250  134.8560 C   0  0  0  0  0  1  0  0  0  0  0  0
  187.6380  174.4800  136.7610 C   0  0  0  0  0  2  0  0  0  0  0  0
  183.3350  176.3710  135.6900 N   0  0  0  0  0  0  0  0  0  0  0  0
  186.3520  176.1990  135.4140 C   0  0  0  0  0  2  0  0  0  0  0  0
  182.2370  174.6200  137.5900 C   0  0  0  0  0  3  0  0  0  0  0  0
  182.4180  176.8390  136.6870 C   0  0  0  0  0  3  0  0  0  0  0  0
  183.5360  172.6700  136.8390 C   0  0  0  0  0  2  0  0  0  0  0  0
  181.9120  176.0200  137.5640 N   0  0  0  0  0  0  0  0  0  0  0  0
  186.9730  173.4920  135.8240 C   0  0  1  0  0  3  0  0  0  0  0  0
  184.2030  172.1700  135.5830 C   0  0  2  0  0  3  0  0  0  0  0  0
  186.9160  174.0210  134.5090 O   0  0  0  0  0  0  0  0  0  0  0  0
  186.7320  175.7090  136.8190 C   0  0  2  0  0  3  0  0  0  0  0  0
  187.9300  177.6700  138.1750 C   0  0  0  0  0  0  0  0  0  0  0  0
  187.3890  176.7840  137.5630 C   0  0  0  0  0  0  0  0  0  0  0  0
  188.5580  178.7020  138.8870 N   0  0  0  0  0  2  0  0  0  0  0  0
  188.3190  178.8730  140.2090 O   0  0  0  0  0  0  0  0  0  0  0  0
  188.8540  177.7380  140.8210 C   0  0  0  0  0  1  0  0  0  0  0  0
  1  8  1  1  0  0  0
  1  3  1  0  0  0  0
  3 12  1  0  0  0  0
  3  6  1  1  0  0  0
  4 10  1  6  0  0  0
  5 20  1  0  0  0  0
  5  1  1  0  0  0  0
  5 13  1  1  0  0  0
  6 16  1  0  0  0  0
  6 14  2  0  0  0  0
  7  4  1  0  0  0  0
  7  2  1  0  0  0  0
  8 19  1  0  0  0  0
  9 12  1  0  0  0  0
 11 21  1  0  0  0  0
 12 15  1  0  0  0  0
 13 21  1  0  0  0  0
 15 17  2  0  0  0  0
 17 14  1  0  0  0  0
 18  2  1  0  0  0  0
 18 11  1  1  0  0  0
 19  4  1  0  0  0  0
 19 16  1  1  0  0  0
 20 18  1  0  0  0  0
 21 23  1  6  0  0  0
 22 24  1  0  0  0  0
 23 22  3  0  0  0  0
 24 25  1  0  0  0  0
 25 26  1  0  0  0  0
M  END
>  <MODEL>
8

>  <REMARK>
 VINA RESULT:      -4.2      4.306      6.097
  Name = 
  3 active torsions:
  status: ('A' for Active; 'I' for Inactive)
    1  A    between atoms: C_7  and  N_9
    2  A    between atoms: N_9  and  O_14
    3  A    between atoms: C_12  and  C_26
                            x       y       z     vdW  Elec       q    Type
                         _______ _______ _______ _____ _____    ______ ____

>  <TORSDO>
F 3

$$$$
=
 OpenBabel10232407553D

 26 29  0  0  1  0  0  0  0  0999 V2000
  181.8650  175.6750  135.7120 C   0  0  1  0  0  3  0  0  0  0  0  0
  184.1540  172.3600  136.9140 S   0  0  0  0  0  0  0  0  0  0  0  0
  181.4650  176.6580  136.5420 C   0  0  1  0  0  3  0  0  0  0  0  0
  181.3060  172.4330  137.3510 C   0  0  2  0  0  3  0  0  0  0  0  0
  183.2240  175.6840  135.0070 C   0  0  1  0  0  3  0  0  0  0  0  0
  180.8980  176.2640  137.8480 C   0  0  0  0  0  0  0  0  0  0  0  0
  182.4330  171.8860  136.4420 C   0  0  0  0  0  2  0  0  0  0  0  0
  181.3700  174.3510  135.9330 N   0  0  0  0  0  2  0  0  0  0  0  0
  181.8530  178.5580  134.9070 C   0  0  0  0  0  1  0  0  0  0  0  0
  180.0310  171.6640  137.0660 C   0  0  0  0  0  1  0  0  0  0  0  0
  185.2330  174.9660  136.9760 C   0  0  0  0  0  2  0  0  0  0  0  0
  181.6100  178.0630  136.2540 N   0  0  0  0  0  0  0  0  0  0  0  0
  184.2360  176.7550  135.4820 C   0  0  0  0  0  2  0  0  0  0  0  0
  180.5670  177.2170  138.7200 C   0  0  0  0  0  3  0  0  0  0  0  0
  181.1830  179.0090  137.2430 C   0  0  0  0  0  3  0  0  0  0  0  0
  180.9470  174.8250  138.2870 C   0  0  0  0  0  2  0  0  0  0  0  0
  180.6990  178.6090  138.3840 N   0  0  0  0  0  0  0  0  0  0  0  0
  184.0700  174.1340  136.4750 C   0  0  1  0  0  3  0  0  0  0  0  0
  181.0670  173.8940  137.1080 C   0  0  2  0  0  3  0  0  0  0  0  0
  183.8340  174.3940  135.1000 O   0  0  0  0  0  0  0  0  0  0  0  0
  184.8040  176.4290  136.8720 C   0  0  2  0  0  3  0  0  0  0  0  0
  186.8660  178.0330  137.4150 C   0  0  0  0  0  0  0  0  0  0  0  0
  185.9350  177.3080  137.1690 C   0  0  0  0  0  0  0  0  0  0  0  0
  187.9490  178.8750  137.7020 N   0  0  0  0  0  2  0  0  0  0  0  0
  188.5940  178.7880  138.8900 O   0  0  0  0  0  0  0  0  0  0  0  0
  189.5000  177.7380  138.7330 C   0  0  0  0  0  1  0  0  0  0  0  0
  1  8  1  1  0  0  0
  1  3  1  0  0  0  0
  3  6  1  1  0  0  0
  4 10  1  6  0  0  0
  5 20  1  0  0  0  0
  5 13  1  1  0  0  0
  5  1  1  0  0  0  0
  6 16  1  0  0  0  0
  6 14  2  0  0  0  0
  7  2  1  0  0  0  0
  7  4  1  0  0  0  0
  8 19  1  0  0  0  0
  9 12  1  0  0  0  0
 12  3  1  0  0  0  0
 12 15  1  0  0  0  0
 13 21  1  0  0  0  0
 15 17  2  0  0  0  0
 17 14  1  0  0  0  0
 18  2  1  0  0  0  0
 18 11  1  6  0  0  0
 19  4  1  0  0  0  0
 19 16  1  1  0  0  0
 20 18  1  0  0  0  0
 21 11  1  0  0  0  0
 21 23  1  6  0  0  0
 22 24  1  0  0  0  0
 23 22  3  0  0  0  0
 24 25  1  0  0  0  0
 26 25  1  0  0  0  0
M  END
>  <MODEL>
9

>  <REMARK>
 VINA RESULT:      -4.1      4.199      5.775
  Name = 
  3 active torsions:
  status: ('A' for Active; 'I' for Inactive)
    1  A    between atoms: C_7  and  N_9
    2  A    between atoms: N_9  and  O_14
    3  A    between atoms: C_12  and  C_26
                            x       y       z     vdW  Elec       q    Type
                         _______ _______ _______ _____ _____    ______ ____

>  <TORSDO>
F 3

$$$$
