=
 OpenBabel10232409183D

 30 31  0  0  1  0  0  0  0  0999 V2000
  186.5700  177.7620  143.7930 C   0  0  0  0  0  3  0  0  0  0  0  0
  186.3440  178.0080  145.0920 C   0  0  0  0  0  0  0  0  0  0  0  0
  187.3640  177.8510  146.1500 C   0  0  0  0  0  0  0  0  0  0  0  0
  188.6540  177.4000  145.8390 C   0  0  0  0  0  3  0  0  0  0  0  0
  188.0550  178.1010  148.4500 C   0  0  0  0  0  3  0  0  0  0  0  0
  189.6080  177.2880  146.8520 C   0  0  0  0  0  0  0  0  0  0  0  0
  189.2920  177.6410  148.1260 N   0  0  0  0  0  0  0  0  0  0  0  0
  187.0700  178.2190  147.4660 C   0  0  0  0  0  3  0  0  0  0  0  0
  190.9840  176.8240  146.5290 C   0  0  0  0  0  2  0  0  0  0  0  0
  191.6070  175.8840  144.1730 C   0  0  0  0  0  1  0  0  0  0  0  0
  191.5180  177.5210  144.9440 S   0  0  0  0  0  0  0  0  0  0  0  0
  187.9600  175.9310  143.1430 O   0  0  0  0  0  0  0  0  0  0  0  0
  187.7820  177.1770  143.1920 C   0  0  0  0  0  0  0  0  0  0  0  0
  188.7700  178.0810  142.5430 C   0  0  0  0  0  2  0  0  0  0  0  0
  188.3730  178.3260  141.0980 C   0  0  0  0  0  2  0  0  0  0  0  0
  190.3710  177.2780  138.0030 N   0  0  0  0  0  2  0  0  0  0  0  0
  189.4630  177.9980  138.8370 C   0  0  0  0  0  0  0  0  0  0  0  0
  188.8130  178.9610  138.3510 O   0  0  0  0  0  0  0  0  0  0  0  0
  189.2820  177.6200  140.2050 N   0  0  0  0  0  2  0  0  0  0  0  0
  191.1240  176.1250  138.4750 C   0  0  1  0  0  3  0  0  0  0  0  0
  190.5300  174.9520  138.0110 O   0  0  0  0  0  1  0  0  0  0  0  0
  192.5410  176.2060  137.9530 C   0  0  0  0  0  1  0  0  0  0  0  0
  184.9830  178.4920  145.4750 C   0  0  0  0  0  2  0  0  0  0  0  0
  184.4520  179.3420  144.4590 O   0  0  0  0  0  0  0  0  0  0  0  0
  182.1530  178.7960  144.1500 C   0  0  0  0  0  1  0  0  0  0  0  0
  183.3720  178.9950  143.6390 C   0  0  0  0  0  0  0  0  0  0  0  0
  183.6060  178.8290  142.2380 N   0  0  0  0  0  0  0  0  0  0  0  0
  182.5590  178.5190  141.2750 C   0  0  0  0  0  3  0  0  0  0  0  0
  183.0070  178.9420  139.8920 C   0  0  0  0  0  2  0  0  0  0  0  0
  183.0760  177.4850  140.3000 C   0  0  0  0  0  2  0  0  0  0  0  0
  1  2  2  0  0  0  0
  2 23  1  0  0  0  0
  2  3  1  0  0  0  0
  3  8  1  0  0  0  0
  4  3  2  0  0  0  0
  4  6  1  0  0  0  0
  6  7  2  0  0  0  0
  7  5  1  0  0  0  0
  8  5  2  0  0  0  0
  9  6  1  0  0  0  0
 10 11  1  0  0  0  0
 11  9  1  0  0  0  0
 12 13  2  0  0  0  0
 13  1  1  0  0  0  0
 14 13  1  0  0  0  0
 15 14  1  0  0  0  0
 16 20  1  0  0  0  0
 16 17  1  0  0  0  0
 17 19  1  0  0  0  0
 18 17  2  0  0  0  0
 19 15  1  0  0  0  0
 20 22  1  6  0  0  0
 21 20  1  0  0  0  0
 24 23  1  0  0  0  0
 26 25  1  0  0  0  0
 26 24  1  0  0  0  0
 27 26  2  0  0  0  0
 28 27  1  0  0  0  0
 29 30  1  0  0  0  0
 29 28  1  0  0  0  0
 30 28  1  0  0  0  0
M  END
>  <MODEL>
1

>  <REMARK>
 VINA RESULT:      -7.7      0.000      0.000
  Name = 
  13 active torsions:
  status: ('A' for Active; 'I' for Inactive)
    1  A    between atoms: C_1  and  N_29
    2  A    between atoms: C_2  and  N_3
    3  A    between atoms: C_5  and  C_18
    4  A    between atoms: S_12  and  C_17
    5  A    between atoms: C_13  and  C_14
    6  A    between atoms: C_13  and  C_26
    7  A    between atoms: C_14  and  N_24
    8  A    between atoms: C_15  and  C_26
    9  A    between atoms: C_17  and  C_19
   10  A    between atoms: C_18  and  C_25
   11  A    between atoms: C_25  and  O_30
   12  A    between atoms: C_27  and  N_29
   13  A    between atoms: C_27  and  O_30
                            x       y       z     vdW  Elec       q    Type
                         _______ _______ _______ _____ _____    ______ ____

>  <TORSDO>
F 13

$$$$
=
 OpenBabel10232409183D

 30 31  0  0  1  0  0  0  0  0999 V2000
  186.8270  177.6860  143.4590 C   0  0  0  0  0  3  0  0  0  0  0  0
  186.4840  177.9860  144.7210 C   0  0  0  0  0  0  0  0  0  0  0  0
  187.3790  177.8040  145.8820 C   0  0  0  0  0  0  0  0  0  0  0  0
  188.7180  177.4280  145.7020 C   0  0  0  0  0  3  0  0  0  0  0  0
  187.7820  177.9350  148.2590 C   0  0  0  0  0  3  0  0  0  0  0  0
  189.5500  177.2910  146.8150 C   0  0  0  0  0  0  0  0  0  0  0  0
  189.0700  177.5480  148.0590 N   0  0  0  0  0  0  0  0  0  0  0  0
  186.9150  178.0750  147.1730 C   0  0  0  0  0  3  0  0  0  0  0  0
  190.9750  176.9060  146.6330 C   0  0  0  0  0  2  0  0  0  0  0  0
  191.6740  175.8190  144.3640 C   0  0  0  0  0  1  0  0  0  0  0  0
  191.5800  177.5000  145.0310 S   0  0  0  0  0  0  0  0  0  0  0  0
  188.1930  175.7640  143.0760 O   0  0  0  0  0  0  0  0  0  0  0  0
  188.0560  177.0140  143.0020 C   0  0  0  0  0  0  0  0  0  0  0  0
  189.1190  177.8260  142.3500 C   0  0  0  0  0  2  0  0  0  0  0  0
  189.7740  177.0230  141.2400 C   0  0  0  0  0  2  0  0  0  0  0  0
  189.0630  177.2360  137.4830 N   0  0  0  0  0  2  0  0  0  0  0  0
  189.6020  176.7860  138.7260 C   0  0  0  0  0  0  0  0  0  0  0  0
  190.3950  175.8080  138.7340 O   0  0  0  0  0  0  0  0  0  0  0  0
  189.2570  177.4480  139.9470 N   0  0  0  0  0  2  0  0  0  0  0  0
  188.1780  178.3870  137.3820 C   0  0  1  0  0  3  0  0  0  0  0  0
  188.9330  179.5600  137.3450 O   0  0  0  0  0  1  0  0  0  0  0  0
  187.3610  178.2800  136.1140 C   0  0  0  0  0  1  0  0  0  0  0  0
  185.1220  178.5590  144.9470 C   0  0  0  0  0  2  0  0  0  0  0  0
  184.6860  179.2770  143.7940 O   0  0  0  0  0  0  0  0  0  0  0  0
  182.3340  179.0150  143.5090 C   0  0  0  0  0  2  0  0  0  0  0  0
  183.5750  178.9120  143.0240 C   0  0  0  0  0  0  0  0  0  0  0  0
  183.7990  178.3970  141.7080 N   0  0  0  0  0  2  0  0  0  0  0  0
  184.6230  179.0640  140.7090 C   0  0  0  0  0  3  0  0  0  0  0  0
  184.6090  178.2570  139.4270 C   0  0  0  0  0  2  0  0  0  0  0  0
  183.7470  179.4960  139.5550 C   0  0  0  0  0  2  0  0  0  0  0  0
  1  2  2  0  0  0  0
  2 23  1  0  0  0  0
  2  3  1  0  0  0  0
  3  8  1  0  0  0  0
  4  3  2  0  0  0  0
  4  6  1  0  0  0  0
  6  7  2  0  0  0  0
  7  5  1  0  0  0  0
  8  5  2  0  0  0  0
  9  6  1  0  0  0  0
 10 11  1  0  0  0  0
 11  9  1  0  0  0  0
 13 12  2  0  0  0  0
 13  1  1  0  0  0  0
 14 13  1  0  0  0  0
 15 14  1  0  0  0  0
 16 17  1  0  0  0  0
 17 18  2  0  0  0  0
 17 19  1  0  0  0  0
 19 15  1  0  0  0  0
 20 22  1  6  0  0  0
 20 16  1  0  0  0  0
 21 20  1  0  0  0  0
 24 23  1  0  0  0  0
 26 25  2  0  0  0  0
 26 24  1  0  0  0  0
 27 26  1  0  0  0  0
 28 27  1  0  0  0  0
 29 30  1  0  0  0  0
 29 28  1  0  0  0  0
 30 28  1  0  0  0  0
M  END
>  <MODEL>
2

>  <REMARK>
 VINA RESULT:      -7.6      1.107      1.917
  Name = 
  13 active torsions:
  status: ('A' for Active; 'I' for Inactive)
    1  A    between atoms: C_1  and  N_29
    2  A    between atoms: C_2  and  N_3
    3  A    between atoms: C_5  and  C_18
    4  A    between atoms: S_12  and  C_17
    5  A    between atoms: C_13  and  C_14
    6  A    between atoms: C_13  and  C_26
    7  A    between atoms: C_14  and  N_24
    8  A    between atoms: C_15  and  C_26
    9  A    between atoms: C_17  and  C_19
   10  A    between atoms: C_18  and  C_25
   11  A    between atoms: C_25  and  O_30
   12  A    between atoms: C_27  and  N_29
   13  A    between atoms: C_27  and  O_30
                            x       y       z     vdW  Elec       q    Type
                         _______ _______ _______ _____ _____    ______ ____

>  <TORSDO>
F 13

$$$$
=
 OpenBabel10232409183D

 30 31  0  0  1  0  0  0  0  0999 V2000
  185.4440  178.4490  143.8990 C   0  0  0  0  0  3  0  0  0  0  0  0
  186.5390  177.7490  144.2330 C   0  0  0  0  0  0  0  0  0  0  0  0
  187.5920  177.3600  143.2730 C   0  0  0  0  0  0  0  0  0  0  0  0
  187.7480  178.0500  142.0630 C   0  0  0  0  0  3  0  0  0  0  0  0
  189.5090  176.0090  142.6980 C   0  0  0  0  0  3  0  0  0  0  0  0
  188.7710  177.6820  141.1860 C   0  0  0  0  0  0  0  0  0  0  0  0
  189.6240  176.6790  141.5200 N   0  0  0  0  0  0  0  0  0  0  0  0
  188.4940  176.3420  143.5970 C   0  0  0  0  0  3  0  0  0  0  0  0
  188.9510  178.4160  139.9060 C   0  0  0  0  0  2  0  0  0  0  0  0
  189.0770  178.5980  137.3040 C   0  0  0  0  0  1  0  0  0  0  0  0
  188.7390  177.2850  138.5050 S   0  0  0  0  0  0  0  0  0  0  0  0
  185.4990  179.8420  141.9590 O   0  0  0  0  0  0  0  0  0  0  0  0
  185.0120  178.8390  142.5460 C   0  0  0  0  0  0  0  0  0  0  0  0
  184.0470  177.9690  141.8200 C   0  0  0  0  0  2  0  0  0  0  0  0
  183.5620  178.6710  140.5640 C   0  0  0  0  0  2  0  0  0  0  0  0
  185.1130  177.2940  137.3440 N   0  0  0  0  0  2  0  0  0  0  0  0
  184.8840  178.1390  138.4730 C   0  0  0  0  0  0  0  0  0  0  0  0
  185.6100  179.1550  138.6370 O   0  0  0  0  0  0  0  0  0  0  0  0
  183.8320  177.8440  139.3960 N   0  0  0  0  0  2  0  0  0  0  0  0
  184.2900  176.1290  137.0570 C   0  0  1  0  0  3  0  0  0  0  0  0
  183.6330  176.3060  135.8390 O   0  0  0  0  0  1  0  0  0  0  0  0
  185.1700  174.9030  136.9750 C   0  0  0  0  0  1  0  0  0  0  0  0
  186.7000  177.3670  145.6700 C   0  0  0  0  0  2  0  0  0  0  0  0
  187.8170  178.0460  146.2430 O   0  0  0  0  0  0  0  0  0  0  0  0
  188.2720  177.9450  148.5800 C   0  0  0  0  0  2  0  0  0  0  0  0
  188.5500  177.5590  147.3310 C   0  0  0  0  0  0  0  0  0  0  0  0
  189.6270  176.6540  147.0750 N   0  0  0  0  0  2  0  0  0  0  0  0
  191.0300  177.0460  147.0830 C   0  0  0  0  0  3  0  0  0  0  0  0
  191.8930  175.8200  147.3000 C   0  0  0  0  0  2  0  0  0  0  0  0
  191.7300  176.3990  145.9100 C   0  0  0  0  0  2  0  0  0  0  0  0
  1  2  2  0  0  0  0
  2 23  1  0  0  0  0
  3  8  1  0  0  0  0
  3  2  1  0  0  0  0
  4  3  2  0  0  0  0
  5  8  2  0  0  0  0
  6  7  2  0  0  0  0
  6  4  1  0  0  0  0
  7  5  1  0  0  0  0
  9  6  1  0  0  0  0
 10 11  1  0  0  0  0
 11  9  1  0  0  0  0
 12 13  2  0  0  0  0
 13  1  1  0  0  0  0
 14 13  1  0  0  0  0
 15 14  1  0  0  0  0
 16 17  1  0  0  0  0
 17 18  2  0  0  0  0
 17 19  1  0  0  0  0
 19 15  1  0  0  0  0
 20 22  1  6  0  0  0
 20 16  1  0  0  0  0
 21 20  1  0  0  0  0
 23 24  1  0  0  0  0
 24 26  1  0  0  0  0
 26 25  2  0  0  0  0
 27 28  1  0  0  0  0
 27 26  1  0  0  0  0
 28 29  1  0  0  0  0
 30 28  1  0  0  0  0
 30 29  1  0  0  0  0
M  END
>  <MODEL>
3

>  <REMARK>
 VINA RESULT:      -7.4      2.778      6.322
  Name = 
  13 active torsions:
  status: ('A' for Active; 'I' for Inactive)
    1  A    between atoms: C_1  and  N_29
    2  A    between atoms: C_2  and  N_3
    3  A    between atoms: C_5  and  C_18
    4  A    between atoms: S_12  and  C_17
    5  A    between atoms: C_13  and  C_14
    6  A    between atoms: C_13  and  C_26
    7  A    between atoms: C_14  and  N_24
    8  A    between atoms: C_15  and  C_26
    9  A    between atoms: C_17  and  C_19
   10  A    between atoms: C_18  and  C_25
   11  A    between atoms: C_25  and  O_30
   12  A    between atoms: C_27  and  N_29
   13  A    between atoms: C_27  and  O_30
                            x       y       z     vdW  Elec       q    Type
                         _______ _______ _______ _____ _____    ______ ____

>  <TORSDO>
F 13

$$$$
=
 OpenBabel10232409183D

 30 31  0  0  1  0  0  0  0  0999 V2000
  187.1150  178.2410  141.8650 C   0  0  0  0  0  3  0  0  0  0  0  0
  185.8450  178.6500  142.0010 C   0  0  0  0  0  0  0  0  0  0  0  0
  185.1200  178.6700  143.2880 C   0  0  0  0  0  0  0  0  0  0  0  0
  185.8180  178.6410  144.5030 C   0  0  0  0  0  3  0  0  0  0  0  0
  183.0560  178.8470  144.5290 C   0  0  0  0  0  3  0  0  0  0  0  0
  185.1100  178.6910  145.7060 C   0  0  0  0  0  0  0  0  0  0  0  0
  183.7550  178.7940  145.6930 N   0  0  0  0  0  0  0  0  0  0  0  0
  183.7270  178.7910  143.3050 C   0  0  0  0  0  3  0  0  0  0  0  0
  185.8420  178.6750  147.0000 C   0  0  0  0  0  2  0  0  0  0  0  0
  187.8510  178.0560  148.5500 C   0  0  0  0  0  1  0  0  0  0  0  0
  187.3840  177.7370  146.8290 S   0  0  0  0  0  0  0  0  0  0  0  0
  187.8480  176.4120  143.2150 O   0  0  0  0  0  0  0  0  0  0  0  0
  187.9700  177.6240  142.8930 C   0  0  0  0  0  0  0  0  0  0  0  0
  189.0670  178.4300  143.4950 C   0  0  0  0  0  2  0  0  0  0  0  0
  190.3960  177.7220  143.2970 C   0  0  0  0  0  2  0  0  0  0  0  0
  192.1000  175.5890  145.9820 N   0  0  0  0  0  2  0  0  0  0  0  0
  191.6210  176.0140  144.7060 C   0  0  0  0  0  0  0  0  0  0  0  0
  191.8280  175.2870  143.6980 O   0  0  0  0  0  0  0  0  0  0  0  0
  190.9000  177.2430  144.5760 N   0  0  0  0  0  2  0  0  0  0  0  0
  191.8620  176.3460  147.2010 C   0  0  1  0  0  3  0  0  0  0  0  0
  190.5220  176.2360  147.5700 O   0  0  0  0  0  1  0  0  0  0  0  0
  192.7300  175.7940  148.3100 C   0  0  0  0  0  1  0  0  0  0  0  0
  185.1410  179.1340  140.7730 C   0  0  0  0  0  2  0  0  0  0  0  0
  185.8910  178.8010  139.6050 O   0  0  0  0  0  0  0  0  0  0  0  0
  184.0000  178.1830  138.2940 C   0  0  0  0  0  1  0  0  0  0  0  0
  185.3250  178.2580  138.4460 C   0  0  0  0  0  0  0  0  0  0  0  0
  186.2010  177.7580  137.4320 N   0  0  0  0  0  0  0  0  0  0  0  0
  187.6280  177.5440  137.6300 C   0  0  0  0  0  3  0  0  0  0  0  0
  188.1620  176.6610  136.5210 C   0  0  0  0  0  2  0  0  0  0  0  0
  188.3840  178.1580  136.4730 C   0  0  0  0  0  2  0  0  0  0  0  0
  1  2  2  0  0  0  0
  1 13  1  0  0  0  0
  2  3  1  0  0  0  0
  3  8  2  0  0  0  0
  3  4  1  0  0  0  0
  4  6  2  0  0  0  0
  5  7  2  0  0  0  0
  6  9  1  0  0  0  0
  7  6  1  0  0  0  0
  8  5  1  0  0  0  0
 11  9  1  0  0  0  0
 11 10  1  0  0  0  0
 13 12  2  0  0  0  0
 13 14  1  0  0  0  0
 15 14  1  0  0  0  0
 15 19  1  0  0  0  0
 16 20  1  0  0  0  0
 17 16  1  0  0  0  0
 18 17  2  0  0  0  0
 19 17  1  0  0  0  0
 20 21  1  0  0  0  0
 20 22  1  1  0  0  0
 23  2  1  0  0  0  0
 24 23  1  0  0  0  0
 25 26  1  0  0  0  0
 26 24  1  0  0  0  0
 27 28  1  0  0  0  0
 27 26  2  0  0  0  0
 29 28  1  0  0  0  0
 30 29  1  0  0  0  0
 30 28  1  0  0  0  0
M  END
>  <MODEL>
4

>  <REMARK>
 VINA RESULT:      -7.1      2.778      5.798
  Name = 
  13 active torsions:
  status: ('A' for Active; 'I' for Inactive)
    1  A    between atoms: C_1  and  N_29
    2  A    between atoms: C_2  and  N_3
    3  A    between atoms: C_5  and  C_18
    4  A    between atoms: S_12  and  C_17
    5  A    between atoms: C_13  and  C_14
    6  A    between atoms: C_13  and  C_26
    7  A    between atoms: C_14  and  N_24
    8  A    between atoms: C_15  and  C_26
    9  A    between atoms: C_17  and  C_19
   10  A    between atoms: C_18  and  C_25
   11  A    between atoms: C_25  and  O_30
   12  A    between atoms: C_27  and  N_29
   13  A    between atoms: C_27  and  O_30
                            x       y       z     vdW  Elec       q    Type
                         _______ _______ _______ _____ _____    ______ ____

>  <TORSDO>
F 13

$$$$
=
 OpenBabel10232409183D

 30 31  0  0  1  0  0  0  0  0999 V2000
  187.0930  177.6160  142.4300 C   0  0  0  0  0  3  0  0  0  0  0  0
  186.1770  178.0450  143.3110 C   0  0  0  0  0  0  0  0  0  0  0  0
  186.3910  178.0700  144.7730 C   0  0  0  0  0  0  0  0  0  0  0  0
  187.5580  177.5360  145.3360 C   0  0  0  0  0  3  0  0  0  0  0  0
  185.6890  178.7460  146.9820 C   0  0  0  0  0  3  0  0  0  0  0  0
  187.7490  177.5990  146.7170 C   0  0  0  0  0  0  0  0  0  0  0  0
  186.8190  178.2000  147.5050 N   0  0  0  0  0  0  0  0  0  0  0  0
  185.4570  178.6950  145.6060 C   0  0  0  0  0  3  0  0  0  0  0  0
  188.9900  177.0470  147.3220 C   0  0  0  0  0  2  0  0  0  0  0  0
  191.5080  176.3550  147.2880 C   0  0  0  0  0  1  0  0  0  0  0  0
  190.3530  177.1340  146.1300 S   0  0  0  0  0  0  0  0  0  0  0  0
  188.4730  175.7610  143.0300 O   0  0  0  0  0  0  0  0  0  0  0  0
  188.3890  176.9800  142.7250 C   0  0  0  0  0  0  0  0  0  0  0  0
  189.6350  177.7780  142.5630 C   0  0  0  0  0  2  0  0  0  0  0  0
  190.4530  177.2290  141.4080 C   0  0  0  0  0  2  0  0  0  0  0  0
  189.6960  177.5310  137.6660 N   0  0  0  0  0  2  0  0  0  0  0  0
  190.3370  177.1430  138.8810 C   0  0  0  0  0  0  0  0  0  0  0  0
  191.3550  176.4020  138.8300 O   0  0  0  0  0  0  0  0  0  0  0  0
  189.8390  177.6020  140.1410 N   0  0  0  0  0  2  0  0  0  0  0  0
  188.5450  178.4210  137.6360 C   0  0  1  0  0  3  0  0  0  0  0  0
  188.9710  179.7360  137.4530 O   0  0  0  0  0  1  0  0  0  0  0  0
  187.6390  178.0280  136.4910 C   0  0  0  0  0  1  0  0  0  0  0  0
  184.8780  178.5450  142.7670 C   0  0  0  0  0  2  0  0  0  0  0  0
  185.0590  179.0760  141.4540 O   0  0  0  0  0  0  0  0  0  0  0  0
  184.1080  179.6510  139.3470 C   0  0  0  0  0  2  0  0  0  0  0  0
  184.1980  178.8120  140.3830 C   0  0  0  0  0  0  0  0  0  0  0  0
  183.3920  177.6320  140.4320 N   0  0  0  0  0  2  0  0  0  0  0  0
  182.6180  177.1340  139.3030 C   0  0  0  0  0  3  0  0  0  0  0  0
  182.1130  175.7410  139.6160 C   0  0  0  0  0  2  0  0  0  0  0  0
  181.1840  176.9320  139.7380 C   0  0  0  0  0  2  0  0  0  0  0  0
  1 13  1  0  0  0  0
  1  2  2  0  0  0  0
  2  3  1  0  0  0  0
  3  4  2  0  0  0  0
  3  8  1  0  0  0  0
  4  6  1  0  0  0  0
  5  7  1  0  0  0  0
  6  9  1  0  0  0  0
  6  7  2  0  0  0  0
  8  5  2  0  0  0  0
 11 10  1  0  0  0  0
 11  9  1  0  0  0  0
 13 12  2  0  0  0  0
 14 13  1  0  0  0  0
 15 14  1  0  0  0  0
 16 17  1  0  0  0  0
 17 19  1  0  0  0  0
 18 17  2  0  0  0  0
 19 15  1  0  0  0  0
 20 22  1  6  0  0  0
 20 16  1  0  0  0  0
 21 20  1  0  0  0  0
 23  2  1  0  0  0  0
 24 23  1  0  0  0  0
 25 26  2  0  0  0  0
 26 27  1  0  0  0  0
 26 24  1  0  0  0  0
 28 29  1  0  0  0  0
 28 30  1  0  0  0  0
 28 27  1  0  0  0  0
 29 30  1  0  0  0  0
M  END
>  <MODEL>
5

>  <REMARK>
 VINA RESULT:      -7.1      1.671      2.736
  Name = 
  13 active torsions:
  status: ('A' for Active; 'I' for Inactive)
    1  A    between atoms: C_1  and  N_29
    2  A    between atoms: C_2  and  N_3
    3  A    between atoms: C_5  and  C_18
    4  A    between atoms: S_12  and  C_17
    5  A    between atoms: C_13  and  C_14
    6  A    between atoms: C_13  and  C_26
    7  A    between atoms: C_14  and  N_24
    8  A    between atoms: C_15  and  C_26
    9  A    between atoms: C_17  and  C_19
   10  A    between atoms: C_18  and  C_25
   11  A    between atoms: C_25  and  O_30
   12  A    between atoms: C_27  and  N_29
   13  A    between atoms: C_27  and  O_30
                            x       y       z     vdW  Elec       q    Type
                         _______ _______ _______ _____ _____    ______ ____

>  <TORSDO>
F 13

$$$$
=
 OpenBabel10232409183D

 30 31  0  0  1  0  0  0  0  0999 V2000
  189.1760  177.3870  142.3040 C   0  0  0  0  0  3  0  0  0  0  0  0
  188.9930  177.7270  141.0190 C   0  0  0  0  0  0  0  0  0  0  0  0
  189.8630  177.2740  139.9150 C   0  0  0  0  0  0  0  0  0  0  0  0
  189.3140  176.8700  138.6900 C   0  0  0  0  0  3  0  0  0  0  0  0
  192.0660  176.9140  138.9940 C   0  0  0  0  0  3  0  0  0  0  0  0
  190.1610  176.4740  137.6530 C   0  0  0  0  0  0  0  0  0  0  0  0
  191.5080  176.5060  137.8240 N   0  0  0  0  0  0  0  0  0  0  0  0
  191.2540  177.3100  140.0590 C   0  0  0  0  0  3  0  0  0  0  0  0
  189.5880  176.0570  136.3450 C   0  0  0  0  0  2  0  0  0  0  0  0
  189.3400  173.5200  136.9140 C   0  0  0  0  0  1  0  0  0  0  0  0
  190.3600  174.5120  135.7930 S   0  0  0  0  0  0  0  0  0  0  0  0
  190.3730  175.3820  142.8110 O   0  0  0  0  0  0  0  0  0  0  0  0
  190.3090  176.6390  142.8770 C   0  0  0  0  0  0  0  0  0  0  0  0
  191.4480  177.3960  143.4610 C   0  0  0  0  0  2  0  0  0  0  0  0
  191.4360  177.2620  144.9740 C   0  0  0  0  0  2  0  0  0  0  0  0
  188.3310  177.2930  147.2160 N   0  0  0  0  0  2  0  0  0  0  0  0
  189.6550  177.0210  146.7560 C   0  0  0  0  0  0  0  0  0  0  0  0
  190.4270  176.3340  147.4770 O   0  0  0  0  0  0  0  0  0  0  0  0
  190.0950  177.5080  145.4850 N   0  0  0  0  0  2  0  0  0  0  0  0
  187.3640  178.0380  146.4240 C   0  0  1  0  0  3  0  0  0  0  0  0
  186.7560  177.1870  145.5020 O   0  0  0  0  0  1  0  0  0  0  0  0
  186.3080  178.6160  147.3390 C   0  0  0  0  0  1  0  0  0  0  0  0
  187.8210  178.5990  140.6980 C   0  0  0  0  0  2  0  0  0  0  0  0
  186.7020  178.2480  141.5100 O   0  0  0  0  0  0  0  0  0  0  0  0
  184.8700  179.1590  140.2880 C   0  0  0  0  0  2  0  0  0  0  0  0
  185.4650  178.9020  141.4560 C   0  0  0  0  0  0  0  0  0  0  0  0
  184.8620  179.3170  142.6850 N   0  0  0  0  0  2  0  0  0  0  0  0
  184.1560  178.4150  143.5840 C   0  0  0  0  0  3  0  0  0  0  0  0
  183.7440  179.1700  144.8310 C   0  0  0  0  0  2  0  0  0  0  0  0
  182.7300  178.8900  143.7410 C   0  0  0  0  0  2  0  0  0  0  0  0
  1 13  1  0  0  0  0
  2  1  2  0  0  0  0
  3  8  1  0  0  0  0
  3  2  1  0  0  0  0
  4  3  2  0  0  0  0
  5  8  2  0  0  0  0
  6  7  2  0  0  0  0
  6  4  1  0  0  0  0
  7  5  1  0  0  0  0
  9  6  1  0  0  0  0
 11  9  1  0  0  0  0
 11 10  1  0  0  0  0
 12 13  2  0  0  0  0
 13 14  1  0  0  0  0
 14 15  1  0  0  0  0
 15 19  1  0  0  0  0
 17 16  1  0  0  0  0
 17 18  2  0  0  0  0
 19 17  1  0  0  0  0
 20 16  1  0  0  0  0
 20 22  1  1  0  0  0
 21 20  1  0  0  0  0
 23  2  1  0  0  0  0
 23 24  1  0  0  0  0
 25 26  2  0  0  0  0
 26 24  1  0  0  0  0
 26 27  1  0  0  0  0
 27 28  1  0  0  0  0
 28 30  1  0  0  0  0
 28 29  1  0  0  0  0
 30 29  1  0  0  0  0
M  END
>  <MODEL>
6

>  <REMARK>
 VINA RESULT:      -7.1      2.686      7.091
  Name = 
  13 active torsions:
  status: ('A' for Active; 'I' for Inactive)
    1  A    between atoms: C_1  and  N_29
    2  A    between atoms: C_2  and  N_3
    3  A    between atoms: C_5  and  C_18
    4  A    between atoms: S_12  and  C_17
    5  A    between atoms: C_13  and  C_14
    6  A    between atoms: C_13  and  C_26
    7  A    between atoms: C_14  and  N_24
    8  A    between atoms: C_15  and  C_26
    9  A    between atoms: C_17  and  C_19
   10  A    between atoms: C_18  and  C_25
   11  A    between atoms: C_25  and  O_30
   12  A    between atoms: C_27  and  N_29
   13  A    between atoms: C_27  and  O_30
                            x       y       z     vdW  Elec       q    Type
                         _______ _______ _______ _____ _____    ______ ____

>  <TORSDO>
F 13

$$$$
=
 OpenBabel10232409183D

 30 31  0  0  1  0  0  0  0  0999 V2000
  188.9290  177.8050  142.0900 C   0  0  0  0  0  3  0  0  0  0  0  0
  188.3050  178.0180  140.9220 C   0  0  0  0  0  0  0  0  0  0  0  0
  188.9420  177.8260  139.6020 C   0  0  0  0  0  0  0  0  0  0  0  0
  189.6520  176.6530  139.3140 C   0  0  0  0  0  3  0  0  0  0  0  0
  189.3550  178.5780  137.3450 C   0  0  0  0  0  3  0  0  0  0  0  0
  190.2190  176.4840  138.0490 C   0  0  0  0  0  0  0  0  0  0  0  0
  190.0580  177.4410  137.0980 N   0  0  0  0  0  0  0  0  0  0  0  0
  188.7800  178.7880  138.6000 C   0  0  0  0  0  3  0  0  0  0  0  0
  190.9630  175.2360  137.7290 C   0  0  0  0  0  2  0  0  0  0  0  0
  193.1320  176.5290  138.3960 C   0  0  0  0  0  1  0  0  0  0  0  0
  192.5400  175.6400  136.9330 S   0  0  0  0  0  0  0  0  0  0  0  0
  191.2460  178.3700  142.2170 O   0  0  0  0  0  0  0  0  0  0  0  0
  190.3520  177.4870  142.2990 C   0  0  0  0  0  0  0  0  0  0  0  0
  190.7270  176.1070  142.7100 C   0  0  0  0  0  2  0  0  0  0  0  0
  191.5980  176.1570  143.9520 C   0  0  0  0  0  2  0  0  0  0  0  0
  190.4800  177.0660  147.5010 N   0  0  0  0  0  2  0  0  0  0  0  0
  191.2640  176.5330  146.4330 C   0  0  0  0  0  0  0  0  0  0  0  0
  192.3330  175.9230  146.7000 O   0  0  0  0  0  0  0  0  0  0  0  0
  190.8320  176.6760  145.0760 N   0  0  0  0  0  2  0  0  0  0  0  0
  189.2110  177.7420  147.2810 C   0  0  1  0  0  3  0  0  0  0  0  0
  188.3490  176.9070  146.5700 O   0  0  0  0  0  1  0  0  0  0  0  0
  188.5870  178.0800  148.6160 C   0  0  0  0  0  1  0  0  0  0  0  0
  186.8750  178.4510  140.9720 C   0  0  0  0  0  2  0  0  0  0  0  0
  186.4500  178.6110  142.3250 O   0  0  0  0  0  0  0  0  0  0  0  0
  184.1060  178.4860  141.9180 C   0  0  0  0  0  2  0  0  0  0  0  0
  185.1390  178.3910  142.7610 C   0  0  0  0  0  0  0  0  0  0  0  0
  184.9220  178.0890  144.1420 N   0  0  0  0  0  2  0  0  0  0  0  0
  184.6680  179.1000  145.1600 C   0  0  0  0  0  3  0  0  0  0  0  0
  184.5140  178.4260  146.5080 C   0  0  0  0  0  2  0  0  0  0  0  0
  185.8160  179.1080  146.1440 C   0  0  0  0  0  2  0  0  0  0  0  0
  1 13  1  0  0  0  0
  2 23  1  0  0  0  0
  2  1  2  0  0  0  0
  3  2  1  0  0  0  0
  4  3  1  0  0  0  0
  5  8  1  0  0  0  0
  6  4  2  0  0  0  0
  7  5  2  0  0  0  0
  7  6  1  0  0  0  0
  8  3  2  0  0  0  0
  9  6  1  0  0  0  0
 11  9  1  0  0  0  0
 11 10  1  0  0  0  0
 12 13  2  0  0  0  0
 13 14  1  0  0  0  0
 14 15  1  0  0  0  0
 15 19  1  0  0  0  0
 17 18  2  0  0  0  0
 17 16  1  0  0  0  0
 19 17  1  0  0  0  0
 20 16  1  0  0  0  0
 20 22  1  1  0  0  0
 21 20  1  0  0  0  0
 23 24  1  0  0  0  0
 24 26  1  0  0  0  0
 25 26  2  0  0  0  0
 26 27  1  0  0  0  0
 27 28  1  0  0  0  0
 28 30  1  0  0  0  0
 28 29  1  0  0  0  0
 30 29  1  0  0  0  0
M  END
>  <MODEL>
7

>  <REMARK>
 VINA RESULT:      -7.0      2.624      7.073
  Name = 
  13 active torsions:
  status: ('A' for Active; 'I' for Inactive)
    1  A    between atoms: C_1  and  N_29
    2  A    between atoms: C_2  and  N_3
    3  A    between atoms: C_5  and  C_18
    4  A    between atoms: S_12  and  C_17
    5  A    between atoms: C_13  and  C_14
    6  A    between atoms: C_13  and  C_26
    7  A    between atoms: C_14  and  N_24
    8  A    between atoms: C_15  and  C_26
    9  A    between atoms: C_17  and  C_19
   10  A    between atoms: C_18  and  C_25
   11  A    between atoms: C_25  and  O_30
   12  A    between atoms: C_27  and  N_29
   13  A    between atoms: C_27  and  O_30
                            x       y       z     vdW  Elec       q    Type
                         _______ _______ _______ _____ _____    ______ ____

>  <TORSDO>
F 13

$$$$
=
 OpenBabel10232409183D

 30 31  0  0  1  0  0  0  0  0999 V2000
  188.2930  177.2380  141.5000 C   0  0  0  0  0  3  0  0  0  0  0  0
  188.2420  177.3710  142.8340 C   0  0  0  0  0  0  0  0  0  0  0  0
  189.4180  177.6690  143.6770 C   0  0  0  0  0  0  0  0  0  0  0  0
  189.5880  177.0390  144.9180 C   0  0  0  0  0  3  0  0  0  0  0  0
  191.5390  178.7770  144.0010 C   0  0  0  0  0  3  0  0  0  0  0  0
  190.7240  177.3160  145.6820 C   0  0  0  0  0  0  0  0  0  0  0  0
  191.6690  178.1700  145.2100 N   0  0  0  0  0  0  0  0  0  0  0  0
  190.4140  178.5330  143.2110 C   0  0  0  0  0  3  0  0  0  0  0  0
  190.9190  176.6420  146.9930 C   0  0  0  0  0  2  0  0  0  0  0  0
  192.8890  175.9110  148.5440 C   0  0  0  0  0  1  0  0  0  0  0  0
  192.2970  175.4690  146.8900 S   0  0  0  0  0  0  0  0  0  0  0  0
  190.3320  176.2800  140.7030 O   0  0  0  0  0  0  0  0  0  0  0  0
  189.4960  177.2220  140.6490 C   0  0  0  0  0  0  0  0  0  0  0  0
  189.6740  178.2970  139.6360 C   0  0  0  0  0  2  0  0  0  0  0  0
  188.8300  177.9950  138.4100 C   0  0  0  0  0  2  0  0  0  0  0  0
  185.0250  178.2740  138.0760 N   0  0  0  0  0  2  0  0  0  0  0  0
  186.3860  177.9890  137.7520 C   0  0  0  0  0  0  0  0  0  0  0  0
  186.6600  177.4980  136.6250 O   0  0  0  0  0  0  0  0  0  0  0  0
  187.4280  178.2720  138.6900 N   0  0  0  0  0  2  0  0  0  0  0  0
  184.6300  178.8840  139.3360 C   0  0  1  0  0  3  0  0  0  0  0  0
  184.3480  180.2350  139.1370 O   0  0  0  0  0  1  0  0  0  0  0  0
  183.3930  178.1900  139.8620 C   0  0  0  0  0  1  0  0  0  0  0  0
  186.9060  177.2310  143.4900 C   0  0  0  0  0  2  0  0  0  0  0  0
  186.0510  178.3100  143.1140 O   0  0  0  0  0  0  0  0  0  0  0  0
  183.7450  178.8020  143.4560 C   0  0  0  0  0  2  0  0  0  0  0  0
  185.0020  178.7850  143.9090 C   0  0  0  0  0  0  0  0  0  0  0  0
  185.3080  179.2820  145.2150 N   0  0  0  0  0  2  0  0  0  0  0  0
  185.2470  178.4700  146.4230 C   0  0  0  0  0  3  0  0  0  0  0  0
  186.6450  178.0280  146.8010 C   0  0  0  0  0  2  0  0  0  0  0  0
  185.9880  179.1800  147.5330 C   0  0  0  0  0  2  0  0  0  0  0  0
  1  2  2  0  0  0  0
  2 23  1  0  0  0  0
  2  3  1  0  0  0  0
  3  4  1  0  0  0  0
  4  6  2  0  0  0  0
  5  7  2  0  0  0  0
  6  9  1  0  0  0  0
  7  6  1  0  0  0  0
  8  3  2  0  0  0  0
  8  5  1  0  0  0  0
 11  9  1  0  0  0  0
 11 10  1  0  0  0  0
 13 12  2  0  0  0  0
 13  1  1  0  0  0  0
 14 13  1  0  0  0  0
 15 19  1  0  0  0  0
 15 14  1  0  0  0  0
 16 20  1  0  0  0  0
 17 16  1  0  0  0  0
 17 19  1  0  0  0  0
 18 17  2  0  0  0  0
 20 22  1  6  0  0  0
 21 20  1  0  0  0  0
 24 23  1  0  0  0  0
 24 26  1  0  0  0  0
 25 26  2  0  0  0  0
 26 27  1  0  0  0  0
 27 28  1  0  0  0  0
 28 29  1  0  0  0  0
 28 30  1  0  0  0  0
 29 30  1  0  0  0  0
M  END
>  <MODEL>
8

>  <REMARK>
 VINA RESULT:      -7.0      2.306      4.594
  Name = 
  13 active torsions:
  status: ('A' for Active; 'I' for Inactive)
    1  A    between atoms: C_1  and  N_29
    2  A    between atoms: C_2  and  N_3
    3  A    between atoms: C_5  and  C_18
    4  A    between atoms: S_12  and  C_17
    5  A    between atoms: C_13  and  C_14
    6  A    between atoms: C_13  and  C_26
    7  A    between atoms: C_14  and  N_24
    8  A    between atoms: C_15  and  C_26
    9  A    between atoms: C_17  and  C_19
   10  A    between atoms: C_18  and  C_25
   11  A    between atoms: C_25  and  O_30
   12  A    between atoms: C_27  and  N_29
   13  A    between atoms: C_27  and  O_30
                            x       y       z     vdW  Elec       q    Type
                         _______ _______ _______ _____ _____    ______ ____

>  <TORSDO>
F 13

$$$$
=
 OpenBabel10232409183D

 30 31  0  0  1  0  0  0  0  0999 V2000
  187.1370  178.4430  141.1740 C   0  0  0  0  0  3  0  0  0  0  0  0
  188.2890  178.0740  140.5950 C   0  0  0  0  0  0  0  0  0  0  0  0
  188.4610  177.9070  139.1370 C   0  0  0  0  0  0  0  0  0  0  0  0
  188.1570  176.6890  138.5150 C   0  0  0  0  0  3  0  0  0  0  0  0
  188.9870  178.8310  136.9690 C   0  0  0  0  0  3  0  0  0  0  0  0
  188.3000  176.5660  137.1310 C   0  0  0  0  0  0  0  0  0  0  0  0
  188.7070  177.6320  136.3930 N   0  0  0  0  0  0  0  0  0  0  0  0
  188.8640  178.9910  138.3510 C   0  0  0  0  0  3  0  0  0  0  0  0
  187.9660  175.2820  136.4610 C   0  0  0  0  0  2  0  0  0  0  0  0
  185.9450  175.7180  134.8650 C   0  0  0  0  0  1  0  0  0  0  0  0
  186.1760  175.0010  136.5120 S   0  0  0  0  0  0  0  0  0  0  0  0
  185.7140  179.1630  139.3960 O   0  0  0  0  0  0  0  0  0  0  0  0
  185.8250  178.6160  140.5250 C   0  0  0  0  0  0  0  0  0  0  0  0
  184.6180  178.0420  141.1780 C   0  0  0  0  0  2  0  0  0  0  0  0
  183.9290  179.1060  142.0150 C   0  0  0  0  0  2  0  0  0  0  0  0
  184.1130  178.8490  145.8320 N   0  0  0  0  0  2  0  0  0  0  0  0
  183.5720  178.8860  144.5110 C   0  0  0  0  0  0  0  0  0  0  0  0
  182.3280  178.7710  144.3530 O   0  0  0  0  0  0  0  0  0  0  0  0
  184.4310  179.0670  143.3810 N   0  0  0  0  0  2  0  0  0  0  0  0
  185.5320  179.0210  146.1030 C   0  0  1  0  0  3  0  0  0  0  0  0
  185.7060  179.5500  147.3820 O   0  0  0  0  0  1  0  0  0  0  0  0
  186.2240  177.6790  146.0210 C   0  0  0  0  0  1  0  0  0  0  0  0
  189.4660  177.8450  141.4880 C   0  0  0  0  0  2  0  0  0  0  0  0
  189.1140  178.0860  142.8490 O   0  0  0  0  0  0  0  0  0  0  0  0
  191.1760  178.8530  143.7630 C   0  0  0  0  0  2  0  0  0  0  0  0
  190.0430  178.1570  143.8930 C   0  0  0  0  0  0  0  0  0  0  0  0
  189.7670  177.4420  145.1010 N   0  0  0  0  0  2  0  0  0  0  0  0
  190.4670  177.6760  146.3560 C   0  0  0  0  0  3  0  0  0  0  0  0
  189.5900  177.2350  147.5100 C   0  0  0  0  0  2  0  0  0  0  0  0
  190.7210  176.3480  147.0340 C   0  0  0  0  0  2  0  0  0  0  0  0
  2  1  2  0  0  0  0
  2 23  1  0  0  0  0
  3  2  1  0  0  0  0
  4  3  1  0  0  0  0
  5  8  1  0  0  0  0
  6  4  2  0  0  0  0
  7  5  2  0  0  0  0
  7  6  1  0  0  0  0
  8  3  2  0  0  0  0
  9 11  1  0  0  0  0
  9  6  1  0  0  0  0
 10 11  1  0  0  0  0
 12 13  2  0  0  0  0
 13  1  1  0  0  0  0
 13 14  1  0  0  0  0
 14 15  1  0  0  0  0
 15 19  1  0  0  0  0
 16 20  1  0  0  0  0
 17 16  1  0  0  0  0
 18 17  2  0  0  0  0
 19 17  1  0  0  0  0
 20 22  1  1  0  0  0
 20 21  1  0  0  0  0
 23 24  1  0  0  0  0
 24 26  1  0  0  0  0
 25 26  2  0  0  0  0
 26 27  1  0  0  0  0
 27 28  1  0  0  0  0
 28 30  1  0  0  0  0
 28 29  1  0  0  0  0
 30 29  1  0  0  0  0
M  END
>  <MODEL>
9

>  <REMARK>
 VINA RESULT:      -6.9      3.021      8.503
  Name = 
  13 active torsions:
  status: ('A' for Active; 'I' for Inactive)
    1  A    between atoms: C_1  and  N_29
    2  A    between atoms: C_2  and  N_3
    3  A    between atoms: C_5  and  C_18
    4  A    between atoms: S_12  and  C_17
    5  A    between atoms: C_13  and  C_14
    6  A    between atoms: C_13  and  C_26
    7  A    between atoms: C_14  and  N_24
    8  A    between atoms: C_15  and  C_26
    9  A    between atoms: C_17  and  C_19
   10  A    between atoms: C_18  and  C_25
   11  A    between atoms: C_25  and  O_30
   12  A    between atoms: C_27  and  N_29
   13  A    between atoms: C_27  and  O_30
                            x       y       z     vdW  Elec       q    Type
                         _______ _______ _______ _____ _____    ______ ____

>  <TORSDO>
F 13

$$$$
