=
 OpenBabel10232410503D

 35 38  0  0  1  0  0  0  0  0999 V2000
  188.8040  177.3310  142.2020 C   0  0  2  0  0  0  0  0  0  0  0  0
  190.4770  177.4080  139.8070 C   0  0  0  0  0  3  0  0  0  0  0  0
  190.9250  176.6510  141.0270 C   0  0  0  0  0  2  0  0  0  0  0  0
  189.7320  176.1640  141.8490 C   0  0  0  0  0  2  0  0  0  0  0  0
  187.5990  176.7750  142.9420 C   0  0  0  0  0  1  0  0  0  0  0  0
  189.3210  178.0900  139.7630 C   0  0  0  0  0  0  0  0  0  0  0  0
  188.3030  177.9770  140.8880 C   0  0  2  0  0  3  0  0  0  0  0  0
  187.4760  179.1740  141.0800 N   0  0  0  0  0  2  0  0  0  0  0  0
  185.0510  178.7380  141.0150 C   0  0  0  0  0  0  0  0  0  0  0  0
  183.7720  178.5910  140.2930 C   0  0  0  0  0  3  0  0  0  0  0  0
  182.7820  178.3260  141.4170 C   0  0  0  0  0  3  0  0  0  0  0  0
  184.9730  178.5860  142.2900 N   0  0  0  0  0  0  0  0  0  0  0  0
  186.2800  179.0350  140.3560 N   0  0  0  0  0  2  0  0  0  0  0  0
  183.6130  178.2930  142.7000 C   0  0  1  0  0  3  0  0  0  0  0  0
  183.1310  179.3650  143.6650 C   0  0  0  0  0  2  0  0  0  0  0  0
  183.2610  178.9070  145.1110 C   0  0  0  0  0  2  0  0  0  0  0  0
  184.7760  178.6360  146.9380 O   0  0  0  0  0  1  0  0  0  0  0  0
  184.7080  178.9280  145.5750 C   0  0  0  0  0  2  0  0  0  0  0  0
  189.6750  178.5480  143.2750 S   0  0  0  0  0  0  0  0  0  0  0  0
  190.1310  177.0230  147.0060 N   0  0  0  0  0  2  0  0  0  0  0  0
  191.6420  177.1840  144.6080 C   0  0  0  0  0  2  0  0  0  0  0  0
  191.3630  176.2980  146.9000 C   0  0  0  0  0  0  0  0  0  0  0  0
  190.1270  177.3720  144.5890 C   0  0  1  0  0  3  0  0  0  0  0  0
  192.0640  176.3200  145.7630 C   0  0  0  0  0  3  0  0  0  0  0  0
  189.6750  177.9130  145.9410 C   0  0  0  0  0  2  0  0  0  0  0  0
  191.8900  175.2810  148.2220 Cl  0  0  0  0  0  0  0  0  0  0  0  0
  188.9440  178.7650  138.4800 C   0  0  0  0  0  2  0  0  0  0  0  0
  187.8050  175.9180  135.5420 C   0  0  0  0  0  0  0  0  0  0  0  0
  189.2440  177.7290  136.2240 C   0  0  0  0  0  3  0  0  0  0  0  0
  187.5490  176.8930  137.6680 N   0  0  0  0  0  0  0  0  0  0  0  0
  188.5710  177.7610  137.4430 C   0  0  0  0  0  0  0  0  0  0  0  0
  188.8590  176.7970  135.2630 C   0  0  0  0  0  3  0  0  0  0  0  0
  187.1810  176.0000  136.7470 N   0  0  0  0  0  0  0  0  0  0  0  0
  187.3800  174.9640  134.6140 O   0  0  0  0  0  0  0  0  0  0  0  0
  187.2370  173.5880  134.9380 C   0  0  0  0  0  1  0  0  0  0  0  0
  1  5  1  1  0  0  0
  1 19  1  0  0  0  0
  2  3  1  0  0  0  0
  3  4  1  0  0  0  0
  4  1  1  0  0  0  0
  6  2  2  0  0  0  0
  6  7  1  0  0  0  0
  7  8  1  1  0  0  0
  7  1  1  0  0  0  0
  9 12  2  0  0  0  0
 10  9  1  0  0  0  0
 10 11  2  0  0  0  0
 11 14  1  0  0  0  0
 12 14  1  0  0  0  0
 13  9  1  0  0  0  0
 13  8  1  0  0  0  0
 14 15  1  1  0  0  0
 15 16  1  0  0  0  0
 16 18  1  0  0  0  0
 18 17  1  0  0  0  0
 21 24  1  0  0  0  0
 22 20  1  0  0  0  0
 22 26  1  0  0  0  0
 23 19  1  6  0  0  0
 23 21  1  0  0  0  0
 23 25  1  0  0  0  0
 24 22  2  0  0  0  0
 25 20  1  0  0  0  0
 27  6  1  0  0  0  0
 28 33  2  0  0  0  0
 29 31  1  0  0  0  0
 31 30  2  0  0  0  0
 31 27  1  0  0  0  0
 32 28  1  0  0  0  0
 32 29  2  0  0  0  0
 33 30  1  0  0  0  0
 34 35  1  0  0  0  0
 34 28  1  0  0  0  0
M  END
>  <MODEL>
1

>  <REMARK>
 VINA RESULT:      -7.2      0.000      0.000
  Name = 
  10 active torsions:
  status: ('A' for Active; 'I' for Inactive)
    1  A    between atoms: C_1  and  O_15
    2  A    between atoms: C_3  and  S_24
    3  A    between atoms: N_6  and  N_27
    4  A    between atoms: N_6  and  C_34
    5  A    between atoms: C_8  and  C_14
    6  A    between atoms: C_8  and  C_30
    7  A    between atoms: C_13  and  S_24
    8  A    between atoms: C_14  and  C_26
    9  A    between atoms: C_22  and  C_28
   10  A    between atoms: C_28  and  C_31
                            x       y       z     vdW  Elec       q    Type
                         _______ _______ _______ _____ _____    ______ ____

>  <TORSDO>
F 10

$$$$
=
 OpenBabel10232410503D

 35 38  0  0  1  0  0  0  0  0999 V2000
  188.6350  177.1640  142.7650 C   0  0  2  0  0  0  0  0  0  0  0  0
  190.2250  177.2420  140.3140 C   0  0  0  0  0  3  0  0  0  0  0  0
  190.7200  176.4940  141.5220 C   0  0  0  0  0  2  0  0  0  0  0  0
  189.5590  176.0030  142.3860 C   0  0  0  0  0  2  0  0  0  0  0  0
  187.4600  176.6040  143.5480 C   0  0  0  0  0  1  0  0  0  0  0  0
  189.0640  177.9160  140.3070 C   0  0  0  0  0  0  0  0  0  0  0  0
  188.0860  177.8010  141.4660 C   0  0  2  0  0  3  0  0  0  0  0  0
  187.2570  178.9930  141.6810 N   0  0  0  0  0  2  0  0  0  0  0  0
  184.8340  178.8000  141.2710 C   0  0  0  0  0  0  0  0  0  0  0  0
  183.4720  178.3940  141.6720 C   0  0  0  0  0  3  0  0  0  0  0  0
  182.6390  178.7760  140.4580 C   0  0  0  0  0  3  0  0  0  0  0  0
  184.9160  179.3420  140.1070 N   0  0  0  0  0  0  0  0  0  0  0  0
  185.9760  178.6000  142.1020 N   0  0  0  0  0  2  0  0  0  0  0  0
  183.6130  179.4250  139.4760 C   0  0  1  0  0  3  0  0  0  0  0  0
  183.6330  178.6520  138.1670 C   0  0  0  0  0  2  0  0  0  0  0  0
  184.9950  178.0200  137.9170 C   0  0  0  0  0  2  0  0  0  0  0  0
  185.6620  177.3910  135.7110 O   0  0  0  0  0  1  0  0  0  0  0  0
  184.9310  176.9690  136.8220 C   0  0  0  0  0  2  0  0  0  0  0  0
  189.5330  178.3930  143.8030 S   0  0  0  0  0  0  0  0  0  0  0  0
  190.3140  176.8450  147.4700 N   0  0  0  0  0  2  0  0  0  0  0  0
  191.6180  177.0390  144.9550 C   0  0  0  0  0  2  0  0  0  0  0  0
  191.5400  176.1330  147.2550 C   0  0  0  0  0  0  0  0  0  0  0  0
  190.1050  177.2110  145.0640 C   0  0  1  0  0  3  0  0  0  0  0  0
  192.1430  176.1710  146.0640 C   0  0  0  0  0  3  0  0  0  0  0  0
  189.7620  177.7380  146.4540 C   0  0  0  0  0  2  0  0  0  0  0  0
  192.1850  175.1110  148.5200 Cl  0  0  0  0  0  0  0  0  0  0  0  0
  188.6390  178.5820  139.0340 C   0  0  0  0  0  2  0  0  0  0  0  0
  188.7910  175.8510  135.7860 C   0  0  0  0  0  0  0  0  0  0  0  0
  189.2130  178.0590  136.6570 C   0  0  0  0  0  3  0  0  0  0  0  0
  188.2730  176.3560  138.0250 N   0  0  0  0  0  0  0  0  0  0  0  0
  188.7170  177.6330  137.8870 C   0  0  0  0  0  0  0  0  0  0  0  0
  189.2530  177.1590  135.5950 C   0  0  0  0  0  3  0  0  0  0  0  0
  188.3110  175.4930  137.0070 N   0  0  0  0  0  0  0  0  0  0  0  0
  188.8090  174.9080  134.7550 O   0  0  0  0  0  0  0  0  0  0  0  0
  189.6580  173.7690  134.7700 C   0  0  0  0  0  1  0  0  0  0  0  0
  1  5  1  1  0  0  0
  1 19  1  0  0  0  0
  2  3  1  0  0  0  0
  3  4  1  0  0  0  0
  4  1  1  0  0  0  0
  6  2  2  0  0  0  0
  6  7  1  0  0  0  0
  7  8  1  1  0  0  0
  7  1  1  0  0  0  0
  8 13  1  0  0  0  0
  9 10  1  0  0  0  0
  9 13  1  0  0  0  0
 11 10  2  0  0  0  0
 12  9  2  0  0  0  0
 14 15  1  6  0  0  0
 14 12  1  0  0  0  0
 14 11  1  0  0  0  0
 16 15  1  0  0  0  0
 17 18  1  0  0  0  0
 18 16  1  0  0  0  0
 21 23  1  0  0  0  0
 21 24  1  0  0  0  0
 22 20  1  0  0  0  0
 22 26  1  0  0  0  0
 23 19  1  6  0  0  0
 23 25  1  0  0  0  0
 24 22  2  0  0  0  0
 25 20  1  0  0  0  0
 27  6  1  0  0  0  0
 28 33  2  0  0  0  0
 29 31  1  0  0  0  0
 31 30  2  0  0  0  0
 31 27  1  0  0  0  0
 32 28  1  0  0  0  0
 32 29  2  0  0  0  0
 33 30  1  0  0  0  0
 34 35  1  0  0  0  0
 34 28  1  0  0  0  0
M  END
>  <MODEL>
2

>  <REMARK>
 VINA RESULT:      -6.8      2.308      3.102
  Name = 
  10 active torsions:
  status: ('A' for Active; 'I' for Inactive)
    1  A    between atoms: C_1  and  O_15
    2  A    between atoms: C_3  and  S_24
    3  A    between atoms: N_6  and  N_27
    4  A    between atoms: N_6  and  C_34
    5  A    between atoms: C_8  and  C_14
    6  A    between atoms: C_8  and  C_30
    7  A    between atoms: C_13  and  S_24
    8  A    between atoms: C_14  and  C_26
    9  A    between atoms: C_22  and  C_28
   10  A    between atoms: C_28  and  C_31
                            x       y       z     vdW  Elec       q    Type
                         _______ _______ _______ _____ _____    ______ ____

>  <TORSDO>
F 10

$$$$
=
 OpenBabel10232410503D

 35 38  0  0  1  0  0  0  0  0999 V2000
  189.8030  177.6980  141.6590 C   0  0  2  0  0  0  0  0  0  0  0  0
  187.6420  178.3760  139.8130 C   0  0  0  0  0  3  0  0  0  0  0  0
  187.5710  178.7910  141.2560 C   0  0  0  0  0  2  0  0  0  0  0  0
  188.9660  178.9660  141.8550 C   0  0  0  0  0  2  0  0  0  0  0  0
  191.2010  177.9600  142.1950 C   0  0  0  0  0  1  0  0  0  0  0  0
  188.6680  177.6690  139.3130 C   0  0  0  0  0  0  0  0  0  0  0  0
  189.9170  177.4120  140.1420 C   0  0  2  0  0  3  0  0  0  0  0  0
  190.6170  176.1630  139.8140 N   0  0  0  0  0  2  0  0  0  0  0  0
  191.9730  175.5070  137.8630 C   0  0  0  0  0  0  0  0  0  0  0  0
  193.0410  175.7570  136.8740 C   0  0  0  0  0  3  0  0  0  0  0  0
  192.9690  174.5220  135.9870 C   0  0  0  0  0  3  0  0  0  0  0  0
  191.3510  174.3910  137.7170 N   0  0  0  0  0  0  0  0  0  0  0  0
  191.6450  176.4340  138.8960 N   0  0  0  0  0  2  0  0  0  0  0  0
  191.8790  173.6400  136.5950 C   0  0  1  0  0  3  0  0  0  0  0  0
  190.7730  173.3980  135.5800 C   0  0  0  0  0  2  0  0  0  0  0  0
  190.8150  174.4270  134.4590 C   0  0  0  0  0  2  0  0  0  0  0  0
  190.2190  176.7320  134.6480 O   0  0  0  0  0  1  0  0  0  0  0  0
  189.6920  175.4420  134.5900 C   0  0  0  0  0  2  0  0  0  0  0  0
  189.0540  176.2820  142.5680 S   0  0  0  0  0  0  0  0  0  0  0  0
  189.4630  177.2240  146.4930 N   0  0  0  0  0  2  0  0  0  0  0  0
  187.3590  176.9880  144.6010 C   0  0  0  0  0  2  0  0  0  0  0  0
  188.1420  177.6480  146.8520 C   0  0  0  0  0  0  0  0  0  0  0  0
  188.8040  177.1630  144.1420 C   0  0  1  0  0  3  0  0  0  0  0  0
  187.1490  177.5930  145.9620 C   0  0  0  0  0  3  0  0  0  0  0  0
  189.7380  176.5920  145.2040 C   0  0  0  0  0  2  0  0  0  0  0  0
  187.8550  178.3570  148.4260 Cl  0  0  0  0  0  0  0  0  0  0  0  0
  188.6660  177.3540  137.8490 C   0  0  0  0  0  2  0  0  0  0  0  0
  185.5480  174.6150  136.9480 C   0  0  0  0  0  0  0  0  0  0  0  0
  186.2820  176.8910  137.2480 C   0  0  0  0  0  3  0  0  0  0  0  0
  187.7900  175.0690  137.4970 N   0  0  0  0  0  0  0  0  0  0  0  0
  187.5620  176.4090  137.5130 C   0  0  0  0  0  0  0  0  0  0  0  0
  185.2640  175.9860  136.9600 C   0  0  0  0  0  3  0  0  0  0  0  0
  186.8140  174.2010  137.2210 N   0  0  0  0  0  0  0  0  0  0  0  0
  184.5640  173.6640  136.6650 O   0  0  0  0  0  0  0  0  0  0  0  0
  184.4780  172.4200  137.3470 C   0  0  0  0  0  1  0  0  0  0  0  0
  1  4  1  0  0  0  0
  1  5  1  1  0  0  0
  1 19  1  0  0  0  0
  2  3  1  0  0  0  0
  3  4  1  0  0  0  0
  6  2  2  0  0  0  0
  6  7  1  0  0  0  0
  7  8  1  1  0  0  0
  7  1  1  0  0  0  0
  9 13  1  0  0  0  0
 10  9  1  0  0  0  0
 11 14  1  0  0  0  0
 11 10  2  0  0  0  0
 12  9  2  0  0  0  0
 13  8  1  0  0  0  0
 14 15  1  6  0  0  0
 14 12  1  0  0  0  0
 16 18  1  0  0  0  0
 16 15  1  0  0  0  0
 18 17  1  0  0  0  0
 20 22  1  0  0  0  0
 21 24  1  0  0  0  0
 22 26  1  0  0  0  0
 23 19  1  6  0  0  0
 23 21  1  0  0  0  0
 23 25  1  0  0  0  0
 24 22  2  0  0  0  0
 25 20  1  0  0  0  0
 27  6  1  0  0  0  0
 28 32  1  0  0  0  0
 28 33  2  0  0  0  0
 29 31  1  0  0  0  0
 30 31  2  0  0  0  0
 31 27  1  0  0  0  0
 32 29  2  0  0  0  0
 33 30  1  0  0  0  0
 34 28  1  0  0  0  0
 34 35  1  0  0  0  0
M  END
>  <MODEL>
3

>  <REMARK>
 VINA RESULT:      -6.7      3.504      6.551
  Name = 
  10 active torsions:
  status: ('A' for Active; 'I' for Inactive)
    1  A    between atoms: C_1  and  O_15
    2  A    between atoms: C_3  and  S_24
    3  A    between atoms: N_6  and  N_27
    4  A    between atoms: N_6  and  C_34
    5  A    between atoms: C_8  and  C_14
    6  A    between atoms: C_8  and  C_30
    7  A    between atoms: C_13  and  S_24
    8  A    between atoms: C_14  and  C_26
    9  A    between atoms: C_22  and  C_28
   10  A    between atoms: C_28  and  C_31
                            x       y       z     vdW  Elec       q    Type
                         _______ _______ _______ _____ _____    ______ ____

>  <TORSDO>
F 10

$$$$
=
 OpenBabel10232410503D

 35 38  0  0  1  0  0  0  0  0999 V2000
  188.5220  177.5190  136.9660 C   0  0  2  0  0  0  0  0  0  0  0  0
  190.6830  175.5670  136.7170 C   0  0  0  0  0  3  0  0  0  0  0  0
  189.4850  175.5000  135.8100 C   0  0  0  0  0  2  0  0  0  0  0  0
  188.8560  176.8790  135.6140 C   0  0  0  0  0  2  0  0  0  0  0  0
  187.9820  178.9160  136.7110 C   0  0  0  0  0  1  0  0  0  0  0  0
  190.8090  176.4930  137.6810 C   0  0  0  0  0  0  0  0  0  0  0  0
  189.8280  177.6510  137.7850 C   0  0  2  0  0  3  0  0  0  0  0  0
  189.6380  178.1640  139.1470 N   0  0  0  0  0  2  0  0  0  0  0  0
  189.3430  177.1680  141.3820 C   0  0  0  0  0  0  0  0  0  0  0  0
  189.5920  176.1090  142.3800 C   0  0  0  0  0  3  0  0  0  0  0  0
  188.7580  176.5670  143.5680 C   0  0  0  0  0  3  0  0  0  0  0  0
  188.5700  178.1160  141.7800 N   0  0  0  0  0  0  0  0  0  0  0  0
  189.9050  177.1410  140.0720 N   0  0  0  0  0  2  0  0  0  0  0  0
  188.1380  177.9000  143.1480 C   0  0  1  0  0  3  0  0  0  0  0  0
  186.6210  177.8110  143.1930 C   0  0  0  0  0  2  0  0  0  0  0  0
  186.1070  177.8350  144.6260 C   0  0  0  0  0  2  0  0  0  0  0  0
  184.6430  178.9420  146.1540 O   0  0  0  0  0  1  0  0  0  0  0  0
  185.0230  178.8830  144.8130 C   0  0  0  0  0  2  0  0  0  0  0  0
  187.2530  176.5230  137.8560 S   0  0  0  0  0  0  0  0  0  0  0  0
  184.8920  179.4260  139.4230 N   0  0  0  0  0  2  0  0  0  0  0  0
  184.6160  177.2330  137.6410 C   0  0  0  0  0  2  0  0  0  0  0  0
  183.6640  179.2530  138.7040 C   0  0  0  0  0  0  0  0  0  0  0  0
  185.9890  177.8320  137.9330 C   0  0  1  0  0  3  0  0  0  0  0  0
  183.5310  178.2580  137.8240 C   0  0  0  0  0  3  0  0  0  0  0  0
  185.9770  178.4520  139.3270 C   0  0  0  0  0  2  0  0  0  0  0  0
  182.3770  180.4240  138.8890 Cl  0  0  0  0  0  0  0  0  0  0  0  0
  192.0660  176.5040  138.4940 C   0  0  0  0  0  2  0  0  0  0  0  0
  195.3910  175.1510  136.2240 C   0  0  0  0  0  0  0  0  0  0  0  0
  193.6260  174.6770  137.7970 C   0  0  0  0  0  3  0  0  0  0  0  0
  193.9040  176.8530  136.8780 N   0  0  0  0  0  0  0  0  0  0  0  0
  193.2200  176.0060  137.6910 C   0  0  0  0  0  0  0  0  0  0  0  0
  194.7220  174.2440  137.0550 C   0  0  0  0  0  3  0  0  0  0  0  0
  194.9540  176.4370  136.1660 N   0  0  0  0  0  0  0  0  0  0  0  0
  196.4950  174.7680  135.4580 O   0  0  0  0  0  0  0  0  0  0  0  0
  197.1170  175.6360  134.5200 C   0  0  0  0  0  1  0  0  0  0  0  0
  1  5  1  6  0  0  0
  1  7  1  0  0  0  0
  1 19  1  0  0  0  0
  2  6  2  0  0  0  0
  3  2  1  0  0  0  0
  4  3  1  0  0  0  0
  4  1  1  0  0  0  0
  6  7  1  0  0  0  0
  6 27  1  0  0  0  0
  7  8  1  1  0  0  0
  8 13  1  0  0  0  0
  9 12  2  0  0  0  0
  9 10  1  0  0  0  0
 10 11  2  0  0  0  0
 12 14  1  0  0  0  0
 13  9  1  0  0  0  0
 14 15  1  6  0  0  0
 14 11  1  0  0  0  0
 15 16  1  0  0  0  0
 16 18  1  0  0  0  0
 18 17  1  0  0  0  0
 21 24  1  0  0  0  0
 21 23  1  0  0  0  0
 22 26  1  0  0  0  0
 22 20  1  0  0  0  0
 23 19  1  1  0  0  0
 23 25  1  0  0  0  0
 24 22  2  0  0  0  0
 25 20  1  0  0  0  0
 28 32  1  0  0  0  0
 30 31  2  0  0  0  0
 31 29  1  0  0  0  0
 31 27  1  0  0  0  0
 32 29  2  0  0  0  0
 33 28  2  0  0  0  0
 33 30  1  0  0  0  0
 34 28  1  0  0  0  0
 35 34  1  0  0  0  0
M  END
>  <MODEL>
4

>  <REMARK>
 VINA RESULT:      -6.5      4.468      6.883
  Name = 
  10 active torsions:
  status: ('A' for Active; 'I' for Inactive)
    1  A    between atoms: C_1  and  O_15
    2  A    between atoms: C_3  and  S_24
    3  A    between atoms: N_6  and  N_27
    4  A    between atoms: N_6  and  C_34
    5  A    between atoms: C_8  and  C_14
    6  A    between atoms: C_8  and  C_30
    7  A    between atoms: C_13  and  S_24
    8  A    between atoms: C_14  and  C_26
    9  A    between atoms: C_22  and  C_28
   10  A    between atoms: C_28  and  C_31
                            x       y       z     vdW  Elec       q    Type
                         _______ _______ _______ _____ _____    ______ ____

>  <TORSDO>
F 10

$$$$
=
 OpenBabel10232410503D

 35 38  0  0  1  0  0  0  0  0999 V2000
  189.8250  177.6880  141.6500 C   0  0  2  0  0  0  0  0  0  0  0  0
  187.5890  178.3640  139.8950 C   0  0  0  0  0  3  0  0  0  0  0  0
  187.5740  178.7740  141.3420 C   0  0  0  0  0  2  0  0  0  0  0  0
  188.9920  178.9520  141.8850 C   0  0  0  0  0  2  0  0  0  0  0  0
  191.2420  177.9540  142.1310 C   0  0  0  0  0  1  0  0  0  0  0  0
  188.5970  177.6640  139.3520 C   0  0  0  0  0  0  0  0  0  0  0  0
  189.8790  177.4080  140.1300 C   0  0  2  0  0  3  0  0  0  0  0  0
  190.5700  176.1640  139.7680 N   0  0  0  0  0  2  0  0  0  0  0  0
  192.0160  175.5280  137.8770 C   0  0  0  0  0  0  0  0  0  0  0  0
  193.1110  175.7990  136.9240 C   0  0  0  0  0  3  0  0  0  0  0  0
  193.1090  174.5530  136.0490 C   0  0  0  0  0  3  0  0  0  0  0  0
  191.4330  174.3920  137.7210 N   0  0  0  0  0  0  0  0  0  0  0  0
  191.6230  176.4560  138.8860 N   0  0  0  0  0  2  0  0  0  0  0  0
  192.0240  173.6450  136.6270 C   0  0  1  0  0  3  0  0  0  0  0  0
  190.9630  173.3590  135.5760 C   0  0  0  0  0  2  0  0  0  0  0  0
  189.5620  173.4610  136.1610 C   0  0  0  0  0  2  0  0  0  0  0  0
  187.8520  171.8460  136.5820 O   0  0  0  0  0  1  0  0  0  0  0  0
  188.6330  172.4110  135.5740 C   0  0  0  0  0  2  0  0  0  0  0  0
  189.1190  176.2650  142.5840 S   0  0  0  0  0  0  0  0  0  0  0  0
  189.7300  177.1590  146.4940 N   0  0  0  0  0  2  0  0  0  0  0  0
  187.5330  176.9670  144.7060 C   0  0  0  0  0  2  0  0  0  0  0  0
  188.4330  177.5930  146.9220 C   0  0  0  0  0  0  0  0  0  0  0  0
  188.9560  177.1320  144.1770 C   0  0  1  0  0  3  0  0  0  0  0  0
  187.3970  177.5580  146.0810 C   0  0  0  0  0  3  0  0  0  0  0  0
  189.9340  176.5390  145.1860 C   0  0  0  0  0  2  0  0  0  0  0  0
  188.2320  178.2870  148.5150 Cl  0  0  0  0  0  0  0  0  0  0  0  0
  188.5370  177.3530  137.8880 C   0  0  0  0  0  2  0  0  0  0  0  0
  184.6870  175.9620  136.7580 C   0  0  0  0  0  0  0  0  0  0  0  0
  186.9750  175.4770  137.3460 C   0  0  0  0  0  3  0  0  0  0  0  0
  186.1670  177.7130  137.2880 N   0  0  0  0  0  0  0  0  0  0  0  0
  187.1880  176.8440  137.5090 C   0  0  0  0  0  0  0  0  0  0  0  0
  185.7110  175.0300  136.9690 C   0  0  0  0  0  3  0  0  0  0  0  0
  184.9550  177.2840  136.9260 N   0  0  0  0  0  0  0  0  0  0  0  0
  183.4020  175.5670  136.3790 O   0  0  0  0  0  0  0  0  0  0  0  0
  182.6290  174.6410  137.1320 C   0  0  0  0  0  1  0  0  0  0  0  0
  1  4  1  0  0  0  0
  1  5  1  1  0  0  0
  1 19  1  0  0  0  0
  2  3  1  0  0  0  0
  3  4  1  0  0  0  0
  6  2  2  0  0  0  0
  6  7  1  0  0  0  0
  7  8  1  1  0  0  0
  7  1  1  0  0  0  0
  9 13  1  0  0  0  0
 10  9  1  0  0  0  0
 11 14  1  0  0  0  0
 11 10  2  0  0  0  0
 12  9  2  0  0  0  0
 13  8  1  0  0  0  0
 14 15  1  6  0  0  0
 14 12  1  0  0  0  0
 15 16  1  0  0  0  0
 18 16  1  0  0  0  0
 18 17  1  0  0  0  0
 20 22  1  0  0  0  0
 21 24  1  0  0  0  0
 22 26  1  0  0  0  0
 23 19  1  6  0  0  0
 23 21  1  0  0  0  0
 23 25  1  0  0  0  0
 24 22  2  0  0  0  0
 25 20  1  0  0  0  0
 27  6  1  0  0  0  0
 28 33  2  0  0  0  0
 28 32  1  0  0  0  0
 29 31  1  0  0  0  0
 30 31  2  0  0  0  0
 31 27  1  0  0  0  0
 32 29  2  0  0  0  0
 33 30  1  0  0  0  0
 34 28  1  0  0  0  0
 34 35  1  0  0  0  0
M  END
>  <MODEL>
5

>  <REMARK>
 VINA RESULT:      -6.4      3.366      6.465
  Name = 
  10 active torsions:
  status: ('A' for Active; 'I' for Inactive)
    1  A    between atoms: C_1  and  O_15
    2  A    between atoms: C_3  and  S_24
    3  A    between atoms: N_6  and  N_27
    4  A    between atoms: N_6  and  C_34
    5  A    between atoms: C_8  and  C_14
    6  A    between atoms: C_8  and  C_30
    7  A    between atoms: C_13  and  S_24
    8  A    between atoms: C_14  and  C_26
    9  A    between atoms: C_22  and  C_28
   10  A    between atoms: C_28  and  C_31
                            x       y       z     vdW  Elec       q    Type
                         _______ _______ _______ _____ _____    ______ ____

>  <TORSDO>
F 10

$$$$
=
 OpenBabel10232410503D

 35 38  0  0  1  0  0  0  0  0999 V2000
  189.7310  175.5230  136.4520 C   0  0  2  0  0  0  0  0  0  0  0  0
  187.7070  176.9530  134.9030 C   0  0  0  0  0  3  0  0  0  0  0  0
  188.3650  175.7200  134.3460 C   0  0  0  0  0  2  0  0  0  0  0  0
  188.8260  174.7830  135.4610 C   0  0  0  0  0  2  0  0  0  0  0  0
  190.0870  174.5680  137.5790 C   0  0  0  0  0  1  0  0  0  0  0  0
  188.0240  177.4610  136.1040 C   0  0  0  0  0  0  0  0  0  0  0  0
  188.9360  176.7050  137.0570 C   0  0  2  0  0  3  0  0  0  0  0  0
  189.7180  177.5610  137.9570 N   0  0  0  0  0  2  0  0  0  0  0  0
  189.1920  177.5730  140.3650 C   0  0  0  0  0  0  0  0  0  0  0  0
  188.3710  177.9920  141.5180 C   0  0  0  0  0  3  0  0  0  0  0  0
  189.0930  177.3500  142.6930 C   0  0  0  0  0  3  0  0  0  0  0  0
  190.1940  176.8210  140.6590 N   0  0  0  0  0  0  0  0  0  0  0  0
  188.9080  177.9760  139.0270 N   0  0  0  0  0  2  0  0  0  0  0  0
  190.2540  176.5640  142.0850 C   0  0  1  0  0  3  0  0  0  0  0  0
  191.5770  177.0710  142.6370 C   0  0  0  0  0  2  0  0  0  0  0  0
  191.4270  177.5660  144.0680 C   0  0  0  0  0  2  0  0  0  0  0  0
  191.9020  176.9750  146.3340 O   0  0  0  0  0  1  0  0  0  0  0  0
  191.6370  176.4440  145.0720 C   0  0  0  0  0  2  0  0  0  0  0  0
  191.2730  176.0910  135.6190 S   0  0  0  0  0  0  0  0  0  0  0  0
  194.1860  175.8730  138.4340 N   0  0  0  0  0  2  0  0  0  0  0  0
  193.4360  174.4740  136.0800 C   0  0  0  0  0  2  0  0  0  0  0  0
  194.8580  174.6530  138.0950 C   0  0  0  0  0  0  0  0  0  0  0  0
  192.4310  175.3550  136.8160 C   0  0  1  0  0  3  0  0  0  0  0  0
  194.4870  173.9530  137.0200 C   0  0  0  0  0  3  0  0  0  0  0  0
  193.1820  176.4610  137.5510 C   0  0  0  0  0  2  0  0  0  0  0  0
  196.0870  174.0120  139.1630 Cl  0  0  0  0  0  0  0  0  0  0  0  0
  187.2700  178.6620  136.5870 C   0  0  0  0  0  2  0  0  0  0  0  0
  183.7950  177.5720  138.7720 C   0  0  0  0  0  0  0  0  0  0  0  0
  185.1960  177.2850  136.8310 C   0  0  0  0  0  3  0  0  0  0  0  0
  185.7590  178.8470  138.5340 N   0  0  0  0  0  0  0  0  0  0  0  0
  186.0550  178.2530  137.3480 C   0  0  0  0  0  0  0  0  0  0  0  0
  184.0550  176.9390  137.5510 C   0  0  0  0  0  3  0  0  0  0  0  0
  184.6650  178.5140  139.2240 N   0  0  0  0  0  0  0  0  0  0  0  0
  182.6660  177.2620  139.5340 O   0  0  0  0  0  0  0  0  0  0  0  0
  182.1080  175.9560  139.5840 C   0  0  0  0  0  1  0  0  0  0  0  0
  1  7  1  0  0  0  0
  1  5  1  1  0  0  0
  2  6  2  0  0  0  0
  3  2  1  0  0  0  0
  3  4  1  0  0  0  0
  4  1  1  0  0  0  0
  6 27  1  0  0  0  0
  6  7  1  0  0  0  0
  7  8  1  6  0  0  0
  8 13  1  0  0  0  0
  9 12  2  0  0  0  0
  9 10  1  0  0  0  0
 10 11  2  0  0  0  0
 12 14  1  0  0  0  0
 13  9  1  0  0  0  0
 14 15  1  1  0  0  0
 14 11  1  0  0  0  0
 15 16  1  0  0  0  0
 16 18  1  0  0  0  0
 18 17  1  0  0  0  0
 19  1  1  0  0  0  0
 21 23  1  0  0  0  0
 21 24  1  0  0  0  0
 22 20  1  0  0  0  0
 22 26  1  0  0  0  0
 23 19  1  6  0  0  0
 23 25  1  0  0  0  0
 24 22  2  0  0  0  0
 25 20  1  0  0  0  0
 27 31  1  0  0  0  0
 28 33  2  0  0  0  0
 28 34  1  0  0  0  0
 29 31  1  0  0  0  0
 29 32  2  0  0  0  0
 30 33  1  0  0  0  0
 31 30  2  0  0  0  0
 32 28  1  0  0  0  0
 34 35  1  0  0  0  0
M  END
>  <MODEL>
6

>  <REMARK>
 VINA RESULT:      -6.4      3.943      6.722
  Name = 
  10 active torsions:
  status: ('A' for Active; 'I' for Inactive)
    1  A    between atoms: C_1  and  O_15
    2  A    between atoms: C_3  and  S_24
    3  A    between atoms: N_6  and  N_27
    4  A    between atoms: N_6  and  C_34
    5  A    between atoms: C_8  and  C_14
    6  A    between atoms: C_8  and  C_30
    7  A    between atoms: C_13  and  S_24
    8  A    between atoms: C_14  and  C_26
    9  A    between atoms: C_22  and  C_28
   10  A    between atoms: C_28  and  C_31
                            x       y       z     vdW  Elec       q    Type
                         _______ _______ _______ _____ _____    ______ ____

>  <TORSDO>
F 10

$$$$
=
 OpenBabel10232410503D

 35 38  0  0  1  0  0  0  0  0999 V2000
  187.2650  175.7820  135.6640 C   0  0  2  0  0  0  0  0  0  0  0  0
  189.7610  177.2460  136.0690 C   0  0  0  0  0  3  0  0  0  0  0  0
  189.6980  176.0980  135.1000 C   0  0  0  0  0  2  0  0  0  0  0  0
  188.2890  175.9240  134.5330 C   0  0  0  0  0  2  0  0  0  0  0  0
  185.8800  175.6980  135.0450 C   0  0  0  0  0  1  0  0  0  0  0  0
  188.7040  177.6360  136.7980 C   0  0  0  0  0  0  0  0  0  0  0  0
  187.3210  177.0550  136.5420 C   0  0  2  0  0  3  0  0  0  0  0  0
  186.4530  177.0120  137.7250 N   0  0  0  0  0  2  0  0  0  0  0  0
  184.7070  178.4010  138.7710 C   0  0  0  0  0  0  0  0  0  0  0  0
  183.7050  179.4850  138.7310 C   0  0  0  0  0  3  0  0  0  0  0  0
  183.1690  179.4980  140.1550 C   0  0  0  0  0  3  0  0  0  0  0  0
  184.8140  177.8060  139.9070 N   0  0  0  0  0  0  0  0  0  0  0  0
  185.5040  178.0450  137.6440 N   0  0  0  0  0  2  0  0  0  0  0  0
  183.8920  178.3620  140.8780 C   0  0  1  0  0  3  0  0  0  0  0  0
  184.6720  178.9070  142.0650 C   0  0  0  0  0  2  0  0  0  0  0  0
  184.0710  178.4420  143.3830 C   0  0  0  0  0  2  0  0  0  0  0  0
  183.8960  179.1610  145.6550 O   0  0  0  0  0  1  0  0  0  0  0  0
  184.7710  179.0790  144.5720 C   0  0  0  0  0  2  0  0  0  0  0  0
  187.5910  174.2580  136.6450 S   0  0  0  0  0  0  0  0  0  0  0  0
  184.0470  172.4120  137.3460 N   0  0  0  0  0  2  0  0  0  0  0  0
  186.2340  172.1420  135.5550 C   0  0  0  0  0  2  0  0  0  0  0  0
  183.9520  171.4910  136.2510 C   0  0  0  0  0  0  0  0  0  0  0  0
  185.9950  173.4520  136.3020 C   0  0  1  0  0  3  0  0  0  0  0  0
  184.9480  171.3860  135.3690 C   0  0  0  0  0  3  0  0  0  0  0  0
  185.2770  173.1540  137.6140 C   0  0  0  0  0  2  0  0  0  0  0  0
  182.4730  170.5920  135.9990 Cl  0  0  0  0  0  0  0  0  0  0  0  0
  188.8600  178.8250  137.6940 C   0  0  0  0  0  2  0  0  0  0  0  0
  189.2650  177.6030  141.7410 C   0  0  0  0  0  0  0  0  0  0  0  0
  190.0900  177.5740  139.4760 C   0  0  0  0  0  3  0  0  0  0  0  0
  188.1290  178.7880  140.0550 N   0  0  0  0  0  0  0  0  0  0  0  0
  189.0290  178.4000  139.1140 C   0  0  0  0  0  0  0  0  0  0  0  0
  190.2120  177.1720  140.8040 C   0  0  0  0  0  3  0  0  0  0  0  0
  188.2460  178.4030  141.3280 N   0  0  0  0  0  0  0  0  0  0  0  0
  189.3400  177.2290  143.0850 O   0  0  0  0  0  0  0  0  0  0  0  0
  188.1880  176.9950  143.8830 C   0  0  0  0  0  1  0  0  0  0  0  0
  1  5  1  6  0  0  0
  1  7  1  0  0  0  0
  1 19  1  0  0  0  0
  2  6  2  0  0  0  0
  3  2  1  0  0  0  0
  4  3  1  0  0  0  0
  4  1  1  0  0  0  0
  6 27  1  0  0  0  0
  7  6  1  0  0  0  0
  7  8  1  1  0  0  0
  9 12  2  0  0  0  0
 10  9  1  0  0  0  0
 10 11  2  0  0  0  0
 11 14  1  0  0  0  0
 12 14  1  0  0  0  0
 13  8  1  0  0  0  0
 13  9  1  0  0  0  0
 14 15  1  1  0  0  0
 15 16  1  0  0  0  0
 16 18  1  0  0  0  0
 18 17  1  0  0  0  0
 20 25  1  0  0  0  0
 21 23  1  0  0  0  0
 22 20  1  0  0  0  0
 23 19  1  1  0  0  0
 23 25  1  0  0  0  0
 24 21  1  0  0  0  0
 24 22  2  0  0  0  0
 26 22  1  0  0  0  0
 27 31  1  0  0  0  0
 28 34  1  0  0  0  0
 29 32  2  0  0  0  0
 30 33  1  0  0  0  0
 31 29  1  0  0  0  0
 31 30  2  0  0  0  0
 32 28  1  0  0  0  0
 33 28  2  0  0  0  0
 34 35  1  0  0  0  0
M  END
>  <MODEL>
7

>  <REMARK>
 VINA RESULT:      -6.3      3.961      7.202
  Name = 
  10 active torsions:
  status: ('A' for Active; 'I' for Inactive)
    1  A    between atoms: C_1  and  O_15
    2  A    between atoms: C_3  and  S_24
    3  A    between atoms: N_6  and  N_27
    4  A    between atoms: N_6  and  C_34
    5  A    between atoms: C_8  and  C_14
    6  A    between atoms: C_8  and  C_30
    7  A    between atoms: C_13  and  S_24
    8  A    between atoms: C_14  and  C_26
    9  A    between atoms: C_22  and  C_28
   10  A    between atoms: C_28  and  C_31
                            x       y       z     vdW  Elec       q    Type
                         _______ _______ _______ _____ _____    ______ ____

>  <TORSDO>
F 10

$$$$
=
 OpenBabel10232410503D

 35 38  0  0  1  0  0  0  0  0999 V2000
  188.4400  177.3480  137.2110 C   0  0  2  0  0  0  0  0  0  0  0  0
  189.3250  175.8120  134.8870 C   0  0  0  0  0  3  0  0  0  0  0  0
  188.1660  176.7640  134.7770 C   0  0  0  0  0  2  0  0  0  0  0  0
  188.2810  177.9020  135.7910 C   0  0  0  0  0  2  0  0  0  0  0  0
  188.6340  178.5180  138.1610 C   0  0  0  0  0  1  0  0  0  0  0  0
  189.9840  175.6070  136.0380 C   0  0  0  0  0  0  0  0  0  0  0  0
  189.7160  176.4740  137.2590 C   0  0  2  0  0  3  0  0  0  0  0  0
  189.9380  175.7990  138.5440 N   0  0  0  0  0  2  0  0  0  0  0  0
  190.8160  176.9730  140.5250 C   0  0  0  0  0  0  0  0  0  0  0  0
  191.9050  177.6310  141.2740 C   0  0  0  0  0  3  0  0  0  0  0  0
  191.2320  177.9950  142.5900 C   0  0  0  0  0  3  0  0  0  0  0  0
  189.6890  176.9200  141.1430 N   0  0  0  0  0  0  0  0  0  0  0  0
  190.9980  176.4250  139.2210 N   0  0  0  0  0  2  0  0  0  0  0  0
  189.7780  177.5470  142.4470 C   0  0  1  0  0  3  0  0  0  0  0  0
  189.4340  176.5300  143.5240 C   0  0  0  0  0  2  0  0  0  0  0  0
  187.9730  176.6350  143.9380 C   0  0  0  0  0  2  0  0  0  0  0  0
  188.4300  177.2580  146.1990 O   0  0  0  0  0  1  0  0  0  0  0  0
  187.7760  177.6660  145.0360 C   0  0  0  0  0  2  0  0  0  0  0  0
  186.9410  176.3980  137.7060 S   0  0  0  0  0  0  0  0  0  0  0  0
  184.8720  179.4590  139.3810 N   0  0  0  0  0  2  0  0  0  0  0  0
  184.4030  177.4040  137.4780 C   0  0  0  0  0  2  0  0  0  0  0  0
  183.6510  179.4600  138.6300 C   0  0  0  0  0  0  0  0  0  0  0  0
  185.8260  177.8320  137.8290 C   0  0  1  0  0  3  0  0  0  0  0  0
  183.4330  178.5320  137.6950 C   0  0  0  0  0  3  0  0  0  0  0  0
  185.8460  178.3770  139.2540 C   0  0  0  0  0  2  0  0  0  0  0  0
  182.4950  180.7540  138.8520 Cl  0  0  0  0  0  0  0  0  0  0  0  0
  191.1590  174.6770  136.0270 C   0  0  0  0  0  2  0  0  0  0  0  0
  194.8080  176.7720  135.4570 C   0  0  0  0  0  0  0  0  0  0  0  0
  192.7950  175.8280  134.5260 C   0  0  0  0  0  3  0  0  0  0  0  0
  193.2500  175.7010  136.8570 N   0  0  0  0  0  0  0  0  0  0  0  0
  192.4280  175.4300  135.8090 C   0  0  0  0  0  0  0  0  0  0  0  0
  193.9970  176.5080  134.3470 C   0  0  0  0  0  3  0  0  0  0  0  0
  194.4010  176.3540  136.6850 N   0  0  0  0  0  0  0  0  0  0  0  0
  196.0230  177.4520  135.3340 O   0  0  0  0  0  0  0  0  0  0  0  0
  196.1120  178.7850  134.8490 C   0  0  0  0  0  1  0  0  0  0  0  0
  1  7  1  0  0  0  0
  1 19  1  0  0  0  0
  1  5  1  1  0  0  0
  2  6  2  0  0  0  0
  3  2  1  0  0  0  0
  3  4  1  0  0  0  0
  4  1  1  0  0  0  0
  6  7  1  0  0  0  0
  7  8  1  1  0  0  0
  8 13  1  0  0  0  0
  9 12  2  0  0  0  0
  9 10  1  0  0  0  0
 10 11  2  0  0  0  0
 12 14  1  0  0  0  0
 13  9  1  0  0  0  0
 14 11  1  0  0  0  0
 14 15  1  1  0  0  0
 15 16  1  0  0  0  0
 16 18  1  0  0  0  0
 18 17  1  0  0  0  0
 21 24  1  0  0  0  0
 21 23  1  0  0  0  0
 22 26  1  0  0  0  0
 22 20  1  0  0  0  0
 23 19  1  1  0  0  0
 23 25  1  0  0  0  0
 24 22  2  0  0  0  0
 25 20  1  0  0  0  0
 27  6  1  0  0  0  0
 28 33  2  0  0  0  0
 29 31  1  0  0  0  0
 31 27  1  0  0  0  0
 31 30  2  0  0  0  0
 32 29  2  0  0  0  0
 32 28  1  0  0  0  0
 33 30  1  0  0  0  0
 34 28  1  0  0  0  0
 35 34  1  0  0  0  0
M  END
>  <MODEL>
8

>  <REMARK>
 VINA RESULT:      -6.1      4.388      7.326
  Name = 
  10 active torsions:
  status: ('A' for Active; 'I' for Inactive)
    1  A    between atoms: C_1  and  O_15
    2  A    between atoms: C_3  and  S_24
    3  A    between atoms: N_6  and  N_27
    4  A    between atoms: N_6  and  C_34
    5  A    between atoms: C_8  and  C_14
    6  A    between atoms: C_8  and  C_30
    7  A    between atoms: C_13  and  S_24
    8  A    between atoms: C_14  and  C_26
    9  A    between atoms: C_22  and  C_28
   10  A    between atoms: C_28  and  C_31
                            x       y       z     vdW  Elec       q    Type
                         _______ _______ _______ _____ _____    ______ ____

>  <TORSDO>
F 10

$$$$
=
 OpenBabel10232410503D

 35 38  0  0  1  0  0  0  0  0999 V2000
  190.0750  177.4100  140.9800 C   0  0  2  0  0  0  0  0  0  0  0  0
  187.6300  178.0650  139.5200 C   0  0  0  0  0  3  0  0  0  0  0  0
  187.8170  178.5230  140.9400 C   0  0  0  0  0  2  0  0  0  0  0  0
  189.2970  178.6950  141.2800 C   0  0  0  0  0  2  0  0  0  0  0  0
  191.5470  177.6680  141.2550 C   0  0  0  0  0  1  0  0  0  0  0  0
  188.5470  177.3290  138.8710 C   0  0  0  0  0  0  0  0  0  0  0  0
  189.9190  177.0780  139.4770 C   0  0  2  0  0  3  0  0  0  0  0  0
  190.5390  175.8110  139.0700 N   0  0  0  0  0  2  0  0  0  0  0  0
  192.4330  175.7040  137.4970 C   0  0  0  0  0  0  0  0  0  0  0  0
  193.0120  175.8220  136.1430 C   0  0  0  0  0  3  0  0  0  0  0  0
  194.4680  175.4380  136.3680 C   0  0  0  0  0  3  0  0  0  0  0  0
  193.2680  175.3600  138.4140 N   0  0  0  0  0  0  0  0  0  0  0  0
  191.0540  175.9410  137.7690 N   0  0  0  0  0  2  0  0  0  0  0  0
  194.6000  175.1820  137.8690 C   0  0  1  0  0  3  0  0  0  0  0  0
  195.0630  173.7550  138.1190 C   0  0  0  0  0  2  0  0  0  0  0  0
  196.5100  173.5600  137.6900 C   0  0  0  0  0  2  0  0  0  0  0  0
  198.0180  175.4110  137.6080 O   0  0  0  0  0  1  0  0  0  0  0  0
  197.4510  174.4680  138.4650 C   0  0  0  0  0  2  0  0  0  0  0  0
  189.4840  176.0320  142.0510 S   0  0  0  0  0  0  0  0  0  0  0  0
  190.3450  177.2120  145.8350 N   0  0  0  0  0  2  0  0  0  0  0  0
  188.0310  176.8080  144.2400 C   0  0  0  0  0  2  0  0  0  0  0  0
  189.0650  177.6200  146.3350 C   0  0  0  0  0  0  0  0  0  0  0  0
  189.4010  176.9960  143.5930 C   0  0  1  0  0  3  0  0  0  0  0  0
  187.9720  177.4850  145.5800 C   0  0  0  0  0  3  0  0  0  0  0  0
  190.4790  176.5140  144.5580 C   0  0  0  0  0  2  0  0  0  0  0  0
  188.9520  178.4110  147.8900 Cl  0  0  0  0  0  0  0  0  0  0  0  0
  188.2850  176.9710  137.4410 C   0  0  0  0  0  2  0  0  0  0  0  0
  185.0220  174.2770  137.0830 C   0  0  0  0  0  0  0  0  0  0  0  0
  187.3910  174.6370  137.3500 C   0  0  0  0  0  3  0  0  0  0  0  0
  185.8790  176.4660  137.1880 N   0  0  0  0  0  0  0  0  0  0  0  0
  187.1500  176.0100  137.3340 C   0  0  0  0  0  0  0  0  0  0  0  0
  186.3160  173.7610  137.2250 C   0  0  0  0  0  3  0  0  0  0  0  0
  184.8480  175.6260  137.0680 N   0  0  0  0  0  0  0  0  0  0  0  0
  183.9090  173.4430  136.9550 O   0  0  0  0  0  0  0  0  0  0  0  0
  184.0060  172.0250  136.9680 C   0  0  0  0  0  1  0  0  0  0  0  0
  1  5  1  1  0  0  0
  1  4  1  0  0  0  0
  1 19  1  0  0  0  0
  2  3  1  0  0  0  0
  3  4  1  0  0  0  0
  6  7  1  0  0  0  0
  6  2  2  0  0  0  0
  7  8  1  1  0  0  0
  7  1  1  0  0  0  0
  9 13  1  0  0  0  0
  9 12  2  0  0  0  0
 10 11  2  0  0  0  0
 10  9  1  0  0  0  0
 11 14  1  0  0  0  0
 13  8  1  0  0  0  0
 14 15  1  6  0  0  0
 14 12  1  0  0  0  0
 16 15  1  0  0  0  0
 16 18  1  0  0  0  0
 17 18  1  0  0  0  0
 20 22  1  0  0  0  0
 21 24  1  0  0  0  0
 22 26  1  0  0  0  0
 23 19  1  6  0  0  0
 23 21  1  0  0  0  0
 23 25  1  0  0  0  0
 24 22  2  0  0  0  0
 25 20  1  0  0  0  0
 27  6  1  0  0  0  0
 28 32  1  0  0  0  0
 30 31  2  0  0  0  0
 31 29  1  0  0  0  0
 31 27  1  0  0  0  0
 32 29  2  0  0  0  0
 33 28  2  0  0  0  0
 33 30  1  0  0  0  0
 34 35  1  0  0  0  0
 34 28  1  0  0  0  0
M  END
>  <MODEL>
9

>  <REMARK>
 VINA RESULT:      -6.0      3.878      7.312
  Name = 
  10 active torsions:
  status: ('A' for Active; 'I' for Inactive)
    1  A    between atoms: C_1  and  O_15
    2  A    between atoms: C_3  and  S_24
    3  A    between atoms: N_6  and  N_27
    4  A    between atoms: N_6  and  C_34
    5  A    between atoms: C_8  and  C_14
    6  A    between atoms: C_8  and  C_30
    7  A    between atoms: C_13  and  S_24
    8  A    between atoms: C_14  and  C_26
    9  A    between atoms: C_22  and  C_28
   10  A    between atoms: C_28  and  C_31
                            x       y       z     vdW  Elec       q    Type
                         _______ _______ _______ _____ _____    ______ ____

>  <TORSDO>
F 10

$$$$
