=
 OpenBabel10222421283D

 69 76  0  0  1  0  0  0  0  0999 V2000
  181.4730  173.0410  135.0750 N   0  0  0  0  0  0  0  0  0  0  0  0
  185.1900  174.8270  135.8730 N   0  0  0  0  0  0  0  0  0  0  0  0
  183.0000  175.2200  136.5890 N   0  0  0  0  0  0  0  0  0  0  0  0
  183.7870  172.8960  135.8960 C   0  0  0  0  0  0  0  0  0  0  0  0
  182.4640  170.8710  135.3410 C   0  0  0  0  0  2  0  0  0  0  0  0
  186.3100  174.0250  135.4610 C   0  0  0  0  0  0  0  0  0  0  0  0
  181.0550  170.7140  134.7840 C   0  0  0  0  0  2  0  0  0  0  0  0
  189.1640  173.1110  136.0700 N   0  0  0  0  0  0  0  0  0  0  0  0
  188.6200  172.0130  135.3700 N   0  0  0  0  0  0  0  0  0  0  0  0
  180.5510  172.1100  134.4530 C   0  0  0  0  0  2  0  0  0  0  0  0
  185.0080  172.0300  136.0960 C   0  0  0  0  0  2  0  0  0  0  0  0
  187.0290  170.5420  134.3830 C   0  0  0  0  0  1  0  0  0  0  0  0
  182.6190  172.3340  135.5430 C   0  0  0  0  0  0  0  0  0  0  0  0
  180.9030  176.2650  136.8870 N   0  0  0  0  0  2  0  0  0  0  0  0
  188.6480  174.4400  135.9220 C   0  0  0  0  0  0  0  0  0  0  0  0
  183.9950  174.3520  136.0510 C   0  0  0  0  0  0  0  0  0  0  0  0
  181.1440  174.4260  135.2350 C   0  0  0  0  0  0  0  0  0  0  0  0
  180.4820  177.9620  138.4170 O   0  0  0  0  0  0  0  0  0  0  0  0
  187.5460  174.6920  134.9520 C   0  0  2  0  0  3  0  0  0  0  0  0
  186.2480  172.6810  135.5420 C   0  0  0  0  0  0  0  0  0  0  0  0
  180.2370  174.9240  134.5110 O   0  0  0  0  0  0  0  0  0  0  0  0
  181.1420  176.9260  138.1360 C   0  0  0  0  0  0  0  0  0  0  0  0
  187.3650  171.8000  135.1020 C   0  0  0  0  0  0  0  0  0  0  0  0
  189.0840  175.3710  136.6520 O   0  0  0  0  0  0  0  0  0  0  0  0
  181.7360  175.2600  136.2960 C   0  0  0  0  0  0  0  0  0  0  0  0
  187.3450  176.1440  134.6250 C   0  0  0  0  0  3  0  0  0  0  0  0
  186.1200  176.6440  134.4810 C   0  0  0  0  0  2  0  0  0  0  0  0
  190.4640  172.9480  136.7040 C   0  0  0  0  0  2  0  0  0  0  0  0
  191.3500  174.1460  136.4210 C   0  0  0  0  0  2  0  0  0  0  0  0
  192.7050  173.9230  137.0430 C   0  0  0  0  0  2  0  0  0  0  0  0
  193.7600  174.7040  136.2740 C   0  0  0  0  0  2  0  0  0  0  0  0
  195.0410  173.9000  136.1920 C   0  0  0  0  0  2  0  0  0  0  0  0
  195.5950  173.6500  137.5840 C   0  0  0  0  0  2  0  0  0  0  0  0
  196.8940  173.1430  137.4940 O   0  0  0  0  0  0  0  0  0  0  0  0
  197.9230  174.4610  137.8000 P   0  0  0  0  0  0  0  0  0  0  0  0
  197.5580  175.1160  139.3150 O   0  0  0  0  0  1  0  0  0  0  0  0
  197.6800  175.6600  136.6230 O   0  0  0  0  0  0  0  0  0  0  0  0
  199.3710  174.0160  137.7840 O   0  0  0  0  0  1  0  0  0  0  0  0
  182.0620  176.3470  139.1570 C   0  0  0  0  0  2  0  0  0  0  0  0
  184.3880  176.7790  138.3720 C   0  0  0  0  0  3  0  0  0  0  0  0
  183.5110  178.0910  140.2100 C   0  0  0  0  0  3  0  0  0  0  0  0
  184.7370  178.7500  140.3250 C   0  0  0  0  0  3  0  0  0  0  0  0
  183.3370  177.1050  139.2330 C   0  0  0  0  0  0  0  0  0  0  0  0
  185.6130  177.4430  138.4810 C   0  0  0  0  0  3  0  0  0  0  0  0
  185.7950  178.4350  139.4590 C   0  0  0  0  0  0  0  0  0  0  0  0
  187.0640  179.0910  139.6430 N   0  0  0  0  0  2  0  0  0  0  0  0
  188.1600  178.6460  140.5040 C   0  0  2  0  0  3  0  0  0  0  0  0
  190.0810  176.9400  140.3060 C   0  0  1  0  0  0  0  0  0  0  0  0
  188.5900  177.2430  140.1040 C   0  0  1  0  0  3  0  0  0  0  0  0
  189.0640  176.4220  141.3040 C   0  0  0  0  0  2  0  0  0  0  0  0
  190.6090  175.9080  139.5360 O   0  0  0  0  0  1  0  0  0  0  0  0
  192.2600  177.8670  140.2580 O   0  0  0  0  0  1  0  0  0  0  0  0
  191.0780  177.8450  140.9270 N   0  0  0  0  0  0  0  0  0  0  0  0
  191.3260  177.4830  142.3250 C   0  0  0  0  0  2  0  0  0  0  0  0
  191.9650  178.3970  144.5320 C   0  0  0  0  0  2  0  0  0  0  0  0
  191.1510  178.6570  143.2850 C   0  0  0  0  0  3  0  0  0  0  0  0
  190.4720  178.1660  144.5460 C   0  0  0  0  0  2  0  0  0  0  0  0
  186.7360  178.0910  142.4510 C   0  0  0  0  0  3  0  0  0  0  0  0
  187.7950  178.7310  141.9630 C   0  0  0  0  0  3  0  0  0  0  0  0
  187.2450  177.2300  144.7400 C   0  0  0  0  0  1  0  0  0  0  0  0
  186.4210  178.1970  143.9040 C   0  0  2  0  0  3  0  0  0  0  0  0
  185.0430  178.0900  144.1600 O   0  0  0  0  0  0  0  0  0  0  0  0
  184.8250  178.6470  145.3400 O   0  0  0  0  0  0  0  0  0  0  0  0
  183.4620  178.9540  145.3320 C   0  0  0  0  0  2  0  0  0  0  0  0
  183.0010  179.1870  143.9060 C   0  0  0  0  0  2  0  0  0  0  0  0
  181.9860  178.1230  143.5220 C   0  0  0  0  0  2  0  0  0  0  0  0
  180.5850  178.7020  143.5900 C   0  0  0  0  0  3  0  0  0  0  0  0
  180.5500  180.0080  142.8280 C   0  0  0  0  0  2  0  0  0  0  0  0
  179.9870  178.7510  142.1990 C   0  0  0  0  0  2  0  0  0  0  0  0
  1 17  1  0  0  0  0
  1 13  1  0  0  0  0
  2 16  2  0  0  0  0
  4 16  1  0  0  0  0
  4 11  1  0  0  0  0
  5 13  1  0  0  0  0
  6 20  2  0  0  0  0
  6  2  1  0  0  0  0
  7  5  1  0  0  0  0
  8 28  1  0  0  0  0
  9  8  1  0  0  0  0
 10  7  1  0  0  0  0
 10  1  1  0  0  0  0
 12 23  1  0  0  0  0
 13  4  2  0  0  0  0
 14 22  1  0  0  0  0
 15  8  1  0  0  0  0
 15 24  2  0  0  0  0
 16  3  1  0  0  0  0
 17 25  1  0  0  0  0
 19 26  1  1  0  0  0
 19  6  1  0  0  0  0
 19 15  1  0  0  0  0
 20 11  1  0  0  0  0
 21 17  2  0  0  0  0
 22 18  2  0  0  0  0
 22 39  1  0  0  0  0
 23  9  2  0  0  0  0
 23 20  1  0  0  0  0
 25  3  2  0  0  0  0
 25 14  1  0  0  0  0
 27 26  2  0  0  0  0
 29 28  1  0  0  0  0
 29 30  1  0  0  0  0
 31 30  1  0  0  0  0
 32 31  1  0  0  0  0
 32 33  1  0  0  0  0
 34 33  1  0  0  0  0
 34 35  1  0  0  0  0
 35 36  1  0  0  0  0
 37 35  2  0  0  0  0
 38 35  1  0  0  0  0
 39 43  1  0  0  0  0
 40 44  2  0  0  0  0
 40 43  1  0  0  0  0
 41 42  1  0  0  0  0
 43 41  2  0  0  0  0
 44 45  1  0  0  0  0
 45 46  1  0  0  0  0
 45 42  2  0  0  0  0
 46 47  1  0  0  0  0
 47 59  1  1  0  0  0
 48 51  1  6  0  0  0
 48 53  1  0  0  0  0
 48 50  1  0  0  0  0
 49 48  1  0  0  0  0
 49 47  1  1  0  0  0
 49 50  1  0  0  0  0
 52 53  1  0  0  0  0
 53 54  1  0  0  0  0
 54 56  1  0  0  0  0
 55 57  1  0  0  0  0
 56 55  1  0  0  0  0
 56 57  1  0  0  0  0
 58 61  1  0  0  0  0
 59 58  2  0  0  0  0
 61 62  1  0  0  0  0
 61 60  1  1  0  0  0
 62 63  1  0  0  0  0
 64 63  1  0  0  0  0
 65 64  1  0  0  0  0
 66 67  1  0  0  0  0
 66 65  1  0  0  0  0
 68 67  1  0  0  0  0
 69 68  1  0  0  0  0
 69 67  1  0  0  0  0
M  END
>  <MODEL>
1

>  <REMARK>
 VINA RESULT:      -5.3      0.000      0.000
  Name = 
  25 active torsions:
  status: ('A' for Active; 'I' for Inactive)
    1  A    between atoms: C_2  and  C_10
    2  A    between atoms: C_2  and  C_28
    3  A    between atoms: C_5  and  C_65
    4  A    between atoms: C_6  and  N_59
    5  A    between atoms: C_7  and  C_18
    6  A    between atoms: P_9  and  O_20
    7  A    between atoms: C_10  and  C_12
    8  A    between atoms: C_18  and  N_37
    9  A    between atoms: C_18  and  C_43
   10  A    between atoms: O_20  and  C_45
   11  A    between atoms: C_21  and  C_50
   12  A    between atoms: N_22  and  C_56
   13  A    between atoms: O_23  and  O_24
   14  A    between atoms: O_23  and  C_28
   15  A    between atoms: O_24  and  C_65
   16  A    between atoms: C_25  and  C_69
   17  A    between atoms: C_31  and  C_47
   18  A    between atoms: C_31  and  C_57
   19  A    between atoms: C_34  and  C_55
   20  A    between atoms: C_34  and  C_60
   21  A    between atoms: N_37  and  C_64
   22  A    between atoms: C_45  and  C_57
   23  A    between atoms: C_47  and  C_48
   24  A    between atoms: C_48  and  C_56
   25  A    between atoms: N_59  and  C_69
                            x       y       z     vdW  Elec       q    Type
                         _______ _______ _______ _____ _____    ______ ____

>  <TORSDO>
F 25

$$$$
=
 OpenBabel10222421283D

 69 76  0  0  1  0  0  0  0  0999 V2000
  181.4500  173.0310  135.1170 N   0  0  0  0  0  0  0  0  0  0  0  0
  184.9930  174.9660  136.2760 N   0  0  0  0  0  0  0  0  0  0  0  0
  182.7580  175.1090  136.9460 N   0  0  0  0  0  0  0  0  0  0  0  0
  183.7410  172.9520  136.0060 C   0  0  0  0  0  0  0  0  0  0  0  0
  182.5950  170.9230  135.1540 C   0  0  0  0  0  2  0  0  0  0  0  0
  186.1830  174.3040  135.8150 C   0  0  0  0  0  0  0  0  0  0  0  0
  181.2190  170.7350  134.5260 C   0  0  0  0  0  2  0  0  0  0  0  0
  189.0780  173.5290  136.4210 N   0  0  0  0  0  0  0  0  0  0  0  0
  188.6420  172.4910  135.5710 N   0  0  0  0  0  0  0  0  0  0  0  0
  180.6200  172.1220  134.3480 C   0  0  0  0  0  2  0  0  0  0  0  0
  185.0180  172.1580  136.1480 C   0  0  0  0  0  2  0  0  0  0  0  0
  187.1980  171.0440  134.3480 C   0  0  0  0  0  1  0  0  0  0  0  0
  182.6310  172.3560  135.5400 C   0  0  0  0  0  0  0  0  0  0  0  0
  180.5790  175.9550  137.2840 N   0  0  0  0  0  2  0  0  0  0  0  0
  188.4670  174.8250  136.4160 C   0  0  0  0  0  0  0  0  0  0  0  0
  183.8330  174.3880  136.3470 C   0  0  0  0  0  0  0  0  0  0  0  0
  181.0110  174.3590  135.4310 C   0  0  0  0  0  0  0  0  0  0  0  0
  179.9830  177.4120  138.9920 O   0  0  0  0  0  0  0  0  0  0  0  0
  187.3800  175.1170  135.4410 C   0  0  2  0  0  3  0  0  0  0  0  0
  186.2210  172.9600  135.7280 C   0  0  0  0  0  0  0  0  0  0  0  0
  180.0920  174.8760  134.7380 O   0  0  0  0  0  0  0  0  0  0  0  0
  180.7280  176.4700  138.6130 C   0  0  0  0  0  0  0  0  0  0  0  0
  187.4150  172.2230  135.2280 C   0  0  0  0  0  0  0  0  0  0  0  0
  188.8080  175.6870  137.2720 O   0  0  0  0  0  0  0  0  0  0  0  0
  181.5050  175.0940  136.6090 C   0  0  0  0  0  0  0  0  0  0  0  0
  187.0790  176.5800  135.2860 C   0  0  0  0  0  3  0  0  0  0  0  0
  187.9590  177.3980  134.7130 C   0  0  0  0  0  2  0  0  0  0  0  0
  190.3660  173.3820  137.0830 C   0  0  0  0  0  2  0  0  0  0  0  0
  191.4670  173.1620  136.0630 C   0  0  0  0  0  2  0  0  0  0  0  0
  191.6860  174.4320  135.2810 C   0  0  0  0  0  2  0  0  0  0  0  0
  193.1730  174.6300  135.0240 C   0  0  0  0  0  2  0  0  0  0  0  0
  193.9460  173.4240  135.5170 C   0  0  0  0  0  2  0  0  0  0  0  0
  195.1180  173.8660  136.3750 C   0  0  0  0  0  2  0  0  0  0  0  0
  196.2390  174.0900  135.5700 O   0  0  0  0  0  0  0  0  0  0  0  0
  197.5800  173.9530  136.6060 P   0  0  0  0  0  0  0  0  0  0  0  0
  198.9290  173.4650  135.7130 O   0  0  0  0  0  0  0  0  0  0  0  0
  197.2670  172.7800  137.7930 O   0  0  0  0  0  1  0  0  0  0  0  0
  197.8750  175.2830  137.2680 O   0  0  0  0  0  1  0  0  0  0  0  0
  181.6580  175.8360  139.5930 C   0  0  0  0  0  2  0  0  0  0  0  0
  183.8550  176.9870  139.3510 C   0  0  0  0  0  3  0  0  0  0  0  0
  182.4930  177.4620  141.2960 C   0  0  0  0  0  3  0  0  0  0  0  0
  183.4880  178.3130  141.7850 C   0  0  0  0  0  3  0  0  0  0  0  0
  182.6770  176.8000  140.0790 C   0  0  0  0  0  0  0  0  0  0  0  0
  184.8480  177.8430  139.8340 C   0  0  0  0  0  3  0  0  0  0  0  0
  184.6700  178.5130  141.0560 C   0  0  0  0  0  0  0  0  0  0  0  0
  185.7010  179.3490  141.6170 N   0  0  0  0  0  2  0  0  0  0  0  0
  186.9640  178.9020  142.2030 C   0  0  2  0  0  3  0  0  0  0  0  0
  188.4790  177.6330  140.5500 C   0  0  1  0  0  0  0  0  0  0  0  0
  187.3640  177.5630  141.6010 C   0  0  1  0  0  3  0  0  0  0  0  0
  188.8000  177.1770  141.9600 C   0  0  0  0  0  2  0  0  0  0  0  0
  188.5400  176.5750  139.6470 O   0  0  0  0  0  1  0  0  0  0  0  0
  188.8190  179.3670  138.9720 O   0  0  0  0  0  1  0  0  0  0  0  0
  189.2330  178.8470  140.1580 N   0  0  0  0  0  0  0  0  0  0  0  0
  190.6720  178.5780  140.0850 C   0  0  0  0  0  2  0  0  0  0  0  0
  192.3620  176.8860  140.7150 C   0  0  0  0  0  2  0  0  0  0  0  0
  190.9990  177.0860  140.0920 C   0  0  0  0  0  3  0  0  0  0  0  0
  192.2080  176.8430  139.2120 C   0  0  0  0  0  2  0  0  0  0  0  0
  186.2940  177.8460  144.3370 C   0  0  0  0  0  3  0  0  0  0  0  0
  186.8970  178.8490  143.7060 C   0  0  0  0  0  3  0  0  0  0  0  0
  184.8760  178.1430  146.3730 C   0  0  0  0  0  1  0  0  0  0  0  0
  186.2610  177.8320  145.8280 C   0  0  2  0  0  3  0  0  0  0  0  0
  187.2570  178.6480  146.3910 O   0  0  0  0  0  0  0  0  0  0  0  0
  186.9220  178.8510  147.6540 O   0  0  0  0  0  0  0  0  0  0  0  0
  187.9300  178.2170  148.3860 C   0  0  0  0  0  2  0  0  0  0  0  0
  189.2860  178.6190  147.8380 C   0  0  0  0  0  2  0  0  0  0  0  0
  190.0770  177.3720  147.4780 C   0  0  0  0  0  2  0  0  0  0  0  0
  191.0390  177.6830  146.3480 C   0  0  0  0  0  3  0  0  0  0  0  0
  191.4530  176.3900  145.6800 C   0  0  0  0  0  2  0  0  0  0  0  0
  190.4170  177.2810  145.0260 C   0  0  0  0  0  2  0  0  0  0  0  0
  1 17  1  0  0  0  0
  1 13  1  0  0  0  0
  2 16  2  0  0  0  0
  4 11  1  0  0  0  0
  4 16  1  0  0  0  0
  5 13  1  0  0  0  0
  6  2  1  0  0  0  0
  7  5  1  0  0  0  0
  8 28  1  0  0  0  0
  9  8  1  0  0  0  0
 10  7  1  0  0  0  0
 10  1  1  0  0  0  0
 12 23  1  0  0  0  0
 13  4  2  0  0  0  0
 14 22  1  0  0  0  0
 15  8  1  0  0  0  0
 15 24  2  0  0  0  0
 16  3  1  0  0  0  0
 17 25  1  0  0  0  0
 19 26  1  1  0  0  0
 19  6  1  0  0  0  0
 19 15  1  0  0  0  0
 20  6  2  0  0  0  0
 20 11  1  0  0  0  0
 21 17  2  0  0  0  0
 22 18  2  0  0  0  0
 22 39  1  0  0  0  0
 23  9  2  0  0  0  0
 23 20  1  0  0  0  0
 25  3  2  0  0  0  0
 25 14  1  0  0  0  0
 27 26  2  0  0  0  0
 29 28  1  0  0  0  0
 30 29  1  0  0  0  0
 31 30  1  0  0  0  0
 31 32  1  0  0  0  0
 32 33  1  0  0  0  0
 34 33  1  0  0  0  0
 34 35  1  0  0  0  0
 35 38  1  0  0  0  0
 35 37  1  0  0  0  0
 36 35  2  0  0  0  0
 39 43  1  0  0  0  0
 40 44  2  0  0  0  0
 40 43  1  0  0  0  0
 41 42  1  0  0  0  0
 43 41  2  0  0  0  0
 44 45  1  0  0  0  0
 45 46  1  0  0  0  0
 45 42  2  0  0  0  0
 46 47  1  0  0  0  0
 47 59  1  1  0  0  0
 48 51  1  6  0  0  0
 48 49  1  0  0  0  0
 48 50  1  0  0  0  0
 49 50  1  0  0  0  0
 49 47  1  1  0  0  0
 52 53  1  0  0  0  0
 53 48  1  0  0  0  0
 54 56  1  0  0  0  0
 54 53  1  0  0  0  0
 56 55  1  0  0  0  0
 57 56  1  0  0  0  0
 57 55  1  0  0  0  0
 58 61  1  0  0  0  0
 59 58  2  0  0  0  0
 61 60  1  6  0  0  0
 61 62  1  0  0  0  0
 62 63  1  0  0  0  0
 63 64  1  0  0  0  0
 65 64  1  0  0  0  0
 66 65  1  0  0  0  0
 67 66  1  0  0  0  0
 68 67  1  0  0  0  0
 69 68  1  0  0  0  0
 69 67  1  0  0  0  0
M  END
>  <MODEL>
2

>  <REMARK>
 VINA RESULT:      -4.5      1.503      3.349
  Name = 
  25 active torsions:
  status: ('A' for Active; 'I' for Inactive)
    1  A    between atoms: C_2  and  C_10
    2  A    between atoms: C_2  and  C_28
    3  A    between atoms: C_5  and  C_65
    4  A    between atoms: C_6  and  N_59
    5  A    between atoms: C_7  and  C_18
    6  A    between atoms: P_9  and  O_20
    7  A    between atoms: C_10  and  C_12
    8  A    between atoms: C_18  and  N_37
    9  A    between atoms: C_18  and  C_43
   10  A    between atoms: O_20  and  C_45
   11  A    between atoms: C_21  and  C_50
   12  A    between atoms: N_22  and  C_56
   13  A    between atoms: O_23  and  O_24
   14  A    between atoms: O_23  and  C_28
   15  A    between atoms: O_24  and  C_65
   16  A    between atoms: C_25  and  C_69
   17  A    between atoms: C_31  and  C_47
   18  A    between atoms: C_31  and  C_57
   19  A    between atoms: C_34  and  C_55
   20  A    between atoms: C_34  and  C_60
   21  A    between atoms: N_37  and  C_64
   22  A    between atoms: C_45  and  C_57
   23  A    between atoms: C_47  and  C_48
   24  A    between atoms: C_48  and  C_56
   25  A    between atoms: N_59  and  C_69
                            x       y       z     vdW  Elec       q    Type
                         _______ _______ _______ _____ _____    ______ ____

>  <TORSDO>
F 25

$$$$
