=
 OpenBabel10232409163D

 49 53  0  0  1  0  0  0  0  0999 V2000
  188.5470  178.1170  139.6420 C   0  0  0  0  0  0  0  0  0  0  0  0
  187.7540  178.7620  140.3800 O   0  0  0  0  0  0  0  0  0  0  0  0
  188.4030  178.1650  138.1530 C   0  0  2  0  0  3  0  0  0  0  0  0
  188.6560  179.4590  137.6900 O   0  0  0  0  0  1  0  0  0  0  0  0
  186.2930  178.7930  137.2290 F   0  0  0  0  0  0  0  0  0  0  0  0
  187.0060  177.7160  137.7300 C   0  0  1  0  0  3  0  0  0  0  0  0
  185.3000  175.4150  135.6890 N   0  0  0  0  0  0  0  0  0  0  0  0
  186.0140  175.5730  136.9380 C   0  0  0  0  0  2  0  0  0  0  0  0
  186.8770  177.1240  135.3990 O   0  0  0  0  0  0  0  0  0  0  0  0
  186.0970  176.1660  134.7320 C   0  0  0  0  0  2  0  0  0  0  0  0
  187.0800  176.6040  136.6840 C   0  0  1  0  0  3  0  0  0  0  0  0
  184.0300  176.1160  135.8250 C   0  0  0  0  0  2  0  0  0  0  0  0
  183.3740  175.7730  137.1570 C   0  0  2  0  0  3  0  0  0  0  0  0
  182.4990  174.5570  137.0470 C   0  0  0  0  0  3  0  0  0  0  0  0
  181.3480  174.5810  137.4500 O   0  0  0  0  0  0  0  0  0  0  0  0
  182.6420  176.9900  137.7420 C   0  0  1  0  0  3  0  0  0  0  0  0
  183.2230  177.3310  140.1940 C   0  0  0  0  0  2  0  0  0  0  0  0
  180.6220  177.5890  140.8920 O   0  0  0  0  0  0  0  0  0  0  0  0
  182.2740  178.9260  142.1610 O   0  0  0  0  0  0  0  0  0  0  0  0
  183.4620  177.8120  138.7630 C   0  0  2  0  0  3  0  0  0  0  0  0
  181.8780  179.5740  139.5660 C   0  0  0  0  0  2  0  0  0  0  0  0
  184.1730  180.0700  139.1520 O   0  0  0  0  0  1  0  0  0  0  0  0
  181.9210  178.3410  140.8230 S   0  0  0  0  0  0  0  0  0  0  0  0
  183.0980  179.3070  138.6940 C   0  0  1  0  0  3  0  0  0  0  0  0
  182.1640  177.8350  136.6370 C   0  0  0  0  0  0  0  0  0  0  0  0
  181.7850  178.5000  135.7710 N   0  0  0  0  0  0  0  0  0  0  0  0
  189.5290  177.2960  140.1990 O   0  0  0  0  0  0  0  0  0  0  0  0
  190.9010  177.4150  139.8470 C   0  0  2  0  0  3  0  0  0  0  0  0
  191.2430  176.4150  138.7890 C   0  0  0  0  0  0  0  0  0  0  0  0
  190.7770  175.2850  138.8360 O   0  0  0  0  0  0  0  0  0  0  0  0
  192.1600  176.8090  137.6730 C   0  0  2  0  0  3  0  0  0  0  0  0
  191.4930  176.6890  136.4660 F   0  0  0  0  0  0  0  0  0  0  0  0
  194.1990  176.2450  136.5590 O   0  0  0  0  0  1  0  0  0  0  0  0
  194.1530  176.1710  138.8310 O   0  0  0  0  0  1  0  0  0  0  0  0
  193.4130  175.9420  137.6700 C   0  0  0  0  0  3  0  0  0  0  0  0
  191.7660  177.1940  141.0760 C   0  0  0  0  0  2  0  0  0  0  0  0
  191.0080  177.6110  142.3210 C   0  0  0  0  0  2  0  0  0  0  0  0
  190.5130  176.3810  143.0610 C   0  0  0  0  0  2  0  0  0  0  0  0
  191.7540  176.5320  146.5940 C   0  0  0  0  0  2  0  0  0  0  0  0
  189.2270  177.3420  147.3170 O   0  0  0  0  0  0  0  0  0  0  0  0
  190.8360  176.6640  145.5560 C   0  0  0  0  0  0  0  0  0  0  0  0
  190.4520  176.9380  146.8730 C   0  0  0  0  0  0  0  0  0  0  0  0
  186.0700  177.9780  145.4380 C   0  0  0  0  0  3  0  0  0  0  0  0
  188.3130  177.4510  146.2020 C   0  0  0  0  0  0  0  0  0  0  0  0
  187.7160  177.2890  143.7950 C   0  0  0  0  0  3  0  0  0  0  0  0
  188.6950  177.1550  144.7870 C   0  0  0  0  0  0  0  0  0  0  0  0
  186.4210  177.6950  144.1180 C   0  0  0  0  0  3  0  0  0  0  0  0
  190.0610  176.7400  144.3990 N   0  0  0  0  0  0  0  0  0  0  0  0
  187.0040  177.8580  146.4680 C   0  0  0  0  0  3  0  0  0  0  0  0
  1 27  1  0  0  0  0
  1  2  2  0  0  0  0
  3  4  1  1  0  0  0
  3  1  1  0  0  0  0
  6  5  1  6  0  0  0
  6  3  1  0  0  0  0
  7 12  1  0  0  0  0
  7  8  1  0  0  0  0
  9 11  1  0  0  0  0
 10  9  1  0  0  0  0
 10  7  1  0  0  0  0
 11  8  1  0  0  0  0
 11  6  1  1  0  0  0
 13 12  1  6  0  0  0
 13 16  1  0  0  0  0
 14 13  1  0  0  0  0
 14 15  2  0  0  0  0
 16 25  1  6  0  0  0
 17 23  1  0  0  0  0
 20 16  1  6  0  0  0
 20 17  1  0  0  0  0
 21 23  1  0  0  0  0
 23 18  2  0  0  0  0
 23 19  2  0  0  0  0
 24 20  1  0  0  0  0
 24 22  1  1  0  0  0
 24 21  1  0  0  0  0
 26 25  3  0  0  0  0
 28 27  1  0  0  0  0
 28 36  1  1  0  0  0
 29 30  2  0  0  0  0
 29 28  1  0  0  0  0
 31 32  1  6  0  0  0
 31 29  1  0  0  0  0
 33 35  1  0  0  0  0
 35 31  1  0  0  0  0
 35 34  1  0  0  0  0
 36 37  1  0  0  0  0
 37 38  1  0  0  0  0
 38 48  1  0  0  0  0
 39 42  1  0  0  0  0
 41 39  1  0  0  0  0
 41 42  2  0  0  0  0
 42 40  1  0  0  0  0
 43 49  1  0  0  0  0
 44 49  2  0  0  0  0
 44 40  1  0  0  0  0
 45 47  1  0  0  0  0
 45 46  2  0  0  0  0
 46 44  1  0  0  0  0
 47 43  2  0  0  0  0
 48 46  1  0  0  0  0
 48 41  1  0  0  0  0
M  END
>  <MODEL>
1

>  <REMARK>
 VINA RESULT:      -7.8      0.000      0.000
  Name = 
  18 active torsions:
  status: ('A' for Active; 'I' for Inactive)
    1  A    between atoms: C_1  and  C_17
    2  A    between atoms: C_1  and  C_37
    3  A    between atoms: C_6  and  C_41
    4  A    between atoms: N_7  and  C_42
    5  A    between atoms: C_9  and  C_41
    6  A    between atoms: C_10  and  C_13
    7  A    between atoms: C_10  and  O_39
    8  A    between atoms: C_13  and  C_22
    9  A    between atoms: C_17  and  C_38
   10  A    between atoms: C_22  and  C_47
   11  A    between atoms: C_26  and  C_43
   12  A    between atoms: C_26  and  C_44
   13  A    between atoms: N_31  and  C_44
   14  A    between atoms: C_33  and  C_34
   15  A    between atoms: C_33  and  C_41
   16  A    between atoms: C_33  and  C_42
   17  A    between atoms: C_38  and  O_39
   18  A    between atoms: C_38  and  C_43
                            x       y       z     vdW  Elec       q    Type
                         _______ _______ _______ _____ _____    ______ ____

>  <TORSDO>
F 18

$$$$
=
 OpenBabel10232409163D

 49 53  0  0  1  0  0  0  0  0999 V2000
  190.1730  177.6730  142.9620 C   0  0  0  0  0  0  0  0  0  0  0  0
  190.7290  178.7540  143.2990 O   0  0  0  0  0  0  0  0  0  0  0  0
  190.3470  177.1320  141.5780 C   0  0  2  0  0  3  0  0  0  0  0  0
  191.5940  177.5100  141.0700 O   0  0  0  0  0  1  0  0  0  0  0  0
  188.5950  178.7170  141.2280 F   0  0  0  0  0  0  0  0  0  0  0  0
  189.2330  177.6260  140.6580 C   0  0  1  0  0  3  0  0  0  0  0  0
  189.0060  177.3030  137.1630 N   0  0  0  0  0  0  0  0  0  0  0  0
  189.6920  176.8250  138.3450 C   0  0  0  0  0  2  0  0  0  0  0  0
  189.0390  179.0500  138.7250 O   0  0  0  0  0  0  0  0  0  0  0  0
  188.9300  178.7430  137.3600 C   0  0  0  0  0  2  0  0  0  0  0  0
  189.7810  178.0000  139.2810 C   0  0  1  0  0  3  0  0  0  0  0  0
  187.6420  176.7960  137.2200 C   0  0  0  0  0  2  0  0  0  0  0  0
  187.5030  175.5480  136.3550 C   0  0  2  0  0  3  0  0  0  0  0  0
  188.3430  175.6370  135.1140 C   0  0  0  0  0  3  0  0  0  0  0  0
  189.2940  174.8890  134.9520 O   0  0  0  0  0  0  0  0  0  0  0  0
  186.0270  175.2410  136.0610 C   0  0  1  0  0  3  0  0  0  0  0  0
  185.3470  173.2110  137.4330 C   0  0  0  0  0  2  0  0  0  0  0  0
  184.4080  171.9110  135.2550 O   0  0  0  0  0  0  0  0  0  0  0  0
  183.2350  171.5240  137.4000 O   0  0  0  0  0  0  0  0  0  0  0  0
  185.2170  174.7260  137.2730 C   0  0  2  0  0  3  0  0  0  0  0  0
  183.0340  173.9860  136.3000 C   0  0  0  0  0  2  0  0  0  0  0  0
  183.1320  175.1260  138.3900 O   0  0  0  0  0  1  0  0  0  0  0  0
  183.9790  172.5210  136.5600 S   0  0  0  0  0  0  0  0  0  0  0  0
  183.7210  175.0640  137.1280 C   0  0  1  0  0  3  0  0  0  0  0  0
  185.4010  176.4330  135.4690 C   0  0  0  0  0  0  0  0  0  0  0  0
  184.9060  177.3680  135.0030 N   0  0  0  0  0  0  0  0  0  0  0  0
  189.3330  176.9990  143.8490 O   0  0  0  0  0  0  0  0  0  0  0  0
  188.4660  177.6890  144.7390 C   0  0  2  0  0  3  0  0  0  0  0  0
  189.0680  177.7280  146.1070 C   0  0  0  0  0  0  0  0  0  0  0  0
  189.0610  178.7650  146.7540 O   0  0  0  0  0  0  0  0  0  0  0  0
  189.6780  176.4850  146.6790 C   0  0  2  0  0  3  0  0  0  0  0  0
  188.9180  176.0510  147.7510 F   0  0  0  0  0  0  0  0  0  0  0  0
  191.6890  175.5550  147.5770 O   0  0  0  0  0  1  0  0  0  0  0  0
  191.8620  177.2260  146.0450 O   0  0  0  0  0  1  0  0  0  0  0  0
  191.1140  176.7400  147.1190 C   0  0  0  0  0  3  0  0  0  0  0  0
  187.1160  176.9940  144.7810 C   0  0  0  0  0  2  0  0  0  0  0  0
  186.0150  177.9880  144.4710 C   0  0  0  0  0  2  0  0  0  0  0  0
  186.0350  178.3400  142.9940 C   0  0  0  0  0  2  0  0  0  0  0  0
  182.5430  178.8270  144.2660 C   0  0  0  0  0  2  0  0  0  0  0  0
  181.7350  178.9420  141.6390 O   0  0  0  0  0  0  0  0  0  0  0  0
  183.5510  178.7080  143.3120 C   0  0  0  0  0  0  0  0  0  0  0  0
  182.2210  178.8750  142.9130 C   0  0  0  0  0  0  0  0  0  0  0  0
  183.5090  178.7160  138.3670 C   0  0  0  0  0  3  0  0  0  0  0  0
  182.8200  178.8030  140.6930 C   0  0  0  0  0  0  0  0  0  0  0  0
  185.2070  178.4800  140.0830 C   0  0  0  0  0  3  0  0  0  0  0  0
  184.2480  178.6120  141.0930 C   0  0  0  0  0  0  0  0  0  0  0  0
  184.8410  178.5300  138.7370 C   0  0  0  0  0  3  0  0  0  0  0  0
  184.6820  178.5720  142.5070 N   0  0  0  0  0  0  0  0  0  0  0  0
  182.5100  178.8500  139.3330 C   0  0  0  0  0  3  0  0  0  0  0  0
  1  2  2  0  0  0  0
  1 27  1  0  0  0  0
  3  4  1  6  0  0  0
  3  1  1  0  0  0  0
  6  5  1  1  0  0  0
  6  3  1  0  0  0  0
  7 12  1  0  0  0  0
  7 10  1  0  0  0  0
  7  8  1  0  0  0  0
  8 11  1  0  0  0  0
  9 11  1  0  0  0  0
 10  9  1  0  0  0  0
 11  6  1  1  0  0  0
 13 14  1  6  0  0  0
 13 12  1  0  0  0  0
 15 14  2  0  0  0  0
 16 25  1  1  0  0  0
 16 13  1  0  0  0  0
 18 23  2  0  0  0  0
 20 16  1  6  0  0  0
 20 17  1  0  0  0  0
 21 23  1  0  0  0  0
 21 24  1  0  0  0  0
 23 19  2  0  0  0  0
 23 17  1  0  0  0  0
 24 20  1  0  0  0  0
 24 22  1  1  0  0  0
 26 25  3  0  0  0  0
 27 28  1  0  0  0  0
 28 36  1  1  0  0  0
 28 29  1  0  0  0  0
 29 31  1  0  0  0  0
 29 30  2  0  0  0  0
 31 35  1  0  0  0  0
 31 32  1  1  0  0  0
 34 35  1  0  0  0  0
 35 33  1  0  0  0  0
 37 36  1  0  0  0  0
 38 37  1  0  0  0  0
 40 42  1  0  0  0  0
 41 39  1  0  0  0  0
 42 41  2  0  0  0  0
 42 39  1  0  0  0  0
 43 47  2  0  0  0  0
 43 49  1  0  0  0  0
 44 46  1  0  0  0  0
 44 40  1  0  0  0  0
 45 46  2  0  0  0  0
 46 48  1  0  0  0  0
 47 45  1  0  0  0  0
 48 38  1  0  0  0  0
 48 41  1  0  0  0  0
 49 44  2  0  0  0  0
M  END
>  <MODEL>
2

>  <REMARK>
 VINA RESULT:      -7.8      3.029      6.636
  Name = 
  18 active torsions:
  status: ('A' for Active; 'I' for Inactive)
    1  A    between atoms: C_1  and  C_17
    2  A    between atoms: C_1  and  C_37
    3  A    between atoms: C_6  and  C_41
    4  A    between atoms: N_7  and  C_42
    5  A    between atoms: C_9  and  C_41
    6  A    between atoms: C_10  and  C_13
    7  A    between atoms: C_10  and  O_39
    8  A    between atoms: C_13  and  C_22
    9  A    between atoms: C_17  and  C_38
   10  A    between atoms: C_22  and  C_47
   11  A    between atoms: C_26  and  C_43
   12  A    between atoms: C_26  and  C_44
   13  A    between atoms: N_31  and  C_44
   14  A    between atoms: C_33  and  C_34
   15  A    between atoms: C_33  and  C_41
   16  A    between atoms: C_33  and  C_42
   17  A    between atoms: C_38  and  O_39
   18  A    between atoms: C_38  and  C_43
                            x       y       z     vdW  Elec       q    Type
                         _______ _______ _______ _____ _____    ______ ____

>  <TORSDO>
F 18

$$$$
=
 OpenBabel10232409163D

 49 53  0  0  1  0  0  0  0  0999 V2000
  185.0530  178.7970  141.2340 C   0  0  0  0  0  0  0  0  0  0  0  0
  186.0000  179.6290  141.2370 O   0  0  0  0  0  0  0  0  0  0  0  0
  184.3100  178.4900  142.4960 C   0  0  2  0  0  3  0  0  0  0  0  0
  182.9810  178.9060  142.3820 O   0  0  0  0  0  1  0  0  0  0  0  0
  184.5070  180.4660  143.8230 F   0  0  0  0  0  0  0  0  0  0  0  0
  184.9730  179.1680  143.6930 C   0  0  1  0  0  3  0  0  0  0  0  0
  186.2910  177.5470  146.5240 N   0  0  0  0  0  0  0  0  0  0  0  0
  185.7790  177.3430  145.1850 C   0  0  0  0  0  2  0  0  0  0  0  0
  184.7330  179.2430  146.0890 O   0  0  0  0  0  0  0  0  0  0  0  0
  185.3780  178.5200  147.1040 C   0  0  0  0  0  2  0  0  0  0  0  0
  184.7130  178.3860  144.9810 C   0  0  1  0  0  3  0  0  0  0  0  0
  187.5840  178.2050  146.3960 C   0  0  0  0  0  2  0  0  0  0  0  0
  188.6870  177.3270  146.9750 C   0  0  2  0  0  3  0  0  0  0  0  0
  189.2440  177.9030  148.2450 C   0  0  0  0  0  3  0  0  0  0  0  0
  188.5030  178.2410  149.1530 O   0  0  0  0  0  0  0  0  0  0  0  0
  189.7680  177.0310  145.9240 C   0  0  1  0  0  3  0  0  0  0  0  0
  189.1480  177.6680  143.5420 C   0  0  0  0  0  2  0  0  0  0  0  0
  190.1430  175.3580  142.5450 O   0  0  0  0  0  0  0  0  0  0  0  0
  190.3430  177.3820  141.1340 O   0  0  0  0  0  0  0  0  0  0  0  0
  189.8940  178.0920  144.8070 C   0  0  2  0  0  3  0  0  0  0  0  0
  191.8090  177.2990  143.4050 C   0  0  0  0  0  2  0  0  0  0  0  0
  191.5110  179.6130  143.8960 O   0  0  0  0  0  1  0  0  0  0  0  0
  190.3430  176.8480  142.5370 S   0  0  0  0  0  0  0  0  0  0  0  0
  191.3700  178.3330  144.4330 C   0  0  1  0  0  3  0  0  0  0  0  0
  191.0520  176.8200  146.6090 C   0  0  0  0  0  0  0  0  0  0  0  0
  192.0640  176.6550  147.1430 N   0  0  0  0  0  0  0  0  0  0  0  0
  184.7250  178.0980  140.0710 O   0  0  0  0  0  0  0  0  0  0  0  0
  184.6140  178.7420  138.8090 C   0  0  2  0  0  3  0  0  0  0  0  0
  183.1740  178.9910  138.4900 C   0  0  0  0  0  0  0  0  0  0  0  0
  182.6800  180.0910  138.6910 O   0  0  0  0  0  0  0  0  0  0  0  0
  182.3450  177.8820  137.9200 C   0  0  2  0  0  3  0  0  0  0  0  0
  181.4860  178.3960  136.9620 F   0  0  0  0  0  0  0  0  0  0  0  0
  180.2380  176.9790  138.5970 O   0  0  0  0  0  1  0  0  0  0  0  0
  182.1340  175.9470  139.3080 O   0  0  0  0  0  1  0  0  0  0  0  0
  181.5530  177.1810  139.0160 C   0  0  0  0  0  3  0  0  0  0  0  0
  185.2460  177.8750  137.7350 C   0  0  0  0  0  2  0  0  0  0  0  0
  186.7390  178.1330  137.6770 C   0  0  0  0  0  2  0  0  0  0  0  0
  187.3270  177.4940  136.4310 C   0  0  0  0  0  2  0  0  0  0  0  0
  190.7470  176.5960  137.6710 C   0  0  0  0  0  2  0  0  0  0  0  0
  189.9970  173.9580  137.4590 O   0  0  0  0  0  0  0  0  0  0  0  0
  189.4460  176.3660  137.2330 C   0  0  0  0  0  0  0  0  0  0  0  0
  190.2860  175.2900  137.5360 C   0  0  0  0  0  0  0  0  0  0  0  0
  186.8690  172.2290  136.3960 C   0  0  0  0  0  3  0  0  0  0  0  0
  188.6410  173.7790  136.9890 C   0  0  0  0  0  0  0  0  0  0  0  0
  186.4370  174.6070  136.1950 C   0  0  0  0  0  3  0  0  0  0  0  0
  187.7260  174.9100  136.6490 C   0  0  0  0  0  0  0  0  0  0  0  0
  186.0150  173.2830  136.0700 C   0  0  0  0  0  3  0  0  0  0  0  0
  188.1260  176.3290  136.7840 N   0  0  0  0  0  0  0  0  0  0  0  0
  188.1660  172.4730  136.8500 C   0  0  0  0  0  3  0  0  0  0  0  0
  1  2  2  0  0  0  0
  1  3  1  0  0  0  0
  3  4  1  6  0  0  0
  3  6  1  0  0  0  0
  6  5  1  1  0  0  0
  7 10  1  0  0  0  0
  8  7  1  0  0  0  0
  9 10  1  0  0  0  0
 11  6  1  6  0  0  0
 11  8  1  0  0  0  0
 11  9  1  0  0  0  0
 12  7  1  0  0  0  0
 13 12  1  6  0  0  0
 13 14  1  0  0  0  0
 14 15  2  0  0  0  0
 16 25  1  1  0  0  0
 16 13  1  0  0  0  0
 17 20  1  0  0  0  0
 19 23  2  0  0  0  0
 20 16  1  1  0  0  0
 21 24  1  0  0  0  0
 23 18  2  0  0  0  0
 23 21  1  0  0  0  0
 23 17  1  0  0  0  0
 24 22  1  6  0  0  0
 24 20  1  0  0  0  0
 25 26  3  0  0  0  0
 27  1  1  0  0  0  0
 28 36  1  6  0  0  0
 28 27  1  0  0  0  0
 29 30  2  0  0  0  0
 29 28  1  0  0  0  0
 31 32  1  6  0  0  0
 31 29  1  0  0  0  0
 31 35  1  0  0  0  0
 33 35  1  0  0  0  0
 35 34  1  0  0  0  0
 37 36  1  0  0  0  0
 38 48  1  0  0  0  0
 38 37  1  0  0  0  0
 40 42  1  0  0  0  0
 41 42  2  0  0  0  0
 41 39  1  0  0  0  0
 42 39  1  0  0  0  0
 43 49  1  0  0  0  0
 44 40  1  0  0  0  0
 45 46  2  0  0  0  0
 46 48  1  0  0  0  0
 46 44  1  0  0  0  0
 47 45  1  0  0  0  0
 47 43  2  0  0  0  0
 48 41  1  0  0  0  0
 49 44  2  0  0  0  0
M  END
>  <MODEL>
3

>  <REMARK>
 VINA RESULT:      -7.8      3.129      9.724
  Name = 
  18 active torsions:
  status: ('A' for Active; 'I' for Inactive)
    1  A    between atoms: C_1  and  C_17
    2  A    between atoms: C_1  and  C_37
    3  A    between atoms: C_6  and  C_41
    4  A    between atoms: N_7  and  C_42
    5  A    between atoms: C_9  and  C_41
    6  A    between atoms: C_10  and  C_13
    7  A    between atoms: C_10  and  O_39
    8  A    between atoms: C_13  and  C_22
    9  A    between atoms: C_17  and  C_38
   10  A    between atoms: C_22  and  C_47
   11  A    between atoms: C_26  and  C_43
   12  A    between atoms: C_26  and  C_44
   13  A    between atoms: N_31  and  C_44
   14  A    between atoms: C_33  and  C_34
   15  A    between atoms: C_33  and  C_41
   16  A    between atoms: C_33  and  C_42
   17  A    between atoms: C_38  and  O_39
   18  A    between atoms: C_38  and  C_43
                            x       y       z     vdW  Elec       q    Type
                         _______ _______ _______ _____ _____    ______ ____

>  <TORSDO>
F 18

$$$$
=
 OpenBabel10232409163D

 49 53  0  0  1  0  0  0  0  0999 V2000
  185.6630  178.9000  140.9940 C   0  0  0  0  0  0  0  0  0  0  0  0
  186.8540  178.6410  140.6680 O   0  0  0  0  0  0  0  0  0  0  0  0
  185.0500  178.2510  142.1950 C   0  0  2  0  0  3  0  0  0  0  0  0
  183.6740  178.0970  142.0030 O   0  0  0  0  0  1  0  0  0  0  0  0
  184.6420  180.2820  143.3830 F   0  0  0  0  0  0  0  0  0  0  0  0
  185.3180  179.0750  143.4520 C   0  0  1  0  0  3  0  0  0  0  0  0
  186.2610  177.5760  146.4910 N   0  0  0  0  0  0  0  0  0  0  0  0
  185.9630  177.3200  145.0980 C   0  0  0  0  0  2  0  0  0  0  0  0
  184.7200  179.1930  145.7830 O   0  0  0  0  0  0  0  0  0  0  0  0
  185.2340  178.5200  146.9020 C   0  0  0  0  0  2  0  0  0  0  0  0
  184.8990  178.3110  144.7080 C   0  0  1  0  0  3  0  0  0  0  0  0
  187.5320  178.2860  146.5380 C   0  0  0  0  0  2  0  0  0  0  0  0
  188.6410  177.3590  147.0210 C   0  0  2  0  0  3  0  0  0  0  0  0
  189.2960  177.8800  148.2670 C   0  0  0  0  0  3  0  0  0  0  0  0
  188.6250  178.2200  149.2270 O   0  0  0  0  0  0  0  0  0  0  0  0
  189.6430  177.0610  145.8940 C   0  0  1  0  0  3  0  0  0  0  0  0
  189.0360  177.6670  143.5010 C   0  0  0  0  0  2  0  0  0  0  0  0
  190.2360  175.4520  142.5150 O   0  0  0  0  0  0  0  0  0  0  0  0
  190.3110  177.4970  141.1230 O   0  0  0  0  0  0  0  0  0  0  0  0
  189.7140  178.1390  144.7880 C   0  0  2  0  0  3  0  0  0  0  0  0
  191.7200  177.5110  143.4310 C   0  0  0  0  0  2  0  0  0  0  0  0
  191.2280  179.7890  143.9290 O   0  0  0  0  0  1  0  0  0  0  0  0
  190.3170  176.9530  142.5220 S   0  0  0  0  0  0  0  0  0  0  0  0
  191.1740  178.4980  144.4540 C   0  0  1  0  0  3  0  0  0  0  0  0
  190.9660  176.8170  146.4860 C   0  0  0  0  0  0  0  0  0  0  0  0
  192.0090  176.6260  146.9490 N   0  0  0  0  0  0  0  0  0  0  0  0
  184.8760  179.7400  140.2050 O   0  0  0  0  0  0  0  0  0  0  0  0
  184.4610  179.3750  138.8960 C   0  0  2  0  0  3  0  0  0  0  0  0
  183.1270  179.9810  138.5980 C   0  0  0  0  0  0  0  0  0  0  0  0
  182.9550  181.1850  138.7210 O   0  0  0  0  0  0  0  0  0  0  0  0
  182.0030  179.1000  138.1460 C   0  0  2  0  0  3  0  0  0  0  0  0
  181.3730  179.6800  137.0580 F   0  0  0  0  0  0  0  0  0  0  0  0
  181.0360  177.5410  139.6780 O   0  0  0  0  0  1  0  0  0  0  0  0
  181.3240  179.6900  140.3620 O   0  0  0  0  0  1  0  0  0  0  0  0
  181.0050  178.8750  139.2740 C   0  0  0  0  0  3  0  0  0  0  0  0
  184.3850  177.8620  138.7870 C   0  0  0  0  0  2  0  0  0  0  0  0
  184.9380  177.4130  137.4480 C   0  0  0  0  0  2  0  0  0  0  0  0
  186.4470  177.5780  137.4310 C   0  0  0  0  0  2  0  0  0  0  0  0
  185.6100  173.9790  136.8030 C   0  0  0  0  0  2  0  0  0  0  0  0
  188.3100  173.4630  136.8910 O   0  0  0  0  0  0  0  0  0  0  0  0
  186.4340  175.0810  137.0100 C   0  0  0  0  0  0  0  0  0  0  0  0
  186.9890  173.8060  136.8610 C   0  0  0  0  0  0  0  0  0  0  0  0
  191.3390  175.5760  137.4020 C   0  0  0  0  0  3  0  0  0  0  0  0
  189.1170  174.6410  137.1190 C   0  0  0  0  0  0  0  0  0  0  0  0
  189.4340  177.0730  137.5180 C   0  0  0  0  0  3  0  0  0  0  0  0
  188.5490  176.0130  137.2930 C   0  0  0  0  0  0  0  0  0  0  0  0
  190.8110  176.8560  137.5720 C   0  0  0  0  0  3  0  0  0  0  0  0
  187.0970  176.2900  137.2240 N   0  0  0  0  0  0  0  0  0  0  0  0
  190.5030  174.4810  137.1790 C   0  0  0  0  0  3  0  0  0  0  0  0
  1  3  1  0  0  0  0
  2  1  2  0  0  0  0
  3  4  1  6  0  0  0
  3  6  1  0  0  0  0
  6  5  1  6  0  0  0
  7 12  1  0  0  0  0
  7 10  1  0  0  0  0
  8  7  1  0  0  0  0
  9 10  1  0  0  0  0
 11  6  1  6  0  0  0
 11  8  1  0  0  0  0
 11  9  1  0  0  0  0
 13 12  1  6  0  0  0
 13 14  1  0  0  0  0
 14 15  2  0  0  0  0
 16 25  1  1  0  0  0
 16 13  1  0  0  0  0
 17 20  1  0  0  0  0
 18 23  2  0  0  0  0
 19 23  2  0  0  0  0
 20 16  1  1  0  0  0
 21 24  1  0  0  0  0
 23 21  1  0  0  0  0
 23 17  1  0  0  0  0
 24 22  1  6  0  0  0
 24 20  1  0  0  0  0
 25 26  3  0  0  0  0
 27  1  1  0  0  0  0
 28 36  1  1  0  0  0
 28 27  1  0  0  0  0
 29 30  2  0  0  0  0
 29 28  1  0  0  0  0
 31 32  1  6  0  0  0
 31 29  1  0  0  0  0
 31 35  1  0  0  0  0
 35 33  1  0  0  0  0
 35 34  1  0  0  0  0
 37 36  1  0  0  0  0
 38 37  1  0  0  0  0
 39 42  1  0  0  0  0
 39 41  1  0  0  0  0
 40 44  1  0  0  0  0
 41 48  1  0  0  0  0
 42 40  1  0  0  0  0
 42 41  2  0  0  0  0
 43 47  1  0  0  0  0
 44 49  1  0  0  0  0
 44 46  2  0  0  0  0
 45 47  2  0  0  0  0
 46 45  1  0  0  0  0
 48 46  1  0  0  0  0
 48 38  1  0  0  0  0
 49 43  2  0  0  0  0
M  END
>  <MODEL>
4

>  <REMARK>
 VINA RESULT:      -7.6      3.110      9.788
  Name = 
  18 active torsions:
  status: ('A' for Active; 'I' for Inactive)
    1  A    between atoms: C_1  and  C_17
    2  A    between atoms: C_1  and  C_37
    3  A    between atoms: C_6  and  C_41
    4  A    between atoms: N_7  and  C_42
    5  A    between atoms: C_9  and  C_41
    6  A    between atoms: C_10  and  C_13
    7  A    between atoms: C_10  and  O_39
    8  A    between atoms: C_13  and  C_22
    9  A    between atoms: C_17  and  C_38
   10  A    between atoms: C_22  and  C_47
   11  A    between atoms: C_26  and  C_43
   12  A    between atoms: C_26  and  C_44
   13  A    between atoms: N_31  and  C_44
   14  A    between atoms: C_33  and  C_34
   15  A    between atoms: C_33  and  C_41
   16  A    between atoms: C_33  and  C_42
   17  A    between atoms: C_38  and  O_39
   18  A    between atoms: C_38  and  C_43
                            x       y       z     vdW  Elec       q    Type
                         _______ _______ _______ _____ _____    ______ ____

>  <TORSDO>
F 18

$$$$
=
 OpenBabel10232409163D

 49 53  0  0  1  0  0  0  0  0999 V2000
  186.1090  178.6460  140.8180 C   0  0  0  0  0  0  0  0  0  0  0  0
  187.3180  178.5070  141.1470 O   0  0  0  0  0  0  0  0  0  0  0  0
  185.0240  178.4840  141.8350 C   0  0  2  0  0  3  0  0  0  0  0  0
  183.8360  179.0470  141.3610 O   0  0  0  0  0  1  0  0  0  0  0  0
  184.8670  180.3970  143.2560 F   0  0  0  0  0  0  0  0  0  0  0  0
  185.4220  179.1310  143.1600 C   0  0  1  0  0  3  0  0  0  0  0  0
  186.2990  177.4490  146.1220 N   0  0  0  0  0  0  0  0  0  0  0  0
  186.0570  177.2830  144.7050 C   0  0  0  0  0  2  0  0  0  0  0  0
  184.7420  179.0740  145.4700 O   0  0  0  0  0  0  0  0  0  0  0  0
  185.2340  178.3380  146.5590 C   0  0  0  0  0  2  0  0  0  0  0  0
  184.9810  178.2730  144.3450 C   0  0  1  0  0  3  0  0  0  0  0  0
  187.5490  178.1850  146.2630 C   0  0  0  0  0  2  0  0  0  0  0  0
  188.5880  177.3350  146.9850 C   0  0  2  0  0  3  0  0  0  0  0  0
  189.0190  177.9650  148.2780 C   0  0  0  0  0  3  0  0  0  0  0  0
  188.2000  178.2440  149.1370 O   0  0  0  0  0  0  0  0  0  0  0  0
  189.7660  176.9960  146.0590 C   0  0  1  0  0  3  0  0  0  0  0  0
  189.2340  177.5400  143.6330 C   0  0  0  0  0  2  0  0  0  0  0  0
  190.1110  175.1260  142.7810 O   0  0  0  0  0  0  0  0  0  0  0  0
  190.4600  177.0570  141.2710 O   0  0  0  0  0  0  0  0  0  0  0  0
  189.9790  177.9870  144.8910 C   0  0  2  0  0  3  0  0  0  0  0  0
  191.8710  177.0100  143.5780 C   0  0  0  0  0  2  0  0  0  0  0  0
  191.7010  179.3590  143.9410 O   0  0  0  0  0  1  0  0  0  0  0  0
  190.3990  176.5990  142.7000 S   0  0  0  0  0  0  0  0  0  0  0  0
  191.4730  178.1210  144.5400 C   0  0  1  0  0  3  0  0  0  0  0  0
  190.9850  176.8570  146.8700 C   0  0  0  0  0  0  0  0  0  0  0  0
  191.9410  176.7450  147.5100 N   0  0  0  0  0  0  0  0  0  0  0  0
  185.7570  178.8860  139.4890 O   0  0  0  0  0  0  0  0  0  0  0  0
  186.0630  177.9660  138.4500 C   0  0  2  0  0  3  0  0  0  0  0  0
  187.2700  178.4310  137.6980 C   0  0  0  0  0  0  0  0  0  0  0  0
  187.1550  179.2400  136.7890 O   0  0  0  0  0  0  0  0  0  0  0  0
  188.6190  177.8970  138.0690 C   0  0  2  0  0  3  0  0  0  0  0  0
  189.5210  178.9440  138.1500 F   0  0  0  0  0  0  0  0  0  0  0  0
  190.4870  176.8330  137.0230 O   0  0  0  0  0  1  0  0  0  0  0  0
  188.6090  175.6050  137.3860 O   0  0  0  0  0  1  0  0  0  0  0  0
  189.0930  176.8700  137.0490 C   0  0  0  0  0  3  0  0  0  0  0  0
  184.8770  177.8420  137.5090 C   0  0  0  0  0  2  0  0  0  0  0  0
  183.9410  176.7550  138.0010 C   0  0  0  0  0  2  0  0  0  0  0  0
  182.6820  177.3770  138.5780 C   0  0  0  0  0  2  0  0  0  0  0  0
  181.0710  176.6220  135.2790 C   0  0  0  0  0  2  0  0  0  0  0  0
  180.3680  179.2780  135.1540 O   0  0  0  0  0  0  0  0  0  0  0  0
  181.4500  177.4050  136.3670 C   0  0  0  0  0  0  0  0  0  0  0  0
  180.7550  177.9770  135.2970 C   0  0  0  0  0  0  0  0  0  0  0  0
  180.8740  182.2040  137.4090 C   0  0  0  0  0  3  0  0  0  0  0  0
  180.7970  180.0450  136.3030 C   0  0  0  0  0  0  0  0  0  0  0  0
  181.9180  180.3090  138.5050 C   0  0  0  0  0  3  0  0  0  0  0  0
  181.5500  179.4600  137.4540 C   0  0  0  0  0  0  0  0  0  0  0  0
  181.5840  181.6630  138.4810 C   0  0  0  0  0  3  0  0  0  0  0  0
  181.9090  178.0260  137.5280 N   0  0  0  0  0  0  0  0  0  0  0  0
  180.4850  181.4050  136.3330 C   0  0  0  0  0  3  0  0  0  0  0  0
  1  2  2  0  0  0  0
  1  3  1  0  0  0  0
  3  4  1  6  0  0  0
  3  6  1  0  0  0  0
  6  5  1  1  0  0  0
  7 12  1  0  0  0  0
  7 10  1  0  0  0  0
  8  7  1  0  0  0  0
  9 10  1  0  0  0  0
 11  6  1  6  0  0  0
 11  8  1  0  0  0  0
 11  9  1  0  0  0  0
 13 12  1  6  0  0  0
 13 14  1  0  0  0  0
 14 15  2  0  0  0  0
 16 25  1  1  0  0  0
 16 13  1  0  0  0  0
 17 20  1  0  0  0  0
 19 23  2  0  0  0  0
 20 16  1  1  0  0  0
 21 24  1  0  0  0  0
 23 18  2  0  0  0  0
 23 21  1  0  0  0  0
 23 17  1  0  0  0  0
 24 22  1  6  0  0  0
 24 20  1  0  0  0  0
 25 26  3  0  0  0  0
 27  1  1  0  0  0  0
 28 36  1  6  0  0  0
 28 27  1  0  0  0  0
 29 31  1  0  0  0  0
 29 28  1  0  0  0  0
 30 29  2  0  0  0  0
 31 32  1  6  0  0  0
 33 35  1  0  0  0  0
 35 34  1  0  0  0  0
 35 31  1  0  0  0  0
 36 37  1  0  0  0  0
 37 38  1  0  0  0  0
 39 42  1  0  0  0  0
 39 41  1  0  0  0  0
 40 42  1  0  0  0  0
 40 44  1  0  0  0  0
 41 48  1  0  0  0  0
 42 41  2  0  0  0  0
 43 47  1  0  0  0  0
 44 49  1  0  0  0  0
 44 46  2  0  0  0  0
 46 48  1  0  0  0  0
 46 45  1  0  0  0  0
 47 45  2  0  0  0  0
 48 38  1  0  0  0  0
 49 43  2  0  0  0  0
M  END
>  <MODEL>
5

>  <REMARK>
 VINA RESULT:      -7.6      2.797      9.666
  Name = 
  18 active torsions:
  status: ('A' for Active; 'I' for Inactive)
    1  A    between atoms: C_1  and  C_17
    2  A    between atoms: C_1  and  C_37
    3  A    between atoms: C_6  and  C_41
    4  A    between atoms: N_7  and  C_42
    5  A    between atoms: C_9  and  C_41
    6  A    between atoms: C_10  and  C_13
    7  A    between atoms: C_10  and  O_39
    8  A    between atoms: C_13  and  C_22
    9  A    between atoms: C_17  and  C_38
   10  A    between atoms: C_22  and  C_47
   11  A    between atoms: C_26  and  C_43
   12  A    between atoms: C_26  and  C_44
   13  A    between atoms: N_31  and  C_44
   14  A    between atoms: C_33  and  C_34
   15  A    between atoms: C_33  and  C_41
   16  A    between atoms: C_33  and  C_42
   17  A    between atoms: C_38  and  O_39
   18  A    between atoms: C_38  and  C_43
                            x       y       z     vdW  Elec       q    Type
                         _______ _______ _______ _____ _____    ______ ____

>  <TORSDO>
F 18

$$$$
=
 OpenBabel10232409163D

 49 53  0  0  1  0  0  0  0  0999 V2000
  190.6210  176.7230  141.8740 C   0  0  0  0  0  0  0  0  0  0  0  0
  190.3830  175.4850  141.9250 O   0  0  0  0  0  0  0  0  0  0  0  0
  190.9060  177.4910  143.1260 C   0  0  2  0  0  3  0  0  0  0  0  0
  192.1280  178.1580  143.0100 O   0  0  0  0  0  1  0  0  0  0  0  0
  192.0900  175.8140  144.3460 F   0  0  0  0  0  0  0  0  0  0  0  0
  190.9250  176.5630  144.3390 C   0  0  1  0  0  3  0  0  0  0  0  0
  188.8400  178.1200  146.7060 N   0  0  0  0  0  0  0  0  0  0  0  0
  189.6740  178.3480  145.5450 C   0  0  0  0  0  2  0  0  0  0  0  0
  190.5320  176.4990  146.7140 O   0  0  0  0  0  0  0  0  0  0  0  0
  189.6120  177.1920  147.5160 C   0  0  0  0  0  2  0  0  0  0  0  0
  190.8030  177.3560  145.6400 C   0  0  1  0  0  3  0  0  0  0  0  0
  187.6560  177.4020  146.2520 C   0  0  0  0  0  2  0  0  0  0  0  0
  186.5810  178.3830  145.7980 C   0  0  2  0  0  3  0  0  0  0  0  0
  185.5830  178.6540  146.8860 C   0  0  0  0  0  3  0  0  0  0  0  0
  185.7370  179.5890  147.6530 O   0  0  0  0  0  0  0  0  0  0  0  0
  185.9300  177.9210  144.4860 C   0  0  1  0  0  3  0  0  0  0  0  0
  184.2670  179.8000  144.0800 C   0  0  0  0  0  2  0  0  0  0  0  0
  182.1500  178.1330  144.3240 O   0  0  0  0  0  0  0  0  0  0  0  0
  181.9370  180.0080  142.7220 O   0  0  0  0  0  0  0  0  0  0  0  0
  185.4930  179.0630  143.5400 C   0  0  2  0  0  3  0  0  0  0  0  0
  183.7010  178.0490  142.1180 C   0  0  0  0  0  2  0  0  0  0  0  0
  185.3170  179.5390  141.1960 O   0  0  0  0  0  1  0  0  0  0  0  0
  182.8730  179.0100  143.3410 S   0  0  0  0  0  0  0  0  0  0  0  0
  185.1480  178.5250  142.1390 C   0  0  1  0  0  3  0  0  0  0  0  0
  186.8390  176.9850  143.8060 C   0  0  0  0  0  0  0  0  0  0  0  0
  187.5570  176.2520  143.2720 N   0  0  0  0  0  0  0  0  0  0  0  0
  190.5560  177.4100  140.6610 O   0  0  0  0  0  0  0  0  0  0  0  0
  189.8020  176.9250  139.5590 C   0  0  2  0  0  3  0  0  0  0  0  0
  190.6990  176.1930  138.6120 C   0  0  0  0  0  0  0  0  0  0  0  0
  190.6000  174.9810  138.4820 O   0  0  0  0  0  0  0  0  0  0  0  0
  191.7170  176.9570  137.8240 C   0  0  2  0  0  3  0  0  0  0  0  0
  191.4400  176.8340  136.4730 F   0  0  0  0  0  0  0  0  0  0  0  0
  193.9930  176.8350  137.1010 O   0  0  0  0  0  1  0  0  0  0  0  0
  193.5740  176.9790  139.3310 O   0  0  0  0  0  1  0  0  0  0  0  0
  193.1230  176.4500  138.1210 C   0  0  0  0  0  3  0  0  0  0  0  0
  189.1280  178.0860  138.8480 C   0  0  0  0  0  2  0  0  0  0  0  0
  187.6240  177.9940  139.0230 C   0  0  0  0  0  2  0  0  0  0  0  0
  186.9410  178.0680  137.6690 C   0  0  0  0  0  2  0  0  0  0  0  0
  183.3510  178.7930  138.4650 C   0  0  0  0  0  2  0  0  0  0  0  0
  182.8360  176.1330  137.9920 O   0  0  0  0  0  0  0  0  0  0  0  0
  184.4440  178.0190  138.0840 C   0  0  0  0  0  0  0  0  0  0  0  0
  183.1780  177.4370  138.2060 C   0  0  0  0  0  0  0  0  0  0  0  0
  184.9390  173.2250  136.9800 C   0  0  0  0  0  3  0  0  0  0  0  0
  184.0080  175.3760  137.6100 C   0  0  0  0  0  0  0  0  0  0  0  0
  186.4310  175.1320  137.1150 C   0  0  0  0  0  3  0  0  0  0  0  0
  185.3730  175.9720  137.4830 C   0  0  0  0  0  0  0  0  0  0  0  0
  186.2150  173.7760  136.8680 C   0  0  0  0  0  3  0  0  0  0  0  0
  185.6430  177.4080  137.7180 N   0  0  0  0  0  0  0  0  0  0  0  0
  183.8480  174.0140  137.3470 C   0  0  0  0  0  3  0  0  0  0  0  0
  1  2  2  0  0  0  0
  1  3  1  0  0  0  0
  3  4  1  6  0  0  0
  3  6  1  0  0  0  0
  6  5  1  1  0  0  0
  7 10  1  0  0  0  0
  8 11  1  0  0  0  0
  8  7  1  0  0  0  0
  9 10  1  0  0  0  0
 11  6  1  6  0  0  0
 11  9  1  0  0  0  0
 12  7  1  0  0  0  0
 13 12  1  1  0  0  0
 13 14  1  0  0  0  0
 14 15  2  0  0  0  0
 16 25  1  6  0  0  0
 16 13  1  0  0  0  0
 19 23  2  0  0  0  0
 20 17  1  0  0  0  0
 20 16  1  1  0  0  0
 21 24  1  0  0  0  0
 21 23  1  0  0  0  0
 23 17  1  0  0  0  0
 23 18  2  0  0  0  0
 24 22  1  6  0  0  0
 24 20  1  0  0  0  0
 26 25  3  0  0  0  0
 27  1  1  0  0  0  0
 28 36  1  6  0  0  0
 28 27  1  0  0  0  0
 29 28  1  0  0  0  0
 30 29  2  0  0  0  0
 31 32  1  6  0  0  0
 31 35  1  0  0  0  0
 31 29  1  0  0  0  0
 33 35  1  0  0  0  0
 35 34  1  0  0  0  0
 36 37  1  0  0  0  0
 38 48  1  0  0  0  0
 38 37  1  0  0  0  0
 40 42  1  0  0  0  0
 41 42  2  0  0  0  0
 41 39  1  0  0  0  0
 42 39  1  0  0  0  0
 43 49  1  0  0  0  0
 44 40  1  0  0  0  0
 45 46  2  0  0  0  0
 46 44  1  0  0  0  0
 46 48  1  0  0  0  0
 47 43  2  0  0  0  0
 47 45  1  0  0  0  0
 48 41  1  0  0  0  0
 49 44  2  0  0  0  0
M  END
>  <MODEL>
6

>  <REMARK>
 VINA RESULT:      -7.4      2.099      7.644
  Name = 
  18 active torsions:
  status: ('A' for Active; 'I' for Inactive)
    1  A    between atoms: C_1  and  C_17
    2  A    between atoms: C_1  and  C_37
    3  A    between atoms: C_6  and  C_41
    4  A    between atoms: N_7  and  C_42
    5  A    between atoms: C_9  and  C_41
    6  A    between atoms: C_10  and  C_13
    7  A    between atoms: C_10  and  O_39
    8  A    between atoms: C_13  and  C_22
    9  A    between atoms: C_17  and  C_38
   10  A    between atoms: C_22  and  C_47
   11  A    between atoms: C_26  and  C_43
   12  A    between atoms: C_26  and  C_44
   13  A    between atoms: N_31  and  C_44
   14  A    between atoms: C_33  and  C_34
   15  A    between atoms: C_33  and  C_41
   16  A    between atoms: C_33  and  C_42
   17  A    between atoms: C_38  and  O_39
   18  A    between atoms: C_38  and  C_43
                            x       y       z     vdW  Elec       q    Type
                         _______ _______ _______ _____ _____    ______ ____

>  <TORSDO>
F 18

$$$$
=
 OpenBabel10232409163D

 49 53  0  0  1  0  0  0  0  0999 V2000
  184.5500  178.4630  140.6130 C   0  0  0  0  0  0  0  0  0  0  0  0
  183.6370  177.5980  140.5190 O   0  0  0  0  0  0  0  0  0  0  0  0
  185.1400  179.0770  139.3830 C   0  0  2  0  0  3  0  0  0  0  0  0
  184.3830  180.1850  138.9910 O   0  0  0  0  0  1  0  0  0  0  0  0
  183.9930  177.9990  137.5870 F   0  0  0  0  0  0  0  0  0  0  0  0
  185.2090  178.0580  138.2480 C   0  0  1  0  0  3  0  0  0  0  0  0
  188.4830  177.4650  137.1060 N   0  0  0  0  0  0  0  0  0  0  0  0
  187.6670  178.3240  137.9390 C   0  0  0  0  0  2  0  0  0  0  0  0
  186.3290  177.5110  136.1860 O   0  0  0  0  0  0  0  0  0  0  0  0
  187.6830  177.2770  135.9060 C   0  0  0  0  0  2  0  0  0  0  0  0
  186.3250  178.4080  137.2630 C   0  0  1  0  0  3  0  0  0  0  0  0
  188.5640  176.1710  137.7690 C   0  0  0  0  0  2  0  0  0  0  0  0
  189.5640  175.2690  137.0550 C   0  0  2  0  0  3  0  0  0  0  0  0
  189.0530  173.8630  136.9290 C   0  0  0  0  0  3  0  0  0  0  0  0
  188.1140  173.6060  136.1940 O   0  0  0  0  0  0  0  0  0  0  0  0
  190.9490  175.3490  137.7150 C   0  0  1  0  0  3  0  0  0  0  0  0
  192.2900  174.9320  135.5950 C   0  0  0  0  0  2  0  0  0  0  0  0
  192.9940  172.4450  136.3940 O   0  0  0  0  0  0  0  0  0  0  0  0
  194.6410  173.7130  135.0510 O   0  0  0  0  0  0  0  0  0  0  0  0
  192.0800  175.8590  136.7920 C   0  0  2  0  0  3  0  0  0  0  0  0
  194.1140  174.6130  137.5460 C   0  0  0  0  0  2  0  0  0  0  0  0
  194.2300  176.9140  136.9360 O   0  0  0  0  0  1  0  0  0  0  0  0
  193.5550  173.8040  136.0840 S   0  0  0  0  0  0  0  0  0  0  0  0
  193.4150  175.9660  137.5540 C   0  0  1  0  0  3  0  0  0  0  0  0
  190.8490  176.1630  138.9360 C   0  0  0  0  0  0  0  0  0  0  0  0
  190.7660  176.8020  139.8960 N   0  0  0  0  0  0  0  0  0  0  0  0
  185.0730  178.8130  141.8590 O   0  0  0  0  0  0  0  0  0  0  0  0
  184.5040  178.3440  143.0740 C   0  0  2  0  0  3  0  0  0  0  0  0
  183.7540  179.4500  143.7450 C   0  0  0  0  0  0  0  0  0  0  0  0
  184.3380  180.4640  144.0990 O   0  0  0  0  0  0  0  0  0  0  0  0
  182.2820  179.3050  143.9790 C   0  0  2  0  0  3  0  0  0  0  0  0
  182.0170  178.0400  144.4750 F   0  0  0  0  0  0  0  0  0  0  0  0
  181.0630  178.3210  142.1730 O   0  0  0  0  0  1  0  0  0  0  0  0
  180.4010  180.3560  142.9410 O   0  0  0  0  0  1  0  0  0  0  0  0
  181.5040  179.5380  142.6900 C   0  0  0  0  0  3  0  0  0  0  0  0
  185.6030  177.8270  143.9870 C   0  0  0  0  0  2  0  0  0  0  0  0
  186.9350  177.8690  143.2650 C   0  0  0  0  0  2  0  0  0  0  0  0
  187.7110  176.5930  143.5380 C   0  0  0  0  0  2  0  0  0  0  0  0
  191.4590  176.5280  143.4820 C   0  0  0  0  0  2  0  0  0  0  0  0
  191.3890  177.2860  146.1240 O   0  0  0  0  0  0  0  0  0  0  0  0
  190.1920  176.7220  144.0270 C   0  0  0  0  0  0  0  0  0  0  0  0
  191.3330  176.9120  144.8130 C   0  0  0  0  0  0  0  0  0  0  0  0
  188.6460  178.0320  148.5370 C   0  0  0  0  0  3  0  0  0  0  0  0
  190.0500  177.4630  146.6400 C   0  0  0  0  0  0  0  0  0  0  0  0
  187.5730  177.4480  146.4420 C   0  0  0  0  0  3  0  0  0  0  0  0
  188.8140  177.2550  145.8250 C   0  0  0  0  0  0  0  0  0  0  0  0
  187.4910  177.8310  147.7810 C   0  0  0  0  0  3  0  0  0  0  0  0
  188.8550  176.8670  144.3970 N   0  0  0  0  0  0  0  0  0  0  0  0
  189.9100  177.8490  147.9750 C   0  0  0  0  0  3  0  0  0  0  0  0
  1 27  1  0  0  0  0
  2  1  2  0  0  0  0
  3  4  1  6  0  0  0
  3  1  1  0  0  0  0
  6  5  1  6  0  0  0
  6  3  1  0  0  0  0
  7 12  1  0  0  0  0
  7  8  1  0  0  0  0
  9 11  1  0  0  0  0
 10  9  1  0  0  0  0
 10  7  1  0  0  0  0
 11  8  1  0  0  0  0
 11  6  1  1  0  0  0
 13 14  1  1  0  0  0
 13 16  1  0  0  0  0
 13 12  1  0  0  0  0
 15 14  2  0  0  0  0
 16 25  1  1  0  0  0
 17 23  1  0  0  0  0
 17 20  1  0  0  0  0
 19 23  2  0  0  0  0
 20 24  1  0  0  0  0
 20 16  1  1  0  0  0
 21 24  1  0  0  0  0
 23 18  2  0  0  0  0
 23 21  1  0  0  0  0
 24 22  1  6  0  0  0
 25 26  3  0  0  0  0
 27 28  1  0  0  0  0
 28 29  1  0  0  0  0
 28 36  1  1  0  0  0
 29 31  1  0  0  0  0
 29 30  2  0  0  0  0
 31 32  1  6  0  0  0
 33 35  1  0  0  0  0
 35 34  1  0  0  0  0
 35 31  1  0  0  0  0
 37 38  1  0  0  0  0
 37 36  1  0  0  0  0
 38 48  1  0  0  0  0
 39 41  1  0  0  0  0
 39 42  1  0  0  0  0
 40 44  1  0  0  0  0
 41 48  1  0  0  0  0
 41 42  2  0  0  0  0
 42 40  1  0  0  0  0
 44 49  2  0  0  0  0
 45 47  1  0  0  0  0
 46 45  2  0  0  0  0
 46 44  1  0  0  0  0
 47 43  2  0  0  0  0
 48 46  1  0  0  0  0
 49 43  1  0  0  0  0
M  END
>  <MODEL>
7

>  <REMARK>
 VINA RESULT:      -7.3      3.313      7.909
  Name = 
  18 active torsions:
  status: ('A' for Active; 'I' for Inactive)
    1  A    between atoms: C_1  and  C_17
    2  A    between atoms: C_1  and  C_37
    3  A    between atoms: C_6  and  C_41
    4  A    between atoms: N_7  and  C_42
    5  A    between atoms: C_9  and  C_41
    6  A    between atoms: C_10  and  C_13
    7  A    between atoms: C_10  and  O_39
    8  A    between atoms: C_13  and  C_22
    9  A    between atoms: C_17  and  C_38
   10  A    between atoms: C_22  and  C_47
   11  A    between atoms: C_26  and  C_43
   12  A    between atoms: C_26  and  C_44
   13  A    between atoms: N_31  and  C_44
   14  A    between atoms: C_33  and  C_34
   15  A    between atoms: C_33  and  C_41
   16  A    between atoms: C_33  and  C_42
   17  A    between atoms: C_38  and  O_39
   18  A    between atoms: C_38  and  C_43
                            x       y       z     vdW  Elec       q    Type
                         _______ _______ _______ _____ _____    ______ ____

>  <TORSDO>
F 18

$$$$
=
 OpenBabel10232409163D

 49 53  0  0  1  0  0  0  0  0999 V2000
  184.9940  178.8500  140.1740 C   0  0  0  0  0  0  0  0  0  0  0  0
  184.4850  179.9570  139.8510 O   0  0  0  0  0  0  0  0  0  0  0  0
  184.6340  178.2020  141.4740 C   0  0  2  0  0  3  0  0  0  0  0  0
  183.2810  178.4140  141.7540 O   0  0  0  0  0  1  0  0  0  0  0  0
  185.6320  180.1180  142.4900 F   0  0  0  0  0  0  0  0  0  0  0  0
  185.4980  178.7440  142.6090 C   0  0  1  0  0  3  0  0  0  0  0  0
  186.0380  177.9310  145.9880 N   0  0  0  0  0  0  0  0  0  0  0  0
  185.7660  177.3810  144.6770 C   0  0  0  0  0  2  0  0  0  0  0  0
  184.8230  179.5310  144.7830 O   0  0  0  0  0  0  0  0  0  0  0  0
  185.1650  179.0910  146.0710 C   0  0  0  0  0  2  0  0  0  0  0  0
  184.9010  178.3920  143.9710 C   0  0  1  0  0  3  0  0  0  0  0  0
  187.4060  178.4300  145.9720 C   0  0  0  0  0  2  0  0  0  0  0  0
  188.3290  177.4770  146.7230 C   0  0  2  0  0  3  0  0  0  0  0  0
  188.7410  178.0380  148.0530 C   0  0  0  0  0  3  0  0  0  0  0  0
  188.2090  177.6540  149.0810 O   0  0  0  0  0  0  0  0  0  0  0  0
  189.5230  177.0610  145.8500 C   0  0  1  0  0  3  0  0  0  0  0  0
  189.1540  177.4820  143.3700 C   0  0  0  0  0  2  0  0  0  0  0  0
  190.1030  175.0380  142.6980 O   0  0  0  0  0  0  0  0  0  0  0  0
  190.5410  176.8970  141.1230 O   0  0  0  0  0  0  0  0  0  0  0  0
  189.8080  177.9970  144.6520 C   0  0  2  0  0  3  0  0  0  0  0  0
  191.7920  176.9760  143.5190 C   0  0  0  0  0  2  0  0  0  0  0  0
  191.5820  179.3390  143.7540 O   0  0  0  0  0  1  0  0  0  0  0  0
  190.3870  176.5080  142.5650 S   0  0  0  0  0  0  0  0  0  0  0  0
  191.3220  178.1290  144.3970 C   0  0  1  0  0  3  0  0  0  0  0  0
  190.7100  176.9140  146.7050 C   0  0  0  0  0  0  0  0  0  0  0  0
  191.6440  176.8010  147.3770 N   0  0  0  0  0  0  0  0  0  0  0  0
  185.9540  178.2440  139.3610 O   0  0  0  0  0  0  0  0  0  0  0  0
  185.9360  178.3770  137.9470 C   0  0  2  0  0  3  0  0  0  0  0  0
  185.1590  177.2520  137.3390 C   0  0  0  0  0  0  0  0  0  0  0  0
  185.6500  176.5750  136.4470 O   0  0  0  0  0  0  0  0  0  0  0  0
  183.7760  176.9620  137.8340 C   0  0  2  0  0  3  0  0  0  0  0  0
  183.3660  175.7280  137.3580 F   0  0  0  0  0  0  0  0  0  0  0  0
  182.1640  177.6610  136.2130 O   0  0  0  0  0  1  0  0  0  0  0  0
  181.8450  178.2630  138.3820 O   0  0  0  0  0  1  0  0  0  0  0  0
  182.8040  178.0470  137.3900 C   0  0  0  0  0  3  0  0  0  0  0  0
  187.3590  178.3770  137.4140 C   0  0  0  0  0  2  0  0  0  0  0  0
  188.2480  177.5500  138.3220 C   0  0  0  0  0  2  0  0  0  0  0  0
  189.6780  177.5790  137.8120 C   0  0  0  0  0  2  0  0  0  0  0  0
  188.2930  174.3130  136.6020 C   0  0  0  0  0  2  0  0  0  0  0  0
  190.8510  173.3150  136.7450 O   0  0  0  0  0  0  0  0  0  0  0  0
  189.2740  175.2100  137.0150 C   0  0  0  0  0  0  0  0  0  0  0  0
  189.6150  173.8900  136.7020 C   0  0  0  0  0  0  0  0  0  0  0  0
  194.1470  174.7590  137.7230 C   0  0  0  0  0  3  0  0  0  0  0  0
  191.8270  174.2860  137.1900 C   0  0  0  0  0  0  0  0  0  0  0  0
  192.5210  176.5410  137.9710 C   0  0  0  0  0  3  0  0  0  0  0  0
  191.4880  175.6980  137.5420 C   0  0  0  0  0  0  0  0  0  0  0  0
  193.8330  176.0750  138.0600 C   0  0  0  0  0  3  0  0  0  0  0  0
  190.1130  176.2380  137.4440 N   0  0  0  0  0  0  0  0  0  0  0  0
  193.1570  173.8740  137.2940 C   0  0  0  0  0  3  0  0  0  0  0  0
  1  3  1  0  0  0  0
  2  1  2  0  0  0  0
  3  4  1  1  0  0  0
  3  6  1  0  0  0  0
  6  5  1  6  0  0  0
  7 10  1  0  0  0  0
  8  7  1  0  0  0  0
  9 10  1  0  0  0  0
 11  6  1  6  0  0  0
 11  8  1  0  0  0  0
 11  9  1  0  0  0  0
 12  7  1  0  0  0  0
 13 12  1  6  0  0  0
 13 14  1  0  0  0  0
 14 15  2  0  0  0  0
 16 25  1  1  0  0  0
 16 13  1  0  0  0  0
 17 20  1  0  0  0  0
 19 23  2  0  0  0  0
 20 16  1  1  0  0  0
 21 24  1  0  0  0  0
 23 18  2  0  0  0  0
 23 17  1  0  0  0  0
 23 21  1  0  0  0  0
 24 22  1  6  0  0  0
 24 20  1  0  0  0  0
 25 26  3  0  0  0  0
 27  1  1  0  0  0  0
 28 36  1  6  0  0  0
 28 27  1  0  0  0  0
 29 31  1  0  0  0  0
 29 28  1  0  0  0  0
 30 29  2  0  0  0  0
 31 32  1  6  0  0  0
 33 35  1  0  0  0  0
 35 31  1  0  0  0  0
 35 34  1  0  0  0  0
 36 37  1  0  0  0  0
 38 37  1  0  0  0  0
 39 42  1  0  0  0  0
 39 41  1  0  0  0  0
 40 44  1  0  0  0  0
 41 48  1  0  0  0  0
 42 40  1  0  0  0  0
 42 41  2  0  0  0  0
 43 47  1  0  0  0  0
 44 49  1  0  0  0  0
 44 46  2  0  0  0  0
 45 47  2  0  0  0  0
 46 45  1  0  0  0  0
 48 46  1  0  0  0  0
 48 38  1  0  0  0  0
 49 43  2  0  0  0  0
M  END
>  <MODEL>
8

>  <REMARK>
 VINA RESULT:      -7.3      3.051      9.329
  Name = 
  18 active torsions:
  status: ('A' for Active; 'I' for Inactive)
    1  A    between atoms: C_1  and  C_17
    2  A    between atoms: C_1  and  C_37
    3  A    between atoms: C_6  and  C_41
    4  A    between atoms: N_7  and  C_42
    5  A    between atoms: C_9  and  C_41
    6  A    between atoms: C_10  and  C_13
    7  A    between atoms: C_10  and  O_39
    8  A    between atoms: C_13  and  C_22
    9  A    between atoms: C_17  and  C_38
   10  A    between atoms: C_22  and  C_47
   11  A    between atoms: C_26  and  C_43
   12  A    between atoms: C_26  and  C_44
   13  A    between atoms: N_31  and  C_44
   14  A    between atoms: C_33  and  C_34
   15  A    between atoms: C_33  and  C_41
   16  A    between atoms: C_33  and  C_42
   17  A    between atoms: C_38  and  O_39
   18  A    between atoms: C_38  and  C_43
                            x       y       z     vdW  Elec       q    Type
                         _______ _______ _______ _____ _____    ______ ____

>  <TORSDO>
F 18

$$$$
=
 OpenBabel10232409163D

 49 53  0  0  1  0  0  0  0  0999 V2000
  189.0910  178.4900  137.4090 C   0  0  0  0  0  0  0  0  0  0  0  0
  189.3190  179.5520  138.0500 O   0  0  0  0  0  0  0  0  0  0  0  0
  187.7880  178.3000  136.6990 C   0  0  2  0  0  3  0  0  0  0  0  0
  187.1160  179.5210  136.5980 O   0  0  0  0  0  1  0  0  0  0  0  0
  185.7530  177.8790  137.8760 F   0  0  0  0  0  0  0  0  0  0  0  0
  186.9180  177.2780  137.4270 C   0  0  1  0  0  3  0  0  0  0  0  0
  184.4610  175.4050  135.7460 N   0  0  0  0  0  0  0  0  0  0  0  0
  185.2800  175.4650  136.9370 C   0  0  0  0  0  2  0  0  0  0  0  0
  186.4450  176.5200  135.1900 O   0  0  0  0  0  0  0  0  0  0  0  0
  185.3700  175.7800  134.6750 C   0  0  0  0  0  2  0  0  0  0  0  0
  186.5820  176.0950  136.5190 C   0  0  1  0  0  3  0  0  0  0  0  0
  183.4690  176.4660  135.8500 C   0  0  0  0  0  2  0  0  0  0  0  0
  182.4430  176.1320  136.9270 C   0  0  2  0  0  3  0  0  0  0  0  0
  181.3290  175.2820  136.3880 C   0  0  0  0  0  3  0  0  0  0  0  0
  181.0540  174.2140  136.9080 O   0  0  0  0  0  0  0  0  0  0  0  0
  181.9440  177.4040  137.6290 C   0  0  1  0  0  3  0  0  0  0  0  0
  182.9270  177.4170  139.9740 C   0  0  0  0  0  2  0  0  0  0  0  0
  180.4900  177.6960  141.1170 O   0  0  0  0  0  0  0  0  0  0  0  0
  182.4020  178.7970  142.2400 O   0  0  0  0  0  0  0  0  0  0  0  0
  182.9650  178.0600  138.5880 C   0  0  2  0  0  3  0  0  0  0  0  0
  181.6400  179.7750  139.8370 C   0  0  0  0  0  2  0  0  0  0  0  0
  183.8650  180.2210  139.1100 O   0  0  0  0  0  1  0  0  0  0  0  0
  181.8050  178.3960  140.9210 S   0  0  0  0  0  0  0  0  0  0  0  0
  182.6870  179.5660  138.7510 C   0  0  1  0  0  3  0  0  0  0  0  0
  181.4790  178.3580  136.6110 C   0  0  0  0  0  0  0  0  0  0  0  0
  181.1110  179.1100  135.8140 N   0  0  0  0  0  0  0  0  0  0  0  0
  190.0190  177.4480  137.4070 O   0  0  0  0  0  0  0  0  0  0  0  0
  190.6200  176.9700  138.6030 C   0  0  2  0  0  3  0  0  0  0  0  0
  191.4440  175.7580  138.3100 C   0  0  0  0  0  0  0  0  0  0  0  0
  190.9040  174.6820  138.0960 O   0  0  0  0  0  0  0  0  0  0  0  0
  192.9370  175.8720  138.2790 C   0  0  2  0  0  3  0  0  0  0  0  0
  193.3050  177.1730  138.5750 F   0  0  0  0  0  0  0  0  0  0  0  0
  192.8680  176.2170  135.9150 O   0  0  0  0  0  1  0  0  0  0  0  0
  194.8610  175.6860  136.8700 O   0  0  0  0  0  1  0  0  0  0  0  0
  193.4830  175.4670  136.9160 C   0  0  0  0  0  3  0  0  0  0  0  0
  189.5420  176.6370  139.6190 C   0  0  0  0  0  2  0  0  0  0  0  0
  190.1190  176.6940  141.0200 C   0  0  0  0  0  2  0  0  0  0  0  0
  189.8610  178.0600  141.6310 C   0  0  0  0  0  2  0  0  0  0  0  0
  186.1880  178.6630  141.1830 C   0  0  0  0  0  2  0  0  0  0  0  0
  185.9080  178.1990  143.8790 O   0  0  0  0  0  0  0  0  0  0  0  0
  187.3570  178.3480  141.8710 C   0  0  0  0  0  0  0  0  0  0  0  0
  186.1360  178.4130  142.5510 C   0  0  0  0  0  0  0  0  0  0  0  0
  188.2810  177.3330  146.6220 C   0  0  0  0  0  3  0  0  0  0  0  0
  187.1540  177.8870  144.5450 C   0  0  0  0  0  0  0  0  0  0  0  0
  189.6110  177.5200  144.6020 C   0  0  0  0  0  3  0  0  0  0  0  0
  188.4730  177.8220  143.8450 C   0  0  0  0  0  0  0  0  0  0  0  0
  189.5150  177.2790  145.9730 C   0  0  0  0  0  3  0  0  0  0  0  0
  188.6170  178.0510  142.3900 N   0  0  0  0  0  0  0  0  0  0  0  0
  187.1150  177.6340  145.9170 C   0  0  0  0  0  3  0  0  0  0  0  0
  1  2  2  0  0  0  0
  3  4  1  1  0  0  0
  3  1  1  0  0  0  0
  3  6  1  0  0  0  0
  6  5  1  6  0  0  0
  7 12  1  0  0  0  0
  7  8  1  0  0  0  0
  9 11  1  0  0  0  0
 10  9  1  0  0  0  0
 10  7  1  0  0  0  0
 11  8  1  0  0  0  0
 11  6  1  1  0  0  0
 13 12  1  6  0  0  0
 13 16  1  0  0  0  0
 14 15  2  0  0  0  0
 14 13  1  0  0  0  0
 16 25  1  6  0  0  0
 17 23  1  0  0  0  0
 20 16  1  6  0  0  0
 20 24  1  0  0  0  0
 20 17  1  0  0  0  0
 21 23  1  0  0  0  0
 23 18  2  0  0  0  0
 23 19  2  0  0  0  0
 24 22  1  1  0  0  0
 24 21  1  0  0  0  0
 26 25  3  0  0  0  0
 27  1  1  0  0  0  0
 27 28  1  0  0  0  0
 28 36  1  1  0  0  0
 29 28  1  0  0  0  0
 30 29  2  0  0  0  0
 31 29  1  0  0  0  0
 31 32  1  6  0  0  0
 33 35  1  0  0  0  0
 34 35  1  0  0  0  0
 35 31  1  0  0  0  0
 36 37  1  0  0  0  0
 37 38  1  0  0  0  0
 38 48  1  0  0  0  0
 39 41  1  0  0  0  0
 39 42  1  0  0  0  0
 40 44  1  0  0  0  0
 41 48  1  0  0  0  0
 41 42  2  0  0  0  0
 42 40  1  0  0  0  0
 44 49  1  0  0  0  0
 45 47  2  0  0  0  0
 46 44  2  0  0  0  0
 46 45  1  0  0  0  0
 47 43  1  0  0  0  0
 48 46  1  0  0  0  0
 49 43  2  0  0  0  0
M  END
>  <MODEL>
9

>  <REMARK>
 VINA RESULT:      -7.3      1.491      2.356
  Name = 
  18 active torsions:
  status: ('A' for Active; 'I' for Inactive)
    1  A    between atoms: C_1  and  C_17
    2  A    between atoms: C_1  and  C_37
    3  A    between atoms: C_6  and  C_41
    4  A    between atoms: N_7  and  C_42
    5  A    between atoms: C_9  and  C_41
    6  A    between atoms: C_10  and  C_13
    7  A    between atoms: C_10  and  O_39
    8  A    between atoms: C_13  and  C_22
    9  A    between atoms: C_17  and  C_38
   10  A    between atoms: C_22  and  C_47
   11  A    between atoms: C_26  and  C_43
   12  A    between atoms: C_26  and  C_44
   13  A    between atoms: N_31  and  C_44
   14  A    between atoms: C_33  and  C_34
   15  A    between atoms: C_33  and  C_41
   16  A    between atoms: C_33  and  C_42
   17  A    between atoms: C_38  and  O_39
   18  A    between atoms: C_38  and  C_43
                            x       y       z     vdW  Elec       q    Type
                         _______ _______ _______ _____ _____    ______ ____

>  <TORSDO>
F 18

$$$$
