=
 OpenBabel10232407543D

 26 27  0  0  0  0  0  0  0  0999 V2000
  187.2280  177.6430  144.1930 C   0  0  0  0  0  0  0  0  0  0  0  0
  186.0090  178.1850  144.0370 C   0  0  0  0  0  3  0  0  0  0  0  0
  187.8320  177.6290  145.5540 C   0  0  0  0  0  0  0  0  0  0  0  0
  187.6510  177.9950  147.9550 C   0  0  0  0  0  3  0  0  0  0  0  0
  187.0770  177.9960  146.6820 C   0  0  0  0  0  3  0  0  0  0  0  0
  189.1770  177.2720  145.7350 C   0  0  0  0  0  3  0  0  0  0  0  0
  189.7630  177.2670  147.0080 C   0  0  0  0  0  0  0  0  0  0  0  0
  188.9890  177.6310  148.1180 C   0  0  0  0  0  3  0  0  0  0  0  0
  191.8560  176.1660  146.1500 N   0  0  0  0  0  1  0  0  0  0  0  0
  191.7970  177.1910  148.2280 O   0  0  0  0  0  0  0  0  0  0  0  0
  191.1760  176.8850  147.1750 C   0  0  0  0  0  0  0  0  0  0  0  0
  188.5280  177.9060  142.0340 N   0  0  0  0  0  2  0  0  0  0  0  0
  188.1250  175.8110  142.9700 O   0  0  0  0  0  0  0  0  0  0  0  0
  187.9700  177.0610  143.0450 C   0  0  0  0  0  0  0  0  0  0  0  0
  189.3420  177.3970  140.9380 C   0  0  0  0  0  2  0  0  0  0  0  0
  188.8520  177.9370  139.6380 C   0  0  0  0  0  0  0  0  0  0  0  0
  188.6900  178.5240  137.5600 C   0  0  0  0  0  3  0  0  0  0  0  0
  187.5040  178.7310  138.1670 N   0  0  0  0  0  0  0  0  0  0  0  0
  189.5900  178.0060  138.4750 C   0  0  0  0  0  3  0  0  0  0  0  0
  187.5990  178.3690  139.4320 N   0  0  0  0  0  2  0  0  0  0  0  0
  185.2540  178.2400  142.7510 C   0  0  0  0  0  2  0  0  0  0  0  0
  183.8500  178.5530  143.0200 C   0  0  0  0  0  0  0  0  0  0  0  0
  182.6930  178.8100  143.2430 C   0  0  0  0  0  0  0  0  0  0  0  0
  180.7320  180.2370  142.9300 O   0  0  0  0  0  0  0  0  0  0  0  0
  180.6400  178.3740  144.2620 O   0  0  0  0  0  1  0  0  0  0  0  0
  181.3170  179.1180  143.5070 C   0  0  0  0  0  0  0  0  0  0  0  0
  1  3  1  0  0  0  0
  2  1  2  0  0  0  0
  3  6  2  0  0  0  0
  3  5  1  0  0  0  0
  4  8  1  0  0  0  0
  5  4  2  0  0  0  0
  6  7  1  0  0  0  0
  7 11  1  0  0  0  0
  7  8  2  0  0  0  0
  9 11  1  0  0  0  0
 11 10  2  0  0  0  0
 12 14  1  0  0  0  0
 13 14  2  0  0  0  0
 14  1  1  0  0  0  0
 15 12  1  0  0  0  0
 16 15  1  0  0  0  0
 17 18  2  0  0  0  0
 17 19  1  0  0  0  0
 18 20  1  0  0  0  0
 19 16  2  0  0  0  0
 20 16  1  0  0  0  0
 21 22  1  0  0  0  0
 21  2  1  0  0  0  0
 22 23  3  0  0  0  0
 23 26  1  0  0  0  0
 24 26  2  0  0  0  0
 26 25  1  0  0  0  0
M  END
>  <MODEL>
1

>  <REMARK>
 VINA RESULT:      -9.0      0.000      0.000
  Name = 
  8 active torsions:
  status: ('A' for Active; 'I' for Inactive)
    1  A    between atoms: C_2  and  C_12
    2  A    between atoms: C_4  and  C_25
    3  A    between atoms: N_5  and  C_25
    4  A    between atoms: C_8  and  C_12
    5  A    between atoms: C_17  and  C_26
    6  A    between atoms: C_18  and  C_22
    7  A    between atoms: C_19  and  C_20
    8  A    between atoms: C_23  and  C_26
                            x       y       z     vdW  Elec       q    Type
                         _______ _______ _______ _____ _____    ______ ____

>  <TORSDO>
F 8

$$$$
=
 OpenBabel10232407543D

 26 27  0  0  0  0  0  0  0  0999 V2000
  188.3700  177.4140  144.4350 C   0  0  0  0  0  0  0  0  0  0  0  0
  189.3780  177.3710  145.3210 C   0  0  0  0  0  3  0  0  0  0  0  0
  187.0340  177.8790  144.9010 C   0  0  0  0  0  0  0  0  0  0  0  0
  185.5220  178.5180  146.7010 C   0  0  0  0  0  3  0  0  0  0  0  0
  186.7800  178.0950  146.2670 C   0  0  0  0  0  3  0  0  0  0  0  0
  185.9910  178.0880  143.9840 C   0  0  0  0  0  3  0  0  0  0  0  0
  184.7250  178.5130  144.4090 C   0  0  0  0  0  0  0  0  0  0  0  0
  184.4980  178.7270  145.7750 C   0  0  0  0  0  3  0  0  0  0  0  0
  182.3090  178.9570  143.8670 N   0  0  0  0  0  1  0  0  0  0  0  0
  183.8950  178.7160  142.1950 O   0  0  0  0  0  0  0  0  0  0  0  0
  183.6460  178.7300  143.4300 C   0  0  0  0  0  0  0  0  0  0  0  0
  188.9020  177.9890  142.0250 N   0  0  0  0  0  2  0  0  0  0  0  0
  188.4500  175.8010  142.6890 O   0  0  0  0  0  0  0  0  0  0  0  0
  188.5650  177.0140  143.0170 C   0  0  0  0  0  0  0  0  0  0  0  0
  189.1940  177.6390  140.6410 C   0  0  0  0  0  2  0  0  0  0  0  0
  188.0320  177.9730  139.7690 C   0  0  0  0  0  0  0  0  0  0  0  0
  186.6600  178.1190  138.1000 C   0  0  0  0  0  3  0  0  0  0  0  0
  186.0910  178.6830  139.1840 N   0  0  0  0  0  0  0  0  0  0  0  0
  187.9150  177.6410  138.4360 C   0  0  0  0  0  3  0  0  0  0  0  0
  186.9240  178.5910  140.2040 N   0  0  0  0  0  2  0  0  0  0  0  0
  190.7800  176.9680  145.0040 C   0  0  0  0  0  2  0  0  0  0  0  0
  191.4790  176.6140  146.2390 C   0  0  0  0  0  0  0  0  0  0  0  0
  192.0540  176.3220  147.2580 C   0  0  0  0  0  0  0  0  0  0  0  0
  193.3310  176.9640  149.2420 O   0  0  0  0  0  1  0  0  0  0  0  0
  192.8040  174.7720  148.8330 O   0  0  0  0  0  0  0  0  0  0  0  0
  192.7390  175.9740  148.4700 C   0  0  0  0  0  0  0  0  0  0  0  0
  1  3  1  0  0  0  0
  1  2  2  0  0  0  0
  3  5  1  0  0  0  0
  5  4  2  0  0  0  0
  6  7  1  0  0  0  0
  6  3  2  0  0  0  0
  7  8  2  0  0  0  0
  8  4  1  0  0  0  0
 10 11  2  0  0  0  0
 11  9  1  0  0  0  0
 11  7  1  0  0  0  0
 12 14  1  0  0  0  0
 13 14  2  0  0  0  0
 14  1  1  0  0  0  0
 15 12  1  0  0  0  0
 16 20  1  0  0  0  0
 16 15  1  0  0  0  0
 17 19  1  0  0  0  0
 17 18  2  0  0  0  0
 18 20  1  0  0  0  0
 19 16  2  0  0  0  0
 21  2  1  0  0  0  0
 21 22  1  0  0  0  0
 22 23  3  0  0  0  0
 23 26  1  0  0  0  0
 26 25  2  0  0  0  0
 26 24  1  0  0  0  0
M  END
>  <MODEL>
2

>  <REMARK>
 VINA RESULT:      -8.6      1.978      6.695
  Name = 
  8 active torsions:
  status: ('A' for Active; 'I' for Inactive)
    1  A    between atoms: C_2  and  C_12
    2  A    between atoms: C_4  and  C_25
    3  A    between atoms: N_5  and  C_25
    4  A    between atoms: C_8  and  C_12
    5  A    between atoms: C_17  and  C_26
    6  A    between atoms: C_18  and  C_22
    7  A    between atoms: C_19  and  C_20
    8  A    between atoms: C_23  and  C_26
                            x       y       z     vdW  Elec       q    Type
                         _______ _______ _______ _____ _____    ______ ____

>  <TORSDO>
F 8

$$$$
=
 OpenBabel10232407543D

 26 27  0  0  0  0  0  0  0  0999 V2000
  187.0480  177.6740  144.1000 C   0  0  0  0  0  0  0  0  0  0  0  0
  185.8580  178.2790  143.9530 C   0  0  0  0  0  3  0  0  0  0  0  0
  187.6840  177.6720  145.4460 C   0  0  0  0  0  0  0  0  0  0  0  0
  187.5620  178.0610  147.8470 C   0  0  0  0  0  3  0  0  0  0  0  0
  186.9580  178.0510  146.5880 C   0  0  0  0  0  3  0  0  0  0  0  0
  189.0330  177.3120  145.5980 C   0  0  0  0  0  3  0  0  0  0  0  0
  189.6490  177.3170  146.8560 C   0  0  0  0  0  0  0  0  0  0  0  0
  188.9030  177.6940  147.9810 C   0  0  0  0  0  3  0  0  0  0  0  0
  191.7740  176.3850  145.8860 N   0  0  0  0  0  1  0  0  0  0  0  0
  191.6610  177.0850  148.0920 O   0  0  0  0  0  0  0  0  0  0  0  0
  191.0640  176.9330  146.9930 C   0  0  0  0  0  0  0  0  0  0  0  0
  188.1270  177.7690  141.8090 N   0  0  0  0  0  2  0  0  0  0  0  0
  187.9690  175.7740  143.0030 O   0  0  0  0  0  0  0  0  0  0  0  0
  187.7270  177.0120  142.9550 C   0  0  0  0  0  0  0  0  0  0  0  0
  188.8760  177.1890  140.7010 C   0  0  0  0  0  2  0  0  0  0  0  0
  190.3400  177.2980  140.9560 C   0  0  0  0  0  0  0  0  0  0  0  0
  192.4850  177.4760  140.7120 C   0  0  0  0  0  3  0  0  0  0  0  0
  192.1840  177.5660  142.0240 N   0  0  0  0  0  0  0  0  0  0  0  0
  191.3190  177.3070  139.9840 C   0  0  0  0  0  3  0  0  0  0  0  0
  190.8770  177.4640  142.1740 N   0  0  0  0  0  2  0  0  0  0  0  0
  185.0750  178.3350  142.6840 C   0  0  0  0  0  2  0  0  0  0  0  0
  183.6760  178.6410  142.9840 C   0  0  0  0  0  0  0  0  0  0  0  0
  182.5230  178.8940  143.2320 C   0  0  0  0  0  0  0  0  0  0  0  0
  180.4040  178.3290  144.3120 O   0  0  0  0  0  1  0  0  0  0  0  0
  180.6260  180.2430  143.0710 O   0  0  0  0  0  0  0  0  0  0  0  0
  181.1520  179.1950  143.5260 C   0  0  0  0  0  0  0  0  0  0  0  0
  1  3  1  0  0  0  0
  2  1  2  0  0  0  0
  3  6  2  0  0  0  0
  3  5  1  0  0  0  0
  4  8  1  0  0  0  0
  5  4  2  0  0  0  0
  6  7  1  0  0  0  0
  7 11  1  0  0  0  0
  7  8  2  0  0  0  0
  9 11  1  0  0  0  0
 11 10  2  0  0  0  0
 12 14  1  0  0  0  0
 14 13  2  0  0  0  0
 14  1  1  0  0  0  0
 15 16  1  0  0  0  0
 15 12  1  0  0  0  0
 16 20  1  0  0  0  0
 17 18  2  0  0  0  0
 18 20  1  0  0  0  0
 19 17  1  0  0  0  0
 19 16  2  0  0  0  0
 21 22  1  0  0  0  0
 21  2  1  0  0  0  0
 22 23  3  0  0  0  0
 23 26  1  0  0  0  0
 25 26  2  0  0  0  0
 26 24  1  0  0  0  0
M  END
>  <MODEL>
3

>  <REMARK>
 VINA RESULT:      -8.3      1.262      2.006
  Name = 
  8 active torsions:
  status: ('A' for Active; 'I' for Inactive)
    1  A    between atoms: C_2  and  C_12
    2  A    between atoms: C_4  and  C_25
    3  A    between atoms: N_5  and  C_25
    4  A    between atoms: C_8  and  C_12
    5  A    between atoms: C_17  and  C_26
    6  A    between atoms: C_18  and  C_22
    7  A    between atoms: C_19  and  C_20
    8  A    between atoms: C_23  and  C_26
                            x       y       z     vdW  Elec       q    Type
                         _______ _______ _______ _____ _____    ______ ____

>  <TORSDO>
F 8

$$$$
=
 OpenBabel10232407543D

 26 27  0  0  0  0  0  0  0  0999 V2000
  188.1090  177.6740  144.2910 C   0  0  0  0  0  0  0  0  0  0  0  0
  189.1400  177.9820  145.0940 C   0  0  0  0  0  3  0  0  0  0  0  0
  186.7320  178.0330  144.7300 C   0  0  0  0  0  0  0  0  0  0  0  0
  185.1190  178.4620  146.5040 C   0  0  0  0  0  3  0  0  0  0  0  0
  186.4150  178.1380  146.0960 C   0  0  0  0  0  3  0  0  0  0  0  0
  185.7160  178.2530  143.7870 C   0  0  0  0  0  3  0  0  0  0  0  0
  184.4130  178.5790  144.1850 C   0  0  0  0  0  0  0  0  0  0  0  0
  184.1220  178.6830  145.5520 C   0  0  0  0  0  3  0  0  0  0  0  0
  183.5890  178.4780  141.8110 N   0  0  0  0  0  1  0  0  0  0  0  0
  182.2530  179.3010  143.5170 O   0  0  0  0  0  0  0  0  0  0  0  0
  183.3630  178.8090  143.1780 C   0  0  0  0  0  0  0  0  0  0  0  0
  188.5980  177.7500  141.8050 N   0  0  0  0  0  2  0  0  0  0  0  0
  188.2690  175.7330  142.9250 O   0  0  0  0  0  0  0  0  0  0  0  0
  188.3190  176.9920  142.9870 C   0  0  0  0  0  0  0  0  0  0  0  0
  188.9010  177.1300  140.5230 C   0  0  0  0  0  2  0  0  0  0  0  0
  190.3670  177.1780  140.2600 C   0  0  0  0  0  0  0  0  0  0  0  0
  192.5140  177.3640  140.4820 C   0  0  0  0  0  3  0  0  0  0  0  0
  192.2370  176.9530  139.2270 N   0  0  0  0  0  0  0  0  0  0  0  0
  191.3320  177.5170  141.1860 C   0  0  0  0  0  2  0  0  0  0  0  0
  190.9290  176.8350  139.0920 N   0  0  0  0  0  0  0  0  0  0  0  0
  190.5770  177.7250  144.7820 C   0  0  0  0  0  2  0  0  0  0  0  0
  191.2170  177.0720  145.9240 C   0  0  0  0  0  0  0  0  0  0  0  0
  191.7450  176.5320  146.8640 C   0  0  0  0  0  0  0  0  0  0  0  0
  193.2230  176.6130  148.8100 O   0  0  0  0  0  1  0  0  0  0  0  0
  192.1540  174.6750  148.2160 O   0  0  0  0  0  0  0  0  0  0  0  0
  192.3730  175.8910  147.9830 C   0  0  0  0  0  0  0  0  0  0  0  0
  1  3  1  0  0  0  0
  1  2  2  0  0  0  0
  3  5  1  0  0  0  0
  5  4  2  0  0  0  0
  6  7  1  0  0  0  0
  6  3  2  0  0  0  0
  7  8  2  0  0  0  0
  8  4  1  0  0  0  0
  9 11  1  0  0  0  0
 11 10  2  0  0  0  0
 11  7  1  0  0  0  0
 12 14  1  0  0  0  0
 13 14  2  0  0  0  0
 14  1  1  0  0  0  0
 15 12  1  0  0  0  0
 16 15  1  0  0  0  0
 16 19  1  0  0  0  0
 17 19  1  0  0  0  0
 18 17  2  0  0  0  0
 20 18  1  0  0  0  0
 20 16  2  0  0  0  0
 21  2  1  0  0  0  0
 21 22  1  0  0  0  0
 22 23  3  0  0  0  0
 23 26  1  0  0  0  0
 26 25  2  0  0  0  0
 26 24  1  0  0  0  0
M  END
>  <MODEL>
4

>  <REMARK>
 VINA RESULT:      -8.3      2.066      6.783
  Name = 
  8 active torsions:
  status: ('A' for Active; 'I' for Inactive)
    1  A    between atoms: C_2  and  C_12
    2  A    between atoms: C_4  and  C_25
    3  A    between atoms: N_5  and  C_25
    4  A    between atoms: C_8  and  C_12
    5  A    between atoms: C_17  and  C_26
    6  A    between atoms: C_18  and  C_22
    7  A    between atoms: C_19  and  C_20
    8  A    between atoms: C_23  and  C_26
                            x       y       z     vdW  Elec       q    Type
                         _______ _______ _______ _____ _____    ______ ____

>  <TORSDO>
F 8

$$$$
=
 OpenBabel10232407543D

 26 27  0  0  0  0  0  0  0  0999 V2000
  188.0590  177.6230  142.1960 C   0  0  0  0  0  0  0  0  0  0  0  0
  188.2470  178.1120  140.9600 C   0  0  0  0  0  3  0  0  0  0  0  0
  186.8030  177.9710  142.9160 C   0  0  0  0  0  0  0  0  0  0  0  0
  184.4610  178.6420  142.8870 C   0  0  0  0  0  3  0  0  0  0  0  0
  185.6340  178.3020  142.2080 C   0  0  0  0  0  3  0  0  0  0  0  0
  186.7680  177.9990  144.3190 C   0  0  0  0  0  3  0  0  0  0  0  0
  185.5970  178.3370  145.0100 C   0  0  0  0  0  0  0  0  0  0  0  0
  184.4430  178.6580  144.2830 C   0  0  0  0  0  3  0  0  0  0  0  0
  186.8010  178.3090  147.2180 N   0  0  0  0  0  1  0  0  0  0  0  0
  184.4890  178.4160  147.1070 O   0  0  0  0  0  0  0  0  0  0  0  0
  185.5820  178.3570  146.4830 C   0  0  0  0  0  0  0  0  0  0  0  0
  190.2780  177.3020  143.3780 N   0  0  0  0  0  2  0  0  0  0  0  0
  188.8530  175.5100  142.9460 O   0  0  0  0  0  0  0  0  0  0  0  0
  189.0700  176.7490  142.8460 C   0  0  0  0  0  0  0  0  0  0  0  0
  191.2590  176.5070  144.1050 C   0  0  0  0  0  2  0  0  0  0  0  0
  191.1270  176.7390  145.5710 C   0  0  0  0  0  0  0  0  0  0  0  0
  190.3510  177.1810  147.5440 C   0  0  0  0  0  3  0  0  0  0  0  0
  191.6280  176.7620  147.6590 N   0  0  0  0  0  0  0  0  0  0  0  0
  189.9850  177.1760  146.2090 C   0  0  0  0  0  3  0  0  0  0  0  0
  192.1010  176.4870  146.4580 N   0  0  0  0  0  2  0  0  0  0  0  0
  189.4290  177.8250  140.0950 C   0  0  0  0  0  2  0  0  0  0  0  0
  189.0380  177.9070  138.6870 C   0  0  0  0  0  0  0  0  0  0  0  0
  188.7170  177.9750  137.5270 C   0  0  0  0  0  0  0  0  0  0  0  0
  189.2480  177.7320  135.1530 O   0  0  0  0  0  0  0  0  0  0  0  0
  187.1710  178.4170  135.8360 O   0  0  0  0  0  1  0  0  0  0  0  0
  188.3340  178.0550  136.1470 C   0  0  0  0  0  0  0  0  0  0  0  0
  1 14  1  0  0  0  0
  1  3  1  0  0  0  0
  2  1  2  0  0  0  0
  3  6  1  0  0  0  0
  4  8  2  0  0  0  0
  5  4  1  0  0  0  0
  5  3  2  0  0  0  0
  6  7  2  0  0  0  0
  7 11  1  0  0  0  0
  8  7  1  0  0  0  0
 11 10  2  0  0  0  0
 11  9  1  0  0  0  0
 12 15  1  0  0  0  0
 14 13  2  0  0  0  0
 14 12  1  0  0  0  0
 15 16  1  0  0  0  0
 16 19  2  0  0  0  0
 16 20  1  0  0  0  0
 17 18  2  0  0  0  0
 19 17  1  0  0  0  0
 20 18  1  0  0  0  0
 21  2  1  0  0  0  0
 22 21  1  0  0  0  0
 23 22  3  0  0  0  0
 24 26  2  0  0  0  0
 25 26  1  0  0  0  0
 26 23  1  0  0  0  0
M  END
>  <MODEL>
5

>  <REMARK>
 VINA RESULT:      -8.2      2.870      6.751
  Name = 
  8 active torsions:
  status: ('A' for Active; 'I' for Inactive)
    1  A    between atoms: C_2  and  C_12
    2  A    between atoms: C_4  and  C_25
    3  A    between atoms: N_5  and  C_25
    4  A    between atoms: C_8  and  C_12
    5  A    between atoms: C_17  and  C_26
    6  A    between atoms: C_18  and  C_22
    7  A    between atoms: C_19  and  C_20
    8  A    between atoms: C_23  and  C_26
                            x       y       z     vdW  Elec       q    Type
                         _______ _______ _______ _____ _____    ______ ____

>  <TORSDO>
F 8

$$$$
=
 OpenBabel10232407543D

 26 27  0  0  0  0  0  0  0  0999 V2000
  189.4800  177.6730  142.1920 C   0  0  0  0  0  0  0  0  0  0  0  0
  190.3470  178.2880  143.0120 C   0  0  0  0  0  3  0  0  0  0  0  0
  189.8990  177.3940  140.7910 C   0  0  0  0  0  0  0  0  0  0  0  0
  189.3430  176.9730  138.4570 C   0  0  0  0  0  3  0  0  0  0  0  0
  188.9460  177.2480  139.7680 C   0  0  0  0  0  3  0  0  0  0  0  0
  191.2580  177.2470  140.4680 C   0  0  0  0  0  3  0  0  0  0  0  0
  191.6670  176.9720  139.1560 C   0  0  0  0  0  0  0  0  0  0  0  0
  190.6990  176.8360  138.1520 C   0  0  0  0  0  3  0  0  0  0  0  0
  193.5160  176.5390  137.5070 N   0  0  0  0  0  1  0  0  0  0  0  0
  193.9660  176.9510  139.7430 O   0  0  0  0  0  0  0  0  0  0  0  0
  193.0980  176.8250  138.8390 C   0  0  0  0  0  0  0  0  0  0  0  0
  187.0480  178.2080  142.6630 N   0  0  0  0  0  2  0  0  0  0  0  0
  187.9240  176.0810  143.0320 O   0  0  0  0  0  0  0  0  0  0  0  0
  188.1270  177.2690  142.6570 C   0  0  0  0  0  0  0  0  0  0  0  0
  185.6840  177.8430  143.0210 C   0  0  0  0  0  2  0  0  0  0  0  0
  185.4030  178.2190  144.4360 C   0  0  0  0  0  0  0  0  0  0  0  0
  185.5950  178.6510  146.5490 C   0  0  0  0  0  3  0  0  0  0  0  0
  184.3520  178.9830  146.1460 N   0  0  0  0  0  0  0  0  0  0  0  0
  186.3110  178.1570  145.4720 C   0  0  0  0  0  2  0  0  0  0  0  0
  184.2350  178.7250  144.8570 N   0  0  0  0  0  0  0  0  0  0  0  0
  190.0940  178.6020  144.4490 C   0  0  0  0  0  2  0  0  0  0  0  0
  190.8210  177.6540  145.2930 C   0  0  0  0  0  0  0  0  0  0  0  0
  191.4210  176.8730  145.9900 C   0  0  0  0  0  0  0  0  0  0  0  0
  192.4740  176.2920  148.1190 O   0  0  0  0  0  1  0  0  0  0  0  0
  192.4510  174.8140  146.3680 O   0  0  0  0  0  0  0  0  0  0  0  0
  192.1340  175.9440  146.8180 C   0  0  0  0  0  0  0  0  0  0  0  0
  1 14  1  0  0  0  0
  1  2  2  0  0  0  0
  2 21  1  0  0  0  0
  3  1  1  0  0  0  0
  4  5  1  0  0  0  0
  5  3  2  0  0  0  0
  6  3  1  0  0  0  0
  7  6  2  0  0  0  0
  8  4  2  0  0  0  0
  8  7  1  0  0  0  0
  9 11  1  0  0  0  0
 11  7  1  0  0  0  0
 11 10  2  0  0  0  0
 12 15  1  0  0  0  0
 14 12  1  0  0  0  0
 14 13  2  0  0  0  0
 15 16  1  0  0  0  0
 16 20  2  0  0  0  0
 16 19  1  0  0  0  0
 18 17  2  0  0  0  0
 19 17  1  0  0  0  0
 20 18  1  0  0  0  0
 21 22  1  0  0  0  0
 22 23  3  0  0  0  0
 23 26  1  0  0  0  0
 25 26  2  0  0  0  0
 26 24  1  0  0  0  0
M  END
>  <MODEL>
6

>  <REMARK>
 VINA RESULT:      -8.1      3.255      7.830
  Name = 
  8 active torsions:
  status: ('A' for Active; 'I' for Inactive)
    1  A    between atoms: C_2  and  C_12
    2  A    between atoms: C_4  and  C_25
    3  A    between atoms: N_5  and  C_25
    4  A    between atoms: C_8  and  C_12
    5  A    between atoms: C_17  and  C_26
    6  A    between atoms: C_18  and  C_22
    7  A    between atoms: C_19  and  C_20
    8  A    between atoms: C_23  and  C_26
                            x       y       z     vdW  Elec       q    Type
                         _______ _______ _______ _____ _____    ______ ____

>  <TORSDO>
F 8

$$$$
=
 OpenBabel10232407543D

 26 27  0  0  0  0  0  0  0  0999 V2000
  188.0370  177.5940  142.6790 C   0  0  0  0  0  0  0  0  0  0  0  0
  187.9360  178.1170  141.4470 C   0  0  0  0  0  3  0  0  0  0  0  0
  186.9690  177.8970  143.6710 C   0  0  0  0  0  0  0  0  0  0  0  0
  186.2320  178.1530  145.9790 C   0  0  0  0  0  3  0  0  0  0  0  0
  187.2400  177.8810  145.0510 C   0  0  0  0  0  3  0  0  0  0  0  0
  185.6610  178.1830  143.2480 C   0  0  0  0  0  3  0  0  0  0  0  0
  184.6430  178.4580  144.1700 C   0  0  0  0  0  0  0  0  0  0  0  0
  184.9380  178.4410  145.5400 C   0  0  0  0  0  3  0  0  0  0  0  0
  182.9910  178.8290  142.3100 N   0  0  0  0  0  1  0  0  0  0  0  0
  182.3510  178.9570  144.5340 O   0  0  0  0  0  0  0  0  0  0  0  0
  183.2780  178.7590  143.7040 C   0  0  0  0  0  0  0  0  0  0  0  0
  190.4050  177.2970  143.5340 N   0  0  0  0  0  2  0  0  0  0  0  0
  189.0660  175.4700  142.9870 O   0  0  0  0  0  0  0  0  0  0  0  0
  189.1810  176.7250  143.0620 C   0  0  0  0  0  0  0  0  0  0  0  0
  191.5230  176.4920  144.0080 C   0  0  0  0  0  2  0  0  0  0  0  0
  191.5260  176.4400  145.4970 C   0  0  0  0  0  0  0  0  0  0  0  0
  191.0730  176.7660  147.5900 C   0  0  0  0  0  3  0  0  0  0  0  0
  191.9830  175.7760  147.4880 N   0  0  0  0  0  0  0  0  0  0  0  0
  190.7450  177.2210  146.3240 C   0  0  0  0  0  2  0  0  0  0  0  0
  192.2570  175.5730  146.2130 N   0  0  0  0  0  0  0  0  0  0  0  0
  188.9000  177.8770  140.3320 C   0  0  0  0  0  2  0  0  0  0  0  0
  188.1810  177.8610  139.0580 C   0  0  0  0  0  0  0  0  0  0  0  0
  187.5890  177.8480  138.0080 C   0  0  0  0  0  0  0  0  0  0  0  0
  185.5620  177.4120  136.7120 O   0  0  0  0  0  1  0  0  0  0  0  0
  187.4650  178.1980  135.7040 O   0  0  0  0  0  0  0  0  0  0  0  0
  186.8850  177.8310  136.7580 C   0  0  0  0  0  0  0  0  0  0  0  0
  1 14  1  0  0  0  0
  1  3  1  0  0  0  0
  2  1  2  0  0  0  0
  3  5  1  0  0  0  0
  5  4  2  0  0  0  0
  6  3  2  0  0  0  0
  6  7  1  0  0  0  0
  7  8  2  0  0  0  0
  8  4  1  0  0  0  0
  9 11  1  0  0  0  0
 11  7  1  0  0  0  0
 11 10  2  0  0  0  0
 12 15  1  0  0  0  0
 13 14  2  0  0  0  0
 14 12  1  0  0  0  0
 15 16  1  0  0  0  0
 16 20  2  0  0  0  0
 16 19  1  0  0  0  0
 18 17  2  0  0  0  0
 19 17  1  0  0  0  0
 20 18  1  0  0  0  0
 21  2  1  0  0  0  0
 22 21  1  0  0  0  0
 23 22  3  0  0  0  0
 24 26  1  0  0  0  0
 25 26  2  0  0  0  0
 26 23  1  0  0  0  0
M  END
>  <MODEL>
7

>  <REMARK>
 VINA RESULT:      -7.8      2.663      6.781
  Name = 
  8 active torsions:
  status: ('A' for Active; 'I' for Inactive)
    1  A    between atoms: C_2  and  C_12
    2  A    between atoms: C_4  and  C_25
    3  A    between atoms: N_5  and  C_25
    4  A    between atoms: C_8  and  C_12
    5  A    between atoms: C_17  and  C_26
    6  A    between atoms: C_18  and  C_22
    7  A    between atoms: C_19  and  C_20
    8  A    between atoms: C_23  and  C_26
                            x       y       z     vdW  Elec       q    Type
                         _______ _______ _______ _____ _____    ______ ____

>  <TORSDO>
F 8

$$$$
=
 OpenBabel10232407543D

 26 27  0  0  0  0  0  0  0  0999 V2000
  186.6760  178.2810  144.5810 C   0  0  0  0  0  0  0  0  0  0  0  0
  187.1300  178.0530  143.3380 C   0  0  0  0  0  3  0  0  0  0  0  0
  187.5500  177.9260  145.7340 C   0  0  0  0  0  0  0  0  0  0  0  0
  187.8800  177.6310  148.1290 C   0  0  0  0  0  3  0  0  0  0  0  0
  187.0540  177.9520  147.0490 C   0  0  0  0  0  3  0  0  0  0  0  0
  188.8940  177.5790  145.5310 C   0  0  0  0  0  3  0  0  0  0  0  0
  189.7320  177.2540  146.6070 C   0  0  0  0  0  0  0  0  0  0  0  0
  189.2130  177.2820  147.9090 C   0  0  0  0  0  3  0  0  0  0  0  0
  191.9850  176.5320  147.4600 N   0  0  0  0  0  1  0  0  0  0  0  0
  191.6090  176.8900  145.2020 O   0  0  0  0  0  0  0  0  0  0  0  0
  191.1390  176.8890  146.3710 C   0  0  0  0  0  0  0  0  0  0  0  0
  184.1770  178.3540  144.1670 N   0  0  0  0  0  2  0  0  0  0  0  0
  185.2190  179.8470  145.6210 O   0  0  0  0  0  0  0  0  0  0  0  0
  185.3370  178.8790  144.8210 C   0  0  0  0  0  0  0  0  0  0  0  0
  182.8300  178.8410  144.4340 C   0  0  0  0  0  2  0  0  0  0  0  0
  182.0690  178.9780  143.1610 C   0  0  0  0  0  0  0  0  0  0  0  0
  181.4920  178.9770  141.0730 C   0  0  0  0  0  3  0  0  0  0  0  0
  180.4080  179.2500  141.8270 N   0  0  0  0  0  0  0  0  0  0  0  0
  182.5890  178.7880  141.8970 C   0  0  0  0  0  3  0  0  0  0  0  0
  180.7560  179.2460  143.1000 N   0  0  0  0  0  2  0  0  0  0  0  0
  186.3950  178.3880  142.0830 C   0  0  0  0  0  2  0  0  0  0  0  0
  187.3290  178.4020  140.9570 C   0  0  0  0  0  0  0  0  0  0  0  0
  188.1000  178.4130  140.0300 C   0  0  0  0  0  0  0  0  0  0  0  0
  189.9440  177.4030  138.7820 O   0  0  0  0  0  1  0  0  0  0  0  0
  188.9820  179.3640  138.0900 O   0  0  0  0  0  0  0  0  0  0  0  0
  189.0170  178.4260  138.9270 C   0  0  0  0  0  0  0  0  0  0  0  0
  1 14  1  0  0  0  0
  1  3  1  0  0  0  0
  2  1  2  0  0  0  0
  3  5  1  0  0  0  0
  5  4  2  0  0  0  0
  6  3  2  0  0  0  0
  6  7  1  0  0  0  0
  7  8  2  0  0  0  0
  8  4  1  0  0  0  0
 10 11  2  0  0  0  0
 11  7  1  0  0  0  0
 11  9  1  0  0  0  0
 12 15  1  0  0  0  0
 12 14  1  0  0  0  0
 14 13  2  0  0  0  0
 16 15  1  0  0  0  0
 17 18  2  0  0  0  0
 17 19  1  0  0  0  0
 18 20  1  0  0  0  0
 19 16  2  0  0  0  0
 20 16  1  0  0  0  0
 21  2  1  0  0  0  0
 22 21  1  0  0  0  0
 23 22  3  0  0  0  0
 24 26  1  0  0  0  0
 25 26  2  0  0  0  0
 26 23  1  0  0  0  0
M  END
>  <MODEL>
8

>  <REMARK>
 VINA RESULT:      -7.8      3.174      5.577
  Name = 
  8 active torsions:
  status: ('A' for Active; 'I' for Inactive)
    1  A    between atoms: C_2  and  C_12
    2  A    between atoms: C_4  and  C_25
    3  A    between atoms: N_5  and  C_25
    4  A    between atoms: C_8  and  C_12
    5  A    between atoms: C_17  and  C_26
    6  A    between atoms: C_18  and  C_22
    7  A    between atoms: C_19  and  C_20
    8  A    between atoms: C_23  and  C_26
                            x       y       z     vdW  Elec       q    Type
                         _______ _______ _______ _____ _____    ______ ____

>  <TORSDO>
F 8

$$$$
=
 OpenBabel10232407543D

 26 27  0  0  0  0  0  0  0  0999 V2000
  189.4420  177.2550  142.4980 C   0  0  0  0  0  0  0  0  0  0  0  0
  190.1320  176.7140  141.4810 C   0  0  0  0  0  3  0  0  0  0  0  0
  189.9690  177.0930  143.8810 C   0  0  0  0  0  0  0  0  0  0  0  0
  191.7540  176.4430  145.4050 C   0  0  0  0  0  3  0  0  0  0  0  0
  191.2680  176.6070  144.1060 C   0  0  0  0  0  3  0  0  0  0  0  0
  189.1670  177.4020  144.9910 C   0  0  0  0  0  3  0  0  0  0  0  0
  189.6440  177.2420  146.2990 C   0  0  0  0  0  0  0  0  0  0  0  0
  190.9450  176.7600  146.4980 C   0  0  0  0  0  3  0  0  0  0  0  0
  189.2820  178.3910  148.5070 N   0  0  0  0  0  1  0  0  0  0  0  0
  187.6060  177.1400  147.5100 O   0  0  0  0  0  0  0  0  0  0  0  0
  188.7870  177.5750  147.4500 C   0  0  0  0  0  0  0  0  0  0  0  0
  186.9240  177.4700  142.6890 N   0  0  0  0  0  2  0  0  0  0  0  0
  188.2210  179.1380  141.7070 O   0  0  0  0  0  0  0  0  0  0  0  0
  188.1810  178.0070  142.2660 C   0  0  0  0  0  0  0  0  0  0  0  0
  185.6710  178.2030  142.5700 C   0  0  0  0  0  2  0  0  0  0  0  0
  185.0800  178.4380  143.9180 C   0  0  0  0  0  0  0  0  0  0  0  0
  184.8040  178.6900  146.0510 C   0  0  0  0  0  3  0  0  0  0  0  0
  183.6510  178.9960  145.4210 N   0  0  0  0  0  0  0  0  0  0  0  0
  185.7570  178.3280  145.1140 C   0  0  0  0  0  2  0  0  0  0  0  0
  183.8200  178.8480  144.1200 N   0  0  0  0  0  0  0  0  0  0  0  0
  189.7600  176.8210  140.0390 C   0  0  0  0  0  2  0  0  0  0  0  0
  190.9410  176.5840  139.2090 C   0  0  0  0  0  0  0  0  0  0  0  0
  191.9150  176.3900  138.5250 C   0  0  0  0  0  0  0  0  0  0  0  0
  194.2900  175.8530  138.3050 O   0  0  0  0  0  1  0  0  0  0  0  0
  192.9870  176.2330  136.4580 O   0  0  0  0  0  0  0  0  0  0  0  0
  193.0730  176.1590  137.7110 C   0  0  0  0  0  0  0  0  0  0  0  0
  1  3  1  0  0  0  0
  2  1  2  0  0  0  0
  3  5  2  0  0  0  0
  3  6  1  0  0  0  0
  4  8  2  0  0  0  0
  5  4  1  0  0  0  0
  6  7  2  0  0  0  0
  7  8  1  0  0  0  0
  7 11  1  0  0  0  0
 11 10  2  0  0  0  0
 11  9  1  0  0  0  0
 13 14  2  0  0  0  0
 14  1  1  0  0  0  0
 14 12  1  0  0  0  0
 15 12  1  0  0  0  0
 15 16  1  0  0  0  0
 16 20  2  0  0  0  0
 16 19  1  0  0  0  0
 18 17  2  0  0  0  0
 19 17  1  0  0  0  0
 20 18  1  0  0  0  0
 21  2  1  0  0  0  0
 22 21  1  0  0  0  0
 23 22  3  0  0  0  0
 25 26  2  0  0  0  0
 26 24  1  0  0  0  0
 26 23  1  0  0  0  0
M  END
>  <MODEL>
9

>  <REMARK>
 VINA RESULT:      -7.8      3.406      7.056
  Name = 
  8 active torsions:
  status: ('A' for Active; 'I' for Inactive)
    1  A    between atoms: C_2  and  C_12
    2  A    between atoms: C_4  and  C_25
    3  A    between atoms: N_5  and  C_25
    4  A    between atoms: C_8  and  C_12
    5  A    between atoms: C_17  and  C_26
    6  A    between atoms: C_18  and  C_22
    7  A    between atoms: C_19  and  C_20
    8  A    between atoms: C_23  and  C_26
                            x       y       z     vdW  Elec       q    Type
                         _______ _______ _______ _____ _____    ______ ____

>  <TORSDO>
F 8

$$$$
