=
 OpenBabel10232409443D

 25 28  0  0  0  0  0  0  0  0999 V2000
  187.4220  177.9540  145.3400 C   0  0  0  0  0  3  0  0  0  0  0  0
  182.8700  178.8920  143.5660 N   0  0  0  0  0  0  0  0  0  0  0  0
  184.9230  178.2230  142.5760 C   0  0  0  0  0  3  0  0  0  0  0  0
  185.2950  178.6330  146.2580 C   0  0  0  0  0  3  0  0  0  0  0  0
  182.7430  178.6070  141.3930 C   0  0  0  0  0  3  0  0  0  0  0  0
  183.5770  178.5550  142.4870 C   0  0  0  0  0  0  0  0  0  0  0  0
  186.9010  177.9310  144.0370 C   0  0  0  0  0  0  0  0  0  0  0  0
  181.6330  179.1530  143.1930 N   0  0  0  0  0  0  0  0  0  0  0  0
  184.7360  178.6150  144.9830 C   0  0  0  0  0  0  0  0  0  0  0  0
  183.3810  178.9380  144.8180 C   0  0  0  0  0  3  0  0  0  0  0  0
  185.5310  178.2580  143.8480 C   0  0  0  0  0  0  0  0  0  0  0  0
  186.6350  178.3020  146.4460 C   0  0  0  0  0  0  0  0  0  0  0  0
  181.5310  178.9870  141.8790 N   0  0  0  0  0  0  0  0  0  0  0  0
  189.3020  177.3190  140.9490 C   0  0  0  0  0  3  0  0  0  0  0  0
  188.1280  178.3850  141.5010 S   0  0  0  0  0  0  0  0  0  0  0  0
  187.8310  177.5570  142.9380 C   0  0  0  0  0  0  0  0  0  0  0  0
  188.6850  176.4570  142.9560 C   0  0  0  0  0  3  0  0  0  0  0  0
  189.4820  176.3340  141.8580 N   0  0  0  0  0  0  0  0  0  0  0  0
  187.1610  178.3260  147.7410 O   0  0  0  0  0  0  0  0  0  0  0  0
  188.0080  177.3000  148.2440 C   0  0  0  0  0  2  0  0  0  0  0  0
  189.4190  177.5600  147.8360 C   0  0  0  0  0  3  0  0  0  0  0  0
  190.1550  176.5920  147.2950 C   0  0  0  0  0  3  0  0  0  0  0  0
  192.4300  176.1650  147.7390 O   0  0  0  0  0  1  0  0  0  0  0  0
  191.7690  176.4120  145.5760 O   0  0  0  0  0  1  0  0  0  0  0  0
  191.5670  176.8500  146.8850 C   0  0  0  0  0  3  0  0  0  0  0  0
  1 12  1  0  0  0  0
  2 10  1  0  0  0  0
  3 11  2  0  0  0  0
  4 12  2  0  0  0  0
  5 13  1  0  0  0  0
  5  6  2  0  0  0  0
  6  3  1  0  0  0  0
  6  2  1  0  0  0  0
  7  1  2  0  0  0  0
  8  2  1  0  0  0  0
  9  4  1  0  0  0  0
 10  9  2  0  0  0  0
 11  7  1  0  0  0  0
 11  9  1  0  0  0  0
 12 19  1  0  0  0  0
 13  8  2  0  0  0  0
 14 15  1  0  0  0  0
 14 18  2  0  0  0  0
 15 16  1  0  0  0  0
 16 17  2  0  0  0  0
 16  7  1  0  0  0  0
 18 17  1  0  0  0  0
 19 20  1  0  0  0  0
 21 20  1  0  0  0  0
 22 21  2  0  0  0  0
 24 25  1  0  0  0  0
 25 22  1  0  0  0  0
 25 23  1  0  0  0  0
M  END
>  <MODEL>
1

>  <REMARK>
 VINA RESULT:      -9.2      0.000      0.000
  Name = 
  5 active torsions:
  status: ('A' for Active; 'I' for Inactive)
    1  A    between atoms: C_3  and  C_13
    2  A    between atoms: C_10  and  C_23
    3  A    between atoms: C_11  and  C_18
    4  A    between atoms: C_13  and  O_22
    5  A    between atoms: O_22  and  C_24
                            x       y       z     vdW  Elec       q    Type
                         _______ _______ _______ _____ _____    ______ ____

>  <TORSDO>
F 5

$$$$
=
 OpenBabel10232409443D

 25 28  0  0  0  0  0  0  0  0999 V2000
  186.6220  178.0100  142.5920 C   0  0  0  0  0  3  0  0  0  0  0  0
  189.5940  177.1590  146.4900 N   0  0  0  0  0  0  0  0  0  0  0  0
  189.9510  177.3320  144.1470 C   0  0  0  0  0  3  0  0  0  0  0  0
  186.3540  177.8170  144.9840 C   0  0  0  0  0  3  0  0  0  0  0  0
  191.6940  176.9050  145.9030 C   0  0  0  0  0  3  0  0  0  0  0  0
  190.4170  177.1380  145.4420 C   0  0  0  0  0  0  0  0  0  0  0  0
  188.0010  177.7630  142.6830 C   0  0  0  0  0  0  0  0  0  0  0  0
  190.2990  176.9510  147.5830 N   0  0  0  0  0  0  0  0  0  0  0  0
  187.7200  177.5770  145.1190 C   0  0  0  0  0  0  0  0  0  0  0  0
  188.2610  177.3730  146.3970 C   0  0  0  0  0  3  0  0  0  0  0  0
  188.5690  177.5500  143.9680 C   0  0  0  0  0  0  0  0  0  0  0  0
  185.7990  178.0370  143.7250 C   0  0  0  0  0  0  0  0  0  0  0  0
  191.5760  176.7920  147.2520 N   0  0  0  0  0  0  0  0  0  0  0  0
  190.2720  177.3880  139.4620 C   0  0  0  0  0  3  0  0  0  0  0  0
  190.1490  176.8430  141.0450 S   0  0  0  0  0  0  0  0  0  0  0  0
  188.7750  177.7460  141.4130 C   0  0  0  0  0  0  0  0  0  0  0  0
  188.4350  178.4530  140.2620 C   0  0  0  0  0  3  0  0  0  0  0  0
  189.2650  178.2530  139.2010 N   0  0  0  0  0  0  0  0  0  0  0  0
  184.4260  178.2800  143.6270 O   0  0  0  0  0  0  0  0  0  0  0  0
  183.6570  178.7890  144.7090 C   0  0  0  0  0  2  0  0  0  0  0  0
  182.2520  179.0280  144.2670 C   0  0  0  0  0  3  0  0  0  0  0  0
  181.9480  179.0650  142.9710 C   0  0  0  0  0  3  0  0  0  0  0  0
  180.1590  180.5950  142.8790 O   0  0  0  0  0  1  0  0  0  0  0  0
  180.4530  179.1550  141.1420 O   0  0  0  0  0  1  0  0  0  0  0  0
  180.5440  179.3030  142.5260 C   0  0  0  0  0  3  0  0  0  0  0  0
  1  7  2  0  0  0  0
  1 12  1  0  0  0  0
  2  8  1  0  0  0  0
  3  6  1  0  0  0  0
  4  9  1  0  0  0  0
  5 13  1  0  0  0  0
  6  5  2  0  0  0  0
  6  2  1  0  0  0  0
  7 11  1  0  0  0  0
  9 10  2  0  0  0  0
 10  2  1  0  0  0  0
 11  3  2  0  0  0  0
 11  9  1  0  0  0  0
 12  4  2  0  0  0  0
 13  8  2  0  0  0  0
 14 15  1  0  0  0  0
 15 16  1  0  0  0  0
 16  7  1  0  0  0  0
 17 16  2  0  0  0  0
 18 14  2  0  0  0  0
 18 17  1  0  0  0  0
 19 12  1  0  0  0  0
 19 20  1  0  0  0  0
 21 20  1  0  0  0  0
 22 21  2  0  0  0  0
 24 25  1  0  0  0  0
 25 23  1  0  0  0  0
 25 22  1  0  0  0  0
M  END
>  <MODEL>
2

>  <REMARK>
 VINA RESULT:      -8.7      4.099      7.207
  Name = 
  5 active torsions:
  status: ('A' for Active; 'I' for Inactive)
    1  A    between atoms: C_3  and  C_13
    2  A    between atoms: C_10  and  C_23
    3  A    between atoms: C_11  and  C_18
    4  A    between atoms: C_13  and  O_22
    5  A    between atoms: O_22  and  C_24
                            x       y       z     vdW  Elec       q    Type
                         _______ _______ _______ _____ _____    ______ ____

>  <TORSDO>
F 5

$$$$
=
 OpenBabel10232409443D

 25 28  0  0  0  0  0  0  0  0999 V2000
  190.3900  176.5670  143.5730 C   0  0  0  0  0  3  0  0  0  0  0  0
  185.8170  178.1920  144.6690 N   0  0  0  0  0  0  0  0  0  0  0  0
  187.7720  177.7680  145.9520 C   0  0  0  0  0  3  0  0  0  0  0  0
  188.3590  177.0230  142.3510 C   0  0  0  0  0  3  0  0  0  0  0  0
  185.5710  178.6210  146.8070 C   0  0  0  0  0  3  0  0  0  0  0  0
  186.4490  178.1780  145.8430 C   0  0  0  0  0  0  0  0  0  0  0  0
  189.7890  176.9250  144.7900 C   0  0  0  0  0  0  0  0  0  0  0  0
  184.5870  178.6230  144.8570 N   0  0  0  0  0  0  0  0  0  0  0  0
  187.7270  177.3960  143.5350 C   0  0  0  0  0  0  0  0  0  0  0  0
  186.3910  177.8220  143.5010 C   0  0  0  0  0  3  0  0  0  0  0  0
  188.4360  177.3560  144.7780 C   0  0  0  0  0  0  0  0  0  0  0  0
  189.6900  176.6100  142.3610 C   0  0  0  0  0  0  0  0  0  0  0  0
  184.4130  178.8890  146.1480 N   0  0  0  0  0  0  0  0  0  0  0  0
  191.6730  176.7950  148.2700 C   0  0  0  0  0  3  0  0  0  0  0  0
  190.2510  177.3520  147.5740 S   0  0  0  0  0  0  0  0  0  0  0  0
  190.6260  176.8280  146.0170 C   0  0  0  0  0  0  0  0  0  0  0  0
  191.8700  176.2070  146.0870 C   0  0  0  0  0  3  0  0  0  0  0  0
  192.4370  176.2000  147.3260 N   0  0  0  0  0  0  0  0  0  0  0  0
  190.2930  176.2490  141.1530 O   0  0  0  0  0  0  0  0  0  0  0  0
  190.9820  177.1820  140.3300 C   0  0  0  0  0  2  0  0  0  0  0  0
  190.2120  177.4180  139.0750 C   0  0  0  0  0  3  0  0  0  0  0  0
  189.1720  178.2500  139.0660 C   0  0  0  0  0  3  0  0  0  0  0  0
  187.0380  178.5230  138.1060 O   0  0  0  0  0  1  0  0  0  0  0  0
  188.7810  179.7030  137.2430 O   0  0  0  0  0  1  0  0  0  0  0  0
  188.3990  178.4880  137.8120 C   0  0  0  0  0  3  0  0  0  0  0  0
  1  7  2  0  0  0  0
  2  8  1  0  0  0  0
  2  6  1  0  0  0  0
  4 12  2  0  0  0  0
  4  9  1  0  0  0  0
  6  3  1  0  0  0  0
  6  5  2  0  0  0  0
  7 16  1  0  0  0  0
  8 13  2  0  0  0  0
  9 11  1  0  0  0  0
 10  9  2  0  0  0  0
 10  2  1  0  0  0  0
 11  7  1  0  0  0  0
 11  3  2  0  0  0  0
 12  1  1  0  0  0  0
 13  5  1  0  0  0  0
 15 14  1  0  0  0  0
 16 17  2  0  0  0  0
 16 15  1  0  0  0  0
 17 18  1  0  0  0  0
 18 14  2  0  0  0  0
 19 12  1  0  0  0  0
 20 19  1  0  0  0  0
 21 20  1  0  0  0  0
 22 21  2  0  0  0  0
 24 25  1  0  0  0  0
 25 23  1  0  0  0  0
 25 22  1  0  0  0  0
M  END
>  <MODEL>
3

>  <REMARK>
 VINA RESULT:      -8.6      3.698      6.350
  Name = 
  5 active torsions:
  status: ('A' for Active; 'I' for Inactive)
    1  A    between atoms: C_3  and  C_13
    2  A    between atoms: C_10  and  C_23
    3  A    between atoms: C_11  and  C_18
    4  A    between atoms: C_13  and  O_22
    5  A    between atoms: O_22  and  C_24
                            x       y       z     vdW  Elec       q    Type
                         _______ _______ _______ _____ _____    ______ ____

>  <TORSDO>
F 5

$$$$
=
 OpenBabel10232409443D

 25 28  0  0  0  0  0  0  0  0999 V2000
  187.2460  177.9150  142.3260 C   0  0  0  0  0  3  0  0  0  0  0  0
  190.9110  176.9670  145.5560 N   0  0  0  0  0  0  0  0  0  0  0  0
  188.6270  177.5850  145.7820 C   0  0  0  0  0  3  0  0  0  0  0  0
  189.5740  177.2890  142.1930 C   0  0  0  0  0  3  0  0  0  0  0  0
  190.2550  177.1480  147.6430 C   0  0  0  0  0  3  0  0  0  0  0  0
  189.8620  177.2530  146.3270 C   0  0  0  0  0  0  0  0  0  0  0  0
  187.2890  177.9410  143.7290 C   0  0  0  0  0  0  0  0  0  0  0  0
  191.9400  176.6900  146.3300 N   0  0  0  0  0  0  0  0  0  0  0  0
  189.6580  177.2940  143.5830 C   0  0  0  0  0  0  0  0  0  0  0  0
  190.8730  176.9680  144.2030 C   0  0  0  0  0  3  0  0  0  0  0  0
  188.5120  177.6170  144.3770 C   0  0  0  0  0  0  0  0  0  0  0  0
  188.3730  177.5960  141.5570 C   0  0  0  0  0  0  0  0  0  0  0  0
  191.5670  176.7940  147.6010 N   0  0  0  0  0  0  0  0  0  0  0  0
  183.7530  178.8500  145.2600 C   0  0  0  0  0  3  0  0  0  0  0  0
  184.5120  178.5960  143.7850 S   0  0  0  0  0  0  0  0  0  0  0  0
  186.0360  178.3050  144.4430 C   0  0  0  0  0  0  0  0  0  0  0  0
  185.9050  178.4020  145.8260 C   0  0  0  0  0  3  0  0  0  0  0  0
  184.6510  178.7060  146.2620 N   0  0  0  0  0  0  0  0  0  0  0  0
  188.3240  177.5750  140.1600 O   0  0  0  0  0  0  0  0  0  0  0  0
  189.1680  178.3840  139.3510 C   0  0  0  0  0  2  0  0  0  0  0  0
  189.9220  177.5280  138.3890 C   0  0  0  0  0  3  0  0  0  0  0  0
  190.9050  176.7380  138.8140 C   0  0  0  0  0  3  0  0  0  0  0  0
  193.0290  176.0530  138.0560 O   0  0  0  0  0  1  0  0  0  0  0  0
  191.3290  174.5400  138.0530 O   0  0  0  0  0  1  0  0  0  0  0  0
  191.6610  175.8800  137.8540 C   0  0  0  0  0  3  0  0  0  0  0  0
  1  7  2  0  0  0  0
  2  6  1  0  0  0  0
  2  8  1  0  0  0  0
  3  6  1  0  0  0  0
  4  9  1  0  0  0  0
  6  5  2  0  0  0  0
  7 11  1  0  0  0  0
  7 16  1  0  0  0  0
  8 13  2  0  0  0  0
  9 10  2  0  0  0  0
  9 11  1  0  0  0  0
 10  2  1  0  0  0  0
 11  3  2  0  0  0  0
 12  4  2  0  0  0  0
 12  1  1  0  0  0  0
 13  5  1  0  0  0  0
 14 18  2  0  0  0  0
 15 16  1  0  0  0  0
 15 14  1  0  0  0  0
 16 17  2  0  0  0  0
 17 18  1  0  0  0  0
 19 12  1  0  0  0  0
 20 19  1  0  0  0  0
 21 22  2  0  0  0  0
 21 20  1  0  0  0  0
 25 24  1  0  0  0  0
 25 23  1  0  0  0  0
 25 22  1  0  0  0  0
M  END
>  <MODEL>
4

>  <REMARK>
 VINA RESULT:      -8.4      3.607      7.392
  Name = 
  5 active torsions:
  status: ('A' for Active; 'I' for Inactive)
    1  A    between atoms: C_3  and  C_13
    2  A    between atoms: C_10  and  C_23
    3  A    between atoms: C_11  and  C_18
    4  A    between atoms: C_13  and  O_22
    5  A    between atoms: O_22  and  C_24
                            x       y       z     vdW  Elec       q    Type
                         _______ _______ _______ _____ _____    ______ ____

>  <TORSDO>
F 5

$$$$
=
 OpenBabel10232409443D

 25 28  0  0  0  0  0  0  0  0999 V2000
  190.0350  176.9070  143.1150 C   0  0  0  0  0  3  0  0  0  0  0  0
  185.4390  178.3480  144.3600 N   0  0  0  0  0  0  0  0  0  0  0  0
  187.4090  177.8610  145.5960 C   0  0  0  0  0  3  0  0  0  0  0  0
  187.9880  177.4190  141.9440 C   0  0  0  0  0  3  0  0  0  0  0  0
  185.1980  178.5990  146.5270 C   0  0  0  0  0  3  0  0  0  0  0  0
  186.0780  178.2530  145.5260 C   0  0  0  0  0  0  0  0  0  0  0  0
  189.4350  177.1540  144.3600 C   0  0  0  0  0  0  0  0  0  0  0  0
  184.2020  178.7370  144.5890 N   0  0  0  0  0  0  0  0  0  0  0  0
  187.3570  177.6830  143.1570 C   0  0  0  0  0  0  0  0  0  0  0  0
  186.0120  178.0840  143.1630 C   0  0  0  0  0  3  0  0  0  0  0  0
  188.0740  177.5580  144.3890 C   0  0  0  0  0  0  0  0  0  0  0  0
  189.3260  177.0330  141.9140 C   0  0  0  0  0  0  0  0  0  0  0  0
  184.0310  178.8960  145.8970 N   0  0  0  0  0  0  0  0  0  0  0  0
  191.3280  176.6940  147.8070 C   0  0  0  0  0  3  0  0  0  0  0  0
  189.8200  177.0930  147.1880 S   0  0  0  0  0  0  0  0  0  0  0  0
  190.2810  176.9770  145.5710 C   0  0  0  0  0  0  0  0  0  0  0  0
  191.6240  176.6080  145.5590 C   0  0  0  0  0  3  0  0  0  0  0  0
  192.1880  176.4610  146.7900 N   0  0  0  0  0  0  0  0  0  0  0  0
  189.9280  176.7820  140.6780 O   0  0  0  0  0  0  0  0  0  0  0  0
  189.5680  177.4790  139.4920 C   0  0  0  0  0  2  0  0  0  0  0  0
  190.4670  177.0760  138.3720 C   0  0  0  0  0  3  0  0  0  0  0  0
  191.6180  176.4530  138.6200 C   0  0  0  0  0  3  0  0  0  0  0  0
  191.8430  176.1810  136.2900 O   0  0  0  0  0  1  0  0  0  0  0  0
  193.6540  176.8600  137.4890 O   0  0  0  0  0  1  0  0  0  0  0  0
  192.5190  176.0480  137.5010 C   0  0  0  0  0  3  0  0  0  0  0  0
  1  7  2  0  0  0  0
  2  8  1  0  0  0  0
  2  6  1  0  0  0  0
  4  9  1  0  0  0  0
  6  3  1  0  0  0  0
  6  5  2  0  0  0  0
  7 11  1  0  0  0  0
  7 16  1  0  0  0  0
  8 13  2  0  0  0  0
  9 10  2  0  0  0  0
  9 11  1  0  0  0  0
 10  2  1  0  0  0  0
 11  3  2  0  0  0  0
 12  4  2  0  0  0  0
 12  1  1  0  0  0  0
 13  5  1  0  0  0  0
 15 14  1  0  0  0  0
 16 15  1  0  0  0  0
 17 16  2  0  0  0  0
 17 18  1  0  0  0  0
 18 14  2  0  0  0  0
 19 12  1  0  0  0  0
 20 19  1  0  0  0  0
 21 22  2  0  0  0  0
 21 20  1  0  0  0  0
 23 25  1  0  0  0  0
 24 25  1  0  0  0  0
 25 22  1  0  0  0  0
M  END
>  <MODEL>
5

>  <REMARK>
 VINA RESULT:      -8.3      3.639      6.177
  Name = 
  5 active torsions:
  status: ('A' for Active; 'I' for Inactive)
    1  A    between atoms: C_3  and  C_13
    2  A    between atoms: C_10  and  C_23
    3  A    between atoms: C_11  and  C_18
    4  A    between atoms: C_13  and  O_22
    5  A    between atoms: O_22  and  C_24
                            x       y       z     vdW  Elec       q    Type
                         _______ _______ _______ _____ _____    ______ ____

>  <TORSDO>
F 5

$$$$
=
 OpenBabel10232409443D

 25 28  0  0  0  0  0  0  0  0999 V2000
  189.9960  177.0640  143.0110 C   0  0  0  0  0  3  0  0  0  0  0  0
  185.3800  178.3830  144.3160 N   0  0  0  0  0  0  0  0  0  0  0  0
  187.3560  177.8660  145.5290 C   0  0  0  0  0  3  0  0  0  0  0  0
  187.9420  177.6020  141.8610 C   0  0  0  0  0  3  0  0  0  0  0  0
  185.1350  178.5310  146.4920 C   0  0  0  0  0  3  0  0  0  0  0  0
  186.0200  178.2430  145.4770 C   0  0  0  0  0  0  0  0  0  0  0  0
  189.3920  177.2450  144.2650 C   0  0  0  0  0  0  0  0  0  0  0  0
  184.1370  178.7440  144.5600 N   0  0  0  0  0  0  0  0  0  0  0  0
  187.3070  177.8000  143.0850 C   0  0  0  0  0  0  0  0  0  0  0  0
  185.9570  178.1820  143.1080 C   0  0  0  0  0  3  0  0  0  0  0  0
  188.0250  177.6290  144.3110 C   0  0  0  0  0  0  0  0  0  0  0  0
  189.2860  177.2360  141.8150 C   0  0  0  0  0  0  0  0  0  0  0  0
  183.9640  178.8400  145.8750 N   0  0  0  0  0  0  0  0  0  0  0  0
  191.2920  176.6740  147.6910 C   0  0  0  0  0  3  0  0  0  0  0  0
  189.7910  177.1250  147.0880 S   0  0  0  0  0  0  0  0  0  0  0  0
  190.2400  177.0240  145.4670 C   0  0  0  0  0  0  0  0  0  0  0  0
  191.5720  176.6190  145.4400 C   0  0  0  0  0  3  0  0  0  0  0  0
  192.1390  176.4350  146.6650 N   0  0  0  0  0  0  0  0  0  0  0  0
  189.8920  177.0500  140.5700 O   0  0  0  0  0  0  0  0  0  0  0  0
  189.5860  177.8560  139.4390 C   0  0  0  0  0  2  0  0  0  0  0  0
  189.0840  176.9990  138.3260 C   0  0  0  0  0  3  0  0  0  0  0  0
  187.8160  177.0810  137.9280 C   0  0  0  0  0  3  0  0  0  0  0  0
  188.2760  176.1540  135.8100 O   0  0  0  0  0  1  0  0  0  0  0  0
  187.0420  174.9400  137.2880 O   0  0  0  0  0  1  0  0  0  0  0  0
  187.3110  176.2250  136.8140 C   0  0  0  0  0  3  0  0  0  0  0  0
  1  7  2  0  0  0  0
  2  8  1  0  0  0  0
  2  6  1  0  0  0  0
  4  9  1  0  0  0  0
  6  3  1  0  0  0  0
  6  5  2  0  0  0  0
  7 11  1  0  0  0  0
  7 16  1  0  0  0  0
  8 13  2  0  0  0  0
  9 10  2  0  0  0  0
  9 11  1  0  0  0  0
 10  2  1  0  0  0  0
 11  3  2  0  0  0  0
 12  4  2  0  0  0  0
 12  1  1  0  0  0  0
 13  5  1  0  0  0  0
 15 14  1  0  0  0  0
 16 15  1  0  0  0  0
 17 16  2  0  0  0  0
 17 18  1  0  0  0  0
 18 14  2  0  0  0  0
 19 12  1  0  0  0  0
 20 19  1  0  0  0  0
 21 20  1  0  0  0  0
 22 21  2  0  0  0  0
 23 25  1  0  0  0  0
 25 24  1  0  0  0  0
 25 22  1  0  0  0  0
M  END
>  <MODEL>
6

>  <REMARK>
 VINA RESULT:      -8.1      3.860      6.461
  Name = 
  5 active torsions:
  status: ('A' for Active; 'I' for Inactive)
    1  A    between atoms: C_3  and  C_13
    2  A    between atoms: C_10  and  C_23
    3  A    between atoms: C_11  and  C_18
    4  A    between atoms: C_13  and  O_22
    5  A    between atoms: O_22  and  C_24
                            x       y       z     vdW  Elec       q    Type
                         _______ _______ _______ _____ _____    ______ ____

>  <TORSDO>
F 5

$$$$
=
 OpenBabel10232409443D

 25 28  0  0  0  0  0  0  0  0999 V2000
  186.6550  177.9770  143.1700 C   0  0  0  0  0  3  0  0  0  0  0  0
  189.9570  176.9990  146.7610 N   0  0  0  0  0  0  0  0  0  0  0  0
  190.0800  177.1180  144.3910 C   0  0  0  0  0  3  0  0  0  0  0  0
  186.6240  177.8330  145.5800 C   0  0  0  0  0  3  0  0  0  0  0  0
  191.9660  176.6080  145.9670 C   0  0  0  0  0  3  0  0  0  0  0  0
  190.6640  176.9130  145.6340 C   0  0  0  0  0  0  0  0  0  0  0  0
  188.0180  177.6470  143.1250 C   0  0  0  0  0  0  0  0  0  0  0  0
  190.7570  176.7620  147.7800 N   0  0  0  0  0  0  0  0  0  0  0  0
  187.9790  177.5120  145.5800 C   0  0  0  0  0  0  0  0  0  0  0  0
  188.6360  177.2920  146.8000 C   0  0  0  0  0  3  0  0  0  0  0  0
  188.7020  177.4170  144.3490 C   0  0  0  0  0  0  0  0  0  0  0  0
  185.9550  178.0690  144.3800 C   0  0  0  0  0  0  0  0  0  0  0  0
  191.9810  176.5210  147.3230 N   0  0  0  0  0  0  0  0  0  0  0  0
  189.4800  177.7670  139.4470 C   0  0  0  0  0  3  0  0  0  0  0  0
  188.2470  178.4140  140.3850 S   0  0  0  0  0  0  0  0  0  0  0  0
  188.6550  177.5660  141.7830 C   0  0  0  0  0  0  0  0  0  0  0  0
  189.7750  176.7960  141.4770 C   0  0  0  0  0  3  0  0  0  0  0  0
  190.2140  176.9100  140.1930 N   0  0  0  0  0  0  0  0  0  0  0  0
  184.5960  178.3950  144.4180 O   0  0  0  0  0  0  0  0  0  0  0  0
  184.0260  179.4040  143.5940 C   0  0  0  0  0  2  0  0  0  0  0  0
  183.0900  178.7880  142.6090 C   0  0  0  0  0  3  0  0  0  0  0  0
  183.4420  178.6600  141.3310 C   0  0  0  0  0  3  0  0  0  0  0  0
  182.4470  178.8420  139.2030 O   0  0  0  0  0  1  0  0  0  0  0  0
  182.9590  176.7710  139.9940 O   0  0  0  0  0  1  0  0  0  0  0  0
  182.5080  178.0440  140.3440 C   0  0  0  0  0  3  0  0  0  0  0  0
  1 12  1  0  0  0  0
  2 10  1  0  0  0  0
  2  8  1  0  0  0  0
  3  6  1  0  0  0  0
  5 13  1  0  0  0  0
  6  5  2  0  0  0  0
  6  2  1  0  0  0  0
  7  1  2  0  0  0  0
  7 11  1  0  0  0  0
  9  4  1  0  0  0  0
  9 10  2  0  0  0  0
 11  3  2  0  0  0  0
 11  9  1  0  0  0  0
 12 19  1  0  0  0  0
 12  4  2  0  0  0  0
 13  8  2  0  0  0  0
 14 18  2  0  0  0  0
 14 15  1  0  0  0  0
 15 16  1  0  0  0  0
 16  7  1  0  0  0  0
 17 16  2  0  0  0  0
 18 17  1  0  0  0  0
 20 19  1  0  0  0  0
 21 20  1  0  0  0  0
 22 21  2  0  0  0  0
 23 25  1  0  0  0  0
 24 25  1  0  0  0  0
 25 22  1  0  0  0  0
M  END
>  <MODEL>
7

>  <REMARK>
 VINA RESULT:      -8.1      4.074      7.033
  Name = 
  5 active torsions:
  status: ('A' for Active; 'I' for Inactive)
    1  A    between atoms: C_3  and  C_13
    2  A    between atoms: C_10  and  C_23
    3  A    between atoms: C_11  and  C_18
    4  A    between atoms: C_13  and  O_22
    5  A    between atoms: O_22  and  C_24
                            x       y       z     vdW  Elec       q    Type
                         _______ _______ _______ _____ _____    ______ ____

>  <TORSDO>
F 5

$$$$
=
 OpenBabel10232409443D

 25 28  0  0  0  0  0  0  0  0999 V2000
  187.4600  177.6530  145.0500 C   0  0  0  0  0  3  0  0  0  0  0  0
  189.4140  177.6550  140.4750 N   0  0  0  0  0  0  0  0  0  0  0  0
  190.3120  177.3600  142.6550 C   0  0  0  0  0  3  0  0  0  0  0  0
  186.6370  177.9420  142.7990 C   0  0  0  0  0  3  0  0  0  0  0  0
  191.5780  177.2860  140.4880 C   0  0  0  0  0  3  0  0  0  0  0  0
  190.4560  177.4260  141.2740 C   0  0  0  0  0  0  0  0  0  0  0  0
  188.7770  177.4930  144.5940 C   0  0  0  0  0  0  0  0  0  0  0  0
  189.8360  177.6640  139.2270 N   0  0  0  0  0  0  0  0  0  0  0  0
  187.9280  177.7800  142.3030 C   0  0  0  0  0  0  0  0  0  0  0  0
  188.1490  177.8340  140.9190 C   0  0  0  0  0  3  0  0  0  0  0  0
  189.0230  177.5480  143.1960 C   0  0  0  0  0  0  0  0  0  0  0  0
  186.3940  177.8780  144.1690 C   0  0  0  0  0  0  0  0  0  0  0  0
  191.1460  177.4430  139.2090 N   0  0  0  0  0  0  0  0  0  0  0  0
  191.2710  176.8910  147.6100 C   0  0  0  0  0  3  0  0  0  0  0  0
  189.6690  177.2850  147.2970 S   0  0  0  0  0  0  0  0  0  0  0  0
  189.8310  177.2710  145.6200 C   0  0  0  0  0  0  0  0  0  0  0  0
  191.1550  176.9380  145.3440 C   0  0  0  0  0  3  0  0  0  0  0  0
  191.9360  176.7380  146.4420 N   0  0  0  0  0  0  0  0  0  0  0  0
  185.0840  178.0400  144.6300 O   0  0  0  0  0  0  0  0  0  0  0  0
  184.4470  179.3100  144.7020 C   0  0  0  0  0  2  0  0  0  0  0  0
  182.9780  179.1530  144.4910 C   0  0  0  0  0  3  0  0  0  0  0  0
  182.4670  179.1660  143.2620 C   0  0  0  0  0  3  0  0  0  0  0  0
  180.4330  178.3810  144.1560 O   0  0  0  0  0  1  0  0  0  0  0  0
  180.4080  180.2620  142.8750 O   0  0  0  0  0  1  0  0  0  0  0  0
  180.9980  179.0100  143.0480 C   0  0  0  0  0  3  0  0  0  0  0  0
  2 10  1  0  0  0  0
  2  6  1  0  0  0  0
  3 11  2  0  0  0  0
  4 12  2  0  0  0  0
  5  6  2  0  0  0  0
  6  3  1  0  0  0  0
  7  1  2  0  0  0  0
  7 16  1  0  0  0  0
  8  2  1  0  0  0  0
  9  4  1  0  0  0  0
  9 11  1  0  0  0  0
 10  9  2  0  0  0  0
 11  7  1  0  0  0  0
 12 19  1  0  0  0  0
 12  1  1  0  0  0  0
 13  8  2  0  0  0  0
 13  5  1  0  0  0  0
 15 14  1  0  0  0  0
 16 15  1  0  0  0  0
 17 16  2  0  0  0  0
 17 18  1  0  0  0  0
 18 14  2  0  0  0  0
 19 20  1  0  0  0  0
 21 20  1  0  0  0  0
 22 21  2  0  0  0  0
 24 25  1  0  0  0  0
 25 22  1  0  0  0  0
 25 23  1  0  0  0  0
M  END
>  <MODEL>
8

>  <REMARK>
 VINA RESULT:      -8.0      3.990      7.089
  Name = 
  5 active torsions:
  status: ('A' for Active; 'I' for Inactive)
    1  A    between atoms: C_3  and  C_13
    2  A    between atoms: C_10  and  C_23
    3  A    between atoms: C_11  and  C_18
    4  A    between atoms: C_13  and  O_22
    5  A    between atoms: O_22  and  C_24
                            x       y       z     vdW  Elec       q    Type
                         _______ _______ _______ _____ _____    ______ ____

>  <TORSDO>
F 5

$$$$
=
 OpenBabel10232409443D

 25 28  0  0  0  0  0  0  0  0999 V2000
  185.8270  178.1110  142.9050 C   0  0  0  0  0  3  0  0  0  0  0  0
  187.4900  178.1380  147.5940 N   0  0  0  0  0  0  0  0  0  0  0  0
  188.4990  177.7100  145.4860 C   0  0  0  0  0  3  0  0  0  0  0  0
  184.8870  178.5280  145.0890 C   0  0  0  0  0  3  0  0  0  0  0  0
  189.6290  177.6630  147.7270 C   0  0  0  0  0  3  0  0  0  0  0  0
  188.5640  177.8250  146.8690 C   0  0  0  0  0  0  0  0  0  0  0  0
  187.0910  177.8400  143.4530 C   0  0  0  0  0  0  0  0  0  0  0  0
  187.8370  178.1800  148.8640 N   0  0  0  0  0  0  0  0  0  0  0  0
  186.1270  178.2760  145.6730 C   0  0  0  0  0  0  0  0  0  0  0  0
  186.2670  178.3740  147.0660 C   0  0  0  0  0  3  0  0  0  0  0  0
  187.2530  177.9300  144.8620 C   0  0  0  0  0  0  0  0  0  0  0  0
  184.7300  178.4500  143.7070 C   0  0  0  0  0  0  0  0  0  0  0  0
  189.1300  177.8940  148.9710 N   0  0  0  0  0  0  0  0  0  0  0  0
  190.0580  176.5390  141.1780 C   0  0  0  0  0  3  0  0  0  0  0  0
  189.3430  176.2700  142.6730 S   0  0  0  0  0  0  0  0  0  0  0  0
  188.1800  177.4780  142.5070 C   0  0  0  0  0  0  0  0  0  0  0  0
  188.3770  178.0610  141.2570 C   0  0  0  0  0  3  0  0  0  0  0  0
  189.4120  177.5420  140.5410 N   0  0  0  0  0  0  0  0  0  0  0  0
  183.4730  178.7150  143.1550 O   0  0  0  0  0  0  0  0  0  0  0  0
  182.9810  178.0370  142.0060 C   0  0  0  0  0  2  0  0  0  0  0  0
  183.3380  178.8000  140.7740 C   0  0  0  0  0  3  0  0  0  0  0  0
  184.1360  178.2620  139.8540 C   0  0  0  0  0  3  0  0  0  0  0  0
  184.3070  180.3850  138.8460 O   0  0  0  0  0  1  0  0  0  0  0  0
  185.8300  178.7880  138.2910 O   0  0  0  0  0  1  0  0  0  0  0  0
  184.4950  179.0230  138.6210 C   0  0  0  0  0  3  0  0  0  0  0  0
  1  7  2  0  0  0  0
  1 12  1  0  0  0  0
  2  8  1  0  0  0  0
  3  6  1  0  0  0  0
  4  9  1  0  0  0  0
  5 13  1  0  0  0  0
  6  2  1  0  0  0  0
  6  5  2  0  0  0  0
  7 11  1  0  0  0  0
  8 13  2  0  0  0  0
  9 10  2  0  0  0  0
 10  2  1  0  0  0  0
 11  3  2  0  0  0  0
 11  9  1  0  0  0  0
 12  4  2  0  0  0  0
 14 15  1  0  0  0  0
 16 15  1  0  0  0  0
 16  7  1  0  0  0  0
 17 16  2  0  0  0  0
 18 14  2  0  0  0  0
 18 17  1  0  0  0  0
 19 12  1  0  0  0  0
 20 19  1  0  0  0  0
 21 20  1  0  0  0  0
 22 21  2  0  0  0  0
 24 25  1  0  0  0  0
 25 23  1  0  0  0  0
 25 22  1  0  0  0  0
M  END
>  <MODEL>
9

>  <REMARK>
 VINA RESULT:      -8.0      4.061      6.619
  Name = 
  5 active torsions:
  status: ('A' for Active; 'I' for Inactive)
    1  A    between atoms: C_3  and  C_13
    2  A    between atoms: C_10  and  C_23
    3  A    between atoms: C_11  and  C_18
    4  A    between atoms: C_13  and  O_22
    5  A    between atoms: O_22  and  C_24
                            x       y       z     vdW  Elec       q    Type
                         _______ _______ _______ _____ _____    ______ ____

>  <TORSDO>
F 5

$$$$
