=
 OpenBabel10232408173D

 32 35  0  0  1  0  0  0  0  0999 V2000
  183.9710  177.9260  139.1010 C   0  0  0  0  0  0  0  0  0  0  0  0
  184.7060  177.5470  138.1100 N   0  0  0  0  0  0  0  0  0  0  0  0
  183.0400  176.9280  139.7220 C   0  0  0  0  0  2  0  0  0  0  0  0
  180.5770  177.1300  139.7200 C   0  0  0  0  0  2  0  0  0  0  0  0
  181.7850  176.7700  138.8810 C   0  0  0  0  0  3  0  0  0  0  0  0
  180.9200  175.6750  139.4750 C   0  0  0  0  0  2  0  0  0  0  0  0
  185.6520  178.4030  137.4290 C   0  0  0  0  0  2  0  0  0  0  0  0
  189.0390  178.7810  137.3560 C   0  0  0  0  0  3  0  0  0  0  0  0
  187.9190  178.5520  136.5210 N   0  0  0  0  0  0  0  0  0  0  0  0
  188.9030  178.1420  138.5000 C   0  0  0  0  0  0  0  0  0  0  0  0
  186.9780  177.6810  137.2110 C   0  0  1  0  0  3  0  0  0  0  0  0
  187.6250  177.3840  138.5640 C   0  0  0  0  0  3  0  0  0  0  0  0
  191.5730  177.3000  140.8660 O   0  0  0  0  0  1  0  0  0  0  0  0
  189.8440  178.1690  139.5790 N   0  0  0  0  0  2  0  0  0  0  0  0
  190.7550  175.9120  139.2410 O   0  0  0  0  0  0  0  0  0  0  0  0
  190.7600  177.1230  139.9220 C   0  0  0  0  0  0  0  0  0  0  0  0
  184.0560  179.3280  139.6550 C   0  0  0  0  0  2  0  0  0  0  0  0
  185.0660  179.4330  140.6150 O   0  0  0  0  0  0  0  0  0  0  0  0
  184.4860  178.9640  141.7930 C   0  0  0  0  0  2  0  0  0  0  0  0
  185.5570  178.5790  142.7610 C   0  0  0  0  0  0  0  0  0  0  0  0
  185.1220  178.6300  147.0910 O   0  0  0  0  0  1  0  0  0  0  0  0
  189.5950  176.8590  147.4600 N   0  0  0  0  0  1  0  0  0  0  0  0
  187.6020  177.7500  144.4480 C   0  0  0  0  0  0  0  0  0  0  0  0
  187.7610  177.7340  143.1000 N   0  0  0  0  0  0  0  0  0  0  0  0
  186.7760  178.1300  142.2590 C   0  0  0  0  0  3  0  0  0  0  0  0
  188.5220  177.3150  146.6440 C   0  0  0  0  0  0  0  0  0  0  0  0
  187.3380  177.7550  147.2310 C   0  0  0  0  0  3  0  0  0  0  0  0
  185.3490  178.6290  144.1540 C   0  0  0  0  0  0  0  0  0  0  0  0
  188.6530  177.3120  145.2570 C   0  0  0  0  0  3  0  0  0  0  0  0
  184.0260  179.1130  144.6650 C   0  0  0  0  0  1  0  0  0  0  0  0
  186.3870  178.2080  145.0270 C   0  0  0  0  0  0  0  0  0  0  0  0
  186.2740  178.2040  146.4430 C   0  0  0  0  0  0  0  0  0  0  0  0
  1 17  1  0  0  0  0
  1  3  1  0  0  0  0
  2  1  2  0  0  0  0
  5  6  1  0  0  0  0
  5  4  1  0  0  0  0
  5  3  1  0  0  0  0
  6  4  1  0  0  0  0
  7  2  1  0  0  0  0
  8 10  1  0  0  0  0
  9 11  1  0  0  0  0
  9  8  2  0  0  0  0
 10 12  2  0  0  0  0
 10 14  1  0  0  0  0
 11  7  1  1  0  0  0
 11 12  1  0  0  0  0
 14 16  1  0  0  0  0
 15 16  2  0  0  0  0
 16 13  1  0  0  0  0
 17 18  1  0  0  0  0
 18 19  1  0  0  0  0
 19 20  1  0  0  0  0
 20 28  1  0  0  0  0
 23 31  1  0  0  0  0
 23 29  1  0  0  0  0
 24 23  2  0  0  0  0
 25 20  2  0  0  0  0
 25 24  1  0  0  0  0
 26 27  1  0  0  0  0
 26 22  1  0  0  0  0
 28 30  1  0  0  0  0
 28 31  2  0  0  0  0
 29 26  2  0  0  0  0
 31 32  1  0  0  0  0
 32 21  1  0  0  0  0
 32 27  2  0  0  0  0
M  END
>  <MODEL>
1

>  <REMARK>
 VINA RESULT:      -8.2      0.000      0.000
  Name = 
  9 active torsions:
  status: ('A' for Active; 'I' for Inactive)
    1  A    between atoms: C_1  and  C_19
    2  A    between atoms: C_3  and  C_15
    3  A    between atoms: C_3  and  C_29
    4  A    between atoms: C_11  and  C_15
    5  A    between atoms: C_12  and  N_16
    6  A    between atoms: N_14  and  C_21
    7  A    between atoms: C_19  and  O_25
    8  A    between atoms: C_21  and  C_23
    9  A    between atoms: O_25  and  C_29
                            x       y       z     vdW  Elec       q    Type
                         _______ _______ _______ _____ _____    ______ ____

>  <TORSDO>
F 9

$$$$
=
 OpenBabel10232408173D

 32 35  0  0  1  0  0  0  0  0999 V2000
  184.0510  178.9680  139.7490 C   0  0  0  0  0  0  0  0  0  0  0  0
  184.9580  179.0140  138.8310 N   0  0  0  0  0  0  0  0  0  0  0  0
  182.7520  179.6760  139.5040 C   0  0  0  0  0  2  0  0  0  0  0  0
  180.4020  178.9930  139.1610 C   0  0  0  0  0  2  0  0  0  0  0  0
  181.5930  178.8880  140.0900 C   0  0  0  0  0  3  0  0  0  0  0  0
  180.4560  179.8370  140.4160 C   0  0  0  0  0  2  0  0  0  0  0  0
  186.2470  178.3660  138.9340 C   0  0  0  0  0  2  0  0  0  0  0  0
  189.0280  178.4650  136.9670 C   0  0  0  0  0  3  0  0  0  0  0  0
  187.7550  179.0600  137.1380 N   0  0  0  0  0  0  0  0  0  0  0  0
  188.9750  177.1740  137.2270 C   0  0  0  0  0  0  0  0  0  0  0  0
  186.8020  178.0400  137.5520 C   0  0  1  0  0  3  0  0  0  0  0  0
  187.6080  176.7430  137.6190 C   0  0  0  0  0  3  0  0  0  0  0  0
  191.7170  174.9010  138.0940 O   0  0  0  0  0  0  0  0  0  0  0  0
  190.0870  176.2730  137.1670 N   0  0  0  0  0  2  0  0  0  0  0  0
  190.4710  176.1070  139.5880 O   0  0  0  0  0  1  0  0  0  0  0  0
  190.7880  175.7270  138.2890 C   0  0  0  0  0  0  0  0  0  0  0  0
  184.2620  178.1990  141.0300 C   0  0  0  0  0  2  0  0  0  0  0  0
  184.9490  178.9660  141.9740 O   0  0  0  0  0  0  0  0  0  0  0  0
  184.8460  178.2420  143.1620 C   0  0  0  0  0  2  0  0  0  0  0  0
  186.2110  177.9850  143.7130 C   0  0  0  0  0  0  0  0  0  0  0  0
  187.2320  178.0610  147.9430 O   0  0  0  0  0  1  0  0  0  0  0  0
  191.7310  176.7650  146.7760 N   0  0  0  0  0  1  0  0  0  0  0  0
  188.7730  177.3970  144.6120 C   0  0  0  0  0  0  0  0  0  0  0  0
  188.4770  177.3750  143.2870 N   0  0  0  0  0  0  0  0  0  0  0  0
  187.2340  177.6550  142.8270 C   0  0  0  0  0  3  0  0  0  0  0  0
  190.4080  177.0940  146.3700 C   0  0  0  0  0  0  0  0  0  0  0  0
  189.4470  177.4210  147.3250 C   0  0  0  0  0  3  0  0  0  0  0  0
  186.4720  178.0360  145.0970 C   0  0  0  0  0  0  0  0  0  0  0  0
  190.0720  177.0820  145.0180 C   0  0  0  0  0  3  0  0  0  0  0  0
  185.3520  178.3890  146.0260 C   0  0  0  0  0  1  0  0  0  0  0  0
  187.7780  177.7380  145.5690 C   0  0  0  0  0  0  0  0  0  0  0  0
  188.1420  177.7450  146.9410 C   0  0  0  0  0  0  0  0  0  0  0  0
  1 17  1  0  0  0  0
  2  7  1  0  0  0  0
  2  1  2  0  0  0  0
  3  1  1  0  0  0  0
  3  5  1  0  0  0  0
  4  5  1  0  0  0  0
  4  6  1  0  0  0  0
  5  6  1  0  0  0  0
  8  9  2  0  0  0  0
  8 10  1  0  0  0  0
  9 11  1  0  0  0  0
 10 12  2  0  0  0  0
 11 12  1  0  0  0  0
 11  7  1  1  0  0  0
 13 16  2  0  0  0  0
 14 10  1  0  0  0  0
 14 16  1  0  0  0  0
 16 15  1  0  0  0  0
 17 18  1  0  0  0  0
 18 19  1  0  0  0  0
 19 20  1  0  0  0  0
 20 28  1  0  0  0  0
 23 29  1  0  0  0  0
 23 31  1  0  0  0  0
 24 23  2  0  0  0  0
 25 24  1  0  0  0  0
 25 20  2  0  0  0  0
 26 22  1  0  0  0  0
 26 27  1  0  0  0  0
 28 31  2  0  0  0  0
 28 30  1  0  0  0  0
 29 26  2  0  0  0  0
 31 32  1  0  0  0  0
 32 27  2  0  0  0  0
 32 21  1  0  0  0  0
M  END
>  <MODEL>
2

>  <REMARK>
 VINA RESULT:      -8.1      1.584      1.953
  Name = 
  9 active torsions:
  status: ('A' for Active; 'I' for Inactive)
    1  A    between atoms: C_1  and  C_19
    2  A    between atoms: C_3  and  C_15
    3  A    between atoms: C_3  and  C_29
    4  A    between atoms: C_11  and  C_15
    5  A    between atoms: C_12  and  N_16
    6  A    between atoms: N_14  and  C_21
    7  A    between atoms: C_19  and  O_25
    8  A    between atoms: C_21  and  C_23
    9  A    between atoms: O_25  and  C_29
                            x       y       z     vdW  Elec       q    Type
                         _______ _______ _______ _____ _____    ______ ____

>  <TORSDO>
F 9

$$$$
=
 OpenBabel10232408173D

 32 35  0  0  1  0  0  0  0  0999 V2000
  189.2230  177.0980  144.6500 C   0  0  0  0  0  0  0  0  0  0  0  0
  190.1190  176.7210  143.8000 N   0  0  0  0  0  0  0  0  0  0  0  0
  189.6770  177.7020  145.9440 C   0  0  0  0  0  2  0  0  0  0  0  0
  187.8250  177.8740  147.5720 C   0  0  0  0  0  2  0  0  0  0  0  0
  188.9960  177.0250  147.1210 C   0  0  0  0  0  3  0  0  0  0  0  0
  189.1250  177.9050  148.3490 C   0  0  0  0  0  2  0  0  0  0  0  0
  189.8190  176.1350  142.5120 C   0  0  0  0  0  2  0  0  0  0  0  0
  190.0740  176.4610  139.1290 C   0  0  0  0  0  3  0  0  0  0  0  0
  190.8530  176.3470  140.3060 N   0  0  0  0  0  2  0  0  0  0  0  0
  189.0020  177.1950  139.3510 C   0  0  0  0  0  0  0  0  0  0  0  0
  190.2040  177.0840  141.3810 C   0  0  1  0  0  3  0  0  0  0  0  0
  188.9400  177.6730  140.7570 C   0  0  0  0  0  2  0  0  0  0  0  0
  187.0840  178.7090  136.6190 O   0  0  0  0  0  0  0  0  0  0  0  0
  187.9920  177.4980  138.3820 N   0  0  0  0  0  2  0  0  0  0  0  0
  189.0420  179.5270  137.4760 O   0  0  0  0  0  1  0  0  0  0  0  0
  188.0160  178.5890  137.4560 C   0  0  0  0  0  0  0  0  0  0  0  0
  187.7490  176.9700  144.3510 C   0  0  0  0  0  2  0  0  0  0  0  0
  187.2650  178.1060  143.6970 O   0  0  0  0  0  0  0  0  0  0  0  0
  185.9780  178.2850  144.2050 C   0  0  0  0  0  2  0  0  0  0  0  0
  185.0120  178.4460  143.0760 C   0  0  0  0  0  0  0  0  0  0  0  0
  180.7410  179.1380  143.5470 O   0  0  0  0  0  1  0  0  0  0  0  0
  180.3650  179.4520  138.7480 N   0  0  0  0  0  1  0  0  0  0  0  0
  183.3390  178.8190  140.8900 C   0  0  0  0  0  0  0  0  0  0  0  0
  184.6670  178.5970  140.7210 N   0  0  0  0  0  0  0  0  0  0  0  0
  185.5020  178.4160  141.7730 C   0  0  0  0  0  3  0  0  0  0  0  0
  181.1710  179.2470  139.9010 C   0  0  0  0  0  0  0  0  0  0  0  0
  180.5970  179.2850  141.1700 C   0  0  0  0  0  3  0  0  0  0  0  0
  183.6370  178.6580  143.3030 C   0  0  0  0  0  0  0  0  0  0  0  0
  182.5380  179.0150  139.7620 C   0  0  0  0  0  3  0  0  0  0  0  0
  183.1390  178.6890  144.7160 C   0  0  0  0  0  1  0  0  0  0  0  0
  182.7710  178.8500  142.1930 C   0  0  0  0  0  0  0  0  0  0  0  0
  181.3760  179.0860  142.3130 C   0  0  0  0  0  0  0  0  0  0  0  0
  1  3  1  0  0  0  0
  2  1  2  0  0  0  0
  3  5  1  0  0  0  0
  4  6  1  0  0  0  0
  5  4  1  0  0  0  0
  5  6  1  0  0  0  0
  7  2  1  0  0  0  0
  8 10  2  0  0  0  0
  8  9  1  0  0  0  0
  9 11  1  0  0  0  0
 10 12  1  0  0  0  0
 11  7  1  1  0  0  0
 12 11  1  0  0  0  0
 13 16  2  0  0  0  0
 14 10  1  0  0  0  0
 16 15  1  0  0  0  0
 16 14  1  0  0  0  0
 17  1  1  0  0  0  0
 18 19  1  0  0  0  0
 18 17  1  0  0  0  0
 20 28  1  0  0  0  0
 20 19  1  0  0  0  0
 22 26  1  0  0  0  0
 23 31  1  0  0  0  0
 24 23  2  0  0  0  0
 24 25  1  0  0  0  0
 25 20  2  0  0  0  0
 26 27  1  0  0  0  0
 27 32  2  0  0  0  0
 28 30  1  0  0  0  0
 29 26  2  0  0  0  0
 29 23  1  0  0  0  0
 31 32  1  0  0  0  0
 31 28  2  0  0  0  0
 32 21  1  0  0  0  0
M  END
>  <MODEL>
3

>  <REMARK>
 VINA RESULT:      -8.1      2.450      6.697
  Name = 
  9 active torsions:
  status: ('A' for Active; 'I' for Inactive)
    1  A    between atoms: C_1  and  C_19
    2  A    between atoms: C_3  and  C_15
    3  A    between atoms: C_3  and  C_29
    4  A    between atoms: C_11  and  C_15
    5  A    between atoms: C_12  and  N_16
    6  A    between atoms: N_14  and  C_21
    7  A    between atoms: C_19  and  O_25
    8  A    between atoms: C_21  and  C_23
    9  A    between atoms: O_25  and  C_29
                            x       y       z     vdW  Elec       q    Type
                         _______ _______ _______ _____ _____    ______ ____

>  <TORSDO>
F 9

$$$$
=
 OpenBabel10232408173D

 32 35  0  0  1  0  0  0  0  0999 V2000
  191.1380  176.4580  138.3050 C   0  0  0  0  0  0  0  0  0  0  0  0
  190.4520  176.8700  137.2920 N   0  0  0  0  0  0  0  0  0  0  0  0
  192.0870  175.3140  138.1050 C   0  0  0  0  0  2  0  0  0  0  0  0
  193.9610  175.1230  136.5060 C   0  0  0  0  0  2  0  0  0  0  0  0
  193.4750  175.8240  137.7570 C   0  0  0  0  0  3  0  0  0  0  0  0
  194.4690  174.6840  137.8630 C   0  0  0  0  0  2  0  0  0  0  0  0
  189.5120  177.9690  137.3440 C   0  0  0  0  0  2  0  0  0  0  0  0
  186.4780  176.4180  137.2930 C   0  0  0  0  0  3  0  0  0  0  0  0
  187.7900  176.3310  136.7670 N   0  0  0  0  0  0  0  0  0  0  0  0
  186.0930  177.6750  137.3720 C   0  0  0  0  0  0  0  0  0  0  0  0
  188.2830  177.6720  136.4900 C   0  0  1  0  0  3  0  0  0  0  0  0
  187.1450  178.6090  136.8920 C   0  0  0  0  0  3  0  0  0  0  0  0
  183.4460  179.1870  139.4090 O   0  0  0  0  0  0  0  0  0  0  0  0
  184.8280  178.1220  137.8740 N   0  0  0  0  0  2  0  0  0  0  0  0
  185.6510  179.0270  140.0050 O   0  0  0  0  0  1  0  0  0  0  0  0
  184.6080  178.8020  139.1140 C   0  0  0  0  0  0  0  0  0  0  0  0
  191.0260  177.1200  139.6560 C   0  0  0  0  0  2  0  0  0  0  0  0
  190.3220  176.3160  140.5570 O   0  0  0  0  0  0  0  0  0  0  0  0
  190.7400  176.7470  141.8160 C   0  0  0  0  0  2  0  0  0  0  0  0
  189.5470  177.0450  142.6650 C   0  0  0  0  0  0  0  0  0  0  0  0
  189.5800  177.2270  147.0140 O   0  0  0  0  0  1  0  0  0  0  0  0
  184.9220  178.4810  146.8950 N   0  0  0  0  0  1  0  0  0  0  0  0
  187.2730  177.7020  144.1210 C   0  0  0  0  0  0  0  0  0  0  0  0
  187.2400  177.6430  142.7650 N   0  0  0  0  0  0  0  0  0  0  0  0
  188.3370  177.3280  142.0350 C   0  0  0  0  0  3  0  0  0  0  0  0
  186.1100  178.1190  146.2020 C   0  0  0  0  0  0  0  0  0  0  0  0
  187.2770  177.8440  146.9130 C   0  0  0  0  0  3  0  0  0  0  0  0
  189.6280  177.0780  144.0720 C   0  0  0  0  0  0  0  0  0  0  0  0
  186.1090  178.0490  144.8110 C   0  0  0  0  0  3  0  0  0  0  0  0
  190.9430  176.7730  144.7220 C   0  0  0  0  0  1  0  0  0  0  0  0
  188.4730  177.4120  144.8280 C   0  0  0  0  0  0  0  0  0  0  0  0
  188.4520  177.4890  146.2450 C   0  0  0  0  0  0  0  0  0  0  0  0
  1 17  1  0  0  0  0
  2  7  1  0  0  0  0
  2  1  2  0  0  0  0
  3  1  1  0  0  0  0
  4  5  1  0  0  0  0
  4  6  1  0  0  0  0
  5  6  1  0  0  0  0
  5  3  1  0  0  0  0
  8 10  1  0  0  0  0
  9  8  2  0  0  0  0
 10 14  1  0  0  0  0
 11  9  1  0  0  0  0
 11 12  1  0  0  0  0
 11  7  1  1  0  0  0
 12 10  2  0  0  0  0
 14 16  1  0  0  0  0
 16 13  2  0  0  0  0
 16 15  1  0  0  0  0
 17 18  1  0  0  0  0
 18 19  1  0  0  0  0
 19 20  1  0  0  0  0
 20 28  1  0  0  0  0
 23 29  1  0  0  0  0
 23 31  1  0  0  0  0
 24 23  2  0  0  0  0
 25 20  2  0  0  0  0
 25 24  1  0  0  0  0
 26 22  1  0  0  0  0
 26 27  1  0  0  0  0
 28 30  1  0  0  0  0
 28 31  2  0  0  0  0
 29 26  2  0  0  0  0
 31 32  1  0  0  0  0
 32 27  2  0  0  0  0
 32 21  1  0  0  0  0
M  END
>  <MODEL>
4

>  <REMARK>
 VINA RESULT:      -8.0      2.315      6.181
  Name = 
  9 active torsions:
  status: ('A' for Active; 'I' for Inactive)
    1  A    between atoms: C_1  and  C_19
    2  A    between atoms: C_3  and  C_15
    3  A    between atoms: C_3  and  C_29
    4  A    between atoms: C_11  and  C_15
    5  A    between atoms: C_12  and  N_16
    6  A    between atoms: N_14  and  C_21
    7  A    between atoms: C_19  and  O_25
    8  A    between atoms: C_21  and  C_23
    9  A    between atoms: O_25  and  C_29
                            x       y       z     vdW  Elec       q    Type
                         _______ _______ _______ _____ _____    ______ ____

>  <TORSDO>
F 9

$$$$
=
 OpenBabel10232408173D

 32 35  0  0  1  0  0  0  0  0999 V2000
  188.5610  177.2050  138.0510 C   0  0  0  0  0  0  0  0  0  0  0  0
  189.4100  176.6020  137.2880 N   0  0  0  0  0  0  0  0  0  0  0  0
  187.1190  176.8020  137.9710 C   0  0  0  0  0  2  0  0  0  0  0  0
  185.2180  178.3130  138.4320 C   0  0  0  0  0  2  0  0  0  0  0  0
  186.2750  177.9370  137.4150 C   0  0  0  0  0  3  0  0  0  0  0  0
  184.8470  177.4590  137.2370 C   0  0  0  0  0  2  0  0  0  0  0  0
  190.8290  176.8850  137.2740 C   0  0  0  0  0  2  0  0  0  0  0  0
  192.9430  174.2210  137.4990 C   0  0  0  0  0  3  0  0  0  0  0  0
  191.6000  174.6080  137.7240 N   0  0  0  0  0  0  0  0  0  0  0  0
  193.7670  175.1970  137.8230 C   0  0  0  0  0  0  0  0  0  0  0  0
  191.5740  175.9690  138.2400 C   0  0  1  0  0  3  0  0  0  0  0  0
  193.0390  176.3950  138.3180 C   0  0  0  0  0  3  0  0  0  0  0  0
  197.2890  174.2130  138.0660 O   0  0  0  0  0  0  0  0  0  0  0  0
  195.1930  175.1490  137.7050 N   0  0  0  0  0  2  0  0  0  0  0  0
  195.5460  173.1780  139.1290 O   0  0  0  0  0  1  0  0  0  0  0  0
  196.0520  174.1680  138.2950 C   0  0  0  0  0  0  0  0  0  0  0  0
  188.9950  178.2700  139.0290 C   0  0  0  0  0  2  0  0  0  0  0  0
  188.3610  178.1120  140.2640 O   0  0  0  0  0  0  0  0  0  0  0  0
  189.2200  177.2990  141.0020 C   0  0  0  0  0  2  0  0  0  0  0  0
  188.8430  177.3520  142.4460 C   0  0  0  0  0  0  0  0  0  0  0  0
  191.6090  176.7630  145.7550 O   0  0  0  0  0  1  0  0  0  0  0  0
  187.9870  177.6680  148.8110 N   0  0  0  0  0  1  0  0  0  0  0  0
  188.0280  177.5690  145.0940 C   0  0  0  0  0  0  0  0  0  0  0  0
  187.1470  177.7490  144.0760 N   0  0  0  0  0  0  0  0  0  0  0  0
  187.5240  177.6520  142.7780 C   0  0  0  0  0  3  0  0  0  0  0  0
  188.4540  177.5240  147.4760 C   0  0  0  0  0  0  0  0  0  0  0  0
  189.7910  177.2140  147.2340 C   0  0  0  0  0  3  0  0  0  0  0  0
  189.7910  177.1410  143.4680 C   0  0  0  0  0  0  0  0  0  0  0  0
  187.5760  177.7010  146.4090 C   0  0  0  0  0  3  0  0  0  0  0  0
  191.2040  176.8250  143.0810 C   0  0  0  0  0  1  0  0  0  0  0  0
  189.3870  177.2490  144.8250 C   0  0  0  0  0  0  0  0  0  0  0  0
  190.2650  177.0720  145.9270 C   0  0  0  0  0  0  0  0  0  0  0  0
  1 17  1  0  0  0  0
  2  1  2  0  0  0  0
  3  1  1  0  0  0  0
  5  3  1  0  0  0  0
  5  4  1  0  0  0  0
  6  5  1  0  0  0  0
  6  4  1  0  0  0  0
  7  2  1  0  0  0  0
  8  9  2  0  0  0  0
  8 10  1  0  0  0  0
  9 11  1  0  0  0  0
 10 12  2  0  0  0  0
 11  7  1  6  0  0  0
 11 12  1  0  0  0  0
 13 16  2  0  0  0  0
 14 10  1  0  0  0  0
 14 16  1  0  0  0  0
 16 15  1  0  0  0  0
 17 18  1  0  0  0  0
 18 19  1  0  0  0  0
 19 20  1  0  0  0  0
 20 25  2  0  0  0  0
 20 28  1  0  0  0  0
 21 32  1  0  0  0  0
 23 29  1  0  0  0  0
 24 23  2  0  0  0  0
 25 24  1  0  0  0  0
 26 22  1  0  0  0  0
 27 26  1  0  0  0  0
 28 31  2  0  0  0  0
 29 26  2  0  0  0  0
 30 28  1  0  0  0  0
 31 23  1  0  0  0  0
 31 32  1  0  0  0  0
 32 27  2  0  0  0  0
M  END
>  <MODEL>
5

>  <REMARK>
 VINA RESULT:      -8.0      3.161      4.790
  Name = 
  9 active torsions:
  status: ('A' for Active; 'I' for Inactive)
    1  A    between atoms: C_1  and  C_19
    2  A    between atoms: C_3  and  C_15
    3  A    between atoms: C_3  and  C_29
    4  A    between atoms: C_11  and  C_15
    5  A    between atoms: C_12  and  N_16
    6  A    between atoms: N_14  and  C_21
    7  A    between atoms: C_19  and  O_25
    8  A    between atoms: C_21  and  C_23
    9  A    between atoms: O_25  and  C_29
                            x       y       z     vdW  Elec       q    Type
                         _______ _______ _______ _____ _____    ______ ____

>  <TORSDO>
F 9

$$$$
=
 OpenBabel10232408173D

 32 35  0  0  1  0  0  0  0  0999 V2000
  191.3480  177.0790  143.7140 C   0  0  0  0  0  0  0  0  0  0  0  0
  191.6060  176.6560  142.5220 N   0  0  0  0  0  0  0  0  0  0  0  0
  191.5760  176.1480  144.8670 C   0  0  0  0  0  2  0  0  0  0  0  0
  191.9730  175.9650  147.2990 C   0  0  0  0  0  2  0  0  0  0  0  0
  191.6090  176.9150  146.1770 C   0  0  0  0  0  3  0  0  0  0  0  0
  190.5300  176.3790  147.0990 C   0  0  0  0  0  2  0  0  0  0  0  0
  191.4430  177.4530  141.3260 C   0  0  0  0  0  2  0  0  0  0  0  0
  189.5800  178.0120  138.5280 C   0  0  0  0  0  3  0  0  0  0  0  0
  189.5140  178.0370  139.9420 N   0  0  0  0  0  2  0  0  0  0  0  0
  190.3150  176.9990  138.1170 C   0  0  0  0  0  0  0  0  0  0  0  0
  190.2900  176.9280  140.4770 C   0  0  1  0  0  3  0  0  0  0  0  0
  190.8470  176.2020  139.2530 C   0  0  0  0  0  2  0  0  0  0  0  0
  190.1080  175.7980  134.6600 O   0  0  0  0  0  0  0  0  0  0  0  0
  190.6030  176.6870  136.7480 N   0  0  0  0  0  2  0  0  0  0  0  0
  188.5580  175.4010  136.2960 O   0  0  0  0  0  1  0  0  0  0  0  0
  189.7550  175.9550  135.8570 C   0  0  0  0  0  0  0  0  0  0  0  0
  190.8610  178.4860  143.9630 C   0  0  0  0  0  2  0  0  0  0  0  0
  189.6030  178.6950  143.3920 O   0  0  0  0  0  0  0  0  0  0  0  0
  188.7800  177.7400  143.9880 C   0  0  0  0  0  2  0  0  0  0  0  0
  187.3610  177.9830  143.5900 C   0  0  0  0  0  0  0  0  0  0  0  0
  184.1060  178.7780  146.3680 O   0  0  0  0  0  1  0  0  0  0  0  0
  181.1530  179.3310  142.5930 N   0  0  0  0  0  1  0  0  0  0  0  0
  184.7790  178.5090  142.7090 C   0  0  0  0  0  0  0  0  0  0  0  0
  185.7780  178.2560  141.8260 N   0  0  0  0  0  0  0  0  0  0  0  0
  187.0450  178.0000  142.2330 C   0  0  0  0  0  3  0  0  0  0  0  0
  182.4510  179.0470  143.1000 C   0  0  0  0  0  0  0  0  0  0  0  0
  182.6780  179.0430  144.4750 C   0  0  0  0  0  3  0  0  0  0  0  0
  186.3540  178.2250  144.5460 C   0  0  0  0  0  0  0  0  0  0  0  0
  183.4990  178.7820  142.2200 C   0  0  0  0  0  3  0  0  0  0  0  0
  186.7230  178.2030  145.9980 C   0  0  0  0  0  1  0  0  0  0  0  0
  185.0300  178.4950  144.1090 C   0  0  0  0  0  0  0  0  0  0  0  0
  183.9480  178.7670  144.9880 C   0  0  0  0  0  0  0  0  0  0  0  0
  1 17  1  0  0  0  0
  1  3  1  0  0  0  0
  2  1  2  0  0  0  0
  3  5  1  0  0  0  0
  5  6  1  0  0  0  0
  5  4  1  0  0  0  0
  6  4  1  0  0  0  0
  7  2  1  0  0  0  0
  8  9  1  0  0  0  0
  9 11  1  0  0  0  0
 10  8  2  0  0  0  0
 10 12  1  0  0  0  0
 11  7  1  1  0  0  0
 12 11  1  0  0  0  0
 13 16  2  0  0  0  0
 14 10  1  0  0  0  0
 16 15  1  0  0  0  0
 16 14  1  0  0  0  0
 18 17  1  0  0  0  0
 18 19  1  0  0  0  0
 20 19  1  0  0  0  0
 20 28  1  0  0  0  0
 22 26  1  0  0  0  0
 23 31  1  0  0  0  0
 24 25  1  0  0  0  0
 24 23  2  0  0  0  0
 25 20  2  0  0  0  0
 26 27  1  0  0  0  0
 27 32  2  0  0  0  0
 28 30  1  0  0  0  0
 29 23  1  0  0  0  0
 29 26  2  0  0  0  0
 31 28  2  0  0  0  0
 31 32  1  0  0  0  0
 32 21  1  0  0  0  0
M  END
>  <MODEL>
6

>  <REMARK>
 VINA RESULT:      -8.0      2.791      6.401
  Name = 
  9 active torsions:
  status: ('A' for Active; 'I' for Inactive)
    1  A    between atoms: C_1  and  C_19
    2  A    between atoms: C_3  and  C_15
    3  A    between atoms: C_3  and  C_29
    4  A    between atoms: C_11  and  C_15
    5  A    between atoms: C_12  and  N_16
    6  A    between atoms: N_14  and  C_21
    7  A    between atoms: C_19  and  O_25
    8  A    between atoms: C_21  and  C_23
    9  A    between atoms: O_25  and  C_29
                            x       y       z     vdW  Elec       q    Type
                         _______ _______ _______ _____ _____    ______ ____

>  <TORSDO>
F 9

$$$$
=
 OpenBabel10232408173D

 32 35  0  0  1  0  0  0  0  0999 V2000
  190.8300  176.7150  138.5990 C   0  0  0  0  0  0  0  0  0  0  0  0
  191.6600  176.5050  137.6320 N   0  0  0  0  0  0  0  0  0  0  0  0
  189.3620  176.6880  138.2970 C   0  0  0  0  0  2  0  0  0  0  0  0
  187.3900  178.1040  137.8340 C   0  0  0  0  0  2  0  0  0  0  0  0
  188.7470  178.0620  138.5050 C   0  0  0  0  0  3  0  0  0  0  0  0
  188.5850  178.7470  137.1620 C   0  0  0  0  0  2  0  0  0  0  0  0
  193.0980  176.4920  137.7880 C   0  0  0  0  0  2  0  0  0  0  0  0
  195.8530  174.5350  137.3440 C   0  0  0  0  0  3  0  0  0  0  0  0
  195.1620  175.6400  136.7900 N   0  0  0  0  0  0  0  0  0  0  0  0
  195.0030  173.6370  137.7970 C   0  0  0  0  0  0  0  0  0  0  0  0
  193.7280  175.4160  136.9090 C   0  0  1  0  0  3  0  0  0  0  0  0
  193.5910  174.0550  137.5920 C   0  0  0  0  0  3  0  0  0  0  0  0
  195.7560  170.1150  138.4810 O   0  0  0  0  0  1  0  0  0  0  0  0
  195.3630  172.4040  138.4330 N   0  0  0  0  0  2  0  0  0  0  0  0
  194.9260  170.9360  136.5120 O   0  0  0  0  0  0  0  0  0  0  0  0
  195.3650  171.1120  137.8190 C   0  0  0  0  0  0  0  0  0  0  0  0
  191.3070  176.9510  140.0120 C   0  0  0  0  0  2  0  0  0  0  0  0
  190.4740  176.3200  140.9400 O   0  0  0  0  0  0  0  0  0  0  0  0
  190.8440  176.8600  142.1710 C   0  0  0  0  0  2  0  0  0  0  0  0
  189.6230  177.1220  142.9910 C   0  0  0  0  0  0  0  0  0  0  0  0
  189.5570  177.3680  147.3360 O   0  0  0  0  0  1  0  0  0  0  0  0
  184.8560  178.4300  147.1030 N   0  0  0  0  0  1  0  0  0  0  0  0
  187.2940  177.7060  144.3900 C   0  0  0  0  0  0  0  0  0  0  0  0
  187.2920  177.6270  143.0340 N   0  0  0  0  0  0  0  0  0  0  0  0
  188.4160  177.3460  142.3320 C   0  0  0  0  0  3  0  0  0  0  0  0
  186.0720  178.1070  146.4400 C   0  0  0  0  0  0  0  0  0  0  0  0
  187.2330  177.8890  147.1790 C   0  0  0  0  0  3  0  0  0  0  0  0
  189.6730  177.1780  144.3980 C   0  0  0  0  0  0  0  0  0  0  0  0
  186.1030  178.0160  145.0500 C   0  0  0  0  0  3  0  0  0  0  0  0
  190.9850  176.9370  145.0790 C   0  0  0  0  0  1  0  0  0  0  0  0
  188.4900  177.4760  145.1250 C   0  0  0  0  0  0  0  0  0  0  0  0
  188.4360  177.5720  146.5410 C   0  0  0  0  0  0  0  0  0  0  0  0
  1 17  1  0  0  0  0
  2  7  1  0  0  0  0
  2  1  2  0  0  0  0
  3  5  1  0  0  0  0
  3  1  1  0  0  0  0
  4  5  1  0  0  0  0
  6  4  1  0  0  0  0
  6  5  1  0  0  0  0
  8 10  1  0  0  0  0
  9 11  1  0  0  0  0
  9  8  2  0  0  0  0
 10 14  1  0  0  0  0
 11 12  1  0  0  0  0
 11  7  1  1  0  0  0
 12 10  2  0  0  0  0
 15 16  2  0  0  0  0
 16 14  1  0  0  0  0
 16 13  1  0  0  0  0
 17 18  1  0  0  0  0
 18 19  1  0  0  0  0
 19 20  1  0  0  0  0
 20 28  1  0  0  0  0
 23 29  1  0  0  0  0
 23 31  1  0  0  0  0
 24 23  2  0  0  0  0
 25 20  2  0  0  0  0
 25 24  1  0  0  0  0
 26 22  1  0  0  0  0
 26 27  1  0  0  0  0
 28 30  1  0  0  0  0
 28 31  2  0  0  0  0
 29 26  2  0  0  0  0
 31 32  1  0  0  0  0
 32 27  2  0  0  0  0
 32 21  1  0  0  0  0
M  END
>  <MODEL>
7

>  <REMARK>
 VINA RESULT:      -7.9      3.924      6.166
  Name = 
  9 active torsions:
  status: ('A' for Active; 'I' for Inactive)
    1  A    between atoms: C_1  and  C_19
    2  A    between atoms: C_3  and  C_15
    3  A    between atoms: C_3  and  C_29
    4  A    between atoms: C_11  and  C_15
    5  A    between atoms: C_12  and  N_16
    6  A    between atoms: N_14  and  C_21
    7  A    between atoms: C_19  and  O_25
    8  A    between atoms: C_21  and  C_23
    9  A    between atoms: O_25  and  C_29
                            x       y       z     vdW  Elec       q    Type
                         _______ _______ _______ _____ _____    ______ ____

>  <TORSDO>
F 9

$$$$
=
 OpenBabel10232408173D

 32 35  0  0  1  0  0  0  0  0999 V2000
  185.0790  179.0630  141.3860 C   0  0  0  0  0  0  0  0  0  0  0  0
  184.0630  178.9750  140.5930 N   0  0  0  0  0  0  0  0  0  0  0  0
  184.8340  179.4200  142.8210 C   0  0  0  0  0  2  0  0  0  0  0  0
  182.5560  179.1670  143.7460 C   0  0  0  0  0  2  0  0  0  0  0  0
  183.8560  178.4460  143.4560 C   0  0  0  0  0  3  0  0  0  0  0  0
  183.5380  178.9030  144.8670 C   0  0  0  0  0  2  0  0  0  0  0  0
  184.1580  178.6280  139.1920 C   0  0  0  0  0  2  0  0  0  0  0  0
  182.8210  176.6800  136.7360 C   0  0  0  0  0  3  0  0  0  0  0  0
  182.7820  177.9890  137.2740 N   0  0  0  0  0  0  0  0  0  0  0  0
  182.9430  175.7870  137.6980 C   0  0  0  0  0  0  0  0  0  0  0  0
  182.8940  177.9140  138.7230 C   0  0  1  0  0  3  0  0  0  0  0  0
  183.0040  176.4230  139.0400 C   0  0  0  0  0  3  0  0  0  0  0  0
  184.1620  172.3500  137.3240 O   0  0  0  0  0  0  0  0  0  0  0  0
  183.0280  174.3700  137.5050 N   0  0  0  0  0  2  0  0  0  0  0  0
  185.4800  174.2130  137.5030 O   0  0  0  0  0  1  0  0  0  0  0  0
  184.2330  173.6010  137.4460 C   0  0  0  0  0  0  0  0  0  0  0  0
  186.4820  178.7850  140.9050 C   0  0  0  0  0  2  0  0  0  0  0  0
  187.3860  178.7510  141.9700 O   0  0  0  0  0  0  0  0  0  0  0  0
  187.4270  177.4120  142.3570 C   0  0  0  0  0  2  0  0  0  0  0  0
  188.5330  177.2080  143.3400 C   0  0  0  0  0  0  0  0  0  0  0  0
  188.1060  177.5400  147.6590 O   0  0  0  0  0  1  0  0  0  0  0  0
  192.7320  176.2500  148.1150 N   0  0  0  0  0  1  0  0  0  0  0  0
  190.6550  176.7130  145.0650 C   0  0  0  0  0  0  0  0  0  0  0  0
  190.8110  176.6110  143.7200 N   0  0  0  0  0  0  0  0  0  0  0  0
  189.7900  176.8440  142.8610 C   0  0  0  0  0  3  0  0  0  0  0  0
  191.6180  176.5360  147.2780 C   0  0  0  0  0  0  0  0  0  0  0  0
  190.3970  176.9010  147.8420 C   0  0  0  0  0  3  0  0  0  0  0  0
  188.3250  177.3420  144.7270 C   0  0  0  0  0  0  0  0  0  0  0  0
  191.7450  176.4420  145.8940 C   0  0  0  0  0  3  0  0  0  0  0  0
  186.9620  177.7300  145.2140 C   0  0  0  0  0  1  0  0  0  0  0  0
  189.4020  177.0920  145.6200 C   0  0  0  0  0  0  0  0  0  0  0  0
  189.2930  177.1830  147.0330 C   0  0  0  0  0  0  0  0  0  0  0  0
  1  3  1  0  0  0  0
  2  1  2  0  0  0  0
  3  5  1  0  0  0  0
  4  6  1  0  0  0  0
  5  4  1  0  0  0  0
  5  6  1  0  0  0  0
  7  2  1  0  0  0  0
  8  9  2  0  0  0  0
  8 10  1  0  0  0  0
  9 11  1  0  0  0  0
 10 12  2  0  0  0  0
 11 12  1  0  0  0  0
 11  7  1  6  0  0  0
 13 16  2  0  0  0  0
 14 10  1  0  0  0  0
 16 15  1  0  0  0  0
 16 14  1  0  0  0  0
 17  1  1  0  0  0  0
 17 18  1  0  0  0  0
 18 19  1  0  0  0  0
 19 20  1  0  0  0  0
 20 28  1  0  0  0  0
 23 31  1  0  0  0  0
 23 29  1  0  0  0  0
 24 23  2  0  0  0  0
 25 20  2  0  0  0  0
 25 24  1  0  0  0  0
 26 27  1  0  0  0  0
 26 22  1  0  0  0  0
 28 30  1  0  0  0  0
 28 31  2  0  0  0  0
 29 26  2  0  0  0  0
 31 32  1  0  0  0  0
 32 21  1  0  0  0  0
 32 27  2  0  0  0  0
M  END
>  <MODEL>
8

>  <REMARK>
 VINA RESULT:      -7.9      2.754      4.716
  Name = 
  9 active torsions:
  status: ('A' for Active; 'I' for Inactive)
    1  A    between atoms: C_1  and  C_19
    2  A    between atoms: C_3  and  C_15
    3  A    between atoms: C_3  and  C_29
    4  A    between atoms: C_11  and  C_15
    5  A    between atoms: C_12  and  N_16
    6  A    between atoms: N_14  and  C_21
    7  A    between atoms: C_19  and  O_25
    8  A    between atoms: C_21  and  C_23
    9  A    between atoms: O_25  and  C_29
                            x       y       z     vdW  Elec       q    Type
                         _______ _______ _______ _____ _____    ______ ____

>  <TORSDO>
F 9

$$$$
=
 OpenBabel10232408173D

 32 35  0  0  1  0  0  0  0  0999 V2000
  190.5580  176.7640  138.7680 C   0  0  0  0  0  0  0  0  0  0  0  0
  191.3140  176.2870  137.8350 N   0  0  0  0  0  0  0  0  0  0  0  0
  189.1170  177.0310  138.4520 C   0  0  0  0  0  2  0  0  0  0  0  0
  188.9820  179.1630  137.2100 C   0  0  0  0  0  2  0  0  0  0  0  0
  188.9770  177.6550  137.0740 C   0  0  0  0  0  3  0  0  0  0  0  0
  187.6750  178.4270  137.0030 C   0  0  0  0  0  2  0  0  0  0  0  0
  192.7150  175.9730  138.0100 C   0  0  0  0  0  2  0  0  0  0  0  0
  195.2700  175.8360  135.7580 C   0  0  0  0  0  3  0  0  0  0  0  0
  193.8980  176.1660  135.8780 N   0  0  0  0  0  0  0  0  0  0  0  0
  195.5610  174.7880  136.5020 C   0  0  0  0  0  0  0  0  0  0  0  0
  193.2600  175.2310  136.7940 C   0  0  1  0  0  3  0  0  0  0  0  0
  194.3710  174.2790  137.2340 C   0  0  0  0  0  3  0  0  0  0  0  0
  198.8200  173.6810  137.7630 O   0  0  0  0  0  0  0  0  0  0  0  0
  196.8600  174.1980  136.6270 N   0  0  0  0  0  2  0  0  0  0  0  0
  197.3730  175.0690  138.8660 O   0  0  0  0  0  1  0  0  0  0  0  0
  197.7210  174.2950  137.7660 C   0  0  0  0  0  0  0  0  0  0  0  0
  191.0880  177.0220  140.1580 C   0  0  0  0  0  2  0  0  0  0  0  0
  190.5000  176.1630  141.0910 O   0  0  0  0  0  0  0  0  0  0  0  0
  190.8630  176.6880  142.3310 C   0  0  0  0  0  2  0  0  0  0  0  0
  189.6340  177.0030  143.1200 C   0  0  0  0  0  0  0  0  0  0  0  0
  189.5200  177.4950  147.4430 O   0  0  0  0  0  1  0  0  0  0  0  0
  184.8310  178.5740  147.0960 N   0  0  0  0  0  1  0  0  0  0  0  0
  187.2940  177.6820  144.4560 C   0  0  0  0  0  0  0  0  0  0  0  0
  187.3070  177.5260  143.1080 N   0  0  0  0  0  0  0  0  0  0  0  0
  188.4370  177.1990  142.4360 C   0  0  0  0  0  3  0  0  0  0  0  0
  186.0520  178.2050  146.4660 C   0  0  0  0  0  0  0  0  0  0  0  0
  187.2030  178.0220  147.2300 C   0  0  0  0  0  3  0  0  0  0  0  0
  189.6690  177.1390  144.5230 C   0  0  0  0  0  0  0  0  0  0  0  0
  186.0980  178.0360  145.0840 C   0  0  0  0  0  3  0  0  0  0  0  0
  190.9720  176.9270  145.2320 C   0  0  0  0  0  1  0  0  0  0  0  0
  188.4790  177.4850  145.2180 C   0  0  0  0  0  0  0  0  0  0  0  0
  188.4100  177.6620  146.6250 C   0  0  0  0  0  0  0  0  0  0  0  0
  1 17  1  0  0  0  0
  2  7  1  0  0  0  0
  2  1  2  0  0  0  0
  3  1  1  0  0  0  0
  5  4  1  0  0  0  0
  5  3  1  0  0  0  0
  6  5  1  0  0  0  0
  6  4  1  0  0  0  0
  8  9  2  0  0  0  0
  8 10  1  0  0  0  0
  9 11  1  0  0  0  0
 10 14  1  0  0  0  0
 10 12  2  0  0  0  0
 11 12  1  0  0  0  0
 11  7  1  1  0  0  0
 13 16  2  0  0  0  0
 14 16  1  0  0  0  0
 16 15  1  0  0  0  0
 17 18  1  0  0  0  0
 18 19  1  0  0  0  0
 19 20  1  0  0  0  0
 20 28  1  0  0  0  0
 23 29  1  0  0  0  0
 23 31  1  0  0  0  0
 24 23  2  0  0  0  0
 25 24  1  0  0  0  0
 25 20  2  0  0  0  0
 26 22  1  0  0  0  0
 26 27  1  0  0  0  0
 28 31  2  0  0  0  0
 28 30  1  0  0  0  0
 29 26  2  0  0  0  0
 31 32  1  0  0  0  0
 32 27  2  0  0  0  0
 32 21  1  0  0  0  0
M  END
>  <MODEL>
9

>  <REMARK>
 VINA RESULT:      -7.8      3.977      6.122
  Name = 
  9 active torsions:
  status: ('A' for Active; 'I' for Inactive)
    1  A    between atoms: C_1  and  C_19
    2  A    between atoms: C_3  and  C_15
    3  A    between atoms: C_3  and  C_29
    4  A    between atoms: C_11  and  C_15
    5  A    between atoms: C_12  and  N_16
    6  A    between atoms: N_14  and  C_21
    7  A    between atoms: C_19  and  O_25
    8  A    between atoms: C_21  and  C_23
    9  A    between atoms: O_25  and  C_29
                            x       y       z     vdW  Elec       q    Type
                         _______ _______ _______ _____ _____    ______ ____

>  <TORSDO>
F 9

$$$$
