=
 OpenBabel10232408593D

 46 48  0  0  1  0  0  0  0  0999 V2000
  186.2870  177.8870  145.2960 C   0  0  1  0  0  3  0  0  0  0  0  0
  186.6280  176.8750  144.3040 N   0  0  0  0  0  2  0  0  0  0  0  0
  187.5740  177.0930  143.2540 C   0  0  0  0  0  0  0  0  0  0  0  0
  189.4600  177.4880  141.2040 C   0  0  0  0  0  0  0  0  0  0  0  0
  189.6830  176.5270  142.2040 C   0  0  0  0  0  3  0  0  0  0  0  0
  187.3490  178.0570  142.2600 C   0  0  0  0  0  3  0  0  0  0  0  0
  188.2880  178.2500  141.2430 C   0  0  0  0  0  3  0  0  0  0  0  0
  188.7460  176.3320  143.2210 C   0  0  0  0  0  3  0  0  0  0  0  0
  190.3730  177.7280  140.1680 O   0  0  0  0  0  0  0  0  0  0  0  0
  189.8370  177.9540  137.9150 O   0  0  0  0  0  0  0  0  0  0  0  0
  190.2840  177.2440  138.8540 C   0  0  0  0  0  0  0  0  0  0  0  0
  190.7050  175.8430  138.5710 C   0  0  0  0  0  2  0  0  0  0  0  0
  189.2100  173.7170  135.1440 C   0  0  1  0  0  3  0  0  0  0  0  0
  191.2140  174.3670  136.6040 C   0  0  0  0  0  2  0  0  0  0  0  0
  188.9360  175.0220  137.1690 O   0  0  0  0  0  0  0  0  0  0  0  0
  190.4410  173.2300  135.9210 C   0  0  0  0  0  2  0  0  0  0  0  0
  190.2780  175.4480  137.1690 C   0  0  1  0  0  3  0  0  0  0  0  0
  188.2950  172.6660  135.0530 O   0  0  0  0  0  1  0  0  0  0  0  0
  188.5790  174.9590  135.8140 C   0  0  2  0  0  3  0  0  0  0  0  0
  187.0660  175.0590  135.6330 C   0  0  0  0  0  2  0  0  0  0  0  0
  186.3260  175.0190  136.9660 C   0  0  0  0  0  2  0  0  0  0  0  0
  185.5700  173.7130  137.1490 C   0  0  0  0  0  2  0  0  0  0  0  0
  186.3340  172.8200  137.8990 O   0  0  0  0  0  1  0  0  0  0  0  0
  187.4810  178.3990  145.8780 O   0  0  0  0  0  0  0  0  0  0  0  0
  188.2610  177.6590  146.7690 C   0  0  0  0  0  0  0  0  0  0  0  0
  189.6130  177.3610  146.4250 N   0  0  0  0  0  2  0  0  0  0  0  0
  187.7780  177.2550  147.8630 O   0  0  0  0  0  0  0  0  0  0  0  0
  190.4870  176.6060  147.3110 C   0  0  0  0  0  2  0  0  0  0  0  0
  192.7610  175.7860  147.5640 N   0  0  0  0  0  1  0  0  0  0  0  0
  191.7980  176.3070  146.6090 C   0  0  0  0  0  2  0  0  0  0  0  0
  185.5150  179.0160  144.6320 C   0  0  0  0  0  2  0  0  0  0  0  0
  184.0840  178.5920  144.3440 C   0  0  0  0  0  2  0  0  0  0  0  0
  183.8310  178.5620  142.8440 C   0  0  0  0  0  2  0  0  0  0  0  0
  180.4180  178.6310  141.4190 C   0  0  0  0  0  3  0  0  0  0  0  0
  181.4990  179.2450  143.4000 C   0  0  0  0  0  3  0  0  0  0  0  0
  182.3830  178.7720  142.5390 C   0  0  0  0  0  0  0  0  0  0  0  0
  180.1480  179.2550  142.7530 C   0  0  0  0  0  2  0  0  0  0  0  0
  181.7190  178.4170  141.3020 C   0  0  0  0  0  0  0  0  0  0  0  0
  183.0170  178.1840  139.2140 C   0  0  0  0  0  0  0  0  0  0  0  0
  182.3550  177.7050  140.2290 N   0  0  0  0  0  0  0  0  0  0  0  0
  184.6680  180.0510  139.3750 O   0  0  0  0  0  1  0  0  0  0  0  0
  182.5440  180.4410  138.6320 O   0  0  0  0  0  0  0  0  0  0  0  0
  183.3810  179.6160  139.0840 C   0  0  0  0  0  0  0  0  0  0  0  0
  183.0340  177.6410  136.8940 O   0  0  0  0  0  1  0  0  0  0  0  0
  183.4430  177.2110  138.1560 C   0  0  2  0  0  3  0  0  0  0  0  0
  182.8910  175.8270  138.4400 C   0  0  0  0  0  1  0  0  0  0  0  0
  1 31  1  6  0  0  0
  1 24  1  0  0  0  0
  2  1  1  0  0  0  0
  3  2  1  0  0  0  0
  4  7  2  0  0  0  0
  4  5  1  0  0  0  0
  5  8  2  0  0  0  0
  6  3  2  0  0  0  0
  7  6  1  0  0  0  0
  8  3  1  0  0  0  0
  9  4  1  0  0  0  0
 10 11  2  0  0  0  0
 11  9  1  0  0  0  0
 12 11  1  0  0  0  0
 13 18  1  1  0  0  0
 13 19  1  0  0  0  0
 13 16  1  0  0  0  0
 14 17  1  0  0  0  0
 16 14  1  0  0  0  0
 17 15  1  0  0  0  0
 17 12  1  1  0  0  0
 19 20  1  1  0  0  0
 19 15  1  0  0  0  0
 20 21  1  0  0  0  0
 21 22  1  0  0  0  0
 22 23  1  0  0  0  0
 24 25  1  0  0  0  0
 25 27  2  0  0  0  0
 26 25  1  0  0  0  0
 26 28  1  0  0  0  0
 30 28  1  0  0  0  0
 30 29  1  0  0  0  0
 32 31  1  0  0  0  0
 33 32  1  0  0  0  0
 34 37  1  0  0  0  0
 36 33  1  0  0  0  0
 36 35  2  0  0  0  0
 37 35  1  0  0  0  0
 38 34  2  0  0  0  0
 38 36  1  0  0  0  0
 39 40  2  0  0  0  0
 40 38  1  0  0  0  0
 42 43  2  0  0  0  0
 43 39  1  0  0  0  0
 43 41  1  0  0  0  0
 44 45  1  0  0  0  0
 45 46  1  1  0  0  0
 45 39  1  0  0  0  0
M  END
>  <MODEL>
1

>  <REMARK>
 VINA RESULT:      -7.1      0.000      0.000
  Name = 
  20 active torsions:
  status: ('A' for Active; 'I' for Inactive)
    1  A    between atoms: C_1  and  N_32
    2  A    between atoms: C_2  and  O_45
    3  A    between atoms: C_7  and  C_18
    4  A    between atoms: C_7  and  O_27
    5  A    between atoms: C_7  and  N_32
    6  A    between atoms: C_8  and  C_16
    7  A    between atoms: CA_10  and  C_28
    8  A    between atoms: CA_10  and  CB_43
    9  A    between atoms: N_11  and  C_35
   10  A    between atoms: C_15  and  C_18
   11  A    between atoms: C_15  and  C_41
   12  A    between atoms: C_16  and  C_17
   13  A    between atoms: C_17  and  C_39
   14  A    between atoms: C_21  and  C_41
   15  A    between atoms: C_22  and  O_27
   16  A    between atoms: C_23  and  C_36
   17  A    between atoms: C_23  and  C_42
   18  A    between atoms: N_25  and  C_29
   19  A    between atoms: C_29  and  C_38
   20  A    between atoms: C_42  and  O_45
                            x       y       z     vdW  Elec       q    Type
                         _______ _______ _______ _____ _____    ______ ____

>  <TORSDO>
F 20

$$$$
=
 OpenBabel10232408593D

 46 48  0  0  1  0  0  0  0  0999 V2000
  186.5000  177.7940  145.3380 C   0  0  1  0  0  3  0  0  0  0  0  0
  186.6240  176.8780  144.2110 N   0  0  0  0  0  2  0  0  0  0  0  0
  187.4020  177.1680  143.0460 C   0  0  0  0  0  0  0  0  0  0  0  0
  188.9030  177.7700  140.7440 C   0  0  0  0  0  0  0  0  0  0  0  0
  187.6850  178.4220  140.9920 C   0  0  0  0  0  3  0  0  0  0  0  0
  188.6160  176.5110  142.8010 C   0  0  0  0  0  3  0  0  0  0  0  0
  189.3600  176.8130  141.6560 C   0  0  0  0  0  3  0  0  0  0  0  0
  186.9400  178.1220  142.1360 C   0  0  0  0  0  3  0  0  0  0  0  0
  189.6830  178.0280  139.6080 O   0  0  0  0  0  0  0  0  0  0  0  0
  189.2310  179.5120  137.8750 O   0  0  0  0  0  0  0  0  0  0  0  0
  189.2050  178.3370  138.3260 C   0  0  0  0  0  0  0  0  0  0  0  0
  188.6250  177.2480  137.4900 C   0  0  0  0  0  2  0  0  0  0  0  0
  191.0590  173.7500  136.9020 C   0  0  1  0  0  3  0  0  0  0  0  0
  188.7170  174.7890  136.9900 C   0  0  0  0  0  2  0  0  0  0  0  0
  190.7360  176.1300  137.2350 O   0  0  0  0  0  0  0  0  0  0  0  0
  189.7030  173.9170  136.2000 C   0  0  0  0  0  2  0  0  0  0  0  0
  189.4140  175.9670  137.6900 C   0  0  1  0  0  3  0  0  0  0  0  0
  192.0290  173.4680  135.9380 O   0  0  0  0  0  1  0  0  0  0  0  0
  191.4250  175.0090  137.7210 C   0  0  2  0  0  3  0  0  0  0  0  0
  192.9260  175.2750  137.8090 C   0  0  0  0  0  2  0  0  0  0  0  0
  193.3250  176.5540  137.0790 C   0  0  0  0  0  2  0  0  0  0  0  0
  194.2210  176.2620  135.8870 C   0  0  0  0  0  2  0  0  0  0  0  0
  193.4920  176.3750  134.7030 O   0  0  0  0  0  1  0  0  0  0  0  0
  187.7900  178.2740  145.7010 O   0  0  0  0  0  0  0  0  0  0  0  0
  188.6450  177.5650  146.5470 C   0  0  0  0  0  0  0  0  0  0  0  0
  190.0410  177.5310  146.2530 N   0  0  0  0  0  2  0  0  0  0  0  0
  188.1930  176.9590  147.5570 O   0  0  0  0  0  0  0  0  0  0  0  0
  190.9910  176.8230  147.0970 C   0  0  0  0  0  2  0  0  0  0  0  0
  191.6460  176.2170  144.8360 N   0  0  0  0  0  1  0  0  0  0  0  0
  191.8780  175.9380  146.2430 C   0  0  0  0  0  2  0  0  0  0  0  0
  185.6080  178.9630  144.9500 C   0  0  0  0  0  2  0  0  0  0  0  0
  184.2260  178.4740  144.5480 C   0  0  0  0  0  2  0  0  0  0  0  0
  183.9990  178.6880  143.0600 C   0  0  0  0  0  2  0  0  0  0  0  0
  180.5760  178.6060  141.6580 C   0  0  0  0  0  3  0  0  0  0  0  0
  181.6560  179.3490  143.5950 C   0  0  0  0  0  3  0  0  0  0  0  0
  182.5450  178.8500  142.7540 C   0  0  0  0  0  0  0  0  0  0  0  0
  180.3020  179.2950  142.9590 C   0  0  0  0  0  2  0  0  0  0  0  0
  181.8810  178.4150  141.5440 C   0  0  0  0  0  0  0  0  0  0  0  0
  183.1540  178.0990  139.4510 C   0  0  0  0  0  0  0  0  0  0  0  0
  182.5260  177.6600  140.5050 N   0  0  0  0  0  0  0  0  0  0  0  0
  182.5140  180.3890  138.6870 O   0  0  0  0  0  0  0  0  0  0  0  0
  184.5720  180.0030  139.6000 O   0  0  0  0  0  1  0  0  0  0  0  0
  183.4650  179.5320  139.2270 C   0  0  0  0  0  0  0  0  0  0  0  0
  183.3590  177.5230  137.1470 O   0  0  0  0  0  1  0  0  0  0  0  0
  183.5990  177.0780  138.4480 C   0  0  2  0  0  3  0  0  0  0  0  0
  182.9030  175.7510  138.6810 C   0  0  0  0  0  1  0  0  0  0  0  0
  1 31  1  6  0  0  0
  1 24  1  0  0  0  0
  2  1  1  0  0  0  0
  3  2  1  0  0  0  0
  4  5  2  0  0  0  0
  4  7  1  0  0  0  0
  5  8  1  0  0  0  0
  6  3  1  0  0  0  0
  7  6  2  0  0  0  0
  8  3  2  0  0  0  0
  9  4  1  0  0  0  0
 10 11  2  0  0  0  0
 11  9  1  0  0  0  0
 12 11  1  0  0  0  0
 13 18  1  6  0  0  0
 13 19  1  0  0  0  0
 14 17  1  0  0  0  0
 15 17  1  0  0  0  0
 15 19  1  0  0  0  0
 16 13  1  0  0  0  0
 16 14  1  0  0  0  0
 17 12  1  6  0  0  0
 19 20  1  6  0  0  0
 21 20  1  0  0  0  0
 22 21  1  0  0  0  0
 23 22  1  0  0  0  0
 24 25  1  0  0  0  0
 25 27  2  0  0  0  0
 26 25  1  0  0  0  0
 26 28  1  0  0  0  0
 29 30  1  0  0  0  0
 30 28  1  0  0  0  0
 32 31  1  0  0  0  0
 33 32  1  0  0  0  0
 34 37  1  0  0  0  0
 36 33  1  0  0  0  0
 36 35  2  0  0  0  0
 37 35  1  0  0  0  0
 38 34  2  0  0  0  0
 38 36  1  0  0  0  0
 39 40  2  0  0  0  0
 40 38  1  0  0  0  0
 41 43  2  0  0  0  0
 43 39  1  0  0  0  0
 43 42  1  0  0  0  0
 44 45  1  0  0  0  0
 45 46  1  1  0  0  0
 45 39  1  0  0  0  0
M  END
>  <MODEL>
2

>  <REMARK>
 VINA RESULT:      -7.1      1.488      2.780
  Name = 
  20 active torsions:
  status: ('A' for Active; 'I' for Inactive)
    1  A    between atoms: C_1  and  N_32
    2  A    between atoms: C_2  and  O_45
    3  A    between atoms: C_7  and  C_18
    4  A    between atoms: C_7  and  O_27
    5  A    between atoms: C_7  and  N_32
    6  A    between atoms: C_8  and  C_16
    7  A    between atoms: CA_10  and  C_28
    8  A    between atoms: CA_10  and  CB_43
    9  A    between atoms: N_11  and  C_35
   10  A    between atoms: C_15  and  C_18
   11  A    between atoms: C_15  and  C_41
   12  A    between atoms: C_16  and  C_17
   13  A    between atoms: C_17  and  C_39
   14  A    between atoms: C_21  and  C_41
   15  A    between atoms: C_22  and  O_27
   16  A    between atoms: C_23  and  C_36
   17  A    between atoms: C_23  and  C_42
   18  A    between atoms: N_25  and  C_29
   19  A    between atoms: C_29  and  C_38
   20  A    between atoms: C_42  and  O_45
                            x       y       z     vdW  Elec       q    Type
                         _______ _______ _______ _____ _____    ______ ____

>  <TORSDO>
F 20

$$$$
=
 OpenBabel10232408593D

 46 48  0  0  1  0  0  0  0  0999 V2000
  184.2940  178.7830  139.5700 C   0  0  1  0  0  3  0  0  0  0  0  0
  185.1550  179.4430  140.5440 N   0  0  0  0  0  2  0  0  0  0  0  0
  185.3490  178.9580  141.8750 C   0  0  0  0  0  0  0  0  0  0  0  0
  185.7730  177.9900  144.4830 C   0  0  0  0  0  0  0  0  0  0  0  0
  186.7390  177.7920  143.4820 C   0  0  0  0  0  3  0  0  0  0  0  0
  184.3800  179.1540  142.8700 C   0  0  0  0  0  3  0  0  0  0  0  0
  184.5940  178.6720  144.1640 C   0  0  0  0  0  3  0  0  0  0  0  0
  186.5270  178.2730  142.1880 C   0  0  0  0  0  3  0  0  0  0  0  0
  185.9340  177.5200  145.7930 O   0  0  0  0  0  0  0  0  0  0  0  0
  185.9800  179.4060  147.1540 O   0  0  0  0  0  0  0  0  0  0  0  0
  186.4150  178.2550  146.8870 C   0  0  0  0  0  0  0  0  0  0  0  0
  187.4900  177.6670  147.7350 C   0  0  0  0  0  2  0  0  0  0  0  0
  191.4040  176.9890  146.0830 C   0  0  1  0  0  3  0  0  0  0  0  0
  189.9770  177.7370  148.0780 C   0  0  0  0  0  2  0  0  0  0  0  0
  188.9820  176.8770  146.0260 O   0  0  0  0  0  0  0  0  0  0  0  0
  191.1270  176.8450  147.5870 C   0  0  0  0  0  2  0  0  0  0  0  0
  188.8360  177.8300  147.0510 C   0  0  1  0  0  3  0  0  0  0  0  0
  192.0070  175.8150  145.6270 O   0  0  0  0  0  1  0  0  0  0  0  0
  190.1060  177.2980  145.3010 C   0  0  2  0  0  3  0  0  0  0  0  0
  190.0910  176.7380  143.8800 C   0  0  0  0  0  2  0  0  0  0  0  0
  190.5870  177.7560  142.8580 C   0  0  0  0  0  2  0  0  0  0  0  0
  190.0190  177.4830  141.4750 C   0  0  0  0  0  2  0  0  0  0  0  0
  190.3170  176.1780  141.0850 O   0  0  0  0  0  1  0  0  0  0  0  0
  183.1700  179.6130  139.2950 O   0  0  0  0  0  0  0  0  0  0  0  0
  181.8620  179.2300  139.5990 C   0  0  0  0  0  0  0  0  0  0  0  0
  181.5320  177.8420  139.6210 N   0  0  0  0  0  2  0  0  0  0  0  0
  180.9800  180.0970  139.8490 O   0  0  0  0  0  0  0  0  0  0  0  0
  180.1940  177.3710  139.9430 C   0  0  0  0  0  2  0  0  0  0  0  0
  180.6770  175.3330  138.7070 N   0  0  0  0  0  1  0  0  0  0  0  0
  180.1750  175.8540  139.9680 C   0  0  0  0  0  2  0  0  0  0  0  0
  185.0720  178.5320  138.2880 C   0  0  0  0  0  2  0  0  0  0  0  0
  184.7810  177.1420  137.7470 C   0  0  0  0  0  2  0  0  0  0  0  0
  186.0230  176.5560  137.0920 C   0  0  0  0  0  2  0  0  0  0  0  0
  186.3320  173.0120  136.0790 C   0  0  0  0  0  3  0  0  0  0  0  0
  185.0320  174.3100  137.5250 C   0  0  0  0  0  3  0  0  0  0  0  0
  185.8670  175.0890  136.8590 C   0  0  0  0  0  0  0  0  0  0  0  0
  185.2030  172.8990  137.0560 C   0  0  0  0  0  2  0  0  0  0  0  0
  186.6540  174.2890  135.9440 C   0  0  0  0  0  0  0  0  0  0  0  0
  188.9670  175.1020  135.6430 C   0  0  0  0  0  0  0  0  0  0  0  0
  187.7780  174.7920  135.2060 N   0  0  0  0  0  0  0  0  0  0  0  0
  189.8250  173.5310  137.3850 O   0  0  0  0  0  0  0  0  0  0  0  0
  189.5300  175.7450  137.8630 O   0  0  0  0  0  1  0  0  0  0  0  0
  189.4250  174.8110  137.0240 C   0  0  0  0  0  0  0  0  0  0  0  0
  191.2300  175.5600  135.0560 O   0  0  0  0  0  1  0  0  0  0  0  0
  189.9030  175.7540  134.6720 C   0  0  2  0  0  3  0  0  0  0  0  0
  189.6070  177.2360  134.5480 C   0  0  0  0  0  1  0  0  0  0  0  0
  1 31  1  6  0  0  0
  1  2  1  0  0  0  0
  2  3  1  0  0  0  0
  3  8  2  0  0  0  0
  3  6  1  0  0  0  0
  4  9  1  0  0  0  0
  5  4  2  0  0  0  0
  6  7  2  0  0  0  0
  7  4  1  0  0  0  0
  8  5  1  0  0  0  0
  9 11  1  0  0  0  0
 11 10  2  0  0  0  0
 11 12  1  0  0  0  0
 13 18  1  6  0  0  0
 13 16  1  0  0  0  0
 15 17  1  0  0  0  0
 16 14  1  0  0  0  0
 17 12  1  1  0  0  0
 17 14  1  0  0  0  0
 19 20  1  6  0  0  0
 19 15  1  0  0  0  0
 19 13  1  0  0  0  0
 21 20  1  0  0  0  0
 22 21  1  0  0  0  0
 23 22  1  0  0  0  0
 24  1  1  0  0  0  0
 24 25  1  0  0  0  0
 25 26  1  0  0  0  0
 25 27  2  0  0  0  0
 26 28  1  0  0  0  0
 28 30  1  0  0  0  0
 29 30  1  0  0  0  0
 32 31  1  0  0  0  0
 33 32  1  0  0  0  0
 34 37  1  0  0  0  0
 36 33  1  0  0  0  0
 36 35  2  0  0  0  0
 37 35  1  0  0  0  0
 38 34  2  0  0  0  0
 38 36  1  0  0  0  0
 39 43  1  0  0  0  0
 40 39  2  0  0  0  0
 40 38  1  0  0  0  0
 43 41  2  0  0  0  0
 43 42  1  0  0  0  0
 45 46  1  1  0  0  0
 45 44  1  0  0  0  0
 45 39  1  0  0  0  0
M  END
>  <MODEL>
3

>  <REMARK>
 VINA RESULT:      -7.0      2.719      8.796
  Name = 
  20 active torsions:
  status: ('A' for Active; 'I' for Inactive)
    1  A    between atoms: C_1  and  N_32
    2  A    between atoms: C_2  and  O_45
    3  A    between atoms: C_7  and  C_18
    4  A    between atoms: C_7  and  O_27
    5  A    between atoms: C_7  and  N_32
    6  A    between atoms: C_8  and  C_16
    7  A    between atoms: CA_10  and  C_28
    8  A    between atoms: CA_10  and  CB_43
    9  A    between atoms: N_11  and  C_35
   10  A    between atoms: C_15  and  C_18
   11  A    between atoms: C_15  and  C_41
   12  A    between atoms: C_16  and  C_17
   13  A    between atoms: C_17  and  C_39
   14  A    between atoms: C_21  and  C_41
   15  A    between atoms: C_22  and  O_27
   16  A    between atoms: C_23  and  C_36
   17  A    between atoms: C_23  and  C_42
   18  A    between atoms: N_25  and  C_29
   19  A    between atoms: C_29  and  C_38
   20  A    between atoms: C_42  and  O_45
                            x       y       z     vdW  Elec       q    Type
                         _______ _______ _______ _____ _____    ______ ____

>  <TORSDO>
F 20

$$$$
=
 OpenBabel10232408593D

 46 48  0  0  1  0  0  0  0  0999 V2000
  182.7070  176.9860  139.6000 C   0  0  1  0  0  3  0  0  0  0  0  0
  182.3780  178.1560  140.4040 N   0  0  0  0  0  2  0  0  0  0  0  0
  183.0960  178.5230  141.5840 C   0  0  0  0  0  0  0  0  0  0  0  0
  184.5460  179.2480  143.8840 C   0  0  0  0  0  0  0  0  0  0  0  0
  185.2080  179.0100  142.6690 C   0  0  0  0  0  3  0  0  0  0  0  0
  182.4310  178.7560  142.7970 C   0  0  0  0  0  3  0  0  0  0  0  0
  183.1550  179.1160  143.9380 C   0  0  0  0  0  3  0  0  0  0  0  0
  184.4870  178.6500  141.5280 C   0  0  0  0  0  3  0  0  0  0  0  0
  185.2240  179.6020  145.0590 O   0  0  0  0  0  0  0  0  0  0  0  0
  185.2120  178.9560  147.2940 O   0  0  0  0  0  0  0  0  0  0  0  0
  185.5740  178.7390  146.1080 C   0  0  0  0  0  0  0  0  0  0  0  0
  186.4220  177.5500  145.8110 C   0  0  0  0  0  2  0  0  0  0  0  0
  190.7090  177.3900  146.1330 C   0  0  1  0  0  3  0  0  0  0  0  0
  188.4280  177.2990  147.3010 C   0  0  0  0  0  2  0  0  0  0  0  0
  188.6350  177.4750  144.8800 O   0  0  0  0  0  0  0  0  0  0  0  0
  189.7980  176.6320  147.1100 C   0  0  0  0  0  2  0  0  0  0  0  0
  187.8880  177.9010  145.9940 C   0  0  1  0  0  3  0  0  0  0  0  0
  191.6290  176.4900  145.5920 O   0  0  0  0  0  1  0  0  0  0  0  0
  189.8860  178.0910  145.0280 C   0  0  2  0  0  3  0  0  0  0  0  0
  190.6130  178.2010  143.6900 C   0  0  0  0  0  2  0  0  0  0  0  0
  189.7280  177.7820  142.5200 C   0  0  0  0  0  2  0  0  0  0  0  0
  190.2790  176.5540  141.8130 C   0  0  0  0  0  2  0  0  0  0  0  0
  190.2840  175.4640  142.6830 O   0  0  0  0  0  1  0  0  0  0  0  0
  181.5920  176.1010  139.5740 O   0  0  0  0  0  0  0  0  0  0  0  0
  181.0750  175.5760  138.3880 C   0  0  0  0  0  0  0  0  0  0  0  0
  181.6550  174.3910  137.8440 N   0  0  0  0  0  2  0  0  0  0  0  0
  180.1120  176.1410  137.8000 O   0  0  0  0  0  0  0  0  0  0  0  0
  181.1600  173.7820  136.6190 C   0  0  0  0  0  2  0  0  0  0  0  0
  180.5630  171.6460  135.6230 N   0  0  0  0  0  1  0  0  0  0  0  0
  181.3180  172.2750  136.6940 C   0  0  0  0  0  2  0  0  0  0  0  0
  183.0500  177.4190  138.1830 C   0  0  0  0  0  2  0  0  0  0  0  0
  184.5520  177.5920  138.0230 C   0  0  0  0  0  2  0  0  0  0  0  0
  184.9880  177.1820  136.6250 C   0  0  0  0  0  2  0  0  0  0  0  0
  187.0180  174.1120  136.9940 C   0  0  0  0  0  3  0  0  0  0  0  0
  184.8540  174.7090  136.3400 C   0  0  0  0  0  3  0  0  0  0  0  0
  185.5500  175.7980  136.6210 C   0  0  0  0  0  0  0  0  0  0  0  0
  185.7390  173.5120  136.4980 C   0  0  0  0  0  3  0  0  0  0  0  0
  186.8980  175.4300  136.9990 C   0  0  1  0  0  3  0  0  0  0  0  0
  188.7860  177.0210  136.9180 C   0  0  0  0  0  0  0  0  0  0  0  0
  187.8560  176.3530  137.5410 N   0  0  0  0  0  0  0  0  0  0  0  0
  187.9170  177.6580  134.6640 O   0  0  0  0  0  0  0  0  0  0  0  0
  189.9420  176.6260  134.8770 O   0  0  0  0  0  1  0  0  0  0  0  0
  188.9040  177.0630  135.4390 C   0  0  0  0  0  0  0  0  0  0  0  0
  190.7230  176.9600  138.3040 O   0  0  0  0  0  1  0  0  0  0  0  0
  189.7490  177.7990  137.7610 C   0  0  2  0  0  3  0  0  0  0  0  0
  189.0240  178.5400  138.8680 C   0  0  0  0  0  1  0  0  0  0  0  0
  1 31  1  6  0  0  0
  1  2  1  0  0  0  0
  2  3  1  0  0  0  0
  3  6  1  0  0  0  0
  4  7  1  0  0  0  0
  4  9  1  0  0  0  0
  5  4  2  0  0  0  0
  6  7  2  0  0  0  0
  8  3  2  0  0  0  0
  8  5  1  0  0  0  0
  9 11  1  0  0  0  0
 11 10  2  0  0  0  0
 12 11  1  0  0  0  0
 13 18  1  6  0  0  0
 13 16  1  0  0  0  0
 15 19  1  0  0  0  0
 15 17  1  0  0  0  0
 16 14  1  0  0  0  0
 17 12  1  6  0  0  0
 17 14  1  0  0  0  0
 19 20  1  6  0  0  0
 19 13  1  0  0  0  0
 21 20  1  0  0  0  0
 22 21  1  0  0  0  0
 22 23  1  0  0  0  0
 24  1  1  0  0  0  0
 25 24  1  0  0  0  0
 26 25  1  0  0  0  0
 27 25  2  0  0  0  0
 28 30  1  0  0  0  0
 28 26  1  0  0  0  0
 29 30  1  0  0  0  0
 32 31  1  0  0  0  0
 33 32  1  0  0  0  0
 34 38  1  0  0  0  0
 35 37  1  0  0  0  0
 35 36  2  0  0  0  0
 36 33  1  0  0  0  0
 36 38  1  0  0  0  0
 37 34  2  0  0  0  0
 38 40  1  1  0  0  0
 39 40  2  0  0  0  0
 39 45  1  0  0  0  0
 41 43  2  0  0  0  0
 42 43  1  0  0  0  0
 43 39  1  0  0  0  0
 45 44  1  0  0  0  0
 45 46  1  1  0  0  0
M  END
>  <MODEL>
4

>  <REMARK>
 VINA RESULT:      -7.0      3.268      9.039
  Name = 
  20 active torsions:
  status: ('A' for Active; 'I' for Inactive)
    1  A    between atoms: C_1  and  N_32
    2  A    between atoms: C_2  and  O_45
    3  A    between atoms: C_7  and  C_18
    4  A    between atoms: C_7  and  O_27
    5  A    between atoms: C_7  and  N_32
    6  A    between atoms: C_8  and  C_16
    7  A    between atoms: CA_10  and  C_28
    8  A    between atoms: CA_10  and  CB_43
    9  A    between atoms: N_11  and  C_35
   10  A    between atoms: C_15  and  C_18
   11  A    between atoms: C_15  and  C_41
   12  A    between atoms: C_16  and  C_17
   13  A    between atoms: C_17  and  C_39
   14  A    between atoms: C_21  and  C_41
   15  A    between atoms: C_22  and  O_27
   16  A    between atoms: C_23  and  C_36
   17  A    between atoms: C_23  and  C_42
   18  A    between atoms: N_25  and  C_29
   19  A    between atoms: C_29  and  C_38
   20  A    between atoms: C_42  and  O_45
                            x       y       z     vdW  Elec       q    Type
                         _______ _______ _______ _____ _____    ______ ____

>  <TORSDO>
F 20

$$$$
=
 OpenBabel10232408593D

 46 48  0  0  1  0  0  0  0  0999 V2000
  189.1410  177.3660  143.3210 C   0  0  1  0  0  3  0  0  0  0  0  0
  189.4280  178.2210  142.1760 N   0  0  0  0  0  2  0  0  0  0  0  0
  189.2040  177.8200  140.8220 C   0  0  0  0  0  0  0  0  0  0  0  0
  188.7940  177.0010  138.1610 C   0  0  0  0  0  0  0  0  0  0  0  0
  189.8180  176.4300  138.9340 C   0  0  0  0  0  3  0  0  0  0  0  0
  188.1830  178.3960  140.0520 C   0  0  0  0  0  3  0  0  0  0  0  0
  187.9820  177.9860  138.7310 C   0  0  0  0  0  3  0  0  0  0  0  0
  190.0210  176.8380  140.2550 C   0  0  0  0  0  3  0  0  0  0  0  0
  188.5560  176.6330  136.8300 O   0  0  0  0  0  0  0  0  0  0  0  0
  186.9850  174.9200  136.9340 O   0  0  0  0  0  0  0  0  0  0  0  0
  188.0050  175.4210  136.3890 C   0  0  0  0  0  0  0  0  0  0  0  0
  188.6610  174.6950  135.2650 C   0  0  0  0  0  2  0  0  0  0  0  0
  192.2890  172.4090  135.6080 C   0  0  1  0  0  3  0  0  0  0  0  0
  189.7450  172.4300  135.2890 C   0  0  0  0  0  2  0  0  0  0  0  0
  191.0490  174.4850  135.4180 O   0  0  0  0  0  0  0  0  0  0  0  0
  191.0970  171.9110  134.7790 C   0  0  0  0  0  2  0  0  0  0  0  0
  189.8320  173.8820  135.7880 C   0  0  1  0  0  3  0  0  0  0  0  0
  193.4310  172.3890  134.8050 O   0  0  0  0  0  1  0  0  0  0  0  0
  192.0240  173.8220  136.1780 C   0  0  2  0  0  3  0  0  0  0  0  0
  193.2810  174.6740  136.3320 C   0  0  0  0  0  2  0  0  0  0  0  0
  192.9590  176.0990  136.7720 C   0  0  0  0  0  2  0  0  0  0  0  0
  193.3420  176.3370  138.2230 C   0  0  0  0  0  2  0  0  0  0  0  0
  194.4880  175.6090  138.5410 O   0  0  0  0  0  1  0  0  0  0  0  0
  189.1980  178.1410  144.5140 O   0  0  0  0  0  0  0  0  0  0  0  0
  189.4550  177.5750  145.7650 C   0  0  0  0  0  0  0  0  0  0  0  0
  190.7770  177.1300  146.0670 N   0  0  0  0  0  2  0  0  0  0  0  0
  188.5330  177.4550  146.6180 O   0  0  0  0  0  0  0  0  0  0  0  0
  191.1190  176.5440  147.3540 C   0  0  0  0  0  2  0  0  0  0  0  0
  193.2680  175.7940  148.2070 N   0  0  0  0  0  1  0  0  0  0  0  0
  192.2630  175.5620  147.1840 C   0  0  0  0  0  2  0  0  0  0  0  0
  187.7550  176.7580  143.1700 C   0  0  0  0  0  2  0  0  0  0  0  0
  186.6820  177.7650  143.5480 C   0  0  0  0  0  2  0  0  0  0  0  0
  185.8290  178.1130  142.3370 C   0  0  0  0  0  2  0  0  0  0  0  0
  182.2040  178.7610  142.6870 C   0  0  0  0  0  3  0  0  0  0  0  0
  184.1630  179.0700  143.9250 C   0  0  0  0  0  3  0  0  0  0  0  0
  184.4590  178.5440  142.7490 C   0  0  0  0  0  0  0  0  0  0  0  0
  182.6880  179.3160  143.9900 C   0  0  0  0  0  2  0  0  0  0  0  0
  183.2500  178.3770  141.9710 C   0  0  0  0  0  0  0  0  0  0  0  0
  183.1870  178.1450  139.5130 C   0  0  0  0  0  0  0  0  0  0  0  0
  183.1930  177.6660  140.7250 N   0  0  0  0  0  0  0  0  0  0  0  0
  184.7060  180.0940  139.1460 O   0  0  0  0  0  1  0  0  0  0  0  0
  182.4450  180.3250  138.9160 O   0  0  0  0  0  0  0  0  0  0  0  0
  183.4170  179.5780  139.2050 C   0  0  0  0  0  0  0  0  0  0  0  0
  181.8880  177.5690  137.6000 O   0  0  0  0  0  1  0  0  0  0  0  0
  182.9630  177.1720  138.3950 C   0  0  2  0  0  3  0  0  0  0  0  0
  182.7250  175.7750  138.9330 C   0  0  0  0  0  1  0  0  0  0  0  0
  1 31  1  6  0  0  0
  1 24  1  0  0  0  0
  2  1  1  0  0  0  0
  3  2  1  0  0  0  0
  4  7  2  0  0  0  0
  4  5  1  0  0  0  0
  5  8  2  0  0  0  0
  6  3  2  0  0  0  0
  7  6  1  0  0  0  0
  8  3  1  0  0  0  0
  9  4  1  0  0  0  0
 11  9  1  0  0  0  0
 11 10  2  0  0  0  0
 12 11  1  0  0  0  0
 13 18  1  6  0  0  0
 13 19  1  0  0  0  0
 14 17  1  0  0  0  0
 15 17  1  0  0  0  0
 15 19  1  0  0  0  0
 16 14  1  0  0  0  0
 16 13  1  0  0  0  0
 17 12  1  6  0  0  0
 19 20  1  6  0  0  0
 20 21  1  0  0  0  0
 21 22  1  0  0  0  0
 22 23  1  0  0  0  0
 24 25  1  0  0  0  0
 25 26  1  0  0  0  0
 25 27  2  0  0  0  0
 26 28  1  0  0  0  0
 30 28  1  0  0  0  0
 30 29  1  0  0  0  0
 31 32  1  0  0  0  0
 33 36  1  0  0  0  0
 33 32  1  0  0  0  0
 34 37  1  0  0  0  0
 35 37  1  0  0  0  0
 36 35  2  0  0  0  0
 38 34  2  0  0  0  0
 38 36  1  0  0  0  0
 39 40  2  0  0  0  0
 40 38  1  0  0  0  0
 41 43  1  0  0  0  0
 42 43  2  0  0  0  0
 43 39  1  0  0  0  0
 44 45  1  0  0  0  0
 45 46  1  1  0  0  0
 45 39  1  0  0  0  0
M  END
>  <MODEL>
5

>  <REMARK>
 VINA RESULT:      -6.8      1.794      3.347
  Name = 
  20 active torsions:
  status: ('A' for Active; 'I' for Inactive)
    1  A    between atoms: C_1  and  N_32
    2  A    between atoms: C_2  and  O_45
    3  A    between atoms: C_7  and  C_18
    4  A    between atoms: C_7  and  O_27
    5  A    between atoms: C_7  and  N_32
    6  A    between atoms: C_8  and  C_16
    7  A    between atoms: CA_10  and  C_28
    8  A    between atoms: CA_10  and  CB_43
    9  A    between atoms: N_11  and  C_35
   10  A    between atoms: C_15  and  C_18
   11  A    between atoms: C_15  and  C_41
   12  A    between atoms: C_16  and  C_17
   13  A    between atoms: C_17  and  C_39
   14  A    between atoms: C_21  and  C_41
   15  A    between atoms: C_22  and  O_27
   16  A    between atoms: C_23  and  C_36
   17  A    between atoms: C_23  and  C_42
   18  A    between atoms: N_25  and  C_29
   19  A    between atoms: C_29  and  C_38
   20  A    between atoms: C_42  and  O_45
                            x       y       z     vdW  Elec       q    Type
                         _______ _______ _______ _____ _____    ______ ____

>  <TORSDO>
F 20

$$$$
=
 OpenBabel10232408593D

 46 48  0  0  1  0  0  0  0  0999 V2000
  187.2610  177.4340  137.7710 C   0  0  1  0  0  3  0  0  0  0  0  0
  187.0990  178.5820  138.6540 N   0  0  0  0  0  2  0  0  0  0  0  0
  186.4860  178.5010  139.9430 C   0  0  0  0  0  0  0  0  0  0  0  0
  185.3200  178.3380  142.4990 C   0  0  0  0  0  0  0  0  0  0  0  0
  186.7110  178.2220  142.3400 C   0  0  0  0  0  3  0  0  0  0  0  0
  185.0960  178.6120  140.0970 C   0  0  0  0  0  3  0  0  0  0  0  0
  184.5210  178.5310  141.3680 C   0  0  0  0  0  3  0  0  0  0  0  0
  187.2890  178.3030  141.0710 C   0  0  0  0  0  3  0  0  0  0  0  0
  184.6910  178.2550  143.7490 O   0  0  0  0  0  0  0  0  0  0  0  0
  185.2240  179.6820  145.5070 O   0  0  0  0  0  0  0  0  0  0  0  0
  185.2760  178.5330  144.9930 C   0  0  0  0  0  0  0  0  0  0  0  0
  186.0030  177.4470  145.7090 C   0  0  0  0  0  2  0  0  0  0  0  0
  190.1950  177.4500  146.6740 C   0  0  1  0  0  3  0  0  0  0  0  0
  187.7930  178.0030  147.3800 C   0  0  0  0  0  2  0  0  0  0  0  0
  188.2970  176.8780  145.2780 O   0  0  0  0  0  0  0  0  0  0  0  0
  189.1170  177.3250  147.7610 C   0  0  0  0  0  2  0  0  0  0  0  0
  187.4610  177.8320  145.8890 C   0  0  1  0  0  3  0  0  0  0  0  0
  191.0970  176.3930  146.8170 O   0  0  0  0  0  1  0  0  0  0  0  0
  189.5680  177.4720  145.2620 C   0  0  2  0  0  3  0  0  0  0  0  0
  190.4540  176.8570  144.1810 C   0  0  0  0  0  2  0  0  0  0  0  0
  191.1250  177.9190  143.3160 C   0  0  0  0  0  2  0  0  0  0  0  0
  191.3510  177.4240  141.8970 C   0  0  0  0  0  2  0  0  0  0  0  0
  190.4680  176.3850  141.6070 O   0  0  0  0  0  1  0  0  0  0  0  0
  188.2010  176.5290  138.3410 O   0  0  0  0  0  0  0  0  0  0  0  0
  189.3420  176.1030  137.6590 C   0  0  0  0  0  0  0  0  0  0  0  0
  190.4840  175.6870  138.4080 N   0  0  0  0  0  2  0  0  0  0  0  0
  189.3690  176.0860  136.3970 O   0  0  0  0  0  0  0  0  0  0  0  0
  191.7010  175.2190  137.7640 C   0  0  0  0  0  2  0  0  0  0  0  0
  193.7150  176.3680  138.4950 N   0  0  0  0  0  1  0  0  0  0  0  0
  192.6370  176.3880  137.5210 C   0  0  0  0  0  2  0  0  0  0  0  0
  185.9220  176.7360  137.5900 C   0  0  0  0  0  2  0  0  0  0  0  0
  185.0240  177.5320  136.6570 C   0  0  0  0  0  2  0  0  0  0  0  0
  183.7100  176.7980  136.4330 C   0  0  0  0  0  2  0  0  0  0  0  0
  181.2550  177.2740  139.1590 C   0  0  0  0  0  3  0  0  0  0  0  0
  182.9890  175.8060  138.6020 C   0  0  0  0  0  3  0  0  0  0  0  0
  182.8970  176.7540  137.6850 C   0  0  0  0  0  0  0  0  0  0  0  0
  181.9780  176.0690  139.6760 C   0  0  0  0  0  2  0  0  0  0  0  0
  181.8420  177.6790  138.0430 C   0  0  0  0  0  0  0  0  0  0  0  0
  181.1900  179.9810  137.4330 C   0  0  0  0  0  0  0  0  0  0  0  0
  181.3580  178.7150  137.1750 N   0  0  0  0  0  0  0  0  0  0  0  0
  180.7800  180.8190  139.7490 O   0  0  0  0  0  1  0  0  0  0  0  0
  182.8680  180.9260  138.8300 O   0  0  0  0  0  0  0  0  0  0  0  0
  181.6530  180.6230  138.6870 C   0  0  0  0  0  0  0  0  0  0  0  0
  181.0150  180.4970  135.1130 O   0  0  0  0  0  1  0  0  0  0  0  0
  180.5200  180.8090  136.3790 C   0  0  2  0  0  3  0  0  0  0  0  0
  180.6990  182.2890  136.6580 C   0  0  0  0  0  1  0  0  0  0  0  0
  1 31  1  1  0  0  0
  1 24  1  0  0  0  0
  1  2  1  0  0  0  0
  2  3  1  0  0  0  0
  3  6  2  0  0  0  0
  3  8  1  0  0  0  0
  4  9  1  0  0  0  0
  5  4  1  0  0  0  0
  6  7  1  0  0  0  0
  7  4  2  0  0  0  0
  8  5  2  0  0  0  0
  9 11  1  0  0  0  0
 11 10  2  0  0  0  0
 11 12  1  0  0  0  0
 13 18  1  6  0  0  0
 13 16  1  0  0  0  0
 14 16  1  0  0  0  0
 15 17  1  0  0  0  0
 17 12  1  1  0  0  0
 17 14  1  0  0  0  0
 19 20  1  6  0  0  0
 19 15  1  0  0  0  0
 19 13  1  0  0  0  0
 21 20  1  0  0  0  0
 22 21  1  0  0  0  0
 23 22  1  0  0  0  0
 25 24  1  0  0  0  0
 25 26  1  0  0  0  0
 27 25  2  0  0  0  0
 28 26  1  0  0  0  0
 30 28  1  0  0  0  0
 30 29  1  0  0  0  0
 32 31  1  0  0  0  0
 33 32  1  0  0  0  0
 33 36  1  0  0  0  0
 34 37  1  0  0  0  0
 35 37  1  0  0  0  0
 36 38  1  0  0  0  0
 36 35  2  0  0  0  0
 38 34  2  0  0  0  0
 39 43  1  0  0  0  0
 40 39  2  0  0  0  0
 40 38  1  0  0  0  0
 43 42  2  0  0  0  0
 43 41  1  0  0  0  0
 44 45  1  0  0  0  0
 45 46  1  1  0  0  0
 45 39  1  0  0  0  0
M  END
>  <MODEL>
6

>  <REMARK>
 VINA RESULT:      -6.7      2.998      7.499
  Name = 
  20 active torsions:
  status: ('A' for Active; 'I' for Inactive)
    1  A    between atoms: C_1  and  N_32
    2  A    between atoms: C_2  and  O_45
    3  A    between atoms: C_7  and  C_18
    4  A    between atoms: C_7  and  O_27
    5  A    between atoms: C_7  and  N_32
    6  A    between atoms: C_8  and  C_16
    7  A    between atoms: CA_10  and  C_28
    8  A    between atoms: CA_10  and  CB_43
    9  A    between atoms: N_11  and  C_35
   10  A    between atoms: C_15  and  C_18
   11  A    between atoms: C_15  and  C_41
   12  A    between atoms: C_16  and  C_17
   13  A    between atoms: C_17  and  C_39
   14  A    between atoms: C_21  and  C_41
   15  A    between atoms: C_22  and  O_27
   16  A    between atoms: C_23  and  C_36
   17  A    between atoms: C_23  and  C_42
   18  A    between atoms: N_25  and  C_29
   19  A    between atoms: C_29  and  C_38
   20  A    between atoms: C_42  and  O_45
                            x       y       z     vdW  Elec       q    Type
                         _______ _______ _______ _____ _____    ______ ____

>  <TORSDO>
F 20

$$$$
=
 OpenBabel10232408593D

 46 48  0  0  1  0  0  0  0  0999 V2000
  184.2940  179.3500  143.9220 C   0  0  1  0  0  3  0  0  0  0  0  0
  184.7200  178.2150  143.1140 N   0  0  0  0  0  2  0  0  0  0  0  0
  185.8050  178.2770  142.1840 C   0  0  0  0  0  0  0  0  0  0  0  0
  187.9110  178.4140  140.3230 C   0  0  0  0  0  0  0  0  0  0  0  0
  186.5970  178.7260  139.9380 C   0  0  0  0  0  3  0  0  0  0  0  0
  187.1150  177.9600  142.5720 C   0  0  0  0  0  3  0  0  0  0  0  0
  188.1590  178.0300  141.6450 C   0  0  0  0  0  3  0  0  0  0  0  0
  185.5520  178.6570  140.8620 C   0  0  0  0  0  3  0  0  0  0  0  0
  188.9920  178.4590  139.4320 O   0  0  0  0  0  0  0  0  0  0  0  0
  188.1460  179.2680  137.4210 O   0  0  0  0  0  0  0  0  0  0  0  0
  188.9130  178.4770  138.0310 C   0  0  0  0  0  0  0  0  0  0  0  0
  189.7380  177.5140  137.2490 C   0  0  0  0  0  2  0  0  0  0  0  0
  187.3170  174.0160  136.6100 C   0  0  1  0  0  3  0  0  0  0  0  0
  189.6240  175.1260  136.4790 C   0  0  0  0  0  2  0  0  0  0  0  0
  187.6910  176.2690  137.4240 O   0  0  0  0  0  0  0  0  0  0  0  0
  188.8110  173.9120  136.9500 C   0  0  0  0  0  2  0  0  0  0  0  0
  188.8480  176.4440  136.6430 C   0  0  1  0  0  3  0  0  0  0  0  0
  186.5990  173.2300  137.5130 O   0  0  0  0  0  1  0  0  0  0  0  0
  186.8380  175.4860  136.6340 C   0  0  2  0  0  3  0  0  0  0  0  0
  185.3800  175.6540  137.0560 C   0  0  0  0  0  2  0  0  0  0  0  0
  184.9490  177.1180  137.0560 C   0  0  0  0  0  2  0  0  0  0  0  0
  183.5460  177.2890  136.4960 C   0  0  0  0  0  2  0  0  0  0  0  0
  182.7250  177.8990  137.4430 O   0  0  0  0  0  1  0  0  0  0  0  0
  182.9830  179.1080  144.4230 O   0  0  0  0  0  0  0  0  0  0  0  0
  181.9050  178.8030  143.5900 C   0  0  0  0  0  0  0  0  0  0  0  0
  182.0800  178.8740  142.1750 N   0  0  0  0  0  2  0  0  0  0  0  0
  180.7890  178.4710  144.0770 O   0  0  0  0  0  0  0  0  0  0  0  0
  181.0050  178.5570  141.2470 C   0  0  0  0  0  2  0  0  0  0  0  0
  180.3740  180.0620  139.4460 N   0  0  0  0  0  1  0  0  0  0  0  0
  180.2580  179.8230  140.8740 C   0  0  0  0  0  2  0  0  0  0  0  0
  185.2590  179.5430  145.0810 C   0  0  0  0  0  2  0  0  0  0  0  0
  185.3100  178.2980  145.9510 C   0  0  0  0  0  2  0  0  0  0  0  0
  186.6550  177.6020  145.8030 C   0  0  0  0  0  2  0  0  0  0  0  0
  189.4010  178.0940  148.2320 C   0  0  0  0  0  3  0  0  0  0  0  0
  187.0700  178.2680  148.1690 C   0  0  0  0  0  3  0  0  0  0  0  0
  187.5150  177.8330  147.0030 C   0  0  0  0  0  0  0  0  0  0  0  0
  188.2290  178.4310  149.1020 C   0  0  0  0  0  2  0  0  0  0  0  0
  188.9550  177.6990  147.0500 C   0  0  0  0  0  0  0  0  0  0  0  0
  190.9470  176.8670  145.8490 C   0  0  0  0  0  0  0  0  0  0  0  0
  189.7710  177.4270  145.8990 N   0  0  0  0  0  0  0  0  0  0  0  0
  191.4520  174.8780  147.2730 O   0  0  0  0  0  0  0  0  0  0  0  0
  192.3550  176.9160  147.7660 O   0  0  0  0  0  1  0  0  0  0  0  0
  191.5980  176.2370  147.0240 C   0  0  0  0  0  0  0  0  0  0  0  0
  191.8870  178.1470  144.0720 O   0  0  0  0  0  1  0  0  0  0  0  0
  191.6380  176.8490  144.5200 C   0  0  2  0  0  3  0  0  0  0  0  0
  190.8180  176.0920  143.4930 C   0  0  0  0  0  1  0  0  0  0  0  0
  1 24  1  0  0  0  0
  1 31  1  1  0  0  0
  2  1  1  0  0  0  0
  3  6  1  0  0  0  0
  3  2  1  0  0  0  0
  4  7  1  0  0  0  0
  5  4  2  0  0  0  0
  5  8  1  0  0  0  0
  7  6  2  0  0  0  0
  8  3  2  0  0  0  0
  9  4  1  0  0  0  0
 10 11  2  0  0  0  0
 11  9  1  0  0  0  0
 12 11  1  0  0  0  0
 13 19  1  0  0  0  0
 13 16  1  0  0  0  0
 13 18  1  1  0  0  0
 14 17  1  0  0  0  0
 14 16  1  0  0  0  0
 17 12  1  1  0  0  0
 17 15  1  0  0  0  0
 19 20  1  1  0  0  0
 19 15  1  0  0  0  0
 21 20  1  0  0  0  0
 22 21  1  0  0  0  0
 22 23  1  0  0  0  0
 25 27  2  0  0  0  0
 25 24  1  0  0  0  0
 26 25  1  0  0  0  0
 28 26  1  0  0  0  0
 29 30  1  0  0  0  0
 30 28  1  0  0  0  0
 31 32  1  0  0  0  0
 33 32  1  0  0  0  0
 33 36  1  0  0  0  0
 34 37  1  0  0  0  0
 35 37  1  0  0  0  0
 36 38  1  0  0  0  0
 36 35  2  0  0  0  0
 38 34  2  0  0  0  0
 39 40  2  0  0  0  0
 39 43  1  0  0  0  0
 40 38  1  0  0  0  0
 43 41  2  0  0  0  0
 43 42  1  0  0  0  0
 44 45  1  0  0  0  0
 45 46  1  6  0  0  0
 45 39  1  0  0  0  0
M  END
>  <MODEL>
7

>  <REMARK>
 VINA RESULT:      -6.6      2.187      7.196
  Name = 
  20 active torsions:
  status: ('A' for Active; 'I' for Inactive)
    1  A    between atoms: C_1  and  N_32
    2  A    between atoms: C_2  and  O_45
    3  A    between atoms: C_7  and  C_18
    4  A    between atoms: C_7  and  O_27
    5  A    between atoms: C_7  and  N_32
    6  A    between atoms: C_8  and  C_16
    7  A    between atoms: CA_10  and  C_28
    8  A    between atoms: CA_10  and  CB_43
    9  A    between atoms: N_11  and  C_35
   10  A    between atoms: C_15  and  C_18
   11  A    between atoms: C_15  and  C_41
   12  A    between atoms: C_16  and  C_17
   13  A    between atoms: C_17  and  C_39
   14  A    between atoms: C_21  and  C_41
   15  A    between atoms: C_22  and  O_27
   16  A    between atoms: C_23  and  C_36
   17  A    between atoms: C_23  and  C_42
   18  A    between atoms: N_25  and  C_29
   19  A    between atoms: C_29  and  C_38
   20  A    between atoms: C_42  and  O_45
                            x       y       z     vdW  Elec       q    Type
                         _______ _______ _______ _____ _____    ______ ____

>  <TORSDO>
F 20

$$$$
=
 OpenBabel10232408593D

 46 48  0  0  1  0  0  0  0  0999 V2000
  184.3290  179.1880  144.0060 C   0  0  1  0  0  3  0  0  0  0  0  0
  184.5550  178.2420  142.9200 N   0  0  0  0  0  2  0  0  0  0  0  0
  185.6740  178.3170  142.0340 C   0  0  0  0  0  0  0  0  0  0  0  0
  187.9030  178.4480  140.3220 C   0  0  0  0  0  0  0  0  0  0  0  0
  188.0570  178.0740  141.6670 C   0  0  0  0  0  3  0  0  0  0  0  0
  185.5160  178.6960  140.6930 C   0  0  0  0  0  3  0  0  0  0  0  0
  186.6260  178.7600  139.8460 C   0  0  0  0  0  3  0  0  0  0  0  0
  186.9500  178.0090  142.5160 C   0  0  0  0  0  3  0  0  0  0  0  0
  188.9830  178.5380  139.4330 O   0  0  0  0  0  0  0  0  0  0  0  0
  188.8350  179.5040  137.3220 O   0  0  0  0  0  0  0  0  0  0  0  0
  188.9140  178.4680  138.0340 C   0  0  0  0  0  0  0  0  0  0  0  0
  188.9060  177.1310  137.3770 C   0  0  0  0  0  2  0  0  0  0  0  0
  185.1630  175.2520  136.3900 C   0  0  1  0  0  3  0  0  0  0  0  0
  186.5180  177.4140  136.6520 C   0  0  0  0  0  2  0  0  0  0  0  0
  187.5230  175.2140  136.9490 O   0  0  0  0  0  0  0  0  0  0  0  0
  185.5910  176.5830  135.7530 C   0  0  0  0  0  2  0  0  0  0  0  0
  187.5100  176.5360  137.4320 C   0  0  1  0  0  3  0  0  0  0  0  0
  184.8370  174.3550  135.3710 O   0  0  0  0  0  1  0  0  0  0  0  0
  186.2730  174.6880  137.3070 C   0  0  2  0  0  3  0  0  0  0  0  0
  186.3090  173.1630  137.3670 C   0  0  0  0  0  2  0  0  0  0  0  0
  187.6730  172.6050  136.9700 C   0  0  0  0  0  2  0  0  0  0  0  0
  187.5960  171.8040  135.6820 C   0  0  0  0  0  2  0  0  0  0  0  0
  188.8620  171.3290  135.3390 O   0  0  0  0  0  1  0  0  0  0  0  0
  183.0750  179.8330  143.8180 O   0  0  0  0  0  0  0  0  0  0  0  0
  181.9470  179.1600  143.3440 C   0  0  0  0  0  0  0  0  0  0  0  0
  181.6800  179.1550  141.9410 N   0  0  0  0  0  2  0  0  0  0  0  0
  181.1700  178.5650  144.1410 O   0  0  0  0  0  0  0  0  0  0  0  0
  180.5320  178.4630  141.3760 C   0  0  0  0  0  2  0  0  0  0  0  0
  181.9460  178.6520  139.4070 N   0  0  0  0  0  1  0  0  0  0  0  0
  180.9050  177.8570  140.0370 C   0  0  0  0  0  2  0  0  0  0  0  0
  184.3320  178.4500  145.3360 C   0  0  0  0  0  2  0  0  0  0  0  0
  185.5630  178.8130  146.1500 C   0  0  0  0  0  2  0  0  0  0  0  0
  186.7120  177.8730  145.8220 C   0  0  0  0  0  2  0  0  0  0  0  0
  189.7470  177.8030  147.9360 C   0  0  0  0  0  3  0  0  0  0  0  0
  187.4400  178.0840  148.1970 C   0  0  0  0  0  3  0  0  0  0  0  0
  187.7180  177.8470  146.9260 C   0  0  0  0  0  0  0  0  0  0  0  0
  188.7080  178.0280  148.9910 C   0  0  0  0  0  2  0  0  0  0  0  0
  189.1430  177.6460  146.7690 C   0  0  0  0  0  0  0  0  0  0  0  0
  190.9680  177.0390  145.2180 C   0  0  0  0  0  0  0  0  0  0  0  0
  189.8010  177.5500  145.4960 N   0  0  0  0  0  0  0  0  0  0  0  0
  191.9790  174.9160  146.0610 O   0  0  0  0  0  0  0  0  0  0  0  0
  192.3600  176.8920  147.1410 O   0  0  0  0  0  1  0  0  0  0  0  0
  191.7790  176.2830  146.2040 C   0  0  0  0  0  0  0  0  0  0  0  0
  191.1750  178.4890  143.3390 O   0  0  0  0  0  1  0  0  0  0  0  0
  191.4750  177.2140  143.8190 C   0  0  2  0  0  3  0  0  0  0  0  0
  190.8940  176.1600  142.8970 C   0  0  0  0  0  1  0  0  0  0  0  0
  1 31  1  1  0  0  0
  2  1  1  0  0  0  0
  3  8  1  0  0  0  0
  3  2  1  0  0  0  0
  4  5  1  0  0  0  0
  5  8  2  0  0  0  0
  6  3  2  0  0  0  0
  7  4  2  0  0  0  0
  7  6  1  0  0  0  0
  9  4  1  0  0  0  0
 10 11  2  0  0  0  0
 11  9  1  0  0  0  0
 12 11  1  0  0  0  0
 13 18  1  6  0  0  0
 13 19  1  0  0  0  0
 14 17  1  0  0  0  0
 15 19  1  0  0  0  0
 15 17  1  0  0  0  0
 16 13  1  0  0  0  0
 16 14  1  0  0  0  0
 17 12  1  6  0  0  0
 19 20  1  6  0  0  0
 21 20  1  0  0  0  0
 22 21  1  0  0  0  0
 23 22  1  0  0  0  0
 24  1  1  0  0  0  0
 25 24  1  0  0  0  0
 25 27  2  0  0  0  0
 26 25  1  0  0  0  0
 28 26  1  0  0  0  0
 29 30  1  0  0  0  0
 30 28  1  0  0  0  0
 31 32  1  0  0  0  0
 33 32  1  0  0  0  0
 33 36  1  0  0  0  0
 34 37  1  0  0  0  0
 35 37  1  0  0  0  0
 36 35  2  0  0  0  0
 38 36  1  0  0  0  0
 38 34  2  0  0  0  0
 39 40  2  0  0  0  0
 39 43  1  0  0  0  0
 40 38  1  0  0  0  0
 41 43  2  0  0  0  0
 43 42  1  0  0  0  0
 44 45  1  0  0  0  0
 45 46  1  6  0  0  0
 45 39  1  0  0  0  0
M  END
>  <MODEL>
8

>  <REMARK>
 VINA RESULT:      -6.6      2.401      7.100
  Name = 
  20 active torsions:
  status: ('A' for Active; 'I' for Inactive)
    1  A    between atoms: C_1  and  N_32
    2  A    between atoms: C_2  and  O_45
    3  A    between atoms: C_7  and  C_18
    4  A    between atoms: C_7  and  O_27
    5  A    between atoms: C_7  and  N_32
    6  A    between atoms: C_8  and  C_16
    7  A    between atoms: CA_10  and  C_28
    8  A    between atoms: CA_10  and  CB_43
    9  A    between atoms: N_11  and  C_35
   10  A    between atoms: C_15  and  C_18
   11  A    between atoms: C_15  and  C_41
   12  A    between atoms: C_16  and  C_17
   13  A    between atoms: C_17  and  C_39
   14  A    between atoms: C_21  and  C_41
   15  A    between atoms: C_22  and  O_27
   16  A    between atoms: C_23  and  C_36
   17  A    between atoms: C_23  and  C_42
   18  A    between atoms: N_25  and  C_29
   19  A    between atoms: C_29  and  C_38
   20  A    between atoms: C_42  and  O_45
                            x       y       z     vdW  Elec       q    Type
                         _______ _______ _______ _____ _____    ______ ____

>  <TORSDO>
F 20

$$$$
=
 OpenBabel10232408593D

 46 48  0  0  1  0  0  0  0  0999 V2000
  188.8920  177.5980  138.4010 C   0  0  1  0  0  3  0  0  0  0  0  0
  188.6530  178.6160  139.4150 N   0  0  0  0  0  2  0  0  0  0  0  0
  187.7750  178.4240  140.5270 C   0  0  0  0  0  0  0  0  0  0  0  0
  186.0810  178.0330  142.7400 C   0  0  0  0  0  0  0  0  0  0  0  0
  187.4340  177.6600  142.8020 C   0  0  0  0  0  3  0  0  0  0  0  0
  186.4230  178.7940  140.4600 C   0  0  0  0  0  3  0  0  0  0  0  0
  185.5850  178.5990  141.5610 C   0  0  0  0  0  3  0  0  0  0  0  0
  188.2740  177.8550  141.7020 C   0  0  0  0  0  3  0  0  0  0  0  0
  185.1960  177.8510  143.8110 O   0  0  0  0  0  0  0  0  0  0  0  0
  184.9390  179.6570  145.2540 O   0  0  0  0  0  0  0  0  0  0  0  0
  185.2810  178.4590  145.0720 C   0  0  0  0  0  0  0  0  0  0  0  0
  185.8190  177.6730  146.2180 C   0  0  0  0  0  2  0  0  0  0  0  0
  189.9340  177.6930  147.4710 C   0  0  1  0  0  3  0  0  0  0  0  0
  187.5000  178.3300  147.9640 C   0  0  0  0  0  2  0  0  0  0  0  0
  188.1250  177.0420  145.9930 O   0  0  0  0  0  0  0  0  0  0  0  0
  188.7820  177.6660  148.4860 C   0  0  0  0  0  2  0  0  0  0  0  0
  187.2670  178.0500  146.4700 C   0  0  1  0  0  3  0  0  0  0  0  0
  190.8030  176.6380  147.7550 O   0  0  0  0  0  1  0  0  0  0  0  0
  189.4050  177.6150  146.0210 C   0  0  2  0  0  3  0  0  0  0  0  0
  190.3510  176.9070  145.0540 C   0  0  0  0  0  2  0  0  0  0  0  0
  191.6020  177.7320  144.7670 C   0  0  0  0  0  2  0  0  0  0  0  0
  191.5770  178.3170  143.3640 C   0  0  0  0  0  2  0  0  0  0  0  0
  191.6790  177.2960  142.4190 O   0  0  0  0  0  1  0  0  0  0  0  0
  189.9420  176.7380  138.8330 O   0  0  0  0  0  0  0  0  0  0  0  0
  190.6460  175.9120  137.9540 C   0  0  0  0  0  0  0  0  0  0  0  0
  191.3940  176.5060  136.8930 N   0  0  0  0  0  2  0  0  0  0  0  0
  190.6230  174.6580  138.0910 O   0  0  0  0  0  0  0  0  0  0  0  0
  192.1620  175.7090  135.9500 C   0  0  0  0  0  2  0  0  0  0  0  0
  193.8520  176.7870  137.3250 N   0  0  0  0  0  1  0  0  0  0  0  0
  193.6380  175.7910  136.2890 C   0  0  0  0  0  2  0  0  0  0  0  0
  187.6240  176.7880  138.1790 C   0  0  0  0  0  2  0  0  0  0  0  0
  186.9300  177.2160  136.8970 C   0  0  0  0  0  2  0  0  0  0  0  0
  186.6850  176.0130  135.9990 C   0  0  0  0  0  2  0  0  0  0  0  0
  183.9460  173.9490  137.3830 C   0  0  0  0  0  3  0  0  0  0  0  0
  186.2720  173.8520  137.1690 C   0  0  0  0  0  3  0  0  0  0  0  0
  185.8280  174.9980  136.6820 C   0  0  0  0  0  0  0  0  0  0  0  0
  185.1150  173.0770  137.7210 C   0  0  0  0  0  2  0  0  0  0  0  0
  184.3910  175.0710  136.8390 C   0  0  0  0  0  0  0  0  0  0  0  0
  183.1020  177.1770  136.8080 C   0  0  0  0  0  0  0  0  0  0  0  0
  183.5740  176.0960  136.2530 N   0  0  0  0  0  0  0  0  0  0  0  0
  183.6520  178.9820  138.4440 O   0  0  0  0  0  0  0  0  0  0  0  0
  183.6080  176.7960  139.1000 O   0  0  0  0  0  1  0  0  0  0  0  0
  183.4930  177.6310  138.1650 C   0  0  0  0  0  0  0  0  0  0  0  0
  181.0870  178.4480  136.7900 O   0  0  0  0  0  1  0  0  0  0  0  0
  182.1430  177.9960  135.9990 C   0  0  2  0  0  3  0  0  0  0  0  0
  181.6100  177.2010  134.8220 C   0  0  0  0  0  1  0  0  0  0  0  0
  1 31  1  1  0  0  0
  1 24  1  0  0  0  0
  1  2  1  0  0  0  0
  2  3  1  0  0  0  0
  3  8  1  0  0  0  0
  4  5  1  0  0  0  0
  4  9  1  0  0  0  0
  6  3  2  0  0  0  0
  6  7  1  0  0  0  0
  7  4  2  0  0  0  0
  8  5  2  0  0  0  0
  9 11  1  0  0  0  0
 11 10  2  0  0  0  0
 11 12  1  0  0  0  0
 13 18  1  1  0  0  0
 13 16  1  0  0  0  0
 14 16  1  0  0  0  0
 15 19  1  0  0  0  0
 15 17  1  0  0  0  0
 17 12  1  1  0  0  0
 17 14  1  0  0  0  0
 19 20  1  6  0  0  0
 19 13  1  0  0  0  0
 21 20  1  0  0  0  0
 22 21  1  0  0  0  0
 23 22  1  0  0  0  0
 25 27  2  0  0  0  0
 25 24  1  0  0  0  0
 26 25  1  0  0  0  0
 28 30  1  0  0  0  0
 28 26  1  0  0  0  0
 30 29  1  0  0  0  0
 32 31  1  0  0  0  0
 33 36  1  0  0  0  0
 33 32  1  0  0  0  0
 34 37  1  0  0  0  0
 35 37  1  0  0  0  0
 36 38  1  0  0  0  0
 36 35  2  0  0  0  0
 38 34  2  0  0  0  0
 39 43  1  0  0  0  0
 40 39  2  0  0  0  0
 40 38  1  0  0  0  0
 43 41  2  0  0  0  0
 43 42  1  0  0  0  0
 45 46  1  6  0  0  0
 45 44  1  0  0  0  0
 45 39  1  0  0  0  0
M  END
>  <MODEL>
9

>  <REMARK>
 VINA RESULT:      -6.5      3.048      8.128
  Name = 
  20 active torsions:
  status: ('A' for Active; 'I' for Inactive)
    1  A    between atoms: C_1  and  N_32
    2  A    between atoms: C_2  and  O_45
    3  A    between atoms: C_7  and  C_18
    4  A    between atoms: C_7  and  O_27
    5  A    between atoms: C_7  and  N_32
    6  A    between atoms: C_8  and  C_16
    7  A    between atoms: CA_10  and  C_28
    8  A    between atoms: CA_10  and  CB_43
    9  A    between atoms: N_11  and  C_35
   10  A    between atoms: C_15  and  C_18
   11  A    between atoms: C_15  and  C_41
   12  A    between atoms: C_16  and  C_17
   13  A    between atoms: C_17  and  C_39
   14  A    between atoms: C_21  and  C_41
   15  A    between atoms: C_22  and  O_27
   16  A    between atoms: C_23  and  C_36
   17  A    between atoms: C_23  and  C_42
   18  A    between atoms: N_25  and  C_29
   19  A    between atoms: C_29  and  C_38
   20  A    between atoms: C_42  and  O_45
                            x       y       z     vdW  Elec       q    Type
                         _______ _______ _______ _____ _____    ______ ____

>  <TORSDO>
F 20

$$$$
