=
 OpenBabel10232409573D

 34 38  0  0  0  0  0  0  0  0999 V2000
  183.8820  178.8590  146.0140 N   0  0  0  0  0  0  0  0  0  0  0  0
  187.2800  178.4410  141.0580 N   0  0  0  0  0  2  0  0  0  0  0  0
  186.0760  178.4820  145.4230 C   0  0  0  0  0  0  0  0  0  0  0  0
  187.0710  178.2690  142.4660 C   0  0  0  0  0  0  0  0  0  0  0  0
  182.9720  178.7840  143.8350 C   0  0  0  0  0  3  0  0  0  0  0  0
  188.1280  178.0580  143.2010 N   0  0  0  0  0  0  0  0  0  0  0  0
  185.2000  178.7110  146.6120 C   0  0  0  0  0  2  0  0  0  0  0  0
  187.4710  178.0960  145.5580 C   0  0  0  0  0  3  0  0  0  0  0  0
  183.2600  178.5930  142.4850 C   0  0  0  0  0  3  0  0  0  0  0  0
  185.6670  178.3630  142.9770 C   0  0  0  0  0  0  0  0  0  0  0  0
  185.3280  178.5250  144.3360 C   0  0  0  0  0  0  0  0  0  0  0  0
  184.5780  178.3780  142.0530 C   0  0  0  0  0  0  0  0  0  0  0  0
  184.0240  178.7420  144.7390 C   0  0  0  0  0  0  0  0  0  0  0  0
  188.3710  177.8760  144.6030 C   0  0  0  0  0  0  0  0  0  0  0  0
  184.7660  178.1770  140.7250 F   0  0  0  0  0  0  0  0  0  0  0  0
  191.9290  177.4610  145.2830 O   0  0  0  0  0  0  0  0  0  0  0  0
  190.9400  178.0970  144.7080 C   0  0  0  0  0  0  0  0  0  0  0  0
  190.0510  176.4180  145.8630 C   0  0  0  0  0  3  0  0  0  0  0  0
  191.4290  176.4610  145.9690 C   0  0  0  0  0  0  0  0  0  0  0  0
  189.7370  177.4880  145.0340 C   0  0  0  0  0  0  0  0  0  0  0  0
  191.1400  179.3010  143.8540 C   0  0  0  0  0  1  0  0  0  0  0  0
  192.2500  175.5180  146.7780 C   0  0  0  0  0  2  0  0  0  0  0  0
  193.1230  175.4130  148.9920 O   0  0  0  0  0  1  0  0  0  0  0  0
  192.0910  177.3800  148.4280 O   0  0  0  0  0  0  0  0  0  0  0  0
  192.5040  176.0890  148.1300 C   0  0  0  0  0  0  0  0  0  0  0  0
  188.5610  178.2390  140.3930 C   0  0  0  0  0  2  0  0  0  0  0  0
  188.3460  177.8080  138.9490 C   0  0  0  0  0  2  0  0  0  0  0  0
  187.1840  178.4800  138.3810 N   0  0  0  0  0  2  0  0  0  0  0  0
  186.4880  178.0190  137.2200 C   0  0  0  0  0  0  0  0  0  0  0  0
  185.1580  177.1370  134.9150 C   0  0  0  0  0  3  0  0  0  0  0  0
  185.2180  177.4290  137.3170 C   0  0  0  0  0  3  0  0  0  0  0  0
  184.5560  176.9880  136.1680 C   0  0  0  0  0  3  0  0  0  0  0  0
  186.4220  177.7270  134.8130 C   0  0  0  0  0  3  0  0  0  0  0  0
  187.0840  178.1670  135.9630 C   0  0  0  0  0  3  0  0  0  0  0  0
  1  7  1  0  0  0  0
  2  4  1  0  0  0  0
  3  8  1  0  0  0  0
  3  7  1  0  0  0  0
  4 10  1  0  0  0  0
  4  6  2  0  0  0  0
  5 13  1  0  0  0  0
  6 14  1  0  0  0  0
  9  5  2  0  0  0  0
 10 11  1  0  0  0  0
 11 13  1  0  0  0  0
 11  3  2  0  0  0  0
 12  9  1  0  0  0  0
 12 10  2  0  0  0  0
 13  1  2  0  0  0  0
 14 20  1  0  0  0  0
 14  8  2  0  0  0  0
 15 12  1  0  0  0  0
 16 19  1  0  0  0  0
 17 20  2  0  0  0  0
 17 16  1  0  0  0  0
 18 19  2  0  0  0  0
 19 22  1  0  0  0  0
 20 18  1  0  0  0  0
 21 17  1  0  0  0  0
 22 25  1  0  0  0  0
 25 24  2  0  0  0  0
 25 23  1  0  0  0  0
 26  2  1  0  0  0  0
 27 26  1  0  0  0  0
 28 27  1  0  0  0  0
 29 31  1  0  0  0  0
 29 28  1  0  0  0  0
 30 32  1  0  0  0  0
 32 31  2  0  0  0  0
 33 30  2  0  0  0  0
 33 34  1  0  0  0  0
 34 29  2  0  0  0  0
M  END
>  <MODEL>
1

>  <REMARK>
 VINA RESULT:      -9.9      0.000      0.000
  Name = 
  7 active torsions:
  status: ('A' for Active; 'I' for Inactive)
    1  A    between atoms: C_2  and  C_18
    2  A    between atoms: C_2  and  C_33
    3  A    between atoms: C_5  and  N_12
    4  A    between atoms: N_6  and  C_26
    5  A    between atoms: C_10  and  N_12
    6  A    between atoms: C_10  and  C_26
    7  A    between atoms: C_28  and  C_32
                            x       y       z     vdW  Elec       q    Type
                         _______ _______ _______ _____ _____    ______ ____

>  <TORSDO>
F 7

$$$$
=
 OpenBabel10232409573D

 34 38  0  0  0  0  0  0  0  0999 V2000
  188.8110  177.2200  147.8300 N   0  0  0  0  0  0  0  0  0  0  0  0
  189.5220  176.9180  141.8560 N   0  0  0  0  0  2  0  0  0  0  0  0
  187.5650  177.4460  145.9060 C   0  0  0  0  0  0  0  0  0  0  0  0
  188.7650  177.2660  143.0240 C   0  0  0  0  0  0  0  0  0  0  0  0
  190.9280  177.0640  146.7950 C   0  0  0  0  0  3  0  0  0  0  0  0
  187.4980  177.5270  142.8530 N   0  0  0  0  0  0  0  0  0  0  0  0
  187.4340  177.3930  147.3930 C   0  0  0  0  0  2  0  0  0  0  0  0
  186.4460  177.7960  145.0470 C   0  0  0  0  0  3  0  0  0  0  0  0
  191.6070  177.0810  145.5770 C   0  0  0  0  0  3  0  0  0  0  0  0
  189.4820  177.2830  144.3370 C   0  0  0  0  0  0  0  0  0  0  0  0
  188.8390  177.2990  145.5920 C   0  0  0  0  0  0  0  0  0  0  0  0
  190.9080  177.1950  144.3650 C   0  0  0  0  0  0  0  0  0  0  0  0
  189.5460  177.1770  146.7730 C   0  0  0  0  0  0  0  0  0  0  0  0
  186.4050  177.8680  143.7180 C   0  0  0  0  0  0  0  0  0  0  0  0
  191.6470  177.2280  143.2290 F   0  0  0  0  0  0  0  0  0  0  0  0
  183.0370  178.9540  142.8440 O   0  0  0  0  0  0  0  0  0  0  0  0
  183.9690  178.7170  143.7320 C   0  0  0  0  0  0  0  0  0  0  0  0
  184.8260  178.2250  141.7400 C   0  0  0  0  0  3  0  0  0  0  0  0
  183.5190  178.6670  141.6580 C   0  0  0  0  0  0  0  0  0  0  0  0
  185.1150  178.2560  143.0990 C   0  0  0  0  0  0  0  0  0  0  0  0
  183.7730  178.9440  145.1910 C   0  0  0  0  0  1  0  0  0  0  0  0
  182.7530  178.8280  140.3910 C   0  0  0  0  0  2  0  0  0  0  0  0
  183.8060  178.1670  138.3590 O   0  0  0  0  0  0  0  0  0  0  0  0
  184.3970  180.2350  139.1530 O   0  0  0  0  0  1  0  0  0  0  0  0
  183.6860  179.0460  139.2510 C   0  0  0  0  0  0  0  0  0  0  0  0
  189.0020  176.9940  140.4970 C   0  0  0  0  0  2  0  0  0  0  0  0
  189.7420  178.0640  139.7060 C   0  0  0  0  0  2  0  0  0  0  0  0
  188.8220  178.7900  138.8410 N   0  0  0  0  0  2  0  0  0  0  0  0
  188.4450  178.3500  137.5330 C   0  0  0  0  0  0  0  0  0  0  0  0
  187.6600  177.4910  134.9830 C   0  0  0  0  0  3  0  0  0  0  0  0
  189.3980  177.8550  136.6280 C   0  0  0  0  0  3  0  0  0  0  0  0
  189.0060  177.4280  135.3570 C   0  0  0  0  0  3  0  0  0  0  0  0
  186.7080  177.9810  135.8810 C   0  0  0  0  0  3  0  0  0  0  0  0
  187.1000  178.4090  137.1530 C   0  0  0  0  0  3  0  0  0  0  0  0
  2  4  1  0  0  0  0
  3  7  1  0  0  0  0
  4 10  1  0  0  0  0
  6  4  2  0  0  0  0
  6 14  1  0  0  0  0
  7  1  1  0  0  0  0
  8  3  1  0  0  0  0
  9  5  2  0  0  0  0
 10 12  2  0  0  0  0
 10 11  1  0  0  0  0
 11  3  2  0  0  0  0
 11 13  1  0  0  0  0
 12  9  1  0  0  0  0
 13  5  1  0  0  0  0
 13  1  2  0  0  0  0
 14  8  2  0  0  0  0
 15 12  1  0  0  0  0
 16 17  1  0  0  0  0
 17 21  1  0  0  0  0
 18 20  1  0  0  0  0
 19 18  2  0  0  0  0
 19 16  1  0  0  0  0
 20 14  1  0  0  0  0
 20 17  2  0  0  0  0
 22 19  1  0  0  0  0
 23 25  2  0  0  0  0
 24 25  1  0  0  0  0
 25 22  1  0  0  0  0
 26  2  1  0  0  0  0
 27 26  1  0  0  0  0
 28 27  1  0  0  0  0
 29 28  1  0  0  0  0
 30 32  2  0  0  0  0
 30 33  1  0  0  0  0
 31 29  2  0  0  0  0
 32 31  1  0  0  0  0
 33 34  2  0  0  0  0
 34 29  1  0  0  0  0
M  END
>  <MODEL>
2

>  <REMARK>
 VINA RESULT:      -9.8      3.811      6.571
  Name = 
  7 active torsions:
  status: ('A' for Active; 'I' for Inactive)
    1  A    between atoms: C_2  and  C_18
    2  A    between atoms: C_2  and  C_33
    3  A    between atoms: C_5  and  N_12
    4  A    between atoms: N_6  and  C_26
    5  A    between atoms: C_10  and  N_12
    6  A    between atoms: C_10  and  C_26
    7  A    between atoms: C_28  and  C_32
                            x       y       z     vdW  Elec       q    Type
                         _______ _______ _______ _____ _____    ______ ____

>  <TORSDO>
F 7

$$$$
=
 OpenBabel10232409573D

 34 38  0  0  0  0  0  0  0  0999 V2000
  191.1680  176.0470  136.9240 N   0  0  0  0  0  0  0  0  0  0  0  0
  186.9170  178.6240  140.3260 N   0  0  0  0  0  2  0  0  0  0  0  0
  190.7290  176.4850  139.1420 C   0  0  0  0  0  0  0  0  0  0  0  0
  188.2300  178.0780  140.1410 C   0  0  0  0  0  0  0  0  0  0  0  0
  189.3750  177.2880  136.0170 C   0  0  0  0  0  3  0  0  0  0  0  0
  188.9120  177.7990  141.2170 N   0  0  0  0  0  0  0  0  0  0  0  0
  191.6870  175.7610  138.2540 C   0  0  0  0  0  2  0  0  0  0  0  0
  190.9630  176.6310  140.5690 C   0  0  0  0  0  3  0  0  0  0  0  0
  188.2900  178.1100  136.3170 C   0  0  0  0  0  3  0  0  0  0  0  0
  188.7000  177.8570  138.7370 C   0  0  0  0  0  0  0  0  0  0  0  0
  189.8100  177.0600  138.3890 C   0  0  0  0  0  0  0  0  0  0  0  0
  187.9530  178.4020  137.6480 C   0  0  0  0  0  0  0  0  0  0  0  0
  190.1180  176.7790  137.0720 C   0  0  0  0  0  0  0  0  0  0  0  0
  190.2010  177.2270  141.4830 C   0  0  0  0  0  0  0  0  0  0  0  0
  186.8990  179.2300  137.8490 F   0  0  0  0  0  0  0  0  0  0  0  0
  191.3160  177.9090  144.8870 O   0  0  0  0  0  0  0  0  0  0  0  0
  190.8570  178.3140  143.7300 C   0  0  0  0  0  0  0  0  0  0  0  0
  191.0860  176.1060  143.6030 C   0  0  0  0  0  3  0  0  0  0  0  0
  191.4630  176.6060  144.8350 C   0  0  0  0  0  0  0  0  0  0  0  0
  190.6940  177.2270  142.8820 C   0  0  0  0  0  0  0  0  0  0  0  0
  190.5590  179.7420  143.4330 C   0  0  0  0  0  1  0  0  0  0  0  0
  191.9490  175.7820  145.9770 C   0  0  0  0  0  2  0  0  0  0  0  0
  190.2200  176.4060  147.4930 O   0  0  0  0  0  0  0  0  0  0  0  0
  192.3610  176.7730  148.2270 O   0  0  0  0  0  1  0  0  0  0  0  0
  191.4560  176.3460  147.2640 C   0  0  0  0  0  0  0  0  0  0  0  0
  186.3760  179.0260  141.6170 C   0  0  0  0  0  2  0  0  0  0  0  0
  185.3270  178.0260  142.0850 C   0  0  0  0  0  2  0  0  0  0  0  0
  184.8170  178.3960  143.4000 N   0  0  0  0  0  2  0  0  0  0  0  0
  185.5750  178.2810  144.6070 C   0  0  0  0  0  0  0  0  0  0  0  0
  187.0930  178.0290  146.9510 C   0  0  0  0  0  3  0  0  0  0  0  0
  185.0860  178.7810  145.8250 C   0  0  0  0  0  3  0  0  0  0  0  0
  185.8440  178.6560  146.9920 C   0  0  0  0  0  3  0  0  0  0  0  0
  187.5820  177.5270  145.7400 C   0  0  0  0  0  3  0  0  0  0  0  0
  186.8240  177.6540  144.5730 C   0  0  0  0  0  3  0  0  0  0  0  0
  1 13  2  0  0  0  0
  1  7  1  0  0  0  0
  2 26  1  0  0  0  0
  3  8  1  0  0  0  0
  4  2  1  0  0  0  0
  4  6  2  0  0  0  0
  5  9  2  0  0  0  0
  5 13  1  0  0  0  0
  6 14  1  0  0  0  0
  7  3  1  0  0  0  0
  8 14  2  0  0  0  0
  9 12  1  0  0  0  0
 10  4  1  0  0  0  0
 11 10  1  0  0  0  0
 11  3  2  0  0  0  0
 12 15  1  0  0  0  0
 12 10  2  0  0  0  0
 13 11  1  0  0  0  0
 14 20  1  0  0  0  0
 17 16  1  0  0  0  0
 18 19  2  0  0  0  0
 19 16  1  0  0  0  0
 19 22  1  0  0  0  0
 20 18  1  0  0  0  0
 20 17  2  0  0  0  0
 21 17  1  0  0  0  0
 22 25  1  0  0  0  0
 25 23  2  0  0  0  0
 25 24  1  0  0  0  0
 26 27  1  0  0  0  0
 27 28  1  0  0  0  0
 28 29  1  0  0  0  0
 29 31  1  0  0  0  0
 30 32  1  0  0  0  0
 31 32  2  0  0  0  0
 33 30  2  0  0  0  0
 34 29  2  0  0  0  0
 34 33  1  0  0  0  0
M  END
>  <MODEL>
3

>  <REMARK>
 VINA RESULT:      -9.5      2.001      6.586
  Name = 
  7 active torsions:
  status: ('A' for Active; 'I' for Inactive)
    1  A    between atoms: C_2  and  C_18
    2  A    between atoms: C_2  and  C_33
    3  A    between atoms: C_5  and  N_12
    4  A    between atoms: N_6  and  C_26
    5  A    between atoms: C_10  and  N_12
    6  A    between atoms: C_10  and  C_26
    7  A    between atoms: C_28  and  C_32
                            x       y       z     vdW  Elec       q    Type
                         _______ _______ _______ _____ _____    ______ ____

>  <TORSDO>
F 7

$$$$
=
 OpenBabel10232409573D

 34 38  0  0  0  0  0  0  0  0999 V2000
  188.4670  177.5470  148.3900 N   0  0  0  0  0  0  0  0  0  0  0  0
  189.8840  176.4300  142.6430 N   0  0  0  0  0  2  0  0  0  0  0  0
  187.4980  177.6240  146.3020 C   0  0  0  0  0  0  0  0  0  0  0  0
  189.0240  176.9830  143.6500 C   0  0  0  0  0  0  0  0  0  0  0  0
  190.6730  177.0920  147.6760 C   0  0  0  0  0  3  0  0  0  0  0  0
  187.8200  177.3190  143.2800 N   0  0  0  0  0  0  0  0  0  0  0  0
  187.1780  177.7710  147.7540 C   0  0  0  0  0  2  0  0  0  0  0  0
  186.5340  177.9490  145.2650 C   0  0  0  0  0  3  0  0  0  0  0  0
  191.4950  176.9000  146.5680 C   0  0  0  0  0  3  0  0  0  0  0  0
  189.5720  177.1100  145.0370 C   0  0  0  0  0  0  0  0  0  0  0  0
  188.7810  177.3370  146.1820 C   0  0  0  0  0  0  0  0  0  0  0  0
  190.9670  176.9130  145.2670 C   0  0  0  0  0  0  0  0  0  0  0  0
  189.3210  177.3110  147.4540 C   0  0  0  0  0  0  0  0  0  0  0  0
  186.6650  177.8540  143.9440 C   0  0  0  0  0  0  0  0  0  0  0  0
  191.8420  176.7420  144.2460 F   0  0  0  0  0  0  0  0  0  0  0  0
  184.2810  178.9370  141.4070 O   0  0  0  0  0  0  0  0  0  0  0  0
  185.5020  178.6530  141.7830 C   0  0  0  0  0  0  0  0  0  0  0  0
  184.1850  178.3210  143.5440 C   0  0  0  0  0  3  0  0  0  0  0  0
  183.4840  178.7520  142.4320 C   0  0  0  0  0  0  0  0  0  0  0  0
  185.5050  178.2610  143.1150 C   0  0  0  0  0  0  0  0  0  0  0  0
  186.6730  178.7410  140.8660 C   0  0  0  0  0  1  0  0  0  0  0  0
  182.0100  178.9570  142.3820 C   0  0  0  0  0  2  0  0  0  0  0  0
  181.1740  179.7170  140.2840 O   0  0  0  0  0  0  0  0  0  0  0  0
  181.4410  177.4480  140.4800 O   0  0  0  0  0  1  0  0  0  0  0  0
  181.5070  178.7350  140.9970 C   0  0  0  0  0  0  0  0  0  0  0  0
  189.5480  176.3720  141.2270 C   0  0  0  0  0  2  0  0  0  0  0  0
  190.3410  177.4150  140.4510 C   0  0  0  0  0  2  0  0  0  0  0  0
  190.2970  177.1340  139.0220 N   0  0  0  0  0  2  0  0  0  0  0  0
  189.1760  177.4350  138.1870 C   0  0  0  0  0  0  0  0  0  0  0  0
  186.9910  178.0710  136.5500 C   0  0  0  0  0  3  0  0  0  0  0  0
  188.2030  176.4650  137.8960 C   0  0  0  0  0  3  0  0  0  0  0  0
  187.1150  176.7830  137.0790 C   0  0  0  0  0  3  0  0  0  0  0  0
  187.9560  179.0410  136.8390 C   0  0  0  0  0  3  0  0  0  0  0  0
  189.0450  178.7220  137.6560 C   0  0  0  0  0  3  0  0  0  0  0  0
  2  4  1  0  0  0  0
  3  7  1  0  0  0  0
  4 10  1  0  0  0  0
  6  4  2  0  0  0  0
  6 14  1  0  0  0  0
  7  1  1  0  0  0  0
  8  3  1  0  0  0  0
  9  5  2  0  0  0  0
 10 12  2  0  0  0  0
 10 11  1  0  0  0  0
 11  3  2  0  0  0  0
 11 13  1  0  0  0  0
 12  9  1  0  0  0  0
 13  5  1  0  0  0  0
 13  1  2  0  0  0  0
 14  8  2  0  0  0  0
 15 12  1  0  0  0  0
 16 17  1  0  0  0  0
 16 19  1  0  0  0  0
 17 20  2  0  0  0  0
 19 18  2  0  0  0  0
 20 18  1  0  0  0  0
 20 14  1  0  0  0  0
 21 17  1  0  0  0  0
 22 19  1  0  0  0  0
 23 25  2  0  0  0  0
 24 25  1  0  0  0  0
 25 22  1  0  0  0  0
 26  2  1  0  0  0  0
 27 26  1  0  0  0  0
 28 27  1  0  0  0  0
 29 28  1  0  0  0  0
 30 33  2  0  0  0  0
 30 32  1  0  0  0  0
 31 29  1  0  0  0  0
 32 31  2  0  0  0  0
 33 34  1  0  0  0  0
 34 29  2  0  0  0  0
M  END
>  <MODEL>
4

>  <REMARK>
 VINA RESULT:      -9.4      3.914      6.665
  Name = 
  7 active torsions:
  status: ('A' for Active; 'I' for Inactive)
    1  A    between atoms: C_2  and  C_18
    2  A    between atoms: C_2  and  C_33
    3  A    between atoms: C_5  and  N_12
    4  A    between atoms: N_6  and  C_26
    5  A    between atoms: C_10  and  N_12
    6  A    between atoms: C_10  and  C_26
    7  A    between atoms: C_28  and  C_32
                            x       y       z     vdW  Elec       q    Type
                         _______ _______ _______ _____ _____    ______ ____

>  <TORSDO>
F 7

$$$$
=
 OpenBabel10232409573D

 34 38  0  0  0  0  0  0  0  0999 V2000
  188.9540  177.1420  147.0670 N   0  0  0  0  0  0  0  0  0  0  0  0
  189.1800  177.6650  141.0710 N   0  0  0  0  0  2  0  0  0  0  0  0
  187.5330  177.4740  145.2850 C   0  0  0  0  0  0  0  0  0  0  0  0
  188.4950  177.7830  142.3260 C   0  0  0  0  0  0  0  0  0  0  0  0
  190.9810  177.3400  145.8710 C   0  0  0  0  0  3  0  0  0  0  0  0
  187.2000  177.9280  142.2830 N   0  0  0  0  0  0  0  0  0  0  0  0
  187.5340  177.2220  146.7580 C   0  0  0  0  0  2  0  0  0  0  0  0
  186.3170  177.8100  144.5630 C   0  0  0  0  0  3  0  0  0  0  0  0
  191.5490  177.5800  144.6210 C   0  0  0  0  0  3  0  0  0  0  0  0
  189.3170  177.7110  143.5750 C   0  0  0  0  0  0  0  0  0  0  0  0
  188.7840  177.5020  144.8630 C   0  0  0  0  0  0  0  0  0  0  0  0
  190.7420  177.7700  143.4880 C   0  0  0  0  0  0  0  0  0  0  0  0
  189.5970  177.3090  145.9640 C   0  0  0  0  0  0  0  0  0  0  0  0
  186.1570  178.0420  143.2620 C   0  0  0  0  0  0  0  0  0  0  0  0
  191.3760  178.0220  142.3160 F   0  0  0  0  0  0  0  0  0  0  0  0
  182.6620  178.9590  142.7780 O   0  0  0  0  0  0  0  0  0  0  0  0
  183.6980  178.7670  143.5550 C   0  0  0  0  0  0  0  0  0  0  0  0
  184.3510  178.3260  141.4760 C   0  0  0  0  0  3  0  0  0  0  0  0
  183.0230  178.7020  141.5430 C   0  0  0  0  0  0  0  0  0  0  0  0
  184.7880  178.3670  142.7940 C   0  0  0  0  0  0  0  0  0  0  0  0
  183.6550  178.9770  145.0290 C   0  0  0  0  0  1  0  0  0  0  0  0
  182.1130  178.8290  140.3720 C   0  0  0  0  0  2  0  0  0  0  0  0
  183.0450  178.3490  138.2320 O   0  0  0  0  0  0  0  0  0  0  0  0
  183.4160  180.4690  139.0210 O   0  0  0  0  0  1  0  0  0  0  0  0
  182.8910  179.1910  139.1540 C   0  0  0  0  0  0  0  0  0  0  0  0
  188.5430  177.8540  139.7740 C   0  0  0  0  0  2  0  0  0  0  0  0
  189.1880  176.9530  138.7310 C   0  0  0  0  0  2  0  0  0  0  0  0
  190.6340  177.1340  138.7210 N   0  0  0  0  0  2  0  0  0  0  0  0
  191.5520  176.1670  138.2040 C   0  0  0  0  0  0  0  0  0  0  0  0
  193.3890  174.3030  137.1980 C   0  0  0  0  0  3  0  0  0  0  0  0
  191.1010  174.9830  137.5990 C   0  0  0  0  0  3  0  0  0  0  0  0
  192.0170  174.0540  137.0990 C   0  0  0  0  0  3  0  0  0  0  0  0
  193.8430  175.4820  137.7970 C   0  0  0  0  0  3  0  0  0  0  0  0
  192.9260  176.4110  138.2980 C   0  0  0  0  0  3  0  0  0  0  0  0
  2  4  1  0  0  0  0
  3  7  1  0  0  0  0
  4 10  1  0  0  0  0
  5 13  1  0  0  0  0
  6  4  2  0  0  0  0
  6 14  1  0  0  0  0
  7  1  1  0  0  0  0
  8  3  1  0  0  0  0
  9  5  2  0  0  0  0
 10 11  1  0  0  0  0
 11  3  2  0  0  0  0
 11 13  1  0  0  0  0
 12 10  2  0  0  0  0
 12  9  1  0  0  0  0
 13  1  2  0  0  0  0
 14  8  2  0  0  0  0
 15 12  1  0  0  0  0
 16 17  1  0  0  0  0
 17 21  1  0  0  0  0
 18 19  2  0  0  0  0
 18 20  1  0  0  0  0
 19 16  1  0  0  0  0
 20 14  1  0  0  0  0
 20 17  2  0  0  0  0
 22 19  1  0  0  0  0
 23 25  2  0  0  0  0
 24 25  1  0  0  0  0
 25 22  1  0  0  0  0
 26  2  1  0  0  0  0
 27 26  1  0  0  0  0
 28 27  1  0  0  0  0
 29 34  1  0  0  0  0
 29 28  1  0  0  0  0
 30 33  1  0  0  0  0
 31 29  2  0  0  0  0
 32 30  2  0  0  0  0
 32 31  1  0  0  0  0
 33 34  2  0  0  0  0
M  END
>  <MODEL>
5

>  <REMARK>
 VINA RESULT:      -9.2      4.289      7.315
  Name = 
  7 active torsions:
  status: ('A' for Active; 'I' for Inactive)
    1  A    between atoms: C_2  and  C_18
    2  A    between atoms: C_2  and  C_33
    3  A    between atoms: C_5  and  N_12
    4  A    between atoms: N_6  and  C_26
    5  A    between atoms: C_10  and  N_12
    6  A    between atoms: C_10  and  C_26
    7  A    between atoms: C_28  and  C_32
                            x       y       z     vdW  Elec       q    Type
                         _______ _______ _______ _____ _____    ______ ____

>  <TORSDO>
F 7

$$$$
=
 OpenBabel10232409573D

 34 38  0  0  0  0  0  0  0  0999 V2000
  182.3510  178.9000  144.1770 N   0  0  0  0  0  0  0  0  0  0  0  0
  187.2430  178.5720  140.6770 N   0  0  0  0  0  2  0  0  0  0  0  0
  184.6230  178.5790  144.3710 C   0  0  0  0  0  0  0  0  0  0  0  0
  186.5710  178.3930  141.9320 C   0  0  0  0  0  0  0  0  0  0  0  0
  182.2390  178.8030  141.8190 C   0  0  0  0  0  3  0  0  0  0  0  0
  187.3190  178.2090  142.9840 N   0  0  0  0  0  0  0  0  0  0  0  0
  183.3900  178.7850  145.1890 C   0  0  0  0  0  2  0  0  0  0  0  0
  185.8980  178.2280  144.9760 C   0  0  0  0  0  3  0  0  0  0  0  0
  182.9740  178.6200  140.6490 C   0  0  0  0  0  3  0  0  0  0  0  0
  185.0750  178.4520  141.9340 C   0  0  0  0  0  0  0  0  0  0  0  0
  184.2890  178.6030  143.0950 C   0  0  0  0  0  0  0  0  0  0  0  0
  184.3660  178.4400  140.6940 C   0  0  0  0  0  0  0  0  0  0  0  0
  182.9210  178.7880  143.0270 C   0  0  0  0  0  0  0  0  0  0  0  0
  187.0750  178.0320  144.3870 C   0  0  0  0  0  0  0  0  0  0  0  0
  185.0000  178.2450  139.5110 F   0  0  0  0  0  0  0  0  0  0  0  0
  189.4580  177.3110  147.0490 O   0  0  0  0  0  0  0  0  0  0  0  0
  188.2700  177.6840  146.6470 C   0  0  0  0  0  0  0  0  0  0  0  0
  189.4750  177.2710  144.8240 C   0  0  0  0  0  3  0  0  0  0  0  0
  190.1910  177.0640  145.9890 C   0  0  0  0  0  0  0  0  0  0  0  0
  188.2200  177.6790  145.2600 C   0  0  0  0  0  0  0  0  0  0  0  0
  187.1700  178.0340  147.5880 C   0  0  0  0  0  1  0  0  0  0  0  0
  191.6030  176.5960  146.0490 C   0  0  0  0  0  2  0  0  0  0  0  0
  191.8250  174.9040  147.7130 O   0  0  0  0  0  0  0  0  0  0  0  0
  192.3840  177.0260  148.3770 O   0  0  0  0  0  1  0  0  0  0  0  0
  191.9290  176.1240  147.4240 C   0  0  0  0  0  0  0  0  0  0  0  0
  188.6780  178.4030  140.4910 C   0  0  0  0  0  2  0  0  0  0  0  0
  188.9530  177.3750  139.4020 C   0  0  0  0  0  2  0  0  0  0  0  0
  189.3960  178.0300  138.1780 N   0  0  0  0  0  2  0  0  0  0  0  0
  188.7520  177.8670  136.9120 C   0  0  0  0  0  0  0  0  0  0  0  0
  187.4460  177.5570  134.4500 C   0  0  0  0  0  3  0  0  0  0  0  0
  189.4530  177.3890  135.7930 C   0  0  0  0  0  3  0  0  0  0  0  0
  188.8020  177.2350  134.5660 C   0  0  0  0  0  3  0  0  0  0  0  0
  186.7430  178.0310  135.5620 C   0  0  0  0  0  3  0  0  0  0  0  0
  187.3960  178.1850  136.7890 C   0  0  0  0  0  3  0  0  0  0  0  0
  1  7  1  0  0  0  0
  2  4  1  0  0  0  0
  3  8  1  0  0  0  0
  3  7  1  0  0  0  0
  4 10  1  0  0  0  0
  4  6  2  0  0  0  0
  5 13  1  0  0  0  0
  6 14  1  0  0  0  0
  9 12  1  0  0  0  0
  9  5  2  0  0  0  0
 10 11  1  0  0  0  0
 11  3  2  0  0  0  0
 12 10  2  0  0  0  0
 13 11  1  0  0  0  0
 13  1  2  0  0  0  0
 14  8  2  0  0  0  0
 14 20  1  0  0  0  0
 15 12  1  0  0  0  0
 17 16  1  0  0  0  0
 17 21  1  0  0  0  0
 18 20  1  0  0  0  0
 18 19  2  0  0  0  0
 19 22  1  0  0  0  0
 19 16  1  0  0  0  0
 20 17  2  0  0  0  0
 22 25  1  0  0  0  0
 25 23  2  0  0  0  0
 25 24  1  0  0  0  0
 26  2  1  0  0  0  0
 27 26  1  0  0  0  0
 28 27  1  0  0  0  0
 29 28  1  0  0  0  0
 30 32  2  0  0  0  0
 30 33  1  0  0  0  0
 31 29  2  0  0  0  0
 32 31  1  0  0  0  0
 33 34  2  0  0  0  0
 34 29  1  0  0  0  0
M  END
>  <MODEL>
6

>  <REMARK>
 VINA RESULT:      -9.2      1.406      2.197
  Name = 
  7 active torsions:
  status: ('A' for Active; 'I' for Inactive)
    1  A    between atoms: C_2  and  C_18
    2  A    between atoms: C_2  and  C_33
    3  A    between atoms: C_5  and  N_12
    4  A    between atoms: N_6  and  C_26
    5  A    between atoms: C_10  and  N_12
    6  A    between atoms: C_10  and  C_26
    7  A    between atoms: C_28  and  C_32
                            x       y       z     vdW  Elec       q    Type
                         _______ _______ _______ _____ _____    ______ ____

>  <TORSDO>
F 7

$$$$
=
 OpenBabel10232409573D

 34 38  0  0  0  0  0  0  0  0999 V2000
  182.3340  178.9270  144.0940 N   0  0  0  0  0  0  0  0  0  0  0  0
  187.1890  178.5380  140.5500 N   0  0  0  0  0  2  0  0  0  0  0  0
  184.6070  178.5970  144.2700 C   0  0  0  0  0  0  0  0  0  0  0  0
  186.5290  178.3760  141.8130 C   0  0  0  0  0  0  0  0  0  0  0  0
  182.1990  178.8060  141.7390 C   0  0  0  0  0  3  0  0  0  0  0  0
  187.2870  178.1990  142.8600 N   0  0  0  0  0  0  0  0  0  0  0  0
  183.3830  178.8180  145.0970 C   0  0  0  0  0  2  0  0  0  0  0  0
  185.8850  178.2460  144.8650 C   0  0  0  0  0  3  0  0  0  0  0  0
  182.9210  178.6070  140.5640 C   0  0  0  0  0  3  0  0  0  0  0  0
  185.0340  178.4420  141.8290 C   0  0  0  0  0  0  0  0  0  0  0  0
  184.2610  178.6100  142.9960 C   0  0  0  0  0  0  0  0  0  0  0  0
  184.3130  178.4210  140.5960 C   0  0  0  0  0  0  0  0  0  0  0  0
  182.8930  178.8000  142.9400 C   0  0  0  0  0  0  0  0  0  0  0  0
  187.0560  178.0380  144.2660 C   0  0  0  0  0  0  0  0  0  0  0  0
  184.9330  178.2100  139.4090 F   0  0  0  0  0  0  0  0  0  0  0  0
  189.4590  177.3230  146.9130 O   0  0  0  0  0  0  0  0  0  0  0  0
  188.2670  177.6920  146.5190 C   0  0  0  0  0  0  0  0  0  0  0  0
  189.4610  177.2850  144.6880 C   0  0  0  0  0  3  0  0  0  0  0  0
  190.1860  177.0800  145.8480 C   0  0  0  0  0  0  0  0  0  0  0  0
  188.2080  177.6880  145.1320 C   0  0  0  0  0  0  0  0  0  0  0  0
  187.1720  178.0370  147.4670 C   0  0  0  0  0  1  0  0  0  0  0  0
  191.6000  176.6160  145.8980 C   0  0  0  0  0  2  0  0  0  0  0  0
  191.9000  174.9410  147.5660 O   0  0  0  0  0  0  0  0  0  0  0  0
  192.3460  177.0890  148.2290 O   0  0  0  0  0  1  0  0  0  0  0  0
  191.9430  176.1640  147.2750 C   0  0  0  0  0  0  0  0  0  0  0  0
  188.6220  178.3600  140.3510 C   0  0  0  0  0  2  0  0  0  0  0  0
  188.8810  177.4540  139.1540 C   0  0  0  0  0  2  0  0  0  0  0  0
  189.9420  176.5010  139.4540 N   0  0  0  0  0  2  0  0  0  0  0  0
  190.9080  176.0590  138.4950 C   0  0  0  0  0  0  0  0  0  0  0  0
  192.8280  175.2300  136.6290 C   0  0  0  0  0  3  0  0  0  0  0  0
  190.6150  175.0270  137.5890 C   0  0  0  0  0  3  0  0  0  0  0  0
  191.5730  174.6140  136.6600 C   0  0  0  0  0  3  0  0  0  0  0  0
  193.1220  176.2600  137.5280 C   0  0  0  0  0  3  0  0  0  0  0  0
  192.1630  176.6730  138.4580 C   0  0  0  0  0  3  0  0  0  0  0  0
  1  7  1  0  0  0  0
  2  4  1  0  0  0  0
  3  8  1  0  0  0  0
  3  7  1  0  0  0  0
  4 10  1  0  0  0  0
  4  6  2  0  0  0  0
  5 13  1  0  0  0  0
  6 14  1  0  0  0  0
  9 12  1  0  0  0  0
  9  5  2  0  0  0  0
 10 11  1  0  0  0  0
 11  3  2  0  0  0  0
 12 10  2  0  0  0  0
 13 11  1  0  0  0  0
 13  1  2  0  0  0  0
 14  8  2  0  0  0  0
 14 20  1  0  0  0  0
 15 12  1  0  0  0  0
 17 16  1  0  0  0  0
 17 21  1  0  0  0  0
 18 20  1  0  0  0  0
 18 19  2  0  0  0  0
 19 22  1  0  0  0  0
 19 16  1  0  0  0  0
 20 17  2  0  0  0  0
 22 25  1  0  0  0  0
 25 23  2  0  0  0  0
 25 24  1  0  0  0  0
 26  2  1  0  0  0  0
 27 28  1  0  0  0  0
 27 26  1  0  0  0  0
 29 28  1  0  0  0  0
 30 32  2  0  0  0  0
 30 33  1  0  0  0  0
 31 29  2  0  0  0  0
 32 31  1  0  0  0  0
 33 34  2  0  0  0  0
 34 29  1  0  0  0  0
M  END
>  <MODEL>
7

>  <REMARK>
 VINA RESULT:      -9.1      2.310      3.388
  Name = 
  7 active torsions:
  status: ('A' for Active; 'I' for Inactive)
    1  A    between atoms: C_2  and  C_18
    2  A    between atoms: C_2  and  C_33
    3  A    between atoms: C_5  and  N_12
    4  A    between atoms: N_6  and  C_26
    5  A    between atoms: C_10  and  N_12
    6  A    between atoms: C_10  and  C_26
    7  A    between atoms: C_28  and  C_32
                            x       y       z     vdW  Elec       q    Type
                         _______ _______ _______ _____ _____    ______ ____

>  <TORSDO>
F 7

$$$$
=
 OpenBabel10232409573D

 34 38  0  0  1  0  0  0  0  0999 V2000
  191.1630  177.4320  146.5980 N   0  0  0  0  0  0  0  0  0  0  0  0
  185.8370  178.0250  143.8470 N   0  0  0  0  0  2  0  0  0  0  0  0
  190.2980  177.5500  144.4670 C   0  0  0  0  0  0  0  0  0  0  0  0
  187.2410  177.7280  143.8360 C   0  0  0  0  0  0  0  0  0  0  0  0
  189.1030  177.3050  147.7470 C   0  0  0  0  0  3  0  0  0  0  0  0
  187.8300  177.6940  142.6730 N   0  0  0  0  0  0  0  0  0  0  0  0
  191.5940  177.5210  145.2110 C   0  0  0  0  0  3  0  0  0  0  0  0
  190.2410  177.4510  143.0180 C   0  0  0  0  0  3  0  0  0  0  0  0
  187.7180  177.2600  147.6020 C   0  0  0  0  0  3  0  0  0  0  0  0
  187.9130  177.5000  145.1540 C   0  0  1  0  0  3  0  0  0  0  0  0
  189.3100  177.5050  145.3420 C   0  0  0  0  0  0  0  0  0  0  0  0
  187.1220  177.3490  146.3340 C   0  0  0  0  0  0  0  0  0  0  0  0
  189.8750  177.4250  146.6010 C   0  0  0  0  0  0  0  0  0  0  0  0
  189.1750  177.4800  142.2210 C   0  0  0  0  0  0  0  0  0  0  0  0
  185.7700  177.2720  146.2820 F   0  0  0  0  0  0  0  0  0  0  0  0
  190.4290  177.1740  138.8120 O   0  0  0  0  0  0  0  0  0  0  0  0
  190.6320  177.2740  140.1010 C   0  0  0  0  0  0  0  0  0  0  0  0
  188.4310  177.2970  139.7830 C   0  0  0  0  0  3  0  0  0  0  0  0
  189.1350  177.1890  138.5980 C   0  0  0  0  0  0  0  0  0  0  0  0
  189.4140  177.3550  140.7630 C   0  0  0  0  0  0  0  0  0  0  0  0
  191.9910  177.2780  140.7090 C   0  0  0  0  0  1  0  0  0  0  0  0
  188.5170  177.0750  137.2480 C   0  0  0  0  0  2  0  0  0  0  0  0
  187.1460  178.5110  135.9310 O   0  0  0  0  0  0  0  0  0  0  0  0
  188.6750  179.5630  137.2770 O   0  0  0  0  0  1  0  0  0  0  0  0
  188.0790  178.4160  136.7700 C   0  0  0  0  0  0  0  0  0  0  0  0
  185.0180  178.1320  142.6470 C   0  0  0  0  0  2  0  0  0  0  0  0
  185.0740  179.5490  142.0920 C   0  0  0  0  0  2  0  0  0  0  0  0
  185.4100  179.5310  140.6740 N   0  0  0  0  0  2  0  0  0  0  0  0
  184.5290  179.0530  139.6540 C   0  0  0  0  0  0  0  0  0  0  0  0
  182.7640  178.1410  137.6770 C   0  0  0  0  0  3  0  0  0  0  0  0
  184.9410  178.0780  138.7320 C   0  0  0  0  0  3  0  0  0  0  0  0
  184.0620  177.6250  137.7460 C   0  0  0  0  0  3  0  0  0  0  0  0
  182.3480  179.1110  138.5940 C   0  0  0  0  0  3  0  0  0  0  0  0
  183.2290  179.5640  139.5810 C   0  0  0  0  0  3  0  0  0  0  0  0
  1 13  1  0  0  0  0
  3  7  1  0  0  0  0
  3 11  2  0  0  0  0
  4  2  1  0  0  0  0
  6  4  2  0  0  0  0
  7  1  2  0  0  0  0
  8  3  1  0  0  0  0
  9  5  1  0  0  0  0
 10  4  1  1  0  0  0
 10 11  1  0  0  0  0
 10 12  1  0  0  0  0
 11 13  1  0  0  0  0
 12  9  2  0  0  0  0
 13  5  2  0  0  0  0
 14  6  1  0  0  0  0
 14  8  2  0  0  0  0
 15 12  1  0  0  0  0
 16 17  1  0  0  0  0
 17 21  1  0  0  0  0
 17 20  2  0  0  0  0
 18 20  1  0  0  0  0
 19 16  1  0  0  0  0
 19 18  2  0  0  0  0
 20 14  1  0  0  0  0
 22 19  1  0  0  0  0
 23 25  2  0  0  0  0
 25 22  1  0  0  0  0
 25 24  1  0  0  0  0
 26  2  1  0  0  0  0
 27 26  1  0  0  0  0
 28 27  1  0  0  0  0
 29 28  1  0  0  0  0
 30 32  2  0  0  0  0
 30 33  1  0  0  0  0
 31 29  2  0  0  0  0
 32 31  1  0  0  0  0
 33 34  2  0  0  0  0
 34 29  1  0  0  0  0
M  END
>  <MODEL>
8

>  <REMARK>
 VINA RESULT:      -9.0      3.409      6.288
  Name = 
  7 active torsions:
  status: ('A' for Active; 'I' for Inactive)
    1  A    between atoms: C_2  and  C_18
    2  A    between atoms: C_2  and  C_33
    3  A    between atoms: C_5  and  N_12
    4  A    between atoms: N_6  and  C_26
    5  A    between atoms: C_10  and  N_12
    6  A    between atoms: C_10  and  C_26
    7  A    between atoms: C_28  and  C_32
                            x       y       z     vdW  Elec       q    Type
                         _______ _______ _______ _____ _____    ______ ____

>  <TORSDO>
F 7

$$$$
=
 OpenBabel10232409573D

 34 38  0  0  1  0  0  0  0  0999 V2000
  191.0010  177.1470  146.6140 N   0  0  0  0  0  0  0  0  0  0  0  0
  186.0460  178.3780  143.4180 N   0  0  0  0  0  2  0  0  0  0  0  0
  190.3440  177.3590  144.4170 C   0  0  0  0  0  0  0  0  0  0  0  0
  187.3970  177.9090  143.5260 C   0  0  0  0  0  0  0  0  0  0  0  0
  188.8500  177.2840  147.5810 C   0  0  0  0  0  3  0  0  0  0  0  0
  188.0750  177.7950  142.4180 N   0  0  0  0  0  0  0  0  0  0  0  0
  191.5570  177.1740  145.2700 C   0  0  0  0  0  3  0  0  0  0  0  0
  190.3990  177.2580  142.9680 C   0  0  0  0  0  3  0  0  0  0  0  0
  187.4870  177.4090  147.3180 C   0  0  0  0  0  3  0  0  0  0  0  0
  187.9200  177.6080  144.8960 C   0  0  1  0  0  3  0  0  0  0  0  0
  189.2860  177.4410  145.2030 C   0  0  0  0  0  0  0  0  0  0  0  0
  187.0190  177.5630  146.0030 C   0  0  0  0  0  0  0  0  0  0  0  0
  189.7260  177.3000  146.5060 C   0  0  0  0  0  0  0  0  0  0  0  0
  189.4170  177.4140  142.0830 C   0  0  0  0  0  0  0  0  0  0  0  0
  185.6760  177.6540  145.8340 F   0  0  0  0  0  0  0  0  0  0  0  0
  189.6430  177.2800  138.4470 O   0  0  0  0  0  0  0  0  0  0  0  0
  188.9900  177.5700  139.5430 C   0  0  0  0  0  0  0  0  0  0  0  0
  190.9580  176.7380  140.1590 C   0  0  0  0  0  3  0  0  0  0  0  0
  190.8090  176.7820  138.7850 C   0  0  0  0  0  0  0  0  0  0  0  0
  189.7640  177.2520  140.6500 C   0  0  0  0  0  0  0  0  0  0  0  0
  187.6260  178.1680  139.5380 C   0  0  0  0  0  1  0  0  0  0  0  0
  191.8420  176.3510  137.8020 C   0  0  0  0  0  2  0  0  0  0  0  0
  193.0010  174.2700  137.7250 O   0  0  0  0  0  1  0  0  0  0  0  0
  190.7130  174.1300  137.7050 O   0  0  0  0  0  0  0  0  0  0  0  0
  191.8920  174.8630  137.7300 C   0  0  0  0  0  0  0  0  0  0  0  0
  185.3520  178.5770  142.1520 C   0  0  0  0  0  2  0  0  0  0  0  0
  183.8450  178.5110  142.3590 C   0  0  0  0  0  2  0  0  0  0  0  0
  183.1440  178.7570  141.1040 N   0  0  0  0  0  2  0  0  0  0  0  0
  183.3150  177.9590  139.9300 C   0  0  0  0  0  0  0  0  0  0  0  0
  183.6320  176.3570  137.6510 C   0  0  0  0  0  3  0  0  0  0  0  0
  183.9970  178.4530  138.8060 C   0  0  0  0  0  3  0  0  0  0  0  0
  184.1540  177.6540  137.6700 C   0  0  0  0  0  3  0  0  0  0  0  0
  182.9540  175.8610  138.7680 C   0  0  0  0  0  3  0  0  0  0  0  0
  182.7970  176.6610  139.9040 C   0  0  0  0  0  3  0  0  0  0  0  0
  2  4  1  0  0  0  0
  3 11  2  0  0  0  0
  3  7  1  0  0  0  0
  6  4  2  0  0  0  0
  7  1  2  0  0  0  0
  8  3  1  0  0  0  0
  9  5  1  0  0  0  0
 10  4  1  1  0  0  0
 10 11  1  0  0  0  0
 10 12  1  0  0  0  0
 11 13  1  0  0  0  0
 12  9  2  0  0  0  0
 13  1  1  0  0  0  0
 13  5  2  0  0  0  0
 14  6  1  0  0  0  0
 14  8  2  0  0  0  0
 15 12  1  0  0  0  0
 16 19  1  0  0  0  0
 16 17  1  0  0  0  0
 17 20  2  0  0  0  0
 18 20  1  0  0  0  0
 19 18  2  0  0  0  0
 20 14  1  0  0  0  0
 21 17  1  0  0  0  0
 22 19  1  0  0  0  0
 23 25  1  0  0  0  0
 24 25  2  0  0  0  0
 25 22  1  0  0  0  0
 26 27  1  0  0  0  0
 26  2  1  0  0  0  0
 28 27  1  0  0  0  0
 29 28  1  0  0  0  0
 30 32  2  0  0  0  0
 30 33  1  0  0  0  0
 31 29  2  0  0  0  0
 32 31  1  0  0  0  0
 33 34  2  0  0  0  0
 34 29  1  0  0  0  0
M  END
>  <MODEL>
9

>  <REMARK>
 VINA RESULT:      -9.0      3.595      5.938
  Name = 
  7 active torsions:
  status: ('A' for Active; 'I' for Inactive)
    1  A    between atoms: C_2  and  C_18
    2  A    between atoms: C_2  and  C_33
    3  A    between atoms: C_5  and  N_12
    4  A    between atoms: N_6  and  C_26
    5  A    between atoms: C_10  and  N_12
    6  A    between atoms: C_10  and  C_26
    7  A    between atoms: C_28  and  C_32
                            x       y       z     vdW  Elec       q    Type
                         _______ _______ _______ _____ _____    ______ ____

>  <TORSDO>
F 7

$$$$
