=
 OpenBabel10232408163D

 32 37  0  0  1  0  0  0  0  0999 V2000
  185.4380  178.2360  142.3320 C   0  0  0  0  0  0  0  0  0  0  0  0
  189.2400  177.7710  141.2560 C   0  0  0  0  0  0  0  0  0  0  0  0
  190.6700  176.6130  139.7880 C   0  0  0  0  0  2  0  0  0  0  0  0
  188.5610  177.6130  138.8950 C   0  0  0  0  0  3  0  0  0  0  0  0
  186.3550  177.6290  143.3390 C   0  0  0  0  0  3  0  0  0  0  0  0
  187.6990  177.6360  143.1920 C   0  0  0  0  0  0  0  0  0  0  0  0
  188.3490  178.0390  140.1940 C   0  0  1  0  0  0  0  0  0  0  0  0
  187.3700  178.6760  141.0750 N   0  0  0  0  0  0  0  0  0  0  0  0
  188.3300  178.4810  142.1020 C   0  0  2  0  0  0  0  0  0  0  0  0
  189.7620  176.8740  138.7050 C   0  0  0  0  0  0  0  0  0  0  0  0
  185.9520  178.7100  141.1840 C   0  0  0  0  0  3  0  0  0  0  0  0
  190.4240  177.0710  141.1080 C   0  0  0  0  0  3  0  0  0  0  0  0
  188.2150  178.0610  148.3350 C   0  0  0  0  0  2  0  0  0  0  0  0
  186.9700  178.1490  147.4500 C   0  0  0  0  0  2  0  0  0  0  0  0
  187.3840  178.4400  146.0070 C   0  0  0  0  0  2  0  0  0  0  0  0
  189.2830  176.7990  146.5540 C   0  0  0  0  0  3  0  0  0  0  0  0
  188.4090  177.4350  145.5510 C   0  0  0  0  0  0  0  0  0  0  0  0
  188.5420  177.0870  144.2670 C   0  0  0  0  0  3  0  0  0  0  0  0
  189.1590  177.0670  147.8220 N   0  0  0  0  0  0  0  0  0  0  0  0
  183.9860  179.9560  144.2490 O   0  0  0  0  0  0  0  0  0  0  0  0
  183.3670  179.0710  143.6000 C   0  0  0  0  0  0  0  0  0  0  0  0
  184.0320  178.2690  142.6120 N   0  0  0  0  0  2  0  0  0  0  0  0
  181.9300  178.7890  143.9050 C   0  0  0  0  0  2  0  0  0  0  0  0
  180.3080  180.3200  142.8930 N   0  0  0  0  0  1  0  0  0  0  0  0
  181.0200  179.0620  142.7110 C   0  0  0  0  0  2  0  0  0  0  0  0
  190.1060  176.4090  137.3610 C   0  0  0  0  0  0  0  0  0  0  0  0
  189.2250  175.8560  136.6420 O   0  0  0  0  0  0  0  0  0  0  0  0
  191.4150  176.5650  136.8980 O   0  0  0  0  0  0  0  0  0  0  0  0
  192.2620  175.4490  136.6460 C   0  0  0  0  0  2  0  0  0  0  0  0
  193.7060  175.8310  136.9160 C   0  0  2  0  0  3  0  0  0  0  0  0
  194.3120  174.9100  137.9020 C   0  0  0  0  0  2  0  0  0  0  0  0
  193.8400  176.1830  138.2730 O   0  0  0  0  0  0  0  0  0  0  0  0
  1 22  1  0  0  0  0
  1  5  1  0  0  0  0
  3 12  1  0  0  0  0
  6  5  2  0  0  0  0
  6 18  1  0  0  0  0
  7  4  1  6  0  0  0
  7  8  1  0  0  0  0
  7  2  1  0  0  0  0
  7  9  1  0  0  0  0
  8 11  1  0  0  0  0
  8  9  1  0  0  0  0
  9  2  1  1  0  0  0
  9  6  1  0  0  0  0
 10  4  2  0  0  0  0
 10  3  1  0  0  0  0
 11  1  2  0  0  0  0
 12  2  2  0  0  0  0
 14 13  1  0  0  0  0
 15 14  1  0  0  0  0
 16 19  2  0  0  0  0
 17 15  1  0  0  0  0
 17 16  1  0  0  0  0
 18 17  2  0  0  0  0
 19 13  1  0  0  0  0
 21 23  1  0  0  0  0
 21 20  2  0  0  0  0
 22 21  1  0  0  0  0
 25 24  1  0  0  0  0
 25 23  1  0  0  0  0
 26 10  1  0  0  0  0
 27 26  2  0  0  0  0
 28 26  1  0  0  0  0
 29 28  1  0  0  0  0
 30 29  1  1  0  0  0
 30 31  1  0  0  0  0
 30 32  1  0  0  0  0
 31 32  1  0  0  0  0
M  END
>  <MODEL>
1

>  <REMARK>
 VINA RESULT:      -8.4      0.000      0.000
  Name = 
  8 active torsions:
  status: ('A' for Active; 'I' for Inactive)
    1  A    between atoms: C_1  and  N_28
    2  A    between atoms: C_3  and  C_13
    3  A    between atoms: C_5  and  C_9
    4  A    between atoms: C_8  and  O_10
    5  A    between atoms: C_8  and  C_25
    6  A    between atoms: C_9  and  C_27
    7  A    between atoms: O_10  and  C_13
    8  A    between atoms: C_18  and  C_20
                            x       y       z     vdW  Elec       q    Type
                         _______ _______ _______ _____ _____    ______ ____

>  <TORSDO>
F 8

$$$$
=
 OpenBabel10232408163D

 32 37  0  0  1  0  0  0  0  0999 V2000
  185.4930  178.2620  142.3280 C   0  0  0  0  0  0  0  0  0  0  0  0
  189.2730  177.7510  141.1980 C   0  0  0  0  0  0  0  0  0  0  0  0
  190.6690  176.5690  139.7170 C   0  0  0  0  0  2  0  0  0  0  0  0
  188.5570  177.5840  138.8490 C   0  0  0  0  0  3  0  0  0  0  0  0
  186.4190  177.6520  143.3250 C   0  0  0  0  0  3  0  0  0  0  0  0
  187.7610  177.6460  143.1580 C   0  0  0  0  0  0  0  0  0  0  0  0
  188.3690  178.0210  140.1470 C   0  0  1  0  0  0  0  0  0  0  0  0
  187.4100  178.6740  141.0390 N   0  0  0  0  0  0  0  0  0  0  0  0
  188.3840  178.4770  142.0530 C   0  0  2  0  0  0  0  0  0  0  0  0
  189.7480  176.8310  138.6460 C   0  0  0  0  0  0  0  0  0  0  0  0
  185.9940  178.7220  141.1690 C   0  0  0  0  0  3  0  0  0  0  0  0
  190.4480  177.0390  141.0370 C   0  0  0  0  0  3  0  0  0  0  0  0
  188.2810  178.0120  148.3050 C   0  0  0  0  0  2  0  0  0  0  0  0
  187.0330  178.0910  147.4230 C   0  0  0  0  0  2  0  0  0  0  0  0
  187.4390  178.4080  145.9830 C   0  0  0  0  0  2  0  0  0  0  0  0
  189.3640  176.7890  146.5050 C   0  0  0  0  0  3  0  0  0  0  0  0
  188.4780  177.4240  145.5120 C   0  0  0  0  0  0  0  0  0  0  0  0
  188.6140  177.0960  144.2240 C   0  0  0  0  0  3  0  0  0  0  0  0
  189.2390  177.0390  147.7770 N   0  0  0  0  0  0  0  0  0  0  0  0
  184.0940  179.9720  144.2920 O   0  0  0  0  0  0  0  0  0  0  0  0
  183.4530  179.1060  143.6380 C   0  0  0  0  0  0  0  0  0  0  0  0
  184.0910  178.3100  142.6280 N   0  0  0  0  0  2  0  0  0  0  0  0
  182.0160  178.8400  143.9600 C   0  0  0  0  0  2  0  0  0  0  0  0
  180.3090  180.2410  142.9010 N   0  0  0  0  0  1  0  0  0  0  0  0
  181.1060  179.0320  142.7490 C   0  0  0  0  0  2  0  0  0  0  0  0
  190.0670  176.3540  137.3000 C   0  0  0  0  0  0  0  0  0  0  0  0
  191.2580  176.4160  136.8770 O   0  0  0  0  0  0  0  0  0  0  0  0
  189.0440  175.8550  136.4910 O   0  0  0  0  0  0  0  0  0  0  0  0
  188.4460  174.5860  136.7310 C   0  0  0  0  0  2  0  0  0  0  0  0
  186.9480  174.7500  136.9140 C   0  0  2  0  0  3  0  0  0  0  0  0
  186.3200  173.4560  137.2570 C   0  0  0  0  0  2  0  0  0  0  0  0
  186.2810  173.9710  135.9480 O   0  0  0  0  0  0  0  0  0  0  0  0
  1 22  1  0  0  0  0
  1  5  1  0  0  0  0
  3 12  1  0  0  0  0
  6  5  2  0  0  0  0
  6 18  1  0  0  0  0
  7  4  1  6  0  0  0
  7  8  1  0  0  0  0
  7  2  1  0  0  0  0
  7  9  1  0  0  0  0
  8 11  1  0  0  0  0
  8  9  1  0  0  0  0
  9  2  1  1  0  0  0
  9  6  1  0  0  0  0
 10  4  2  0  0  0  0
 10  3  1  0  0  0  0
 11  1  2  0  0  0  0
 12  2  2  0  0  0  0
 14 13  1  0  0  0  0
 15 14  1  0  0  0  0
 16 19  2  0  0  0  0
 17 15  1  0  0  0  0
 17 16  1  0  0  0  0
 18 17  2  0  0  0  0
 19 13  1  0  0  0  0
 21 23  1  0  0  0  0
 21 20  2  0  0  0  0
 22 21  1  0  0  0  0
 25 24  1  0  0  0  0
 25 23  1  0  0  0  0
 26 10  1  0  0  0  0
 27 26  2  0  0  0  0
 28 29  1  0  0  0  0
 28 26  1  0  0  0  0
 30 29  1  6  0  0  0
 30 31  1  0  0  0  0
 32 30  1  0  0  0  0
 32 31  1  0  0  0  0
M  END
>  <MODEL>
2

>  <REMARK>
 VINA RESULT:      -8.2      1.316      2.543
  Name = 
  8 active torsions:
  status: ('A' for Active; 'I' for Inactive)
    1  A    between atoms: C_1  and  N_28
    2  A    between atoms: C_3  and  C_13
    3  A    between atoms: C_5  and  C_9
    4  A    between atoms: C_8  and  O_10
    5  A    between atoms: C_8  and  C_25
    6  A    between atoms: C_9  and  C_27
    7  A    between atoms: O_10  and  C_13
    8  A    between atoms: C_18  and  C_20
                            x       y       z     vdW  Elec       q    Type
                         _______ _______ _______ _____ _____    ______ ____

>  <TORSDO>
F 8

$$$$
=
 OpenBabel10232408163D

 32 37  0  0  1  0  0  0  0  0999 V2000
  192.9400  176.4460  138.3420 C   0  0  0  0  0  0  0  0  0  0  0  0
  190.1780  177.1960  141.1060 C   0  0  0  0  0  0  0  0  0  0  0  0
  189.5010  176.6860  143.3010 C   0  0  0  0  0  2  0  0  0  0  0  0
  191.9110  177.1740  142.8540 C   0  0  0  0  0  3  0  0  0  0  0  0
  191.5510  175.9860  138.0510 C   0  0  0  0  0  3  0  0  0  0  0  0
  190.4880  176.3840  138.7850 C   0  0  0  0  0  0  0  0  0  0  0  0
  191.5130  177.3480  141.5410 C   0  0  1  0  0  0  0  0  0  0  0  0
  192.0110  177.5660  140.1830 N   0  0  0  0  0  0  0  0  0  0  0  0
  190.6480  177.5080  139.7900 C   0  0  2  0  0  0  0  0  0  0  0  0
  190.8590  176.8280  143.7490 C   0  0  0  0  0  0  0  0  0  0  0  0
  193.1640  177.1920  139.4370 C   0  0  0  0  0  3  0  0  0  0  0  0
  189.1270  176.8770  141.9460 C   0  0  0  0  0  3  0  0  0  0  0  0
  186.8540  177.6620  135.3130 C   0  0  0  0  0  2  0  0  0  0  0  0
  188.3800  177.7200  135.2220 C   0  0  0  0  0  2  0  0  0  0  0  0
  188.9810  177.7050  136.6290 C   0  0  0  0  0  2  0  0  0  0  0  0
  187.1110  175.9980  137.0660 C   0  0  0  0  0  3  0  0  0  0  0  0
  188.4420  176.5330  137.4070 C   0  0  0  0  0  0  0  0  0  0  0  0
  189.1380  175.9500  138.3880 C   0  0  0  0  0  3  0  0  0  0  0  0
  186.4150  176.4990  136.0870 N   0  0  0  0  0  0  0  0  0  0  0  0
  194.3200  173.8370  138.1790 O   0  0  0  0  0  0  0  0  0  0  0  0
  194.6920  174.7950  137.4490 C   0  0  0  0  0  0  0  0  0  0  0  0
  193.9960  176.0510  137.4560 N   0  0  0  0  0  2  0  0  0  0  0  0
  195.9220  174.6600  136.6090 C   0  0  0  0  0  2  0  0  0  0  0  0
  197.8960  175.3210  137.8990 N   0  0  0  0  0  1  0  0  0  0  0  0
  197.1260  174.1830  137.4170 C   0  0  0  0  0  2  0  0  0  0  0  0
  191.1610  176.6600  145.1710 C   0  0  0  0  0  0  0  0  0  0  0  0
  191.9580  175.7510  145.5410 O   0  0  0  0  0  0  0  0  0  0  0  0
  190.5440  177.4980  146.1030 O   0  0  0  0  0  0  0  0  0  0  0  0
  189.9170  176.9870  147.2740 C   0  0  0  0  0  2  0  0  0  0  0  0
  188.4940  177.5070  147.3620 C   0  0  2  0  0  3  0  0  0  0  0  0
  188.2950  178.2720  148.6120 C   0  0  0  0  0  2  0  0  0  0  0  0
  187.8680  176.9370  148.4880 O   0  0  0  0  0  0  0  0  0  0  0  0
  1 11  2  0  0  0  0
  2  7  1  0  0  0  0
  2 12  2  0  0  0  0
  3 10  1  0  0  0  0
  4 10  2  0  0  0  0
  5  1  1  0  0  0  0
  5  6  2  0  0  0  0
  7  4  1  1  0  0  0
  8  7  1  0  0  0  0
  9  6  1  6  0  0  0
  9  8  1  0  0  0  0
  9  2  1  0  0  0  0
  9  7  1  0  0  0  0
 10 26  1  0  0  0  0
 11  8  1  0  0  0  0
 12  3  1  0  0  0  0
 13 19  1  0  0  0  0
 14 13  1  0  0  0  0
 14 15  1  0  0  0  0
 15 17  1  0  0  0  0
 16 17  1  0  0  0  0
 17 18  2  0  0  0  0
 18  6  1  0  0  0  0
 19 16  2  0  0  0  0
 21 22  1  0  0  0  0
 21 20  2  0  0  0  0
 22  1  1  0  0  0  0
 23 25  1  0  0  0  0
 23 21  1  0  0  0  0
 25 24  1  0  0  0  0
 26 27  2  0  0  0  0
 26 28  1  0  0  0  0
 28 29  1  0  0  0  0
 30 29  1  1  0  0  0
 30 32  1  0  0  0  0
 30 31  1  0  0  0  0
 32 31  1  0  0  0  0
M  END
>  <MODEL>
3

>  <REMARK>
 VINA RESULT:      -7.6      4.277     10.197
  Name = 
  8 active torsions:
  status: ('A' for Active; 'I' for Inactive)
    1  A    between atoms: C_1  and  N_28
    2  A    between atoms: C_3  and  C_13
    3  A    between atoms: C_5  and  C_9
    4  A    between atoms: C_8  and  O_10
    5  A    between atoms: C_8  and  C_25
    6  A    between atoms: C_9  and  C_27
    7  A    between atoms: O_10  and  C_13
    8  A    between atoms: C_18  and  C_20
                            x       y       z     vdW  Elec       q    Type
                         _______ _______ _______ _____ _____    ______ ____

>  <TORSDO>
F 8

$$$$
=
 OpenBabel10232408163D

 32 37  0  0  1  0  0  0  0  0999 V2000
  190.1480  177.5690  141.7990 C   0  0  0  0  0  0  0  0  0  0  0  0
  187.1690  177.4550  144.4330 C   0  0  0  0  0  0  0  0  0  0  0  0
  185.1400  178.4750  145.0510 C   0  0  0  0  0  2  0  0  0  0  0  0
  185.5550  177.9530  142.6430 C   0  0  0  0  0  3  0  0  0  0  0  0
  190.4830  177.9070  143.2120 C   0  0  0  0  0  3  0  0  0  0  0  0
  189.6290  177.6760  144.2340 C   0  0  0  0  0  0  0  0  0  0  0  0
  186.7670  177.4500  143.0790 C   0  0  1  0  0  0  0  0  0  0  0  0
  188.0500  176.9150  142.6220 N   0  0  0  0  0  0  0  0  0  0  0  0
  188.3860  176.8390  143.9990 C   0  0  2  0  0  0  0  0  0  0  0  0
  184.7290  178.4830  143.6740 C   0  0  0  0  0  0  0  0  0  0  0  0
  188.9130  177.1220  141.5100 C   0  0  0  0  0  3  0  0  0  0  0  0
  186.3890  177.9450  145.4650 C   0  0  0  0  0  3  0  0  0  0  0  0
  192.4750  175.4600  147.9600 C   0  0  0  0  0  2  0  0  0  0  0  0
  192.6180  175.4110  146.4380 C   0  0  0  0  0  2  0  0  0  0  0  0
  191.2940  175.8060  145.7830 C   0  0  0  0  0  2  0  0  0  0  0  0
  191.2320  177.5300  147.6870 C   0  0  0  0  0  3  0  0  0  0  0  0
  190.8250  177.1300  146.3270 C   0  0  0  0  0  0  0  0  0  0  0  0
  190.0630  177.9630  145.6110 C   0  0  0  0  0  3  0  0  0  0  0  0
  192.0130  176.7760  148.4050 N   0  0  0  0  0  0  0  0  0  0  0  0
  190.7200  175.8820  139.4400 O   0  0  0  0  0  0  0  0  0  0  0  0
  191.4440  176.8830  139.6910 C   0  0  0  0  0  0  0  0  0  0  0  0
  191.1480  177.7590  140.7890 N   0  0  0  0  0  2  0  0  0  0  0  0
  192.6790  177.1320  138.8850 C   0  0  0  0  0  2  0  0  0  0  0  0
  194.2420  175.4180  138.1000 N   0  0  0  0  0  1  0  0  0  0  0  0
  192.9400  176.0250  137.8670 C   0  0  0  0  0  2  0  0  0  0  0  0
  183.4070  179.0040  143.3280 C   0  0  0  0  0  0  0  0  0  0  0  0
  182.5630  179.2340  144.2420 O   0  0  0  0  0  0  0  0  0  0  0  0
  183.0870  179.2210  141.9860 O   0  0  0  0  0  0  0  0  0  0  0  0
  182.1730  178.3850  141.2850 C   0  0  0  0  0  2  0  0  0  0  0  0
  180.7940  179.0210  141.2840 C   0  0  2  0  0  3  0  0  0  0  0  0
  180.0890  178.7320  140.0160 C   0  0  0  0  0  2  0  0  0  0  0  0
  180.7280  179.9660  140.2410 O   0  0  0  0  0  0  0  0  0  0  0  0
  1  5  1  0  0  0  0
  2 12  2  0  0  0  0
  3 12  1  0  0  0  0
  4 10  2  0  0  0  0
  5  6  2  0  0  0  0
  6 18  1  0  0  0  0
  7  4  1  1  0  0  0
  7  9  1  0  0  0  0
  7  2  1  0  0  0  0
  8  7  1  0  0  0  0
  8  9  1  0  0  0  0
  9  6  1  6  0  0  0
  9  2  1  0  0  0  0
 10  3  1  0  0  0  0
 11  1  2  0  0  0  0
 11  8  1  0  0  0  0
 13 19  1  0  0  0  0
 14 13  1  0  0  0  0
 15 17  1  0  0  0  0
 15 14  1  0  0  0  0
 16 19  2  0  0  0  0
 17 16  1  0  0  0  0
 18 17  2  0  0  0  0
 20 21  2  0  0  0  0
 21 22  1  0  0  0  0
 22  1  1  0  0  0  0
 23 21  1  0  0  0  0
 25 24  1  0  0  0  0
 25 23  1  0  0  0  0
 26 10  1  0  0  0  0
 26 27  2  0  0  0  0
 28 26  1  0  0  0  0
 29 28  1  0  0  0  0
 30 29  1  6  0  0  0
 31 32  1  0  0  0  0
 31 30  1  0  0  0  0
 32 30  1  0  0  0  0
M  END
>  <MODEL>
4

>  <REMARK>
 VINA RESULT:      -7.5      2.646      8.306
  Name = 
  8 active torsions:
  status: ('A' for Active; 'I' for Inactive)
    1  A    between atoms: C_1  and  N_28
    2  A    between atoms: C_3  and  C_13
    3  A    between atoms: C_5  and  C_9
    4  A    between atoms: C_8  and  O_10
    5  A    between atoms: C_8  and  C_25
    6  A    between atoms: C_9  and  C_27
    7  A    between atoms: O_10  and  C_13
    8  A    between atoms: C_18  and  C_20
                            x       y       z     vdW  Elec       q    Type
                         _______ _______ _______ _____ _____    ______ ____

>  <TORSDO>
F 8

$$$$
=
 OpenBabel10232408163D

 32 37  0  0  1  0  0  0  0  0999 V2000
  186.9070  178.1140  142.1930 C   0  0  0  0  0  0  0  0  0  0  0  0
  189.8790  177.1960  139.7120 C   0  0  0  0  0  0  0  0  0  0  0  0
  190.4080  176.0500  137.7250 C   0  0  0  0  0  2  0  0  0  0  0  0
  188.3770  177.5040  137.7860 C   0  0  0  0  0  3  0  0  0  0  0  0
  187.9780  177.2220  142.7230 C   0  0  0  0  0  3  0  0  0  0  0  0
  189.1480  177.0300  142.0740 C   0  0  0  0  0  0  0  0  0  0  0  0
  188.7410  177.7620  139.0950 C   0  0  1  0  0  0  0  0  0  0  0  0
  188.3020  178.4130  140.3300 N   0  0  0  0  0  0  0  0  0  0  0  0
  189.5050  177.9130  140.8930 C   0  0  2  0  0  0  0  0  0  0  0  0
  189.2460  176.6140  137.0950 C   0  0  0  0  0  0  0  0  0  0  0  0
  187.0590  178.6620  140.9750 C   0  0  0  0  0  3  0  0  0  0  0  0
  190.7570  176.3410  139.0690 C   0  0  0  0  0  3  0  0  0  0  0  0
  191.6730  176.6970  146.5920 C   0  0  0  0  0  2  0  0  0  0  0  0
  190.2400  177.1350  146.2830 C   0  0  0  0  0  2  0  0  0  0  0  0
  190.1250  177.5200  144.8080 C   0  0  0  0  0  2  0  0  0  0  0  0
  191.6600  175.4840  144.4850 C   0  0  0  0  0  3  0  0  0  0  0  0
  190.6390  176.3990  143.9410 C   0  0  0  0  0  0  0  0  0  0  0  0
  190.1880  176.1970  142.7000 C   0  0  0  0  0  3  0  0  0  0  0  0
  192.0950  175.6100  145.7060 N   0  0  0  0  0  0  0  0  0  0  0  0
  184.0720  177.7970  141.4200 O   0  0  0  0  0  0  0  0  0  0  0  0
  184.3700  178.2370  142.5640 C   0  0  0  0  0  0  0  0  0  0  0  0
  185.7360  178.3350  142.9910 N   0  0  0  0  0  2  0  0  0  0  0  0
  183.2940  178.7370  143.4750 C   0  0  0  0  0  2  0  0  0  0  0  0
  183.9060  178.9160  145.8390 N   0  0  0  0  0  1  0  0  0  0  0  0
  183.8430  179.6390  144.5770 C   0  0  0  0  0  2  0  0  0  0  0  0
  188.9780  176.3040  135.6910 C   0  0  0  0  0  0  0  0  0  0  0  0
  189.7650  176.7210  134.7930 O   0  0  0  0  0  0  0  0  0  0  0  0
  187.8380  175.5670  135.3590 O   0  0  0  0  0  0  0  0  0  0  0  0
  187.8420  174.1450  135.3330 C   0  0  0  0  0  2  0  0  0  0  0  0
  187.1260  173.6070  136.5580 C   0  0  2  0  0  3  0  0  0  0  0  0
  187.8110  172.4020  137.0750 C   0  0  0  0  0  2  0  0  0  0  0  0
  186.6550  172.3090  136.2790 O   0  0  0  0  0  0  0  0  0  0  0  0
  1  5  1  0  0  0  0
  1 22  1  0  0  0  0
  3 12  1  0  0  0  0
  6 18  1  0  0  0  0
  6  5  2  0  0  0  0
  7  4  1  6  0  0  0
  7  2  1  0  0  0  0
  7  8  1  0  0  0  0
  7  9  1  0  0  0  0
  8  9  1  0  0  0  0
  8 11  1  0  0  0  0
  9  2  1  1  0  0  0
  9  6  1  0  0  0  0
 10  3  1  0  0  0  0
 10  4  2  0  0  0  0
 11  1  2  0  0  0  0
 12  2  2  0  0  0  0
 14 13  1  0  0  0  0
 15 14  1  0  0  0  0
 16 19  2  0  0  0  0
 17 16  1  0  0  0  0
 17 15  1  0  0  0  0
 18 17  2  0  0  0  0
 19 13  1  0  0  0  0
 20 21  2  0  0  0  0
 21 22  1  0  0  0  0
 21 23  1  0  0  0  0
 23 25  1  0  0  0  0
 25 24  1  0  0  0  0
 26 10  1  0  0  0  0
 27 26  2  0  0  0  0
 28 26  1  0  0  0  0
 29 28  1  0  0  0  0
 30 29  1  6  0  0  0
 30 31  1  0  0  0  0
 32 30  1  0  0  0  0
 32 31  1  0  0  0  0
M  END
>  <MODEL>
5

>  <REMARK>
 VINA RESULT:      -7.5      2.425      3.474
  Name = 
  8 active torsions:
  status: ('A' for Active; 'I' for Inactive)
    1  A    between atoms: C_1  and  N_28
    2  A    between atoms: C_3  and  C_13
    3  A    between atoms: C_5  and  C_9
    4  A    between atoms: C_8  and  O_10
    5  A    between atoms: C_8  and  C_25
    6  A    between atoms: C_9  and  C_27
    7  A    between atoms: O_10  and  C_13
    8  A    between atoms: C_18  and  C_20
                            x       y       z     vdW  Elec       q    Type
                         _______ _______ _______ _____ _____    ______ ____

>  <TORSDO>
F 8

$$$$
=
 OpenBabel10232408163D

 32 37  0  0  1  0  0  0  0  0999 V2000
  190.7080  176.2160  138.9100 C   0  0  0  0  0  0  0  0  0  0  0  0
  187.7650  178.4290  140.4150 C   0  0  0  0  0  0  0  0  0  0  0  0
  186.0640  178.4740  142.0410 C   0  0  0  0  0  2  0  0  0  0  0  0
  188.3390  177.6650  142.6830 C   0  0  0  0  0  3  0  0  0  0  0  0
  189.5460  176.4910  138.0170 C   0  0  0  0  0  3  0  0  0  0  0  0
  188.6060  177.4150  138.3160 C   0  0  0  0  0  0  0  0  0  0  0  0
  188.6770  177.9240  141.3670 C   0  0  1  0  0  0  0  0  0  0  0  0
  189.7430  177.7720  140.3770 N   0  0  0  0  0  0  0  0  0  0  0  0
  188.8360  178.3750  139.4670 C   0  0  2  0  0  0  0  0  0  0  0  0
  186.9840  177.9510  143.0120 C   0  0  0  0  0  0  0  0  0  0  0  0
  190.7690  176.8240  140.1080 C   0  0  0  0  0  3  0  0  0  0  0  0
  186.4460  178.7340  140.7000 C   0  0  0  0  0  3  0  0  0  0  0  0
  185.0140  174.7890  135.6520 C   0  0  0  0  0  2  0  0  0  0  0  0
  185.6030  174.5370  137.0410 C   0  0  0  0  0  2  0  0  0  0  0  0
  186.9370  175.2740  137.1760 C   0  0  0  0  0  2  0  0  0  0  0  0
  185.6880  177.1120  135.8850 C   0  0  0  0  0  3  0  0  0  0  0  0
  186.7590  176.7280  136.8240 C   0  0  0  0  0  0  0  0  0  0  0  0
  187.5320  177.6860  137.3460 C   0  0  0  0  0  3  0  0  0  0  0  0
  184.8790  176.2230  135.3880 N   0  0  0  0  0  0  0  0  0  0  0  0
  193.4810  176.7760  138.0520 O   0  0  0  0  0  0  0  0  0  0  0  0
  193.0280  175.6010  137.9970 C   0  0  0  0  0  0  0  0  0  0  0  0
  191.7100  175.2870  138.4720 N   0  0  0  0  0  2  0  0  0  0  0  0
  193.8380  174.5170  137.3600 C   0  0  0  0  0  2  0  0  0  0  0  0
  195.3510  173.2910  138.8460 N   0  0  0  0  0  1  0  0  0  0  0  0
  195.2470  174.4280  137.9420 C   0  0  0  0  0  2  0  0  0  0  0  0
  186.5290  177.7520  144.3890 C   0  0  0  0  0  0  0  0  0  0  0  0
  185.3380  178.0380  144.7050 O   0  0  0  0  0  0  0  0  0  0  0  0
  187.4270  177.2680  145.3420 O   0  0  0  0  0  0  0  0  0  0  0  0
  187.3700  177.6730  146.7050 C   0  0  0  0  0  2  0  0  0  0  0  0
  188.5010  177.0220  147.4810 C   0  0  2  0  0  3  0  0  0  0  0  0
  189.2650  178.0380  148.2380 C   0  0  0  0  0  2  0  0  0  0  0  0
  189.7280  177.5280  147.0110 O   0  0  0  0  0  0  0  0  0  0  0  0
  1 11  2  0  0  0  0
  2 12  2  0  0  0  0
  2  7  1  0  0  0  0
  3 10  1  0  0  0  0
  4 10  2  0  0  0  0
  5  6  2  0  0  0  0
  5  1  1  0  0  0  0
  7  4  1  1  0  0  0
  8  7  1  0  0  0  0
  9  6  1  6  0  0  0
  9  8  1  0  0  0  0
  9  2  1  0  0  0  0
  9  7  1  0  0  0  0
 10 26  1  0  0  0  0
 11  8  1  0  0  0  0
 12  3  1  0  0  0  0
 13 14  1  0  0  0  0
 14 15  1  0  0  0  0
 16 17  1  0  0  0  0
 17 15  1  0  0  0  0
 17 18  2  0  0  0  0
 18  6  1  0  0  0  0
 19 13  1  0  0  0  0
 19 16  2  0  0  0  0
 21 20  2  0  0  0  0
 21 22  1  0  0  0  0
 22  1  1  0  0  0  0
 23 25  1  0  0  0  0
 23 21  1  0  0  0  0
 25 24  1  0  0  0  0
 26 27  2  0  0  0  0
 26 28  1  0  0  0  0
 28 29  1  0  0  0  0
 30 29  1  6  0  0  0
 30 31  1  0  0  0  0
 32 30  1  0  0  0  0
 32 31  1  0  0  0  0
M  END
>  <MODEL>
6

>  <REMARK>
 VINA RESULT:      -7.4      3.386      9.542
  Name = 
  8 active torsions:
  status: ('A' for Active; 'I' for Inactive)
    1  A    between atoms: C_1  and  N_28
    2  A    between atoms: C_3  and  C_13
    3  A    between atoms: C_5  and  C_9
    4  A    between atoms: C_8  and  O_10
    5  A    between atoms: C_8  and  C_25
    6  A    between atoms: C_9  and  C_27
    7  A    between atoms: O_10  and  C_13
    8  A    between atoms: C_18  and  C_20
                            x       y       z     vdW  Elec       q    Type
                         _______ _______ _______ _____ _____    ______ ____

>  <TORSDO>
F 8

$$$$
=
 OpenBabel10232408163D

 32 37  0  0  1  0  0  0  0  0999 V2000
  187.5770  178.0980  140.8200 C   0  0  0  0  0  0  0  0  0  0  0  0
  190.2310  176.5590  143.3520 C   0  0  0  0  0  0  0  0  0  0  0  0
  191.2150  176.8360  145.4720 C   0  0  0  0  0  2  0  0  0  0  0  0
  188.7390  177.0710  145.2410 C   0  0  0  0  0  3  0  0  0  0  0  0
  189.0080  178.1360  140.4040 C   0  0  0  0  0  3  0  0  0  0  0  0
  189.9700  177.4420  141.0520 C   0  0  0  0  0  0  0  0  0  0  0  0
  188.9530  176.7990  143.9020 C   0  0  1  0  0  0  0  0  0  0  0  0
  188.2970  176.7440  142.5960 N   0  0  2  0  0  0  0  0  0  0  0  0
  189.5790  176.4060  142.0880 C   0  0  2  0  0  0  0  0  0  0  0  0
  189.9190  177.0910  146.0370 C   0  0  0  0  0  0  0  0  0  0  0  0
  187.2420  177.4410  141.9440 C   0  0  0  0  0  2  0  0  0  0  0  0
  191.3990  176.5530  144.0940 C   0  0  0  0  0  3  0  0  0  0  0  0
  192.6070  175.7370  136.9240 C   0  0  0  0  0  2  0  0  0  0  0  0
  191.1590  176.2140  137.0510 C   0  0  0  0  0  2  0  0  0  0  0  0
  190.7220  176.1490  138.5160 C   0  0  0  0  0  2  0  0  0  0  0  0
  193.1070  177.0070  138.9350 C   0  0  0  0  0  3  0  0  0  0  0  0
  191.7060  176.8930  139.3810 C   0  0  0  0  0  0  0  0  0  0  0  0
  191.3480  177.4680  140.5330 C   0  0  0  0  0  3  0  0  0  0  0  0
  193.4950  176.5070  137.7980 N   0  0  0  0  0  0  0  0  0  0  0  0
  184.7270  178.6030  141.4180 O   0  0  0  0  0  0  0  0  0  0  0  0
  185.2120  178.9580  140.3100 C   0  0  0  0  0  0  0  0  0  0  0  0
  186.6080  178.7890  140.0190 N   0  0  0  0  0  0  0  0  0  0  0  0
  184.3170  179.4990  139.2410 C   0  0  0  0  0  2  0  0  0  0  0  0
  184.3730  177.5530  137.7550 N   0  0  0  0  0  1  0  0  0  0  0  0
  183.5040  178.4020  138.5570 C   0  0  0  0  0  2  0  0  0  0  0  0
  189.8030  177.3300  147.4750 C   0  0  0  0  0  0  0  0  0  0  0  0
  190.8460  177.3830  148.1900 O   0  0  0  0  0  0  0  0  0  0  0  0
  188.5360  177.4730  148.0450 O   0  0  0  0  0  0  0  0  0  0  0  0
  187.7830  178.6740  147.9130 C   0  0  0  0  0  2  0  0  0  0  0  0
  186.3510  178.3420  147.5350 C   0  0  2  0  0  3  0  0  0  0  0  0
  185.9950  178.9680  146.2430 C   0  0  0  0  0  2  0  0  0  0  0  0
  185.6070  179.5370  147.4710 O   0  0  0  0  0  0  0  0  0  0  0  0
  1 11  1  0  0  0  0
  2  7  1  0  0  0  0
  2 12  2  0  0  0  0
  3 10  1  0  0  0  0
  4 10  2  0  0  0  0
  5  1  1  0  0  0  0
  5  6  2  0  0  0  0
  7  4  1  1  0  0  0
  8 11  1  6  0  0  0
  8  7  1  0  0  0  0
  9  6  1  6  0  0  0
  9  8  1  0  0  0  0
  9  2  1  0  0  0  0
  9  7  1  0  0  0  0
 10 26  1  0  0  0  0
 12  3  1  0  0  0  0
 13 14  1  0  0  0  0
 13 19  1  0  0  0  0
 14 15  1  0  0  0  0
 15 17  1  0  0  0  0
 16 17  1  0  0  0  0
 17 18  2  0  0  0  0
 18  6  1  0  0  0  0
 19 16  2  0  0  0  0
 21 20  2  0  0  0  0
 22 21  1  0  0  0  0
 22  1  2  0  0  0  0
 23 21  1  0  0  0  0
 24 25  1  0  0  0  0
 25 23  1  0  0  0  0
 26 28  1  0  0  0  0
 26 27  2  0  0  0  0
 29 28  1  0  0  0  0
 30 29  1  1  0  0  0
 31 32  1  0  0  0  0
 31 30  1  0  0  0  0
 32 30  1  0  0  0  0
M  END
>  <MODEL>
7

>  <REMARK>
 VINA RESULT:      -7.3      3.594      7.894
  Name = 
  8 active torsions:
  status: ('A' for Active; 'I' for Inactive)
    1  A    between atoms: C_1  and  N_28
    2  A    between atoms: C_3  and  C_13
    3  A    between atoms: C_5  and  C_9
    4  A    between atoms: C_8  and  O_10
    5  A    between atoms: C_8  and  C_25
    6  A    between atoms: C_9  and  C_27
    7  A    between atoms: O_10  and  C_13
    8  A    between atoms: C_18  and  C_20
                            x       y       z     vdW  Elec       q    Type
                         _______ _______ _______ _____ _____    ______ ____

>  <TORSDO>
F 8

$$$$
=
 OpenBabel10232408163D

 32 37  0  0  1  0  0  0  0  0999 V2000
  189.2870  177.3650  141.6370 C   0  0  0  0  0  0  0  0  0  0  0  0
  188.8030  177.9480  137.7310 C   0  0  0  0  0  0  0  0  0  0  0  0
  187.5210  177.3160  135.8620 C   0  0  0  0  0  2  0  0  0  0  0  0
  186.3590  177.8440  138.0100 C   0  0  0  0  0  3  0  0  0  0  0  0
  190.3920  176.9120  140.7450 C   0  0  0  0  0  3  0  0  0  0  0  0
  190.4610  177.2620  139.4410 C   0  0  0  0  0  0  0  0  0  0  0  0
  187.6290  178.0850  138.5040 C   0  0  1  0  0  0  0  0  0  0  0  0
  188.3770  178.3790  139.7270 N   0  0  0  0  0  0  0  0  0  0  0  0
  189.5310  178.3320  138.9020 C   0  0  2  0  0  0  0  0  0  0  0  0
  186.3230  177.4430  136.6450 C   0  0  0  0  0  0  0  0  0  0  0  0
  188.2610  178.0530  141.1070 C   0  0  0  0  0  3  0  0  0  0  0  0
  188.8080  177.5770  136.3990 C   0  0  0  0  0  3  0  0  0  0  0  0
  191.8190  173.3750  136.2880 C   0  0  0  0  0  2  0  0  0  0  0  0
  190.4590  174.0370  136.5230 C   0  0  0  0  0  2  0  0  0  0  0  0
  190.4710  174.7790  137.8600 C   0  0  0  0  0  2  0  0  0  0  0  0
  192.8520  175.4090  137.1260 C   0  0  0  0  0  3  0  0  0  0  0  0
  191.6460  175.7210  137.9150 C   0  0  0  0  0  0  0  0  0  0  0  0
  191.6250  176.8410  138.6450 C   0  0  0  0  0  3  0  0  0  0  0  0
  192.9030  174.3570  136.3620 N   0  0  0  0  0  0  0  0  0  0  0  0
  190.4590  178.9190  143.8620 O   0  0  0  0  0  0  0  0  0  0  0  0
  189.9790  177.7730  144.0750 C   0  0  0  0  0  0  0  0  0  0  0  0
  189.3410  177.0250  143.0300 N   0  0  0  0  0  2  0  0  0  0  0  0
  190.1360  177.1370  145.4200 C   0  0  0  0  0  2  0  0  0  0  0  0
  191.8630  176.7290  147.1080 N   0  0  0  0  0  1  0  0  0  0  0  0
  191.5690  176.6820  145.6830 C   0  0  0  0  0  2  0  0  0  0  0  0
  185.0280  177.2030  136.0090 C   0  0  0  0  0  0  0  0  0  0  0  0
  184.9760  176.9040  134.7810 O   0  0  0  0  0  0  0  0  0  0  0  0
  183.8600  177.3280  136.7660 O   0  0  0  0  0  0  0  0  0  0  0  0
  182.9760  176.2320  136.9730 C   0  0  0  0  0  2  0  0  0  0  0  0
  183.2110  175.6360  138.3490 C   0  0  2  0  0  3  0  0  0  0  0  0
  182.0040  175.7790  139.1910 C   0  0  0  0  0  2  0  0  0  0  0  0
  183.0970  176.6560  139.3140 O   0  0  0  0  0  0  0  0  0  0  0  0
  1 22  1  0  0  0  0
  2  7  1  0  0  0  0
  3 12  1  0  0  0  0
  3 10  1  0  0  0  0
  5  1  1  0  0  0  0
  6  5  2  0  0  0  0
  7  4  1  6  0  0  0
  7  9  1  0  0  0  0
  7  8  1  0  0  0  0
  8 11  1  0  0  0  0
  9  2  1  6  0  0  0
  9  6  1  0  0  0  0
  9  8  1  0  0  0  0
 10  4  2  0  0  0  0
 11  1  2  0  0  0  0
 12  2  2  0  0  0  0
 13 19  1  0  0  0  0
 13 14  1  0  0  0  0
 14 15  1  0  0  0  0
 15 17  1  0  0  0  0
 16 17  1  0  0  0  0
 17 18  2  0  0  0  0
 18  6  1  0  0  0  0
 19 16  2  0  0  0  0
 20 21  2  0  0  0  0
 21 23  1  0  0  0  0
 22 21  1  0  0  0  0
 23 25  1  0  0  0  0
 25 24  1  0  0  0  0
 26 10  1  0  0  0  0
 26 28  1  0  0  0  0
 27 26  2  0  0  0  0
 28 29  1  0  0  0  0
 30 29  1  6  0  0  0
 30 31  1  0  0  0  0
 30 32  1  0  0  0  0
 31 32  1  0  0  0  0
M  END
>  <MODEL>
8

>  <REMARK>
 VINA RESULT:      -7.2      3.733      7.939
  Name = 
  8 active torsions:
  status: ('A' for Active; 'I' for Inactive)
    1  A    between atoms: C_1  and  N_28
    2  A    between atoms: C_3  and  C_13
    3  A    between atoms: C_5  and  C_9
    4  A    between atoms: C_8  and  O_10
    5  A    between atoms: C_8  and  C_25
    6  A    between atoms: C_9  and  C_27
    7  A    between atoms: O_10  and  C_13
    8  A    between atoms: C_18  and  C_20
                            x       y       z     vdW  Elec       q    Type
                         _______ _______ _______ _____ _____    ______ ____

>  <TORSDO>
F 8

$$$$
=
 OpenBabel10232408163D

 32 37  0  0  1  0  0  0  0  0999 V2000
  189.2160  177.2880  141.5570 C   0  0  0  0  0  0  0  0  0  0  0  0
  189.1320  177.9690  137.6380 C   0  0  0  0  0  0  0  0  0  0  0  0
  188.0790  177.3530  135.6260 C   0  0  0  0  0  2  0  0  0  0  0  0
  186.6780  177.7820  137.6500 C   0  0  0  0  0  3  0  0  0  0  0  0
  190.4250  176.8960  140.7780 C   0  0  0  0  0  3  0  0  0  0  0  0
  190.6200  177.2860  139.4980 C   0  0  0  0  0  0  0  0  0  0  0  0
  187.8790  178.0480  138.2830 C   0  0  1  0  0  0  0  0  0  0  0  0
  188.4810  178.3290  139.5860 N   0  0  0  0  0  0  0  0  0  0  0  0
  189.7180  178.3420  138.8900 C   0  0  2  0  0  0  0  0  0  0  0  0
  186.8010  177.4200  136.2790 C   0  0  0  0  0  0  0  0  0  0  0  0
  188.2300  177.9600  140.9370 C   0  0  0  0  0  3  0  0  0  0  0  0
  189.2920  177.6380  136.3050 C   0  0  0  0  0  3  0  0  0  0  0  0
  192.4430  173.5270  136.4260 C   0  0  0  0  0  2  0  0  0  0  0  0
  191.0430  174.1360  136.5290 C   0  0  0  0  0  2  0  0  0  0  0  0
  190.8880  174.8450  137.8750 C   0  0  0  0  0  2  0  0  0  0  0  0
  193.3080  175.5730  137.4120 C   0  0  0  0  0  3  0  0  0  0  0  0
  192.0150  175.8250  138.0750 C   0  0  0  0  0  0  0  0  0  0  0  0
  191.8760  176.9240  138.8210 C   0  0  0  0  0  3  0  0  0  0  0  0
  193.4770  174.5420  136.6350 N   0  0  0  0  0  0  0  0  0  0  0  0
  190.2440  178.7340  143.9220 O   0  0  0  0  0  0  0  0  0  0  0  0
  189.7040  177.6030  144.0580 C   0  0  0  0  0  0  0  0  0  0  0  0
  189.1330  176.9100  142.9380 N   0  0  0  0  0  2  0  0  0  0  0  0
  189.7150  176.9260  145.3920 C   0  0  0  0  0  2  0  0  0  0  0  0
  187.4840  177.7640  145.9570 N   0  0  0  0  0  1  0  0  0  0  0  0
  188.8600  177.6610  146.4210 C   0  0  0  0  0  2  0  0  0  0  0  0
  185.5900  177.1580  135.5010 C   0  0  0  0  0  0  0  0  0  0  0  0
  185.4630  177.6600  134.3470 O   0  0  0  0  0  0  0  0  0  0  0  0
  184.5780  176.3710  136.0560 O   0  0  0  0  0  0  0  0  0  0  0  0
  184.6080  174.9500  135.9910 C   0  0  0  0  0  2  0  0  0  0  0  0
  184.5470  174.3710  137.3940 C   0  0  2  0  0  3  0  0  0  0  0  0
  185.2940  173.0970  137.4630 C   0  0  0  0  0  2  0  0  0  0  0  0
  183.8920  173.1250  137.3450 O   0  0  0  0  0  0  0  0  0  0  0  0
  1 22  1  0  0  0  0
  2  7  1  0  0  0  0
  3 10  1  0  0  0  0
  3 12  1  0  0  0  0
  5  1  1  0  0  0  0
  6  5  2  0  0  0  0
  7  4  1  6  0  0  0
  7  9  1  0  0  0  0
  7  8  1  0  0  0  0
  8 11  1  0  0  0  0
  9  2  1  6  0  0  0
  9  6  1  0  0  0  0
  9  8  1  0  0  0  0
 10  4  2  0  0  0  0
 11  1  2  0  0  0  0
 12  2  2  0  0  0  0
 13 14  1  0  0  0  0
 13 19  1  0  0  0  0
 14 15  1  0  0  0  0
 15 17  1  0  0  0  0
 16 17  1  0  0  0  0
 17 18  2  0  0  0  0
 18  6  1  0  0  0  0
 19 16  2  0  0  0  0
 20 21  2  0  0  0  0
 21 23  1  0  0  0  0
 22 21  1  0  0  0  0
 23 25  1  0  0  0  0
 24 25  1  0  0  0  0
 26 28  1  0  0  0  0
 26 10  1  0  0  0  0
 27 26  2  0  0  0  0
 29 28  1  0  0  0  0
 30 29  1  6  0  0  0
 30 31  1  0  0  0  0
 32 30  1  0  0  0  0
 32 31  1  0  0  0  0
M  END
>  <MODEL>
9

>  <REMARK>
 VINA RESULT:      -7.0      3.769      7.317
  Name = 
  8 active torsions:
  status: ('A' for Active; 'I' for Inactive)
    1  A    between atoms: C_1  and  N_28
    2  A    between atoms: C_3  and  C_13
    3  A    between atoms: C_5  and  C_9
    4  A    between atoms: C_8  and  O_10
    5  A    between atoms: C_8  and  C_25
    6  A    between atoms: C_9  and  C_27
    7  A    between atoms: O_10  and  C_13
    8  A    between atoms: C_18  and  C_20
                            x       y       z     vdW  Elec       q    Type
                         _______ _______ _______ _____ _____    ______ ____

>  <TORSDO>
F 8

$$$$
