=
 OpenBabel10232410293D

 43 48  0  0  1  0  0  0  0  0999 V2000
  186.0010  178.2940  144.2220 C   0  0  0  0  0  0  0  0  0  0  0  0
  183.8290  179.5070  139.4890 O   0  0  0  0  0  0  0  0  0  0  0  0
  184.2200  178.5700  142.5490 C   0  0  0  0  0  0  0  0  0  0  0  0
  186.5860  178.1370  141.6570 C   0  0  2  0  0  3  0  0  0  0  0  0
  186.3190  178.3380  147.4050 N   0  0  0  0  0  0  0  0  0  0  0  0
  186.0710  178.7170  140.4070 N   0  0  0  0  0  0  0  0  0  0  0  0
  187.6500  178.0160  146.9190 C   0  0  0  0  0  2  0  0  0  0  0  0
  185.2460  178.5970  146.7170 C   0  0  0  0  0  3  0  0  0  0  0  0
  183.7180  178.3020  141.1560 C   0  0  1  0  0  3  0  0  0  0  0  0
  185.6050  178.3730  142.8500 C   0  0  0  0  0  0  0  0  0  0  0  0
  182.8750  179.2770  140.5170 C   0  0  2  0  0  3  0  0  0  0  0  0
  184.7920  178.7840  140.2780 C   0  0  0  0  0  0  0  0  0  0  0  0
  183.3030  178.8130  143.5640 C   0  0  0  0  0  3  0  0  0  0  0  0
  187.4240  177.9280  144.5320 C   0  0  0  0  0  2  0  0  0  0  0  0
  183.7210  178.8510  144.8850 C   0  0  0  0  0  3  0  0  0  0  0  0
  187.5850  177.0650  145.7550 C   0  0  0  0  0  2  0  0  0  0  0  0
  185.0450  178.5950  145.2440 C   0  0  0  0  0  0  0  0  0  0  0  0
  187.9640  178.7420  141.8820 C   0  0  0  0  0  2  0  0  0  0  0  0
  188.7910  178.4650  140.7920 O   0  0  0  0  0  0  0  0  0  0  0  0
  189.6780  177.4850  141.2560 C   0  0  1  0  0  3  0  0  0  0  0  0
  190.5490  176.9270  140.1280 C   0  0  0  0  0  2  0  0  0  0  0  0
  189.8010  176.7710  138.8400 C   0  0  0  0  0  3  0  0  0  0  0  0
  190.1020  175.8520  137.9770 N   0  0  0  0  0  0  0  0  0  0  0  0
  192.4010  175.0830  137.5470 C   0  0  0  0  0  0  0  0  0  0  0  0
  192.6130  176.0560  136.7740 O   0  0  0  0  0  0  0  0  0  0  0  0
  193.3980  174.1400  137.7610 O   0  0  0  0  0  1  0  0  0  0  0  0
  191.1430  174.9420  138.2030 N   0  0  0  0  0  2  0  0  0  0  0  0
  190.4850  177.9780  142.4570 C   0  0  0  0  0  2  0  0  0  0  0  0
  190.7590  176.8700  143.4670 C   0  0  0  0  0  2  0  0  0  0  0  0
  191.1940  177.4570  144.7960 C   0  0  0  0  0  2  0  0  0  0  0  0
  191.5440  176.3500  145.7750 C   0  0  0  0  0  2  0  0  0  0  0  0
  191.8640  176.9090  147.0120 O   0  0  0  0  0  0  0  0  0  0  0  0
  192.3670  175.8430  147.7580 C   0  0  0  0  0  1  0  0  0  0  0  0
  181.6010  178.6520  139.9490 C   0  0  0  0  0  2  0  0  0  0  0  0
  181.7760  178.2400  138.6220 O   0  0  0  0  0  0  0  0  0  0  0  0
  181.8000  176.8420  138.6760 C   0  0  2  0  0  3  0  0  0  0  0  0
  183.7450  177.0680  137.1410 C   0  0  1  0  0  3  0  0  0  0  0  0
  182.4790  176.2840  137.4350 C   0  0  1  0  0  3  0  0  0  0  0  0
  183.8390  175.7150  137.8000 C   0  0  1  0  0  3  0  0  0  0  0  0
  184.8280  176.0950  136.7150 C   0  0  0  0  0  2  0  0  0  0  0  0
  180.3810  176.2900  138.8010 C   0  0  0  0  0  3  0  0  0  0  0  0
  179.9830  175.7210  137.5910 O   0  0  0  0  0  1  0  0  0  0  0  0
  180.3100  175.3300  139.8140 O   0  0  0  0  0  1  0  0  0  0  0  0
  1 14  1  0  0  0  0
  1 17  1  0  0  0  0
  2 12  1  0  0  0  0
  2 11  1  0  0  0  0
  3 10  1  0  0  0  0
  3 13  2  0  0  0  0
  4 18  1  1  0  0  0
  4 10  1  0  0  0  0
  6  4  1  0  0  0  0
  7  5  1  0  0  0  0
  8  5  2  0  0  0  0
  9 12  1  6  0  0  0
  9  3  1  0  0  0  0
 10  1  2  0  0  0  0
 11 34  1  6  0  0  0
 11  9  1  0  0  0  0
 12  6  2  0  0  0  0
 13 15  1  0  0  0  0
 14 16  1  0  0  0  0
 15 17  2  0  0  0  0
 16  7  1  0  0  0  0
 17  8  1  0  0  0  0
 19 20  1  0  0  0  0
 19 18  1  0  0  0  0
 20 21  1  6  0  0  0
 20 28  1  0  0  0  0
 22 21  1  0  0  0  0
 23 27  1  0  0  0  0
 23 22  2  0  0  0  0
 24 26  1  0  0  0  0
 24 27  1  0  0  0  0
 25 24  2  0  0  0  0
 28 29  1  0  0  0  0
 29 30  1  0  0  0  0
 30 31  1  0  0  0  0
 31 32  1  0  0  0  0
 32 33  1  0  0  0  0
 35 34  1  0  0  0  0
 36 35  1  6  0  0  0
 36 41  1  0  0  0  0
 37 40  1  6  0  0  0
 37 38  1  0  0  0  0
 37 39  1  0  0  0  0
 38 39  1  0  0  0  0
 38 36  1  1  0  0  0
 39 40  1  6  0  0  0
 41 43  1  0  0  0  0
 42 41  1  0  0  0  0
M  END
>  <MODEL>
1

>  <REMARK>
 VINA RESULT:      -7.8      0.000      0.000
  Name = 
  16 active torsions:
  status: ('A' for Active; 'I' for Inactive)
    1  A    between atoms: C_1  and  C_11
    2  A    between atoms: C_1  and  O_30
    3  A    between atoms: O_2  and  C_3
    4  A    between atoms: O_2  and  C_4
    5  A    between atoms: C_3  and  C_27
    6  A    between atoms: C_4  and  C_15
    7  A    between atoms: C_4  and  C_23
    8  A    between atoms: C_6  and  C_25
    9  A    between atoms: C_6  and  C_43
   10  A    between atoms: C_7  and  C_20
   11  A    between atoms: C_7  and  C_25
   12  A    between atoms: O_17  and  C_22
   13  A    between atoms: C_22  and  C_39
   14  A    between atoms: C_25  and  O_30
   15  A    between atoms: N_37  and  N_42
   16  A    between atoms: C_39  and  C_43
                            x       y       z     vdW  Elec       q    Type
                         _______ _______ _______ _____ _____    ______ ____

>  <TORSDO>
F 16

$$$$
=
 OpenBabel10232410293D

 43 48  0  0  1  0  0  0  0  0999 V2000
  186.6750  178.1500  144.8020 C   0  0  0  0  0  0  0  0  0  0  0  0
  184.4170  179.3760  140.1120 O   0  0  0  0  0  0  0  0  0  0  0  0
  184.8560  178.4940  143.1830 C   0  0  0  0  0  0  0  0  0  0  0  0
  187.1590  177.8920  142.2230 C   0  0  2  0  0  3  0  0  0  0  0  0
  187.1070  178.2540  147.9700 N   0  0  0  0  0  0  0  0  0  0  0  0
  186.6370  178.4710  140.9760 N   0  0  0  0  0  0  0  0  0  0  0  0
  188.3980  177.8380  147.4480 C   0  0  0  0  0  2  0  0  0  0  0  0
  186.0280  178.5620  147.3110 C   0  0  0  0  0  3  0  0  0  0  0  0
  184.2910  178.2220  141.8150 C   0  0  1  0  0  3  0  0  0  0  0  0
  186.2370  178.2190  143.4410 C   0  0  0  0  0  0  0  0  0  0  0  0
  183.4870  179.2320  141.1780 C   0  0  2  0  0  3  0  0  0  0  0  0
  185.3610  178.6140  140.8890 C   0  0  0  0  0  0  0  0  0  0  0  0
  183.9930  178.8180  144.2200 C   0  0  0  0  0  3  0  0  0  0  0  0
  188.0830  177.7040  145.0740 C   0  0  0  0  0  2  0  0  0  0  0  0
  184.4580  178.8640  145.5250 C   0  0  0  0  0  3  0  0  0  0  0  0
  188.2340  176.8640  146.3130 C   0  0  0  0  0  2  0  0  0  0  0  0
  185.7760  178.5350  145.8460 C   0  0  0  0  0  0  0  0  0  0  0  0
  188.5790  178.4150  142.3860 C   0  0  0  0  0  2  0  0  0  0  0  0
  189.1930  178.5240  141.1370 O   0  0  0  0  0  0  0  0  0  0  0  0
  190.4410  177.9090  141.2980 C   0  0  1  0  0  3  0  0  0  0  0  0
  190.7610  177.6480  142.7710 C   0  0  0  0  0  2  0  0  0  0  0  0
  191.3550  176.2930  143.0040 C   0  0  0  0  0  3  0  0  0  0  0  0
  191.7460  175.9060  144.1770 N   0  0  0  0  0  0  0  0  0  0  0  0
  191.9440  176.2520  146.6070 C   0  0  0  0  0  0  0  0  0  0  0  0
  192.3720  175.0770  146.7680 O   0  0  0  0  0  0  0  0  0  0  0  0
  191.7770  177.0840  147.7060 O   0  0  0  0  0  1  0  0  0  0  0  0
  191.6290  176.7330  145.3020 N   0  0  0  0  0  2  0  0  0  0  0  0
  190.5730  176.6640  140.4200 C   0  0  0  0  0  2  0  0  0  0  0  0
  190.5390  176.9950  138.9320 C   0  0  0  0  0  2  0  0  0  0  0  0
  189.4670  176.1840  138.2310 C   0  0  0  0  0  2  0  0  0  0  0  0
  188.2140  177.0190  138.0360 C   0  0  0  0  0  2  0  0  0  0  0  0
  188.0320  177.2720  136.6770 O   0  0  0  0  0  0  0  0  0  0  0  0
  187.3500  178.4880  136.6350 C   0  0  0  0  0  1  0  0  0  0  0  0
  182.1580  178.6730  140.6700 C   0  0  0  0  0  2  0  0  0  0  0  0
  182.1850  178.4560  139.2870 O   0  0  0  0  0  0  0  0  0  0  0  0
  182.0430  177.0720  139.1340 C   0  0  2  0  0  3  0  0  0  0  0  0
  184.0830  176.8680  137.7250 C   0  0  1  0  0  3  0  0  0  0  0  0
  182.5840  176.6400  137.7800 C   0  0  1  0  0  3  0  0  0  0  0  0
  183.5470  175.4780  137.9540 C   0  0  1  0  0  3  0  0  0  0  0  0
  184.7270  175.6860  137.0250 C   0  0  0  0  0  2  0  0  0  0  0  0
  180.5770  176.6690  139.2750 C   0  0  0  0  0  3  0  0  0  0  0  0
  180.0140  176.4670  138.0150 O   0  0  0  0  0  1  0  0  0  0  0  0
  180.4550  175.5020  140.0330 O   0  0  0  0  0  1  0  0  0  0  0  0
  1 14  1  0  0  0  0
  1 17  1  0  0  0  0
  2 12  1  0  0  0  0
  2 11  1  0  0  0  0
  3 10  1  0  0  0  0
  3 13  2  0  0  0  0
  4 18  1  1  0  0  0
  4 10  1  0  0  0  0
  6  4  1  0  0  0  0
  7  5  1  0  0  0  0
  8  5  2  0  0  0  0
  9 12  1  6  0  0  0
  9  3  1  0  0  0  0
 10  1  2  0  0  0  0
 11 34  1  6  0  0  0
 11  9  1  0  0  0  0
 12  6  2  0  0  0  0
 13 15  1  0  0  0  0
 14 16  1  0  0  0  0
 15 17  2  0  0  0  0
 16  7  1  0  0  0  0
 17  8  1  0  0  0  0
 19 20  1  0  0  0  0
 19 18  1  0  0  0  0
 20 28  1  6  0  0  0
 20 21  1  0  0  0  0
 21 22  1  0  0  0  0
 22 23  2  0  0  0  0
 23 27  1  0  0  0  0
 24 25  2  0  0  0  0
 24 26  1  0  0  0  0
 27 24  1  0  0  0  0
 29 28  1  0  0  0  0
 30 29  1  0  0  0  0
 31 30  1  0  0  0  0
 32 31  1  0  0  0  0
 33 32  1  0  0  0  0
 35 34  1  0  0  0  0
 36 41  1  6  0  0  0
 36 35  1  0  0  0  0
 37 40  1  6  0  0  0
 37 38  1  0  0  0  0
 37 39  1  0  0  0  0
 38 39  1  0  0  0  0
 38 36  1  1  0  0  0
 39 40  1  6  0  0  0
 41 43  1  0  0  0  0
 42 41  1  0  0  0  0
M  END
>  <MODEL>
2

>  <REMARK>
 VINA RESULT:      -7.7      1.954      4.473
  Name = 
  16 active torsions:
  status: ('A' for Active; 'I' for Inactive)
    1  A    between atoms: C_1  and  C_11
    2  A    between atoms: C_1  and  O_30
    3  A    between atoms: O_2  and  C_3
    4  A    between atoms: O_2  and  C_4
    5  A    between atoms: C_3  and  C_27
    6  A    between atoms: C_4  and  C_15
    7  A    between atoms: C_4  and  C_23
    8  A    between atoms: C_6  and  C_25
    9  A    between atoms: C_6  and  C_43
   10  A    between atoms: C_7  and  C_20
   11  A    between atoms: C_7  and  C_25
   12  A    between atoms: O_17  and  C_22
   13  A    between atoms: C_22  and  C_39
   14  A    between atoms: C_25  and  O_30
   15  A    between atoms: N_37  and  N_42
   16  A    between atoms: C_39  and  C_43
                            x       y       z     vdW  Elec       q    Type
                         _______ _______ _______ _____ _____    ______ ____

>  <TORSDO>
F 16

$$$$
=
 OpenBabel10232410293D

 43 48  0  0  1  0  0  0  0  0999 V2000
  186.0450  178.3740  141.0640 C   0  0  0  0  0  0  0  0  0  0  0  0
  191.0540  176.8400  142.1390 O   0  0  0  0  0  0  0  0  0  0  0  0
  188.0680  178.0240  142.4180 C   0  0  0  0  0  0  0  0  0  0  0  0
  188.4030  178.2830  139.8880 C   0  0  2  0  0  3  0  0  0  0  0  0
  182.8840  178.5960  141.5000 N   0  0  0  0  0  0  0  0  0  0  0  0
  189.6920  177.6170  140.1300 N   0  0  0  0  0  0  0  0  0  0  0  0
  183.0630  178.8200  140.0750 C   0  0  0  0  0  2  0  0  0  0  0  0
  183.7850  178.3210  142.3960 C   0  0  0  0  0  3  0  0  0  0  0  0
  189.5560  178.1900  142.5640 C   0  0  1  0  0  3  0  0  0  0  0  0
  187.4630  178.1920  141.1320 C   0  0  0  0  0  0  0  0  0  0  0  0
  190.3020  177.1970  143.2910 C   0  0  2  0  0  3  0  0  0  0  0  0
  190.1150  177.5910  141.3450 C   0  0  0  0  0  0  0  0  0  0  0  0
  187.2840  177.9080  143.5590 C   0  0  0  0  0  3  0  0  0  0  0  0
  185.4350  178.7090  139.7330 C   0  0  0  0  0  2  0  0  0  0  0  0
  185.9030  177.9690  143.4640 C   0  0  0  0  0  3  0  0  0  0  0  0
  184.2780  179.6680  139.8100 C   0  0  0  0  0  2  0  0  0  0  0  0
  185.2610  178.2030  142.2470 C   0  0  0  0  0  0  0  0  0  0  0  0
  187.8110  177.6460  138.6380 C   0  0  0  0  0  2  0  0  0  0  0  0
  188.6500  177.8700  137.5450 O   0  0  0  0  0  0  0  0  0  0  0  0
  188.3920  176.8070  136.6720 C   0  0  1  0  0  3  0  0  0  0  0  0
  189.6460  175.9730  136.4030 C   0  0  0  0  0  2  0  0  0  0  0  0
  189.9330  174.9900  137.4960 C   0  0  0  0  0  3  0  0  0  0  0  0
  191.1430  174.6590  137.8230 N   0  0  0  0  0  0  0  0  0  0  0  0
  192.9940  176.2810  137.7630 C   0  0  0  0  0  0  0  0  0  0  0  0
  192.6760  176.7300  138.8970 O   0  0  0  0  0  1  0  0  0  0  0  0
  194.0690  176.8330  137.0780 O   0  0  0  0  0  0  0  0  0  0  0  0
  192.2570  175.2100  137.1770 N   0  0  0  0  0  2  0  0  0  0  0  0
  187.1980  175.9720  137.1370 C   0  0  0  0  0  2  0  0  0  0  0  0
  186.1720  175.7570  136.0310 C   0  0  0  0  0  2  0  0  0  0  0  0
  185.2940  174.5610  136.3440 C   0  0  0  0  0  2  0  0  0  0  0  0
  185.9740  173.6540  137.3550 C   0  0  0  0  0  2  0  0  0  0  0  0
  185.0130  172.8860  138.0100 O   0  0  0  0  0  0  0  0  0  0  0  0
  184.3730  172.1820  136.9910 C   0  0  0  0  0  1  0  0  0  0  0  0
  191.2020  177.8200  144.3580 C   0  0  0  0  0  2  0  0  0  0  0  0
  190.5080  178.0400  145.5540 O   0  0  0  0  0  0  0  0  0  0  0  0
  190.5240  176.8060  146.2150 C   0  0  2  0  0  3  0  0  0  0  0  0
  189.0150  178.2440  147.5740 C   0  0  1  0  0  3  0  0  0  0  0  0
  189.6310  176.8630  147.4450 C   0  0  1  0  0  3  0  0  0  0  0  0
  188.1910  177.1070  147.0280 C   0  0  1  0  0  3  0  0  0  0  0  0
  187.5670  178.0910  147.9990 C   0  0  0  0  0  2  0  0  0  0  0  0
  191.9510  176.4330  146.6090 C   0  0  0  0  0  3  0  0  0  0  0  0
  192.1600  176.7100  147.9600 O   0  0  0  0  0  1  0  0  0  0  0  0
  192.1940  175.0790  146.3670 O   0  0  0  0  0  1  0  0  0  0  0  0
  1 10  2  0  0  0  0
  1 17  1  0  0  0  0
  2 11  1  0  0  0  0
  3  9  1  0  0  0  0
  3 13  2  0  0  0  0
  4 18  1  6  0  0  0
  4  6  1  0  0  0  0
  4 10  1  0  0  0  0
  5  8  2  0  0  0  0
  6 12  2  0  0  0  0
  7  5  1  0  0  0  0
  9 12  1  6  0  0  0
  9 11  1  0  0  0  0
 10  3  1  0  0  0  0
 11 34  1  1  0  0  0
 12  2  1  0  0  0  0
 14 16  1  0  0  0  0
 14  1  1  0  0  0  0
 15 13  1  0  0  0  0
 16  7  1  0  0  0  0
 17  8  1  0  0  0  0
 17 15  2  0  0  0  0
 19 18  1  0  0  0  0
 20 21  1  1  0  0  0
 20 28  1  0  0  0  0
 20 19  1  0  0  0  0
 21 22  1  0  0  0  0
 22 23  2  0  0  0  0
 24 25  1  0  0  0  0
 26 24  2  0  0  0  0
 27 24  1  0  0  0  0
 27 23  1  0  0  0  0
 29 30  1  0  0  0  0
 29 28  1  0  0  0  0
 30 31  1  0  0  0  0
 31 32  1  0  0  0  0
 33 32  1  0  0  0  0
 34 35  1  0  0  0  0
 36 35  1  1  0  0  0
 36 41  1  0  0  0  0
 37 40  1  1  0  0  0
 38 36  1  6  0  0  0
 38 37  1  0  0  0  0
 39 38  1  0  0  0  0
 39 37  1  0  0  0  0
 39 40  1  1  0  0  0
 41 42  1  0  0  0  0
 43 41  1  0  0  0  0
M  END
>  <MODEL>
3

>  <REMARK>
 VINA RESULT:      -7.7      2.699      8.086
  Name = 
  16 active torsions:
  status: ('A' for Active; 'I' for Inactive)
    1  A    between atoms: C_1  and  C_11
    2  A    between atoms: C_1  and  O_30
    3  A    between atoms: O_2  and  C_3
    4  A    between atoms: O_2  and  C_4
    5  A    between atoms: C_3  and  C_27
    6  A    between atoms: C_4  and  C_15
    7  A    between atoms: C_4  and  C_23
    8  A    between atoms: C_6  and  C_25
    9  A    between atoms: C_6  and  C_43
   10  A    between atoms: C_7  and  C_20
   11  A    between atoms: C_7  and  C_25
   12  A    between atoms: O_17  and  C_22
   13  A    between atoms: C_22  and  C_39
   14  A    between atoms: C_25  and  O_30
   15  A    between atoms: N_37  and  N_42
   16  A    between atoms: C_39  and  C_43
                            x       y       z     vdW  Elec       q    Type
                         _______ _______ _______ _____ _____    ______ ____

>  <TORSDO>
F 16

$$$$
=
 OpenBabel10232410293D

 43 48  0  0  1  0  0  0  0  0999 V2000
  186.4960  178.2260  141.4990 C   0  0  0  0  0  0  0  0  0  0  0  0
  191.4710  176.5980  142.5940 O   0  0  0  0  0  0  0  0  0  0  0  0
  188.4980  177.8160  142.8680 C   0  0  0  0  0  0  0  0  0  0  0  0
  188.8660  178.1310  140.3480 C   0  0  2  0  0  3  0  0  0  0  0  0
  183.3330  178.4810  141.9040 N   0  0  0  0  0  0  0  0  0  0  0  0
  190.1430  177.4420  140.5900 N   0  0  0  0  0  0  0  0  0  0  0  0
  183.5320  178.7370  140.4870 C   0  0  0  0  0  2  0  0  0  0  0  0
  184.2200  178.1720  142.8040 C   0  0  0  0  0  3  0  0  0  0  0  0
  189.9870  177.9580  143.0340 C   0  0  1  0  0  3  0  0  0  0  0  0
  187.9100  178.0230  141.5790 C   0  0  0  0  0  0  0  0  0  0  0  0
  190.7100  176.9380  143.7460 C   0  0  2  0  0  3  0  0  0  0  0  0
  190.5510  177.3800  141.8080 C   0  0  0  0  0  0  0  0  0  0  0  0
  187.6990  177.6840  143.9960 C   0  0  0  0  0  3  0  0  0  0  0  0
  185.9060  178.6020  140.1700 C   0  0  0  0  0  2  0  0  0  0  0  0
  186.3200  177.7660  143.8870 C   0  0  0  0  0  3  0  0  0  0  0  0
  184.7610  179.5740  140.2570 C   0  0  0  0  0  2  0  0  0  0  0  0
  185.6950  178.0370  142.6690 C   0  0  0  0  0  0  0  0  0  0  0  0
  188.2810  177.5320  139.0770 C   0  0  0  0  0  2  0  0  0  0  0  0
  188.4740  178.4060  138.0050 O   0  0  0  0  0  0  0  0  0  0  0  0
  188.8720  177.5860  136.9430 C   0  0  1  0  0  3  0  0  0  0  0  0
  189.0880  176.1390  137.3910 C   0  0  0  0  0  2  0  0  0  0  0  0
  190.0970  175.4160  136.5520 C   0  0  0  0  0  3  0  0  0  0  0  0
  191.3360  175.3010  136.9150 N   0  0  0  0  0  0  0  0  0  0  0  0
  193.0450  176.5380  138.1840 C   0  0  0  0  0  0  0  0  0  0  0  0
  193.7300  176.7180  137.1420 O   0  0  0  0  0  0  0  0  0  0  0  0
  193.5000  177.0230  139.4040 O   0  0  0  0  0  1  0  0  0  0  0  0
  191.8040  175.8390  138.1210 N   0  0  0  0  0  2  0  0  0  0  0  0
  187.9290  177.7140  135.7460 C   0  0  0  0  0  2  0  0  0  0  0  0
  186.4620  177.7340  136.1610 C   0  0  0  0  0  2  0  0  0  0  0  0
  185.7950  176.4160  135.8190 C   0  0  0  0  0  2  0  0  0  0  0  0
  185.2510  175.7560  137.0750 C   0  0  0  0  0  2  0  0  0  0  0  0
  184.2920  176.5840  137.6550 O   0  0  0  0  0  0  0  0  0  0  0  0
  183.3150  175.7080  138.1300 C   0  0  0  0  0  1  0  0  0  0  0  0
  191.6060  177.5230  144.8380 C   0  0  0  0  0  2  0  0  0  0  0  0
  190.8530  178.0540  145.8920 O   0  0  0  0  0  0  0  0  0  0  0  0
  190.5640  176.9620  146.7180 C   0  0  2  0  0  3  0  0  0  0  0  0
  188.6670  178.4310  147.3780 C   0  0  1  0  0  3  0  0  0  0  0  0
  189.6690  177.4010  147.8670 C   0  0  1  0  0  3  0  0  0  0  0  0
  188.2310  177.0030  147.5850 C   0  0  1  0  0  3  0  0  0  0  0  0
  187.3220  178.1380  148.0160 C   0  0  0  0  0  2  0  0  0  0  0  0
  191.8530  176.3430  147.2530 C   0  0  0  0  0  3  0  0  0  0  0  0
  192.3240  177.0840  148.3370 O   0  0  0  0  0  1  0  0  0  0  0  0
  191.6390  175.0200  147.6500 O   0  0  0  0  0  1  0  0  0  0  0  0
  1 10  2  0  0  0  0
  1 17  1  0  0  0  0
  2 11  1  0  0  0  0
  3  9  1  0  0  0  0
  3 13  2  0  0  0  0
  4 18  1  6  0  0  0
  4  6  1  0  0  0  0
  4 10  1  0  0  0  0
  5  8  2  0  0  0  0
  6 12  2  0  0  0  0
  7  5  1  0  0  0  0
  9 12  1  6  0  0  0
  9 11  1  0  0  0  0
 10  3  1  0  0  0  0
 11 34  1  1  0  0  0
 12  2  1  0  0  0  0
 14 16  1  0  0  0  0
 14  1  1  0  0  0  0
 15 13  1  0  0  0  0
 16  7  1  0  0  0  0
 17  8  1  0  0  0  0
 17 15  2  0  0  0  0
 19 18  1  0  0  0  0
 20 28  1  6  0  0  0
 20 21  1  0  0  0  0
 20 19  1  0  0  0  0
 22 23  2  0  0  0  0
 22 21  1  0  0  0  0
 23 27  1  0  0  0  0
 24 26  1  0  0  0  0
 25 24  2  0  0  0  0
 27 24  1  0  0  0  0
 28 29  1  0  0  0  0
 30 29  1  0  0  0  0
 30 31  1  0  0  0  0
 31 32  1  0  0  0  0
 32 33  1  0  0  0  0
 34 35  1  0  0  0  0
 36 35  1  6  0  0  0
 36 41  1  0  0  0  0
 37 39  1  0  0  0  0
 37 38  1  0  0  0  0
 37 40  1  1  0  0  0
 38 36  1  6  0  0  0
 39 38  1  0  0  0  0
 39 40  1  1  0  0  0
 41 43  1  0  0  0  0
 41 42  1  0  0  0  0
M  END
>  <MODEL>
4

>  <REMARK>
 VINA RESULT:      -7.6      2.146      8.166
  Name = 
  16 active torsions:
  status: ('A' for Active; 'I' for Inactive)
    1  A    between atoms: C_1  and  C_11
    2  A    between atoms: C_1  and  O_30
    3  A    between atoms: O_2  and  C_3
    4  A    between atoms: O_2  and  C_4
    5  A    between atoms: C_3  and  C_27
    6  A    between atoms: C_4  and  C_15
    7  A    between atoms: C_4  and  C_23
    8  A    between atoms: C_6  and  C_25
    9  A    between atoms: C_6  and  C_43
   10  A    between atoms: C_7  and  C_20
   11  A    between atoms: C_7  and  C_25
   12  A    between atoms: O_17  and  C_22
   13  A    between atoms: C_22  and  C_39
   14  A    between atoms: C_25  and  O_30
   15  A    between atoms: N_37  and  N_42
   16  A    between atoms: C_39  and  C_43
                            x       y       z     vdW  Elec       q    Type
                         _______ _______ _______ _____ _____    ______ ____

>  <TORSDO>
F 16

$$$$
=
 OpenBabel10232410293D

 43 48  0  0  1  0  0  0  0  0999 V2000
  189.4490  177.5310  142.6360 C   0  0  0  0  0  0  0  0  0  0  0  0
  187.0680  177.8740  137.8600 O   0  0  0  0  0  0  0  0  0  0  0  0
  189.2930  177.6870  140.1870 C   0  0  0  0  0  0  0  0  0  0  0  0
  187.3360  178.6590  141.5330 C   0  0  2  0  0  3  0  0  0  0  0  0
  191.4680  176.3840  144.8360 N   0  0  0  0  0  0  0  0  0  0  0  0
  186.5820  178.5140  140.2780 N   0  0  0  0  0  0  0  0  0  0  0  0
  190.4060  176.9970  145.6140 C   0  0  0  0  0  2  0  0  0  0  0  0
  191.5670  176.2770  143.5430 C   0  0  0  0  0  3  0  0  0  0  0  0
  188.7200  178.3820  138.9820 C   0  0  1  0  0  3  0  0  0  0  0  0
  188.7050  177.9090  141.4730 C   0  0  0  0  0  0  0  0  0  0  0  0
  188.4640  177.6180  137.7900 C   0  0  2  0  0  3  0  0  0  0  0  0
  187.2680  178.3640  139.2000 C   0  0  0  0  0  0  0  0  0  0  0  0
  190.4940  177.0020  140.0660 C   0  0  0  0  0  3  0  0  0  0  0  0
  188.9020  177.9110  143.9830 C   0  0  0  0  0  2  0  0  0  0  0  0
  191.1470  176.5370  141.1970 C   0  0  0  0  0  3  0  0  0  0  0  0
  189.9550  178.2900  144.9890 C   0  0  0  0  0  2  0  0  0  0  0  0
  190.6600  176.7860  142.4800 C   0  0  0  0  0  0  0  0  0  0  0  0
  186.4260  178.1620  142.6480 C   0  0  0  0  0  2  0  0  0  0  0  0
  185.2900  178.9690  142.7310 O   0  0  0  0  0  0  0  0  0  0  0  0
  184.6490  178.5640  143.9090 C   0  0  1  0  0  3  0  0  0  0  0  0
  185.6280  178.4540  145.0800 C   0  0  0  0  0  2  0  0  0  0  0  0
  184.9380  178.3920  146.4080 C   0  0  0  0  0  3  0  0  0  0  0  0
  185.5630  178.6260  147.5190 N   0  0  0  0  0  0  0  0  0  0  0  0
  187.8560  178.2030  148.3090 C   0  0  0  0  0  0  0  0  0  0  0  0
  187.4770  177.1900  148.9560 O   0  0  0  0  0  1  0  0  0  0  0  0
  189.1910  178.5860  148.3440 O   0  0  0  0  0  0  0  0  0  0  0  0
  186.9240  178.9610  147.5420 N   0  0  0  0  0  2  0  0  0  0  0  0
  183.4320  179.4360  144.2180 C   0  0  0  0  0  2  0  0  0  0  0  0
  182.1170  178.6950  144.0040 C   0  0  0  0  0  2  0  0  0  0  0  0
  181.3020  179.3610  142.9120 C   0  0  0  0  0  2  0  0  0  0  0  0
  181.2840  178.4970  141.6630 C   0  0  0  0  0  2  0  0  0  0  0  0
  182.2820  178.9240  140.7890 O   0  0  0  0  0  0  0  0  0  0  0  0
  182.9770  177.7610  140.4560 C   0  0  0  0  0  1  0  0  0  0  0  0
  189.0750  178.2670  136.5480 C   0  0  0  0  0  2  0  0  0  0  0  0
  189.2770  177.3330  135.5250 O   0  0  0  0  0  0  0  0  0  0  0  0
  189.2910  176.0890  136.1670 C   0  0  2  0  0  3  0  0  0  0  0  0
  191.6710  176.1070  136.8910 C   0  0  1  0  0  3  0  0  0  0  0  0
  190.6510  175.4300  135.9950 C   0  0  1  0  0  3  0  0  0  0  0  0
  191.0810  174.7820  137.2990 C   0  0  1  0  0  3  0  0  0  0  0  0
  192.5620  175.0410  137.5020 C   0  0  0  0  0  2  0  0  0  0  0  0
  188.1890  175.1910  135.6100 C   0  0  0  0  0  3  0  0  0  0  0  0
  187.5490  174.5190  136.6510 O   0  0  0  0  0  1  0  0  0  0  0  0
  187.2530  175.9410  134.8940 O   0  0  0  0  0  1  0  0  0  0  0  0
  1 14  1  0  0  0  0
  2 12  1  0  0  0  0
  3 10  1  0  0  0  0
  4 18  1  1  0  0  0
  5  7  1  0  0  0  0
  6  4  1  0  0  0  0
  8  5  2  0  0  0  0
  9 12  1  1  0  0  0
  9  3  1  0  0  0  0
 10  4  1  0  0  0  0
 10  1  2  0  0  0  0
 11 34  1  6  0  0  0
 11  2  1  0  0  0  0
 11  9  1  0  0  0  0
 12  6  2  0  0  0  0
 13  3  2  0  0  0  0
 13 15  1  0  0  0  0
 14 16  1  0  0  0  0
 15 17  2  0  0  0  0
 16  7  1  0  0  0  0
 17  1  1  0  0  0  0
 17  8  1  0  0  0  0
 18 19  1  0  0  0  0
 19 20  1  0  0  0  0
 20 28  1  1  0  0  0
 20 21  1  0  0  0  0
 21 22  1  0  0  0  0
 22 23  2  0  0  0  0
 23 27  1  0  0  0  0
 24 26  2  0  0  0  0
 24 25  1  0  0  0  0
 27 24  1  0  0  0  0
 29 28  1  0  0  0  0
 30 29  1  0  0  0  0
 31 30  1  0  0  0  0
 32 31  1  0  0  0  0
 33 32  1  0  0  0  0
 35 34  1  0  0  0  0
 36 35  1  6  0  0  0
 37 39  1  0  0  0  0
 37 40  1  6  0  0  0
 38 36  1  1  0  0  0
 38 37  1  0  0  0  0
 38 39  1  0  0  0  0
 39 40  1  6  0  0  0
 41 36  1  0  0  0  0
 41 42  1  0  0  0  0
 43 41  1  0  0  0  0
M  END
>  <MODEL>
5

>  <REMARK>
 VINA RESULT:      -7.5      2.642      7.845
  Name = 
  16 active torsions:
  status: ('A' for Active; 'I' for Inactive)
    1  A    between atoms: C_1  and  C_11
    2  A    between atoms: C_1  and  O_30
    3  A    between atoms: O_2  and  C_3
    4  A    between atoms: O_2  and  C_4
    5  A    between atoms: C_3  and  C_27
    6  A    between atoms: C_4  and  C_15
    7  A    between atoms: C_4  and  C_23
    8  A    between atoms: C_6  and  C_25
    9  A    between atoms: C_6  and  C_43
   10  A    between atoms: C_7  and  C_20
   11  A    between atoms: C_7  and  C_25
   12  A    between atoms: O_17  and  C_22
   13  A    between atoms: C_22  and  C_39
   14  A    between atoms: C_25  and  O_30
   15  A    between atoms: N_37  and  N_42
   16  A    between atoms: C_39  and  C_43
                            x       y       z     vdW  Elec       q    Type
                         _______ _______ _______ _____ _____    ______ ____

>  <TORSDO>
F 16

$$$$
=
 OpenBabel10232410293D

 43 48  0  0  1  0  0  0  0  0999 V2000
  185.0680  178.6420  140.4200 C   0  0  0  0  0  0  0  0  0  0  0  0
  190.0540  177.0010  141.4430 O   0  0  0  0  0  0  0  0  0  0  0  0
  187.1150  178.2970  141.7380 C   0  0  0  0  0  0  0  0  0  0  0  0
  187.3880  178.4110  139.1890 C   0  0  2  0  0  3  0  0  0  0  0  0
  181.9280  178.9910  140.9270 N   0  0  0  0  0  0  0  0  0  0  0  0
  188.6610  177.7160  139.4330 N   0  0  0  0  0  0  0  0  0  0  0  0
  182.0750  179.1340  139.4890 C   0  0  0  0  0  2  0  0  0  0  0  0
  182.8460  178.7330  141.8130 C   0  0  0  0  0  3  0  0  0  0  0  0
  188.6120  178.4200  141.8350 C   0  0  1  0  0  3  0  0  0  0  0  0
  186.4800  178.4160  140.4610 C   0  0  0  0  0  0  0  0  0  0  0  0
  189.3460  177.4430  142.5940 C   0  0  2  0  0  3  0  0  0  0  0  0
  189.1170  177.7400  140.6360 C   0  0  0  0  0  0  0  0  0  0  0  0
  186.3610  178.2660  142.9030 C   0  0  0  0  0  3  0  0  0  0  0  0
  184.4310  178.9260  139.0900 C   0  0  0  0  0  2  0  0  0  0  0  0
  184.9800  178.3680  142.8420 C   0  0  0  0  0  3  0  0  0  0  0  0
  183.3080  179.9260  139.1470 C   0  0  0  0  0  2  0  0  0  0  0  0
  184.3120  178.5590  141.6320 C   0  0  0  0  0  0  0  0  0  0  0  0
  186.7410  177.7290  137.9910 C   0  0  0  0  0  2  0  0  0  0  0  0
  187.4320  176.5560  137.6800 O   0  0  0  0  0  0  0  0  0  0  0  0
  187.5230  176.5560  136.2820 C   0  0  1  0  0  3  0  0  0  0  0  0
  186.2230  177.0300  135.6280 C   0  0  0  0  0  2  0  0  0  0  0  0
  185.5030  175.9310  134.9080 C   0  0  0  0  0  3  0  0  0  0  0  0
  184.3700  175.4620  135.3280 N   0  0  0  0  0  0  0  0  0  0  0  0
  183.7400  175.2210  137.6960 C   0  0  0  0  0  0  0  0  0  0  0  0
  184.3310  174.1100  137.7700 O   0  0  0  0  0  0  0  0  0  0  0  0
  183.0780  175.7270  138.8070 O   0  0  0  0  0  1  0  0  0  0  0  0
  183.7470  175.9630  136.4790 N   0  0  0  0  0  2  0  0  0  0  0  0
  188.7570  177.3170  135.7970 C   0  0  0  0  0  2  0  0  0  0  0  0
  189.8750  176.3840  135.3450 C   0  0  0  0  0  2  0  0  0  0  0  0
  189.6420  174.9810  135.8710 C   0  0  0  0  0  2  0  0  0  0  0  0
  190.7340  174.5950  136.8530 C   0  0  0  0  0  2  0  0  0  0  0  0
  190.4580  175.1580  138.0980 O   0  0  0  0  0  0  0  0  0  0  0  0
  191.6390  175.8040  138.4610 C   0  0  0  0  0  1  0  0  0  0  0  0
  190.2950  178.0910  143.6020 C   0  0  0  0  0  2  0  0  0  0  0  0
  189.6370  178.4150  144.7950 O   0  0  0  0  0  0  0  0  0  0  0  0
  189.7030  177.2530  145.5730 C   0  0  2  0  0  3  0  0  0  0  0  0
  187.6600  178.4210  146.3800 C   0  0  1  0  0  3  0  0  0  0  0  0
  188.6310  177.2870  146.6510 C   0  0  1  0  0  3  0  0  0  0  0  0
  187.2710  177.0060  146.0370 C   0  0  1  0  0  3  0  0  0  0  0  0
  186.2530  177.9350  146.6720 C   0  0  0  0  0  2  0  0  0  0  0  0
  191.0870  177.1120  146.2020 C   0  0  0  0  0  3  0  0  0  0  0  0
  190.9740  177.0330  147.5900 O   0  0  0  0  0  1  0  0  0  0  0  0
  191.7360  175.9720  145.7210 O   0  0  0  0  0  1  0  0  0  0  0  0
  1 10  2  0  0  0  0
  1 17  1  0  0  0  0
  2 11  1  0  0  0  0
  3  9  1  0  0  0  0
  3 13  2  0  0  0  0
  4 18  1  6  0  0  0
  4  6  1  0  0  0  0
  4 10  1  0  0  0  0
  5  8  2  0  0  0  0
  6 12  2  0  0  0  0
  7  5  1  0  0  0  0
  9 12  1  6  0  0  0
  9 11  1  0  0  0  0
 10  3  1  0  0  0  0
 11 34  1  1  0  0  0
 12  2  1  0  0  0  0
 14 16  1  0  0  0  0
 14  1  1  0  0  0  0
 15 13  1  0  0  0  0
 16  7  1  0  0  0  0
 17  8  1  0  0  0  0
 17 15  2  0  0  0  0
 19 18  1  0  0  0  0
 20 21  1  6  0  0  0
 20 19  1  0  0  0  0
 22 23  2  0  0  0  0
 22 21  1  0  0  0  0
 23 27  1  0  0  0  0
 24 25  2  0  0  0  0
 24 26  1  0  0  0  0
 27 24  1  0  0  0  0
 28 20  1  0  0  0  0
 29 28  1  0  0  0  0
 29 30  1  0  0  0  0
 30 31  1  0  0  0  0
 31 32  1  0  0  0  0
 32 33  1  0  0  0  0
 34 35  1  0  0  0  0
 36 35  1  1  0  0  0
 36 41  1  0  0  0  0
 37 38  1  0  0  0  0
 37 40  1  1  0  0  0
 38 36  1  6  0  0  0
 39 37  1  0  0  0  0
 39 38  1  0  0  0  0
 39 40  1  1  0  0  0
 41 42  1  0  0  0  0
 43 41  1  0  0  0  0
M  END
>  <MODEL>
6

>  <REMARK>
 VINA RESULT:      -7.2      2.438      7.967
  Name = 
  16 active torsions:
  status: ('A' for Active; 'I' for Inactive)
    1  A    between atoms: C_1  and  C_11
    2  A    between atoms: C_1  and  O_30
    3  A    between atoms: O_2  and  C_3
    4  A    between atoms: O_2  and  C_4
    5  A    between atoms: C_3  and  C_27
    6  A    between atoms: C_4  and  C_15
    7  A    between atoms: C_4  and  C_23
    8  A    between atoms: C_6  and  C_25
    9  A    between atoms: C_6  and  C_43
   10  A    between atoms: C_7  and  C_20
   11  A    between atoms: C_7  and  C_25
   12  A    between atoms: O_17  and  C_22
   13  A    between atoms: C_22  and  C_39
   14  A    between atoms: C_25  and  O_30
   15  A    between atoms: N_37  and  N_42
   16  A    between atoms: C_39  and  C_43
                            x       y       z     vdW  Elec       q    Type
                         _______ _______ _______ _____ _____    ______ ____

>  <TORSDO>
F 16

$$$$
=
 OpenBabel10232410293D

 43 48  0  0  1  0  0  0  0  0999 V2000
  189.4850  177.5470  142.6800 C   0  0  0  0  0  0  0  0  0  0  0  0
  186.9790  177.9590  137.9740 O   0  0  0  0  0  0  0  0  0  0  0  0
  189.2640  177.7870  140.2430 C   0  0  0  0  0  0  0  0  0  0  0  0
  187.2990  178.6170  141.6680 C   0  0  2  0  0  3  0  0  0  0  0  0
  191.6070  176.4120  144.7880 N   0  0  0  0  0  0  0  0  0  0  0  0
  186.5230  178.4860  140.4250 N   0  0  0  0  0  0  0  0  0  0  0  0
  190.5360  176.9460  145.6130 C   0  0  0  0  0  2  0  0  0  0  0  0
  191.6790  176.3580  143.4910 C   0  0  0  0  0  3  0  0  0  0  0  0
  188.6320  178.5000  139.0780 C   0  0  1  0  0  3  0  0  0  0  0  0
  188.6990  177.9330  141.5490 C   0  0  0  0  0  0  0  0  0  0  0  0
  188.3830  177.7700  137.8630 C   0  0  2  0  0  3  0  0  0  0  0  0
  187.1880  178.4070  139.3280 C   0  0  0  0  0  0  0  0  0  0  0  0
  190.4920  177.1630  140.0690 C   0  0  0  0  0  3  0  0  0  0  0  0
  188.9550  177.8500  144.0520 C   0  0  0  0  0  2  0  0  0  0  0  0
  191.1920  176.6860  141.1660 C   0  0  0  0  0  3  0  0  0  0  0  0
  190.0130  178.2390  145.0490 C   0  0  0  0  0  2  0  0  0  0  0  0
  190.7250  176.8640  142.4690 C   0  0  0  0  0  0  0  0  0  0  0  0
  186.4390  178.0380  142.7830 C   0  0  0  0  0  2  0  0  0  0  0  0
  185.1520  178.5750  142.7200 O   0  0  0  0  0  0  0  0  0  0  0  0
  184.9930  179.2650  143.9280 C   0  0  1  0  0  3  0  0  0  0  0  0
  183.5830  179.8430  144.0720 C   0  0  0  0  0  2  0  0  0  0  0  0
  182.5250  178.7850  144.1260 C   0  0  0  0  0  3  0  0  0  0  0  0
  181.7120  178.5760  143.1390 N   0  0  0  0  0  0  0  0  0  0  0  0
  182.2960  178.7570  140.7530 C   0  0  0  0  0  0  0  0  0  0  0  0
  182.6670  177.5530  140.7230 O   0  0  0  0  0  1  0  0  0  0  0  0
  182.3890  179.5390  139.6090 O   0  0  0  0  0  0  0  0  0  0  0  0
  181.7810  179.3240  141.9560 N   0  0  0  0  0  2  0  0  0  0  0  0
  185.4230  178.4140  145.1240 C   0  0  0  0  0  2  0  0  0  0  0  0
  185.3180  179.1700  146.4430 C   0  0  0  0  0  2  0  0  0  0  0  0
  186.3530  178.6650  147.4300 C   0  0  0  0  0  2  0  0  0  0  0  0
  187.0530  177.4340  146.8800 C   0  0  0  0  0  2  0  0  0  0  0  0
  187.9150  176.9200  147.8470 O   0  0  0  0  0  0  0  0  0  0  0  0
  188.3390  178.0370  148.5680 C   0  0  0  0  0  1  0  0  0  0  0  0
  188.9350  178.4920  136.6340 C   0  0  0  0  0  2  0  0  0  0  0  0
  189.2420  177.5960  135.6040 O   0  0  0  0  0  0  0  0  0  0  0  0
  189.0420  176.3250  136.1570 C   0  0  2  0  0  3  0  0  0  0  0  0
  191.4460  176.1480  136.7730 C   0  0  1  0  0  3  0  0  0  0  0  0
  190.3070  175.4920  136.0160 C   0  0  1  0  0  3  0  0  0  0  0  0
  190.7330  174.9640  137.3740 C   0  0  1  0  0  3  0  0  0  0  0  0
  192.2430  175.0670  137.4800 C   0  0  0  0  0  2  0  0  0  0  0  0
  187.8660  175.6280  135.4780 C   0  0  0  0  0  3  0  0  0  0  0  0
  187.1840  174.8350  136.4010 O   0  0  0  0  0  1  0  0  0  0  0  0
  186.9860  176.5640  134.9280 O   0  0  0  0  0  1  0  0  0  0  0  0
  1 14  1  0  0  0  0
  2 12  1  0  0  0  0
  3 10  1  0  0  0  0
  4 18  1  1  0  0  0
  5  7  1  0  0  0  0
  6  4  1  0  0  0  0
  8  5  2  0  0  0  0
  9 12  1  1  0  0  0
  9  3  1  0  0  0  0
 10  4  1  0  0  0  0
 10  1  2  0  0  0  0
 11 34  1  6  0  0  0
 11  2  1  0  0  0  0
 11  9  1  0  0  0  0
 12  6  2  0  0  0  0
 13  3  2  0  0  0  0
 13 15  1  0  0  0  0
 14 16  1  0  0  0  0
 15 17  2  0  0  0  0
 16  7  1  0  0  0  0
 17  1  1  0  0  0  0
 17  8  1  0  0  0  0
 19 18  1  0  0  0  0
 19 20  1  0  0  0  0
 20 21  1  1  0  0  0
 20 28  1  0  0  0  0
 21 22  1  0  0  0  0
 23 22  2  0  0  0  0
 24 27  1  0  0  0  0
 25 24  1  0  0  0  0
 26 24  2  0  0  0  0
 27 23  1  0  0  0  0
 28 29  1  0  0  0  0
 29 30  1  0  0  0  0
 31 30  1  0  0  0  0
 31 32  1  0  0  0  0
 32 33  1  0  0  0  0
 35 36  1  0  0  0  0
 35 34  1  0  0  0  0
 36 41  1  6  0  0  0
 37 39  1  0  0  0  0
 37 40  1  6  0  0  0
 38 36  1  1  0  0  0
 38 37  1  0  0  0  0
 38 39  1  0  0  0  0
 39 40  1  6  0  0  0
 41 42  1  0  0  0  0
 43 41  1  0  0  0  0
M  END
>  <MODEL>
7

>  <REMARK>
 VINA RESULT:      -7.2      2.844      6.922
  Name = 
  16 active torsions:
  status: ('A' for Active; 'I' for Inactive)
    1  A    between atoms: C_1  and  C_11
    2  A    between atoms: C_1  and  O_30
    3  A    between atoms: O_2  and  C_3
    4  A    between atoms: O_2  and  C_4
    5  A    between atoms: C_3  and  C_27
    6  A    between atoms: C_4  and  C_15
    7  A    between atoms: C_4  and  C_23
    8  A    between atoms: C_6  and  C_25
    9  A    between atoms: C_6  and  C_43
   10  A    between atoms: C_7  and  C_20
   11  A    between atoms: C_7  and  C_25
   12  A    between atoms: O_17  and  C_22
   13  A    between atoms: C_22  and  C_39
   14  A    between atoms: C_25  and  O_30
   15  A    between atoms: N_37  and  N_42
   16  A    between atoms: C_39  and  C_43
                            x       y       z     vdW  Elec       q    Type
                         _______ _______ _______ _____ _____    ______ ____

>  <TORSDO>
F 16

$$$$
=
 OpenBabel10232410293D

 43 48  0  0  1  0  0  0  0  0999 V2000
  190.9250  176.7030  137.7630 C   0  0  0  0  0  0  0  0  0  0  0  0
  189.7420  178.7710  142.5510 O   0  0  0  0  0  0  0  0  0  0  0  0
  191.1590  177.1100  140.1770 C   0  0  0  0  0  0  0  0  0  0  0  0
  188.8060  177.3660  139.1850 C   0  0  2  0  0  3  0  0  0  0  0  0
  192.7830  175.9230  135.2780 N   0  0  0  0  0  0  0  0  0  0  0  0
  188.5360  178.1670  140.3880 N   0  0  0  0  0  0  0  0  0  0  0  0
  191.4450  175.9890  134.7150 C   0  0  0  0  0  2  0  0  0  0  0  0
  193.1610  176.1680  136.4990 C   0  0  0  0  0  3  0  0  0  0  0  0
  190.5160  177.1520  141.5370 C   0  0  1  0  0  3  0  0  0  0  0  0
  190.3330  177.0860  139.0080 C   0  0  0  0  0  0  0  0  0  0  0  0
  190.9950  178.1010  142.5070 C   0  0  2  0  0  3  0  0  0  0  0  0
  189.3580  178.0400  141.3700 C   0  0  0  0  0  0  0  0  0  0  0  0
  192.5270  176.8980  140.0810 C   0  0  0  0  0  3  0  0  0  0  0  0
  190.0250  176.5240  136.5740 C   0  0  0  0  0  2  0  0  0  0  0  0
  193.1080  176.6430  138.8480 C   0  0  0  0  0  3  0  0  0  0  0  0
  190.4320  175.4000  135.6590 C   0  0  0  0  0  2  0  0  0  0  0  0
  192.3440  176.5360  137.6860 C   0  0  0  0  0  0  0  0  0  0  0  0
  188.1930  178.1190  138.0130 C   0  0  0  0  0  2  0  0  0  0  0  0
  186.9240  178.5890  138.3590 O   0  0  0  0  0  0  0  0  0  0  0  0
  186.0470  177.5680  137.9750 C   0  0  1  0  0  3  0  0  0  0  0  0
  184.6400  177.7850  138.5350 C   0  0  0  0  0  2  0  0  0  0  0  0
  184.3090  179.2340  138.7230 C   0  0  0  0  0  3  0  0  0  0  0  0
  184.4640  179.8320  139.8620 N   0  0  0  0  0  0  0  0  0  0  0  0
  184.0850  178.6630  141.9950 C   0  0  0  0  0  0  0  0  0  0  0  0
  182.8370  178.7890  141.8760 O   0  0  0  0  0  0  0  0  0  0  0  0
  184.6120  178.0370  143.1170 O   0  0  0  0  0  1  0  0  0  0  0  0
  184.9610  179.1600  140.9860 N   0  0  0  0  0  2  0  0  0  0  0  0
  186.0690  177.3450  136.4630 C   0  0  0  0  0  2  0  0  0  0  0  0
  185.4820  175.9950  136.0650 C   0  0  0  0  0  2  0  0  0  0  0  0
  186.3300  175.3410  134.9910 C   0  0  0  0  0  2  0  0  0  0  0  0
  186.7710  173.9580  135.4340 C   0  0  0  0  0  2  0  0  0  0  0  0
  187.0830  173.9830  136.7930 O   0  0  0  0  0  0  0  0  0  0  0  0
  187.9680  172.9200  136.9690 C   0  0  0  0  0  1  0  0  0  0  0  0
  191.3070  177.4410  143.8510 C   0  0  0  0  0  2  0  0  0  0  0  0
  190.3480  176.4800  144.1890 O   0  0  0  0  0  0  0  0  0  0  0  0
  190.2390  176.5500  145.5830 C   0  0  2  0  0  3  0  0  0  0  0  0
  187.9910  177.5910  145.3580 C   0  0  1  0  0  3  0  0  0  0  0  0
  189.3690  177.7330  145.9780 C   0  0  1  0  0  3  0  0  0  0  0  0
  188.1940  177.2540  146.8130 C   0  0  1  0  0  3  0  0  0  0  0  0
  186.9530  178.0140  146.3820 C   0  0  0  0  0  2  0  0  0  0  0  0
  191.6220  176.6700  146.2180 C   0  0  0  0  0  3  0  0  0  0  0  0
  191.5210  177.2780  147.4690 O   0  0  0  0  0  1  0  0  0  0  0  0
  192.2140  175.4120  146.3570 O   0  0  0  0  0  1  0  0  0  0  0  0
  1 10  1  0  0  0  0
  4 18  1  6  0  0  0
  4  6  1  0  0  0  0
  5  8  2  0  0  0  0
  6 12  2  0  0  0  0
  7  5  1  0  0  0  0
  7 16  1  0  0  0  0
  8 17  1  0  0  0  0
  9  3  1  6  0  0  0
  9 11  1  0  0  0  0
 10  4  1  0  0  0  0
 10  3  2  0  0  0  0
 11  2  1  0  0  0  0
 11 34  1  1  0  0  0
 12  9  1  0  0  0  0
 12  2  1  0  0  0  0
 13  3  1  0  0  0  0
 14  1  1  0  0  0  0
 15 13  2  0  0  0  0
 16 14  1  0  0  0  0
 17  1  2  0  0  0  0
 17 15  1  0  0  0  0
 18 19  1  0  0  0  0
 20 28  1  6  0  0  0
 20 19  1  0  0  0  0
 20 21  1  0  0  0  0
 21 22  1  0  0  0  0
 22 23  2  0  0  0  0
 23 27  1  0  0  0  0
 24 26  1  0  0  0  0
 25 24  2  0  0  0  0
 27 24  1  0  0  0  0
 29 28  1  0  0  0  0
 30 31  1  0  0  0  0
 30 29  1  0  0  0  0
 31 32  1  0  0  0  0
 32 33  1  0  0  0  0
 34 35  1  0  0  0  0
 36 35  1  6  0  0  0
 36 41  1  0  0  0  0
 37 38  1  0  0  0  0
 37 40  1  1  0  0  0
 37 39  1  0  0  0  0
 38 36  1  6  0  0  0
 38 39  1  0  0  0  0
 39 40  1  1  0  0  0
 41 43  1  0  0  0  0
 41 42  1  0  0  0  0
M  END
>  <MODEL>
8

>  <REMARK>
 VINA RESULT:      -7.2      2.828      9.706
  Name = 
  16 active torsions:
  status: ('A' for Active; 'I' for Inactive)
    1  A    between atoms: C_1  and  C_11
    2  A    between atoms: C_1  and  O_30
    3  A    between atoms: O_2  and  C_3
    4  A    between atoms: O_2  and  C_4
    5  A    between atoms: C_3  and  C_27
    6  A    between atoms: C_4  and  C_15
    7  A    between atoms: C_4  and  C_23
    8  A    between atoms: C_6  and  C_25
    9  A    between atoms: C_6  and  C_43
   10  A    between atoms: C_7  and  C_20
   11  A    between atoms: C_7  and  C_25
   12  A    between atoms: O_17  and  C_22
   13  A    between atoms: C_22  and  C_39
   14  A    between atoms: C_25  and  O_30
   15  A    between atoms: N_37  and  N_42
   16  A    between atoms: C_39  and  C_43
                            x       y       z     vdW  Elec       q    Type
                         _______ _______ _______ _____ _____    ______ ____

>  <TORSDO>
F 16

$$$$
=
 OpenBabel10232410293D

 43 48  0  0  1  0  0  0  0  0999 V2000
  186.4900  178.2810  144.3210 C   0  0  0  0  0  0  0  0  0  0  0  0
  185.0300  179.5190  139.3280 O   0  0  0  0  0  0  0  0  0  0  0  0
  184.9560  178.6850  142.4420 C   0  0  0  0  0  0  0  0  0  0  0  0
  187.3380  177.9380  141.8480 C   0  0  2  0  0  3  0  0  0  0  0  0
  186.4500  178.4340  147.5160 N   0  0  0  0  0  0  0  0  0  0  0  0
  187.0410  178.5160  140.5280 N   0  0  0  0  0  0  0  0  0  0  0  0
  187.7790  177.9360  147.2000 C   0  0  0  0  0  2  0  0  0  0  0  0
  185.5010  178.7850  146.6980 C   0  0  0  0  0  3  0  0  0  0  0  0
  184.5870  178.4140  141.0090 C   0  0  1  0  0  3  0  0  0  0  0  0
  186.2640  178.3420  142.9090 C   0  0  0  0  0  0  0  0  0  0  0  0
  183.9450  179.4500  140.2440 C   0  0  2  0  0  3  0  0  0  0  0  0
  185.8030  178.7250  140.2480 C   0  0  0  0  0  0  0  0  0  0  0  0
  183.9670  179.0800  143.3330 C   0  0  0  0  0  3  0  0  0  0  0  0
  187.8140  177.7650  144.8070 C   0  0  0  0  0  2  0  0  0  0  0  0
  184.2350  179.1300  144.6920 C   0  0  0  0  0  3  0  0  0  0  0  0
  187.7300  176.9470  146.0680 C   0  0  0  0  0  2  0  0  0  0  0  0
  185.4690  178.7370  145.2120 C   0  0  0  0  0  0  0  0  0  0  0  0
  188.7450  178.3870  142.2150 C   0  0  0  0  0  2  0  0  0  0  0  0
  189.6290  178.0830  141.1770 O   0  0  0  0  0  0  0  0  0  0  0  0
  190.8490  177.8230  141.8120 C   0  0  1  0  0  3  0  0  0  0  0  0
  190.6530  177.3810  143.2640 C   0  0  0  0  0  2  0  0  0  0  0  0
  191.3500  176.0930  143.5770 C   0  0  0  0  0  3  0  0  0  0  0  0
  191.8430  175.8460  144.7490 N   0  0  0  0  0  0  0  0  0  0  0  0
  191.7350  176.3400  147.1590 C   0  0  0  0  0  0  0  0  0  0  0  0
  191.8490  175.1180  147.4440 O   0  0  0  0  0  0  0  0  0  0  0  0
  191.5950  177.2780  148.1750 O   0  0  0  0  0  1  0  0  0  0  0  0
  191.7460  176.7690  145.7990 N   0  0  0  0  0  2  0  0  0  0  0  0
  191.7150  176.8600  140.9980 C   0  0  0  0  0  2  0  0  0  0  0  0
  192.3190  177.5210  139.7650 C   0  0  0  0  0  2  0  0  0  0  0  0
  192.1030  176.6570  138.5380 C   0  0  0  0  0  2  0  0  0  0  0  0
  190.8670  175.7920  138.7100 C   0  0  0  0  0  2  0  0  0  0  0  0
  190.0880  175.8600  137.5560 O   0  0  0  0  0  0  0  0  0  0  0  0
  189.1640  176.8730  137.8160 C   0  0  0  0  0  1  0  0  0  0  0  0
  182.6770  178.9530  139.5500 C   0  0  0  0  0  2  0  0  0  0  0  0
  182.0930  177.8880  140.2460 O   0  0  0  0  0  0  0  0  0  0  0  0
  180.7160  178.0310  140.0380 C   0  0  2  0  0  3  0  0  0  0  0  0
  180.9530  178.4940  142.4710 C   0  0  1  0  0  3  0  0  0  0  0  0
  179.9900  178.0790  141.3740 C   0  0  1  0  0  3  0  0  0  0  0  0
  179.9830  179.5010  141.9080 C   0  0  1  0  0  3  0  0  0  0  0  0
  180.2400  179.4570  143.4030 C   0  0  0  0  0  2  0  0  0  0  0  0
  180.1840  176.8820  139.1850 C   0  0  0  0  0  3  0  0  0  0  0  0
  180.4000  177.1520  137.8330 O   0  0  0  0  0  1  0  0  0  0  0  0
  180.8110  175.6810  139.5260 O   0  0  0  0  0  1  0  0  0  0  0  0
  1 14  1  0  0  0  0
  1 17  1  0  0  0  0
  2 11  1  0  0  0  0
  2 12  1  0  0  0  0
  3 10  1  0  0  0  0
  3 13  2  0  0  0  0
  4 18  1  1  0  0  0
  4 10  1  0  0  0  0
  6  4  1  0  0  0  0
  7  5  1  0  0  0  0
  8  5  2  0  0  0  0
  9 12  1  6  0  0  0
  9  3  1  0  0  0  0
 10  1  2  0  0  0  0
 11 34  1  6  0  0  0
 11  9  1  0  0  0  0
 12  6  2  0  0  0  0
 13 15  1  0  0  0  0
 14 16  1  0  0  0  0
 15 17  2  0  0  0  0
 16  7  1  0  0  0  0
 17  8  1  0  0  0  0
 19 20  1  0  0  0  0
 19 18  1  0  0  0  0
 20 28  1  6  0  0  0
 20 21  1  0  0  0  0
 21 22  1  0  0  0  0
 22 23  2  0  0  0  0
 23 27  1  0  0  0  0
 24 25  2  0  0  0  0
 24 26  1  0  0  0  0
 27 24  1  0  0  0  0
 29 28  1  0  0  0  0
 30 31  1  0  0  0  0
 30 29  1  0  0  0  0
 32 33  1  0  0  0  0
 32 31  1  0  0  0  0
 34 35  1  0  0  0  0
 36 41  1  6  0  0  0
 36 35  1  0  0  0  0
 37 40  1  1  0  0  0
 38 36  1  6  0  0  0
 38 39  1  0  0  0  0
 38 37  1  0  0  0  0
 39 37  1  0  0  0  0
 39 40  1  1  0  0  0
 41 43  1  0  0  0  0
 42 41  1  0  0  0  0
M  END
>  <MODEL>
9

>  <REMARK>
 VINA RESULT:      -7.1      1.995      4.834
  Name = 
  16 active torsions:
  status: ('A' for Active; 'I' for Inactive)
    1  A    between atoms: C_1  and  C_11
    2  A    between atoms: C_1  and  O_30
    3  A    between atoms: O_2  and  C_3
    4  A    between atoms: O_2  and  C_4
    5  A    between atoms: C_3  and  C_27
    6  A    between atoms: C_4  and  C_15
    7  A    between atoms: C_4  and  C_23
    8  A    between atoms: C_6  and  C_25
    9  A    between atoms: C_6  and  C_43
   10  A    between atoms: C_7  and  C_20
   11  A    between atoms: C_7  and  C_25
   12  A    between atoms: O_17  and  C_22
   13  A    between atoms: C_22  and  C_39
   14  A    between atoms: C_25  and  O_30
   15  A    between atoms: N_37  and  N_42
   16  A    between atoms: C_39  and  C_43
                            x       y       z     vdW  Elec       q    Type
                         _______ _______ _______ _____ _____    ______ ____

>  <TORSDO>
F 16

$$$$
