=
 OpenBabel10232412243D

 38 41  0  0  1  0  0  0  0  0999 V2000
  184.7440  177.8930  138.4440 C   0  0  0  0  0  0  0  0  0  0  0  0
  189.2790  177.6070  137.8010 C   0  0  0  0  0  0  0  0  0  0  0  0
  185.5590  177.5520  137.3100 N   0  0  0  0  0  0  0  0  0  0  0  0
  188.0740  178.2580  139.8270 C   0  0  0  0  0  3  0  0  0  0  0  0
  185.5430  178.2640  139.5910 N   0  0  0  0  0  0  0  0  0  0  0  0
  181.0550  179.0150  136.5420 S   0  0  0  0  0  0  0  0  0  0  0  0
  182.8070  176.9610  137.2860 C   0  0  0  0  0  0  0  0  0  0  0  0
  181.4560  176.3230  135.5970 C   0  0  0  0  0  0  0  0  0  0  0  0
  186.8790  178.1020  139.1180 C   0  0  0  0  0  0  0  0  0  0  0  0
  181.6390  180.1360  139.3640 C   0  0  0  0  0  2  0  0  0  0  0  0
  180.1910  179.7740  139.0350 C   0  0  0  0  0  2  0  0  0  0  0  0
  182.3040  179.1110  140.2750 C   0  0  0  0  0  2  0  0  0  0  0  0
  183.1950  175.5660  136.9060 C   0  0  0  0  0  2  0  0  0  0  0  0
  182.2540  175.2840  135.7750 C   0  0  0  0  0  3  0  0  0  0  0  0
  186.8790  177.7010  137.8070 C   0  0  0  0  0  0  0  0  0  0  0  0
  180.2240  176.4230  134.3470 Cl  0  0  0  0  0  0  0  0  0  0  0  0
  188.0600  177.4380  137.1160 C   0  0  0  0  0  3  0  0  0  0  0  0
  181.8020  177.3810  136.5240 C   0  0  0  0  0  0  0  0  0  0  0  0
  182.5690  177.8530  139.5840 N   0  0  0  0  0  2  0  0  0  0  0  0
  180.0850  178.6360  138.0290 C   0  0  0  0  0  2  0  0  0  0  0  0
  183.4040  177.6900  138.4250 C   0  0  1  0  0  3  0  0  0  0  0  0
  189.2770  178.0120  139.1530 C   0  0  0  0  0  3  0  0  0  0  0  0
  185.8880  179.1490  141.8300 C   0  0  0  0  0  2  0  0  0  0  0  0
  185.1130  179.0000  140.7450 C   0  0  0  0  0  2  0  0  0  0  0  0
  185.2280  178.4260  142.1420 C   0  0  0  0  0  2  0  0  0  0  0  0
  184.4980  179.3740  143.1810 C   0  0  0  0  0  2  0  0  0  0  0  0
  183.8140  178.5700  144.2710 C   0  0  0  0  0  2  0  0  0  0  0  0
  184.1320  179.1320  145.5760 N   0  0  0  0  0  2  0  0  0  0  0  0
  186.2690  177.8730  145.7400 N   0  0  0  0  0  2  0  0  0  0  0  0
  185.3930  178.9100  146.2080 C   0  0  0  0  0  0  0  0  0  0  0  0
  185.7090  179.6110  147.2070 O   0  0  0  0  0  0  0  0  0  0  0  0
  187.5640  177.5860  146.3490 C   0  0  0  0  0  2  0  0  0  0  0  0
  188.5570  177.0860  145.3070 C   0  0  2  0  0  3  0  0  0  0  0  0
  189.7910  178.3450  145.0280 Cl  0  0  0  0  0  0  0  0  0  0  0  0
  187.8410  176.7640  144.0000 C   0  0  0  0  0  2  0  0  0  0  0  0
  188.8420  176.2920  142.9640 C   0  0  0  0  0  1  0  0  0  0  0  0
  190.5290  177.3680  137.1480 N   0  0  0  0  0  2  0  0  0  0  0  0
  191.5070  176.4060  137.6340 C   0  0  0  0  0  1  0  0  0  0  0  0
  1  5  1  0  0  0  0
  2 22  1  0  0  0  0
  3 15  1  0  0  0  0
  3  1  2  0  0  0  0
  5 24  1  0  0  0  0
  6 20  1  0  0  0  0
  7 21  1  0  0  0  0
  8 14  2  0  0  0  0
  8 18  1  0  0  0  0
  9  5  1  0  0  0  0
  9  4  1  0  0  0  0
 10 12  1  0  0  0  0
 11 10  1  0  0  0  0
 13  7  1  0  0  0  0
 14 13  1  0  0  0  0
 15  9  2  0  0  0  0
 16  8  1  0  0  0  0
 17  2  2  0  0  0  0
 17 15  1  0  0  0  0
 18  6  1  0  0  0  0
 18  7  2  0  0  0  0
 19 12  1  0  0  0  0
 20 11  1  0  0  0  0
 21  1  1  1  0  0  0
 21 19  1  0  0  0  0
 22  4  2  0  0  0  0
 23 25  1  0  0  0  0
 24 23  1  0  0  0  0
 25 26  1  0  0  0  0
 26 27  1  0  0  0  0
 27 28  1  0  0  0  0
 28 30  1  0  0  0  0
 29 30  1  0  0  0  0
 29 32  1  0  0  0  0
 30 31  2  0  0  0  0
 33 34  1  6  0  0  0
 33 32  1  0  0  0  0
 35 33  1  0  0  0  0
 36 35  1  0  0  0  0
 37 38  1  0  0  0  0
 37  2  1  0  0  0  0
M  END
>  <MODEL>
1

>  <REMARK>
 VINA RESULT:      -7.8      0.000      0.000
  Name = 
  9 active torsions:
  status: ('A' for Active; 'I' for Inactive)
    1  A    between atoms: C_2  and  N_17
    2  A    between atoms: C_6  and  C_15
    3  A    between atoms: C_7  and  N_8
    4  A    between atoms: C_7  and  C_23
    5  A    between atoms: C_15  and  C_25
    6  A    between atoms: N_19  and  C_38
    7  A    between atoms: C_23  and  C_29
    8  A    between atoms: C_25  and  N_28
    9  A    between atoms: C_29  and  C_38
                            x       y       z     vdW  Elec       q    Type
                         _______ _______ _______ _____ _____    ______ ____

>  <TORSDO>
F 9

$$$$
=
 OpenBabel10232412243D

 38 41  0  0  1  0  0  0  0  0999 V2000
  186.7150  178.2150  141.7550 C   0  0  0  0  0  0  0  0  0  0  0  0
  190.4400  176.7700  144.0140 C   0  0  0  0  0  0  0  0  0  0  0  0
  186.9200  177.6570  143.0640 N   0  0  0  0  0  0  0  0  0  0  0  0
  190.2960  177.6570  141.7400 C   0  0  0  0  0  3  0  0  0  0  0  0
  187.9450  178.2770  140.9970 N   0  0  0  0  0  0  0  0  0  0  0  0
  182.5380  177.4150  141.1250 S   0  0  0  0  0  0  0  0  0  0  0  0
  184.4870  178.9310  142.4470 C   0  0  0  0  0  0  0  0  0  0  0  0
  182.5220  178.9640  143.5540 C   0  0  0  0  0  0  0  0  0  0  0  0
  188.9130  177.7660  141.9120 C   0  0  0  0  0  0  0  0  0  0  0  0
  184.3370  177.8110  138.6410 C   0  0  0  0  0  2  0  0  0  0  0  0
  182.9100  178.3570  138.5730 C   0  0  0  0  0  2  0  0  0  0  0  0
  185.3740  178.9100  138.8380 C   0  0  0  0  0  2  0  0  0  0  0  0
  184.6890  179.7380  143.6910 C   0  0  0  0  0  2  0  0  0  0  0  0
  183.3380  179.6530  144.3350 C   0  0  0  0  0  3  0  0  0  0  0  0
  188.3150  177.4070  143.0920 C   0  0  0  0  0  0  0  0  0  0  0  0
  180.8490  178.5970  143.9500 Cl  0  0  0  0  0  0  0  0  0  0  0  0
  189.0470  176.9090  144.1690 C   0  0  0  0  0  3  0  0  0  0  0  0
  183.2320  178.4950  142.3820 C   0  0  0  0  0  0  0  0  0  0  0  0
  185.3190  179.4800  140.1800 N   0  0  0  0  0  2  0  0  0  0  0  0
  182.3790  178.7780  139.9370 C   0  0  0  0  0  2  0  0  0  0  0  0
  185.5250  178.7620  141.4090 C   0  0  1  0  0  3  0  0  0  0  0  0
  191.0560  177.1480  142.8010 C   0  0  0  0  0  3  0  0  0  0  0  0
  188.6630  177.4720  138.8170 C   0  0  2  0  0  3  0  0  0  0  0  0
  188.0820  178.4140  139.5750 C   0  0  0  0  0  2  0  0  0  0  0  0
  189.4060  178.1790  138.8780 C   0  0  0  0  0  1  0  0  0  0  0  0
  189.3810  176.7880  138.1190 C   0  0  0  0  0  2  0  0  0  0  0  0
  190.5700  175.9300  138.5090 C   0  0  0  0  0  2  0  0  0  0  0  0
  191.8060  176.6670  138.2940 N   0  0  0  0  0  2  0  0  0  0  0  0
  193.0730  174.6160  137.6840 N   0  0  0  0  0  2  0  0  0  0  0  0
  192.9700  176.0480  137.7460 C   0  0  0  0  0  0  0  0  0  0  0  0
  193.9220  176.7730  137.3520 O   0  0  0  0  0  0  0  0  0  0  0  0
  194.2380  173.9210  137.1470 C   0  0  0  0  0  2  0  0  0  0  0  0
  194.9490  173.1280  138.2370 C   0  0  2  0  0  3  0  0  0  0  0  0
  195.8640  174.2580  139.2740 Cl  0  0  0  0  0  0  0  0  0  0  0  0
  195.8990  172.1080  137.6190 C   0  0  0  0  0  2  0  0  0  0  0  0
  195.4290  170.7020  137.9400 C   0  0  0  0  0  1  0  0  0  0  0  0
  191.2490  176.2530  145.0740 N   0  0  0  0  0  2  0  0  0  0  0  0
  191.2440  176.8080  146.4190 C   0  0  0  0  0  1  0  0  0  0  0  0
  1  3  2  0  0  0  0
  2 17  1  0  0  0  0
  2 37  1  0  0  0  0
  3 15  1  0  0  0  0
  4  9  2  0  0  0  0
  4 22  1  0  0  0  0
  5  1  1  0  0  0  0
  5  9  1  0  0  0  0
  6 18  1  0  0  0  0
  7 13  1  0  0  0  0
  8 16  1  0  0  0  0
  8 14  2  0  0  0  0
  9 15  1  0  0  0  0
 10 12  1  0  0  0  0
 11 10  1  0  0  0  0
 11 20  1  0  0  0  0
 12 19  1  0  0  0  0
 13 14  1  0  0  0  0
 15 17  2  0  0  0  0
 18  7  2  0  0  0  0
 18  8  1  0  0  0  0
 19 21  1  0  0  0  0
 20  6  1  0  0  0  0
 21  1  1  1  0  0  0
 21  7  1  0  0  0  0
 22  2  2  0  0  0  0
 23 25  1  1  0  0  0
 23 24  1  0  0  0  0
 24  5  1  0  0  0  0
 26 27  1  0  0  0  0
 26 23  1  0  0  0  0
 28 27  1  0  0  0  0
 29 30  1  0  0  0  0
 30 28  1  0  0  0  0
 31 30  2  0  0  0  0
 32 29  1  0  0  0  0
 32 33  1  0  0  0  0
 33 34  1  1  0  0  0
 35 36  1  0  0  0  0
 35 33  1  0  0  0  0
 37 38  1  0  0  0  0
M  END
>  <MODEL>
2

>  <REMARK>
 VINA RESULT:      -7.8      3.974      7.549
  Name = 
  9 active torsions:
  status: ('A' for Active; 'I' for Inactive)
    1  A    between atoms: C_2  and  N_17
    2  A    between atoms: C_6  and  C_15
    3  A    between atoms: C_7  and  N_8
    4  A    between atoms: C_7  and  C_23
    5  A    between atoms: C_15  and  C_25
    6  A    between atoms: N_19  and  C_38
    7  A    between atoms: C_23  and  C_29
    8  A    between atoms: C_25  and  N_28
    9  A    between atoms: C_29  and  C_38
                            x       y       z     vdW  Elec       q    Type
                         _______ _______ _______ _____ _____    ______ ____

>  <TORSDO>
F 9

$$$$
=
 OpenBabel10232412243D

 38 41  0  0  1  0  0  0  0  0999 V2000
  186.2250  177.9210  138.4410 C   0  0  0  0  0  0  0  0  0  0  0  0
  181.7540  177.6250  137.4520 C   0  0  0  0  0  0  0  0  0  0  0  0
  185.4920  177.3090  137.3660 N   0  0  0  0  0  0  0  0  0  0  0  0
  182.8110  178.6870  139.3840 C   0  0  0  0  0  3  0  0  0  0  0  0
  185.3470  178.5150  139.4240 N   0  0  0  0  0  0  0  0  0  0  0  0
  189.9440  175.7680  138.2730 S   0  0  0  0  0  0  0  0  0  0  0  0
  188.2690  177.6980  137.1250 C   0  0  0  0  0  0  0  0  0  0  0  0
  189.7420  176.8840  135.6240 C   0  0  0  0  0  0  0  0  0  0  0  0
  184.0490  178.2710  138.8850 C   0  0  0  0  0  0  0  0  0  0  0  0
  189.1490  177.0970  140.9500 C   0  0  0  0  0  2  0  0  0  0  0  0
  190.6300  177.1010  140.5730 C   0  0  0  0  0  2  0  0  0  0  0  0
  188.4930  178.4590  140.7560 C   0  0  0  0  0  2  0  0  0  0  0  0
  187.9800  178.3560  135.8120 C   0  0  0  0  0  3  0  0  0  0  0  0
  188.9930  177.7130  134.9160 C   0  0  0  0  0  3  0  0  0  0  0  0
  184.1410  177.5730  137.7080 C   0  0  0  0  0  0  0  0  0  0  0  0
  191.0320  175.8950  134.9520 Cl  0  0  0  0  0  0  0  0  0  0  0  0
  183.0140  177.2370  136.9600 C   0  0  0  0  0  3  0  0  0  0  0  0
  189.2900  176.8540  136.9990 C   0  0  2  0  0  3  0  0  0  0  0  0
  188.3350  178.7950  139.3440 N   0  0  0  0  0  2  0  0  0  0  0  0
  190.8510  177.1260  139.0670 C   0  0  0  0  0  2  0  0  0  0  0  0
  187.5730  178.0460  138.3820 C   0  0  1  0  0  3  0  0  0  0  0  0
  181.6600  178.3510  138.6590 C   0  0  0  0  0  3  0  0  0  0  0  0
  185.1250  178.2560  141.8320 C   0  0  0  0  0  2  0  0  0  0  0  0
  185.6730  178.8730  140.7740 C   0  0  0  0  0  2  0  0  0  0  0  0
  184.5990  179.1380  141.8080 C   0  0  0  0  0  2  0  0  0  0  0  0
  185.2300  179.1400  143.2610 C   0  0  0  0  0  2  0  0  0  0  0  0
  184.3220  178.4410  144.2550 C   0  0  0  0  0  2  0  0  0  0  0  0
  184.4220  179.0840  145.5570 N   0  0  0  0  0  2  0  0  0  0  0  0
  186.4580  177.7990  146.1770 N   0  0  0  0  0  2  0  0  0  0  0  0
  185.5450  178.8820  146.4160 C   0  0  0  0  0  0  0  0  0  0  0  0
  185.7020  179.6420  147.4080 O   0  0  0  0  0  0  0  0  0  0  0  0
  187.6170  177.5300  147.0220 C   0  0  0  0  0  2  0  0  0  0  0  0
  188.9110  177.6500  146.2270 C   0  0  2  0  0  3  0  0  0  0  0  0
  188.6680  176.9300  144.6110 Cl  0  0  0  0  0  0  0  0  0  0  0  0
  190.0480  176.9340  146.9470 C   0  0  0  0  0  2  0  0  0  0  0  0
  191.2460  176.8080  146.0260 C   0  0  0  0  0  1  0  0  0  0  0  0
  180.5560  177.3000  136.7410 N   0  0  0  0  0  2  0  0  0  0  0  0
  180.5460  176.4980  135.5270 C   0  0  0  0  0  1  0  0  0  0  0  0
  1  5  1  0  0  0  0
  2 22  1  0  0  0  0
  3 15  1  0  0  0  0
  3  1  2  0  0  0  0
  5 24  1  0  0  0  0
  6 20  1  0  0  0  0
  7 21  1  0  0  0  0
  9  4  1  0  0  0  0
  9  5  1  0  0  0  0
 11 10  1  0  0  0  0
 12 10  1  0  0  0  0
 13  7  2  0  0  0  0
 14  8  2  0  0  0  0
 14 13  1  0  0  0  0
 15  9  2  0  0  0  0
 16  8  1  0  0  0  0
 17  2  2  0  0  0  0
 17 15  1  0  0  0  0
 18  8  1  6  0  0  0
 18  7  1  0  0  0  0
 18  6  1  0  0  0  0
 19 12  1  0  0  0  0
 20 11  1  0  0  0  0
 21  1  1  6  0  0  0
 21 19  1  0  0  0  0
 22  4  2  0  0  0  0
 24 23  1  0  0  0  0
 25 23  1  0  0  0  0
 25 26  1  0  0  0  0
 26 27  1  0  0  0  0
 27 28  1  0  0  0  0
 28 30  1  0  0  0  0
 29 30  1  0  0  0  0
 29 32  1  0  0  0  0
 30 31  2  0  0  0  0
 33 34  1  6  0  0  0
 33 35  1  0  0  0  0
 33 32  1  0  0  0  0
 36 35  1  0  0  0  0
 37  2  1  0  0  0  0
 38 37  1  0  0  0  0
M  END
>  <MODEL>
3

>  <REMARK>
 VINA RESULT:      -7.7      2.731      5.839
  Name = 
  9 active torsions:
  status: ('A' for Active; 'I' for Inactive)
    1  A    between atoms: C_2  and  N_17
    2  A    between atoms: C_6  and  C_15
    3  A    between atoms: C_7  and  N_8
    4  A    between atoms: C_7  and  C_23
    5  A    between atoms: C_15  and  C_25
    6  A    between atoms: N_19  and  C_38
    7  A    between atoms: C_23  and  C_29
    8  A    between atoms: C_25  and  N_28
    9  A    between atoms: C_29  and  C_38
                            x       y       z     vdW  Elec       q    Type
                         _______ _______ _______ _____ _____    ______ ____

>  <TORSDO>
F 9

$$$$
=
 OpenBabel10232412243D

 38 41  0  0  1  0  0  0  0  0999 V2000
  186.8430  178.2680  141.9950 C   0  0  0  0  0  0  0  0  0  0  0  0
  190.4200  176.9240  144.5360 C   0  0  0  0  0  0  0  0  0  0  0  0
  186.9610  177.7200  143.3190 N   0  0  0  0  0  0  0  0  0  0  0  0
  190.4270  177.7990  142.2530 C   0  0  0  0  0  3  0  0  0  0  0  0
  188.1240  178.3580  141.3320 N   0  0  0  0  0  0  0  0  0  0  0  0
  182.7450  177.3630  141.0570 S   0  0  0  0  0  0  0  0  0  0  0  0
  184.5520  178.9320  142.5130 C   0  0  0  0  0  0  0  0  0  0  0  0
  182.5090  178.9210  143.4690 C   0  0  0  0  0  0  0  0  0  0  0  0
  189.0330  177.8740  142.3200 C   0  0  0  0  0  0  0  0  0  0  0  0
  184.7160  177.7940  138.7130 C   0  0  0  0  0  2  0  0  0  0  0  0
  183.2860  178.3050  138.5350 C   0  0  0  0  0  2  0  0  0  0  0  0
  185.7080  178.9180  138.9820 C   0  0  0  0  0  2  0  0  0  0  0  0
  184.6400  179.7480  143.7650 C   0  0  0  0  0  2  0  0  0  0  0  0
  183.2470  179.6330  144.3050 C   0  0  0  0  0  3  0  0  0  0  0  0
  188.3560  177.5050  143.4540 C   0  0  0  0  0  0  0  0  0  0  0  0
  180.8200  178.5140  143.7400 Cl  0  0  0  0  0  0  0  0  0  0  0  0
  189.0170  177.0300  144.5850 C   0  0  0  0  0  3  0  0  0  0  0  0
  183.3160  178.4650  142.3570 C   0  0  0  0  0  0  0  0  0  0  0  0
  185.5390  179.4930  140.3130 N   0  0  0  0  0  2  0  0  0  0  0  0
  182.6440  178.7180  139.8530 C   0  0  0  0  0  2  0  0  0  0  0  0
  185.6690  178.7840  141.5570 C   0  0  1  0  0  3  0  0  0  0  0  0
  191.1160  177.3120  143.3720 C   0  0  0  0  0  3  0  0  0  0  0  0
  188.6520  177.4400  139.1420 C   0  0  0  0  0  2  0  0  0  0  0  0
  188.3650  178.4920  139.9240 C   0  0  0  0  0  2  0  0  0  0  0  0
  189.5770  177.8720  139.2610 C   0  0  0  0  0  2  0  0  0  0  0  0
  189.5090  178.0870  137.6930 C   0  0  0  0  0  2  0  0  0  0  0  0
  189.9990  176.8580  136.9490 C   0  0  0  0  0  2  0  0  0  0  0  0
  189.3440  176.7690  135.6530 N   0  0  0  0  0  2  0  0  0  0  0  0
  187.5250  175.3190  136.5280 N   0  0  0  0  0  2  0  0  0  0  0  0
  188.0660  176.1530  135.4910 C   0  0  0  0  0  0  0  0  0  0  0  0
  187.4380  176.3180  134.4120 O   0  0  0  0  0  0  0  0  0  0  0  0
  186.2310  174.6510  136.4220 C   0  0  0  0  0  2  0  0  0  0  0  0
  186.2400  173.3250  137.1710 C   0  0  2  0  0  3  0  0  0  0  0  0
  186.6340  172.0120  136.0260 Cl  0  0  0  0  0  0  0  0  0  0  0  0
  184.8800  173.0640  137.8090 C   0  0  0  0  0  2  0  0  0  0  0  0
  184.1200  172.0290  137.0030 C   0  0  0  0  0  1  0  0  0  0  0  0
  191.1590  176.4310  145.6570 N   0  0  0  0  0  2  0  0  0  0  0  0
  190.9150  176.8680  147.0240 C   0  0  0  0  0  1  0  0  0  0  0  0
  1  3  2  0  0  0  0
  2 17  1  0  0  0  0
  2 37  1  0  0  0  0
  3 15  1  0  0  0  0
  4  9  2  0  0  0  0
  4 22  1  0  0  0  0
  5  1  1  0  0  0  0
  5  9  1  0  0  0  0
  6 18  1  0  0  0  0
  7 13  1  0  0  0  0
  8 16  1  0  0  0  0
  8 14  2  0  0  0  0
  9 15  1  0  0  0  0
 10 12  1  0  0  0  0
 11 10  1  0  0  0  0
 11 20  1  0  0  0  0
 12 19  1  0  0  0  0
 13 14  1  0  0  0  0
 15 17  2  0  0  0  0
 18  7  2  0  0  0  0
 18  8  1  0  0  0  0
 19 21  1  0  0  0  0
 20  6  1  0  0  0  0
 21  1  1  1  0  0  0
 21  7  1  0  0  0  0
 22  2  2  0  0  0  0
 23 25  1  0  0  0  0
 23 24  1  0  0  0  0
 24  5  1  0  0  0  0
 26 25  1  0  0  0  0
 27 26  1  0  0  0  0
 28 27  1  0  0  0  0
 30 28  1  0  0  0  0
 30 29  1  0  0  0  0
 31 30  2  0  0  0  0
 32 29  1  0  0  0  0
 32 33  1  0  0  0  0
 33 34  1  6  0  0  0
 33 35  1  0  0  0  0
 36 35  1  0  0  0  0
 37 38  1  0  0  0  0
M  END
>  <MODEL>
4

>  <REMARK>
 VINA RESULT:      -7.6      3.646      7.460
  Name = 
  9 active torsions:
  status: ('A' for Active; 'I' for Inactive)
    1  A    between atoms: C_2  and  N_17
    2  A    between atoms: C_6  and  C_15
    3  A    between atoms: C_7  and  N_8
    4  A    between atoms: C_7  and  C_23
    5  A    between atoms: C_15  and  C_25
    6  A    between atoms: N_19  and  C_38
    7  A    between atoms: C_23  and  C_29
    8  A    between atoms: C_25  and  N_28
    9  A    between atoms: C_29  and  C_38
                            x       y       z     vdW  Elec       q    Type
                         _______ _______ _______ _____ _____    ______ ____

>  <TORSDO>
F 9

$$$$
=
 OpenBabel10232412243D

 38 41  0  0  1  0  0  0  0  0999 V2000
  186.7410  178.1790  141.5200 C   0  0  0  0  0  0  0  0  0  0  0  0
  190.5310  176.6350  143.5960 C   0  0  0  0  0  0  0  0  0  0  0  0
  186.9900  177.5960  142.8110 N   0  0  0  0  0  0  0  0  0  0  0  0
  190.3080  177.5630  141.3450 C   0  0  0  0  0  3  0  0  0  0  0  0
  187.9390  178.2340  140.7130 N   0  0  0  0  0  0  0  0  0  0  0  0
  182.5270  177.4590  141.0560 S   0  0  0  0  0  0  0  0  0  0  0  0
  184.5560  178.9210  142.3180 C   0  0  0  0  0  0  0  0  0  0  0  0
  182.6410  178.9670  143.5080 C   0  0  0  0  0  0  0  0  0  0  0  0
  188.9350  177.6910  141.5780 C   0  0  0  0  0  0  0  0  0  0  0  0
  184.2260  177.8670  138.5040 C   0  0  0  0  0  2  0  0  0  0  0  0
  182.8080  178.4380  138.5060 C   0  0  0  0  0  2  0  0  0  0  0  0
  185.2890  178.9440  138.6750 C   0  0  0  0  0  2  0  0  0  0  0  0
  184.8240  179.7030  143.5650 C   0  0  0  0  0  2  0  0  0  0  0  0
  183.5000  179.6300  144.2640 C   0  0  0  0  0  3  0  0  0  0  0  0
  188.3810  177.3220  142.7760 C   0  0  0  0  0  0  0  0  0  0  0  0
  180.9790  178.6210  143.9680 Cl  0  0  0  0  0  0  0  0  0  0  0  0
  189.1490  176.7950  143.8120 C   0  0  0  0  0  3  0  0  0  0  0  0
  183.2920  178.5060  142.3000 C   0  0  0  0  0  0  0  0  0  0  0  0
  185.3020  179.4940  140.0270 N   0  0  0  0  0  2  0  0  0  0  0  0
  182.3420  178.8440  139.8970 C   0  0  0  0  0  2  0  0  0  0  0  0
  185.5470  178.7510  141.2340 C   0  0  1  0  0  3  0  0  0  0  0  0
  191.1020  177.0240  142.3650 C   0  0  0  0  0  3  0  0  0  0  0  0
  188.8370  177.6490  138.5290 C   0  0  2  0  0  3  0  0  0  0  0  0
  188.0180  178.3920  139.2890 C   0  0  0  0  0  2  0  0  0  0  0  0
  189.3470  178.5400  138.5780 C   0  0  0  0  0  1  0  0  0  0  0  0
  189.3160  177.7600  137.1990 C   0  0  0  0  0  2  0  0  0  0  0  0
  190.4270  176.7290  137.1280 C   0  0  0  0  0  2  0  0  0  0  0  0
  190.3320  175.9840  135.8810 N   0  0  0  0  0  2  0  0  0  0  0  0
  188.7580  174.3200  136.8460 N   0  0  0  0  0  2  0  0  0  0  0  0
  189.4040  174.9130  135.7090 C   0  0  0  0  0  0  0  0  0  0  0  0
  189.1890  174.4680  134.5490 O   0  0  0  0  0  0  0  0  0  0  0  0
  187.8090  173.2160  136.7410 C   0  0  0  0  0  2  0  0  0  0  0  0
  186.3750  173.7310  136.7100 C   0  0  2  0  0  3  0  0  0  0  0  0
  186.3760  175.4750  137.0920 Cl  0  0  0  0  0  0  0  0  0  0  0  0
  185.5170  172.9800  137.7210 C   0  0  0  0  0  2  0  0  0  0  0  0
  184.3940  172.2510  137.0080 C   0  0  0  0  0  1  0  0  0  0  0  0
  191.3760  176.0880  144.6130 N   0  0  0  0  0  2  0  0  0  0  0  0
  191.6200  176.7510  145.8850 C   0  0  0  0  0  1  0  0  0  0  0  0
  1  3  2  0  0  0  0
  2 17  1  0  0  0  0
  2 37  1  0  0  0  0
  4  9  2  0  0  0  0
  4 22  1  0  0  0  0
  5  1  1  0  0  0  0
  5  9  1  0  0  0  0
  6 18  1  0  0  0  0
  7 13  1  0  0  0  0
  8 16  1  0  0  0  0
  8 14  2  0  0  0  0
  9 15  1  0  0  0  0
 10 11  1  0  0  0  0
 10 12  1  0  0  0  0
 11 20  1  0  0  0  0
 12 19  1  0  0  0  0
 13 14  1  0  0  0  0
 15  3  1  0  0  0  0
 15 17  2  0  0  0  0
 18  7  2  0  0  0  0
 18  8  1  0  0  0  0
 19 21  1  0  0  0  0
 20  6  1  0  0  0  0
 21  1  1  1  0  0  0
 21  7  1  0  0  0  0
 22  2  2  0  0  0  0
 23 25  1  1  0  0  0
 23 24  1  0  0  0  0
 24  5  1  0  0  0  0
 26 23  1  0  0  0  0
 27 26  1  0  0  0  0
 28 27  1  0  0  0  0
 30 28  1  0  0  0  0
 30 29  1  0  0  0  0
 31 30  2  0  0  0  0
 32 29  1  0  0  0  0
 33 32  1  0  0  0  0
 33 34  1  1  0  0  0
 33 35  1  0  0  0  0
 36 35  1  0  0  0  0
 37 38  1  0  0  0  0
M  END
>  <MODEL>
5

>  <REMARK>
 VINA RESULT:      -7.6      3.727      7.301
  Name = 
  9 active torsions:
  status: ('A' for Active; 'I' for Inactive)
    1  A    between atoms: C_2  and  N_17
    2  A    between atoms: C_6  and  C_15
    3  A    between atoms: C_7  and  N_8
    4  A    between atoms: C_7  and  C_23
    5  A    between atoms: C_15  and  C_25
    6  A    between atoms: N_19  and  C_38
    7  A    between atoms: C_23  and  C_29
    8  A    between atoms: C_25  and  N_28
    9  A    between atoms: C_29  and  C_38
                            x       y       z     vdW  Elec       q    Type
                         _______ _______ _______ _____ _____    ______ ____

>  <TORSDO>
F 9

$$$$
=
 OpenBabel10232412243D

 38 41  0  0  1  0  0  0  0  0999 V2000
  184.5860  178.2630  139.4940 C   0  0  0  0  0  0  0  0  0  0  0  0
  189.1570  178.0220  139.8270 C   0  0  0  0  0  0  0  0  0  0  0  0
  185.6340  178.0320  138.5360 N   0  0  0  0  0  0  0  0  0  0  0  0
  187.5310  178.4750  141.5960 C   0  0  0  0  0  3  0  0  0  0  0  0
  185.1110  178.5150  140.8170 N   0  0  0  0  0  0  0  0  0  0  0  0
  181.3790  179.5840  136.9530 S   0  0  0  0  0  0  0  0  0  0  0  0
  182.9630  177.4580  137.8580 C   0  0  0  0  0  0  0  0  0  0  0  0
  182.0200  176.9960  135.8610 C   0  0  0  0  0  0  0  0  0  0  0  0
  186.5210  178.3960  140.6320 C   0  0  0  0  0  0  0  0  0  0  0  0
  181.3180  180.4180  139.9310 C   0  0  0  0  0  2  0  0  0  0  0  0
  179.9820  180.0970  139.2610 C   0  0  0  0  0  2  0  0  0  0  0  0
  181.7870  179.3060  140.8600 C   0  0  0  0  0  2  0  0  0  0  0  0
  183.4470  176.1060  137.4370 C   0  0  0  0  0  2  0  0  0  0  0  0
  182.7790  175.9410  136.1060 C   0  0  0  0  0  3  0  0  0  0  0  0
  186.8110  178.1250  139.3200 C   0  0  0  0  0  0  0  0  0  0  0  0
  181.0880  177.2250  134.3890 Cl  0  0  0  0  0  0  0  0  0  0  0  0
  188.1190  177.9270  138.8810 C   0  0  0  0  0  3  0  0  0  0  0  0
  182.1390  177.9560  136.9390 C   0  0  0  0  0  0  0  0  0  0  0  0
  182.2170  178.1210  140.1240 N   0  0  0  0  0  2  0  0  0  0  0  0
  180.1160  179.0640  138.1500 C   0  0  0  0  0  2  0  0  0  0  0  0
  183.2860  178.0690  139.1640 C   0  0  1  0  0  3  0  0  0  0  0  0
  188.8560  178.2920  141.1790 C   0  0  0  0  0  3  0  0  0  0  0  0
  184.9170  179.1150  143.1660 C   0  0  1  0  0  3  0  0  0  0  0  0
  184.4290  179.1360  141.9160 C   0  0  0  0  0  2  0  0  0  0  0  0
  184.1810  178.4000  143.2160 C   0  0  0  0  0  1  0  0  0  0  0  0
  185.2160  178.8760  144.3170 C   0  0  0  0  0  2  0  0  0  0  0  0
  185.7480  177.7010  145.1160 C   0  0  0  0  0  2  0  0  0  0  0  0
  185.9860  178.1040  146.4940 N   0  0  0  0  0  2  0  0  0  0  0  0
  188.3140  177.2340  146.4820 N   0  0  0  0  0  2  0  0  0  0  0  0
  187.2770  178.0160  147.0960 C   0  0  0  0  0  0  0  0  0  0  0  0
  187.4830  178.6000  148.1930 O   0  0  0  0  0  0  0  0  0  0  0  0
  189.6510  177.0930  147.0510 C   0  0  0  0  0  2  0  0  0  0  0  0
  190.7180  177.2130  145.9700 C   0  0  2  0  0  3  0  0  0  0  0  0
  189.9640  176.9340  144.3750 Cl  0  0  0  0  0  0  0  0  0  0  0  0
  191.8290  176.1950  146.2020 C   0  0  0  0  0  2  0  0  0  0  0  0
  192.0730  176.0250  147.6890 C   0  0  0  0  0  1  0  0  0  0  0  0
  190.5220  177.8430  139.4410 N   0  0  0  0  0  2  0  0  0  0  0  0
  191.5340  177.2930  140.3310 C   0  0  0  0  0  1  0  0  0  0  0  0
  1  5  1  0  0  0  0
  2 22  1  0  0  0  0
  3 15  1  0  0  0  0
  3  1  2  0  0  0  0
  5 24  1  0  0  0  0
  6 20  1  0  0  0  0
  7 21  1  0  0  0  0
  8 14  2  0  0  0  0
  8 18  1  0  0  0  0
  9  5  1  0  0  0  0
  9  4  1  0  0  0  0
 10 12  1  0  0  0  0
 11 10  1  0  0  0  0
 13  7  1  0  0  0  0
 14 13  1  0  0  0  0
 15  9  2  0  0  0  0
 16  8  1  0  0  0  0
 17 15  1  0  0  0  0
 17  2  2  0  0  0  0
 18  6  1  0  0  0  0
 18  7  2  0  0  0  0
 19 12  1  0  0  0  0
 20 11  1  0  0  0  0
 21  1  1  1  0  0  0
 21 19  1  0  0  0  0
 22  4  2  0  0  0  0
 23 25  1  1  0  0  0
 23 26  1  0  0  0  0
 24 23  1  0  0  0  0
 26 27  1  0  0  0  0
 27 28  1  0  0  0  0
 28 30  1  0  0  0  0
 29 32  1  0  0  0  0
 29 30  1  0  0  0  0
 30 31  2  0  0  0  0
 33 34  1  6  0  0  0
 33 35  1  0  0  0  0
 33 32  1  0  0  0  0
 35 36  1  0  0  0  0
 37  2  1  0  0  0  0
 37 38  1  0  0  0  0
M  END
>  <MODEL>
6

>  <REMARK>
 VINA RESULT:      -7.2      1.594      1.976
  Name = 
  9 active torsions:
  status: ('A' for Active; 'I' for Inactive)
    1  A    between atoms: C_2  and  N_17
    2  A    between atoms: C_6  and  C_15
    3  A    between atoms: C_7  and  N_8
    4  A    between atoms: C_7  and  C_23
    5  A    between atoms: C_15  and  C_25
    6  A    between atoms: N_19  and  C_38
    7  A    between atoms: C_23  and  C_29
    8  A    between atoms: C_25  and  N_28
    9  A    between atoms: C_29  and  C_38
                            x       y       z     vdW  Elec       q    Type
                         _______ _______ _______ _____ _____    ______ ____

>  <TORSDO>
F 9

$$$$
=
 OpenBabel10232412243D

 38 41  0  0  1  0  0  0  0  0999 V2000
  188.5410  177.7230  140.5290 C   0  0  0  0  0  0  0  0  0  0  0  0
  191.1920  175.9750  137.2150 C   0  0  0  0  0  0  0  0  0  0  0  0
  189.7000  176.8720  140.5390 N   0  0  0  0  0  0  0  0  0  0  0  0
  189.2090  177.3870  136.9820 C   0  0  0  0  0  3  0  0  0  0  0  0
  188.1160  178.0390  139.1840 N   0  0  0  0  0  0  0  0  0  0  0  0
  186.8190  176.8710  144.3750 S   0  0  0  0  0  0  0  0  0  0  0  0
  188.8580  178.1210  142.9160 C   0  0  0  0  0  0  0  0  0  0  0  0
  189.4700  177.7700  145.0580 C   0  0  0  0  0  0  0  0  0  0  0  0
  189.0850  177.3720  138.3750 C   0  0  0  0  0  0  0  0  0  0  0  0
  184.9630  177.9670  142.1580 C   0  0  0  0  0  2  0  0  0  0  0  0
  184.7020  178.4330  143.5900 C   0  0  0  0  0  2  0  0  0  0  0  0
  185.6350  179.0390  141.3090 C   0  0  0  0  0  2  0  0  0  0  0  0
  190.2660  178.6060  143.0630 C   0  0  0  0  0  3  0  0  0  0  0  0
  190.5510  178.2900  144.5000 C   0  0  0  0  0  3  0  0  0  0  0  0
  189.9850  176.7000  139.1610 C   0  0  0  0  0  0  0  0  0  0  0  0
  189.3830  177.2240  146.7270 Cl  0  0  0  0  0  0  0  0  0  0  0  0
  191.0560  175.9950  138.6160 C   0  0  0  0  0  3  0  0  0  0  0  0
  188.4130  177.6450  144.0760 C   0  0  2  0  0  3  0  0  0  0  0  0
  187.0240  179.2580  141.7000 N   0  0  0  0  0  2  0  0  0  0  0  0
  185.9690  178.4750  144.4330 C   0  0  0  0  0  2  0  0  0  0  0  0
  188.0700  178.2710  141.6750 C   0  0  1  0  0  3  0  0  0  0  0  0
  190.2690  176.6750  136.4070 C   0  0  0  0  0  3  0  0  0  0  0  0
  185.8380  177.7090  138.3970 C   0  0  2  0  0  3  0  0  0  0  0  0
  186.8320  178.5290  138.7730 C   0  0  0  0  0  2  0  0  0  0  0  0
  186.1750  178.0600  137.4910 C   0  0  0  0  0  1  0  0  0  0  0  0
  184.6480  177.7260  137.7540 C   0  0  0  0  0  2  0  0  0  0  0  0
  183.9560  177.2850  136.4770 C   0  0  0  0  0  2  0  0  0  0  0  0
  182.9040  176.3290  136.7890 N   0  0  0  0  0  2  0  0  0  0  0  0
  184.5190  174.4740  137.1500 N   0  0  0  0  0  2  0  0  0  0  0  0
  183.1930  175.0140  137.2640 C   0  0  0  0  0  0  0  0  0  0  0  0
  182.2610  174.3190  137.7490 O   0  0  0  0  0  0  0  0  0  0  0  0
  184.8790  173.1350  137.6060 C   0  0  0  0  0  2  0  0  0  0  0  0
  186.3220  172.8070  137.2470 C   0  0  2  0  0  3  0  0  0  0  0  0
  187.2490  174.3280  137.1190 Cl  0  0  0  0  0  0  0  0  0  0  0  0
  186.3840  172.0500  135.9250 C   0  0  0  0  0  2  0  0  0  0  0  0
  185.0950  171.2810  135.7080 C   0  0  0  0  0  1  0  0  0  0  0  0
  192.2610  175.2590  136.5900 N   0  0  0  0  0  2  0  0  0  0  0  0
  193.3240  174.6060  137.3380 C   0  0  0  0  0  1  0  0  0  0  0  0
  1  3  2  0  0  0  0
  2 17  1  0  0  0  0
  4  9  2  0  0  0  0
  5  1  1  0  0  0  0
  6 20  1  0  0  0  0
  7 13  2  0  0  0  0
  8 16  1  0  0  0  0
  9 15  1  0  0  0  0
  9  5  1  0  0  0  0
 10 11  1  0  0  0  0
 11 20  1  0  0  0  0
 12 19  1  0  0  0  0
 12 10  1  0  0  0  0
 13 14  1  0  0  0  0
 14  8  2  0  0  0  0
 15  3  1  0  0  0  0
 17 15  2  0  0  0  0
 18  7  1  6  0  0  0
 18  6  1  0  0  0  0
 18  8  1  0  0  0  0
 21  1  1  6  0  0  0
 21 19  1  0  0  0  0
 21  7  1  0  0  0  0
 22  4  1  0  0  0  0
 22  2  2  0  0  0  0
 23 25  1  6  0  0  0
 23 24  1  0  0  0  0
 24  5  1  0  0  0  0
 26 23  1  0  0  0  0
 27 28  1  0  0  0  0
 27 26  1  0  0  0  0
 28 30  1  0  0  0  0
 29 30  1  0  0  0  0
 29 32  1  0  0  0  0
 30 31  2  0  0  0  0
 33 34  1  6  0  0  0
 33 32  1  0  0  0  0
 35 33  1  0  0  0  0
 36 35  1  0  0  0  0
 37  2  1  0  0  0  0
 37 38  1  0  0  0  0
M  END
>  <MODEL>
7

>  <REMARK>
 VINA RESULT:      -7.0      3.585      7.704
  Name = 
  9 active torsions:
  status: ('A' for Active; 'I' for Inactive)
    1  A    between atoms: C_2  and  N_17
    2  A    between atoms: C_6  and  C_15
    3  A    between atoms: C_7  and  N_8
    4  A    between atoms: C_7  and  C_23
    5  A    between atoms: C_15  and  C_25
    6  A    between atoms: N_19  and  C_38
    7  A    between atoms: C_23  and  C_29
    8  A    between atoms: C_25  and  N_28
    9  A    between atoms: C_29  and  C_38
                            x       y       z     vdW  Elec       q    Type
                         _______ _______ _______ _____ _____    ______ ____

>  <TORSDO>
F 9

$$$$
=
 OpenBabel10232412243D

 38 41  0  0  1  0  0  0  0  0999 V2000
  188.6250  177.6720  140.4610 C   0  0  0  0  0  0  0  0  0  0  0  0
  191.3870  175.8730  137.2680 C   0  0  0  0  0  0  0  0  0  0  0  0
  189.7920  176.8340  140.5250 N   0  0  0  0  0  0  0  0  0  0  0  0
  189.3960  177.2550  136.9440 C   0  0  0  0  0  3  0  0  0  0  0  0
  188.2340  177.9490  139.0970 N   0  0  0  0  0  0  0  0  0  0  0  0
  186.8040  176.8970  144.2780 S   0  0  0  0  0  0  0  0  0  0  0  0
  188.8690  178.1330  142.8450 C   0  0  0  0  0  0  0  0  0  0  0  0
  189.4240  177.8430  145.0120 C   0  0  0  0  0  0  0  0  0  0  0  0
  189.2320  177.2740  138.3330 C   0  0  0  0  0  0  0  0  0  0  0  0
  185.0000  177.9150  141.9820 C   0  0  0  0  0  2  0  0  0  0  0  0
  184.6930  178.4140  143.3950 C   0  0  0  0  0  2  0  0  0  0  0  0
  185.6830  178.9740  141.1260 C   0  0  0  0  0  2  0  0  0  0  0  0
  190.2670  178.6380  143.0200 C   0  0  0  0  0  3  0  0  0  0  0  0
  190.5140  178.3610  144.4710 C   0  0  0  0  0  3  0  0  0  0  0  0
  190.1170  176.6320  139.1600 C   0  0  0  0  0  0  0  0  0  0  0  0
  189.2960  177.3380  146.6910 Cl  0  0  0  0  0  0  0  0  0  0  0  0
  191.2110  175.9250  138.6630 C   0  0  0  0  0  3  0  0  0  0  0  0
  188.3970  177.6810  144.0040 C   0  0  2  0  0  3  0  0  0  0  0  0
  187.0580  179.2180  141.5500 N   0  0  0  0  0  2  0  0  0  0  0  0
  185.9350  178.4910  144.2710 C   0  0  0  0  0  2  0  0  0  0  0  0
  188.1150  178.2430  141.5790 C   0  0  1  0  0  3  0  0  0  0  0  0
  190.4800  176.5410  136.4170 C   0  0  0  0  0  3  0  0  0  0  0  0
  186.0460  177.5900  138.0960 C   0  0  1  0  0  3  0  0  0  0  0  0
  186.9570  178.4140  138.6380 C   0  0  0  0  0  2  0  0  0  0  0  0
  186.4280  178.0580  137.2640 C   0  0  0  0  0  1  0  0  0  0  0  0
  185.5880  176.7160  137.3360 C   0  0  0  0  0  2  0  0  0  0  0  0
  184.1870  176.9160  136.7880 C   0  0  0  0  0  2  0  0  0  0  0  0
  183.3060  175.8690  137.2860 N   0  0  0  0  0  2  0  0  0  0  0  0
  182.4680  177.2830  139.1510 N   0  0  0  0  0  2  0  0  0  0  0  0
  182.3650  176.1070  138.3330 C   0  0  0  0  0  0  0  0  0  0  0  0
  181.4660  175.2520  138.5550 O   0  0  0  0  0  0  0  0  0  0  0  0
  181.5460  177.5800  140.2430 C   0  0  0  0  0  2  0  0  0  0  0  0
  181.6700  179.0340  140.6800 C   0  0  2  0  0  3  0  0  0  0  0  0
  181.2930  179.1510  142.4220 Cl  0  0  0  0  0  0  0  0  0  0  0  0
  180.7140  179.9130  139.8830 C   0  0  0  0  0  2  0  0  0  0  0  0
  181.4830  180.7070  138.8450 C   0  0  0  0  0  1  0  0  0  0  0  0
  192.4810  175.1540  136.6910 N   0  0  0  0  0  2  0  0  0  0  0  0
  193.1080  174.0100  137.3370 C   0  0  0  0  0  1  0  0  0  0  0  0
  1  3  2  0  0  0  0
  2 17  1  0  0  0  0
  4  9  2  0  0  0  0
  5  1  1  0  0  0  0
  7 13  2  0  0  0  0
  8 16  1  0  0  0  0
  9  5  1  0  0  0  0
  9 15  1  0  0  0  0
 10 11  1  0  0  0  0
 11 20  1  0  0  0  0
 12 19  1  0  0  0  0
 12 10  1  0  0  0  0
 13 14  1  0  0  0  0
 14  8  2  0  0  0  0
 15  3  1  0  0  0  0
 17 15  2  0  0  0  0
 18  7  1  6  0  0  0
 18  6  1  0  0  0  0
 18  8  1  0  0  0  0
 19 21  1  0  0  0  0
 20  6  1  0  0  0  0
 21  1  1  6  0  0  0
 21  7  1  0  0  0  0
 22  4  1  0  0  0  0
 22  2  2  0  0  0  0
 23 25  1  6  0  0  0
 23 24  1  0  0  0  0
 24  5  1  0  0  0  0
 26 23  1  0  0  0  0
 27 28  1  0  0  0  0
 27 26  1  0  0  0  0
 28 30  1  0  0  0  0
 29 32  1  0  0  0  0
 30 31  2  0  0  0  0
 30 29  1  0  0  0  0
 32 33  1  0  0  0  0
 33 34  1  1  0  0  0
 35 33  1  0  0  0  0
 36 35  1  0  0  0  0
 37  2  1  0  0  0  0
 37 38  1  0  0  0  0
M  END
>  <MODEL>
8

>  <REMARK>
 VINA RESULT:      -6.8      3.325      7.480
  Name = 
  9 active torsions:
  status: ('A' for Active; 'I' for Inactive)
    1  A    between atoms: C_2  and  N_17
    2  A    between atoms: C_6  and  C_15
    3  A    between atoms: C_7  and  N_8
    4  A    between atoms: C_7  and  C_23
    5  A    between atoms: C_15  and  C_25
    6  A    between atoms: N_19  and  C_38
    7  A    between atoms: C_23  and  C_29
    8  A    between atoms: C_25  and  N_28
    9  A    between atoms: C_29  and  C_38
                            x       y       z     vdW  Elec       q    Type
                         _______ _______ _______ _____ _____    ______ ____

>  <TORSDO>
F 9

$$$$
=
 OpenBabel10232412243D

 38 41  0  0  1  0  0  0  0  0999 V2000
  190.6860  174.6920  136.9220 C   0  0  0  0  0  0  0  0  0  0  0  0
  194.4640  172.1190  136.5050 C   0  0  0  0  0  0  0  0  0  0  0  0
  190.9900  173.4990  136.1780 N   0  0  0  0  0  0  0  0  0  0  0  0
  194.1620  174.1670  137.8060 C   0  0  0  0  0  3  0  0  0  0  0  0
  191.8400  175.1880  137.6390 N   0  0  0  0  0  0  0  0  0  0  0  0
  187.2910  176.2070  134.7630 S   0  0  0  0  0  0  0  0  0  0  0  0
  188.3110  174.2880  136.5300 C   0  0  0  0  0  0  0  0  0  0  0  0
  186.4230  173.5680  135.5290 C   0  0  0  0  0  0  0  0  0  0  0  0
  192.8490  174.2290  137.3280 C   0  0  0  0  0  0  0  0  0  0  0  0
  188.9700  178.2020  136.4250 C   0  0  0  0  0  2  0  0  0  0  0  0
  187.4570  178.4190  136.3800 C   0  0  0  0  0  2  0  0  0  0  0  0
  189.4350  177.6130  137.7510 C   0  0  0  0  0  2  0  0  0  0  0  0
  188.0510  172.8960  137.0150 C   0  0  0  0  0  2  0  0  0  0  0  0
  186.8080  172.5360  136.2600 C   0  0  0  0  0  3  0  0  0  0  0  0
  192.3550  173.2680  136.4850 C   0  0  0  0  0  0  0  0  0  0  0  0
  185.0260  173.5590  134.4610 Cl  0  0  0  0  0  0  0  0  0  0  0  0
  193.1320  172.1940  136.0560 C   0  0  0  0  0  3  0  0  0  0  0  0
  187.3610  174.6610  135.6770 C   0  0  0  0  0  0  0  0  0  0  0  0
  189.0330  176.2190  137.9030 N   0  0  0  0  0  2  0  0  0  0  0  0
  186.6830  177.1190  136.2100 C   0  0  0  0  0  2  0  0  0  0  0  0
  189.4110  175.1350  137.0370 C   0  0  1  0  0  3  0  0  0  0  0  0
  194.9690  173.1040  137.3800 C   0  0  0  0  0  3  0  0  0  0  0  0
  193.1560  176.8730  138.7980 C   0  0  0  0  0  2  0  0  0  0  0  0
  192.0300  176.5090  138.1670 C   0  0  0  0  0  2  0  0  0  0  0  0
  192.5100  176.7360  139.5850 C   0  0  0  0  0  2  0  0  0  0  0  0
  191.4610  177.6210  140.3790 C   0  0  0  0  0  2  0  0  0  0  0  0
  191.4270  177.2440  141.8480 C   0  0  0  0  0  2  0  0  0  0  0  0
  190.2990  176.3620  142.1080 N   0  0  0  0  0  2  0  0  0  0  0  0
  189.8520  177.3780  144.3330 N   0  0  0  0  0  2  0  0  0  0  0  0
  189.4480  176.5360  143.2410 C   0  0  0  0  0  0  0  0  0  0  0  0
  188.3540  175.9120  143.2880 O   0  0  0  0  0  0  0  0  0  0  0  0
  189.0350  177.5890  145.5240 C   0  0  0  0  0  2  0  0  0  0  0  0
  189.6860  176.9600  146.7490 C   0  0  2  0  0  3  0  0  0  0  0  0
  189.2490  177.9150  148.1930 Cl  0  0  0  0  0  0  0  0  0  0  0  0
  191.2020  176.9270  146.5900 C   0  0  0  0  0  2  0  0  0  0  0  0
  191.7800  175.7640  147.3720 C   0  0  0  0  0  1  0  0  0  0  0  0
  195.3200  171.0490  136.0920 N   0  0  0  0  0  2  0  0  0  0  0  0
  196.5120  170.6580  136.8290 C   0  0  0  0  0  1  0  0  0  0  0  0
  1  5  1  0  0  0  0
  2 22  1  0  0  0  0
  3 15  1  0  0  0  0
  3  1  2  0  0  0  0
  5 24  1  0  0  0  0
  6 18  1  0  0  0  0
  6 20  1  0  0  0  0
  7 13  1  0  0  0  0
  7 21  1  0  0  0  0
  8 18  1  0  0  0  0
  8 14  2  0  0  0  0
  9  5  1  0  0  0  0
  9  4  1  0  0  0  0
 10 12  1  0  0  0  0
 11 10  1  0  0  0  0
 12 19  1  0  0  0  0
 14 13  1  0  0  0  0
 15  9  2  0  0  0  0
 16  8  1  0  0  0  0
 17 15  1  0  0  0  0
 17  2  2  0  0  0  0
 18  7  2  0  0  0  0
 20 11  1  0  0  0  0
 21  1  1  1  0  0  0
 21 19  1  0  0  0  0
 22  4  2  0  0  0  0
 23 25  1  0  0  0  0
 24 23  1  0  0  0  0
 25 26  1  0  0  0  0
 26 27  1  0  0  0  0
 27 28  1  0  0  0  0
 28 30  1  0  0  0  0
 29 32  1  0  0  0  0
 30 31  2  0  0  0  0
 30 29  1  0  0  0  0
 32 33  1  0  0  0  0
 33 34  1  1  0  0  0
 35 33  1  0  0  0  0
 35 36  1  0  0  0  0
 37  2  1  0  0  0  0
 37 38  1  0  0  0  0
M  END
>  <MODEL>
9

>  <REMARK>
 VINA RESULT:      -6.8      4.464      6.694
  Name = 
  9 active torsions:
  status: ('A' for Active; 'I' for Inactive)
    1  A    between atoms: C_2  and  N_17
    2  A    between atoms: C_6  and  C_15
    3  A    between atoms: C_7  and  N_8
    4  A    between atoms: C_7  and  C_23
    5  A    between atoms: C_15  and  C_25
    6  A    between atoms: N_19  and  C_38
    7  A    between atoms: C_23  and  C_29
    8  A    between atoms: C_25  and  N_28
    9  A    between atoms: C_29  and  C_38
                            x       y       z     vdW  Elec       q    Type
                         _______ _______ _______ _____ _____    ______ ____

>  <TORSDO>
F 9

$$$$
