=
 OpenBabel10232408033D

 46 51  0  0  1  0  0  0  0  0999 V2000
  187.9760  178.0450  134.9930 C   0  0  0  0  0  1  0  0  0  0  0  0
  186.2460  178.8260  142.9940 C   0  0  0  0  0  0  0  0  0  0  0  0
  185.7520  177.5690  137.2620 O   0  0  0  0  0  0  0  0  0  0  0  0
  183.1690  177.0450  138.3490 O   0  0  0  0  0  0  0  0  0  0  0  0
  191.0300  174.9630  137.4740 C   0  0  0  0  0  3  0  0  0  0  0  0
  184.8320  179.1620  143.1220 C   0  0  2  0  0  3  0  0  0  0  0  0
  186.1280  175.8840  135.6840 N   0  0  0  0  0  2  0  0  0  0  0  0
  188.4350  177.1180  139.6500 S   0  0  0  0  0  0  0  0  0  0  0  0
  189.9020  176.5130  135.3790 C   0  0  1  0  0  3  0  0  0  0  0  0
  182.2170  177.2180  139.3940 C   0  0  0  0  0  2  0  0  0  0  0  0
  185.2830  176.8200  136.3600 C   0  0  0  0  0  0  0  0  0  0  0  0
  180.1810  178.7050  134.9450 F   0  0  0  0  0  0  0  0  0  0  0  0
  190.9250  176.9180  139.8660 C   0  0  0  0  0  3  0  0  0  0  0  0
  187.5450  175.7620  135.9930 C   0  0  0  0  0  2  0  0  0  0  0  0
  189.0260  178.5050  143.2650 O   0  0  0  0  0  0  0  0  0  0  0  0
  181.4400  178.3410  135.2840 C   0  0  0  0  0  0  0  0  0  0  0  0
  190.5100  177.5100  141.0210 N   0  0  0  0  0  0  0  0  0  0  0  0
  189.8890  176.6050  138.9900 C   0  0  0  0  0  0  0  0  0  0  0  0
  182.8390  176.9180  140.7470 C   0  0  0  0  0  2  0  0  0  0  0  0
  181.7460  177.9930  136.6850 C   0  0  0  0  0  3  0  0  0  0  0  0
  189.1690  177.6880  141.0510 C   0  0  0  0  0  0  0  0  0  0  0  0
  190.0000  176.0350  137.6210 C   0  0  1  0  0  3  0  0  0  0  0  0
  183.7370  178.0650  141.1760 C   0  0  0  0  0  2  0  0  0  0  0  0
  184.9670  179.1560  144.5090 N   0  0  0  0  0  2  0  0  0  0  0  0
  190.2080  177.0440  136.6610 O   0  0  0  0  0  0  0  0  0  0  0  0
  190.5520  175.1420  135.0590 C   0  0  0  0  0  2  0  0  0  0  0  0
  191.3140  174.5570  136.2280 C   0  0  0  0  0  0  0  0  0  0  0  0
  183.8040  177.9220  134.7100 C   0  0  0  0  0  2  0  0  0  0  0  0
  182.8970  177.3780  137.0140 C   0  0  0  0  0  0  0  0  0  0  0  0
  183.8650  176.9650  135.9090 C   0  0  2  0  0  3  0  0  0  0  0  0
  188.4380  178.2790  142.1730 C   0  0  0  0  0  0  0  0  0  0  0  0
  188.4070  176.5880  135.0290 C   0  0  1  0  0  3  0  0  0  0  0  0
  182.3810  178.2470  134.3460 C   0  0  0  0  0  3  0  0  0  0  0  0
  186.3230  178.8700  144.4410 O   0  0  0  0  0  0  0  0  0  0  0  0
  187.0530  178.5810  142.0100 N   0  0  0  0  0  0  0  0  0  0  0  0
  183.9700  177.9930  142.6740 C   0  0  0  0  0  2  0  0  0  0  0  0
  194.6490  171.3890  135.2370 C   0  0  0  0  0  1  0  0  0  0  0  0
  194.7130  174.7670  137.1540 C   0  0  0  0  0  1  0  0  0  0  0  0
  194.3650  173.3020  136.8750 C   0  0  0  0  0  0  0  0  0  0  0  0
  193.2950  173.6270  134.4830 S   0  0  0  0  0  0  0  0  0  0  0  0
  192.2500  173.4090  135.9700 C   0  0  1  0  0  3  0  0  0  0  0  0
  192.9960  173.1020  137.1310 O   0  0  0  0  0  0  0  0  0  0  0  0
  194.6750  172.9160  135.4160 C   0  0  2  0  0  0  0  0  0  0  0  0
  195.1780  172.4660  137.8630 C   0  0  0  0  0  1  0  0  0  0  0  0
  195.9300  173.4550  135.0350 O   0  0  0  0  0  0  0  0  0  0  0  0
  196.7010  172.4760  134.3800 C   0  0  0  0  0  1  0  0  0  0  0  0
  2  6  1  0  0  0  0
  2 34  1  0  0  0  0
  4 10  1  0  0  0  0
  6 36  1  1  0  0  0
  6 24  1  0  0  0  0
  7 14  1  0  0  0  0
  7 11  1  0  0  0  0
  8 21  1  0  0  0  0
  9 26  1  1  0  0  0
  9 25  1  0  0  0  0
 10 19  1  0  0  0  0
 11  3  2  0  0  0  0
 12 16  1  0  0  0  0
 13 17  1  0  0  0  0
 16 20  1  0  0  0  0
 17 21  2  0  0  0  0
 18  8  1  0  0  0  0
 18 13  2  0  0  0  0
 19 23  1  0  0  0  0
 20 29  2  0  0  0  0
 21 31  1  0  0  0  0
 22  5  1  1  0  0  0
 22 18  1  0  0  0  0
 23 36  1  0  0  0  0
 25 22  1  0  0  0  0
 26 27  1  0  0  0  0
 27  5  2  0  0  0  0
 29  4  1  0  0  0  0
 30 28  1  6  0  0  0
 30 11  1  0  0  0  0
 30 29  1  0  0  0  0
 31 15  2  0  0  0  0
 32  1  1  1  0  0  0
 32  9  1  0  0  0  0
 32 14  1  0  0  0  0
 33 28  1  0  0  0  0
 33 16  2  0  0  0  0
 34 24  1  0  0  0  0
 35 31  1  0  0  0  0
 35  2  2  0  0  0  0
 39 42  1  0  0  0  0
 39 38  1  0  0  0  0
 39 44  1  0  0  0  0
 40 43  1  0  0  0  0
 40 41  1  0  0  0  0
 41 27  1  1  0  0  0
 41 42  1  0  0  0  0
 43 37  1  6  0  0  0
 43 39  1  0  0  0  0
 45 43  1  0  0  0  0
 46 45  1  0  0  0  0
M  END
>  <MODEL>
1

>  <REMARK>
 VINA RESULT:      -6.5      0.000      0.000
  Name = 
  2 active torsions:
  status: ('A' for Active; 'I' for Inactive)
    1  A    between atoms: O_17  and  C_27
    2  A    between atoms: C_19  and  C_35
                            x       y       z     vdW  Elec       q    Type
                         _______ _______ _______ _____ _____    ______ ____

>  <TORSDO>
F 2

$$$$
=
 OpenBabel10232408033D

 46 51  0  0  1  0  0  0  0  0999 V2000
  183.6010  179.7910  140.3730 C   0  0  0  0  0  1  0  0  0  0  0  0
  191.4430  177.4640  139.5340 C   0  0  0  0  0  0  0  0  0  0  0  0
  186.0750  178.3180  141.7990 O   0  0  0  0  0  0  0  0  0  0  0  0
  187.5960  177.1930  143.9320 O   0  0  0  0  0  0  0  0  0  0  0  0
  183.7390  176.3290  136.7710 C   0  0  0  0  0  3  0  0  0  0  0  0
  192.0970  177.5940  140.8320 C   0  0  2  0  0  3  0  0  0  0  0  0
  183.9480  177.3610  141.9650 N   0  0  0  0  0  2  0  0  0  0  0  0
  187.2200  177.2950  138.5210 S   0  0  0  0  0  0  0  0  0  0  0  0
  182.8050  178.4150  138.4560 C   0  0  1  0  0  3  0  0  0  0  0  0
  188.8600  176.8860  144.5120 C   0  0  0  0  0  2  0  0  0  0  0  0
  185.1400  177.9050  142.5400 C   0  0  0  0  0  0  0  0  0  0  0  0
  186.0970  179.6760  147.7870 F   0  0  0  0  0  0  0  0  0  0  0  0
  186.6040  177.2700  136.0910 C   0  0  0  0  0  3  0  0  0  0  0  0
  183.7580  177.2720  140.5250 C   0  0  0  0  0  2  0  0  0  0  0  0
  190.7460  177.3340  136.8140 O   0  0  0  0  0  0  0  0  0  0  0  0
  185.8900  179.3360  146.4930 C   0  0  0  0  0  0  0  0  0  0  0  0
  187.9630  177.3620  136.1170 N   0  0  0  0  0  0  0  0  0  0  0  0
  186.0210  177.1970  137.3530 C   0  0  0  0  0  0  0  0  0  0  0  0
  189.7560  176.1790  143.5090 C   0  0  0  0  0  2  0  0  0  0  0  0
  186.9030  178.5380  145.7780 C   0  0  0  0  0  3  0  0  0  0  0  0
  188.4500  177.3890  137.3790 C   0  0  0  0  0  0  0  0  0  0  0  0
  184.5710  177.1730  137.6820 C   0  0  1  0  0  3  0  0  0  0  0  0
  190.2970  177.1740  142.4980 C   0  0  0  0  0  2  0  0  0  0  0  0
  193.2760  177.1010  140.2760 N   0  0  0  0  0  2  0  0  0  0  0  0
  184.0410  178.4740  137.7580 O   0  0  0  0  0  0  0  0  0  0  0  0
  181.8210  177.3210  137.9660 C   0  0  0  0  0  2  0  0  0  0  0  0
  182.4080  176.4290  136.8950 C   0  0  0  0  0  0  0  0  0  0  0  0
  184.5330  179.3810  144.4310 C   0  0  0  0  0  2  0  0  0  0  0  0
  186.6250  177.9580  144.5950 C   0  0  0  0  0  0  0  0  0  0  0  0
  185.2140  178.0660  144.0250 C   0  0  2  0  0  3  0  0  0  0  0  0
  189.8730  177.4620  137.7150 C   0  0  0  0  0  0  0  0  0  0  0  0
  182.9640  178.4680  139.9850 C   0  0  1  0  0  3  0  0  0  0  0  0
  184.7520  179.6780  145.8890 C   0  0  0  0  0  3  0  0  0  0  0  0
  192.7110  176.9900  139.0140 O   0  0  0  0  0  0  0  0  0  0  0  0
  190.2490  177.6690  139.0760 N   0  0  0  0  0  0  0  0  0  0  0  0
  191.5210  176.5890  141.8160 C   0  0  0  0  0  2  0  0  0  0  0  0
  179.9820  173.3010  134.3500 C   0  0  0  0  0  1  0  0  0  0  0  0
  182.5010  172.9220  137.2830 C   0  0  0  0  0  1  0  0  0  0  0  0
  181.2000  173.3080  136.5730 C   0  0  0  0  0  0  0  0  0  0  0  0
  182.2540  174.7720  134.6450 S   0  0  0  0  0  0  0  0  0  0  0  0
  181.4770  175.5470  136.1090 C   0  0  1  0  0  3  0  0  0  0  0  0
  180.8400  174.6120  136.9580 O   0  0  0  0  0  0  0  0  0  0  0  0
  181.3550  173.2510  135.0410 C   0  0  2  0  0  0  0  0  0  0  0  0
  180.1300  172.3360  137.0670 C   0  0  0  0  0  1  0  0  0  0  0  0
  182.0690  172.0810  134.6760 O   0  0  0  0  0  0  0  0  0  0  0  0
  181.1720  171.0310  134.4010 C   0  0  0  0  0  1  0  0  0  0  0  0
  2  6  1  0  0  0  0
  3 11  2  0  0  0  0
  4 10  1  0  0  0  0
  4 29  1  0  0  0  0
  5 27  2  0  0  0  0
  6 36  1  1  0  0  0
  7 11  1  0  0  0  0
  9 26  1  1  0  0  0
  9 32  1  0  0  0  0
 11 30  1  0  0  0  0
 13 17  1  0  0  0  0
 13 18  2  0  0  0  0
 14  7  1  0  0  0  0
 15 31  2  0  0  0  0
 16 12  1  0  0  0  0
 17 21  2  0  0  0  0
 18 22  1  0  0  0  0
 18  8  1  0  0  0  0
 19 10  1  0  0  0  0
 20 16  1  0  0  0  0
 21 31  1  0  0  0  0
 21  8  1  0  0  0  0
 22  5  1  6  0  0  0
 22 25  1  0  0  0  0
 23 19  1  0  0  0  0
 24  6  1  0  0  0  0
 25  9  1  0  0  0  0
 27 26  1  0  0  0  0
 28 33  1  0  0  0  0
 29 20  2  0  0  0  0
 30 28  1  6  0  0  0
 30 29  1  0  0  0  0
 31 35  1  0  0  0  0
 32  1  1  6  0  0  0
 32 14  1  0  0  0  0
 33 16  2  0  0  0  0
 34  2  1  0  0  0  0
 34 24  1  0  0  0  0
 35  2  2  0  0  0  0
 36 23  1  0  0  0  0
 39 42  1  0  0  0  0
 39 44  1  0  0  0  0
 39 38  1  0  0  0  0
 40 43  1  0  0  0  0
 40 41  1  0  0  0  0
 41 27  1  1  0  0  0
 41 42  1  0  0  0  0
 43 37  1  6  0  0  0
 43 39  1  0  0  0  0
 45 43  1  0  0  0  0
 46 45  1  0  0  0  0
M  END
>  <MODEL>
2

>  <REMARK>
 VINA RESULT:      -6.0      4.161      9.289
  Name = 
  2 active torsions:
  status: ('A' for Active; 'I' for Inactive)
    1  A    between atoms: O_17  and  C_27
    2  A    between atoms: C_19  and  C_35
                            x       y       z     vdW  Elec       q    Type
                         _______ _______ _______ _____ _____    ______ ____

>  <TORSDO>
F 2

$$$$
=
 OpenBabel10232408033D

 46 51  0  0  1  0  0  0  0  0999 V2000
  187.5150  179.9040  137.6900 C   0  0  0  0  0  1  0  0  0  0  0  0
  186.7100  178.6970  145.7840 C   0  0  0  0  0  0  0  0  0  0  0  0
  185.4660  179.1480  140.0460 O   0  0  0  0  0  0  0  0  0  0  0  0
  182.9440  178.7240  141.3070 O   0  0  0  0  0  0  0  0  0  0  0  0
  190.1990  175.8520  138.8550 C   0  0  0  0  0  3  0  0  0  0  0  0
  185.3960  179.1840  146.1880 C   0  0  2  0  0  3  0  0  0  0  0  0
  185.3890  177.9270  138.0530 N   0  0  0  0  0  2  0  0  0  0  0  0
  188.2400  177.6760  141.8460 S   0  0  0  0  0  0  0  0  0  0  0  0
  189.1700  178.0650  137.4020 C   0  0  1  0  0  3  0  0  0  0  0  0
  182.1400  178.7390  142.4830 C   0  0  0  0  0  2  0  0  0  0  0  0
  184.7890  178.7530  139.0560 C   0  0  0  0  0  0  0  0  0  0  0  0
  179.9890  181.6690  138.8870 F   0  0  0  0  0  0  0  0  0  0  0  0
  190.6650  177.0680  141.6590 C   0  0  0  0  0  3  0  0  0  0  0  0
  186.7850  177.5220  138.1220 C   0  0  0  0  0  2  0  0  0  0  0  0
  189.4030  177.9160  145.5780 O   0  0  0  0  0  0  0  0  0  0  0  0
  181.1900  181.0480  138.9450 C   0  0  0  0  0  0  0  0  0  0  0  0
  190.4710  177.3730  142.9720 N   0  0  0  0  0  0  0  0  0  0  0  0
  189.5130  177.1610  140.8820 C   0  0  0  0  0  0  0  0  0  0  0  0
  182.8240  177.9920  143.6150 C   0  0  0  0  0  2  0  0  0  0  0  0
  181.5610  180.2890  140.1540 C   0  0  0  0  0  3  0  0  0  0  0  0
  189.1910  177.7280  143.2310 C   0  0  0  0  0  0  0  0  0  0  0  0
  189.3920  176.9800  139.4120 C   0  0  1  0  0  3  0  0  0  0  0  0
  183.9460  178.8340  144.1950 C   0  0  0  0  0  2  0  0  0  0  0  0
  185.6570  178.7770  147.4940 N   0  0  0  0  0  2  0  0  0  0  0  0
  189.6840  178.1720  138.7230 O   0  0  0  0  0  0  0  0  0  0  0  0
  189.5360  176.7550  136.6560 C   0  0  0  0  0  2  0  0  0  0  0  0
  190.2890  175.7680  137.5190 C   0  0  0  0  0  0  0  0  0  0  0  0
  183.3790  180.4670  137.9630 C   0  0  0  0  0  2  0  0  0  0  0  0
  182.6110  179.4470  140.1530 C   0  0  0  0  0  0  0  0  0  0  0  0
  183.3830  179.2190  138.8570 C   0  0  2  0  0  3  0  0  0  0  0  0
  188.6850  178.0860  144.5570 C   0  0  0  0  0  0  0  0  0  0  0  0
  187.6850  178.4480  137.2920 C   0  0  1  0  0  3  0  0  0  0  0  0
  182.0080  181.0820  137.8940 C   0  0  0  0  0  3  0  0  0  0  0  0
  186.9290  178.3290  147.1690 O   0  0  0  0  0  0  0  0  0  0  0  0
  187.3650  178.6180  144.6680 N   0  0  0  0  0  0  0  0  0  0  0  0
  184.3030  178.3200  145.5780 C   0  0  0  0  0  2  0  0  0  0  0  0
  192.8420  172.5700  135.1960 C   0  0  0  0  0  1  0  0  0  0  0  0
  193.8120  175.5620  137.4760 C   0  0  0  0  0  1  0  0  0  0  0  0
  193.2310  174.1960  137.1020 C   0  0  0  0  0  0  0  0  0  0  0  0
  191.6120  174.9990  135.1770 S   0  0  0  0  0  0  0  0  0  0  0  0
  190.9800  174.6130  136.8500 C   0  0  1  0  0  3  0  0  0  0  0  0
  191.9650  174.0590  137.7000 O   0  0  0  0  0  0  0  0  0  0  0  0
  193.0950  174.0390  135.5750 C   0  0  2  0  0  0  0  0  0  0  0  0
  194.1710  173.1460  137.6940 C   0  0  0  0  0  1  0  0  0  0  0  0
  194.2600  174.5380  134.9370 O   0  0  0  0  0  0  0  0  0  0  0  0
  194.9800  173.4830  134.3460 C   0  0  0  0  0  1  0  0  0  0  0  0
  2  6  1  0  0  0  0
  2 34  1  0  0  0  0
  4 10  1  0  0  0  0
  6 36  1  6  0  0  0
  6 24  1  0  0  0  0
  7 14  1  0  0  0  0
  7 11  1  0  0  0  0
  8 21  1  0  0  0  0
  9 26  1  1  0  0  0
  9 25  1  0  0  0  0
 10 19  1  0  0  0  0
 11  3  2  0  0  0  0
 12 16  1  0  0  0  0
 13 17  1  0  0  0  0
 16 20  1  0  0  0  0
 17 21  2  0  0  0  0
 18 13  2  0  0  0  0
 18  8  1  0  0  0  0
 19 23  1  0  0  0  0
 21 31  1  0  0  0  0
 22  5  1  6  0  0  0
 22 18  1  0  0  0  0
 23 36  1  0  0  0  0
 25 22  1  0  0  0  0
 26 27  1  0  0  0  0
 27  5  2  0  0  0  0
 29 20  2  0  0  0  0
 29  4  1  0  0  0  0
 30 28  1  1  0  0  0
 30 11  1  0  0  0  0
 30 29  1  0  0  0  0
 31 35  1  0  0  0  0
 31 15  2  0  0  0  0
 32  9  1  0  0  0  0
 32  1  1  1  0  0  0
 32 14  1  0  0  0  0
 33 28  1  0  0  0  0
 33 16  2  0  0  0  0
 34 24  1  0  0  0  0
 35  2  2  0  0  0  0
 39 38  1  0  0  0  0
 39 44  1  0  0  0  0
 39 42  1  0  0  0  0
 40 43  1  0  0  0  0
 40 41  1  0  0  0  0
 41 27  1  1  0  0  0
 41 42  1  0  0  0  0
 43 37  1  6  0  0  0
 43 39  1  0  0  0  0
 45 43  1  0  0  0  0
 46 45  1  0  0  0  0
M  END
>  <MODEL>
3

>  <REMARK>
 VINA RESULT:      -5.2      2.407      2.872
  Name = 
  2 active torsions:
  status: ('A' for Active; 'I' for Inactive)
    1  A    between atoms: O_17  and  C_27
    2  A    between atoms: C_19  and  C_35
                            x       y       z     vdW  Elec       q    Type
                         _______ _______ _______ _____ _____    ______ ____

>  <TORSDO>
F 2

$$$$
=
 OpenBabel10232408033D

 46 51  0  0  1  0  0  0  0  0999 V2000
  188.2240  176.5280  139.3420 C   0  0  0  0  0  1  0  0  0  0  0  0
  183.4110  171.2530  135.2650 C   0  0  0  0  0  0  0  0  0  0  0  0
  185.6220  176.2410  137.4800 O   0  0  0  0  0  0  0  0  0  0  0  0
  183.1810  177.0190  136.2280 O   0  0  0  0  0  0  0  0  0  0  0  0
  190.9650  174.5780  135.6450 C   0  0  0  0  0  3  0  0  0  0  0  0
  182.0350  171.7310  135.3540 C   0  0  2  0  0  3  0  0  0  0  0  0
  187.1360  177.9670  137.0380 N   0  0  0  0  0  2  0  0  0  0  0  0
  187.1590  173.3410  135.9560 S   0  0  0  0  0  0  0  0  0  0  0  0
  190.2590  175.9640  138.0220 C   0  0  1  0  0  3  0  0  0  0  0  0
  181.9060  176.6690  135.6970 C   0  0  0  0  0  2  0  0  0  0  0  0
  185.8280  177.4800  137.3490 C   0  0  0  0  0  0  0  0  0  0  0  0
  181.3470  180.2570  139.2970 F   0  0  0  0  0  0  0  0  0  0  0  0
  189.2750  171.9990  135.8640 C   0  0  0  0  0  3  0  0  0  0  0  0
  188.2720  177.0730  136.8730 C   0  0  0  0  0  2  0  0  0  0  0  0
  185.7950  169.7790  135.0650 O   0  0  0  0  0  0  0  0  0  0  0  0
  182.4200  179.5320  138.9050 C   0  0  0  0  0  0  0  0  0  0  0  0
  188.2710  171.1020  135.6530 N   0  0  0  0  0  0  0  0  0  0  0  0
  188.8350  173.3100  136.0290 C   0  0  0  0  0  0  0  0  0  0  0  0
  182.0250  175.5070  134.7260 C   0  0  0  0  0  2  0  0  0  0  0  0
  182.2690  178.5200  137.8430 C   0  0  0  0  0  3  0  0  0  0  0  0
  187.0510  171.6870  135.6770 C   0  0  0  0  0  0  0  0  0  0  0  0
  189.6530  174.5070  136.3560 C   0  0  1  0  0  3  0  0  0  0  0  0
  182.2270  174.2090  135.4870 C   0  0  0  0  0  2  0  0  0  0  0  0
  181.6220  170.6590  134.5660 N   0  0  0  0  0  2  0  0  0  0  0  0
  189.8450  174.6330  137.7450 O   0  0  0  0  0  0  0  0  0  0  0  0
  191.4180  176.4920  137.1360 C   0  0  0  0  0  2  0  0  0  0  0  0
  191.8270  175.5230  136.0500 C   0  0  0  0  0  0  0  0  0  0  0  0
  184.8080  178.9290  139.0770 C   0  0  0  0  0  2  0  0  0  0  0  0
  183.3420  177.9740  137.2430 C   0  0  0  0  0  0  0  0  0  0  0  0
  184.7370  178.4680  137.6140 C   0  0  2  0  0  3  0  0  0  0  0  0
  185.7900  170.9760  135.4590 C   0  0  0  0  0  0  0  0  0  0  0  0
  189.0890  176.9500  138.1660 C   0  0  1  0  0  3  0  0  0  0  0  0
  183.6170  179.7730  139.4390 C   0  0  0  0  0  3  0  0  0  0  0  0
  182.9070  170.1440  134.4780 O   0  0  0  0  0  0  0  0  0  0  0  0
  184.5620  171.6660  135.6910 N   0  0  0  0  0  0  0  0  0  0  0  0
  181.8790  173.0350  134.5890 C   0  0  0  0  0  2  0  0  0  0  0  0
  196.1710  176.1330  134.3470 C   0  0  0  0  0  1  0  0  0  0  0  0
  194.5810  173.3810  136.5800 C   0  0  0  0  0  1  0  0  0  0  0  0
  194.8340  174.2110  135.3190 C   0  0  0  0  0  0  0  0  0  0  0  0
  194.3920  176.5990  136.3550 S   0  0  0  0  0  0  0  0  0  0  0  0
  193.1280  175.7580  135.3340 C   0  0  1  0  0  3  0  0  0  0  0  0
  193.5980  174.5600  134.7470 O   0  0  0  0  0  0  0  0  0  0  0  0
  195.6310  175.4920  135.6360 C   0  0  2  0  0  0  0  0  0  0  0  0
  195.5890  173.3060  134.3460 C   0  0  0  0  0  1  0  0  0  0  0  0
  196.6850  175.1880  136.5370 O   0  0  0  0  0  0  0  0  0  0  0  0
  197.9300  175.3840  135.9100 C   0  0  0  0  0  1  0  0  0  0  0  0
  2  6  1  0  0  0  0
  2 35  2  0  0  0  0
  4 29  1  0  0  0  0
  5 27  2  0  0  0  0
  6 36  1  6  0  0  0
  7 11  1  0  0  0  0
  8 18  1  0  0  0  0
  9 26  1  6  0  0  0
  9 32  1  0  0  0  0
 10  4  1  0  0  0  0
 11  3  2  0  0  0  0
 11 30  1  0  0  0  0
 13 18  2  0  0  0  0
 14  7  1  0  0  0  0
 14 32  1  0  0  0  0
 15 31  2  0  0  0  0
 16 12  1  0  0  0  0
 16 33  2  0  0  0  0
 17 21  2  0  0  0  0
 17 13  1  0  0  0  0
 18 22  1  0  0  0  0
 19 23  1  0  0  0  0
 19 10  1  0  0  0  0
 20 16  1  0  0  0  0
 21  8  1  0  0  0  0
 22  5  1  6  0  0  0
 22 25  1  0  0  0  0
 24  6  1  0  0  0  0
 25  9  1  0  0  0  0
 27 26  1  0  0  0  0
 28 33  1  0  0  0  0
 29 30  1  0  0  0  0
 29 20  2  0  0  0  0
 30 28  1  1  0  0  0
 31 21  1  0  0  0  0
 31 35  1  0  0  0  0
 32  1  1  1  0  0  0
 34 24  1  0  0  0  0
 34  2  1  0  0  0  0
 36 23  1  0  0  0  0
 39 43  1  0  0  0  0
 39 38  1  0  0  0  0
 41 27  1  1  0  0  0
 41 40  1  0  0  0  0
 42 39  1  0  0  0  0
 42 41  1  0  0  0  0
 43 37  1  6  0  0  0
 43 40  1  0  0  0  0
 43 45  1  0  0  0  0
 44 39  1  0  0  0  0
 46 45  1  0  0  0  0
M  END
>  <MODEL>
4

>  <REMARK>
 VINA RESULT:      -5.0      3.517      6.046
  Name = 
  2 active torsions:
  status: ('A' for Active; 'I' for Inactive)
    1  A    between atoms: O_17  and  C_27
    2  A    between atoms: C_19  and  C_35
                            x       y       z     vdW  Elec       q    Type
                         _______ _______ _______ _____ _____    ______ ____

>  <TORSDO>
F 2

$$$$
=
 OpenBabel10232408033D

 46 51  0  0  1  0  0  0  0  0999 V2000
  184.2950  179.9860  141.2410 C   0  0  0  0  0  1  0  0  0  0  0  0
  191.9550  177.4970  139.5850 C   0  0  0  0  0  0  0  0  0  0  0  0
  186.7930  178.2740  142.3110 O   0  0  0  0  0  0  0  0  0  0  0  0
  188.4040  176.8580  144.1900 O   0  0  0  0  0  0  0  0  0  0  0  0
  184.0410  176.9570  137.2730 C   0  0  0  0  0  3  0  0  0  0  0  0
  192.7000  177.4540  140.8390 C   0  0  2  0  0  3  0  0  0  0  0  0
  184.6430  177.3790  142.5210 N   0  0  0  0  0  2  0  0  0  0  0  0
  187.6700  177.5940  138.8650 S   0  0  0  0  0  0  0  0  0  0  0  0
  183.3120  178.8690  139.2440 C   0  0  1  0  0  3  0  0  0  0  0  0
  189.6900  176.4430  144.6390 C   0  0  0  0  0  2  0  0  0  0  0  0
  185.8930  177.8110  143.0660 C   0  0  0  0  0  0  0  0  0  0  0  0
  187.2760  178.9330  148.3960 F   0  0  0  0  0  0  0  0  0  0  0  0
  186.8910  177.8690  136.4980 C   0  0  0  0  0  3  0  0  0  0  0  0
  184.3520  177.4620  141.0980 C   0  0  0  0  0  2  0  0  0  0  0  0
  191.0700  177.7050  136.9250 O   0  0  0  0  0  0  0  0  0  0  0  0
  186.9680  178.7520  147.0910 C   0  0  0  0  0  0  0  0  0  0  0  0
  188.2520  177.9100  136.4360 N   0  0  0  0  0  0  0  0  0  0  0  0
  186.3910  177.6720  137.7830 C   0  0  0  0  0  0  0  0  0  0  0  0
  190.4860  175.8240  143.5020 C   0  0  0  0  0  2  0  0  0  0  0  0
  187.8950  178.0050  146.2190 C   0  0  0  0  0  3  0  0  0  0  0  0
  188.8230  177.7750  137.6560 C   0  0  0  0  0  0  0  0  0  0  0  0
  184.9670  177.6610  138.2110 C   0  0  1  0  0  3  0  0  0  0  0  0
  191.0000  176.9090  142.5730 C   0  0  0  0  0  2  0  0  0  0  0  0
  193.8150  176.9870  140.1490 N   0  0  0  0  0  2  0  0  0  0  0  0
  184.5000  178.9640  138.4690 O   0  0  0  0  0  0  0  0  0  0  0  0
  182.2520  177.8720  138.7060 C   0  0  0  0  0  2  0  0  0  0  0  0
  182.7260  177.0900  137.5020 C   0  0  0  0  0  0  0  0  0  0  0  0
  185.4790  179.0800  145.1500 C   0  0  0  0  0  2  0  0  0  0  0  0
  187.5140  177.5760  145.0030 C   0  0  0  0  0  0  0  0  0  0  0  0
  186.0740  177.7980  144.5500 C   0  0  2  0  0  3  0  0  0  0  0  0
  190.2670  177.7590  137.8940 C   0  0  0  0  0  0  0  0  0  0  0  0
  183.5760  178.7400  140.7530 C   0  0  1  0  0  3  0  0  0  0  0  0
  185.8080  179.2000  146.6120 C   0  0  0  0  0  3  0  0  0  0  0  0
  193.1630  177.0420  138.9250 O   0  0  0  0  0  0  0  0  0  0  0  0
  190.7420  177.7950  139.2400 N   0  0  0  0  0  0  0  0  0  0  0  0
  192.1480  176.3640  141.7430 C   0  0  0  0  0  2  0  0  0  0  0  0
  179.9830  174.3190  134.8680 C   0  0  0  0  0  1  0  0  0  0  0  0
  182.4380  173.5840  137.7870 C   0  0  0  0  0  1  0  0  0  0  0  0
  181.1890  174.1280  137.0900 C   0  0  0  0  0  0  0  0  0  0  0  0
  182.4000  175.5250  135.2050 S   0  0  0  0  0  0  0  0  0  0  0  0
  181.7080  176.3370  136.6910 C   0  0  1  0  0  3  0  0  0  0  0  0
  180.9710  175.4520  137.5130 O   0  0  0  0  0  0  0  0  0  0  0  0
  181.3410  174.0990  135.5560 C   0  0  2  0  0  0  0  0  0  0  0  0
  180.0180  173.2640  137.5550 C   0  0  0  0  0  1  0  0  0  0  0  0
  181.9250  172.8700  135.1570 O   0  0  0  0  0  0  0  0  0  0  0  0
  183.1490  173.1040  134.5030 C   0  0  0  0  0  1  0  0  0  0  0  0
  2  6  1  0  0  0  0
  3 11  2  0  0  0  0
  4 10  1  0  0  0  0
  4 29  1  0  0  0  0
  5 27  2  0  0  0  0
  6 36  1  1  0  0  0
  7 11  1  0  0  0  0
  9 26  1  6  0  0  0
  9 32  1  0  0  0  0
 11 30  1  0  0  0  0
 13 18  2  0  0  0  0
 14  7  1  0  0  0  0
 15 31  2  0  0  0  0
 16 12  1  0  0  0  0
 17 13  1  0  0  0  0
 17 21  2  0  0  0  0
 18 22  1  0  0  0  0
 18  8  1  0  0  0  0
 19 10  1  0  0  0  0
 20 16  1  0  0  0  0
 21 31  1  0  0  0  0
 21  8  1  0  0  0  0
 22  5  1  6  0  0  0
 22 25  1  0  0  0  0
 23 19  1  0  0  0  0
 24  6  1  0  0  0  0
 25  9  1  0  0  0  0
 27 26  1  0  0  0  0
 28 33  1  0  0  0  0
 29 20  2  0  0  0  0
 30 29  1  0  0  0  0
 30 28  1  6  0  0  0
 31 35  1  0  0  0  0
 32 14  1  0  0  0  0
 32  1  1  6  0  0  0
 33 16  2  0  0  0  0
 34  2  1  0  0  0  0
 34 24  1  0  0  0  0
 35  2  2  0  0  0  0
 36 23  1  0  0  0  0
 39 42  1  0  0  0  0
 39 44  1  0  0  0  0
 39 38  1  0  0  0  0
 40 43  1  0  0  0  0
 40 41  1  0  0  0  0
 41 27  1  1  0  0  0
 41 42  1  0  0  0  0
 43 37  1  6  0  0  0
 43 39  1  0  0  0  0
 45 43  1  0  0  0  0
 46 45  1  0  0  0  0
M  END
>  <MODEL>
5

>  <REMARK>
 VINA RESULT:      -4.0      4.237      9.501
  Name = 
  2 active torsions:
  status: ('A' for Active; 'I' for Inactive)
    1  A    between atoms: O_17  and  C_27
    2  A    between atoms: C_19  and  C_35
                            x       y       z     vdW  Elec       q    Type
                         _______ _______ _______ _____ _____    ______ ____

>  <TORSDO>
F 2

$$$$
