=
 OpenBabel10232412433D

 45 49  0  0  1  0  0  0  0  0999 V2000
  183.9960  178.9210  142.7910 C   0  0  0  0  0  0  0  0  0  0  0  0
  186.9740  178.2590  140.7180 C   0  0  0  0  0  0  0  0  0  0  0  0
  182.7140  179.2930  143.3570 C   0  0  0  0  0  0  0  0  0  0  0  0
  184.7830  178.9080  141.6590 C   0  0  0  0  0  3  0  0  0  0  0  0
  188.5810  177.1610  142.1170 N   0  0  0  0  0  0  0  0  0  0  0  0
  183.1540  178.7690  144.6040 N   0  0  0  0  0  2  0  0  0  0  0  0
  181.6650  179.8450  142.9320 O   0  0  0  0  0  0  0  0  0  0  0  0
  188.2130  177.6450  140.9040 C   0  0  0  0  0  3  0  0  0  0  0  0
  187.7750  177.2340  143.2070 C   0  0  0  0  0  0  0  0  0  0  0  0
  186.4980  177.8100  143.0960 C   0  0  0  0  0  0  0  0  0  0  0  0
  185.6330  177.8560  144.2260 C   0  0  0  0  0  3  0  0  0  0  0  0
  184.4000  178.4260  143.9950 C   0  0  0  0  0  0  0  0  0  0  0  0
  186.0800  178.3420  141.8120 C   0  0  0  0  0  0  0  0  0  0  0  0
  188.2650  176.6660  144.5050 C   0  0  0  0  0  2  0  0  0  0  0  0
  188.6940  178.4850  147.6560 O   0  0  0  0  0  0  0  0  0  0  0  0
  188.1200  177.6470  145.5710 N   0  0  0  0  0  2  0  0  0  0  0  0
  190.4040  177.3420  146.5870 N   0  0  0  0  0  2  0  0  0  0  0  0
  189.0610  177.8450  146.6350 C   0  0  0  0  0  0  0  0  0  0  0  0
  191.0690  176.8590  145.3820 C   0  0  1  0  0  3  0  0  0  0  0  0
  190.9640  179.2600  144.5470 C   0  0  0  0  0  2  0  0  0  0  0  0
  191.8600  177.8730  143.1680 C   0  0  0  0  0  2  0  0  0  0  0  0
  191.0130  179.1270  143.0360 C   0  0  0  0  0  2  0  0  0  0  0  0
  191.8140  178.0100  144.6810 C   0  0  0  0  0  3  0  0  0  0  0  0
  191.9020  175.6400  145.6840 C   0  0  0  0  0  0  0  0  0  0  0  0
  192.1790  174.8660  144.7820 O   0  0  0  0  0  0  0  0  0  0  0  0
  192.4120  175.3720  147.0650 C   0  0  0  0  0  1  0  0  0  0  0  0
  186.6740  178.7490  139.4030 N   0  0  0  0  0  2  0  0  0  0  0  0
  186.5500  177.9330  138.2030 C   0  0  0  0  0  2  0  0  0  0  0  0
  187.6140  178.3270  137.1940 C   0  0  0  0  0  2  0  0  0  0  0  0
  187.4360  176.5700  135.5680 O   0  0  0  0  0  1  0  0  0  0  0  0
  188.2610  177.1010  136.5620 C   0  0  2  0  0  3  0  0  0  0  0  0
  188.5720  176.0500  137.6230 C   0  0  0  0  0  2  0  0  0  0  0  0
  192.1830  176.6720  138.6730 C   0  0  0  0  0  2  0  0  0  0  0  0
  192.8180  175.8300  137.6600 N   0  0  0  0  0  0  0  0  0  0  0  0
  190.7850  177.0720  138.2030 C   0  0  0  0  0  2  0  0  0  0  0  0
  190.0370  173.7590  136.8460 O   0  0  0  0  0  0  0  0  0  0  0  0
  192.1440  174.5320  137.6550 C   0  0  0  0  0  2  0  0  0  0  0  0
  190.6780  174.6960  137.3900 C   0  0  0  0  0  0  0  0  0  0  0  0
  190.0080  175.8930  137.8240 N   0  0  0  0  0  0  0  0  0  0  0  0
  194.1310  175.5960  138.0930 N   0  0  0  0  0  2  0  0  0  0  0  0
  195.4260  173.5610  138.5370 C   0  0  0  0  0  1  0  0  0  0  0  0
  194.5500  174.3120  137.5450 C   0  0  2  0  0  3  0  0  0  0  0  0
  195.4040  174.5440  135.9450 S   0  0  0  0  0  0  0  0  0  0  0  0
  197.5060  175.7640  136.9970 O   0  0  0  0  0  1  0  0  0  0  0  0
  197.1020  174.4900  136.6060 C   0  0  0  0  0  2  0  0  0  0  0  0
  1  3  1  0  0  0  0
  1 12  1  0  0  0  0
  2  8  2  0  0  0  0
  2 13  1  0  0  0  0
  3  6  1  0  0  0  0
  4 13  1  0  0  0  0
  4  1  2  0  0  0  0
  5  9  2  0  0  0  0
  7  3  2  0  0  0  0
  8  5  1  0  0  0  0
  9 14  1  0  0  0  0
 10  9  1  0  0  0  0
 10 11  1  0  0  0  0
 12 11  2  0  0  0  0
 12  6  1  0  0  0  0
 13 10  2  0  0  0  0
 14 16  1  0  0  0  0
 16 18  1  0  0  0  0
 17 18  1  0  0  0  0
 18 15  2  0  0  0  0
 19 24  1  1  0  0  0
 19 17  1  0  0  0  0
 20 23  1  0  0  0  0
 21 23  1  0  0  0  0
 22 21  1  0  0  0  0
 22 20  1  0  0  0  0
 23 19  1  0  0  0  0
 24 26  1  0  0  0  0
 25 24  2  0  0  0  0
 27  2  1  0  0  0  0
 28 27  1  0  0  0  0
 29 28  1  0  0  0  0
 31 30  1  6  0  0  0
 31 29  1  0  0  0  0
 31 32  1  0  0  0  0
 32 39  1  0  0  0  0
 34 40  1  0  0  0  0
 34 33  1  0  0  0  0
 35 33  1  0  0  0  0
 36 38  2  0  0  0  0
 37 34  1  0  0  0  0
 38 37  1  0  0  0  0
 38 39  1  0  0  0  0
 39 35  1  0  0  0  0
 42 40  1  0  0  0  0
 42 41  1  1  0  0  0
 43 45  1  0  0  0  0
 43 42  1  0  0  0  0
 45 44  1  0  0  0  0
M  END
>  <MODEL>
1

>  <REMARK>
 VINA RESULT:      -7.7      0.000      0.000
  Name = 
  15 active torsions:
  status: ('A' for Active; 'I' for Inactive)
    1  A    between atoms: C_1  and  C_15
    2  A    between atoms: C_1  and  N_30
    3  A    between atoms: C_2  and  N_27
    4  A    between atoms: C_2  and  C_28
    5  A    between atoms: S_5  and  C_36
    6  A    between atoms: S_5  and  C_44
    7  A    between atoms: C_8  and  C_24
    8  A    between atoms: C_9  and  N_30
    9  A    between atoms: N_10  and  N_23
   10  A    between atoms: N_10  and  C_36
   11  A    between atoms: C_15  and  C_32
   12  A    between atoms: C_24  and  N_31
   13  A    between atoms: C_24  and  C_41
   14  A    between atoms: C_32  and  C_40
   15  A    between atoms: C_40  and  N_42
                            x       y       z     vdW  Elec       q    Type
                         _______ _______ _______ _____ _____    ______ ____

>  <TORSDO>
F 15

$$$$
=
 OpenBabel10232412433D

 45 49  0  0  1  0  0  0  0  0999 V2000
  189.9900  177.0430  145.2600 C   0  0  0  0  0  0  0  0  0  0  0  0
  186.7700  178.1410  143.8350 C   0  0  0  0  0  0  0  0  0  0  0  0
  191.1150  176.6360  146.0780 C   0  0  0  0  0  0  0  0  0  0  0  0
  188.6740  177.4550  145.2530 C   0  0  0  0  0  3  0  0  0  0  0  0
  187.0240  178.1730  141.4520 N   0  0  0  0  0  0  0  0  0  0  0  0
  191.8770  176.4780  144.8880 N   0  0  0  0  0  2  0  0  0  0  0  0
  191.3300  176.4890  147.3100 O   0  0  0  0  0  0  0  0  0  0  0  0
  186.2520  178.3390  142.5550 C   0  0  0  0  0  3  0  0  0  0  0  0
  188.3280  177.7990  141.5230 C   0  0  0  0  0  0  0  0  0  0  0  0
  188.9170  177.5490  142.7740 C   0  0  0  0  0  0  0  0  0  0  0  0
  190.2720  177.1210  142.8540 C   0  0  0  0  0  3  0  0  0  0  0  0
  190.7370  176.8880  144.1300 C   0  0  0  0  0  0  0  0  0  0  0  0
  188.1160  177.7260  143.9720 C   0  0  0  0  0  0  0  0  0  0  0  0
  189.1010  177.6350  140.2490 C   0  0  0  0  0  2  0  0  0  0  0  0
  188.9940  179.7680  137.2730 O   0  0  0  0  0  0  0  0  0  0  0  0
  188.7070  178.6530  139.2860 N   0  0  0  0  0  2  0  0  0  0  0  0
  189.7270  177.5690  137.2550 N   0  0  0  0  0  2  0  0  0  0  0  0
  189.1370  178.6960  137.9180 C   0  0  0  0  0  0  0  0  0  0  0  0
  189.6850  176.1980  137.7480 C   0  0  1  0  0  3  0  0  0  0  0  0
  188.5650  175.8930  135.4850 C   0  0  0  0  0  2  0  0  0  0  0  0
  187.2590  175.6150  137.1720 C   0  0  0  0  0  2  0  0  0  0  0  0
  187.0950  176.1560  135.7620 C   0  0  0  0  0  2  0  0  0  0  0  0
  188.7280  175.3470  136.8910 C   0  0  0  0  0  3  0  0  0  0  0  0
  191.0780  175.6440  137.9040 C   0  0  0  0  0  0  0  0  0  0  0  0
  191.2260  174.4650  138.1830 O   0  0  0  0  0  0  0  0  0  0  0  0
  192.2830  176.5070  137.7000 C   0  0  0  0  0  1  0  0  0  0  0  0
  185.8820  178.3480  144.9430 N   0  0  0  0  0  2  0  0  0  0  0  0
  184.4280  178.3520  144.8730 C   0  0  0  0  0  2  0  0  0  0  0  0
  183.9450  179.5860  144.1320 C   0  0  0  0  0  2  0  0  0  0  0  0
  181.7640  178.5860  144.0380 O   0  0  0  0  0  1  0  0  0  0  0  0
  182.7150  179.2800  143.2860 C   0  0  2  0  0  3  0  0  0  0  0  0
  183.1020  178.4860  142.0420 C   0  0  0  0  0  2  0  0  0  0  0  0
  180.2800  179.3140  139.6160 C   0  0  0  0  0  2  0  0  0  0  0  0
  181.0690  179.2510  138.3870 N   0  0  0  0  0  0  0  0  0  0  0  0
  180.9770  178.5110  140.7130 C   0  0  0  0  0  2  0  0  0  0  0  0
  184.3120  179.6970  139.7910 O   0  0  0  0  0  0  0  0  0  0  0  0
  182.2850  180.0410  138.5800 C   0  0  0  0  0  2  0  0  0  0  0  0
  183.0640  179.5360  139.7570 C   0  0  0  0  0  0  0  0  0  0  0  0
  182.3670  178.9360  140.8650 N   0  0  0  0  0  0  0  0  0  0  0  0
  180.3240  179.9030  137.3940 N   0  0  0  0  0  2  0  0  0  0  0  0
  180.5000  180.6530  135.0660 C   0  0  0  0  0  1  0  0  0  0  0  0
  180.9990  179.6790  136.1220 C   0  0  2  0  0  3  0  0  0  0  0  0
  180.7880  177.9440  135.5810 S   0  0  0  0  0  0  0  0  0  0  0  0
  183.0430  176.9620  136.5650 O   0  0  0  0  0  1  0  0  0  0  0  0
  182.5620  177.5650  135.4040 C   0  0  0  0  0  2  0  0  0  0  0  0
  1  3  1  0  0  0  0
  2 13  1  0  0  0  0
  2 27  1  0  0  0  0
  3  7  2  0  0  0  0
  4  1  1  0  0  0  0
  5  9  2  0  0  0  0
  5  8  1  0  0  0  0
  6  3  1  0  0  0  0
  8  2  2  0  0  0  0
  9 10  1  0  0  0  0
 10 11  2  0  0  0  0
 10 13  1  0  0  0  0
 11 12  1  0  0  0  0
 12  6  1  0  0  0  0
 12  1  2  0  0  0  0
 13  4  2  0  0  0  0
 14  9  1  0  0  0  0
 15 18  2  0  0  0  0
 16 14  1  0  0  0  0
 17 18  1  0  0  0  0
 18 16  1  0  0  0  0
 19 17  1  6  0  0  0
 19 24  1  0  0  0  0
 20 22  1  0  0  0  0
 20 23  1  0  0  0  0
 22 21  1  0  0  0  0
 23 21  1  0  0  0  0
 23 19  1  0  0  0  0
 24 25  2  0  0  0  0
 26 24  1  0  0  0  0
 28 27  1  0  0  0  0
 29 28  1  0  0  0  0
 31 30  1  1  0  0  0
 31 29  1  0  0  0  0
 32 31  1  0  0  0  0
 33 35  1  0  0  0  0
 34 37  1  0  0  0  0
 34 33  1  0  0  0  0
 35 39  1  0  0  0  0
 37 38  1  0  0  0  0
 38 36  2  0  0  0  0
 38 39  1  0  0  0  0
 39 32  1  0  0  0  0
 40 34  1  0  0  0  0
 42 41  1  6  0  0  0
 42 40  1  0  0  0  0
 43 42  1  0  0  0  0
 45 43  1  0  0  0  0
 45 44  1  0  0  0  0
M  END
>  <MODEL>
2

>  <REMARK>
 VINA RESULT:      -7.7      3.693      9.318
  Name = 
  15 active torsions:
  status: ('A' for Active; 'I' for Inactive)
    1  A    between atoms: C_1  and  C_15
    2  A    between atoms: C_1  and  N_30
    3  A    between atoms: C_2  and  N_27
    4  A    between atoms: C_2  and  C_28
    5  A    between atoms: S_5  and  C_36
    6  A    between atoms: S_5  and  C_44
    7  A    between atoms: C_8  and  C_24
    8  A    between atoms: C_9  and  N_30
    9  A    between atoms: N_10  and  N_23
   10  A    between atoms: N_10  and  C_36
   11  A    between atoms: C_15  and  C_32
   12  A    between atoms: C_24  and  N_31
   13  A    between atoms: C_24  and  C_41
   14  A    between atoms: C_32  and  C_40
   15  A    between atoms: C_40  and  N_42
                            x       y       z     vdW  Elec       q    Type
                         _______ _______ _______ _____ _____    ______ ____

>  <TORSDO>
F 15

$$$$
=
 OpenBabel10232412433D

 45 49  0  0  1  0  0  0  0  0999 V2000
  185.1600  178.8570  144.6320 C   0  0  0  0  0  0  0  0  0  0  0  0
  186.3360  178.7820  141.1360 C   0  0  0  0  0  0  0  0  0  0  0  0
  184.9850  178.9120  146.0700 C   0  0  0  0  0  0  0  0  0  0  0  0
  186.0650  178.8720  143.5900 C   0  0  0  0  0  3  0  0  0  0  0  0
  184.3950  178.6290  139.7390 N   0  0  0  0  0  0  0  0  0  0  0  0
  183.5810  178.8040  145.8660 N   0  0  0  0  0  2  0  0  0  0  0  0
  185.7440  179.0080  147.0690 O   0  0  0  0  0  0  0  0  0  0  0  0
  185.7400  178.7300  139.8760 C   0  0  0  0  0  3  0  0  0  0  0  0
  183.5540  178.5820  140.8050 C   0  0  0  0  0  0  0  0  0  0  0  0
  184.0720  178.6620  142.1090 C   0  0  0  0  0  0  0  0  0  0  0  0
  183.1940  178.6510  143.2290 C   0  0  0  0  0  3  0  0  0  0  0  0
  183.8130  178.7520  144.4560 C   0  0  0  0  0  0  0  0  0  0  0  0
  185.5090  178.7630  142.2850 C   0  0  0  0  0  0  0  0  0  0  0  0
  182.0800  178.4760  140.5550 C   0  0  0  0  0  2  0  0  0  0  0  0
  181.4440  180.9100  137.8920 O   0  0  0  0  0  0  0  0  0  0  0  0
  181.6060  179.6450  139.8290 N   0  0  0  0  0  2  0  0  0  0  0  0
  181.6830  178.6340  137.5250 N   0  0  0  0  0  2  0  0  0  0  0  0
  181.5730  179.7650  138.4010 C   0  0  0  0  0  0  0  0  0  0  0  0
  181.5330  177.2430  137.9390 C   0  0  1  0  0  3  0  0  0  0  0  0
  180.0590  175.1870  137.6810 C   0  0  0  0  0  2  0  0  0  0  0  0
  180.1110  176.4700  135.9550 C   0  0  0  0  0  2  0  0  0  0  0  0
  179.9830  174.9730  136.1790 C   0  0  0  0  0  2  0  0  0  0  0  0
  180.1810  176.6820  137.4580 C   0  0  0  0  0  3  0  0  0  0  0  0
  182.7440  176.4360  137.5450 C   0  0  0  0  0  0  0  0  0  0  0  0
  183.3070  176.6770  136.4900 O   0  0  0  0  0  0  0  0  0  0  0  0
  183.2800  175.3580  138.4350 C   0  0  0  0  0  1  0  0  0  0  0  0
  187.7670  178.8800  141.1840 N   0  0  0  0  0  2  0  0  0  0  0  0
  188.6780  178.4940  140.1160 C   0  0  0  0  0  2  0  0  0  0  0  0
  189.2870  177.1360  140.4170 C   0  0  0  0  0  2  0  0  0  0  0  0
  191.0160  176.0790  139.1300 O   0  0  0  0  0  1  0  0  0  0  0  0
  190.7660  177.0980  140.0530 C   0  0  2  0  0  3  0  0  0  0  0  0
  191.6230  176.9150  141.3020 C   0  0  0  0  0  2  0  0  0  0  0  0
  190.0030  178.7990  144.1930 C   0  0  0  0  0  2  0  0  0  0  0  0
  189.9590  177.6840  145.1380 N   0  0  0  0  0  0  0  0  0  0  0  0
  191.0740  178.5320  143.1370 C   0  0  0  0  0  2  0  0  0  0  0  0
  190.2160  174.9900  142.8220 O   0  0  0  0  0  0  0  0  0  0  0  0
  189.3890  176.5240  144.4530 C   0  0  0  0  0  2  0  0  0  0  0  0
  190.1960  176.1790  143.2360 C   0  0  0  0  0  0  0  0  0  0  0  0
  190.8770  177.2230  142.5180 N   0  0  0  0  0  0  0  0  0  0  0  0
  189.0460  178.0400  146.1420 N   0  0  0  0  0  2  0  0  0  0  0  0
  188.6500  177.8410  148.5540 C   0  0  0  0  0  1  0  0  0  0  0  0
  189.4230  177.3200  147.3520 C   0  0  2  0  0  3  0  0  0  0  0  0
  191.2290  177.4240  147.6250 S   0  0  0  0  0  0  0  0  0  0  0  0
  192.9250  175.3900  147.6330 O   0  0  0  0  0  1  0  0  0  0  0  0
  191.5590  175.6350  147.5090 C   0  0  0  0  0  2  0  0  0  0  0  0
  1  3  1  0  0  0  0
  2 27  1  0  0  0  0
  2 13  1  0  0  0  0
  3  7  2  0  0  0  0
  4  1  2  0  0  0  0
  5  8  1  0  0  0  0
  5  9  2  0  0  0  0
  6  3  1  0  0  0  0
  8  2  2  0  0  0  0
  9 10  1  0  0  0  0
 10 13  2  0  0  0  0
 10 11  1  0  0  0  0
 11 12  2  0  0  0  0
 12  1  1  0  0  0  0
 12  6  1  0  0  0  0
 13  4  1  0  0  0  0
 14  9  1  0  0  0  0
 15 18  2  0  0  0  0
 16 14  1  0  0  0  0
 17 18  1  0  0  0  0
 18 16  1  0  0  0  0
 19 17  1  6  0  0  0
 21 22  1  0  0  0  0
 21 23  1  0  0  0  0
 22 20  1  0  0  0  0
 23 20  1  0  0  0  0
 23 19  1  0  0  0  0
 24 19  1  0  0  0  0
 24 26  1  0  0  0  0
 25 24  2  0  0  0  0
 28 29  1  0  0  0  0
 28 27  1  0  0  0  0
 31 30  1  6  0  0  0
 31 29  1  0  0  0  0
 31 32  1  0  0  0  0
 32 39  1  0  0  0  0
 33 34  1  0  0  0  0
 34 40  1  0  0  0  0
 35 33  1  0  0  0  0
 36 38  2  0  0  0  0
 37 34  1  0  0  0  0
 38 37  1  0  0  0  0
 39 35  1  0  0  0  0
 39 38  1  0  0  0  0
 40 42  1  0  0  0  0
 42 43  1  0  0  0  0
 42 41  1  1  0  0  0
 45 43  1  0  0  0  0
 45 44  1  0  0  0  0
M  END
>  <MODEL>
3

>  <REMARK>
 VINA RESULT:      -7.6      3.795      8.556
  Name = 
  15 active torsions:
  status: ('A' for Active; 'I' for Inactive)
    1  A    between atoms: C_1  and  C_15
    2  A    between atoms: C_1  and  N_30
    3  A    between atoms: C_2  and  N_27
    4  A    between atoms: C_2  and  C_28
    5  A    between atoms: S_5  and  C_36
    6  A    between atoms: S_5  and  C_44
    7  A    between atoms: C_8  and  C_24
    8  A    between atoms: C_9  and  N_30
    9  A    between atoms: N_10  and  N_23
   10  A    between atoms: N_10  and  C_36
   11  A    between atoms: C_15  and  C_32
   12  A    between atoms: C_24  and  N_31
   13  A    between atoms: C_24  and  C_41
   14  A    between atoms: C_32  and  C_40
   15  A    between atoms: C_40  and  N_42
                            x       y       z     vdW  Elec       q    Type
                         _______ _______ _______ _____ _____    ______ ____

>  <TORSDO>
F 15

$$$$
=
 OpenBabel10232412433D

 45 49  0  0  1  0  0  0  0  0999 V2000
  187.2980  177.6820  145.7450 C   0  0  0  0  0  0  0  0  0  0  0  0
  184.8680  178.7820  143.1970 C   0  0  0  0  0  0  0  0  0  0  0  0
  188.0300  177.2960  146.9350 C   0  0  0  0  0  0  0  0  0  0  0  0
  186.0960  178.1340  145.2400 C   0  0  0  0  0  3  0  0  0  0  0  0
  185.9630  178.6430  141.0680 N   0  0  0  0  0  0  0  0  0  0  0  0
  189.1590  177.0340  146.1110 N   0  0  0  0  0  2  0  0  0  0  0  0
  187.7800  177.2260  148.1670 O   0  0  0  0  0  0  0  0  0  0  0  0
  184.8570  178.9080  141.8070 C   0  0  0  0  0  3  0  0  0  0  0  0
  187.1320  178.2340  141.6260 C   0  0  0  0  0  0  0  0  0  0  0  0
  187.2180  178.0510  143.0160 C   0  0  0  0  0  0  0  0  0  0  0  0
  188.4280  177.5860  143.6030 C   0  0  0  0  0  3  0  0  0  0  0  0
  188.3910  177.4270  144.9720 C   0  0  0  0  0  0  0  0  0  0  0  0
  186.0510  178.3350  143.8320 C   0  0  0  0  0  0  0  0  0  0  0  0
  188.3000  177.9590  140.7280 C   0  0  0  0  0  2  0  0  0  0  0  0
  188.8800  179.5680  137.4890 O   0  0  0  0  0  0  0  0  0  0  0  0
  188.0850  178.5620  139.4210 N   0  0  0  0  0  2  0  0  0  0  0  0
  190.3800  178.1100  138.4880 N   0  0  0  0  0  2  0  0  0  0  0  0
  189.1070  178.7710  138.4370 C   0  0  0  0  0  0  0  0  0  0  0  0
  190.6840  176.9540  139.3240 C   0  0  1  0  0  3  0  0  0  0  0  0
  191.5260  175.9760  137.1320 C   0  0  0  0  0  2  0  0  0  0  0  0
  189.5730  175.2940  137.7230 C   0  0  0  0  0  2  0  0  0  0  0  0
  190.2590  175.5740  136.3980 C   0  0  0  0  0  2  0  0  0  0  0  0
  190.8430  175.6910  138.4570 C   0  0  0  0  0  3  0  0  0  0  0  0
  191.8370  177.2530  140.2480 C   0  0  0  0  0  0  0  0  0  0  0  0
  192.9570  177.3920  139.7820 O   0  0  0  0  0  0  0  0  0  0  0  0
  191.6310  177.4020  141.7220 C   0  0  0  0  0  1  0  0  0  0  0  0
  183.6540  179.0920  143.8960 N   0  0  0  0  0  2  0  0  0  0  0  0
  182.3500  178.5030  143.6300 C   0  0  0  0  0  2  0  0  0  0  0  0
  181.3870  179.5680  143.1390 C   0  0  0  0  0  2  0  0  0  0  0  0
  180.1390  177.8410  142.0330 O   0  0  0  0  0  1  0  0  0  0  0  0
  180.6660  179.1240  141.8720 C   0  0  2  0  0  3  0  0  0  0  0  0
  181.6080  179.1730  140.6730 C   0  0  0  0  0  2  0  0  0  0  0  0
  182.1230  175.6050  139.4330 C   0  0  0  0  0  2  0  0  0  0  0  0
  181.8290  175.8550  138.0230 N   0  0  0  0  0  0  0  0  0  0  0  0
  182.5320  176.9120  140.1100 C   0  0  0  0  0  2  0  0  0  0  0  0
  179.9860  178.8830  138.3750 O   0  0  0  0  0  0  0  0  0  0  0  0
  180.5800  176.6130  137.9420 C   0  0  0  0  0  2  0  0  0  0  0  0
  180.6860  177.8940  138.7150 C   0  0  0  0  0  0  0  0  0  0  0  0
  181.5320  177.9530  139.8770 N   0  0  0  0  0  0  0  0  0  0  0  0
  181.5760  174.6080  137.4350 N   0  0  0  0  0  2  0  0  0  0  0  0
  183.4960  173.1650  136.9410 C   0  0  0  0  0  1  0  0  0  0  0  0
  182.6510  174.3450  136.4860 C   0  0  2  0  0  3  0  0  0  0  0  0
  183.6740  175.8420  136.2440 S   0  0  0  0  0  0  0  0  0  0  0  0
  186.3180  175.7330  136.3690 O   0  0  0  0  0  1  0  0  0  0  0  0
  185.2000  175.1720  136.9830 C   0  0  0  0  0  2  0  0  0  0  0  0
  1  3  1  0  0  0  0
  2 13  1  0  0  0  0
  2 27  1  0  0  0  0
  3  7  2  0  0  0  0
  4  1  1  0  0  0  0
  5  9  2  0  0  0  0
  5  8  1  0  0  0  0
  6  3  1  0  0  0  0
  8  2  2  0  0  0  0
  9 10  1  0  0  0  0
 10 11  2  0  0  0  0
 10 13  1  0  0  0  0
 11 12  1  0  0  0  0
 12  1  2  0  0  0  0
 12  6  1  0  0  0  0
 13  4  2  0  0  0  0
 14  9  1  0  0  0  0
 15 18  2  0  0  0  0
 16 14  1  0  0  0  0
 18 17  1  0  0  0  0
 18 16  1  0  0  0  0
 19 17  1  6  0  0  0
 19 24  1  0  0  0  0
 20 23  1  0  0  0  0
 21 23  1  0  0  0  0
 22 20  1  0  0  0  0
 22 21  1  0  0  0  0
 23 19  1  0  0  0  0
 24 26  1  0  0  0  0
 25 24  2  0  0  0  0
 28 27  1  0  0  0  0
 29 28  1  0  0  0  0
 31 30  1  1  0  0  0
 31 29  1  0  0  0  0
 32 31  1  0  0  0  0
 33 35  1  0  0  0  0
 34 33  1  0  0  0  0
 36 38  2  0  0  0  0
 37 34  1  0  0  0  0
 37 38  1  0  0  0  0
 38 39  1  0  0  0  0
 39 35  1  0  0  0  0
 39 32  1  0  0  0  0
 40 34  1  0  0  0  0
 42 41  1  1  0  0  0
 42 40  1  0  0  0  0
 43 42  1  0  0  0  0
 43 45  1  0  0  0  0
 44 45  1  0  0  0  0
M  END
>  <MODEL>
4

>  <REMARK>
 VINA RESULT:      -7.5      3.532      8.052
  Name = 
  15 active torsions:
  status: ('A' for Active; 'I' for Inactive)
    1  A    between atoms: C_1  and  C_15
    2  A    between atoms: C_1  and  N_30
    3  A    between atoms: C_2  and  N_27
    4  A    between atoms: C_2  and  C_28
    5  A    between atoms: S_5  and  C_36
    6  A    between atoms: S_5  and  C_44
    7  A    between atoms: C_8  and  C_24
    8  A    between atoms: C_9  and  N_30
    9  A    between atoms: N_10  and  N_23
   10  A    between atoms: N_10  and  C_36
   11  A    between atoms: C_15  and  C_32
   12  A    between atoms: C_24  and  N_31
   13  A    between atoms: C_24  and  C_41
   14  A    between atoms: C_32  and  C_40
   15  A    between atoms: C_40  and  N_42
                            x       y       z     vdW  Elec       q    Type
                         _______ _______ _______ _____ _____    ______ ____

>  <TORSDO>
F 15

$$$$
=
 OpenBabel10232412433D

 45 49  0  0  1  0  0  0  0  0999 V2000
  189.7280  177.7380  141.5750 C   0  0  0  0  0  0  0  0  0  0  0  0
  188.1730  177.9070  138.2340 C   0  0  0  0  0  0  0  0  0  0  0  0
  190.0890  177.7970  142.9780 C   0  0  0  0  0  0  0  0  0  0  0  0
  188.7650  178.0260  140.6300 C   0  0  0  0  0  3  0  0  0  0  0  0
  189.7080  176.9090  136.6870 N   0  0  0  0  0  0  0  0  0  0  0  0
  191.3270  177.1800  142.6480 N   0  0  0  0  0  2  0  0  0  0  0  0
  189.5450  178.2160  144.0330 O   0  0  0  0  0  0  0  0  0  0  0  0
  188.5120  177.4940  136.9450 C   0  0  0  0  0  3  0  0  0  0  0  0
  190.6330  176.6830  137.6550 C   0  0  0  0  0  0  0  0  0  0  0  0
  190.3570  177.0400  138.9850 C   0  0  0  0  0  0  0  0  0  0  0  0
  191.3080  176.7720  140.0100 C   0  0  0  0  0  3  0  0  0  0  0  0
  190.9210  177.1490  141.2780 C   0  0  0  0  0  0  0  0  0  0  0  0
  189.0880  177.6750  139.2890 C   0  0  0  0  0  0  0  0  0  0  0  0
  191.9250  176.0240  137.2750 C   0  0  0  0  0  2  0  0  0  0  0  0
  191.9900  172.8900  135.3790 O   0  0  0  0  0  0  0  0  0  0  0  0
  191.6880  174.6490  136.8600 N   0  0  0  0  0  2  0  0  0  0  0  0
  193.7580  174.3870  135.4520 N   0  0  0  0  0  2  0  0  0  0  0  0
  192.4640  173.9430  135.8830 C   0  0  0  0  0  0  0  0  0  0  0  0
  194.5650  175.3890  136.1380 C   0  0  1  0  0  3  0  0  0  0  0  0
  195.6050  173.2010  136.9120 C   0  0  0  0  0  2  0  0  0  0  0  0
  195.1320  174.5740  138.4980 C   0  0  0  0  0  2  0  0  0  0  0  0
  195.1450  173.0630  138.3520 C   0  0  0  0  0  2  0  0  0  0  0  0
  195.5980  174.7110  137.0580 C   0  0  0  0  0  3  0  0  0  0  0  0
  195.1300  176.3840  135.1560 C   0  0  0  0  0  0  0  0  0  0  0  0
  194.3760  177.1510  134.5810 O   0  0  0  0  0  0  0  0  0  0  0  0
  196.6010  176.4620  134.8910 C   0  0  0  0  0  1  0  0  0  0  0  0
  186.8900  178.5250  138.4120 N   0  0  0  0  0  2  0  0  0  0  0  0
  185.6120  177.9500  138.0180 C   0  0  0  0  0  2  0  0  0  0  0  0
  184.4720  178.7620  138.6060 C   0  0  0  0  0  2  0  0  0  0  0  0
  182.8960  176.9760  138.9070 O   0  0  0  0  0  1  0  0  0  0  0  0
  183.6490  177.9350  139.5870 C   0  0  2  0  0  3  0  0  0  0  0  0
  182.7460  178.8360  140.4230 C   0  0  0  0  0  2  0  0  0  0  0  0
  184.9830  179.4050  143.4570 C   0  0  0  0  0  2  0  0  0  0  0  0
  184.2250  178.5850  144.4020 N   0  0  0  0  0  0  0  0  0  0  0  0
  184.6660  178.9650  142.0290 C   0  0  0  0  0  2  0  0  0  0  0  0
  181.0960  178.5370  142.7010 O   0  0  0  0  0  0  0  0  0  0  0  0
  182.8130  178.9570  144.3030 C   0  0  0  0  0  2  0  0  0  0  0  0
  182.3150  178.7780  142.9000 C   0  0  0  0  0  0  0  0  0  0  0  0
  183.2230  178.9540  141.7970 N   0  0  0  0  0  0  0  0  0  0  0  0
  184.6450  178.9560  145.6870 N   0  0  0  0  0  2  0  0  0  0  0  0
  186.3640  177.2750  145.2020 C   0  0  0  0  0  1  0  0  0  0  0  0
  186.0650  178.6460  145.7900 C   0  0  2  0  0  3  0  0  0  0  0  0
  186.6230  178.7610  147.5280 S   0  0  0  0  0  0  0  0  0  0  0  0
  189.1430  177.9440  147.5280 O   0  0  0  0  0  1  0  0  0  0  0  0
  187.8550  177.4210  147.4400 C   0  0  0  0  0  2  0  0  0  0  0  0
  1  3  1  0  0  0  0
  2 27  1  0  0  0  0
  2 13  1  0  0  0  0
  3  7  2  0  0  0  0
  4  1  2  0  0  0  0
  5  8  1  0  0  0  0
  5  9  2  0  0  0  0
  6  3  1  0  0  0  0
  8  2  2  0  0  0  0
  9 10  1  0  0  0  0
 10 13  2  0  0  0  0
 10 11  1  0  0  0  0
 11 12  2  0  0  0  0
 12  1  1  0  0  0  0
 12  6  1  0  0  0  0
 13  4  1  0  0  0  0
 14  9  1  0  0  0  0
 15 18  2  0  0  0  0
 16 14  1  0  0  0  0
 17 18  1  0  0  0  0
 17 19  1  0  0  0  0
 18 16  1  0  0  0  0
 19 24  1  6  0  0  0
 19 23  1  0  0  0  0
 20 23  1  0  0  0  0
 20 22  1  0  0  0  0
 22 21  1  0  0  0  0
 23 21  1  0  0  0  0
 25 24  2  0  0  0  0
 26 24  1  0  0  0  0
 28 27  1  0  0  0  0
 28 29  1  0  0  0  0
 29 31  1  0  0  0  0
 31 30  1  6  0  0  0
 31 32  1  0  0  0  0
 32 39  1  0  0  0  0
 33 34  1  0  0  0  0
 34 40  1  0  0  0  0
 35 33  1  0  0  0  0
 36 38  2  0  0  0  0
 37 34  1  0  0  0  0
 38 37  1  0  0  0  0
 39 35  1  0  0  0  0
 39 38  1  0  0  0  0
 40 42  1  0  0  0  0
 42 41  1  1  0  0  0
 42 43  1  0  0  0  0
 45 43  1  0  0  0  0
 45 44  1  0  0  0  0
M  END
>  <MODEL>
5

>  <REMARK>
 VINA RESULT:      -7.3      3.242      9.322
  Name = 
  15 active torsions:
  status: ('A' for Active; 'I' for Inactive)
    1  A    between atoms: C_1  and  C_15
    2  A    between atoms: C_1  and  N_30
    3  A    between atoms: C_2  and  N_27
    4  A    between atoms: C_2  and  C_28
    5  A    between atoms: S_5  and  C_36
    6  A    between atoms: S_5  and  C_44
    7  A    between atoms: C_8  and  C_24
    8  A    between atoms: C_9  and  N_30
    9  A    between atoms: N_10  and  N_23
   10  A    between atoms: N_10  and  C_36
   11  A    between atoms: C_15  and  C_32
   12  A    between atoms: C_24  and  N_31
   13  A    between atoms: C_24  and  C_41
   14  A    between atoms: C_32  and  C_40
   15  A    between atoms: C_40  and  N_42
                            x       y       z     vdW  Elec       q    Type
                         _______ _______ _______ _____ _____    ______ ____

>  <TORSDO>
F 15

$$$$
=
 OpenBabel10232412433D

 45 49  0  0  1  0  0  0  0  0999 V2000
  184.1410  178.7870  142.7460 C   0  0  0  0  0  0  0  0  0  0  0  0
  186.6710  178.4360  140.0850 C   0  0  0  0  0  0  0  0  0  0  0  0
  182.9710  179.0110  143.5720 C   0  0  0  0  0  0  0  0  0  0  0  0
  184.6630  178.8290  141.4700 C   0  0  0  0  0  3  0  0  0  0  0  0
  188.6760  177.6200  141.1160 N   0  0  0  0  0  0  0  0  0  0  0  0
  183.7350  178.6040  144.7010 N   0  0  0  0  0  2  0  0  0  0  0  0
  181.7900  179.4010  143.3780 O   0  0  0  0  0  0  0  0  0  0  0  0
  187.9940  177.9980  140.0060 C   0  0  0  0  0  3  0  0  0  0  0  0
  188.1180  177.6340  142.3540 C   0  0  0  0  0  0  0  0  0  0  0  0
  186.7800  178.0300  142.5160 C   0  0  0  0  0  0  0  0  0  0  0  0
  186.1790  178.0110  143.8060 C   0  0  0  0  0  3  0  0  0  0  0  0
  184.8580  178.4030  143.8400 C   0  0  0  0  0  0  0  0  0  0  0  0
  186.0290  178.4470  141.3460 C   0  0  0  0  0  0  0  0  0  0  0  0
  188.9480  177.1920  143.5220 C   0  0  0  0  0  2  0  0  0  0  0  0
  191.8980  179.2150  144.3150 O   0  0  0  0  0  0  0  0  0  0  0  0
  190.2690  177.8020  143.4620 N   0  0  0  0  0  2  0  0  0  0  0  0
  190.4890  178.3100  145.9180 N   0  0  0  0  0  2  0  0  0  0  0  0
  190.9160  178.4640  144.5570 C   0  0  0  0  0  0  0  0  0  0  0  0
  189.5880  177.2670  146.3940 C   0  0  1  0  0  3  0  0  0  0  0  0
  191.6490  176.8010  147.8090 C   0  0  0  0  0  2  0  0  0  0  0  0
  191.1440  175.2350  146.4240 C   0  0  0  0  0  2  0  0  0  0  0  0
  192.4380  175.7930  146.9910 C   0  0  0  0  0  2  0  0  0  0  0  0
  190.3570  176.2400  147.2470 C   0  0  0  0  0  3  0  0  0  0  0  0
  188.3730  177.8710  147.0510 C   0  0  0  0  0  0  0  0  0  0  0  0
  187.5050  178.3750  146.3550 O   0  0  0  0  0  0  0  0  0  0  0  0
  188.2000  177.8440  148.5370 C   0  0  0  0  0  1  0  0  0  0  0  0
  186.0330  178.8240  138.8600 N   0  0  0  0  0  2  0  0  0  0  0  0
  186.1220  178.1100  137.5940 C   0  0  0  0  0  2  0  0  0  0  0  0
  187.1210  178.7950  136.6790 C   0  0  0  0  0  2  0  0  0  0  0  0
  187.4380  177.8130  134.5110 O   0  0  0  0  0  1  0  0  0  0  0  0
  187.8850  177.7840  135.8340 C   0  0  2  0  0  3  0  0  0  0  0  0
  187.7480  176.3820  136.4190 C   0  0  0  0  0  2  0  0  0  0  0  0
  191.2370  176.0740  137.9250 C   0  0  0  0  0  2  0  0  0  0  0  0
  191.6920  174.9500  137.1080 N   0  0  0  0  0  0  0  0  0  0  0  0
  190.0890  176.7910  137.2140 C   0  0  0  0  0  2  0  0  0  0  0  0
  188.5190  173.6790  136.1050 O   0  0  0  0  0  0  0  0  0  0  0  0
  190.6580  173.9150  137.1350 C   0  0  0  0  0  2  0  0  0  0  0  0
  189.3510  174.4570  136.6400 C   0  0  0  0  0  0  0  0  0  0  0  0
  189.0360  175.8460  136.8460 N   0  0  0  0  0  0  0  0  0  0  0  0
  192.8130  174.4090  137.7530 N   0  0  0  0  0  2  0  0  0  0  0  0
  193.6110  175.6900  135.8200 C   0  0  0  0  0  1  0  0  0  0  0  0
  193.9830  174.7420  136.9490 C   0  0  2  0  0  3  0  0  0  0  0  0
  194.7770  173.2240  136.3100 S   0  0  0  0  0  0  0  0  0  0  0  0
  195.6060  172.5540  138.7350 O   0  0  0  0  0  1  0  0  0  0  0  0
  196.0940  173.1340  137.5670 C   0  0  0  0  0  2  0  0  0  0  0  0
  1  3  1  0  0  0  0
  1 12  1  0  0  0  0
  2 13  1  0  0  0  0
  3  6  1  0  0  0  0
  4  1  2  0  0  0  0
  5  9  2  0  0  0  0
  7  3  2  0  0  0  0
  8  2  2  0  0  0  0
  8  5  1  0  0  0  0
  9 10  1  0  0  0  0
  9 14  1  0  0  0  0
 10 11  1  0  0  0  0
 11 12  2  0  0  0  0
 12  6  1  0  0  0  0
 13  4  1  0  0  0  0
 13 10  2  0  0  0  0
 15 18  2  0  0  0  0
 16 14  1  0  0  0  0
 16 18  1  0  0  0  0
 18 17  1  0  0  0  0
 19 17  1  1  0  0  0
 19 24  1  0  0  0  0
 19 23  1  0  0  0  0
 21 22  1  0  0  0  0
 21 23  1  0  0  0  0
 22 20  1  0  0  0  0
 23 20  1  0  0  0  0
 24 26  1  0  0  0  0
 25 24  2  0  0  0  0
 27  2  1  0  0  0  0
 28 27  1  0  0  0  0
 29 28  1  0  0  0  0
 31 30  1  6  0  0  0
 31 32  1  0  0  0  0
 31 29  1  0  0  0  0
 32 39  1  0  0  0  0
 34 37  1  0  0  0  0
 34 40  1  0  0  0  0
 34 33  1  0  0  0  0
 35 33  1  0  0  0  0
 36 38  2  0  0  0  0
 38 39  1  0  0  0  0
 38 37  1  0  0  0  0
 39 35  1  0  0  0  0
 42 41  1  6  0  0  0
 42 40  1  0  0  0  0
 43 42  1  0  0  0  0
 43 45  1  0  0  0  0
 45 44  1  0  0  0  0
M  END
>  <MODEL>
6

>  <REMARK>
 VINA RESULT:      -7.3      1.497      2.476
  Name = 
  15 active torsions:
  status: ('A' for Active; 'I' for Inactive)
    1  A    between atoms: C_1  and  C_15
    2  A    between atoms: C_1  and  N_30
    3  A    between atoms: C_2  and  N_27
    4  A    between atoms: C_2  and  C_28
    5  A    between atoms: S_5  and  C_36
    6  A    between atoms: S_5  and  C_44
    7  A    between atoms: C_8  and  C_24
    8  A    between atoms: C_9  and  N_30
    9  A    between atoms: N_10  and  N_23
   10  A    between atoms: N_10  and  C_36
   11  A    between atoms: C_15  and  C_32
   12  A    between atoms: C_24  and  N_31
   13  A    between atoms: C_24  and  C_41
   14  A    between atoms: C_32  and  C_40
   15  A    between atoms: C_40  and  N_42
                            x       y       z     vdW  Elec       q    Type
                         _______ _______ _______ _____ _____    ______ ____

>  <TORSDO>
F 15

$$$$
=
 OpenBabel10232412433D

 45 49  0  0  1  0  0  0  0  0999 V2000
  187.4930  176.7420  136.4790 C   0  0  0  0  0  0  0  0  0  0  0  0
  188.4230  177.9040  139.8540 C   0  0  0  0  0  0  0  0  0  0  0  0
  187.4040  176.1830  135.1450 C   0  0  0  0  0  0  0  0  0  0  0  0
  188.2990  176.9470  137.5800 C   0  0  0  0  0  3  0  0  0  0  0  0
  186.4850  178.9460  140.8040 N   0  0  0  0  0  0  0  0  0  0  0  0
  186.0540  176.6290  135.0880 N   0  0  0  0  0  2  0  0  0  0  0  0
  188.1820  175.5710  134.3680 O   0  0  0  0  0  0  0  0  0  0  0  0
  187.7750  178.5430  140.9120 C   0  0  0  0  0  3  0  0  0  0  0  0
  185.7500  178.7480  139.6790 C   0  0  0  0  0  0  0  0  0  0  0  0
  186.3190  178.0830  138.5800 C   0  0  0  0  0  0  0  0  0  0  0  0
  185.5420  177.8390  137.4120 C   0  0  0  0  0  3  0  0  0  0  0  0
  186.1990  177.1640  136.4050 C   0  0  0  0  0  0  0  0  0  0  0  0
  187.7010  177.6470  138.6650 C   0  0  0  0  0  0  0  0  0  0  0  0
  184.3290  179.2240  139.6540 C   0  0  0  0  0  2  0  0  0  0  0  0
  181.7550  178.7470  142.2180 O   0  0  0  0  0  0  0  0  0  0  0  0
  183.6590  178.8760  140.9000 N   0  0  0  0  0  2  0  0  0  0  0  0
  181.3470  178.5960  139.9420 N   0  0  0  0  0  2  0  0  0  0  0  0
  182.2400  178.7390  141.0560 C   0  0  0  0  0  0  0  0  0  0  0  0
  181.7600  178.2670  138.5820 C   0  0  1  0  0  3  0  0  0  0  0  0
  180.1000  176.3790  138.9720 C   0  0  0  0  0  2  0  0  0  0  0  0
  182.1620  175.7650  138.9450 C   0  0  0  0  0  2  0  0  0  0  0  0
  180.9140  175.3140  139.6850 C   0  0  0  0  0  2  0  0  0  0  0  0
  181.3450  176.8260  138.2280 C   0  0  0  0  0  3  0  0  0  0  0  0
  181.3020  179.3270  137.6140 C   0  0  0  0  0  0  0  0  0  0  0  0
  181.3030  180.4970  137.9630 O   0  0  0  0  0  0  0  0  0  0  0  0
  180.8660  178.9750  136.2270 C   0  0  0  0  0  1  0  0  0  0  0  0
  189.7910  177.5200  140.0560 N   0  0  0  0  0  2  0  0  0  0  0  0
  190.2860  176.6880  141.1430 C   0  0  0  0  0  2  0  0  0  0  0  0
  191.6120  177.2250  141.6490 C   0  0  0  0  0  2  0  0  0  0  0  0
  191.0930  175.6140  143.3510 O   0  0  0  0  0  1  0  0  0  0  0  0
  191.9460  176.6720  143.0290 C   0  0  2  0  0  3  0  0  0  0  0  0
  191.8620  177.7720  144.0830 C   0  0  0  0  0  2  0  0  0  0  0  0
  188.1930  177.9620  145.1030 C   0  0  0  0  0  2  0  0  0  0  0  0
  188.4080  178.0650  146.5460 N   0  0  0  0  0  0  0  0  0  0  0  0
  189.4540  178.4100  144.3650 C   0  0  0  0  0  2  0  0  0  0  0  0
  191.7060  176.7300  146.7080 O   0  0  0  0  0  0  0  0  0  0  0  0
  189.3490  177.0190  146.9450 C   0  0  0  0  0  2  0  0  0  0  0  0
  190.6380  177.1490  146.1900 C   0  0  0  0  0  0  0  0  0  0  0  0
  190.6260  177.6860  144.8550 N   0  0  0  0  0  0  0  0  0  0  0  0
  187.1850  177.7560  147.1590 N   0  0  0  0  0  2  0  0  0  0  0  0
  186.1390  179.8530  147.8790 C   0  0  0  0  0  1  0  0  0  0  0  0
  186.2340  178.7960  146.7900 C   0  0  2  0  0  3  0  0  0  0  0  0
  184.5970  178.0690  146.4230 S   0  0  0  0  0  0  0  0  0  0  0  0
  184.8600  178.1320  143.7880 O   0  0  0  0  0  1  0  0  0  0  0  0
  184.3490  178.9100  144.8250 C   0  0  0  0  0  2  0  0  0  0  0  0
  1  4  1  0  0  0  0
  2 27  1  0  0  0  0
  2  8  2  0  0  0  0
  3  1  1  0  0  0  0
  4 13  2  0  0  0  0
  5  8  1  0  0  0  0
  6  3  1  0  0  0  0
  6 12  1  0  0  0  0
  7  3  2  0  0  0  0
  9  5  2  0  0  0  0
 10 13  1  0  0  0  0
 10  9  1  0  0  0  0
 11 10  2  0  0  0  0
 12  1  2  0  0  0  0
 12 11  1  0  0  0  0
 13  2  1  0  0  0  0
 14  9  1  0  0  0  0
 14 16  1  0  0  0  0
 16 18  1  0  0  0  0
 17 18  1  0  0  0  0
 18 15  2  0  0  0  0
 19 24  1  6  0  0  0
 19 17  1  0  0  0  0
 20 22  1  0  0  0  0
 21 22  1  0  0  0  0
 23 19  1  0  0  0  0
 23 21  1  0  0  0  0
 23 20  1  0  0  0  0
 24 25  2  0  0  0  0
 26 24  1  0  0  0  0
 27 28  1  0  0  0  0
 28 29  1  0  0  0  0
 29 31  1  0  0  0  0
 31 30  1  1  0  0  0
 31 32  1  0  0  0  0
 32 39  1  0  0  0  0
 33 34  1  0  0  0  0
 34 37  1  0  0  0  0
 34 40  1  0  0  0  0
 35 39  1  0  0  0  0
 35 33  1  0  0  0  0
 38 36  2  0  0  0  0
 38 37  1  0  0  0  0
 39 38  1  0  0  0  0
 42 40  1  0  0  0  0
 42 41  1  1  0  0  0
 43 42  1  0  0  0  0
 44 45  1  0  0  0  0
 45 43  1  0  0  0  0
M  END
>  <MODEL>
7

>  <REMARK>
 VINA RESULT:      -7.3      3.877      9.827
  Name = 
  15 active torsions:
  status: ('A' for Active; 'I' for Inactive)
    1  A    between atoms: C_1  and  C_15
    2  A    between atoms: C_1  and  N_30
    3  A    between atoms: C_2  and  N_27
    4  A    between atoms: C_2  and  C_28
    5  A    between atoms: S_5  and  C_36
    6  A    between atoms: S_5  and  C_44
    7  A    between atoms: C_8  and  C_24
    8  A    between atoms: C_9  and  N_30
    9  A    between atoms: N_10  and  N_23
   10  A    between atoms: N_10  and  C_36
   11  A    between atoms: C_15  and  C_32
   12  A    between atoms: C_24  and  N_31
   13  A    between atoms: C_24  and  C_41
   14  A    between atoms: C_32  and  C_40
   15  A    between atoms: C_40  and  N_42
                            x       y       z     vdW  Elec       q    Type
                         _______ _______ _______ _____ _____    ______ ____

>  <TORSDO>
F 15

$$$$
=
 OpenBabel10232412433D

 45 49  0  0  1  0  0  0  0  0999 V2000
  183.3930  178.7620  142.5770 C   0  0  0  0  0  0  0  0  0  0  0  0
  184.3320  178.5860  139.0140 C   0  0  0  0  0  0  0  0  0  0  0  0
  182.7480  178.8400  143.8730 C   0  0  0  0  0  0  0  0  0  0  0  0
  183.2090  178.7250  141.2100 C   0  0  0  0  0  3  0  0  0  0  0  0
  186.7210  178.4080  138.9190 N   0  0  0  0  0  0  0  0  0  0  0  0
  184.0360  178.7920  144.4760 N   0  0  0  0  0  2  0  0  0  0  0  0
  181.5630  178.9200  144.2880 O   0  0  0  0  0  0  0  0  0  0  0  0
  185.5190  178.4500  138.2930 C   0  0  0  0  0  3  0  0  0  0  0  0
  186.8430  178.4840  140.2700 C   0  0  0  0  0  0  0  0  0  0  0  0
  185.6940  178.5900  141.0720 C   0  0  0  0  0  0  0  0  0  0  0  0
  185.8120  178.6320  142.4890 C   0  0  0  0  0  3  0  0  0  0  0  0
  184.6180  178.7190  143.1730 C   0  0  0  0  0  0  0  0  0  0  0  0
  184.3940  178.6450  140.4270 C   0  0  0  0  0  0  0  0  0  0  0  0
  188.2130  178.4230  140.8740 C   0  0  0  0  0  2  0  0  0  0  0  0
  190.9460  176.1490  139.9860 O   0  0  0  0  0  0  0  0  0  0  0  0
  188.9640  177.3110  140.3090 N   0  0  0  0  0  2  0  0  0  0  0  0
  190.8480  177.3270  141.9800 N   0  0  0  0  0  2  0  0  0  0  0  0
  190.2720  176.9050  140.7350 C   0  0  0  0  0  0  0  0  0  0  0  0
  190.1040  177.9360  143.0770 C   0  0  1  0  0  3  0  0  0  0  0  0
  188.1370  176.4540  143.7120 C   0  0  0  0  0  2  0  0  0  0  0  0
  189.1220  177.3930  145.3780 C   0  0  0  0  0  2  0  0  0  0  0  0
  187.6930  176.9890  145.0620 C   0  0  0  0  0  2  0  0  0  0  0  0
  189.5670  176.8510  144.0290 C   0  0  0  0  0  3  0  0  0  0  0  0
  190.9140  179.0260  143.7310 C   0  0  0  0  0  0  0  0  0  0  0  0
  190.3820  180.0920  143.9920 O   0  0  0  0  0  0  0  0  0  0  0  0
  192.3530  178.8160  144.0850 C   0  0  0  0  0  1  0  0  0  0  0  0
  183.1090  178.6300  138.2660 N   0  0  0  0  0  2  0  0  0  0  0  0
  182.3610  177.4730  137.7970 C   0  0  0  0  0  2  0  0  0  0  0  0
  182.6880  177.1960  136.3400 C   0  0  0  0  0  2  0  0  0  0  0  0
  182.0730  174.9950  135.6060 O   0  0  0  0  0  1  0  0  0  0  0  0
  183.1230  175.7510  136.1330 C   0  0  2  0  0  3  0  0  0  0  0  0
  183.6180  175.1450  137.4420 C   0  0  0  0  0  2  0  0  0  0  0  0
  187.4080  175.0120  137.0490 C   0  0  0  0  0  2  0  0  0  0  0  0
  187.4910  173.6500  136.5220 N   0  0  0  0  0  0  0  0  0  0  0  0
  186.0060  175.5690  136.8080 C   0  0  0  0  0  2  0  0  0  0  0  0
  184.3500  172.4230  137.6720 O   0  0  0  0  0  0  0  0  0  0  0  0
  186.6930  172.7760  137.3820 C   0  0  0  0  0  2  0  0  0  0  0  0
  185.2720  173.2510  137.4490 C   0  0  0  0  0  0  0  0  0  0  0  0
  184.9880  174.6570  137.3270 N   0  0  0  0  0  0  0  0  0  0  0  0
  188.8240  173.2410  136.6670 N   0  0  0  0  0  2  0  0  0  0  0  0
  189.1680  172.0030  134.5780 C   0  0  0  0  0  1  0  0  0  0  0  0
  189.4420  173.2860  135.3480 C   0  0  2  0  0  3  0  0  0  0  0  0
  191.2370  173.6080  135.4900 S   0  0  0  0  0  0  0  0  0  0  0  0
  190.8000  176.1810  135.0390 O   0  0  0  0  0  1  0  0  0  0  0  0
  191.0930  175.3210  136.0950 C   0  0  0  0  0  2  0  0  0  0  0  0
  1 12  1  0  0  0  0
  1  3  1  0  0  0  0
  2 13  1  0  0  0  0
  3  7  2  0  0  0  0
  3  6  1  0  0  0  0
  4  1  2  0  0  0  0
  5  9  2  0  0  0  0
  8  5  1  0  0  0  0
  8  2  2  0  0  0  0
  9 14  1  0  0  0  0
  9 10  1  0  0  0  0
 10 11  1  0  0  0  0
 11 12  2  0  0  0  0
 12  6  1  0  0  0  0
 13 10  2  0  0  0  0
 13  4  1  0  0  0  0
 15 18  2  0  0  0  0
 16 18  1  0  0  0  0
 16 14  1  0  0  0  0
 18 17  1  0  0  0  0
 19 17  1  6  0  0  0
 19 24  1  0  0  0  0
 19 23  1  0  0  0  0
 20 23  1  0  0  0  0
 20 22  1  0  0  0  0
 22 21  1  0  0  0  0
 23 21  1  0  0  0  0
 24 25  2  0  0  0  0
 24 26  1  0  0  0  0
 27  2  1  0  0  0  0
 28 27  1  0  0  0  0
 29 28  1  0  0  0  0
 31 30  1  1  0  0  0
 31 29  1  0  0  0  0
 31 32  1  0  0  0  0
 34 40  1  0  0  0  0
 34 33  1  0  0  0  0
 34 37  1  0  0  0  0
 35 33  1  0  0  0  0
 35 39  1  0  0  0  0
 37 38  1  0  0  0  0
 38 36  2  0  0  0  0
 39 32  1  0  0  0  0
 39 38  1  0  0  0  0
 42 41  1  1  0  0  0
 42 43  1  0  0  0  0
 42 40  1  0  0  0  0
 43 45  1  0  0  0  0
 44 45  1  0  0  0  0
M  END
>  <MODEL>
8

>  <REMARK>
 VINA RESULT:      -7.2      3.011      4.631
  Name = 
  15 active torsions:
  status: ('A' for Active; 'I' for Inactive)
    1  A    between atoms: C_1  and  C_15
    2  A    between atoms: C_1  and  N_30
    3  A    between atoms: C_2  and  N_27
    4  A    between atoms: C_2  and  C_28
    5  A    between atoms: S_5  and  C_36
    6  A    between atoms: S_5  and  C_44
    7  A    between atoms: C_8  and  C_24
    8  A    between atoms: C_9  and  N_30
    9  A    between atoms: N_10  and  N_23
   10  A    between atoms: N_10  and  C_36
   11  A    between atoms: C_15  and  C_32
   12  A    between atoms: C_24  and  N_31
   13  A    between atoms: C_24  and  C_41
   14  A    between atoms: C_32  and  C_40
   15  A    between atoms: C_40  and  N_42
                            x       y       z     vdW  Elec       q    Type
                         _______ _______ _______ _____ _____    ______ ____

>  <TORSDO>
F 15

$$$$
=
 OpenBabel10232412433D

 45 49  0  0  1  0  0  0  0  0999 V2000
  185.8070  178.4580  144.9500 C   0  0  0  0  0  0  0  0  0  0  0  0
  187.3930  178.2390  141.6270 C   0  0  0  0  0  0  0  0  0  0  0  0
  185.4540  178.4840  146.3560 C   0  0  0  0  0  0  0  0  0  0  0  0
  186.8170  178.2730  144.0290 C   0  0  0  0  0  3  0  0  0  0  0  0
  185.6960  178.7090  140.0000 N   0  0  0  0  0  0  0  0  0  0  0  0
  184.1170  178.7850  145.9770 N   0  0  0  0  0  2  0  0  0  0  0  0
  186.0640  178.3120  147.4430 O   0  0  0  0  0  0  0  0  0  0  0  0
  186.9860  178.4220  140.3050 C   0  0  0  0  0  3  0  0  0  0  0  0
  184.7350  178.8440  140.9500 C   0  0  0  0  0  0  0  0  0  0  0  0
  185.0680  178.7070  142.3080 C   0  0  0  0  0  0  0  0  0  0  0  0
  184.0730  178.8850  143.3100 C   0  0  0  0  0  3  0  0  0  0  0  0
  184.5190  178.7440  144.6070 C   0  0  0  0  0  0  0  0  0  0  0  0
  186.4400  178.3920  142.6620 C   0  0  0  0  0  0  0  0  0  0  0  0
  183.3360  179.1680  140.5180 C   0  0  0  0  0  2  0  0  0  0  0  0
  180.4010  176.9770  140.5650 O   0  0  0  0  0  0  0  0  0  0  0  0
  182.4630  178.0240  140.7360 N   0  0  0  0  0  2  0  0  0  0  0  0
  180.8180  178.5340  138.9000 N   0  0  0  0  0  2  0  0  0  0  0  0
  181.2040  177.8180  140.0820 C   0  0  0  0  0  0  0  0  0  0  0  0
  181.7280  179.2990  138.0560 C   0  0  1  0  0  3  0  0  0  0  0  0
  181.0690  177.4270  136.4660 C   0  0  0  0  0  2  0  0  0  0  0  0
  183.1430  177.4260  137.0350 C   0  0  0  0  0  2  0  0  0  0  0  0
  182.1190  176.3560  136.7020 C   0  0  0  0  0  2  0  0  0  0  0  0
  182.0930  178.4970  136.7930 C   0  0  0  0  0  3  0  0  0  0  0  0
  181.1880  180.6850  137.8080 C   0  0  0  0  0  0  0  0  0  0  0  0
  181.2830  181.5300  138.6840 O   0  0  0  0  0  0  0  0  0  0  0  0
  180.5590  181.0490  136.5000 C   0  0  0  0  0  1  0  0  0  0  0  0
  188.7760  177.9290  141.8530 N   0  0  0  0  0  2  0  0  0  0  0  0
  189.5270  176.8760  141.1870 C   0  0  0  0  0  2  0  0  0  0  0  0
  190.6100  177.4820  140.3120 C   0  0  0  0  0  2  0  0  0  0  0  0
  192.0150  176.6330  138.5610 O   0  0  0  0  0  1  0  0  0  0  0  0
  190.6850  176.7870  138.9580 C   0  0  2  0  0  3  0  0  0  0  0  0
  189.8970  177.5670  137.9100 C   0  0  0  0  0  2  0  0  0  0  0  0
  186.9150  175.5250  136.6950 C   0  0  0  0  0  2  0  0  0  0  0  0
  187.6670  174.5610  135.8930 N   0  0  0  0  0  0  0  0  0  0  0  0
  187.8370  176.1480  137.7420 C   0  0  0  0  0  2  0  0  0  0  0  0
  190.6560  176.4410  135.4290 O   0  0  0  0  0  0  0  0  0  0  0  0
  188.5970  175.3000  135.0390 C   0  0  0  0  0  2  0  0  0  0  0  0
  189.5110  176.1530  135.8670 C   0  0  0  0  0  0  0  0  0  0  0  0
  189.0420  176.6910  137.1160 N   0  0  0  0  0  0  0  0  0  0  0  0
  186.7450  173.9430  135.0350 N   0  0  0  0  0  2  0  0  0  0  0  0
  187.1380  171.5220  135.0410 C   0  0  0  0  0  1  0  0  0  0  0  0
  186.3570  172.6780  135.6470 C   0  0  2  0  0  3  0  0  0  0  0  0
  184.5540  172.4170  135.4920 S   0  0  0  0  0  0  0  0  0  0  0  0
  184.9380  172.7880  138.0870 O   0  0  0  0  0  1  0  0  0  0  0  0
  184.0930  173.2160  137.0650 C   0  0  0  0  0  2  0  0  0  0  0  0
  1  3  1  0  0  0  0
  2 27  1  0  0  0  0
  2 13  1  0  0  0  0
  3  7  2  0  0  0  0
  4  1  2  0  0  0  0
  5  8  1  0  0  0  0
  5  9  2  0  0  0  0
  6  3  1  0  0  0  0
  8  2  2  0  0  0  0
  9 10  1  0  0  0  0
 10 13  2  0  0  0  0
 10 11  1  0  0  0  0
 11 12  2  0  0  0  0
 12  1  1  0  0  0  0
 12  6  1  0  0  0  0
 13  4  1  0  0  0  0
 14 16  1  0  0  0  0
 14  9  1  0  0  0  0
 17 18  1  0  0  0  0
 18 15  2  0  0  0  0
 18 16  1  0  0  0  0
 19 24  1  6  0  0  0
 19 17  1  0  0  0  0
 20 22  1  0  0  0  0
 20 23  1  0  0  0  0
 22 21  1  0  0  0  0
 23 21  1  0  0  0  0
 23 19  1  0  0  0  0
 24 25  2  0  0  0  0
 26 24  1  0  0  0  0
 28 27  1  0  0  0  0
 29 28  1  0  0  0  0
 31 30  1  6  0  0  0
 31 29  1  0  0  0  0
 32 31  1  0  0  0  0
 33 35  1  0  0  0  0
 34 33  1  0  0  0  0
 36 38  2  0  0  0  0
 37 38  1  0  0  0  0
 37 34  1  0  0  0  0
 38 39  1  0  0  0  0
 39 35  1  0  0  0  0
 39 32  1  0  0  0  0
 40 42  1  0  0  0  0
 40 34  1  0  0  0  0
 42 41  1  6  0  0  0
 43 42  1  0  0  0  0
 43 45  1  0  0  0  0
 45 44  1  0  0  0  0
M  END
>  <MODEL>
9

>  <REMARK>
 VINA RESULT:      -7.1      3.788      8.023
  Name = 
  15 active torsions:
  status: ('A' for Active; 'I' for Inactive)
    1  A    between atoms: C_1  and  C_15
    2  A    between atoms: C_1  and  N_30
    3  A    between atoms: C_2  and  N_27
    4  A    between atoms: C_2  and  C_28
    5  A    between atoms: S_5  and  C_36
    6  A    between atoms: S_5  and  C_44
    7  A    between atoms: C_8  and  C_24
    8  A    between atoms: C_9  and  N_30
    9  A    between atoms: N_10  and  N_23
   10  A    between atoms: N_10  and  C_36
   11  A    between atoms: C_15  and  C_32
   12  A    between atoms: C_24  and  N_31
   13  A    between atoms: C_24  and  C_41
   14  A    between atoms: C_32  and  C_40
   15  A    between atoms: C_40  and  N_42
                            x       y       z     vdW  Elec       q    Type
                         _______ _______ _______ _____ _____    ______ ____

>  <TORSDO>
F 15

$$$$
