=
 OpenBabel10232412443D

 45 50  0  0  1  0  0  0  0  0999 V2000
  182.8810  176.7660  138.2800 C   0  0  0  0  0  1  0  0  0  0  0  0
  185.7660  178.4460  139.3940 C   0  0  0  0  0  0  0  0  0  0  0  0
  190.9980  174.4230  134.6190 C   0  0  0  0  0  3  0  0  0  0  0  0
  183.1900  179.2160  138.4310 C   0  0  0  0  0  0  0  0  0  0  0  0
  186.8540  176.1310  137.0560 C   0  0  0  0  0  0  0  0  0  0  0  0
  188.2450  178.2070  138.9130 C   0  0  0  0  0  2  0  0  0  0  0  0
  185.1150  179.4550  139.8960 N   0  0  0  0  0  0  0  0  0  0  0  0
  188.2510  176.7140  137.0540 C   0  0  2  0  0  3  0  0  0  0  0  0
  186.6680  174.7050  136.9390 N   0  0  0  0  0  0  0  0  0  0  0  0
  189.8860  173.7920  135.1810 C   0  0  0  0  0  3  0  0  0  0  0  0
  191.1930  175.7930  134.8100 C   0  0  0  0  0  3  0  0  0  0  0  0
  187.1260  178.0470  139.9470 C   0  0  1  0  0  3  0  0  0  0  0  0
  189.1810  175.8990  136.1700 C   0  0  0  0  0  0  0  0  0  0  0  0
  185.1740  177.6980  138.2630 C   0  0  0  0  0  0  0  0  0  0  0  0
  185.3870  174.0850  137.2660 C   0  0  0  0  0  1  0  0  0  0  0  0
  190.1710  176.9730  138.5590 C   0  0  0  0  0  1  0  0  0  0  0  0
  188.7180  176.9000  138.4530 N   0  0  0  0  0  0  0  0  0  0  0  0
  187.7370  173.8880  136.4410 C   0  0  0  0  0  0  0  0  0  0  0  0
  185.9330  176.8790  137.5950 C   0  0  0  0  0  0  0  0  0  0  0  0
  187.6070  172.6340  136.3890 O   0  0  0  0  0  0  0  0  0  0  0  0
  188.9690  174.5240  135.9480 C   0  0  0  0  0  0  0  0  0  0  0  0
  183.7490  177.9390  137.8540 C   0  0  1  0  0  3  0  0  0  0  0  0
  190.2870  176.5270  135.5800 C   0  0  0  0  0  3  0  0  0  0  0  0
  183.8380  179.8840  139.3990 C   0  0  0  0  0  3  0  0  0  0  0  0
  181.9660  179.6810  137.9430 O   0  0  0  0  0  0  0  0  0  0  0  0
  181.1790  180.5510  138.6700 N   0  0  0  0  0  2  0  0  0  0  0  0
  180.0040  180.8380  137.8620 C   0  0  0  0  0  2  0  0  0  0  0  0
  180.4660  184.4490  135.0300 C   0  0  0  0  0  2  0  0  0  0  0  0
  181.4000  184.4110  137.4240 C   0  0  0  0  0  2  0  0  0  0  0  0
  180.9890  183.0190  134.8590 C   0  0  0  0  0  2  0  0  0  0  0  0
  181.4090  182.8930  137.6790 C   0  0  0  0  0  2  0  0  0  0  0  0
  180.1850  181.9670  135.6310 C   0  0  0  0  0  2  0  0  0  0  0  0
  180.2840  184.8920  136.4870 C   0  0  0  0  0  2  0  0  0  0  0  0
  180.1610  182.1740  137.1550 C   0  0  0  0  0  3  0  0  0  0  0  0
  187.4900  178.7040  141.2810 C   0  0  0  0  0  2  0  0  0  0  0  0
  187.0220  177.9070  142.4080 N   0  0  0  0  0  2  0  0  0  0  0  0
  189.0050  176.6980  142.6760 O   0  0  0  0  0  1  0  0  0  0  0  0
  188.1700  177.6520  143.2650 C   0  0  2  0  0  3  0  0  0  0  0  0
  189.8360  178.0090  145.5290 O   0  0  0  0  0  1  0  0  0  0  0  0
  188.0170  177.5920  146.9410 C   0  0  0  0  0  0  0  0  0  0  0  0
  188.4550  177.5320  148.1190 O   0  0  0  0  0  0  0  0  0  0  0  0
  187.7060  177.2080  144.6570 C   0  0  1  0  0  3  0  0  0  0  0  0
  188.7770  177.1270  145.7620 C   0  0  1  0  0  3  0  0  0  0  0  0
  186.7420  178.1150  146.6320 N   0  0  0  0  0  2  0  0  0  0  0  0
  186.5560  178.0650  145.1950 C   0  0  0  0  0  2  0  0  0  0  0  0
  2  7  2  0  0  0  0
  2 12  1  0  0  0  0
  3 11  2  0  0  0  0
  3 10  1  0  0  0  0
  4 24  2  0  0  0  0
  5 19  2  0  0  0  0
  6 12  1  0  0  0  0
  8 13  1  6  0  0  0
  8  5  1  0  0  0  0
  8 17  1  0  0  0  0
  9  5  1  0  0  0  0
  9 15  1  0  0  0  0
 10 21  2  0  0  0  0
 11 23  1  0  0  0  0
 12 35  1  1  0  0  0
 14  2  1  0  0  0  0
 17 16  1  0  0  0  0
 17  6  1  0  0  0  0
 18  9  1  0  0  0  0
 19 14  2  0  0  0  0
 20 18  2  0  0  0  0
 21 13  1  0  0  0  0
 21 18  1  0  0  0  0
 22 14  1  0  0  0  0
 22  1  1  1  0  0  0
 22  4  1  0  0  0  0
 23 13  2  0  0  0  0
 24  7  1  0  0  0  0
 25  4  1  0  0  0  0
 25 26  1  0  0  0  0
 27 26  1  0  0  0  0
 28 33  1  0  0  0  0
 29 31  1  0  0  0  0
 30 28  1  0  0  0  0
 30 32  1  0  0  0  0
 32 34  1  0  0  0  0
 33 29  1  0  0  0  0
 34 31  1  0  0  0  0
 34 27  1  0  0  0  0
 35 36  1  0  0  0  0
 36 38  1  0  0  0  0
 38 37  1  6  0  0  0
 40 41  2  0  0  0  0
 42 38  1  6  0  0  0
 42 45  1  0  0  0  0
 42 43  1  0  0  0  0
 43 39  1  6  0  0  0
 43 40  1  0  0  0  0
 44 40  1  0  0  0  0
 45 44  1  0  0  0  0
M  END
>  <MODEL>
1

>  <REMARK>
 VINA RESULT:      -8.5      0.000      0.000
  Name = 
  8 active torsions:
  status: ('A' for Active; 'I' for Inactive)
    1  A    between atoms: C_7  and  O_29
    2  A    between atoms: N_15  and  C_30
    3  A    between atoms: N_15  and  C_39
    4  A    between atoms: C_21  and  C_28
    5  A    between atoms: C_21  and  N_33
    6  A    between atoms: C_22  and  C_39
    7  A    between atoms: O_29  and  N_33
    8  A    between atoms: C_30  and  C_36
                            x       y       z     vdW  Elec       q    Type
                         _______ _______ _______ _____ _____    ______ ____

>  <TORSDO>
F 8

$$$$
=
 OpenBabel10232412443D

 45 50  0  0  1  0  0  0  0  0999 V2000
  186.6860  175.5720  137.4990 C   0  0  0  0  0  1  0  0  0  0  0  0
  189.3010  177.0750  139.3130 C   0  0  0  0  0  0  0  0  0  0  0  0
  195.2890  174.6610  134.3460 C   0  0  0  0  0  3  0  0  0  0  0  0
  186.7790  177.9210  138.2730 C   0  0  0  0  0  0  0  0  0  0  0  0
  190.7990  175.4790  136.6270 C   0  0  0  0  0  0  0  0  0  0  0  0
  191.8260  177.0990  139.0790 C   0  0  0  0  0  2  0  0  0  0  0  0
  188.5230  177.8900  139.9650 N   0  0  0  0  0  0  0  0  0  0  0  0
  192.1380  176.1200  136.9280 C   0  0  2  0  0  3  0  0  0  0  0  0
  190.7420  174.1200  136.1470 N   0  0  0  0  0  0  0  0  0  0  0  0
  194.1810  173.8510  134.6060 C   0  0  0  0  0  3  0  0  0  0  0  0
  195.3520  175.9480  134.8840 C   0  0  0  0  0  3  0  0  0  0  0  0
  190.6270  176.6260  139.9070 C   0  0  1  0  0  3  0  0  0  0  0  0
  193.2130  175.6030  135.9870 C   0  0  0  0  0  0  0  0  0  0  0  0
  188.8860  176.6020  137.9740 C   0  0  0  0  0  0  0  0  0  0  0  0
  189.4890  173.3690  136.1640 C   0  0  0  0  0  1  0  0  0  0  0  0
  193.8710  176.0990  138.6630 C   0  0  0  0  0  1  0  0  0  0  0  0
  192.4470  175.9760  138.3750 N   0  0  0  0  0  0  0  0  0  0  0  0
  191.9180  173.5120  135.5950 C   0  0  0  0  0  0  0  0  0  0  0  0
  189.7720  176.0190  137.2200 C   0  0  0  0  0  0  0  0  0  0  0  0
  191.8960  172.3050  135.2260 O   0  0  0  0  0  0  0  0  0  0  0  0
  193.1370  174.3170  135.4160 C   0  0  0  0  0  0  0  0  0  0  0  0
  187.4930  176.8600  137.4730 C   0  0  1  0  0  3  0  0  0  0  0  0
  194.3180  176.4170  135.6980 C   0  0  0  0  0  3  0  0  0  0  0  0
  187.2710  178.3600  139.4420 C   0  0  0  0  0  3  0  0  0  0  0  0
  185.5750  178.4250  137.7730 O   0  0  0  0  0  0  0  0  0  0  0  0
  184.6150  178.9660  138.6040 N   0  0  0  0  0  2  0  0  0  0  0  0
  183.9200  177.8540  139.2330 C   0  0  0  0  0  2  0  0  0  0  0  0
  182.8210  178.5820  143.6520 C   0  0  0  0  0  2  0  0  0  0  0  0
  185.0870  179.2470  142.6400 C   0  0  0  0  0  2  0  0  0  0  0  0
  182.1520  179.1370  142.3910 C   0  0  0  0  0  2  0  0  0  0  0  0
  184.7180  179.2450  141.1450 C   0  0  0  0  0  2  0  0  0  0  0  0
  182.3540  178.2660  141.1460 C   0  0  0  0  0  2  0  0  0  0  0  0
  184.3060  178.2350  143.4880 C   0  0  0  0  0  2  0  0  0  0  0  0
  183.8230  178.0720  140.7340 C   0  0  0  0  0  3  0  0  0  0  0  0
  190.8020  176.9480  141.3930 C   0  0  0  0  0  2  0  0  0  0  0  0
  190.4190  175.8180  142.2280 N   0  0  0  0  0  2  0  0  0  0  0  0
  188.8170  177.3620  142.9460 O   0  0  0  0  0  1  0  0  0  0  0  0
  189.6830  176.3480  143.3660 C   0  0  2  0  0  3  0  0  0  0  0  0
  188.7890  176.8300  146.0110 O   0  0  0  0  0  1  0  0  0  0  0  0
  191.0070  176.9240  146.7500 C   0  0  0  0  0  0  0  0  0  0  0  0
  190.9930  177.2850  147.9550 O   0  0  0  0  0  0  0  0  0  0  0  0
  190.6530  176.8490  144.4410 C   0  0  1  0  0  3  0  0  0  0  0  0
  190.0370  177.3990  145.7430 C   0  0  1  0  0  3  0  0  0  0  0  0
  191.9660  176.0190  146.2410 N   0  0  0  0  0  2  0  0  0  0  0  0
  191.6910  175.7930  144.8350 C   0  0  0  0  0  2  0  0  0  0  0  0
  2 12  1  0  0  0  0
  2  7  2  0  0  0  0
  3 10  2  0  0  0  0
  3 11  1  0  0  0  0
  4 24  2  0  0  0  0
  5  8  1  0  0  0  0
  5 19  2  0  0  0  0
  6 12  1  0  0  0  0
  8 13  1  6  0  0  0
  8 17  1  0  0  0  0
  9 15  1  0  0  0  0
  9  5  1  0  0  0  0
 10 21  1  0  0  0  0
 11 23  2  0  0  0  0
 12 35  1  1  0  0  0
 14  2  1  0  0  0  0
 17 16  1  0  0  0  0
 17  6  1  0  0  0  0
 18  9  1  0  0  0  0
 19 14  2  0  0  0  0
 20 18  2  0  0  0  0
 21 18  1  0  0  0  0
 21 13  2  0  0  0  0
 22  1  1  1  0  0  0
 22 14  1  0  0  0  0
 22  4  1  0  0  0  0
 23 13  1  0  0  0  0
 24  7  1  0  0  0  0
 25  4  1  0  0  0  0
 25 26  1  0  0  0  0
 26 27  1  0  0  0  0
 27 34  1  0  0  0  0
 29 33  1  0  0  0  0
 30 28  1  0  0  0  0
 31 29  1  0  0  0  0
 32 30  1  0  0  0  0
 33 28  1  0  0  0  0
 34 31  1  0  0  0  0
 34 32  1  0  0  0  0
 35 36  1  0  0  0  0
 36 38  1  0  0  0  0
 38 37  1  6  0  0  0
 40 41  2  0  0  0  0
 42 38  1  6  0  0  0
 42 45  1  0  0  0  0
 42 43  1  0  0  0  0
 43 39  1  1  0  0  0
 43 40  1  0  0  0  0
 44 40  1  0  0  0  0
 45 44  1  0  0  0  0
M  END
>  <MODEL>
2

>  <REMARK>
 VINA RESULT:      -8.0      3.588      4.861
  Name = 
  8 active torsions:
  status: ('A' for Active; 'I' for Inactive)
    1  A    between atoms: C_7  and  O_29
    2  A    between atoms: N_15  and  C_30
    3  A    between atoms: N_15  and  C_39
    4  A    between atoms: C_21  and  C_28
    5  A    between atoms: C_21  and  N_33
    6  A    between atoms: C_22  and  C_39
    7  A    between atoms: O_29  and  N_33
    8  A    between atoms: C_30  and  C_36
                            x       y       z     vdW  Elec       q    Type
                         _______ _______ _______ _____ _____    ______ ____

>  <TORSDO>
F 8

$$$$
=
 OpenBabel10232412443D

 45 50  0  0  1  0  0  0  0  0999 V2000
  186.2950  174.9780  136.8520 C   0  0  0  0  0  1  0  0  0  0  0  0
  188.3440  177.2340  138.6120 C   0  0  0  0  0  0  0  0  0  0  0  0
  195.3670  174.7850  135.2880 C   0  0  0  0  0  3  0  0  0  0  0  0
  185.9630  177.4220  137.0450 C   0  0  0  0  0  0  0  0  0  0  0  0
  190.4780  175.3530  136.6320 C   0  0  0  0  0  0  0  0  0  0  0  0
  190.8500  177.6080  138.7460 C   0  0  0  0  0  2  0  0  0  0  0  0
  187.3700  178.0370  138.9300 N   0  0  0  0  0  0  0  0  0  0  0  0
  191.6540  176.2480  136.9610 C   0  0  2  0  0  3  0  0  0  0  0  0
  190.6720  173.9310  136.4900 N   0  0  0  0  0  0  0  0  0  0  0  0
  194.3370  173.8840  135.5720 C   0  0  0  0  0  3  0  0  0  0  0  0
  195.1770  176.1510  135.5050 C   0  0  0  0  0  3  0  0  0  0  0  0
  189.5890  177.1410  139.4810 C   0  0  1  0  0  3  0  0  0  0  0  0
  192.9340  175.7170  136.3370 C   0  0  0  0  0  0  0  0  0  0  0  0
  188.2340  176.4220  137.3790 C   0  0  0  0  0  0  0  0  0  0  0  0
  189.5370  173.0120  136.5050 C   0  0  0  0  0  1  0  0  0  0  0  0
  193.0420  176.8800  138.8820 C   0  0  0  0  0  1  0  0  0  0  0  0
  191.7170  176.4720  138.4300 N   0  0  0  0  0  0  0  0  0  0  0  0
  191.9920  173.4120  136.2750 C   0  0  0  0  0  0  0  0  0  0  0  0
  189.3040  175.8380  136.9240 C   0  0  0  0  0  0  0  0  0  0  0  0
  192.1830  172.1660  136.2070 O   0  0  0  0  0  0  0  0  0  0  0  0
  193.1170  174.3430  136.0870 C   0  0  0  0  0  0  0  0  0  0  0  0
  186.9320  176.3400  136.6350 C   0  0  1  0  0  3  0  0  0  0  0  0
  193.9650  176.6150  136.0250 C   0  0  0  0  0  3  0  0  0  0  0  0
  186.1840  178.1770  138.1340 C   0  0  0  0  0  3  0  0  0  0  0  0
  184.8160  177.6080  136.2710 O   0  0  0  0  0  0  0  0  0  0  0  0
  183.6600  176.8900  136.5020 N   0  0  0  0  0  2  0  0  0  0  0  0
  182.5820  177.8540  136.6560 C   0  0  0  0  0  2  0  0  0  0  0  0
  181.5040  178.5050  141.0930 C   0  0  0  0  0  2  0  0  0  0  0  0
  181.4850  176.1950  139.9670 C   0  0  0  0  0  2  0  0  0  0  0  0
  182.8260  178.7880  140.3730 C   0  0  0  0  0  2  0  0  0  0  0  0
  182.3640  176.4950  138.7390 C   0  0  0  0  0  2  0  0  0  0  0  0
  182.6730  179.0320  138.8680 C   0  0  0  0  0  2  0  0  0  0  0  0
  180.6600  177.3890  140.4630 C   0  0  0  0  0  2  0  0  0  0  0  0
  182.0710  177.8500  138.0880 C   0  0  0  0  0  3  0  0  0  0  0  0
  189.4570  177.8010  140.8560 C   0  0  0  0  0  2  0  0  0  0  0  0
  188.7010  176.9620  141.7750 N   0  0  0  0  0  2  0  0  0  0  0  0
  190.3300  175.5530  142.6820 O   0  0  0  0  0  1  0  0  0  0  0  0
  189.5570  176.6910  142.9210 C   0  0  2  0  0  3  0  0  0  0  0  0
  190.1000  178.2620  145.2160 O   0  0  0  0  0  1  0  0  0  0  0  0
  188.0310  177.6590  146.1270 C   0  0  0  0  0  0  0  0  0  0  0  0
  187.9860  178.1070  147.3010 O   0  0  0  0  0  0  0  0  0  0  0  0
  188.7140  176.5400  144.1910 C   0  0  1  0  0  3  0  0  0  0  0  0
  189.2680  177.1720  145.4830 C   0  0  1  0  0  3  0  0  0  0  0  0
  186.8860  177.5810  145.3010 N   0  0  0  0  0  2  0  0  0  0  0  0
  187.2800  177.0500  144.0110 C   0  0  0  0  0  2  0  0  0  0  0  0
  2  7  2  0  0  0  0
  2 12  1  0  0  0  0
  3 11  2  0  0  0  0
  3 10  1  0  0  0  0
  4 24  2  0  0  0  0
  5 19  2  0  0  0  0
  5  8  1  0  0  0  0
  6 12  1  0  0  0  0
  8 13  1  1  0  0  0
  8 17  1  0  0  0  0
  9 15  1  0  0  0  0
  9  5  1  0  0  0  0
 10 21  2  0  0  0  0
 11 23  1  0  0  0  0
 12 35  1  1  0  0  0
 14  2  1  0  0  0  0
 17  6  1  0  0  0  0
 17 16  1  0  0  0  0
 18  9  1  0  0  0  0
 19 14  2  0  0  0  0
 20 18  2  0  0  0  0
 21 18  1  0  0  0  0
 21 13  1  0  0  0  0
 22  1  1  1  0  0  0
 22  4  1  0  0  0  0
 22 14  1  0  0  0  0
 23 13  2  0  0  0  0
 24  7  1  0  0  0  0
 25 26  1  0  0  0  0
 25  4  1  0  0  0  0
 26 27  1  0  0  0  0
 27 34  1  0  0  0  0
 29 33  1  0  0  0  0
 30 28  1  0  0  0  0
 31 29  1  0  0  0  0
 32 30  1  0  0  0  0
 33 28  1  0  0  0  0
 34 31  1  0  0  0  0
 34 32  1  0  0  0  0
 35 36  1  0  0  0  0
 36 38  1  0  0  0  0
 38 37  1  6  0  0  0
 40 41  2  0  0  0  0
 42 38  1  6  0  0  0
 42 43  1  0  0  0  0
 43 39  1  6  0  0  0
 43 40  1  0  0  0  0
 44 40  1  0  0  0  0
 45 42  1  0  0  0  0
 45 44  1  0  0  0  0
M  END
>  <MODEL>
3

>  <REMARK>
 VINA RESULT:      -7.9      2.900      4.144
  Name = 
  8 active torsions:
  status: ('A' for Active; 'I' for Inactive)
    1  A    between atoms: C_7  and  O_29
    2  A    between atoms: N_15  and  C_30
    3  A    between atoms: N_15  and  C_39
    4  A    between atoms: C_21  and  C_28
    5  A    between atoms: C_21  and  N_33
    6  A    between atoms: C_22  and  C_39
    7  A    between atoms: O_29  and  N_33
    8  A    between atoms: C_30  and  C_36
                            x       y       z     vdW  Elec       q    Type
                         _______ _______ _______ _____ _____    ______ ____

>  <TORSDO>
F 8

$$$$
=
 OpenBabel10232412443D

 45 50  0  0  1  0  0  0  0  0999 V2000
  185.7230  174.9510  134.3460 C   0  0  0  0  0  1  0  0  0  0  0  0
  187.1290  176.4600  137.1990 C   0  0  0  0  0  0  0  0  0  0  0  0
  180.0970  179.1830  140.2810 C   0  0  0  0  0  3  0  0  0  0  0  0
  187.2910  173.8990  135.9460 C   0  0  0  0  0  0  0  0  0  0  0  0
  183.7210  177.0670  137.3800 C   0  0  0  0  0  0  0  0  0  0  0  0
  186.1940  177.8550  139.1000 C   0  0  0  0  0  2  0  0  0  0  0  0
  188.2440  175.7930  137.1330 N   0  0  0  0  0  0  0  0  0  0  0  0
  183.8420  177.6160  138.7860 C   0  0  2  0  0  3  0  0  0  0  0  0
  182.7880  177.6580  136.4530 N   0  0  0  0  0  0  0  0  0  0  0  0
  180.3300  179.1540  138.9040 C   0  0  0  0  0  3  0  0  0  0  0  0
  181.0520  178.6690  141.1610 C   0  0  0  0  0  3  0  0  0  0  0  0
  187.0820  177.8330  137.8520 C   0  0  1  0  0  3  0  0  0  0  0  0
  182.5040  178.1330  139.2870 C   0  0  0  0  0  0  0  0  0  0  0  0
  185.8960  175.8580  136.6430 C   0  0  0  0  0  0  0  0  0  0  0  0
  182.8750  177.3860  135.0210 C   0  0  0  0  0  1  0  0  0  0  0  0
  184.8400  179.5180  139.9700 C   0  0  0  0  0  1  0  0  0  0  0  0
  184.9580  178.5970  138.8460 N   0  0  0  0  0  0  0  0  0  0  0  0
  181.7230  178.4830  136.9470 C   0  0  0  0  0  0  0  0  0  0  0  0
  184.7510  176.3940  136.9480 C   0  0  0  0  0  0  0  0  0  0  0  0
  180.9350  179.0540  136.1440 O   0  0  0  0  0  0  0  0  0  0  0  0
  181.5260  178.6230  138.3990 C   0  0  0  0  0  0  0  0  0  0  0  0
  185.9680  174.6120  135.8070 C   0  0  1  0  0  3  0  0  0  0  0  0
  182.2480  178.1440  140.6650 C   0  0  0  0  0  3  0  0  0  0  0  0
  188.3380  174.4860  136.5450 C   0  0  0  0  0  3  0  0  0  0  0  0
  187.4050  172.6110  135.4150 O   0  0  0  0  0  0  0  0  0  0  0  0
  186.6910  171.5490  135.9300 N   0  0  0  0  0  2  0  0  0  0  0  0
  186.0340  170.8950  134.8090 C   0  0  0  0  0  2  0  0  0  0  0  0
  181.6350  171.0250  136.1910 C   0  0  0  0  0  2  0  0  0  0  0  0
  182.7630  168.8990  135.2900 C   0  0  0  0  0  2  0  0  0  0  0  0
  182.9060  171.2930  137.0020 C   0  0  0  0  0  2  0  0  0  0  0  0
  184.2410  169.2880  135.4710 C   0  0  0  0  0  2  0  0  0  0  0  0
  184.0990  171.7510  136.1540 C   0  0  0  0  0  2  0  0  0  0  0  0
  181.8260  170.0790  134.9990 C   0  0  0  0  0  2  0  0  0  0  0  0
  184.5470  170.7390  135.0860 C   0  0  0  0  0  3  0  0  0  0  0  0
  188.4530  178.4580  138.1220 C   0  0  0  0  0  2  0  0  0  0  0  0
  188.6140  178.7910  139.5310 N   0  0  0  0  0  2  0  0  0  0  0  0
  190.2660  177.2180  139.0190 O   0  0  0  0  0  1  0  0  0  0  0  0
  189.7700  178.0560  140.0220 C   0  0  2  0  0  3  0  0  0  0  0  0
  191.6650  177.6650  142.0920 O   0  0  0  0  0  1  0  0  0  0  0  0
  189.9570  176.9710  143.5330 C   0  0  0  0  0  0  0  0  0  0  0  0
  190.4960  176.5580  144.5920 O   0  0  0  0  0  0  0  0  0  0  0  0
  189.4020  177.2650  141.2810 C   0  0  1  0  0  3  0  0  0  0  0  0
  190.5600  176.8150  142.1940 C   0  0  1  0  0  3  0  0  0  0  0  0
  188.7080  177.6320  143.5260 N   0  0  0  0  0  2  0  0  0  0  0  0
  188.3850  178.0000  142.1610 C   0  0  0  0  0  2  0  0  0  0  0  0
  2 12  1  0  0  0  0
  3 11  1  0  0  0  0
  4 24  2  0  0  0  0
  7  2  2  0  0  0  0
  8  5  1  6  0  0  0
  8 17  1  0  0  0  0
  8 13  1  0  0  0  0
  9 18  1  0  0  0  0
  9  5  1  0  0  0  0
 10  3  2  0  0  0  0
 12 35  1  1  0  0  0
 12  6  1  0  0  0  0
 13 23  1  0  0  0  0
 14 19  2  0  0  0  0
 14  2  1  0  0  0  0
 15  9  1  0  0  0  0
 17  6  1  0  0  0  0
 17 16  1  0  0  0  0
 18 21  1  0  0  0  0
 19  5  2  0  0  0  0
 20 18  2  0  0  0  0
 21 10  1  0  0  0  0
 21 13  2  0  0  0  0
 22  1  1  6  0  0  0
 22  4  1  0  0  0  0
 22 14  1  0  0  0  0
 23 11  2  0  0  0  0
 24  7  1  0  0  0  0
 25 26  1  0  0  0  0
 25  4  1  0  0  0  0
 27 34  1  0  0  0  0
 27 26  1  0  0  0  0
 28 30  1  0  0  0  0
 29 31  1  0  0  0  0
 32 30  1  0  0  0  0
 33 29  1  0  0  0  0
 33 28  1  0  0  0  0
 34 31  1  0  0  0  0
 34 32  1  0  0  0  0
 35 36  1  0  0  0  0
 36 38  1  0  0  0  0
 38 37  1  6  0  0  0
 40 41  2  0  0  0  0
 42 38  1  6  0  0  0
 42 45  1  0  0  0  0
 42 43  1  0  0  0  0
 43 39  1  1  0  0  0
 43 40  1  0  0  0  0
 44 40  1  0  0  0  0
 45 44  1  0  0  0  0
M  END
>  <MODEL>
4

>  <REMARK>
 VINA RESULT:      -7.1      2.855      8.110
  Name = 
  8 active torsions:
  status: ('A' for Active; 'I' for Inactive)
    1  A    between atoms: C_7  and  O_29
    2  A    between atoms: N_15  and  C_30
    3  A    between atoms: N_15  and  C_39
    4  A    between atoms: C_21  and  C_28
    5  A    between atoms: C_21  and  N_33
    6  A    between atoms: C_22  and  C_39
    7  A    between atoms: O_29  and  N_33
    8  A    between atoms: C_30  and  C_36
                            x       y       z     vdW  Elec       q    Type
                         _______ _______ _______ _____ _____    ______ ____

>  <TORSDO>
F 8

$$$$
=
 OpenBabel10232412443D

 45 50  0  0  1  0  0  0  0  0999 V2000
  186.9040  174.6320  135.6050 C   0  0  0  0  0  1  0  0  0  0  0  0
  188.6970  176.9060  137.6060 C   0  0  0  0  0  0  0  0  0  0  0  0
  196.1040  174.4110  135.3090 C   0  0  0  0  0  3  0  0  0  0  0  0
  186.5550  177.0790  135.7240 C   0  0  0  0  0  0  0  0  0  0  0  0
  191.0790  175.0000  135.9600 C   0  0  0  0  0  0  0  0  0  0  0  0
  191.1610  177.2770  138.0800 C   0  0  0  0  0  2  0  0  0  0  0  0
  187.6910  177.7130  137.7780 N   0  0  0  0  0  0  0  0  0  0  0  0
  192.2000  175.8970  136.4380 C   0  0  2  0  0  3  0  0  0  0  0  0
  191.2860  173.5760  135.8600 N   0  0  0  0  0  0  0  0  0  0  0  0
  195.0430  173.5150  135.4570 C   0  0  0  0  0  3  0  0  0  0  0  0
  195.8900  175.7800  135.4830 C   0  0  0  0  0  3  0  0  0  0  0  0
  189.8100  176.8200  138.6390 C   0  0  1  0  0  3  0  0  0  0  0  0
  193.5530  175.3580  136.0020 C   0  0  0  0  0  0  0  0  0  0  0  0
  188.7560  176.0800  136.3790 C   0  0  0  0  0  0  0  0  0  0  0  0
  190.1570  172.6590  135.7290 C   0  0  0  0  0  1  0  0  0  0  0  0
  193.3120  176.5480  138.5250 C   0  0  0  0  0  1  0  0  0  0  0  0
  192.0610  176.1370  137.8990 N   0  0  0  0  0  0  0  0  0  0  0  0
  192.6220  173.0540  135.8350 C   0  0  0  0  0  0  0  0  0  0  0  0
  189.8760  175.4890  136.0810 C   0  0  0  0  0  0  0  0  0  0  0  0
  192.8170  171.8070  135.8080 O   0  0  0  0  0  0  0  0  0  0  0  0
  193.7640  173.9800  135.7940 C   0  0  0  0  0  0  0  0  0  0  0  0
  187.5680  175.9920  135.4630 C   0  0  1  0  0  3  0  0  0  0  0  0
  194.6190  176.2510  135.8250 C   0  0  0  0  0  3  0  0  0  0  0  0
  186.6260  177.8460  136.8240 C   0  0  0  0  0  3  0  0  0  0  0  0
  185.5260  177.2580  134.7970 O   0  0  0  0  0  0  0  0  0  0  0  0
  184.2100  177.3940  135.1910 N   0  0  0  0  0  2  0  0  0  0  0  0
  183.4640  176.3150  134.5630 C   0  0  0  0  0  2  0  0  0  0  0  0
  183.0340  172.2390  136.6790 C   0  0  0  0  0  2  0  0  0  0  0  0
  183.7330  174.3900  137.9000 C   0  0  0  0  0  2  0  0  0  0  0  0
  181.9670  173.0610  135.9490 C   0  0  0  0  0  2  0  0  0  0  0  0
  183.2350  175.4390  136.8890 C   0  0  0  0  0  2  0  0  0  0  0  0
  182.5330  174.0100  134.8860 C   0  0  0  0  0  2  0  0  0  0  0  0
  184.1830  173.0650  137.2700 C   0  0  0  0  0  2  0  0  0  0  0  0
  183.5100  175.0660  135.4290 C   0  0  0  0  0  3  0  0  0  0  0  0
  189.4920  177.4960  139.9760 C   0  0  0  0  0  2  0  0  0  0  0  0
  189.7960  176.6170  141.0980 N   0  0  0  0  0  2  0  0  0  0  0  0
  188.8120  178.4040  142.2400 O   0  0  0  0  0  1  0  0  0  0  0  0
  188.9370  177.0130  142.2040 C   0  0  2  0  0  3  0  0  0  0  0  0
  191.4460  177.8750  143.1980 O   0  0  0  0  0  1  0  0  0  0  0  0
  190.9440  176.9490  145.2880 C   0  0  0  0  0  0  0  0  0  0  0  0
  191.9760  177.0360  146.0010 O   0  0  0  0  0  0  0  0  0  0  0  0
  189.4860  176.4650  143.5260 C   0  0  1  0  0  3  0  0  0  0  0  0
  190.9750  176.7200  143.8290 C   0  0  1  0  0  3  0  0  0  0  0  0
  189.6410  177.0650  145.8220 N   0  0  0  0  0  2  0  0  0  0  0  0
  188.6830  176.9460  144.7400 C   0  0  0  0  0  2  0  0  0  0  0  0
  2  7  2  0  0  0  0
  2 12  1  0  0  0  0
  3 10  2  0  0  0  0
  3 11  1  0  0  0  0
  4 24  2  0  0  0  0
  5 19  2  0  0  0  0
  6 12  1  0  0  0  0
  8  5  1  1  0  0  0
  8 17  1  0  0  0  0
  9  5  1  0  0  0  0
 10 21  1  0  0  0  0
 11 23  2  0  0  0  0
 12 35  1  1  0  0  0
 13  8  1  0  0  0  0
 14  2  1  0  0  0  0
 15  9  1  0  0  0  0
 17  6  1  0  0  0  0
 17 16  1  0  0  0  0
 18  9  1  0  0  0  0
 19 14  2  0  0  0  0
 20 18  2  0  0  0  0
 21 18  1  0  0  0  0
 21 13  2  0  0  0  0
 22  1  1  1  0  0  0
 22  4  1  0  0  0  0
 22 14  1  0  0  0  0
 23 13  1  0  0  0  0
 24  7  1  0  0  0  0
 25 26  1  0  0  0  0
 25  4  1  0  0  0  0
 27 26  1  0  0  0  0
 27 34  1  0  0  0  0
 28 33  1  0  0  0  0
 30 28  1  0  0  0  0
 31 29  1  0  0  0  0
 32 34  1  0  0  0  0
 32 30  1  0  0  0  0
 33 29  1  0  0  0  0
 34 31  1  0  0  0  0
 35 36  1  0  0  0  0
 36 38  1  0  0  0  0
 38 37  1  1  0  0  0
 40 44  1  0  0  0  0
 40 41  2  0  0  0  0
 42 38  1  6  0  0  0
 42 43  1  0  0  0  0
 42 45  1  0  0  0  0
 43 39  1  6  0  0  0
 43 40  1  0  0  0  0
 45 44  1  0  0  0  0
M  END
>  <MODEL>
5

>  <REMARK>
 VINA RESULT:      -7.0      4.068      5.558
  Name = 
  8 active torsions:
  status: ('A' for Active; 'I' for Inactive)
    1  A    between atoms: C_7  and  O_29
    2  A    between atoms: N_15  and  C_30
    3  A    between atoms: N_15  and  C_39
    4  A    between atoms: C_21  and  C_28
    5  A    between atoms: C_21  and  N_33
    6  A    between atoms: C_22  and  C_39
    7  A    between atoms: O_29  and  N_33
    8  A    between atoms: C_30  and  C_36
                            x       y       z     vdW  Elec       q    Type
                         _______ _______ _______ _____ _____    ______ ____

>  <TORSDO>
F 8

$$$$
=
 OpenBabel10232412443D

 45 50  0  0  1  0  0  0  0  0999 V2000
  182.0440  176.3740  138.3540 C   0  0  0  0  0  1  0  0  0  0  0  0
  184.6960  178.4270  139.4210 C   0  0  0  0  0  0  0  0  0  0  0  0
  190.3570  175.0810  134.6130 C   0  0  0  0  0  3  0  0  0  0  0  0
  182.0310  178.8450  138.4830 C   0  0  0  0  0  0  0  0  0  0  0  0
  186.0530  176.2530  137.0870 C   0  0  0  0  0  0  0  0  0  0  0  0
  187.1800  178.5100  138.9120 C   0  0  0  0  0  2  0  0  0  0  0  0
  183.9240  179.3460  139.9240 N   0  0  0  0  0  0  0  0  0  0  0  0
  187.3610  177.0140  137.0640 C   0  0  2  0  0  3  0  0  0  0  0  0
  186.0530  174.8150  136.9830 N   0  0  0  0  0  0  0  0  0  0  0  0
  189.3430  174.3150  135.1930 C   0  0  0  0  0  3  0  0  0  0  0  0
  190.3730  176.4660  134.7920 C   0  0  0  0  0  3  0  0  0  0  0  0
  186.1020  178.2150  139.9610 C   0  0  1  0  0  3  0  0  0  0  0  0
  188.3790  176.3210  136.1750 C   0  0  0  0  0  0  0  0  0  0  0  0
  184.1940  177.5980  138.3030 C   0  0  0  0  0  0  0  0  0  0  0  0
  184.8680  174.0350  137.3310 C   0  0  0  0  0  1  0  0  0  0  0  0
  189.2460  177.5360  138.5440 C   0  0  0  0  0  1  0  0  0  0  0  0
  187.8150  177.2720  138.4560 N   0  0  0  0  0  0  0  0  0  0  0  0
  187.2140  174.1400  136.4790 C   0  0  0  0  0  0  0  0  0  0  0  0
  185.0470  176.8800  137.6320 C   0  0  0  0  0  0  0  0  0  0  0  0
  187.2500  172.8790  136.4380 O   0  0  0  0  0  0  0  0  0  0  0  0
  188.3470  174.9280  135.9660 C   0  0  0  0  0  0  0  0  0  0  0  0
  182.7460  177.6460  137.9090 C   0  0  1  0  0  3  0  0  0  0  0  0
  189.3870  177.0830  135.5670 C   0  0  0  0  0  3  0  0  0  0  0  0
  182.5970  179.6010  139.4380 C   0  0  0  0  0  3  0  0  0  0  0  0
  180.7520  179.1410  138.0070 O   0  0  0  0  0  0  0  0  0  0  0  0
  180.2400  180.4220  138.0480 N   0  0  0  0  0  2  0  0  0  0  0  0
  180.3280  180.9590  136.6990 C   0  0  0  0  0  2  0  0  0  0  0  0
  180.1160  185.5100  135.9800 C   0  0  0  0  0  2  0  0  0  0  0  0
  181.3480  184.4580  137.9750 C   0  0  0  0  0  2  0  0  0  0  0  0
  180.7320  184.4240  135.0930 C   0  0  0  0  0  2  0  0  0  0  0  0
  181.5170  183.0210  137.4510 C   0  0  0  0  0  2  0  0  0  0  0  0
  180.1250  183.0320  135.3040 C   0  0  0  0  0  2  0  0  0  0  0  0
  180.0840  185.1710  137.4760 C   0  0  0  0  0  2  0  0  0  0  0  0
  180.2790  182.4780  136.7300 C   0  0  0  0  0  3  0  0  0  0  0  0
  186.3920  178.9260  141.2850 C   0  0  0  0  0  2  0  0  0  0  0  0
  186.2400  178.0190  142.4160 N   0  0  0  0  0  2  0  0  0  0  0  0
  185.1890  179.9360  143.2430 O   0  0  0  0  0  1  0  0  0  0  0  0
  185.1660  178.5390  143.2480 C   0  0  2  0  0  3  0  0  0  0  0  0
  187.6720  178.4150  144.5630 O   0  0  0  0  0  1  0  0  0  0  0  0
  186.5910  178.0380  146.6030 C   0  0  0  0  0  0  0  0  0  0  0  0
  187.4750  177.7820  147.4620 O   0  0  0  0  0  0  0  0  0  0  0  0
  185.2770  177.9810  144.6710 C   0  0  1  0  0  3  0  0  0  0  0  0
  186.6890  177.6400  145.1850 C   0  0  1  0  0  3  0  0  0  0  0  0
  185.4070  178.7410  146.9200 N   0  0  0  0  0  2  0  0  0  0  0  0
  184.6190  178.8930  145.7130 C   0  0  0  0  0  2  0  0  0  0  0  0
  2  7  2  0  0  0  0
  2 12  1  0  0  0  0
  3 11  2  0  0  0  0
  3 10  1  0  0  0  0
  4 24  2  0  0  0  0
  5 19  2  0  0  0  0
  6 12  1  0  0  0  0
  8 13  1  6  0  0  0
  8  5  1  0  0  0  0
  8 17  1  0  0  0  0
  9  5  1  0  0  0  0
  9 15  1  0  0  0  0
 10 21  2  0  0  0  0
 11 23  1  0  0  0  0
 12 35  1  1  0  0  0
 14  2  1  0  0  0  0
 17 16  1  0  0  0  0
 17  6  1  0  0  0  0
 18  9  1  0  0  0  0
 19 14  2  0  0  0  0
 20 18  2  0  0  0  0
 21 13  1  0  0  0  0
 21 18  1  0  0  0  0
 22 14  1  0  0  0  0
 22  1  1  1  0  0  0
 22  4  1  0  0  0  0
 23 13  2  0  0  0  0
 24  7  1  0  0  0  0
 25 26  1  0  0  0  0
 25  4  1  0  0  0  0
 27 34  1  0  0  0  0
 27 26  1  0  0  0  0
 28 33  1  0  0  0  0
 30 32  1  0  0  0  0
 30 28  1  0  0  0  0
 31 29  1  0  0  0  0
 32 34  1  0  0  0  0
 33 29  1  0  0  0  0
 34 31  1  0  0  0  0
 35 36  1  0  0  0  0
 36 38  1  0  0  0  0
 38 37  1  1  0  0  0
 40 44  1  0  0  0  0
 40 41  2  0  0  0  0
 42 38  1  6  0  0  0
 42 43  1  0  0  0  0
 42 45  1  0  0  0  0
 43 39  1  6  0  0  0
 43 40  1  0  0  0  0
 45 44  1  0  0  0  0
M  END
>  <MODEL>
6

>  <REMARK>
 VINA RESULT:      -6.9      1.327      1.479
  Name = 
  8 active torsions:
  status: ('A' for Active; 'I' for Inactive)
    1  A    between atoms: C_7  and  O_29
    2  A    between atoms: N_15  and  C_30
    3  A    between atoms: N_15  and  C_39
    4  A    between atoms: C_21  and  C_28
    5  A    between atoms: C_21  and  N_33
    6  A    between atoms: C_22  and  C_39
    7  A    between atoms: O_29  and  N_33
    8  A    between atoms: C_30  and  C_36
                            x       y       z     vdW  Elec       q    Type
                         _______ _______ _______ _____ _____    ______ ____

>  <TORSDO>
F 8

$$$$
=
 OpenBabel10232412443D

 45 50  0  0  1  0  0  0  0  0999 V2000
  184.5380  179.0600  143.3040 C   0  0  0  0  0  1  0  0  0  0  0  0
  187.0910  178.4170  140.9670 C   0  0  0  0  0  0  0  0  0  0  0  0
  192.3000  175.0990  146.2780 C   0  0  0  0  0  3  0  0  0  0  0  0
  184.2880  177.8950  141.1350 C   0  0  0  0  0  0  0  0  0  0  0  0
  188.3080  177.3400  144.0280 C   0  0  0  0  0  0  0  0  0  0  0  0
  189.4500  177.5000  141.1360 C   0  0  0  0  0  2  0  0  0  0  0  0
  186.3090  178.5020  139.9300 N   0  0  0  0  0  0  0  0  0  0  0  0
  189.5120  176.6920  143.3780 C   0  0  2  0  0  3  0  0  0  0  0  0
  188.4430  177.9950  145.3060 N   0  0  0  0  0  0  0  0  0  0  0  0
  191.4680  176.1620  146.6350 C   0  0  0  0  0  3  0  0  0  0  0  0
  192.1980  174.5300  145.0060 C   0  0  0  0  0  3  0  0  0  0  0  0
  188.5750  178.7250  140.8470 C   0  0  1  0  0  3  0  0  0  0  0  0
  190.4550  176.1230  144.4250 C   0  0  0  0  0  0  0  0  0  0  0  0
  186.5190  177.9980  142.2660 C   0  0  0  0  0  0  0  0  0  0  0  0
  187.4090  178.9020  145.8000 C   0  0  0  0  0  1  0  0  0  0  0  0
  191.5300  177.3230  142.1350 C   0  0  0  0  0  1  0  0  0  0  0  0
  190.1360  177.6430  142.4210 N   0  0  0  0  0  0  0  0  0  0  0  0
  189.5810  177.7120  146.1310 C   0  0  0  0  0  0  0  0  0  0  0  0
  187.3340  177.6530  143.2200 C   0  0  0  0  0  0  0  0  0  0  0  0
  189.7410  178.3220  147.2250 O   0  0  0  0  0  0  0  0  0  0  0  0
  190.5380  176.6730  145.7190 C   0  0  0  0  0  0  0  0  0  0  0  0
  185.0310  177.9040  142.4480 C   0  0  1  0  0  3  0  0  0  0  0  0
  191.2780  175.0390  144.0850 C   0  0  0  0  0  3  0  0  0  0  0  0
  184.9060  178.2030  139.9840 C   0  0  0  0  0  3  0  0  0  0  0  0
  182.9280  177.5730  141.1490 O   0  0  0  0  0  0  0  0  0  0  0  0
  182.1240  177.7720  140.0450 N   0  0  0  0  0  2  0  0  0  0  0  0
  181.2050  178.8490  140.3770 C   0  0  0  0  0  2  0  0  0  0  0  0
  180.3220  180.7290  136.2580 C   0  0  0  0  0  2  0  0  0  0  0  0
  181.6640  181.9290  138.0920 C   0  0  0  0  0  2  0  0  0  0  0  0
  181.1100  179.4570  136.5860 C   0  0  0  0  0  2  0  0  0  0  0  0
  182.0570  180.7210  138.9620 C   0  0  0  0  0  2  0  0  0  0  0  0
  180.7160  178.8080  137.9180 C   0  0  0  0  0  2  0  0  0  0  0  0
  180.3160  181.7810  137.3740 C   0  0  0  0  0  2  0  0  0  0  0  0
  180.9270  179.7040  139.1500 C   0  0  0  0  0  3  0  0  0  0  0  0
  188.9810  179.4150  139.5430 C   0  0  0  0  0  2  0  0  0  0  0  0
  189.6390  178.4860  138.6350 N   0  0  0  0  0  2  0  0  0  0  0  0
  188.4380  179.9030  137.2150 O   0  0  0  0  0  1  0  0  0  0  0  0
  189.0090  178.6320  137.3310 C   0  0  2  0  0  3  0  0  0  0  0  0
  188.5240  177.5830  134.7440 O   0  0  0  0  0  1  0  0  0  0  0  0
  187.3640  175.7820  135.6840 C   0  0  0  0  0  0  0  0  0  0  0  0
  186.8490  175.1260  134.7420 O   0  0  0  0  0  0  0  0  0  0  0  0
  187.9680  177.5290  137.1160 C   0  0  1  0  0  3  0  0  0  0  0  0
  187.5280  177.2500  135.6650 C   0  0  1  0  0  3  0  0  0  0  0  0
  187.8410  175.1680  136.8640 N   0  0  0  0  0  2  0  0  0  0  0  0
  188.3930  176.1910  137.7300 C   0  0  0  0  0  2  0  0  0  0  0  0
  2 14  1  0  0  0  0
  3 10  1  0  0  0  0
  4 25  1  0  0  0  0
  4 22  1  0  0  0  0
  5  9  1  0  0  0  0
  6 17  1  0  0  0  0
  7 24  1  0  0  0  0
  7  2  2  0  0  0  0
  8  5  1  1  0  0  0
  8 13  1  0  0  0  0
  9 15  1  0  0  0  0
  9 18  1  0  0  0  0
 11  3  2  0  0  0  0
 12 35  1  6  0  0  0
 12  2  1  0  0  0  0
 12  6  1  0  0  0  0
 13 21  1  0  0  0  0
 14 22  1  0  0  0  0
 14 19  2  0  0  0  0
 16 17  1  0  0  0  0
 17  8  1  0  0  0  0
 18 20  2  0  0  0  0
 19  5  2  0  0  0  0
 21 18  1  0  0  0  0
 21 10  2  0  0  0  0
 22  1  1  1  0  0  0
 23 13  2  0  0  0  0
 23 11  1  0  0  0  0
 24  4  2  0  0  0  0
 26 27  1  0  0  0  0
 26 25  1  0  0  0  0
 28 30  1  0  0  0  0
 28 33  1  0  0  0  0
 29 31  1  0  0  0  0
 30 32  1  0  0  0  0
 31 34  1  0  0  0  0
 32 34  1  0  0  0  0
 33 29  1  0  0  0  0
 34 27  1  0  0  0  0
 36 35  1  0  0  0  0
 38 37  1  1  0  0  0
 38 36  1  0  0  0  0
 40 44  1  0  0  0  0
 41 40  2  0  0  0  0
 42 38  1  6  0  0  0
 42 45  1  0  0  0  0
 43 39  1  6  0  0  0
 43 40  1  0  0  0  0
 43 42  1  0  0  0  0
 44 45  1  0  0  0  0
M  END
>  <MODEL>
7

>  <REMARK>
 VINA RESULT:      -6.8      2.534      7.206
  Name = 
  8 active torsions:
  status: ('A' for Active; 'I' for Inactive)
    1  A    between atoms: C_7  and  O_29
    2  A    between atoms: N_15  and  C_30
    3  A    between atoms: N_15  and  C_39
    4  A    between atoms: C_21  and  C_28
    5  A    between atoms: C_21  and  N_33
    6  A    between atoms: C_22  and  C_39
    7  A    between atoms: O_29  and  N_33
    8  A    between atoms: C_30  and  C_36
                            x       y       z     vdW  Elec       q    Type
                         _______ _______ _______ _____ _____    ______ ____

>  <TORSDO>
F 8

$$$$
=
 OpenBabel10232412443D

 45 50  0  0  1  0  0  0  0  0999 V2000
  184.2590  179.0800  143.0760 C   0  0  0  0  0  1  0  0  0  0  0  0
  186.7790  178.4670  140.6960 C   0  0  0  0  0  0  0  0  0  0  0  0
  192.1000  175.1740  145.9110 C   0  0  0  0  0  3  0  0  0  0  0  0
  183.9840  177.9210  140.9070 C   0  0  0  0  0  0  0  0  0  0  0  0
  188.0540  177.3900  143.7330 C   0  0  0  0  0  0  0  0  0  0  0  0
  189.1480  177.5700  140.8250 C   0  0  0  0  0  2  0  0  0  0  0  0
  185.9800  178.5500  139.6720 N   0  0  0  0  0  0  0  0  0  0  0  0
  189.2530  176.7550  143.0620 C   0  0  2  0  0  3  0  0  0  0  0  0
  188.2030  178.0410  145.0110 N   0  0  0  0  0  0  0  0  0  0  0  0
  191.2650  176.2290  146.2860 C   0  0  0  0  0  3  0  0  0  0  0  0
  191.9830  174.6090  144.6390 C   0  0  0  0  0  3  0  0  0  0  0  0
  188.2590  178.7890  140.5540 C   0  0  1  0  0  3  0  0  0  0  0  0
  190.2170  176.1890  144.0910 C   0  0  0  0  0  0  0  0  0  0  0  0
  186.2310  178.0390  142.0030 C   0  0  0  0  0  0  0  0  0  0  0  0
  187.1710  178.9370  145.5250 C   0  0  0  0  0  1  0  0  0  0  0  0
  191.2450  177.4070  141.7890 C   0  0  0  0  0  1  0  0  0  0  0  0
  189.8540  177.7150  142.0990 N   0  0  0  0  0  0  0  0  0  0  0  0
  189.3570  177.7650  145.8180 C   0  0  0  0  0  0  0  0  0  0  0  0
  187.0640  177.6980  142.9420 C   0  0  0  0  0  0  0  0  0  0  0  0
  189.5300  178.3720  146.9110 O   0  0  0  0  0  0  0  0  0  0  0  0
  190.3160  176.7350  145.3860 C   0  0  0  0  0  0  0  0  0  0  0  0
  184.7470  177.9320  142.2080 C   0  0  1  0  0  3  0  0  0  0  0  0
  191.0440  175.1140  143.7350 C   0  0  0  0  0  3  0  0  0  0  0  0
  184.5810  178.2390  139.7470 C   0  0  0  0  0  3  0  0  0  0  0  0
  182.6270  177.5880  140.9410 O   0  0  0  0  0  0  0  0  0  0  0  0
  181.9120  177.3420  139.7870 N   0  0  0  0  0  2  0  0  0  0  0  0
  181.9000  175.9000  139.5920 C   0  0  0  0  0  2  0  0  0  0  0  0
  182.4280  174.3510  135.2800 C   0  0  0  0  0  2  0  0  0  0  0  0
  184.3820  175.1950  136.7180 C   0  0  0  0  0  2  0  0  0  0  0  0
  181.9090  173.6050  136.5130 C   0  0  0  0  0  2  0  0  0  0  0  0
  183.7440  175.0920  138.1160 C   0  0  0  0  0  2  0  0  0  0  0  0
  181.3070  174.5200  137.5850 C   0  0  0  0  0  2  0  0  0  0  0  0
  183.3910  175.5040  135.5890 C   0  0  0  0  0  2  0  0  0  0  0  0
  182.2850  175.5580  138.1620 C   0  0  0  0  0  3  0  0  0  0  0  0
  188.6380  179.4870  139.2460 C   0  0  0  0  0  2  0  0  0  0  0  0
  189.3230  178.5760  138.3390 N   0  0  0  0  0  2  0  0  0  0  0  0
  187.8730  179.8310  137.0010 O   0  0  0  0  0  1  0  0  0  0  0  0
  188.6750  178.6870  137.0410 C   0  0  2  0  0  3  0  0  0  0  0  0
  189.1460  177.1860  134.6840 O   0  0  0  0  0  1  0  0  0  0  0  0
  187.9110  175.4040  135.5650 C   0  0  0  0  0  0  0  0  0  0  0  0
  187.7880  174.5400  134.6580 O   0  0  0  0  0  0  0  0  0  0  0  0
  187.8620  177.4230  136.7420 C   0  0  1  0  0  3  0  0  0  0  0  0
  187.9390  176.8580  135.3100 C   0  0  1  0  0  3  0  0  0  0  0  0
  188.0350  175.0580  136.9300 N   0  0  0  0  0  2  0  0  0  0  0  0
  188.1850  176.2750  137.7040 C   0  0  0  0  0  2  0  0  0  0  0  0
  2 14  1  0  0  0  0
  3 10  1  0  0  0  0
  4 25  1  0  0  0  0
  4 22  1  0  0  0  0
  5  9  1  0  0  0  0
  6 17  1  0  0  0  0
  7 24  1  0  0  0  0
  7  2  2  0  0  0  0
  8  5  1  1  0  0  0
  8 13  1  0  0  0  0
  9 15  1  0  0  0  0
  9 18  1  0  0  0  0
 11  3  2  0  0  0  0
 12 35  1  6  0  0  0
 12  2  1  0  0  0  0
 12  6  1  0  0  0  0
 13 21  1  0  0  0  0
 14 22  1  0  0  0  0
 14 19  2  0  0  0  0
 16 17  1  0  0  0  0
 17  8  1  0  0  0  0
 18 20  2  0  0  0  0
 19  5  2  0  0  0  0
 21 18  1  0  0  0  0
 21 10  2  0  0  0  0
 22  1  1  1  0  0  0
 23 13  2  0  0  0  0
 23 11  1  0  0  0  0
 24  4  2  0  0  0  0
 26 25  1  0  0  0  0
 27 26  1  0  0  0  0
 28 33  1  0  0  0  0
 28 30  1  0  0  0  0
 29 31  1  0  0  0  0
 30 32  1  0  0  0  0
 31 34  1  0  0  0  0
 32 34  1  0  0  0  0
 33 29  1  0  0  0  0
 34 27  1  0  0  0  0
 36 35  1  0  0  0  0
 38 37  1  1  0  0  0
 38 36  1  0  0  0  0
 40 44  1  0  0  0  0
 41 40  2  0  0  0  0
 42 38  1  6  0  0  0
 42 45  1  0  0  0  0
 43 39  1  1  0  0  0
 43 40  1  0  0  0  0
 43 42  1  0  0  0  0
 44 45  1  0  0  0  0
M  END
>  <MODEL>
8

>  <REMARK>
 VINA RESULT:      -6.5      3.616      7.838
  Name = 
  8 active torsions:
  status: ('A' for Active; 'I' for Inactive)
    1  A    between atoms: C_7  and  O_29
    2  A    between atoms: N_15  and  C_30
    3  A    between atoms: N_15  and  C_39
    4  A    between atoms: C_21  and  C_28
    5  A    between atoms: C_21  and  N_33
    6  A    between atoms: C_22  and  C_39
    7  A    between atoms: O_29  and  N_33
    8  A    between atoms: C_30  and  C_36
                            x       y       z     vdW  Elec       q    Type
                         _______ _______ _______ _____ _____    ______ ____

>  <TORSDO>
F 8

$$$$
=
 OpenBabel10232412443D

 45 50  0  0  1  0  0  0  0  0999 V2000
  190.3000  176.9080  137.3400 C   0  0  0  0  0  1  0  0  0  0  0  0
  187.7070  174.7320  136.3780 C   0  0  0  0  0  0  0  0  0  0  0  0
  181.5980  179.6680  138.5400 C   0  0  0  0  0  3  0  0  0  0  0  0
  190.0720  175.7680  135.1560 C   0  0  0  0  0  0  0  0  0  0  0  0
  186.1570  177.5470  137.6750 C   0  0  0  0  0  0  0  0  0  0  0  0
  185.1780  174.8150  136.5490 C   0  0  0  0  0  2  0  0  0  0  0  0
  188.4600  174.0050  135.6050 N   0  0  0  0  0  0  0  0  0  0  0  0
  184.7950  177.0730  137.2120 C   0  0  2  0  0  3  0  0  0  0  0  0
  186.2900  178.2390  138.9330 N   0  0  0  0  0  0  0  0  0  0  0  0
  182.7840  179.6040  139.2770 C   0  0  0  0  0  3  0  0  0  0  0  0
  181.4690  178.9300  137.3620 C   0  0  0  0  0  3  0  0  0  0  0  0
  186.4670  174.1420  137.0310 C   0  0  1  0  0  3  0  0  0  0  0  0
  183.7010  178.0200  137.6750 C   0  0  0  0  0  0  0  0  0  0  0  0
  188.0630  176.1510  136.6000 C   0  0  0  0  0  0  0  0  0  0  0  0
  187.5980  178.4130  139.5610 C   0  0  0  0  0  1  0  0  0  0  0  0
  183.1960  175.2660  137.6560 C   0  0  0  0  0  1  0  0  0  0  0  0
  184.6020  175.6510  137.6030 N   0  0  0  0  0  0  0  0  0  0  0  0
  185.1320  178.8130  139.5540 C   0  0  0  0  0  0  0  0  0  0  0  0
  187.1760  176.9360  137.1400 C   0  0  0  0  0  0  0  0  0  0  0  0
  185.2250  179.3680  140.6840 O   0  0  0  0  0  0  0  0  0  0  0  0
  183.8410  178.7910  138.8460 C   0  0  0  0  0  0  0  0  0  0  0  0
  189.3910  176.6840  136.1430 C   0  0  1  0  0  3  0  0  0  0  0  0
  182.5170  178.1120  136.9300 C   0  0  0  0  0  3  0  0  0  0  0  0
  189.6290  174.5180  134.9480 C   0  0  0  0  0  3  0  0  0  0  0  0
  191.1920  176.2490  134.4740 O   0  0  0  0  0  0  0  0  0  0  0  0
  192.3690  175.5310  134.4140 N   0  0  0  0  0  2  0  0  0  0  0  0
  193.2620  176.0930  135.4160 C   0  0  0  0  0  2  0  0  0  0  0  0
  195.1640  173.1430  138.4080 C   0  0  0  0  0  2  0  0  0  0  0  0
  196.0520  173.4930  136.0220 C   0  0  0  0  0  2  0  0  0  0  0  0
  195.0130  174.6630  138.5200 C   0  0  0  0  0  2  0  0  0  0  0  0
  195.4110  174.8550  135.7000 C   0  0  0  0  0  2  0  0  0  0  0  0
  193.8540  175.2350  137.6960 C   0  0  0  0  0  2  0  0  0  0  0  0
  195.2280  172.6120  136.9710 C   0  0  0  0  0  2  0  0  0  0  0  0
  193.9620  174.9820  136.1820 C   0  0  0  0  0  3  0  0  0  0  0  0
  186.3710  172.6160  136.9580 C   0  0  0  0  0  2  0  0  0  0  0  0
  185.0340  172.1880  136.5680 N   0  0  0  0  0  2  0  0  0  0  0  0
  186.0860  171.6780  134.5440 O   0  0  0  0  0  1  0  0  0  0  0  0
  185.1850  171.2080  135.5030 C   0  0  2  0  0  3  0  0  0  0  0  0
  183.9780  168.6750  135.8990 O   0  0  0  0  0  1  0  0  0  0  0  0
  181.9420  169.5150  135.1090 C   0  0  0  0  0  0  0  0  0  0  0  0
  181.1430  168.5480  135.0130 O   0  0  0  0  0  0  0  0  0  0  0  0
  183.8230  170.8840  134.8810 C   0  0  1  0  0  3  0  0  0  0  0  0
  183.3930  169.4040  134.8590 C   0  0  1  0  0  3  0  0  0  0  0  0
  181.5200  170.8150  135.4710 N   0  0  0  0  0  2  0  0  0  0  0  0
  182.6800  171.6830  135.5180 C   0  0  0  0  0  2  0  0  0  0  0  0
  2 14  1  0  0  0  0
  2 12  1  0  0  0  0
  3 10  1  0  0  0  0
  4 22  1  0  0  0  0
  5  9  1  0  0  0  0
  6 12  1  0  0  0  0
  6 17  1  0  0  0  0
  7  2  2  0  0  0  0
  8 17  1  0  0  0  0
  8 13  1  1  0  0  0
  8  5  1  0  0  0  0
  9 18  1  0  0  0  0
  9 15  1  0  0  0  0
 11  3  2  0  0  0  0
 12 35  1  6  0  0  0
 13 21  1  0  0  0  0
 14 19  2  0  0  0  0
 17 16  1  0  0  0  0
 18 20  2  0  0  0  0
 19  5  2  0  0  0  0
 21 10  2  0  0  0  0
 21 18  1  0  0  0  0
 22 14  1  0  0  0  0
 22  1  1  1  0  0  0
 23 11  1  0  0  0  0
 23 13  2  0  0  0  0
 24  4  2  0  0  0  0
 24  7  1  0  0  0  0
 25  4  1  0  0  0  0
 26 25  1  0  0  0  0
 26 27  1  0  0  0  0
 27 34  1  0  0  0  0
 28 30  1  0  0  0  0
 29 33  1  0  0  0  0
 31 29  1  0  0  0  0
 31 34  1  0  0  0  0
 32 30  1  0  0  0  0
 33 28  1  0  0  0  0
 34 32  1  0  0  0  0
 36 35  1  0  0  0  0
 38 37  1  6  0  0  0
 38 36  1  0  0  0  0
 40 44  1  0  0  0  0
 41 40  2  0  0  0  0
 42 38  1  1  0  0  0
 42 45  1  0  0  0  0
 43 42  1  0  0  0  0
 43 40  1  0  0  0  0
 43 39  1  1  0  0  0
 44 45  1  0  0  0  0
M  END
>  <MODEL>
9

>  <REMARK>
 VINA RESULT:      -6.5      3.766     11.076
  Name = 
  8 active torsions:
  status: ('A' for Active; 'I' for Inactive)
    1  A    between atoms: C_7  and  O_29
    2  A    between atoms: N_15  and  C_30
    3  A    between atoms: N_15  and  C_39
    4  A    between atoms: C_21  and  C_28
    5  A    between atoms: C_21  and  N_33
    6  A    between atoms: C_22  and  C_39
    7  A    between atoms: O_29  and  N_33
    8  A    between atoms: C_30  and  C_36
                            x       y       z     vdW  Elec       q    Type
                         _______ _______ _______ _____ _____    ______ ____

>  <TORSDO>
F 8

$$$$
