=
 OpenBabel10232409173D

 49 54  0  0  1  0  0  0  0  0999 V2000
  192.5780  175.7290  137.2910 C   0  0  1  0  0  3  0  0  0  0  0  0
  187.1710  176.8220  136.7730 C   0  0  0  0  0  0  0  0  0  0  0  0
  184.7880  177.6370  138.0610 C   0  0  0  0  0  0  0  0  0  0  0  0
  192.0720  176.5180  138.4990 C   0  0  0  0  0  2  0  0  0  0  0  0
  187.2290  177.5750  137.9800 C   0  0  0  0  0  0  0  0  0  0  0  0
  190.8640  177.3390  138.0300 C   0  0  2  0  0  3  0  0  0  0  0  0
  188.3960  176.2310  136.1110 C   0  0  2  0  0  3  0  0  0  0  0  0
  184.7360  176.9040  136.8720 C   0  0  0  0  0  3  0  0  0  0  0  0
  191.6080  175.4470  134.9770 O   0  0  0  0  0  1  0  0  0  0  0  0
  189.6060  177.0790  138.8880 C   0  0  2  0  0  3  0  0  0  0  0  0
  189.4720  177.2530  135.8050 C   0  0  0  0  0  2  0  0  0  0  0  0
  185.9120  176.4980  136.2430 C   0  0  0  0  0  3  0  0  0  0  0  0
  190.6690  176.9000  136.6230 C   0  0  0  0  0  0  0  0  0  0  0  0
  186.0360  177.9720  138.5970 C   0  0  0  0  0  3  0  0  0  0  0  0
  191.5880  176.0380  136.2360 C   0  0  0  0  0  0  0  0  0  0  0  0
  188.9290  179.2700  137.9820 O   0  0  0  0  0  1  0  0  0  0  0  0
  188.0800  175.5310  134.9450 O   0  0  0  0  0  1  0  0  0  0  0  0
  188.4870  178.1030  138.6130 C   0  0  1  0  0  3  0  0  0  0  0  0
  196.2470  171.5840  137.4940 C   0  0  0  0  0  2  0  0  0  0  0  0
  194.9720  171.2630  136.9940 O   0  0  0  0  0  0  0  0  0  0  0  0
  193.6610  173.1340  136.3760 C   0  0  0  0  0  2  0  0  0  0  0  0
  196.2150  173.4490  135.7290 C   0  0  2  0  0  3  0  0  0  0  0  0
  194.9320  175.4270  136.3220 C   0  0  0  0  0  0  0  0  0  0  0  0
  196.0910  175.9520  136.1060 N   0  0  0  0  0  0  0  0  0  0  0  0
  196.7370  172.9760  137.0870 C   0  0  0  0  0  2  0  0  0  0  0  0
  197.2310  174.8880  135.2690 S   0  0  0  0  0  0  0  0  0  0  0  0
  194.7900  174.0220  135.8180 C   0  0  2  0  0  3  0  0  0  0  0  0
  194.0820  172.2090  137.5070 C   0  0  0  0  0  2  0  0  0  0  0  0
  193.8880  176.2230  136.9000 N   0  0  0  0  0  2  0  0  0  0  0  0
  183.5790  178.0280  138.7310 N   0  0  0  0  0  0  0  0  0  0  0  0
  183.3230  177.6690  140.0630 N   0  0  0  0  0  2  0  0  0  0  0  0
  181.4330  178.8380  139.1200 C   0  0  0  0  0  2  0  0  0  0  0  0
  181.8990  177.9250  140.2470 C   0  0  2  0  0  3  0  0  0  0  0  0
  182.4790  178.6840  138.0560 C   0  0  0  0  0  2  0  0  0  0  0  0
  181.6530  178.5520  141.6080 C   0  0  0  0  0  2  0  0  0  0  0  0
  182.9680  178.7500  142.3420 C   0  0  0  0  0  2  0  0  0  0  0  0
  182.7430  178.7770  143.7410 O   0  0  0  0  0  0  0  0  0  0  0  0
  183.6800  179.3680  144.5820 C   0  0  0  0  0  3  0  0  0  0  0  0
  183.7230  179.0520  145.7990 O   0  0  0  0  0  0  0  0  0  0  0  0
  189.9460  177.1430  140.3700 C   0  0  0  0  0  2  0  0  0  0  0  0
  188.7690  177.6640  141.1740 C   0  0  0  0  0  2  0  0  0  0  0  0
  189.2540  178.1820  142.5130 C   0  0  0  0  0  2  0  0  0  0  0  0
  188.8260  177.2400  143.6330 C   0  0  0  0  0  2  0  0  0  0  0  0
  189.3180  177.6910  145.0090 C   0  0  2  0  0  3  0  0  0  0  0  0
  190.5650  176.9370  145.4530 C   0  0  0  0  0  1  0  0  0  0  0  0
  186.8290  177.3640  145.7320 C   0  0  0  0  0  1  0  0  0  0  0  0
  188.9020  178.0420  148.4930 O   0  0  0  0  0  0  0  0  0  0  0  0
  188.5830  177.8640  147.3090 C   0  0  0  0  0  0  0  0  0  0  0  0
  188.2490  177.6760  146.0640 C   0  0  0  0  0  0  0  0  0  0  0  0
  1 29  1  6  0  0  0
  1  4  1  0  0  0  0
  2  5  1  0  0  0  0
  3 14  1  0  0  0  0
  3 30  1  0  0  0  0
  5 14  2  0  0  0  0
  5 18  1  0  0  0  0
  6  4  1  1  0  0  0
  6 10  1  0  0  0  0
  7 17  1  6  0  0  0
  7  2  1  0  0  0  0
  8  3  2  0  0  0  0
  9 15  1  0  0  0  0
 10 40  1  1  0  0  0
 11  7  1  0  0  0  0
 11 13  1  0  0  0  0
 12  2  2  0  0  0  0
 12  8  1  0  0  0  0
 13  6  1  0  0  0  0
 15 13  2  0  0  0  0
 15  1  1  0  0  0  0
 18 16  1  6  0  0  0
 18 10  1  0  0  0  0
 20 19  1  0  0  0  0
 20 28  1  0  0  0  0
 21 28  1  0  0  0  0
 22 27  1  0  0  0  0
 22 25  1  1  0  0  0
 23 29  1  0  0  0  0
 24 23  2  0  0  0  0
 25 19  1  0  0  0  0
 26 22  1  0  0  0  0
 26 24  1  0  0  0  0
 27 23  1  0  0  0  0
 27 21  1  1  0  0  0
 30 31  1  0  0  0  0
 31 33  1  0  0  0  0
 32 33  1  0  0  0  0
 33 35  1  1  0  0  0
 34 30  1  0  0  0  0
 34 32  1  0  0  0  0
 35 36  1  0  0  0  0
 36 37  1  0  0  0  0
 37 38  1  0  0  0  0
 38 39  2  0  0  0  0
 40 41  1  0  0  0  0
 41 42  1  0  0  0  0
 42 43  1  0  0  0  0
 43 44  1  0  0  0  0
 44 45  1  1  0  0  0
 44 49  1  0  0  0  0
 46 49  1  0  0  0  0
 48 47  2  0  0  0  0
 49 48  2  0  0  0  0
M  END
>  <MODEL>
1

>  <REMARK>
 VINA RESULT:      -8.5      0.000      0.000
  Name = 
  12 active torsions:
  status: ('A' for Active; 'I' for Inactive)
    1  A    between atoms: C_1  and  C_24
    2  A    between atoms: C_1  and  C_27
    3  A    between atoms: N_2  and  C_14
    4  A    between atoms: O_4  and  C_13
    5  A    between atoms: O_4  and  C_29
    6  A    between atoms: C_7  and  C_9
    7  A    between atoms: C_9  and  C_29
    8  A    between atoms: C_11  and  N_48
    9  A    between atoms: C_27  and  C_40
   10  A    between atoms: C_32  and  C_38
   11  A    between atoms: C_32  and  C_41
   12  A    between atoms: C_40  and  C_41
                            x       y       z     vdW  Elec       q    Type
                         _______ _______ _______ _____ _____    ______ ____

>  <TORSDO>
F 12

$$$$
=
 OpenBabel10232409173D

 49 54  0  0  1  0  0  0  0  0999 V2000
  192.5400  175.7580  137.3290 C   0  0  1  0  0  3  0  0  0  0  0  0
  187.1370  176.8770  136.8350 C   0  0  0  0  0  0  0  0  0  0  0  0
  184.7550  177.6680  138.1410 C   0  0  0  0  0  0  0  0  0  0  0  0
  192.0360  176.5200  138.5560 C   0  0  0  0  0  2  0  0  0  0  0  0
  187.1960  177.6010  138.0600 C   0  0  0  0  0  0  0  0  0  0  0  0
  190.8300  177.3550  138.1050 C   0  0  2  0  0  3  0  0  0  0  0  0
  188.3600  176.2980  136.1600 C   0  0  2  0  0  3  0  0  0  0  0  0
  184.7020  176.9630  136.9350 C   0  0  0  0  0  3  0  0  0  0  0  0
  191.5710  175.5330  135.0100 O   0  0  0  0  0  1  0  0  0  0  0  0
  189.5710  177.0790  138.9560 C   0  0  2  0  0  3  0  0  0  0  0  0
  189.4390  177.3250  135.8790 C   0  0  0  0  0  2  0  0  0  0  0  0
  185.8770  176.5680  136.2980 C   0  0  0  0  0  3  0  0  0  0  0  0
  190.6340  176.9490  136.6880 C   0  0  0  0  0  0  0  0  0  0  0  0
  186.0040  177.9880  138.6850 C   0  0  0  0  0  3  0  0  0  0  0  0
  191.5520  176.0940  136.2810 C   0  0  0  0  0  0  0  0  0  0  0  0
  188.9010  179.2920  138.1010 O   0  0  0  0  0  1  0  0  0  0  0  0
  188.0430  175.6260  134.9780 O   0  0  0  0  0  1  0  0  0  0  0  0
  188.4550  178.1120  138.7040 C   0  0  1  0  0  3  0  0  0  0  0  0
  196.1900  171.5910  137.3940 C   0  0  0  0  0  2  0  0  0  0  0  0
  194.9110  171.2920  136.8880 O   0  0  0  0  0  0  0  0  0  0  0  0
  193.6080  173.1880  136.3310 C   0  0  0  0  0  2  0  0  0  0  0  0
  196.1620  173.5100  135.6880 C   0  0  2  0  0  3  0  0  0  0  0  0
  194.8910  175.4750  136.3460 C   0  0  0  0  0  0  0  0  0  0  0  0
  196.0520  176.0010  136.1430 N   0  0  0  0  0  0  0  0  0  0  0  0
  196.6850  172.9930  137.0290 C   0  0  0  0  0  2  0  0  0  0  0  0
  197.1840  174.9580  135.2700 S   0  0  0  0  0  0  0  0  0  0  0  0
  194.7410  174.0870  135.7980 C   0  0  2  0  0  3  0  0  0  0  0  0
  194.0270  172.2260  137.4320 C   0  0  0  0  0  2  0  0  0  0  0  0
  193.8520  176.2580  136.9500 N   0  0  0  0  0  2  0  0  0  0  0  0
  183.5470  178.0470  138.8200 N   0  0  0  0  0  0  0  0  0  0  0  0
  182.9130  179.2730  138.5710 N   0  0  0  0  0  2  0  0  0  0  0  0
  181.7800  178.0730  140.3320 C   0  0  0  0  0  2  0  0  0  0  0  0
  181.9740  179.4330  139.6750 C   0  0  2  0  0  3  0  0  0  0  0  0
  182.9760  177.2760  139.9040 C   0  0  0  0  0  2  0  0  0  0  0  0
  180.6590  179.9970  139.1640 C   0  0  0  0  0  2  0  0  0  0  0  0
  180.7680  180.3270  137.6860 C   0  0  0  0  0  2  0  0  0  0  0  0
  179.9980  181.4800  137.3890 O   0  0  0  0  0  0  0  0  0  0  0  0
  180.4330  182.7320  137.8130 C   0  0  0  0  0  3  0  0  0  0  0  0
  181.6630  182.9630  137.9360 O   0  0  0  0  0  0  0  0  0  0  0  0
  189.9110  177.1070  140.4400 C   0  0  0  0  0  2  0  0  0  0  0  0
  188.8390  177.8390  141.2260 C   0  0  0  0  0  2  0  0  0  0  0  0
  188.2570  176.9150  142.2780 C   0  0  0  0  0  2  0  0  0  0  0  0
  188.1490  177.6360  143.6170 C   0  0  0  0  0  2  0  0  0  0  0  0
  189.1070  177.0770  144.6700 C   0  0  2  0  0  3  0  0  0  0  0  0
  188.7450  177.5300  146.0790 C   0  0  0  0  0  1  0  0  0  0  0  0
  191.5110  176.2040  144.1380 C   0  0  0  0  0  1  0  0  0  0  0  0
  191.3590  179.7180  144.0440 O   0  0  0  0  0  0  0  0  0  0  0  0
  190.9680  178.5530  144.1970 C   0  0  0  0  0  0  0  0  0  0  0  0
  190.5550  177.3270  144.3570 C   0  0  0  0  0  0  0  0  0  0  0  0
  1 29  1  6  0  0  0
  1  4  1  0  0  0  0
  2  5  1  0  0  0  0
  3 14  1  0  0  0  0
  3 30  1  0  0  0  0
  5 14  2  0  0  0  0
  5 18  1  0  0  0  0
  6  4  1  1  0  0  0
  6 10  1  0  0  0  0
  7 17  1  6  0  0  0
  7  2  1  0  0  0  0
  8  3  2  0  0  0  0
  9 15  1  0  0  0  0
 10 40  1  1  0  0  0
 11  7  1  0  0  0  0
 11 13  1  0  0  0  0
 12  2  2  0  0  0  0
 12  8  1  0  0  0  0
 13  6  1  0  0  0  0
 15 13  2  0  0  0  0
 15  1  1  0  0  0  0
 18 16  1  6  0  0  0
 18 10  1  0  0  0  0
 20 19  1  0  0  0  0
 20 28  1  0  0  0  0
 21 28  1  0  0  0  0
 22 27  1  0  0  0  0
 22 25  1  1  0  0  0
 23 29  1  0  0  0  0
 24 23  2  0  0  0  0
 25 19  1  0  0  0  0
 26 22  1  0  0  0  0
 26 24  1  0  0  0  0
 27 21  1  1  0  0  0
 27 23  1  0  0  0  0
 30 34  1  0  0  0  0
 31 30  1  0  0  0  0
 31 33  1  0  0  0  0
 33 35  1  6  0  0  0
 33 32  1  0  0  0  0
 34 32  1  0  0  0  0
 36 35  1  0  0  0  0
 37 36  1  0  0  0  0
 37 38  1  0  0  0  0
 38 39  2  0  0  0  0
 40 41  1  0  0  0  0
 41 42  1  0  0  0  0
 42 43  1  0  0  0  0
 43 44  1  0  0  0  0
 44 45  1  1  0  0  0
 46 49  1  0  0  0  0
 47 48  2  0  0  0  0
 48 49  2  0  0  0  0
 49 44  1  0  0  0  0
M  END
>  <MODEL>
2

>  <REMARK>
 VINA RESULT:      -7.7      1.972      2.652
  Name = 
  12 active torsions:
  status: ('A' for Active; 'I' for Inactive)
    1  A    between atoms: C_1  and  C_24
    2  A    between atoms: C_1  and  C_27
    3  A    between atoms: N_2  and  C_14
    4  A    between atoms: O_4  and  C_13
    5  A    between atoms: O_4  and  C_29
    6  A    between atoms: C_7  and  C_9
    7  A    between atoms: C_9  and  C_29
    8  A    between atoms: C_11  and  N_48
    9  A    between atoms: C_27  and  C_40
   10  A    between atoms: C_32  and  C_38
   11  A    between atoms: C_32  and  C_41
   12  A    between atoms: C_40  and  C_41
                            x       y       z     vdW  Elec       q    Type
                         _______ _______ _______ _____ _____    ______ ____

>  <TORSDO>
F 12

$$$$
=
 OpenBabel10232409173D

 49 54  0  0  1  0  0  0  0  0999 V2000
  192.2560  175.0910  136.2900 C   0  0  1  0  0  3  0  0  0  0  0  0
  186.8570  173.9570  136.7970 C   0  0  0  0  0  0  0  0  0  0  0  0
  184.3280  174.8420  137.7040 C   0  0  0  0  0  0  0  0  0  0  0  0
  191.4680  176.3640  136.6020 C   0  0  0  0  0  2  0  0  0  0  0  0
  186.6010  175.3470  136.9670 C   0  0  0  0  0  0  0  0  0  0  0  0
  190.0410  176.1530  136.0770 C   0  0  2  0  0  3  0  0  0  0  0  0
  188.2240  173.4050  136.4580 C   0  0  2  0  0  3  0  0  0  0  0  0
  184.5800  173.4780  137.5300 C   0  0  0  0  0  3  0  0  0  0  0  0
  191.5020  172.8630  135.3740 O   0  0  0  0  0  1  0  0  0  0  0  0
  188.9720  176.3760  137.1700 C   0  0  2  0  0  3  0  0  0  0  0  0
  188.8210  174.0000  135.1990 C   0  0  0  0  0  2  0  0  0  0  0  0
  185.8300  173.0440  137.0900 C   0  0  0  0  0  3  0  0  0  0  0  0
  190.0500  174.7450  135.5980 C   0  0  0  0  0  0  0  0  0  0  0  0
  185.3400  175.7630  137.4110 C   0  0  0  0  0  3  0  0  0  0  0  0
  191.2380  174.1850  135.7160 C   0  0  0  0  0  0  0  0  0  0  0  0
  187.5090  176.7160  135.2150 O   0  0  0  0  0  1  0  0  0  0  0  0
  188.2200  172.0120  136.3530 O   0  0  0  0  0  1  0  0  0  0  0  0
  187.5470  176.4540  136.5880 C   0  0  1  0  0  3  0  0  0  0  0  0
  197.2690  174.2530  138.4910 C   0  0  0  0  0  2  0  0  0  0  0  0
  196.2720  173.3230  138.8400 O   0  0  0  0  0  0  0  0  0  0  0  0
  194.3600  173.3660  137.4460 C   0  0  0  0  0  2  0  0  0  0  0  0
  196.6040  173.7080  136.0720 C   0  0  2  0  0  3  0  0  0  0  0  0
  194.5900  174.8090  135.2690 C   0  0  0  0  0  0  0  0  0  0  0  0
  195.4480  175.2160  134.3940 N   0  0  0  0  0  0  0  0  0  0  0  0
  197.1770  174.7410  137.0430 C   0  0  0  0  0  2  0  0  0  0  0  0
  196.9760  174.3240  134.3990 S   0  0  0  0  0  0  0  0  0  0  0  0
  195.0670  173.6620  136.1090 C   0  0  2  0  0  3  0  0  0  0  0  0
  195.0410  173.9610  138.6690 C   0  0  0  0  0  2  0  0  0  0  0  0
  193.2760  175.3820  135.2950 N   0  0  0  0  0  2  0  0  0  0  0  0
  183.0530  175.2930  138.1900 N   0  0  0  0  0  0  0  0  0  0  0  0
  182.9410  176.1000  139.3310 N   0  0  0  0  0  2  0  0  0  0  0  0
  180.7570  175.5140  138.4890 C   0  0  0  0  0  2  0  0  0  0  0  0
  181.5300  176.0340  139.6930 C   0  0  2  0  0  3  0  0  0  0  0  0
  181.7930  174.8360  137.6420 C   0  0  0  0  0  2  0  0  0  0  0  0
  181.0360  177.4050  140.1220 C   0  0  0  0  0  2  0  0  0  0  0  0
  182.2120  178.3250  140.3980 C   0  0  0  0  0  2  0  0  0  0  0  0
  182.2880  179.3280  139.3990 O   0  0  0  0  0  0  0  0  0  0  0  0
  183.5300  179.7800  138.9650 C   0  0  0  0  0  3  0  0  0  0  0  0
  184.5030  179.8100  139.7600 O   0  0  0  0  0  0  0  0  0  0  0  0
  189.2410  177.6690  137.9270 C   0  0  0  0  0  2  0  0  0  0  0  0
  188.4800  177.6960  139.2390 C   0  0  0  0  0  2  0  0  0  0  0  0
  189.4200  177.3660  140.3810 C   0  0  0  0  0  2  0  0  0  0  0  0
  188.9370  178.0190  141.6710 C   0  0  0  0  0  2  0  0  0  0  0  0
  189.2300  177.1710  142.9110 C   0  0  2  0  0  3  0  0  0  0  0  0
  188.0140  176.3740  143.3670 C   0  0  0  0  0  1  0  0  0  0  0  0
  190.9190  178.9560  143.7990 C   0  0  0  0  0  1  0  0  0  0  0  0
  188.9260  177.6560  146.3900 O   0  0  0  0  0  0  0  0  0  0  0  0
  189.3740  177.8000  145.2450 C   0  0  0  0  0  0  0  0  0  0  0  0
  189.8450  177.9500  144.0390 C   0  0  0  0  0  0  0  0  0  0  0  0
  1 29  1  6  0  0  0
  1  4  1  0  0  0  0
  2  5  2  0  0  0  0
  2 12  1  0  0  0  0
  3 30  1  0  0  0  0
  5 14  1  0  0  0  0
  6  4  1  1  0  0  0
  6 10  1  0  0  0  0
  7 17  1  6  0  0  0
  7  2  1  0  0  0  0
  8  3  1  0  0  0  0
  9 15  1  0  0  0  0
 10 40  1  6  0  0  0
 11 13  1  0  0  0  0
 11  7  1  0  0  0  0
 12  8  2  0  0  0  0
 13 15  2  0  0  0  0
 13  6  1  0  0  0  0
 14  3  2  0  0  0  0
 15  1  1  0  0  0  0
 18 16  1  6  0  0  0
 18  5  1  0  0  0  0
 18 10  1  0  0  0  0
 19 20  1  0  0  0  0
 21 28  1  0  0  0  0
 22 27  1  0  0  0  0
 22 25  1  1  0  0  0
 23 29  1  0  0  0  0
 23 27  1  0  0  0  0
 24 26  1  0  0  0  0
 24 23  2  0  0  0  0
 25 19  1  0  0  0  0
 26 22  1  0  0  0  0
 27 21  1  1  0  0  0
 28 20  1  0  0  0  0
 30 31  1  0  0  0  0
 31 33  1  0  0  0  0
 32 33  1  0  0  0  0
 33 35  1  6  0  0  0
 34 30  1  0  0  0  0
 34 32  1  0  0  0  0
 35 36  1  0  0  0  0
 37 36  1  0  0  0  0
 38 37  1  0  0  0  0
 38 39  2  0  0  0  0
 40 41  1  0  0  0  0
 41 42  1  0  0  0  0
 42 43  1  0  0  0  0
 43 44  1  0  0  0  0
 44 45  1  1  0  0  0
 44 49  1  0  0  0  0
 46 49  1  0  0  0  0
 48 47  2  0  0  0  0
 49 48  2  0  0  0  0
M  END
>  <MODEL>
3

>  <REMARK>
 VINA RESULT:      -7.5      2.138      2.854
  Name = 
  12 active torsions:
  status: ('A' for Active; 'I' for Inactive)
    1  A    between atoms: C_1  and  C_24
    2  A    between atoms: C_1  and  C_27
    3  A    between atoms: N_2  and  C_14
    4  A    between atoms: O_4  and  C_13
    5  A    between atoms: O_4  and  C_29
    6  A    between atoms: C_7  and  C_9
    7  A    between atoms: C_9  and  C_29
    8  A    between atoms: C_11  and  N_48
    9  A    between atoms: C_27  and  C_40
   10  A    between atoms: C_32  and  C_38
   11  A    between atoms: C_32  and  C_41
   12  A    between atoms: C_40  and  C_41
                            x       y       z     vdW  Elec       q    Type
                         _______ _______ _______ _____ _____    ______ ____

>  <TORSDO>
F 12

$$$$
=
 OpenBabel10232409173D

 49 54  0  0  1  0  0  0  0  0999 V2000
  192.5880  175.4750  136.8670 C   0  0  1  0  0  3  0  0  0  0  0  0
  187.3200  177.1650  136.5740 C   0  0  0  0  0  0  0  0  0  0  0  0
  184.9810  177.8760  137.9970 C   0  0  0  0  0  0  0  0  0  0  0  0
  192.1190  176.0030  138.2230 C   0  0  0  0  0  2  0  0  0  0  0  0
  187.4070  177.6040  137.9250 C   0  0  0  0  0  0  0  0  0  0  0  0
  191.0030  177.0210  137.9500 C   0  0  2  0  0  3  0  0  0  0  0  0
  188.5070  176.6310  135.8020 C   0  0  2  0  0  3  0  0  0  0  0  0
  184.9000  177.4500  136.6670 C   0  0  0  0  0  3  0  0  0  0  0  0
  191.6690  175.8360  134.5440 O   0  0  0  0  0  1  0  0  0  0  0  0
  189.7010  176.6880  138.7110 C   0  0  2  0  0  3  0  0  0  0  0  0
  189.6790  177.5910  135.7560 C   0  0  0  0  0  2  0  0  0  0  0  0
  186.0530  177.0930  135.9710 C   0  0  0  0  0  3  0  0  0  0  0  0
  190.8130  176.9450  136.4770 C   0  0  0  0  0  0  0  0  0  0  0  0
  186.2370  177.9570  138.6080 C   0  0  0  0  0  3  0  0  0  0  0  0
  191.6640  176.1140  135.9060 C   0  0  0  0  0  0  0  0  0  0  0  0
  189.2530  179.0840  138.3420 O   0  0  0  0  0  1  0  0  0  0  0  0
  188.1650  176.2570  134.5010 O   0  0  0  0  0  1  0  0  0  0  0  0
  188.6880  177.8490  138.6750 C   0  0  1  0  0  3  0  0  0  0  0  0
  195.9210  171.0720  136.4350 C   0  0  0  0  0  2  0  0  0  0  0  0
  194.6500  170.9510  135.8430 O   0  0  0  0  0  0  0  0  0  0  0  0
  193.5150  173.0050  135.5320 C   0  0  0  0  0  2  0  0  0  0  0  0
  196.1130  173.2170  135.0380 C   0  0  2  0  0  3  0  0  0  0  0  0
  194.9560  175.1570  135.9370 C   0  0  0  0  0  0  0  0  0  0  0  0
  196.1600  175.6150  135.8580 N   0  0  0  0  0  0  0  0  0  0  0  0
  196.5330  172.4690  136.3040 C   0  0  0  0  0  2  0  0  0  0  0  0
  197.2550  174.6270  134.8800 S   0  0  0  0  0  0  0  0  0  0  0  0
  194.7330  173.8810  135.1820 C   0  0  2  0  0  3  0  0  0  0  0  0
  193.8110  171.8610  136.4900 C   0  0  0  0  0  2  0  0  0  0  0  0
  193.9490  175.9210  136.6150 N   0  0  0  0  0  2  0  0  0  0  0  0
  183.7920  178.2120  138.7290 N   0  0  0  0  0  0  0  0  0  0  0  0
  182.5330  178.2630  138.1130 N   0  0  0  0  0  2  0  0  0  0  0  0
  182.3750  178.9480  140.4210 C   0  0  0  0  0  2  0  0  0  0  0  0
  181.6840  178.9690  139.0640 C   0  0  2  0  0  3  0  0  0  0  0  0
  183.8130  178.6640  140.1050 C   0  0  0  0  0  2  0  0  0  0  0  0
  180.3140  178.3150  139.1270 C   0  0  0  0  0  2  0  0  0  0  0  0
  180.2600  177.3190  140.2720 C   0  0  0  0  0  2  0  0  0  0  0  0
  179.9850  176.0210  139.7720 O   0  0  0  0  0  0  0  0  0  0  0  0
  181.0350  175.1740  139.4290 C   0  0  0  0  0  3  0  0  0  0  0  0
  181.4280  175.1100  138.2360 O   0  0  0  0  0  0  0  0  0  0  0  0
  190.0000  176.3700  140.1700 C   0  0  0  0  0  2  0  0  0  0  0  0
  189.9750  177.6310  141.0140 C   0  0  0  0  0  2  0  0  0  0  0  0
  191.2410  177.7150  141.8430 C   0  0  0  0  0  2  0  0  0  0  0  0
  191.0170  177.0930  143.2170 C   0  0  0  0  0  2  0  0  0  0  0  0
  190.3420  178.0520  144.1990 C   0  0  2  0  0  3  0  0  0  0  0  0
  190.9680  179.4410  144.1750 C   0  0  0  0  0  1  0  0  0  0  0  0
  189.0680  177.8050  146.4670 C   0  0  0  0  0  1  0  0  0  0  0  0
  192.0370  175.9180  146.4370 O   0  0  0  0  0  0  0  0  0  0  0  0
  191.1610  176.6930  146.0280 C   0  0  0  0  0  0  0  0  0  0  0  0
  190.2400  177.5070  145.5960 C   0  0  0  0  0  0  0  0  0  0  0  0
  1 29  1  6  0  0  0
  1  4  1  0  0  0  0
  2  5  1  0  0  0  0
  3 14  1  0  0  0  0
  3 30  1  0  0  0  0
  5 14  2  0  0  0  0
  5 18  1  0  0  0  0
  6  4  1  1  0  0  0
  6 10  1  0  0  0  0
  7 17  1  6  0  0  0
  7  2  1  0  0  0  0
  8  3  2  0  0  0  0
  9 15  1  0  0  0  0
 10 40  1  1  0  0  0
 11  7  1  0  0  0  0
 11 13  1  0  0  0  0
 12  2  2  0  0  0  0
 12  8  1  0  0  0  0
 13  6  1  0  0  0  0
 15 13  2  0  0  0  0
 15  1  1  0  0  0  0
 18 16  1  6  0  0  0
 18 10  1  0  0  0  0
 20 19  1  0  0  0  0
 20 28  1  0  0  0  0
 21 28  1  0  0  0  0
 22 27  1  0  0  0  0
 22 25  1  1  0  0  0
 23 29  1  0  0  0  0
 24 23  2  0  0  0  0
 25 19  1  0  0  0  0
 26 22  1  0  0  0  0
 26 24  1  0  0  0  0
 27 21  1  1  0  0  0
 27 23  1  0  0  0  0
 30 34  1  0  0  0  0
 31 30  1  0  0  0  0
 31 33  1  0  0  0  0
 33 35  1  1  0  0  0
 33 32  1  0  0  0  0
 34 32  1  0  0  0  0
 35 36  1  0  0  0  0
 37 36  1  0  0  0  0
 38 37  1  0  0  0  0
 39 38  2  0  0  0  0
 40 41  1  0  0  0  0
 41 42  1  0  0  0  0
 42 43  1  0  0  0  0
 43 44  1  0  0  0  0
 44 45  1  1  0  0  0
 44 49  1  0  0  0  0
 48 47  2  0  0  0  0
 49 48  2  0  0  0  0
 49 46  1  0  0  0  0
M  END
>  <MODEL>
4

>  <REMARK>
 VINA RESULT:      -6.8      1.859      2.345
  Name = 
  12 active torsions:
  status: ('A' for Active; 'I' for Inactive)
    1  A    between atoms: C_1  and  C_24
    2  A    between atoms: C_1  and  C_27
    3  A    between atoms: N_2  and  C_14
    4  A    between atoms: O_4  and  C_13
    5  A    between atoms: O_4  and  C_29
    6  A    between atoms: C_7  and  C_9
    7  A    between atoms: C_9  and  C_29
    8  A    between atoms: C_11  and  N_48
    9  A    between atoms: C_27  and  C_40
   10  A    between atoms: C_32  and  C_38
   11  A    between atoms: C_32  and  C_41
   12  A    between atoms: C_40  and  C_41
                            x       y       z     vdW  Elec       q    Type
                         _______ _______ _______ _____ _____    ______ ____

>  <TORSDO>
F 12

$$$$
=
 OpenBabel10232409173D

 49 54  0  0  1  0  0  0  0  0999 V2000
  192.2410  174.8740  136.1060 C   0  0  1  0  0  3  0  0  0  0  0  0
  186.8190  175.7140  136.8700 C   0  0  0  0  0  0  0  0  0  0  0  0
  184.8200  177.1280  138.2880 C   0  0  0  0  0  0  0  0  0  0  0  0
  192.0030  176.1740  136.8750 C   0  0  0  0  0  2  0  0  0  0  0  0
  187.1190  176.9660  137.4780 C   0  0  0  0  0  0  0  0  0  0  0  0
  190.6110  176.6850  136.4800 C   0  0  2  0  0  3  0  0  0  0  0  0
  187.8690  174.8370  136.2250 C   0  0  2  0  0  3  0  0  0  0  0  0
  184.5270  175.9020  137.6830 C   0  0  0  0  0  3  0  0  0  0  0  0
  190.6940  173.5040  134.6560 O   0  0  0  0  0  1  0  0  0  0  0  0
  189.7010  176.9220  137.7050 C   0  0  2  0  0  3  0  0  0  0  0  0
  188.6630  175.5420  135.1430 C   0  0  0  0  0  2  0  0  0  0  0  0
  185.5160  175.2040  136.9920 C   0  0  0  0  0  3  0  0  0  0  0  0
  190.0800  175.6090  135.6020 C   0  0  0  0  0  0  0  0  0  0  0  0
  186.1120  177.6510  138.1700 C   0  0  0  0  0  3  0  0  0  0  0  0
  190.9580  174.6430  135.4080 C   0  0  0  0  0  0  0  0  0  0  0  0
  188.5030  178.3880  136.1270 O   0  0  0  0  0  1  0  0  0  0  0  0
  187.3280  173.6590  135.7070 O   0  0  0  0  0  1  0  0  0  0  0  0
  188.4230  177.7030  137.3430 C   0  0  1  0  0  3  0  0  0  0  0  0
  197.1530  174.2750  138.5960 C   0  0  0  0  0  2  0  0  0  0  0  0
  196.1410  173.3790  138.9900 O   0  0  0  0  0  0  0  0  0  0  0  0
  194.2920  173.2780  137.5160 C   0  0  0  0  0  2  0  0  0  0  0  0
  196.5940  173.4950  136.2140 C   0  0  2  0  0  3  0  0  0  0  0  0
  194.6180  174.5030  135.2200 C   0  0  0  0  0  0  0  0  0  0  0  0
  195.5140  174.8270  134.3490 N   0  0  0  0  0  0  0  0  0  0  0  0
  197.1250  174.6200  137.1050 C   0  0  0  0  0  2  0  0  0  0  0  0
  197.0400  173.9460  134.5080 S   0  0  0  0  0  0  0  0  0  0  0  0
  195.0570  173.4450  136.1880 C   0  0  2  0  0  3  0  0  0  0  0  0
  194.9190  173.9920  138.7030 C   0  0  0  0  0  2  0  0  0  0  0  0
  193.3040  175.0700  135.1330 N   0  0  0  0  0  2  0  0  0  0  0  0
  183.8140  177.8340  139.0310 N   0  0  0  0  0  0  0  0  0  0  0  0
  183.7710  177.8020  140.4320 N   0  0  0  0  0  2  0  0  0  0  0  0
  181.8920  179.0360  139.5550 C   0  0  0  0  0  2  0  0  0  0  0  0
  182.4490  178.3110  140.7740 C   0  0  2  0  0  3  0  0  0  0  0  0
  182.6930  178.5030  138.4050 C   0  0  0  0  0  2  0  0  0  0  0  0
  182.5390  179.2350  141.9760 C   0  0  0  0  0  2  0  0  0  0  0  0
  182.7940  178.4300  143.2390 C   0  0  0  0  0  2  0  0  0  0  0  0
  183.3620  179.2610  144.2360 O   0  0  0  0  0  0  0  0  0  0  0  0
  184.4290  178.7970  145.0000 C   0  0  0  0  0  3  0  0  0  0  0  0
  184.5140  179.1040  146.2170 O   0  0  0  0  0  0  0  0  0  0  0  0
  190.4420  177.7060  138.7800 C   0  0  0  0  0  2  0  0  0  0  0  0
  190.4300  176.9590  140.1000 C   0  0  0  0  0  2  0  0  0  0  0  0
  189.5430  177.6870  141.0900 C   0  0  0  0  0  2  0  0  0  0  0  0
  188.7560  176.6880  141.9310 C   0  0  0  0  0  2  0  0  0  0  0  0
  189.0670  176.7940  143.4250 C   0  0  2  0  0  3  0  0  0  0  0  0
  188.0550  177.6590  144.1660 C   0  0  0  0  0  1  0  0  0  0  0  0
  191.6040  176.2330  143.6970 C   0  0  0  0  0  1  0  0  0  0  0  0
  190.9880  179.6750  144.0960 O   0  0  0  0  0  0  0  0  0  0  0  0
  190.7410  178.4750  143.9110 C   0  0  0  0  0  0  0  0  0  0  0  0
  190.4800  177.2130  143.7150 C   0  0  0  0  0  0  0  0  0  0  0  0
  1 29  1  6  0  0  0
  1  4  1  0  0  0  0
  2 12  2  0  0  0  0
  2  5  1  0  0  0  0
  3 30  1  0  0  0  0
  5 14  2  0  0  0  0
  6  4  1  1  0  0  0
  6 10  1  0  0  0  0
  7 17  1  6  0  0  0
  7  2  1  0  0  0  0
  8  3  2  0  0  0  0
  9 15  1  0  0  0  0
 10 40  1  1  0  0  0
 11 13  1  0  0  0  0
 11  7  1  0  0  0  0
 12  8  1  0  0  0  0
 13  6  1  0  0  0  0
 14  3  1  0  0  0  0
 15 13  2  0  0  0  0
 15  1  1  0  0  0  0
 18 16  1  6  0  0  0
 18  5  1  0  0  0  0
 18 10  1  0  0  0  0
 19 20  1  0  0  0  0
 21 28  1  0  0  0  0
 22 25  1  1  0  0  0
 23 27  1  0  0  0  0
 24 26  1  0  0  0  0
 24 23  2  0  0  0  0
 25 19  1  0  0  0  0
 26 22  1  0  0  0  0
 27 22  1  0  0  0  0
 27 21  1  1  0  0  0
 28 20  1  0  0  0  0
 29 23  1  0  0  0  0
 30 31  1  0  0  0  0
 31 33  1  0  0  0  0
 32 33  1  0  0  0  0
 33 35  1  1  0  0  0
 34 30  1  0  0  0  0
 34 32  1  0  0  0  0
 35 36  1  0  0  0  0
 36 37  1  0  0  0  0
 37 38  1  0  0  0  0
 38 39  2  0  0  0  0
 40 41  1  0  0  0  0
 41 42  1  0  0  0  0
 42 43  1  0  0  0  0
 43 44  1  0  0  0  0
 44 49  1  0  0  0  0
 44 45  1  6  0  0  0
 46 49  1  0  0  0  0
 48 47  2  0  0  0  0
 49 48  2  0  0  0  0
M  END
>  <MODEL>
5

>  <REMARK>
 VINA RESULT:      -6.7      1.583      2.024
  Name = 
  12 active torsions:
  status: ('A' for Active; 'I' for Inactive)
    1  A    between atoms: C_1  and  C_24
    2  A    between atoms: C_1  and  C_27
    3  A    between atoms: N_2  and  C_14
    4  A    between atoms: O_4  and  C_13
    5  A    between atoms: O_4  and  C_29
    6  A    between atoms: C_7  and  C_9
    7  A    between atoms: C_9  and  C_29
    8  A    between atoms: C_11  and  N_48
    9  A    between atoms: C_27  and  C_40
   10  A    between atoms: C_32  and  C_38
   11  A    between atoms: C_32  and  C_41
   12  A    between atoms: C_40  and  C_41
                            x       y       z     vdW  Elec       q    Type
                         _______ _______ _______ _____ _____    ______ ____

>  <TORSDO>
F 12

$$$$
=
 OpenBabel10232409173D

 49 54  0  0  1  0  0  0  0  0999 V2000
  184.9530  177.7740  138.5530 C   0  0  1  0  0  3  0  0  0  0  0  0
  190.4280  176.9610  138.3070 C   0  0  0  0  0  0  0  0  0  0  0  0
  192.5800  175.7470  136.9290 C   0  0  0  0  0  0  0  0  0  0  0  0
  185.3550  177.2460  137.1750 C   0  0  0  0  0  2  0  0  0  0  0  0
  190.2920  176.6040  136.9350 C   0  0  0  0  0  0  0  0  0  0  0  0
  186.8100  177.6720  136.9350 C   0  0  2  0  0  3  0  0  0  0  0  0
  189.2770  177.4750  139.1420 C   0  0  2  0  0  3  0  0  0  0  0  0
  192.7110  176.1050  138.2740 C   0  0  0  0  0  3  0  0  0  0  0  0
  186.3200  178.8860  140.3610 O   0  0  0  0  0  1  0  0  0  0  0  0
  187.7260  176.4760  136.5950 C   0  0  2  0  0  3  0  0  0  0  0  0
  188.6030  178.6990  138.5540 C   0  0  0  0  0  2  0  0  0  0  0  0
  191.6470  176.6950  138.9520 C   0  0  0  0  0  3  0  0  0  0  0  0
  187.2010  178.3170  138.2160 C   0  0  0  0  0  0  0  0  0  0  0  0
  191.3740  176.0100  136.2710 C   0  0  0  0  0  3  0  0  0  0  0  0
  186.2030  178.3660  139.0770 C   0  0  0  0  0  0  0  0  0  0  0  0
  189.1360  178.2470  135.6200 O   0  0  0  0  0  1  0  0  0  0  0  0
  189.6590  177.7470  140.4580 O   0  0  0  0  0  1  0  0  0  0  0  0
  189.1040  176.9240  136.0700 C   0  0  1  0  0  3  0  0  0  0  0  0
  180.0000  175.4100  137.8030 C   0  0  0  0  0  2  0  0  0  0  0  0
  180.8480  174.7950  138.7430 O   0  0  0  0  0  0  0  0  0  0  0  0
  182.6600  176.1400  139.4560 C   0  0  0  0  0  2  0  0  0  0  0  0
  180.4310  177.5480  139.1590 C   0  0  2  0  0  3  0  0  0  0  0  0
  182.5510  178.6540  138.7190 C   0  0  0  0  0  0  0  0  0  0  0  0
  181.7260  179.6090  138.4520 N   0  0  0  0  0  0  0  0  0  0  0  0
  180.0910  176.9390  137.7980 C   0  0  0  0  0  2  0  0  0  0  0  0
  180.0740  179.3280  139.0210 S   0  0  0  0  0  0  0  0  0  0  0  0
  181.9390  177.5020  139.4590 C   0  0  2  0  0  3  0  0  0  0  0  0
  182.1550  175.1570  138.4110 C   0  0  0  0  0  2  0  0  0  0  0  0
  183.9410  178.8070  138.4030 N   0  0  0  0  0  2  0  0  0  0  0  0
  193.6620  175.1060  136.2350 N   0  0  0  0  0  0  0  0  0  0  0  0
  194.5050  175.8140  135.3660 N   0  0  0  0  0  2  0  0  0  0  0  0
  195.0600  173.4650  135.3600 C   0  0  0  0  0  2  0  0  0  0  0  0
  195.2070  174.7830  134.6110 C   0  0  2  0  0  3  0  0  0  0  0  0
  193.8770  173.6740  136.2570 C   0  0  0  0  0  2  0  0  0  0  0  0
  196.6670  175.1650  134.4370 C   0  0  0  0  0  2  0  0  0  0  0  0
  197.1930  175.8170  135.7030 C   0  0  0  0  0  2  0  0  0  0  0  0
  198.5370  175.4260  135.9270 O   0  0  0  0  0  0  0  0  0  0  0  0
  198.8360  174.5220  136.9410 C   0  0  0  0  0  3  0  0  0  0  0  0
  198.7300  174.8690  138.1460 O   0  0  0  0  0  0  0  0  0  0  0  0
  187.0840  175.5940  135.5330 C   0  0  0  0  0  2  0  0  0  0  0  0
  187.8920  174.3280  135.3210 C   0  0  0  0  0  2  0  0  0  0  0  0
  186.9780  173.1200  135.3970 C   0  0  0  0  0  2  0  0  0  0  0  0
  185.5180  173.5560  135.3560 C   0  0  0  0  0  2  0  0  0  0  0  0
  184.7150  173.0520  136.5570 C   0  0  2  0  0  3  0  0  0  0  0  0
  185.5960  172.7820  137.7700 C   0  0  0  0  0  1  0  0  0  0  0  0
  184.3650  170.6510  135.5880 C   0  0  0  0  0  1  0  0  0  0  0  0
  181.3920  171.9420  136.9560 O   0  0  0  0  0  0  0  0  0  0  0  0
  182.5790  171.9120  136.6050 C   0  0  0  0  0  0  0  0  0  0  0  0
  183.8290  171.8810  136.2370 C   0  0  0  0  0  0  0  0  0  0  0  0
  1 29  1  6  0  0  0
  1 15  1  0  0  0  0
  2 12  1  0  0  0  0
  2  7  1  0  0  0  0
  3  8  1  0  0  0  0
  4  1  1  0  0  0  0
  5  2  2  0  0  0  0
  6  4  1  1  0  0  0
  6 13  1  0  0  0  0
  7 17  1  1  0  0  0
  8 12  2  0  0  0  0
 10 40  1  6  0  0  0
 10  6  1  0  0  0  0
 11  7  1  0  0  0  0
 13 11  1  0  0  0  0
 13 15  2  0  0  0  0
 14  3  2  0  0  0  0
 14  5  1  0  0  0  0
 15  9  1  0  0  0  0
 18 16  1  1  0  0  0
 18 10  1  0  0  0  0
 18  5  1  0  0  0  0
 19 20  1  0  0  0  0
 22 25  1  6  0  0  0
 22 27  1  0  0  0  0
 23 27  1  0  0  0  0
 24 23  2  0  0  0  0
 24 26  1  0  0  0  0
 25 19  1  0  0  0  0
 26 22  1  0  0  0  0
 27 21  1  6  0  0  0
 28 20  1  0  0  0  0
 28 21  1  0  0  0  0
 29 23  1  0  0  0  0
 30 34  1  0  0  0  0
 30  3  1  0  0  0  0
 31 30  1  0  0  0  0
 32 34  1  0  0  0  0
 33 35  1  1  0  0  0
 33 32  1  0  0  0  0
 33 31  1  0  0  0  0
 35 36  1  0  0  0  0
 36 37  1  0  0  0  0
 37 38  1  0  0  0  0
 38 39  2  0  0  0  0
 41 42  1  0  0  0  0
 41 40  1  0  0  0  0
 43 42  1  0  0  0  0
 43 44  1  0  0  0  0
 44 45  1  1  0  0  0
 46 49  1  0  0  0  0
 48 47  2  0  0  0  0
 49 44  1  0  0  0  0
 49 48  2  0  0  0  0
M  END
>  <MODEL>
6

>  <REMARK>
 VINA RESULT:      -6.7      4.248     11.508
  Name = 
  12 active torsions:
  status: ('A' for Active; 'I' for Inactive)
    1  A    between atoms: C_1  and  C_24
    2  A    between atoms: C_1  and  C_27
    3  A    between atoms: N_2  and  C_14
    4  A    between atoms: O_4  and  C_13
    5  A    between atoms: O_4  and  C_29
    6  A    between atoms: C_7  and  C_9
    7  A    between atoms: C_9  and  C_29
    8  A    between atoms: C_11  and  N_48
    9  A    between atoms: C_27  and  C_40
   10  A    between atoms: C_32  and  C_38
   11  A    between atoms: C_32  and  C_41
   12  A    between atoms: C_40  and  C_41
                            x       y       z     vdW  Elec       q    Type
                         _______ _______ _______ _____ _____    ______ ____

>  <TORSDO>
F 12

$$$$
=
 OpenBabel10232409173D

 49 54  0  0  1  0  0  0  0  0999 V2000
  181.7370  178.3270  139.3790 C   0  0  1  0  0  3  0  0  0  0  0  0
  184.0210  178.4870  144.4230 C   0  0  0  0  0  0  0  0  0  0  0  0
  186.3640  178.1460  145.9720 C   0  0  0  0  0  0  0  0  0  0  0  0
  183.2630  178.3570  139.2760 C   0  0  0  0  0  2  0  0  0  0  0  0
  185.3050  178.5930  143.8170 C   0  0  0  0  0  0  0  0  0  0  0  0
  183.7870  179.0560  140.5370 C   0  0  2  0  0  3  0  0  0  0  0  0
  182.7310  178.5120  143.6340 C   0  0  2  0  0  3  0  0  0  0  0  0
  185.1010  178.0500  146.5660 C   0  0  0  0  0  3  0  0  0  0  0  0
  180.1950  178.9670  141.2720 O   0  0  0  0  0  1  0  0  0  0  0  0
  184.8180  178.1960  141.3020 C   0  0  2  0  0  3  0  0  0  0  0  0
  182.5790  179.7440  142.7640 C   0  0  0  0  0  2  0  0  0  0  0  0
  183.9490  178.2110  145.7990 C   0  0  0  0  0  3  0  0  0  0  0  0
  182.5600  179.2880  141.3440 C   0  0  0  0  0  0  0  0  0  0  0  0
  186.4510  178.4260  144.6040 C   0  0  0  0  0  3  0  0  0  0  0  0
  181.4680  178.8940  140.7180 C   0  0  0  0  0  0  0  0  0  0  0  0
  185.4770  180.3840  142.2270 O   0  0  0  0  0  1  0  0  0  0  0  0
  181.6080  178.3840  144.4530 O   0  0  0  0  0  1  0  0  0  0  0  0
  185.5580  178.9980  142.3900 C   0  0  1  0  0  3  0  0  0  0  0  0
  183.2240  176.4740  134.3750 C   0  0  0  0  0  2  0  0  0  0  0  0
  182.9010  175.4930  135.3310 O   0  0  0  0  0  0  0  0  0  0  0  0
  181.7250  176.3120  137.2150 C   0  0  0  0  0  2  0  0  0  0  0  0
  180.9330  177.4720  134.9640 C   0  0  2  0  0  3  0  0  0  0  0  0
  180.8590  178.7790  137.0130 C   0  0  0  0  0  0  0  0  0  0  0  0
  180.4420  179.6530  136.1590 N   0  0  0  0  0  0  0  0  0  0  0  0
  182.3550  177.7310  134.4610 C   0  0  0  0  0  2  0  0  0  0  0  0
  179.9820  178.9790  134.5890 S   0  0  0  0  0  0  0  0  0  0  0  0
  180.8650  177.3710  136.4970 C   0  0  2  0  0  3  0  0  0  0  0  0
  183.0890  176.0720  136.5880 C   0  0  0  0  0  2  0  0  0  0  0  0
  181.1630  179.1850  138.3540 N   0  0  0  0  0  2  0  0  0  0  0  0
  187.5540  177.9460  146.7510 N   0  0  0  0  0  0  0  0  0  0  0  0
  188.6130  177.1490  146.2920 N   0  0  0  0  0  2  0  0  0  0  0  0
  189.0520  177.9350  148.5310 C   0  0  0  0  0  2  0  0  0  0  0  0
  189.4320  176.9080  147.4730 C   0  0  2  0  0  3  0  0  0  0  0  0
  187.6950  178.4180  148.1130 C   0  0  0  0  0  2  0  0  0  0  0  0
  190.9060  176.9990  147.1150 C   0  0  0  0  0  2  0  0  0  0  0  0
  191.0890  176.8770  145.6120 C   0  0  0  0  0  2  0  0  0  0  0  0
  191.9330  177.9140  145.1410 O   0  0  0  0  0  0  0  0  0  0  0  0
  191.6250  178.5740  143.9560 C   0  0  0  0  0  3  0  0  0  0  0  0
  190.8510  179.5660  143.9690 O   0  0  0  0  0  0  0  0  0  0  0  0
  185.8590  177.6310  140.3450 C   0  0  0  0  0  2  0  0  0  0  0  0
  187.2030  178.3050  140.5500 C   0  0  0  0  0  2  0  0  0  0  0  0
  188.0160  178.2200  139.2730 C   0  0  0  0  0  2  0  0  0  0  0  0
  189.2680  177.3790  139.4970 C   0  0  0  0  0  2  0  0  0  0  0  0
  190.2310  177.4210  138.3080 C   0  0  2  0  0  3  0  0  0  0  0  0
  189.4990  177.4970  136.9740 C   0  0  0  0  0  1  0  0  0  0  0  0
  192.6370  176.5470  138.8280 C   0  0  0  0  0  1  0  0  0  0  0  0
  190.5580  173.9780  137.6200 O   0  0  0  0  0  0  0  0  0  0  0  0
  190.8970  175.1190  137.9630 C   0  0  0  0  0  0  0  0  0  0  0  0
  191.2520  176.3200  138.3250 C   0  0  0  0  0  0  0  0  0  0  0  0
  1 29  1  6  0  0  0
  1 15  1  0  0  0  0
  2 12  1  0  0  0  0
  3  8  1  0  0  0  0
  3 30  1  0  0  0  0
  4  1  1  0  0  0  0
  5  2  2  0  0  0  0
  5 14  1  0  0  0  0
  6  4  1  6  0  0  0
  6 10  1  0  0  0  0
  6 13  1  0  0  0  0
  7  2  1  0  0  0  0
  7 17  1  1  0  0  0
 10 40  1  6  0  0  0
 10 18  1  0  0  0  0
 11  7  1  0  0  0  0
 12  8  2  0  0  0  0
 13 11  1  0  0  0  0
 14  3  2  0  0  0  0
 15  9  1  0  0  0  0
 15 13  2  0  0  0  0
 18 16  1  1  0  0  0
 18  5  1  0  0  0  0
 19 25  1  0  0  0  0
 19 20  1  0  0  0  0
 20 28  1  0  0  0  0
 22 25  1  1  0  0  0
 22 27  1  0  0  0  0
 23 29  1  0  0  0  0
 24 23  2  0  0  0  0
 26 22  1  0  0  0  0
 26 24  1  0  0  0  0
 27 23  1  0  0  0  0
 27 21  1  1  0  0  0
 28 21  1  0  0  0  0
 30 34  1  0  0  0  0
 31 30  1  0  0  0  0
 31 33  1  0  0  0  0
 33 35  1  6  0  0  0
 33 32  1  0  0  0  0
 34 32  1  0  0  0  0
 36 35  1  0  0  0  0
 37 36  1  0  0  0  0
 38 39  2  0  0  0  0
 38 37  1  0  0  0  0
 40 41  1  0  0  0  0
 42 43  1  0  0  0  0
 42 41  1  0  0  0  0
 44 45  1  6  0  0  0
 44 49  1  0  0  0  0
 44 43  1  0  0  0  0
 47 48  2  0  0  0  0
 48 49  2  0  0  0  0
 49 46  1  0  0  0  0
M  END
>  <MODEL>
7

>  <REMARK>
 VINA RESULT:      -6.0      4.461     10.407
  Name = 
  12 active torsions:
  status: ('A' for Active; 'I' for Inactive)
    1  A    between atoms: C_1  and  C_24
    2  A    between atoms: C_1  and  C_27
    3  A    between atoms: N_2  and  C_14
    4  A    between atoms: O_4  and  C_13
    5  A    between atoms: O_4  and  C_29
    6  A    between atoms: C_7  and  C_9
    7  A    between atoms: C_9  and  C_29
    8  A    between atoms: C_11  and  N_48
    9  A    between atoms: C_27  and  C_40
   10  A    between atoms: C_32  and  C_38
   11  A    between atoms: C_32  and  C_41
   12  A    between atoms: C_40  and  C_41
                            x       y       z     vdW  Elec       q    Type
                         _______ _______ _______ _____ _____    ______ ____

>  <TORSDO>
F 12

$$$$
=
 OpenBabel10232409173D

 49 54  0  0  1  0  0  0  0  0999 V2000
  182.3490  178.2020  139.1410 C   0  0  1  0  0  3  0  0  0  0  0  0
  184.3740  178.4160  144.2940 C   0  0  0  0  0  0  0  0  0  0  0  0
  186.6360  178.0960  145.9620 C   0  0  0  0  0  0  0  0  0  0  0  0
  183.8770  178.2350  139.1150 C   0  0  0  0  0  2  0  0  0  0  0  0
  185.6860  178.5190  143.7520 C   0  0  0  0  0  0  0  0  0  0  0  0
  184.3360  178.9470  140.3950 C   0  0  2  0  0  3  0  0  0  0  0  0
  183.1260  178.4310  143.4400 C   0  0  2  0  0  3  0  0  0  0  0  0
  185.3450  178.0020  146.4920 C   0  0  0  0  0  3  0  0  0  0  0  0
  180.7110  178.8560  140.9480 O   0  0  0  0  0  1  0  0  0  0  0  0
  185.3280  178.0970  141.2190 C   0  0  2  0  0  3  0  0  0  0  0  0
  183.0150  179.6540  142.5510 C   0  0  0  0  0  2  0  0  0  0  0  0
  184.2330  178.1530  145.6660 C   0  0  0  0  0  3  0  0  0  0  0  0
  183.0690  179.1830  141.1360 C   0  0  0  0  0  0  0  0  0  0  0  0
  186.7920  178.3630  144.5980 C   0  0  0  0  0  3  0  0  0  0  0  0
  182.0110  178.7810  140.4600 C   0  0  0  0  0  0  0  0  0  0  0  0
  185.9350  180.2950  142.1550 O   0  0  0  0  0  1  0  0  0  0  0  0
  181.9620  178.3070  144.2020 O   0  0  0  0  0  1  0  0  0  0  0  0
  186.0100  178.9110  142.3360 C   0  0  1  0  0  3  0  0  0  0  0  0
  182.4570  175.4300  134.3470 C   0  0  0  0  0  2  0  0  0  0  0  0
  182.0820  174.6920  135.4850 O   0  0  0  0  0  0  0  0  0  0  0  0
  181.4800  176.0120  137.3550 C   0  0  0  0  0  2  0  0  0  0  0  0
  180.6080  177.0550  135.0770 C   0  0  2  0  0  3  0  0  0  0  0  0
  181.2040  178.5750  136.8780 C   0  0  0  0  0  0  0  0  0  0  0  0
  180.8650  179.4170  135.9600 N   0  0  0  0  0  0  0  0  0  0  0  0
  181.9400  176.8710  134.3480 C   0  0  0  0  0  2  0  0  0  0  0  0
  179.9920  178.7000  134.5980 S   0  0  0  0  0  0  0  0  0  0  0  0
  180.7850  177.1620  136.6010 C   0  0  2  0  0  3  0  0  0  0  0  0
  182.6180  175.3500  136.5940 C   0  0  0  0  0  2  0  0  0  0  0  0
  181.8250  179.0480  138.0810 N   0  0  0  0  0  2  0  0  0  0  0  0
  187.7850  177.9060  146.8020 N   0  0  0  0  0  0  0  0  0  0  0  0
  188.7350  176.9080  146.5410 N   0  0  0  0  0  2  0  0  0  0  0  0
  189.2580  178.0590  148.5970 C   0  0  0  0  0  2  0  0  0  0  0  0
  189.5100  176.8040  147.7720 C   0  0  2  0  0  3  0  0  0  0  0  0
  187.9780  178.6170  148.0490 C   0  0  0  0  0  2  0  0  0  0  0  0
  190.9850  176.6380  147.4490 C   0  0  0  0  0  2  0  0  0  0  0  0
  191.2890  177.2050  146.0730 C   0  0  0  0  0  2  0  0  0  0  0  0
  191.9620  176.2360  145.2880 O   0  0  0  0  0  0  0  0  0  0  0  0
  191.4940  175.9290  144.0140 C   0  0  0  0  0  3  0  0  0  0  0  0
  190.3720  176.3530  143.6360 O   0  0  0  0  0  0  0  0  0  0  0  0
  186.4180  177.5260  140.3220 C   0  0  0  0  0  2  0  0  0  0  0  0
  187.7190  178.2850  140.5020 C   0  0  0  0  0  2  0  0  0  0  0  0
  188.7160  177.8460  139.4460 C   0  0  0  0  0  2  0  0  0  0  0  0
  188.2490  178.2830  138.0620 C   0  0  0  0  0  2  0  0  0  0  0  0
  188.2990  177.1500  137.0350 C   0  0  2  0  0  3  0  0  0  0  0  0
  188.9730  177.5760  135.7370 C   0  0  0  0  0  1  0  0  0  0  0  0
  185.8170  177.2740  136.2300 C   0  0  0  0  0  1  0  0  0  0  0  0
  186.7060  174.0080  137.1900 O   0  0  0  0  0  0  0  0  0  0  0  0
  186.8310  175.2250  136.9940 C   0  0  0  0  0  0  0  0  0  0  0  0
  186.9650  176.5050  136.7880 C   0  0  0  0  0  0  0  0  0  0  0  0
  1 29  1  6  0  0  0
  1 15  1  0  0  0  0
  2 12  1  0  0  0  0
  3  8  1  0  0  0  0
  3 30  1  0  0  0  0
  4  1  1  0  0  0  0
  5  2  2  0  0  0  0
  5 14  1  0  0  0  0
  6  4  1  6  0  0  0
  6 13  1  0  0  0  0
  6 10  1  0  0  0  0
  7 17  1  1  0  0  0
  7  2  1  0  0  0  0
 10 40  1  6  0  0  0
 10 18  1  0  0  0  0
 11  7  1  0  0  0  0
 12  8  2  0  0  0  0
 13 11  1  0  0  0  0
 14  3  2  0  0  0  0
 15  9  1  0  0  0  0
 15 13  2  0  0  0  0
 18 16  1  1  0  0  0
 18  5  1  0  0  0  0
 19 25  1  0  0  0  0
 19 20  1  0  0  0  0
 20 28  1  0  0  0  0
 22 25  1  6  0  0  0
 22 27  1  0  0  0  0
 23 29  1  0  0  0  0
 24 23  2  0  0  0  0
 26 22  1  0  0  0  0
 26 24  1  0  0  0  0
 27 23  1  0  0  0  0
 27 21  1  6  0  0  0
 28 21  1  0  0  0  0
 30 34  1  0  0  0  0
 31 30  1  0  0  0  0
 31 33  1  0  0  0  0
 33 35  1  6  0  0  0
 33 32  1  0  0  0  0
 34 32  1  0  0  0  0
 36 35  1  0  0  0  0
 37 36  1  0  0  0  0
 38 37  1  0  0  0  0
 39 38  2  0  0  0  0
 40 41  1  0  0  0  0
 42 41  1  0  0  0  0
 43 42  1  0  0  0  0
 44 45  1  6  0  0  0
 44 43  1  0  0  0  0
 46 49  1  0  0  0  0
 48 47  2  0  0  0  0
 49 48  2  0  0  0  0
 49 44  1  0  0  0  0
M  END
>  <MODEL>
8

>  <REMARK>
 VINA RESULT:      -6.0      5.169     10.439
  Name = 
  12 active torsions:
  status: ('A' for Active; 'I' for Inactive)
    1  A    between atoms: C_1  and  C_24
    2  A    between atoms: C_1  and  C_27
    3  A    between atoms: N_2  and  C_14
    4  A    between atoms: O_4  and  C_13
    5  A    between atoms: O_4  and  C_29
    6  A    between atoms: C_7  and  C_9
    7  A    between atoms: C_9  and  C_29
    8  A    between atoms: C_11  and  N_48
    9  A    between atoms: C_27  and  C_40
   10  A    between atoms: C_32  and  C_38
   11  A    between atoms: C_32  and  C_41
   12  A    between atoms: C_40  and  C_41
                            x       y       z     vdW  Elec       q    Type
                         _______ _______ _______ _____ _____    ______ ____

>  <TORSDO>
F 12

$$$$
=
 OpenBabel10232409173D

 49 54  0  0  1  0  0  0  0  0999 V2000
  186.6580  177.7860  138.0290 C   0  0  1  0  0  3  0  0  0  0  0  0
  191.4680  176.2480  135.7520 C   0  0  0  0  0  0  0  0  0  0  0  0
  194.0470  175.1630  136.1750 C   0  0  0  0  0  0  0  0  0  0  0  0
  187.4460  176.8960  138.9910 C   0  0  0  0  0  2  0  0  0  0  0  0
  191.7300  175.4440  136.8980 C   0  0  0  0  0  0  0  0  0  0  0  0
  188.3500  175.9960  138.1370 C   0  0  2  0  0  3  0  0  0  0  0  0
  190.1610  176.9780  135.5380 C   0  0  2  0  0  3  0  0  0  0  0  0
  193.7840  175.9470  135.0480 C   0  0  0  0  0  3  0  0  0  0  0  0
  186.8500  178.0970  135.5320 O   0  0  0  0  0  1  0  0  0  0  0  0
  189.8370  176.1010  138.5410 C   0  0  2  0  0  3  0  0  0  0  0  0
  188.9480  176.0700  135.5820 C   0  0  0  0  0  2  0  0  0  0  0  0
  192.5150  176.4860  134.8460 C   0  0  0  0  0  3  0  0  0  0  0  0
  188.1210  176.4860  136.7520 C   0  0  0  0  0  0  0  0  0  0  0  0
  193.0130  174.9120  137.0830 C   0  0  0  0  0  3  0  0  0  0  0  0
  187.2170  177.4450  136.7030 C   0  0  0  0  0  0  0  0  0  0  0  0
  189.9620  173.9070  137.4230 O   0  0  0  0  0  1  0  0  0  0  0  0
  190.1510  177.7040  134.3460 O   0  0  0  0  0  1  0  0  0  0  0  0
  190.6980  174.9970  137.8970 C   0  0  1  0  0  3  0  0  0  0  0  0
  184.7700  178.4460  143.1950 C   0  0  0  0  0  2  0  0  0  0  0  0
  185.6660  179.4260  142.7290 O   0  0  0  0  0  0  0  0  0  0  0  0
  185.9710  179.4390  140.3820 C   0  0  0  0  0  2  0  0  0  0  0  0
  183.4480  178.9690  141.0570 C   0  0  2  0  0  3  0  0  0  0  0  0
  184.3000  177.9430  139.0240 C   0  0  0  0  0  0  0  0  0  0  0  0
  183.0960  177.4800  139.0360 N   0  0  0  0  0  0  0  0  0  0  0  0
  183.8050  177.9320  142.1230 C   0  0  0  0  0  2  0  0  0  0  0  0
  182.0080  178.3030  140.1640 S   0  0  0  0  0  0  0  0  0  0  0  0
  184.5300  179.0850  139.9680 C   0  0  2  0  0  3  0  0  0  0  0  0
  186.4160  178.8410  141.7070 C   0  0  0  0  0  2  0  0  0  0  0  0
  185.2490  177.4300  138.0790 N   0  0  0  0  0  2  0  0  0  0  0  0
  195.3620  174.6340  136.4050 N   0  0  0  0  0  0  0  0  0  0  0  0
  196.3030  175.3100  137.1960 N   0  0  0  0  0  2  0  0  0  0  0  0
  197.2760  173.3230  136.2320 C   0  0  0  0  0  2  0  0  0  0  0  0
  197.5730  174.6620  136.8930 C   0  0  2  0  0  3  0  0  0  0  0  0
  195.8690  173.4560  135.7320 C   0  0  0  0  0  2  0  0  0  0  0  0
  198.3870  174.4870  138.1640 C   0  0  0  0  0  2  0  0  0  0  0  0
  197.5100  174.7070  139.3840 C   0  0  0  0  0  2  0  0  0  0  0  0
  198.1270  175.6310  140.2640 O   0  0  0  0  0  0  0  0  0  0  0  0
  197.9710  175.4880  141.6390 C   0  0  0  0  0  3  0  0  0  0  0  0
  198.9150  175.0380  142.3370 O   0  0  0  0  0  0  0  0  0  0  0  0
  189.9900  175.9930  140.0520 C   0  0  0  0  0  2  0  0  0  0  0  0
  190.6550  177.2340  140.6180 C   0  0  0  0  0  2  0  0  0  0  0  0
  189.8930  177.7090  141.8400 C   0  0  0  0  0  2  0  0  0  0  0  0
  190.6100  177.2750  143.1140 C   0  0  0  0  0  2  0  0  0  0  0  0
  189.6660  176.6460  144.1400 C   0  0  2  0  0  3  0  0  0  0  0  0
  188.2220  176.6120  143.6540 C   0  0  0  0  0  1  0  0  0  0  0  0
  188.6550  178.0070  146.1280 C   0  0  0  0  0  1  0  0  0  0  0  0
  191.8920  176.8410  146.8680 O   0  0  0  0  0  0  0  0  0  0  0  0
  190.8630  177.0410  146.2070 C   0  0  0  0  0  0  0  0  0  0  0  0
  189.7820  177.2500  145.5110 C   0  0  0  0  0  0  0  0  0  0  0  0
  1 29  1  6  0  0  0
  1  4  1  0  0  0  0
  2  5  1  0  0  0  0
  3 30  1  0  0  0  0
  3 14  1  0  0  0  0
  5 14  2  0  0  0  0
  5 18  1  0  0  0  0
  6 10  1  0  0  0  0
  6  4  1  1  0  0  0
  7 17  1  6  0  0  0
  7 11  1  0  0  0  0
  7  2  1  0  0  0  0
  8  3  2  0  0  0  0
  9 15  1  0  0  0  0
 10 40  1  1  0  0  0
 11 13  1  0  0  0  0
 12  8  1  0  0  0  0
 12  2  2  0  0  0  0
 13  6  1  0  0  0  0
 15 13  2  0  0  0  0
 15  1  1  0  0  0  0
 18 16  1  6  0  0  0
 18 10  1  0  0  0  0
 20 19  1  0  0  0  0
 21 28  1  0  0  0  0
 22 25  1  1  0  0  0
 23 24  2  0  0  0  0
 23 27  1  0  0  0  0
 24 26  1  0  0  0  0
 25 19  1  0  0  0  0
 26 22  1  0  0  0  0
 27 21  1  1  0  0  0
 27 22  1  0  0  0  0
 28 20  1  0  0  0  0
 29 23  1  0  0  0  0
 30 31  1  0  0  0  0
 32 33  1  0  0  0  0
 33 31  1  0  0  0  0
 33 35  1  1  0  0  0
 34 32  1  0  0  0  0
 34 30  1  0  0  0  0
 35 36  1  0  0  0  0
 36 37  1  0  0  0  0
 37 38  1  0  0  0  0
 38 39  2  0  0  0  0
 40 41  1  0  0  0  0
 41 42  1  0  0  0  0
 42 43  1  0  0  0  0
 43 44  1  0  0  0  0
 44 45  1  6  0  0  0
 44 49  1  0  0  0  0
 48 47  2  0  0  0  0
 49 46  1  0  0  0  0
 49 48  2  0  0  0  0
M  END
>  <MODEL>
9

>  <REMARK>
 VINA RESULT:      -6.0      3.290      9.938
  Name = 
  12 active torsions:
  status: ('A' for Active; 'I' for Inactive)
    1  A    between atoms: C_1  and  C_24
    2  A    between atoms: C_1  and  C_27
    3  A    between atoms: N_2  and  C_14
    4  A    between atoms: O_4  and  C_13
    5  A    between atoms: O_4  and  C_29
    6  A    between atoms: C_7  and  C_9
    7  A    between atoms: C_9  and  C_29
    8  A    between atoms: C_11  and  N_48
    9  A    between atoms: C_27  and  C_40
   10  A    between atoms: C_32  and  C_38
   11  A    between atoms: C_32  and  C_41
   12  A    between atoms: C_40  and  C_41
                            x       y       z     vdW  Elec       q    Type
                         _______ _______ _______ _____ _____    ______ ____

>  <TORSDO>
F 12

$$$$
