=
 OpenBabel10232410143D

 41 42  0  0  1  0  0  0  0  0999 V2000
  187.2510  177.9550  141.5870 C   0  0  2  0  0  3  0  0  0  0  0  0
  187.2100  178.2720  140.1150 C   0  0  0  0  0  0  0  0  0  0  0  0
  185.0420  179.0430  139.0210 O   0  0  0  0  0  0  0  0  0  0  0  0
  186.0950  178.6700  139.5520 C   0  0  0  0  0  0  0  0  0  0  0  0
  188.4480  178.1700  139.3200 C   0  0  0  0  0  0  0  0  0  0  0  0
  189.0370  176.8880  139.0620 N   0  0  0  0  0  2  0  0  0  0  0  0
  188.9530  179.2120  138.8190 O   0  0  0  0  0  0  0  0  0  0  0  0
  191.4540  176.8490  139.3680 C   0  0  0  0  0  2  0  0  0  0  0  0
  190.5730  176.3450  137.1820 C   0  0  0  0  0  0  0  0  0  0  0  0
  191.8770  176.1630  136.7190 C   0  0  0  0  0  2  0  0  0  0  0  0
  192.7160  176.6640  138.8950 N   0  0  0  0  0  0  0  0  0  0  0  0
  189.5460  176.2600  136.3010 F   0  0  0  0  0  0  0  0  0  0  0  0
  192.9540  176.3180  137.6030 C   0  0  0  0  0  0  0  0  0  0  0  0
  190.3510  176.6750  138.5300 C   0  0  0  0  0  0  0  0  0  0  0  0
  194.9100  174.8250  136.9980 C   0  0  0  0  0  1  0  0  0  0  0  0
  194.3030  176.1360  137.1640 N   0  0  0  0  0  2  0  0  0  0  0  0
  186.2160  178.7310  142.3970 C   0  0  0  0  0  2  0  0  0  0  0  0
  185.0640  177.8350  142.8350 C   0  0  0  0  0  2  0  0  0  0  0  0
  183.9900  178.6200  143.5880 C   0  0  0  0  0  2  0  0  0  0  0  0
  181.6480  178.2110  141.1690 C   0  0  0  0  0  0  0  0  0  0  0  0
  180.8310  178.4200  142.1410 N   0  0  0  0  0  0  0  0  0  0  0  0
  182.9610  179.2970  142.6780 C   0  0  2  0  0  3  0  0  0  0  0  0
  181.5310  179.1280  143.2060 C   0  0  0  0  0  2  0  0  0  0  0  0
  182.9220  178.6880  141.3970 O   0  0  0  0  0  0  0  0  0  0  0  0
  182.3080  176.4400  139.5980 C   0  0  0  0  0  1  0  0  0  0  0  0
  181.2590  177.4850  139.9270 C   0  0  0  0  0  2  0  0  0  0  0  0
  188.6530  178.0940  142.1760 C   0  0  0  0  0  2  0  0  0  0  0  0
  189.0580  176.9090  142.8020 O   0  0  0  0  0  0  0  0  0  0  0  0
  190.5270  177.2780  143.5640 P   0  0  1  0  0  0  0  0  0  0  0  0
  191.3950  175.8560  143.8780 O   0  0  0  0  0  1  0  0  0  0  0  0
  191.3450  178.1790  142.6630 O   0  0  0  0  0  0  0  0  0  0  0  0
  190.1890  178.0800  145.0250 O   0  0  0  0  0  0  0  0  0  0  0  0
  189.9720  177.0740  145.9780 C   0  0  1  0  0  3  0  0  0  0  0  0
  191.1480  176.9940  146.9060 C   0  0  0  0  0  3  0  0  0  0  0  0
  191.6180  175.8140  147.3060 C   0  0  0  0  0  2  0  0  0  0  0  0
  188.6630  177.3160  146.7450 C   0  0  1  0  0  3  0  0  0  0  0  0
  188.1250  177.6480  149.0600 O   0  0  0  0  0  1  0  0  0  0  0  0
  188.8670  178.1680  147.9970 C   0  0  0  0  0  2  0  0  0  0  0  0
  187.6450  177.9740  145.8280 C   0  0  0  0  0  2  0  0  0  0  0  0
  186.2490  177.8630  146.4130 C   0  0  0  0  0  2  0  0  0  0  0  0
  185.7010  179.1960  146.6040 N   0  0  0  0  0  1  0  0  0  0  0  0
  1 27  1  1  0  0  0
  1 17  1  0  0  0  0
  2  1  1  0  0  0  0
  3  4  2  0  0  0  0
  4  2  2  0  0  0  0
  5  2  1  0  0  0  0
  6  5  1  0  0  0  0
  7  5  2  0  0  0  0
  9 14  2  0  0  0  0
 10  9  1  0  0  0  0
 10 13  1  0  0  0  0
 11  8  1  0  0  0  0
 12  9  1  0  0  0  0
 13 11  2  0  0  0  0
 14  6  1  0  0  0  0
 14  8  1  0  0  0  0
 15 16  1  0  0  0  0
 16 13  1  0  0  0  0
 17 18  1  0  0  0  0
 18 19  1  0  0  0  0
 20 24  1  0  0  0  0
 20 21  2  0  0  0  0
 21 23  1  0  0  0  0
 22 23  1  0  0  0  0
 22 19  1  1  0  0  0
 24 22  1  0  0  0  0
 25 26  1  0  0  0  0
 26 20  1  0  0  0  0
 27 28  1  0  0  0  0
 28 29  1  0  0  0  0
 29 31  2  6  0  0  0
 29 30  1  0  0  0  0
 29 32  1  0  0  0  0
 32 33  1  0  0  0  0
 33 36  1  0  0  0  0
 33 34  1  1  0  0  0
 34 35  2  0  0  0  0
 36 39  1  6  0  0  0
 36 38  1  0  0  0  0
 38 37  1  0  0  0  0
 39 40  1  0  0  0  0
 40 41  1  0  0  0  0
M  END
>  <MODEL>
1

>  <REMARK>
 VINA RESULT:      -7.0      0.000      0.000
  Name = 
  19 active torsions:
  status: ('A' for Active; 'I' for Inactive)
    1  A    between atoms: C_1  and  C_16
    2  A    between atoms: C_1  and  C_20
    3  A    between atoms: O_2  and  C_8
    4  A    between atoms: O_2  and  P_10
    5  A    between atoms: C_5  and  C_29
    6  A    between atoms: C_7  and  C_23
    7  A    between atoms: C_7  and  C_26
    8  A    between atoms: C_8  and  C_20
    9  A    between atoms: C_9  and  C_21
   10  A    between atoms: C_9  and  C_36
   11  A    between atoms: C_9  and  C_37
   12  A    between atoms: P_10  and  O_31
   13  A    between atoms: C_12  and  C_20
   14  A    between atoms: C_12  and  C_26
   15  A    between atoms: C_13  and  C_21
   16  A    between atoms: O_31  and  C_36
   17  A    between atoms: C_32  and  C_36
   18  A    between atoms: N_34  and  C_40
   19  A    between atoms: C_35  and  N_41
                            x       y       z     vdW  Elec       q    Type
                         _______ _______ _______ _____ _____    ______ ____

>  <TORSDO>
F 19

$$$$
=
 OpenBabel10232410143D

 41 42  0  0  1  0  0  0  0  0999 V2000
  188.7100  178.3110  139.3880 C   0  0  2  0  0  3  0  0  0  0  0  0
  187.6870  178.0630  138.3100 C   0  0  0  0  0  0  0  0  0  0  0  0
  188.4220  177.5860  135.9180 O   0  0  0  0  0  0  0  0  0  0  0  0
  188.0650  177.8170  137.0790 C   0  0  0  0  0  0  0  0  0  0  0  0
  186.2550  178.0600  138.6620 C   0  0  0  0  0  0  0  0  0  0  0  0
  185.7480  178.9860  139.6320 N   0  0  0  0  0  2  0  0  0  0  0  0
  185.4690  177.2770  138.0610 O   0  0  0  0  0  0  0  0  0  0  0  0
  183.3350  179.3000  139.4910 C   0  0  0  0  0  3  0  0  0  0  0  0
  184.2660  178.5330  141.5780 C   0  0  0  0  0  0  0  0  0  0  0  0
  182.9800  178.5000  142.1180 C   0  0  0  0  0  3  0  0  0  0  0  0
  182.0910  179.2580  140.0380 N   0  0  0  0  0  0  0  0  0  0  0  0
  185.3220  178.2480  142.3800 F   0  0  0  0  0  0  0  0  0  0  0  0
  181.8840  178.8610  141.3210 C   0  0  0  0  0  0  0  0  0  0  0  0
  184.4510  178.9190  140.2390 C   0  0  0  0  0  0  0  0  0  0  0  0
  180.2590  178.7480  143.2620 C   0  0  0  0  0  1  0  0  0  0  0  0
  180.5520  178.8360  141.8400 N   0  0  0  0  0  2  0  0  0  0  0  0
  190.1450  178.0800  138.9180 C   0  0  0  0  0  2  0  0  0  0  0  0
  190.6180  176.6690  139.2440 C   0  0  0  0  0  2  0  0  0  0  0  0
  191.7960  176.2490  138.3630 C   0  0  0  0  0  2  0  0  0  0  0  0
  189.5950  174.2820  136.6920 C   0  0  0  0  0  0  0  0  0  0  0  0
  190.2550  174.6830  135.6630 N   0  0  0  0  0  0  0  0  0  0  0  0
  191.5720  174.9330  137.6120 C   0  0  2  0  0  3  0  0  0  0  0  0
  191.5740  175.1350  136.0920 C   0  0  0  0  0  2  0  0  0  0  0  0
  190.2880  174.3950  137.8810 O   0  0  0  0  0  0  0  0  0  0  0  0
  187.5700  174.2260  135.3010 C   0  0  0  0  0  1  0  0  0  0  0  0
  188.1950  173.7760  136.6080 C   0  0  0  0  0  2  0  0  0  0  0  0
  188.4040  177.5450  140.6720 C   0  0  0  0  0  2  0  0  0  0  0  0
  188.4660  178.3860  141.7890 O   0  0  0  0  0  0  0  0  0  0  0  0
  189.4530  177.5810  142.9080 P   0  0  1  0  0  0  0  0  0  0  0  0
  189.0440  175.9370  142.9700 O   0  0  0  0  0  1  0  0  0  0  0  0
  190.9020  177.7240  142.4910 O   0  0  0  0  0  0  0  0  0  0  0  0
  189.2220  178.2890  144.4370 O   0  0  0  0  0  0  0  0  0  0  0  0
  189.1800  177.2290  145.3530 C   0  0  1  0  0  3  0  0  0  0  0  0
  190.4540  177.1910  146.1440 C   0  0  0  0  0  3  0  0  0  0  0  0
  191.5360  176.5830  145.6620 C   0  0  0  0  0  2  0  0  0  0  0  0
  187.9510  177.3410  146.2680 C   0  0  1  0  0  3  0  0  0  0  0  0
  188.0020  177.2890  148.6660 O   0  0  0  0  0  1  0  0  0  0  0  0
  188.2490  178.1030  147.5580 C   0  0  0  0  0  2  0  0  0  0  0  0
  186.8120  178.0120  145.5180 C   0  0  0  0  0  2  0  0  0  0  0  0
  185.6030  178.1760  146.4180 C   0  0  0  0  0  2  0  0  0  0  0  0
  184.6270  179.0320  145.7620 N   0  0  0  0  0  1  0  0  0  0  0  0
  1 17  1  6  0  0  0
  1 27  1  0  0  0  0
  2  5  1  0  0  0  0
  2  1  1  0  0  0  0
  3  4  2  0  0  0  0
  4  2  2  0  0  0  0
  5  6  1  0  0  0  0
  6 14  1  0  0  0  0
  7  5  2  0  0  0  0
  8 11  1  0  0  0  0
  8 14  2  0  0  0  0
  9 10  2  0  0  0  0
  9 12  1  0  0  0  0
 11 13  2  0  0  0  0
 13 16  1  0  0  0  0
 13 10  1  0  0  0  0
 14  9  1  0  0  0  0
 16 15  1  0  0  0  0
 17 18  1  0  0  0  0
 19 18  1  0  0  0  0
 20 24  1  0  0  0  0
 21 23  1  0  0  0  0
 21 20  2  0  0  0  0
 22 24  1  0  0  0  0
 22 19  1  1  0  0  0
 23 22  1  0  0  0  0
 25 26  1  0  0  0  0
 26 20  1  0  0  0  0
 27 28  1  0  0  0  0
 28 29  1  0  0  0  0
 29 31  2  6  0  0  0
 29 30  1  0  0  0  0
 29 32  1  0  0  0  0
 32 33  1  0  0  0  0
 33 34  1  1  0  0  0
 33 36  1  0  0  0  0
 35 34  2  0  0  0  0
 36 39  1  6  0  0  0
 36 38  1  0  0  0  0
 38 37  1  0  0  0  0
 39 40  1  0  0  0  0
 41 40  1  0  0  0  0
M  END
>  <MODEL>
2

>  <REMARK>
 VINA RESULT:      -6.7      2.349      7.184
  Name = 
  19 active torsions:
  status: ('A' for Active; 'I' for Inactive)
    1  A    between atoms: C_1  and  C_16
    2  A    between atoms: C_1  and  C_20
    3  A    between atoms: O_2  and  C_8
    4  A    between atoms: O_2  and  P_10
    5  A    between atoms: C_5  and  C_29
    6  A    between atoms: C_7  and  C_23
    7  A    between atoms: C_7  and  C_26
    8  A    between atoms: C_8  and  C_20
    9  A    between atoms: C_9  and  C_21
   10  A    between atoms: C_9  and  C_36
   11  A    between atoms: C_9  and  C_37
   12  A    between atoms: P_10  and  O_31
   13  A    between atoms: C_12  and  C_20
   14  A    between atoms: C_12  and  C_26
   15  A    between atoms: C_13  and  C_21
   16  A    between atoms: O_31  and  C_36
   17  A    between atoms: C_32  and  C_36
   18  A    between atoms: N_34  and  C_40
   19  A    between atoms: C_35  and  N_41
                            x       y       z     vdW  Elec       q    Type
                         _______ _______ _______ _____ _____    ______ ____

>  <TORSDO>
F 19

$$$$
=
 OpenBabel10232410143D

 41 42  0  0  1  0  0  0  0  0999 V2000
  185.5960  178.8370  142.2750 C   0  0  2  0  0  3  0  0  0  0  0  0
  185.6550  178.4740  143.7360 C   0  0  0  0  0  0  0  0  0  0  0  0
  183.7630  179.1380  145.3080 O   0  0  0  0  0  0  0  0  0  0  0  0
  184.6810  178.8150  144.5450 C   0  0  0  0  0  0  0  0  0  0  0  0
  186.8010  177.6940  144.2400 C   0  0  0  0  0  0  0  0  0  0  0  0
  187.6030  178.2030  145.3150 N   0  0  0  0  0  2  0  0  0  0  0  0
  187.0370  176.5530  143.7600 O   0  0  0  0  0  0  0  0  0  0  0  0
  188.9700  177.0280  146.9540 C   0  0  0  0  0  2  0  0  0  0  0  0
  190.0340  177.8300  144.9460 C   0  0  0  0  0  0  0  0  0  0  0  0
  191.2450  177.3060  145.4000 C   0  0  0  0  0  2  0  0  0  0  0  0
  190.1610  176.5240  147.3760 N   0  0  0  0  0  0  0  0  0  0  0  0
  190.0170  178.5350  143.7870 F   0  0  0  0  0  0  0  0  0  0  0  0
  191.2910  176.6360  146.6310 C   0  0  0  0  0  0  0  0  0  0  0  0
  188.8720  177.6750  145.7210 C   0  0  0  0  0  0  0  0  0  0  0  0
  192.7590  175.8450  148.5390 C   0  0  0  0  0  1  0  0  0  0  0  0
  192.5140  176.0840  147.1260 N   0  0  0  0  0  2  0  0  0  0  0  0
  184.5270  178.0630  141.5070 C   0  0  0  0  0  2  0  0  0  0  0  0
  183.3150  178.9350  141.2050 C   0  0  0  0  0  2  0  0  0  0  0  0
  182.0670  178.4470  141.9410 C   0  0  0  0  0  2  0  0  0  0  0  0
  180.5360  180.2650  139.5210 C   0  0  0  0  0  0  0  0  0  0  0  0
  180.5330  179.1410  138.8950 N   0  0  0  0  0  0  0  0  0  0  0  0
  180.7540  178.7660  141.2200 C   0  0  2  0  0  3  0  0  0  0  0  0
  180.6600  178.0580  139.8630 C   0  0  0  0  0  2  0  0  0  0  0  0
  180.6660  180.1420  140.8900 O   0  0  0  0  0  0  0  0  0  0  0  0
  181.8080  181.9570  138.2730 C   0  0  0  0  0  1  0  0  0  0  0  0
  180.4460  181.5790  138.8240 C   0  0  0  0  0  2  0  0  0  0  0  0
  186.9590  178.7470  141.5950 C   0  0  0  0  0  2  0  0  0  0  0  0
  186.8240  178.5880  140.2110 O   0  0  0  0  0  0  0  0  0  0  0  0
  188.3700  178.1730  139.6490 P   0  0  1  0  0  0  0  0  0  0  0  0
  188.9170  179.3310  138.5390 O   0  0  0  0  0  0  0  0  0  0  0  0
  189.3260  178.1070  140.8210 O   0  0  0  0  0  1  0  0  0  0  0  0
  188.2780  176.6510  138.8960 O   0  0  0  0  0  0  0  0  0  0  0  0
  188.1910  176.9050  137.5200 C   0  0  1  0  0  3  0  0  0  0  0  0
  189.3360  176.2450  136.8100 C   0  0  0  0  0  3  0  0  0  0  0  0
  190.5860  176.6650  136.9980 C   0  0  0  0  0  2  0  0  0  0  0  0
  186.8380  176.4420  136.9590 C   0  0  1  0  0  3  0  0  0  0  0  0
  184.9970  177.8340  137.6160 O   0  0  0  0  0  1  0  0  0  0  0  0
  185.9240  177.6110  136.5950 C   0  0  0  0  0  2  0  0  0  0  0  0
  187.0620  175.5580  135.7430 C   0  0  0  0  0  2  0  0  0  0  0  0
  186.2990  174.2540  135.8830 C   0  0  0  0  0  2  0  0  0  0  0  0
  186.1560  173.9290  137.2930 N   0  0  0  0  0  1  0  0  0  0  0  0
  1 17  1  6  0  0  0
  1  2  1  0  0  0  0
  2  5  1  0  0  0  0
  2  4  2  0  0  0  0
  4  3  2  0  0  0  0
  5  6  1  0  0  0  0
  6 14  1  0  0  0  0
  7  5  2  0  0  0  0
  8 11  1  0  0  0  0
  9 10  1  0  0  0  0
  9 14  2  0  0  0  0
 10 13  1  0  0  0  0
 12  9  1  0  0  0  0
 13 16  1  0  0  0  0
 13 11  2  0  0  0  0
 14  8  1  0  0  0  0
 16 15  1  0  0  0  0
 18 17  1  0  0  0  0
 18 19  1  0  0  0  0
 20 24  1  0  0  0  0
 21 20  2  0  0  0  0
 21 23  1  0  0  0  0
 22 19  1  6  0  0  0
 23 22  1  0  0  0  0
 24 22  1  0  0  0  0
 25 26  1  0  0  0  0
 26 20  1  0  0  0  0
 27  1  1  0  0  0  0
 28 27  1  0  0  0  0
 29 30  2  6  0  0  0
 29 28  1  0  0  0  0
 29 31  1  0  0  0  0
 32 29  1  0  0  0  0
 33 34  1  6  0  0  0
 33 32  1  0  0  0  0
 34 35  2  0  0  0  0
 36 39  1  6  0  0  0
 36 33  1  0  0  0  0
 38 36  1  0  0  0  0
 38 37  1  0  0  0  0
 39 40  1  0  0  0  0
 40 41  1  0  0  0  0
M  END
>  <MODEL>
3

>  <REMARK>
 VINA RESULT:      -6.5      3.176      7.298
  Name = 
  19 active torsions:
  status: ('A' for Active; 'I' for Inactive)
    1  A    between atoms: C_1  and  C_16
    2  A    between atoms: C_1  and  C_20
    3  A    between atoms: O_2  and  C_8
    4  A    between atoms: O_2  and  P_10
    5  A    between atoms: C_5  and  C_29
    6  A    between atoms: C_7  and  C_23
    7  A    between atoms: C_7  and  C_26
    8  A    between atoms: C_8  and  C_20
    9  A    between atoms: C_9  and  C_21
   10  A    between atoms: C_9  and  C_36
   11  A    between atoms: C_9  and  C_37
   12  A    between atoms: P_10  and  O_31
   13  A    between atoms: C_12  and  C_20
   14  A    between atoms: C_12  and  C_26
   15  A    between atoms: C_13  and  C_21
   16  A    between atoms: O_31  and  C_36
   17  A    between atoms: C_32  and  C_36
   18  A    between atoms: N_34  and  C_40
   19  A    between atoms: C_35  and  N_41
                            x       y       z     vdW  Elec       q    Type
                         _______ _______ _______ _____ _____    ______ ____

>  <TORSDO>
F 19

$$$$
=
 OpenBabel10232410143D

 41 42  0  0  1  0  0  0  0  0999 V2000
  187.9540  177.7420  139.8610 C   0  0  2  0  0  3  0  0  0  0  0  0
  188.9600  177.8870  138.7500 C   0  0  0  0  0  0  0  0  0  0  0  0
  188.9660  179.9670  137.2770 O   0  0  0  0  0  0  0  0  0  0  0  0
  188.9640  178.9570  137.9920 C   0  0  0  0  0  0  0  0  0  0  0  0
  189.9700  176.8310  138.5470 C   0  0  0  0  0  0  0  0  0  0  0  0
  191.1170  177.0780  137.7220 N   0  0  0  0  0  2  0  0  0  0  0  0
  189.8490  175.7300  139.1510 O   0  0  0  0  0  0  0  0  0  0  0  0
  191.6550  175.3010  136.1430 C   0  0  0  0  0  3  0  0  0  0  0  0
  193.2480  175.8050  137.8810 C   0  0  0  0  0  0  0  0  0  0  0  0
  194.0830  174.8050  137.3790 C   0  0  0  0  0  3  0  0  0  0  0  0
  192.4860  174.3340  135.6710 N   0  0  0  0  0  0  0  0  0  0  0  0
  193.6110  176.4560  139.0130 F   0  0  0  0  0  0  0  0  0  0  0  0
  193.6870  174.0740  136.2500 C   0  0  0  0  0  0  0  0  0  0  0  0
  192.0230  176.0740  137.2460 C   0  0  0  0  0  0  0  0  0  0  0  0
  195.7530  173.3230  134.9890 C   0  0  0  0  0  1  0  0  0  0  0  0
  194.5190  173.0450  135.7070 N   0  0  0  0  0  2  0  0  0  0  0  0
  186.5840  178.3160  139.5080 C   0  0  0  0  0  2  0  0  0  0  0  0
  185.9010  178.9210  140.7290 C   0  0  0  0  0  2  0  0  0  0  0  0
  184.3810  178.7680  140.6620 C   0  0  0  0  0  2  0  0  0  0  0  0
  184.1110  178.7320  144.0430 C   0  0  0  0  0  0  0  0  0  0  0  0
  182.9370  179.2000  143.7990 N   0  0  0  0  0  0  0  0  0  0  0  0
  183.7700  178.0820  141.8880 C   0  0  2  0  0  3  0  0  0  0  0  0
  182.5630  178.8560  142.4330 C   0  0  0  0  0  2  0  0  0  0  0  0
  184.6790  178.0640  142.9770 O   0  0  0  0  0  0  0  0  0  0  0  0
  186.0160  178.0170  145.4200 C   0  0  0  0  0  1  0  0  0  0  0  0
  184.8050  178.9280  145.3470 C   0  0  0  0  0  2  0  0  0  0  0  0
  188.4700  178.2820  141.1920 C   0  0  0  0  0  2  0  0  0  0  0  0
  189.6600  177.6480  141.5670 O   0  0  0  0  0  0  0  0  0  0  0  0
  189.2510  176.6640  142.8870 P   0  0  1  0  0  0  0  0  0  0  0  0
  187.6160  176.2270  142.8050 O   0  0  0  0  0  0  0  0  0  0  0  0
  190.1080  175.4160  142.8630 O   0  0  0  0  0  1  0  0  0  0  0  0
  189.5430  177.5350  144.3190 O   0  0  0  0  0  0  0  0  0  0  0  0
  190.7980  177.1130  144.7800 C   0  0  1  0  0  3  0  0  0  0  0  0
  191.7680  178.2560  144.7260 C   0  0  0  0  0  3  0  0  0  0  0  0
  191.5010  179.3420  144.0040 C   0  0  0  0  0  2  0  0  0  0  0  0
  190.6940  176.5260  146.1960 C   0  0  1  0  0  3  0  0  0  0  0  0
  191.8790  175.3090  147.8900 O   0  0  0  0  0  1  0  0  0  0  0  0
  192.0520  176.1050  146.7560 C   0  0  0  0  0  2  0  0  0  0  0  0
  190.0390  177.5370  147.1230 C   0  0  0  0  0  2  0  0  0  0  0  0
  188.7850  176.9550  147.7470 C   0  0  0  0  0  2  0  0  0  0  0  0
  188.0490  178.0120  148.4220 N   0  0  0  0  0  1  0  0  0  0  0  0
  1 17  1  6  0  0  0
  1 27  1  0  0  0  0
  2  1  1  0  0  0  0
  3  4  2  0  0  0  0
  4  2  2  0  0  0  0
  5  2  1  0  0  0  0
  5  7  2  0  0  0  0
  6  5  1  0  0  0  0
  8 14  2  0  0  0  0
  9 12  1  0  0  0  0
 10  9  2  0  0  0  0
 11  8  1  0  0  0  0
 11 13  2  0  0  0  0
 13 10  1  0  0  0  0
 14  6  1  0  0  0  0
 14  9  1  0  0  0  0
 15 16  1  0  0  0  0
 16 13  1  0  0  0  0
 17 18  1  0  0  0  0
 19 18  1  0  0  0  0
 20 26  1  0  0  0  0
 21 20  2  0  0  0  0
 22 19  1  6  0  0  0
 22 23  1  0  0  0  0
 22 24  1  0  0  0  0
 23 21  1  0  0  0  0
 24 20  1  0  0  0  0
 26 25  1  0  0  0  0
 27 28  1  0  0  0  0
 28 29  1  0  0  0  0
 29 30  2  6  0  0  0
 29 32  1  0  0  0  0
 31 29  1  0  0  0  0
 32 33  1  0  0  0  0
 33 34  1  1  0  0  0
 33 36  1  0  0  0  0
 35 34  2  0  0  0  0
 36 38  1  1  0  0  0
 36 39  1  0  0  0  0
 38 37  1  0  0  0  0
 39 40  1  0  0  0  0
 40 41  1  0  0  0  0
M  END
>  <MODEL>
4

>  <REMARK>
 VINA RESULT:      -6.5      2.050      3.294
  Name = 
  19 active torsions:
  status: ('A' for Active; 'I' for Inactive)
    1  A    between atoms: C_1  and  C_16
    2  A    between atoms: C_1  and  C_20
    3  A    between atoms: O_2  and  C_8
    4  A    between atoms: O_2  and  P_10
    5  A    between atoms: C_5  and  C_29
    6  A    between atoms: C_7  and  C_23
    7  A    between atoms: C_7  and  C_26
    8  A    between atoms: C_8  and  C_20
    9  A    between atoms: C_9  and  C_21
   10  A    between atoms: C_9  and  C_36
   11  A    between atoms: C_9  and  C_37
   12  A    between atoms: P_10  and  O_31
   13  A    between atoms: C_12  and  C_20
   14  A    between atoms: C_12  and  C_26
   15  A    between atoms: C_13  and  C_21
   16  A    between atoms: O_31  and  C_36
   17  A    between atoms: C_32  and  C_36
   18  A    between atoms: N_34  and  C_40
   19  A    between atoms: C_35  and  N_41
                            x       y       z     vdW  Elec       q    Type
                         _______ _______ _______ _____ _____    ______ ____

>  <TORSDO>
F 19

$$$$
=
 OpenBabel10232410143D

 41 42  0  0  1  0  0  0  0  0999 V2000
  185.3520  178.8240  142.0470 C   0  0  2  0  0  3  0  0  0  0  0  0
  185.3200  178.4220  143.4980 C   0  0  0  0  0  0  0  0  0  0  0  0
  183.2660  178.9050  144.9260 O   0  0  0  0  0  0  0  0  0  0  0  0
  184.2630  178.6700  144.2330 C   0  0  0  0  0  0  0  0  0  0  0  0
  186.4760  177.7100  144.0760 C   0  0  0  0  0  0  0  0  0  0  0  0
  187.1960  178.2770  145.1790 N   0  0  0  0  0  2  0  0  0  0  0  0
  186.7910  176.5720  143.6320 O   0  0  0  0  0  0  0  0  0  0  0  0
  189.5720  177.8850  144.8080 C   0  0  0  0  0  3  0  0  0  0  0  0
  188.6320  177.2620  146.9380 C   0  0  0  0  0  0  0  0  0  0  0  0
  189.8920  176.8210  147.3440 C   0  0  0  0  0  3  0  0  0  0  0  0
  190.7910  177.4510  145.2260 N   0  0  0  0  0  0  0  0  0  0  0  0
  187.5750  177.0840  147.7690 F   0  0  0  0  0  0  0  0  0  0  0  0
  190.9800  176.9330  146.4680 C   0  0  0  0  0  0  0  0  0  0  0  0
  188.4670  177.8200  145.6580 C   0  0  0  0  0  0  0  0  0  0  0  0
  192.5180  175.5520  147.9350 C   0  0  0  0  0  1  0  0  0  0  0  0
  192.2870  176.4950  146.8520 N   0  0  0  0  0  2  0  0  0  0  0  0
  184.3880  178.0180  141.1800 C   0  0  0  0  0  2  0  0  0  0  0  0
  183.2170  178.8720  140.7060 C   0  0  0  0  0  2  0  0  0  0  0  0
  181.8810  178.1520  140.8870 C   0  0  0  0  0  2  0  0  0  0  0  0
  182.6640  176.6190  137.9650 C   0  0  0  0  0  0  0  0  0  0  0  0
  182.2860  175.5630  138.5950 N   0  0  0  0  0  0  0  0  0  0  0  0
  181.3550  177.4860  139.6120 C   0  0  2  0  0  3  0  0  0  0  0  0
  181.4170  175.9560  139.6990 C   0  0  0  0  0  2  0  0  0  0  0  0
  182.1690  177.7940  138.4930 O   0  0  0  0  0  0  0  0  0  0  0  0
  184.8260  177.3930  137.0890 C   0  0  0  0  0  1  0  0  0  0  0  0
  183.5830  176.5740  136.7920 C   0  0  0  0  0  2  0  0  0  0  0  0
  186.7660  178.8250  141.4720 C   0  0  0  0  0  2  0  0  0  0  0  0
  186.7490  178.6210  140.0870 O   0  0  0  0  0  0  0  0  0  0  0  0
  188.3270  178.1540  139.6780 P   0  0  1  0  0  0  0  0  0  0  0  0
  188.9840  179.2410  138.5550 O   0  0  0  0  0  0  0  0  0  0  0  0
  189.1830  178.1400  140.9260 O   0  0  0  0  0  1  0  0  0  0  0  0
  188.2690  176.5940  139.0020 O   0  0  0  0  0  0  0  0  0  0  0  0
  188.9550  176.6740  137.7830 C   0  0  1  0  0  3  0  0  0  0  0  0
  190.1600  175.7820  137.8190 C   0  0  0  0  0  3  0  0  0  0  0  0
  191.2480  176.1380  138.4990 C   0  0  0  0  0  2  0  0  0  0  0  0
  188.0290  176.3240  136.6070 C   0  0  1  0  0  3  0  0  0  0  0  0
  189.4330  177.9270  135.5050 O   0  0  0  0  0  1  0  0  0  0  0  0
  188.2010  177.2740  135.4240 C   0  0  0  0  0  2  0  0  0  0  0  0
  188.2810  174.8910  136.1660 C   0  0  0  0  0  2  0  0  0  0  0  0
  187.1750  173.9780  136.6600 C   0  0  0  0  0  2  0  0  0  0  0  0
  186.0370  174.0690  135.7590 N   0  0  0  0  0  1  0  0  0  0  0  0
  1 17  1  6  0  0  0
  1  2  1  0  0  0  0
  2  5  1  0  0  0  0
  2  4  2  0  0  0  0
  4  3  2  0  0  0  0
  5  6  1  0  0  0  0
  6 14  1  0  0  0  0
  7  5  2  0  0  0  0
  8 11  1  0  0  0  0
  8 14  2  0  0  0  0
  9 10  2  0  0  0  0
  9 12  1  0  0  0  0
 11 13  2  0  0  0  0
 13 16  1  0  0  0  0
 13 10  1  0  0  0  0
 14  9  1  0  0  0  0
 16 15  1  0  0  0  0
 18 19  1  0  0  0  0
 18 17  1  0  0  0  0
 20 24  1  0  0  0  0
 20 21  2  0  0  0  0
 21 23  1  0  0  0  0
 22 23  1  0  0  0  0
 22 19  1  1  0  0  0
 24 22  1  0  0  0  0
 26 25  1  0  0  0  0
 26 20  1  0  0  0  0
 27  1  1  0  0  0  0
 28 27  1  0  0  0  0
 29 30  2  6  0  0  0
 29 28  1  0  0  0  0
 29 31  1  0  0  0  0
 32 29  1  0  0  0  0
 33 34  1  1  0  0  0
 33 32  1  0  0  0  0
 34 35  2  0  0  0  0
 36 38  1  6  0  0  0
 36 33  1  0  0  0  0
 38 37  1  0  0  0  0
 39 36  1  0  0  0  0
 39 40  1  0  0  0  0
 41 40  1  0  0  0  0
M  END
>  <MODEL>
5

>  <REMARK>
 VINA RESULT:      -6.4      3.476      7.484
  Name = 
  19 active torsions:
  status: ('A' for Active; 'I' for Inactive)
    1  A    between atoms: C_1  and  C_16
    2  A    between atoms: C_1  and  C_20
    3  A    between atoms: O_2  and  C_8
    4  A    between atoms: O_2  and  P_10
    5  A    between atoms: C_5  and  C_29
    6  A    between atoms: C_7  and  C_23
    7  A    between atoms: C_7  and  C_26
    8  A    between atoms: C_8  and  C_20
    9  A    between atoms: C_9  and  C_21
   10  A    between atoms: C_9  and  C_36
   11  A    between atoms: C_9  and  C_37
   12  A    between atoms: P_10  and  O_31
   13  A    between atoms: C_12  and  C_20
   14  A    between atoms: C_12  and  C_26
   15  A    between atoms: C_13  and  C_21
   16  A    between atoms: O_31  and  C_36
   17  A    between atoms: C_32  and  C_36
   18  A    between atoms: N_34  and  C_40
   19  A    between atoms: C_35  and  N_41
                            x       y       z     vdW  Elec       q    Type
                         _______ _______ _______ _____ _____    ______ ____

>  <TORSDO>
F 19

$$$$
=
 OpenBabel10232410143D

 41 42  0  0  1  0  0  0  0  0999 V2000
  189.9220  177.2970  138.0490 C   0  0  2  0  0  3  0  0  0  0  0  0
  188.7520  177.4490  137.1110 C   0  0  0  0  0  0  0  0  0  0  0  0
  189.1340  177.9520  134.6430 O   0  0  0  0  0  0  0  0  0  0  0  0
  188.9480  177.7070  135.8410 C   0  0  0  0  0  0  0  0  0  0  0  0
  187.3830  177.2640  137.6290 C   0  0  0  0  0  0  0  0  0  0  0  0
  186.5990  178.4000  138.0180 N   0  0  0  0  0  2  0  0  0  0  0  0
  186.8860  176.1060  137.6720 O   0  0  0  0  0  0  0  0  0  0  0  0
  184.1850  178.0770  138.0800 C   0  0  0  0  0  3  0  0  0  0  0  0
  185.3200  178.5950  140.1420 C   0  0  0  0  0  0  0  0  0  0  0  0
  184.0950  178.5390  140.8090 C   0  0  0  0  0  3  0  0  0  0  0  0
  183.0030  178.0250  138.7510 N   0  0  0  0  0  0  0  0  0  0  0  0
  186.4280  178.9550  140.8360 F   0  0  0  0  0  0  0  0  0  0  0  0
  182.9290  178.2380  140.0910 C   0  0  0  0  0  0  0  0  0  0  0  0
  185.3740  178.3430  138.7610 C   0  0  0  0  0  0  0  0  0  0  0  0
  181.1850  179.1880  141.6650 C   0  0  0  0  0  1  0  0  0  0  0  0
  181.6570  178.1680  140.7420 N   0  0  0  0  0  2  0  0  0  0  0  0
  190.4080  175.8560  138.1740 C   0  0  0  0  0  2  0  0  0  0  0  0
  191.2860  175.4580  136.9930 C   0  0  0  0  0  2  0  0  0  0  0  0
  192.7160  175.9750  137.1520 C   0  0  0  0  0  2  0  0  0  0  0  0
  195.6510  176.2330  135.4720 C   0  0  0  0  0  0  0  0  0  0  0  0
  196.0840  175.4820  136.4230 N   0  0  0  0  0  0  0  0  0  0  0  0
  193.7340  175.2800  136.2430 C   0  0  2  0  0  3  0  0  0  0  0  0
  194.9550  174.7840  137.0260 C   0  0  0  0  0  2  0  0  0  0  0  0
  194.2830  176.1810  135.2960 O   0  0  0  0  0  0  0  0  0  0  0  0
  196.1390  178.5570  134.8390 C   0  0  0  0  0  1  0  0  0  0  0  0
  196.5460  177.1060  134.6600 C   0  0  0  0  0  2  0  0  0  0  0  0
  189.6610  177.9290  139.4140 C   0  0  0  0  0  2  0  0  0  0  0  0
  189.1690  176.9840  140.3220 O   0  0  0  0  0  0  0  0  0  0  0  0
  190.2110  177.0520  141.6580 P   0  0  1  0  0  0  0  0  0  0  0  0
  190.3110  175.5310  142.3980 O   0  0  0  0  0  1  0  0  0  0  0  0
  191.5880  177.4790  141.1960 O   0  0  0  0  0  0  0  0  0  0  0  0
  189.5960  178.1900  142.7630 O   0  0  0  0  0  0  0  0  0  0  0  0
  189.8390  177.6620  144.0380 C   0  0  1  0  0  3  0  0  0  0  0  0
  191.0940  178.2600  144.6030 C   0  0  0  0  0  3  0  0  0  0  0  0
  191.5270  179.4490  144.1880 C   0  0  0  0  0  2  0  0  0  0  0  0
  188.6370  177.8910  144.9670 C   0  0  1  0  0  3  0  0  0  0  0  0
  186.4740  178.0400  143.9380 O   0  0  0  0  0  1  0  0  0  0  0  0
  187.3880  177.1450  144.5010 C   0  0  0  0  0  2  0  0  0  0  0  0
  188.9950  177.4720  146.3830 C   0  0  0  0  0  2  0  0  0  0  0  0
  187.7600  177.4490  147.2620 C   0  0  0  0  0  2  0  0  0  0  0  0
  187.9410  178.3720  148.3720 N   0  0  0  0  0  1  0  0  0  0  0  0
  1 17  1  1  0  0  0
  1 27  1  0  0  0  0
  2  5  1  0  0  0  0
  2  1  1  0  0  0  0
  3  4  2  0  0  0  0
  4  2  2  0  0  0  0
  5  7  2  0  0  0  0
  5  6  1  0  0  0  0
  6 14  1  0  0  0  0
  8 11  1  0  0  0  0
  8 14  2  0  0  0  0
  9 10  2  0  0  0  0
  9 12  1  0  0  0  0
 11 13  2  0  0  0  0
 13 16  1  0  0  0  0
 13 10  1  0  0  0  0
 14  9  1  0  0  0  0
 16 15  1  0  0  0  0
 18 19  1  0  0  0  0
 18 17  1  0  0  0  0
 20 21  2  0  0  0  0
 21 23  1  0  0  0  0
 22 23  1  0  0  0  0
 22 19  1  1  0  0  0
 24 20  1  0  0  0  0
 24 22  1  0  0  0  0
 26 25  1  0  0  0  0
 26 20  1  0  0  0  0
 27 28  1  0  0  0  0
 28 29  1  0  0  0  0
 29 31  2  6  0  0  0
 29 30  1  0  0  0  0
 29 32  1  0  0  0  0
 32 33  1  0  0  0  0
 33 34  1  1  0  0  0
 33 36  1  0  0  0  0
 35 34  2  0  0  0  0
 36 38  1  6  0  0  0
 36 39  1  0  0  0  0
 37 38  1  0  0  0  0
 39 40  1  0  0  0  0
 40 41  1  0  0  0  0
M  END
>  <MODEL>
6

>  <REMARK>
 VINA RESULT:      -6.4      2.674      8.443
  Name = 
  19 active torsions:
  status: ('A' for Active; 'I' for Inactive)
    1  A    between atoms: C_1  and  C_16
    2  A    between atoms: C_1  and  C_20
    3  A    between atoms: O_2  and  C_8
    4  A    between atoms: O_2  and  P_10
    5  A    between atoms: C_5  and  C_29
    6  A    between atoms: C_7  and  C_23
    7  A    between atoms: C_7  and  C_26
    8  A    between atoms: C_8  and  C_20
    9  A    between atoms: C_9  and  C_21
   10  A    between atoms: C_9  and  C_36
   11  A    between atoms: C_9  and  C_37
   12  A    between atoms: P_10  and  O_31
   13  A    between atoms: C_12  and  C_20
   14  A    between atoms: C_12  and  C_26
   15  A    between atoms: C_13  and  C_21
   16  A    between atoms: O_31  and  C_36
   17  A    between atoms: C_32  and  C_36
   18  A    between atoms: N_34  and  C_40
   19  A    between atoms: C_35  and  N_41
                            x       y       z     vdW  Elec       q    Type
                         _______ _______ _______ _____ _____    ______ ____

>  <TORSDO>
F 19

$$$$
=
 OpenBabel10232410143D

 41 42  0  0  1  0  0  0  0  0999 V2000
  190.4580  177.0690  139.7890 C   0  0  2  0  0  3  0  0  0  0  0  0
  189.2350  177.9240  139.5850 C   0  0  0  0  0  0  0  0  0  0  0  0
  189.1210  179.5720  137.6450 O   0  0  0  0  0  0  0  0  0  0  0  0
  189.1760  178.7720  138.5860 C   0  0  0  0  0  0  0  0  0  0  0  0
  188.0860  177.7710  140.4980 C   0  0  0  0  0  0  0  0  0  0  0  0
  186.8930  178.5400  140.2910 N   0  0  0  0  0  2  0  0  0  0  0  0
  188.1380  176.9180  141.4250 O   0  0  0  0  0  0  0  0  0  0  0  0
  186.1270  178.9540  142.5670 C   0  0  0  0  0  3  0  0  0  0  0  0
  184.4770  178.4750  140.8770 C   0  0  0  0  0  0  0  0  0  0  0  0
  183.4780  178.6030  141.8430 C   0  0  0  0  0  3  0  0  0  0  0  0
  185.1370  179.0760  143.4910 N   0  0  0  0  0  0  0  0  0  0  0  0
  184.1300  178.1010  139.6200 F   0  0  0  0  0  0  0  0  0  0  0  0
  183.8270  178.9180  143.1640 C   0  0  0  0  0  0  0  0  0  0  0  0
  185.8220  178.6710  141.2350 C   0  0  0  0  0  0  0  0  0  0  0  0
  181.4200  178.7880  143.9460 C   0  0  0  0  0  1  0  0  0  0  0  0
  182.8300  179.0600  144.1790 N   0  0  0  0  0  2  0  0  0  0  0  0
  191.4750  177.6940  140.7410 C   0  0  0  0  0  2  0  0  0  0  0  0
  191.2820  177.1980  142.1690 C   0  0  0  0  0  2  0  0  0  0  0  0
  190.5680  178.2350  143.0360 C   0  0  0  0  0  2  0  0  0  0  0  0
  189.8410  177.3230  146.2220 C   0  0  0  0  0  0  0  0  0  0  0  0
  190.7490  176.4360  146.0110 N   0  0  0  0  0  0  0  0  0  0  0  0
  191.0170  178.2370  144.5010 C   0  0  2  0  0  3  0  0  0  0  0  0
  191.6060  176.8840  144.9200 C   0  0  0  0  0  2  0  0  0  0  0  0
  189.9190  178.4140  145.3800 O   0  0  0  0  0  0  0  0  0  0  0  0
  188.9420  178.2400  148.3170 C   0  0  0  0  0  1  0  0  0  0  0  0
  188.7820  177.1660  147.2580 C   0  0  0  0  0  2  0  0  0  0  0  0
  191.1010  176.6450  138.4710 C   0  0  0  0  0  2  0  0  0  0  0  0
  191.7570  175.4150  138.6010 O   0  0  0  0  0  0  0  0  0  0  0  0
  192.7690  175.2960  137.2460 P   0  0  1  0  0  0  0  0  0  0  0  0
  191.8420  175.0860  135.8430 O   0  0  0  0  0  0  0  0  0  0  0  0
  193.5910  176.5610  137.1230 O   0  0  0  0  0  1  0  0  0  0  0  0
  193.7990  173.9590  137.4600 O   0  0  0  0  0  0  0  0  0  0  0  0
  195.0930  174.4840  137.5890 C   0  0  1  0  0  3  0  0  0  0  0  0
  195.7270  173.9660  138.8450 C   0  0  0  0  0  3  0  0  0  0  0  0
  196.2240  174.8040  139.7520 C   0  0  0  0  0  2  0  0  0  0  0  0
  195.9440  174.1590  136.3510 C   0  0  1  0  0  3  0  0  0  0  0  0
  197.6880  175.7820  136.6340 O   0  0  0  0  0  1  0  0  0  0  0  0
  196.6490  175.3910  135.7870 C   0  0  0  0  0  2  0  0  0  0  0  0
  196.9640  173.0880  136.6970 C   0  0  0  0  0  2  0  0  0  0  0  0
  196.8510  171.9140  135.7430 C   0  0  0  0  0  2  0  0  0  0  0  0
  195.5850  171.2340  135.9650 N   0  0  0  0  0  1  0  0  0  0  0  0
  1 27  1  6  0  0  0
  1 17  1  0  0  0  0
  2  1  1  0  0  0  0
  2  5  1  0  0  0  0
  3  4  2  0  0  0  0
  4  2  2  0  0  0  0
  5  7  2  0  0  0  0
  6  5  1  0  0  0  0
  6 14  1  0  0  0  0
  8 11  1  0  0  0  0
  9 14  1  0  0  0  0
  9 10  2  0  0  0  0
 10 13  1  0  0  0  0
 12  9  1  0  0  0  0
 13 11  2  0  0  0  0
 13 16  1  0  0  0  0
 14  8  2  0  0  0  0
 15 16  1  0  0  0  0
 17 18  1  0  0  0  0
 18 19  1  0  0  0  0
 20 26  1  0  0  0  0
 21 20  2  0  0  0  0
 22 19  1  6  0  0  0
 22 23  1  0  0  0  0
 22 24  1  0  0  0  0
 23 21  1  0  0  0  0
 24 20  1  0  0  0  0
 26 25  1  0  0  0  0
 27 28  1  0  0  0  0
 29 30  2  6  0  0  0
 29 32  1  0  0  0  0
 29 28  1  0  0  0  0
 31 29  1  0  0  0  0
 32 33  1  0  0  0  0
 33 34  1  1  0  0  0
 34 35  2  0  0  0  0
 36 38  1  1  0  0  0
 36 39  1  0  0  0  0
 36 33  1  0  0  0  0
 38 37  1  0  0  0  0
 40 41  1  0  0  0  0
 40 39  1  0  0  0  0
M  END
>  <MODEL>
7

>  <REMARK>
 VINA RESULT:      -6.2      3.442      9.533
  Name = 
  19 active torsions:
  status: ('A' for Active; 'I' for Inactive)
    1  A    between atoms: C_1  and  C_16
    2  A    between atoms: C_1  and  C_20
    3  A    between atoms: O_2  and  C_8
    4  A    between atoms: O_2  and  P_10
    5  A    between atoms: C_5  and  C_29
    6  A    between atoms: C_7  and  C_23
    7  A    between atoms: C_7  and  C_26
    8  A    between atoms: C_8  and  C_20
    9  A    between atoms: C_9  and  C_21
   10  A    between atoms: C_9  and  C_36
   11  A    between atoms: C_9  and  C_37
   12  A    between atoms: P_10  and  O_31
   13  A    between atoms: C_12  and  C_20
   14  A    between atoms: C_12  and  C_26
   15  A    between atoms: C_13  and  C_21
   16  A    between atoms: O_31  and  C_36
   17  A    between atoms: C_32  and  C_36
   18  A    between atoms: N_34  and  C_40
   19  A    between atoms: C_35  and  N_41
                            x       y       z     vdW  Elec       q    Type
                         _______ _______ _______ _____ _____    ______ ____

>  <TORSDO>
F 19

$$$$
=
 OpenBabel10232410143D

 41 42  0  0  1  0  0  0  0  0999 V2000
  187.9370  177.8770  137.4560 C   0  0  2  0  0  3  0  0  0  0  0  0
  188.2120  176.4240  137.1670 C   0  0  0  0  0  0  0  0  0  0  0  0
  186.3290  174.7100  137.2620 O   0  0  0  0  0  0  0  0  0  0  0  0
  187.2430  175.5420  137.2150 C   0  0  0  0  0  0  0  0  0  0  0  0
  189.5760  176.0090  136.7880 C   0  0  0  0  0  0  0  0  0  0  0  0
  190.3600  175.2050  137.6810 N   0  0  0  0  0  2  0  0  0  0  0  0
  190.0270  176.3160  135.6510 O   0  0  0  0  0  0  0  0  0  0  0  0
  192.1810  173.7920  136.8910 C   0  0  0  0  0  3  0  0  0  0  0  0
  192.7380  175.8040  138.0970 C   0  0  0  0  0  0  0  0  0  0  0  0
  194.0910  175.4970  137.9460 C   0  0  0  0  0  3  0  0  0  0  0  0
  193.5060  173.5150  136.7550 N   0  0  0  0  0  0  0  0  0  0  0  0
  192.3890  176.8910  138.8280 F   0  0  0  0  0  0  0  0  0  0  0  0
  194.4660  174.3370  137.2530 C   0  0  0  0  0  0  0  0  0  0  0  0
  191.7650  174.9520  137.5470 C   0  0  0  0  0  0  0  0  0  0  0  0
  196.7340  173.7030  138.1880 C   0  0  0  0  0  1  0  0  0  0  0  0
  195.8430  173.9940  137.0760 N   0  0  0  0  0  2  0  0  0  0  0  0
  188.7790  178.4290  138.6040 C   0  0  0  0  0  2  0  0  0  0  0  0
  188.7970  177.4760  139.7930 C   0  0  0  0  0  2  0  0  0  0  0  0
  189.6200  178.0340  140.9540 C   0  0  0  0  0  2  0  0  0  0  0  0
  190.9060  177.1220  143.9570 C   0  0  0  0  0  0  0  0  0  0  0  0
  189.8950  176.3270  143.9750 N   0  0  0  0  0  0  0  0  0  0  0  0
  190.3770  176.9660  141.7490 C   0  0  2  0  0  3  0  0  0  0  0  0
  189.4330  176.1160  142.6080 C   0  0  0  0  0  2  0  0  0  0  0  0
  191.2590  177.5510  142.6940 O   0  0  0  0  0  0  0  0  0  0  0  0
  191.3590  176.5660  146.3080 C   0  0  0  0  0  1  0  0  0  0  0  0
  191.6070  177.5670  145.1950 C   0  0  0  0  0  2  0  0  0  0  0  0
  186.4510  178.1620  137.6540 C   0  0  0  0  0  2  0  0  0  0  0  0
  186.1620  178.4230  138.9980 O   0  0  0  0  0  0  0  0  0  0  0  0
  184.4810  178.6370  139.0670 P   0  0  1  0  0  0  0  0  0  0  0  0
  184.1080  180.2820  139.2300 O   0  0  0  0  0  1  0  0  0  0  0  0
  183.8570  178.1030  137.7950 O   0  0  0  0  0  0  0  0  0  0  0  0
  183.8820  177.7760  140.4060 O   0  0  0  0  0  0  0  0  0  0  0  0
  183.6200  178.7330  141.3960 C   0  0  1  0  0  3  0  0  0  0  0  0
  182.1460  178.7880  141.6690 C   0  0  0  0  0  3  0  0  0  0  0  0
  181.2710  178.8650  140.6680 C   0  0  0  0  0  2  0  0  0  0  0  0
  184.4200  178.4370  142.6740 C   0  0  1  0  0  3  0  0  0  0  0  0
  186.5850  177.8500  143.5240 O   0  0  0  0  0  1  0  0  0  0  0  0
  185.9270  178.4140  142.4290 C   0  0  0  0  0  2  0  0  0  0  0  0
  184.0810  179.4640  143.7410 C   0  0  0  0  0  2  0  0  0  0  0  0
  183.4930  178.7890  144.9650 C   0  0  0  0  0  2  0  0  0  0  0  0
  184.4780  178.7890  146.0350 N   0  0  0  0  0  1  0  0  0  0  0  0
  1 27  1  1  0  0  0
  1 17  1  0  0  0  0
  2  4  2  0  0  0  0
  2  1  1  0  0  0  0
  4  3  2  0  0  0  0
  5  2  1  0  0  0  0
  5  6  1  0  0  0  0
  7  5  2  0  0  0  0
  8 14  2  0  0  0  0
  9 12  1  0  0  0  0
 10  9  2  0  0  0  0
 11  8  1  0  0  0  0
 11 13  2  0  0  0  0
 13 10  1  0  0  0  0
 14  6  1  0  0  0  0
 14  9  1  0  0  0  0
 16 13  1  0  0  0  0
 16 15  1  0  0  0  0
 17 18  1  0  0  0  0
 18 19  1  0  0  0  0
 20 21  2  0  0  0  0
 20 26  1  0  0  0  0
 22 19  1  1  0  0  0
 22 23  1  0  0  0  0
 22 24  1  0  0  0  0
 23 21  1  0  0  0  0
 24 20  1  0  0  0  0
 26 25  1  0  0  0  0
 27 28  1  0  0  0  0
 28 29  1  0  0  0  0
 29 31  2  6  0  0  0
 29 30  1  0  0  0  0
 29 32  1  0  0  0  0
 32 33  1  0  0  0  0
 33 34  1  1  0  0  0
 33 36  1  0  0  0  0
 35 34  2  0  0  0  0
 36 38  1  6  0  0  0
 36 39  1  0  0  0  0
 38 37  1  0  0  0  0
 39 40  1  0  0  0  0
 40 41  1  0  0  0  0
M  END
>  <MODEL>
8

>  <REMARK>
 VINA RESULT:      -6.2      2.626      6.532
  Name = 
  19 active torsions:
  status: ('A' for Active; 'I' for Inactive)
    1  A    between atoms: C_1  and  C_16
    2  A    between atoms: C_1  and  C_20
    3  A    between atoms: O_2  and  C_8
    4  A    between atoms: O_2  and  P_10
    5  A    between atoms: C_5  and  C_29
    6  A    between atoms: C_7  and  C_23
    7  A    between atoms: C_7  and  C_26
    8  A    between atoms: C_8  and  C_20
    9  A    between atoms: C_9  and  C_21
   10  A    between atoms: C_9  and  C_36
   11  A    between atoms: C_9  and  C_37
   12  A    between atoms: P_10  and  O_31
   13  A    between atoms: C_12  and  C_20
   14  A    between atoms: C_12  and  C_26
   15  A    between atoms: C_13  and  C_21
   16  A    between atoms: O_31  and  C_36
   17  A    between atoms: C_32  and  C_36
   18  A    between atoms: N_34  and  C_40
   19  A    between atoms: C_35  and  N_41
                            x       y       z     vdW  Elec       q    Type
                         _______ _______ _______ _____ _____    ______ ____

>  <TORSDO>
F 19

$$$$
=
 OpenBabel10232410143D

 41 42  0  0  1  0  0  0  0  0999 V2000
  189.6850  178.0410  139.0380 C   0  0  2  0  0  3  0  0  0  0  0  0
  188.7450  177.9530  140.2120 C   0  0  0  0  0  0  0  0  0  0  0  0
  186.3480  178.7930  140.0130 O   0  0  0  0  0  0  0  0  0  0  0  0
  187.5110  178.3850  140.1100 C   0  0  0  0  0  0  0  0  0  0  0  0
  189.2150  177.3380  141.4680 C   0  0  0  0  0  0  0  0  0  0  0  0
  189.0240  178.0150  142.7180 N   0  0  0  0  0  2  0  0  0  0  0  0
  189.7320  176.1880  141.4430 O   0  0  0  0  0  0  0  0  0  0  0  0
  188.8420  177.2840  145.0350 C   0  0  0  0  0  3  0  0  0  0  0  0
  191.0410  177.7060  144.1420 C   0  0  0  0  0  0  0  0  0  0  0  0
  191.5890  177.3550  145.3760 C   0  0  0  0  0  3  0  0  0  0  0  0
  189.4000  176.9440  146.2280 N   0  0  0  0  0  0  0  0  0  0  0  0
  191.8640  178.1530  143.1610 F   0  0  0  0  0  0  0  0  0  0  0  0
  190.7440  176.9600  146.4220 C   0  0  0  0  0  0  0  0  0  0  0  0
  189.6480  177.6540  143.9570 C   0  0  0  0  0  0  0  0  0  0  0  0
  192.4540  175.7570  147.8550 C   0  0  0  0  0  1  0  0  0  0  0  0
  191.2720  176.5910  147.6990 N   0  0  0  0  0  2  0  0  0  0  0  0
  189.1110  178.8390  137.8700 C   0  0  0  0  0  2  0  0  0  0  0  0
  188.8280  177.9460  136.6680 C   0  0  0  0  0  2  0  0  0  0  0  0
  187.4070  177.3840  136.7030 C   0  0  0  0  0  2  0  0  0  0  0  0
  185.7310  174.4350  136.7320 C   0  0  0  0  0  0  0  0  0  0  0  0
  185.2360  174.8820  135.6320 N   0  0  0  0  0  0  0  0  0  0  0  0
  187.2780  175.9800  136.1020 C   0  0  2  0  0  3  0  0  0  0  0  0
  186.1320  175.8960  135.0870 C   0  0  0  0  0  2  0  0  0  0  0  0
  186.9270  175.0250  137.0890 O   0  0  0  0  0  0  0  0  0  0  0  0
  184.6700  172.2190  136.6900 C   0  0  0  0  0  1  0  0  0  0  0  0
  185.0520  173.4000  137.5620 C   0  0  0  0  0  2  0  0  0  0  0  0
  190.1940  176.6720  138.5940 C   0  0  0  0  0  2  0  0  0  0  0  0
  191.5430  176.5030  138.9280 O   0  0  0  0  0  0  0  0  0  0  0  0
  192.2490  175.7380  137.5890 P   0  0  1  0  0  0  0  0  0  0  0  0
  192.1030  174.0560  137.7350 O   0  0  0  0  0  1  0  0  0  0  0  0
  191.5520  176.1970  136.3260 O   0  0  0  0  0  0  0  0  0  0  0  0
  193.8930  176.1690  137.5280 O   0  0  0  0  0  0  0  0  0  0  0  0
  194.5250  175.1820  136.7590 C   0  0  1  0  0  3  0  0  0  0  0  0
  194.7620  175.6970  135.3700 C   0  0  0  0  0  3  0  0  0  0  0  0
  195.2040  176.9370  135.1710 C   0  0  0  0  0  2  0  0  0  0  0  0
  195.8320  174.7220  137.4220 C   0  0  1  0  0  3  0  0  0  0  0  0
  195.2830  172.8640  138.8370 O   0  0  0  0  0  1  0  0  0  0  0  0
  195.6200  174.2190  138.8480 C   0  0  0  0  0  2  0  0  0  0  0  0
  196.4800  173.6360  136.5780 C   0  0  0  0  0  2  0  0  0  0  0  0
  197.9890  173.7920  136.5730 C   0  0  0  0  0  2  0  0  0  0  0  0
  198.3260  175.1930  136.3750 N   0  0  0  0  0  1  0  0  0  0  0  0
  1 17  1  6  0  0  0
  1  2  1  0  0  0  0
  2  5  1  0  0  0  0
  3  4  2  0  0  0  0
  4  2  2  0  0  0  0
  5  6  1  0  0  0  0
  6 14  1  0  0  0  0
  7  5  2  0  0  0  0
  8 11  1  0  0  0  0
  9 10  2  0  0  0  0
 10 13  1  0  0  0  0
 11 13  2  0  0  0  0
 12  9  1  0  0  0  0
 13 16  1  0  0  0  0
 14  9  1  0  0  0  0
 14  8  2  0  0  0  0
 16 15  1  0  0  0  0
 18 19  1  0  0  0  0
 18 17  1  0  0  0  0
 20 24  1  0  0  0  0
 20 26  1  0  0  0  0
 21 20  2  0  0  0  0
 22 19  1  1  0  0  0
 22 24  1  0  0  0  0
 23 21  1  0  0  0  0
 23 22  1  0  0  0  0
 25 26  1  0  0  0  0
 27 28  1  0  0  0  0
 27  1  1  0  0  0  0
 29 31  2  6  0  0  0
 29 30  1  0  0  0  0
 29 28  1  0  0  0  0
 32 29  1  0  0  0  0
 33 34  1  6  0  0  0
 33 36  1  0  0  0  0
 33 32  1  0  0  0  0
 35 34  2  0  0  0  0
 36 39  1  6  0  0  0
 36 38  1  0  0  0  0
 37 38  1  0  0  0  0
 40 39  1  0  0  0  0
 41 40  1  0  0  0  0
M  END
>  <MODEL>
9

>  <REMARK>
 VINA RESULT:      -6.2      3.919      8.690
  Name = 
  19 active torsions:
  status: ('A' for Active; 'I' for Inactive)
    1  A    between atoms: C_1  and  C_16
    2  A    between atoms: C_1  and  C_20
    3  A    between atoms: O_2  and  C_8
    4  A    between atoms: O_2  and  P_10
    5  A    between atoms: C_5  and  C_29
    6  A    between atoms: C_7  and  C_23
    7  A    between atoms: C_7  and  C_26
    8  A    between atoms: C_8  and  C_20
    9  A    between atoms: C_9  and  C_21
   10  A    between atoms: C_9  and  C_36
   11  A    between atoms: C_9  and  C_37
   12  A    between atoms: P_10  and  O_31
   13  A    between atoms: C_12  and  C_20
   14  A    between atoms: C_12  and  C_26
   15  A    between atoms: C_13  and  C_21
   16  A    between atoms: O_31  and  C_36
   17  A    between atoms: C_32  and  C_36
   18  A    between atoms: N_34  and  C_40
   19  A    between atoms: C_35  and  N_41
                            x       y       z     vdW  Elec       q    Type
                         _______ _______ _______ _____ _____    ______ ____

>  <TORSDO>
F 19

$$$$
