=
 OpenBabel10232409023D

 43 48  0  0  1  0  0  0  0  0999 V2000
  189.9080  176.9480  144.3130 N   0  0  0  0  0  2  0  0  0  0  0  0
  190.7630  176.9180  142.1190 N   0  0  0  0  0  0  0  0  0  0  0  0
  187.9910  178.1880  138.7550 C   0  0  0  0  0  0  0  0  0  0  0  0
  189.5380  177.5710  140.1620 C   0  0  0  0  0  0  0  0  0  0  0  0
  188.3560  177.5620  142.3440 C   0  0  2  0  0  3  0  0  0  0  0  0
  190.3200  177.5030  137.9110 C   0  0  0  0  0  3  0  0  0  0  0  0
  190.7020  177.1000  140.6950 C   0  0  0  0  0  0  0  0  0  0  0  0
  187.4450  178.2160  140.0070 N   0  0  0  0  0  0  0  0  0  0  0  0
  189.3160  177.7740  138.8430 C   0  0  0  0  0  0  0  0  0  0  0  0
  187.4400  176.5530  142.5820 F   0  0  0  0  0  0  0  0  0  0  0  0
  191.5610  177.0300  138.4120 C   0  0  0  0  0  3  0  0  0  0  0  0
  188.4210  177.8290  140.8640 C   0  0  0  0  0  0  0  0  0  0  0  0
  191.7580  176.8270  139.8070 C   0  0  0  0  0  3  0  0  0  0  0  0
  189.7320  177.1450  142.9050 C   0  0  0  0  0  0  0  0  0  0  0  0
  187.7830  177.9750  145.0440 O   0  0  0  0  0  0  0  0  0  0  0  0
  186.8980  178.3270  146.0480 N   0  0  0  0  0  2  0  0  0  0  0  0
  188.9860  177.3170  145.3430 C   0  0  0  0  0  0  0  0  0  0  0  0
  187.2070  178.0260  147.4130 C   0  0  0  0  0  3  0  0  0  0  0  0
  188.3530  177.4090  147.6970 C   0  0  0  0  0  3  0  0  0  0  0  0
  189.2830  177.0390  146.6160 C   0  0  0  0  0  3  0  0  0  0  0  0
  186.0540  178.4940  140.3430 C   0  0  0  0  0  2  0  0  0  0  0  0
  185.9730  179.3220  141.6120 C   0  0  0  0  0  1  0  0  0  0  0  0
  187.2460  178.5110  137.4890 C   0  0  0  0  0  2  0  0  0  0  0  0
  187.1200  177.3400  135.2620 C   0  0  0  0  0  1  0  0  0  0  0  0
  186.7230  177.2780  136.7290 C   0  0  2  0  0  0  0  0  0  0  0  0
  185.1970  177.2420  136.8100 C   0  0  0  0  0  2  0  0  0  0  0  0
  184.7580  176.2870  137.7310 O   0  0  0  0  0  0  0  0  0  0  0  0
  182.3250  176.3880  136.7770 O   0  0  0  0  0  0  0  0  0  0  0  0
  183.1320  176.6680  138.0230 P   0  0  0  0  0  0  0  0  0  0  0  0
  182.5420  175.7180  139.2930 O   0  0  0  0  0  1  0  0  0  0  0  0
  182.9830  178.3060  138.4250 O   0  0  0  0  0  1  0  0  0  0  0  0
  187.2890  175.9810  137.3130 C   0  0  0  0  0  2  0  0  0  0  0  0
  188.2610  175.2730  136.3620 C   0  0  1  0  0  3  0  0  0  0  0  0
  188.6950  173.9670  136.9940 C   0  0  1  0  0  3  0  0  0  0  0  0
  187.7710  173.9350  135.7860 C   0  0  1  0  0  3  0  0  0  0  0  0
  190.1070  173.6520  136.5500 C   0  0  0  0  0  1  0  0  0  0  0  0
  185.2990  173.7940  135.2920 C   0  0  0  0  0  3  0  0  0  0  0  0
  183.7760  172.9220  136.9530 C   0  0  0  0  0  3  0  0  0  0  0  0
  184.0010  173.4680  135.6880 C   0  0  0  0  0  0  0  0  0  0  0  0
  184.8600  172.7120  137.8070 C   0  0  0  0  0  3  0  0  0  0  0  0
  186.1200  173.0330  137.4020 N   0  0  0  0  0  0  0  0  0  0  0  0
  182.9610  173.6880  134.8500 F   0  0  0  0  0  0  0  0  0  0  0  0
  186.3670  173.5510  136.1660 C   0  0  0  0  0  0  0  0  0  0  0  0
  1 17  1  0  0  0  0
  2 14  2  0  0  0  0
  3  9  2  0  0  0  0
  3  8  1  0  0  0  0
  4  7  1  0  0  0  0
  4 12  2  0  0  0  0
  5 10  1  6  0  0  0
  5 14  1  0  0  0  0
  6 11  2  0  0  0  0
  6  9  1  0  0  0  0
  7  2  1  0  0  0  0
  8 21  1  0  0  0  0
  8 12  1  0  0  0  0
  9  4  1  0  0  0  0
 11 13  1  0  0  0  0
 12  5  1  0  0  0  0
 13  7  2  0  0  0  0
 14  1  1  0  0  0  0
 15 17  1  0  0  0  0
 15 16  1  0  0  0  0
 16 18  1  0  0  0  0
 17 20  2  0  0  0  0
 18 19  2  0  0  0  0
 20 19  1  0  0  0  0
 21 22  1  0  0  0  0
 23  3  1  0  0  0  0
 25 24  1  6  0  0  0
 25 26  1  0  0  0  0
 25 32  1  0  0  0  0
 25 23  1  0  0  0  0
 26 27  1  0  0  0  0
 27 29  1  0  0  0  0
 28 29  2  0  0  0  0
 29 31  1  0  0  0  0
 29 30  1  0  0  0  0
 33 34  1  0  0  0  0
 33 32  1  1  0  0  0
 34 36  1  6  0  0  0
 35 43  1  1  0  0  0
 35 33  1  0  0  0  0
 35 34  1  0  0  0  0
 37 39  2  0  0  0  0
 37 43  1  0  0  0  0
 38 40  2  0  0  0  0
 39 38  1  0  0  0  0
 41 40  1  0  0  0  0
 42 39  1  0  0  0  0
 43 41  2  0  0  0  0
M  END
>  <MODEL>
1

>  <REMARK>
 VINA RESULT:      -7.5      0.000      0.000
  Name = 
  10 active torsions:
  status: ('A' for Active; 'I' for Inactive)
    1  A    between atoms: C_1  and  C_21
    2  A    between atoms: N_3  and  C_17
    3  A    between atoms: C_6  and  C_38
    4  A    between atoms: C_9  and  O_20
    5  A    between atoms: C_9  and  C_35
    6  A    between atoms: P_15  and  O_20
    7  A    between atoms: N_16  and  C_26
    8  A    between atoms: C_21  and  C_35
    9  A    between atoms: C_29  and  C_41
   10  A    between atoms: C_35  and  C_38
                            x       y       z     vdW  Elec       q    Type
                         _______ _______ _______ _____ _____    ______ ____

>  <TORSDO>
F 10

$$$$
=
 OpenBabel10232409023D

 43 48  0  0  1  0  0  0  0  0999 V2000
  188.1300  177.5240  145.0020 N   0  0  0  0  0  2  0  0  0  0  0  0
  186.3800  178.0350  143.5110 N   0  0  0  0  0  0  0  0  0  0  0  0
  187.3980  178.3790  139.1000 C   0  0  0  0  0  0  0  0  0  0  0  0
  186.6220  178.2400  141.1330 C   0  0  0  0  0  0  0  0  0  0  0  0
  188.6570  177.8340  142.4940 C   0  0  2  0  0  3  0  0  0  0  0  0
  184.9100  178.8170  139.5780 C   0  0  0  0  0  3  0  0  0  0  0  0
  185.8020  178.2970  142.2220 C   0  0  0  0  0  0  0  0  0  0  0  0
  188.4480  178.0890  139.9240 N   0  0  0  0  0  0  0  0  0  0  0  0
  186.2360  178.4830  139.8590 C   0  0  0  0  0  0  0  0  0  0  0  0
  189.5370  178.8850  142.6760 F   0  0  0  0  0  0  0  0  0  0  0  0
  184.0070  178.8700  140.6710 C   0  0  0  0  0  3  0  0  0  0  0  0
  187.9460  178.0090  141.1800 C   0  0  0  0  0  0  0  0  0  0  0  0
  184.4500  178.6100  141.9980 C   0  0  0  0  0  3  0  0  0  0  0  0
  187.6630  177.7900  143.6740 C   0  0  0  0  0  0  0  0  0  0  0  0
  190.3230  176.5590  144.4030 O   0  0  0  0  0  0  0  0  0  0  0  0
  191.5800  176.1070  144.7650 N   0  0  0  0  0  2  0  0  0  0  0  0
  189.4310  177.0540  145.3660 C   0  0  0  0  0  0  0  0  0  0  0  0
  191.9830  176.1350  146.1380 C   0  0  0  0  0  3  0  0  0  0  0  0
  191.1320  176.5980  147.0530 C   0  0  0  0  0  3  0  0  0  0  0  0
  189.7990  177.0780  146.6500 C   0  0  0  0  0  3  0  0  0  0  0  0
  189.8530  178.0000  139.5420 C   0  0  0  0  0  2  0  0  0  0  0  0
  190.3640  176.5850  139.7420 C   0  0  0  0  0  1  0  0  0  0  0  0
  187.5080  178.5950  137.6160 C   0  0  0  0  0  2  0  0  0  0  0  0
  187.6010  177.4980  135.3500 C   0  0  0  0  0  1  0  0  0  0  0  0
  187.0540  177.3930  136.7660 C   0  0  2  0  0  0  0  0  0  0  0  0
  185.5280  177.3740  136.6880 C   0  0  0  0  0  2  0  0  0  0  0  0
  185.0080  176.1800  137.1960 O   0  0  0  0  0  0  0  0  0  0  0  0
  183.0360  177.8920  137.0670 O   0  0  0  0  0  1  0  0  0  0  0  0
  183.3330  176.4250  137.2750 P   0  0  0  0  0  0  0  0  0  0  0  0
  182.5670  175.5270  136.0620 O   0  0  0  0  0  0  0  0  0  0  0  0
  182.7450  175.9480  138.7890 O   0  0  0  0  0  1  0  0  0  0  0  0
  187.5460  176.0720  137.3600 C   0  0  0  0  0  2  0  0  0  0  0  0
  188.7710  175.5080  136.6310 C   0  0  1  0  0  3  0  0  0  0  0  0
  189.0720  174.1290  137.1790 C   0  0  1  0  0  3  0  0  0  0  0  0
  188.5150  174.2610  135.7700 C   0  0  1  0  0  3  0  0  0  0  0  0
  190.5630  173.8850  137.1050 C   0  0  0  0  0  1  0  0  0  0  0  0
  186.4960  173.0920  136.7370 C   0  0  0  0  0  3  0  0  0  0  0  0
  184.4540  172.9350  135.4560 C   0  0  0  0  0  3  0  0  0  0  0  0
  185.1750  172.6590  136.6180 C   0  0  0  0  0  0  0  0  0  0  0  0
  185.0710  173.6440  134.4240 C   0  0  0  0  0  3  0  0  0  0  0  0
  186.3600  174.0620  134.5590 N   0  0  0  0  0  0  0  0  0  0  0  0
  184.5970  171.9640  137.6260 F   0  0  0  0  0  0  0  0  0  0  0  0
  187.0780  173.8200  135.6910 C   0  0  0  0  0  0  0  0  0  0  0  0
  1 17  1  0  0  0  0
  2 14  2  0  0  0  0
  3  9  2  0  0  0  0
  3  8  1  0  0  0  0
  4 12  2  0  0  0  0
  4  7  1  0  0  0  0
  5 10  1  1  0  0  0
  5 14  1  0  0  0  0
  6  9  1  0  0  0  0
  6 11  2  0  0  0  0
  7  2  1  0  0  0  0
  8 12  1  0  0  0  0
  9  4  1  0  0  0  0
 11 13  1  0  0  0  0
 12  5  1  0  0  0  0
 13  7  2  0  0  0  0
 14  1  1  0  0  0  0
 15 16  1  0  0  0  0
 15 17  1  0  0  0  0
 16 18  1  0  0  0  0
 17 20  2  0  0  0  0
 18 19  2  0  0  0  0
 20 19  1  0  0  0  0
 21 22  1  0  0  0  0
 21  8  1  0  0  0  0
 23  3  1  0  0  0  0
 25 24  1  6  0  0  0
 25 32  1  0  0  0  0
 25 23  1  0  0  0  0
 26 25  1  0  0  0  0
 26 27  1  0  0  0  0
 27 29  1  0  0  0  0
 28 29  1  0  0  0  0
 29 31  1  0  0  0  0
 30 29  2  0  0  0  0
 33 34  1  0  0  0  0
 33 32  1  1  0  0  0
 34 36  1  6  0  0  0
 35 43  1  1  0  0  0
 35 33  1  0  0  0  0
 35 34  1  0  0  0  0
 38 39  2  0  0  0  0
 39 37  1  0  0  0  0
 39 42  1  0  0  0  0
 40 41  2  0  0  0  0
 40 38  1  0  0  0  0
 41 43  1  0  0  0  0
 43 37  2  0  0  0  0
M  END
>  <MODEL>
2

>  <REMARK>
 VINA RESULT:      -7.4      1.511      3.203
  Name = 
  10 active torsions:
  status: ('A' for Active; 'I' for Inactive)
    1  A    between atoms: C_1  and  C_21
    2  A    between atoms: N_3  and  C_17
    3  A    between atoms: C_6  and  C_38
    4  A    between atoms: C_9  and  O_20
    5  A    between atoms: C_9  and  C_35
    6  A    between atoms: P_15  and  O_20
    7  A    between atoms: N_16  and  C_26
    8  A    between atoms: C_21  and  C_35
    9  A    between atoms: C_29  and  C_41
   10  A    between atoms: C_35  and  C_38
                            x       y       z     vdW  Elec       q    Type
                         _______ _______ _______ _____ _____    ______ ____

>  <TORSDO>
F 10

$$$$
=
 OpenBabel10232409023D

 43 48  0  0  1  0  0  0  0  0999 V2000
  188.1380  177.6140  145.1120 N   0  0  0  0  0  2  0  0  0  0  0  0
  186.4580  178.0890  143.5310 N   0  0  0  0  0  0  0  0  0  0  0  0
  187.6660  178.2770  139.1580 C   0  0  0  0  0  0  0  0  0  0  0  0
  186.8040  178.2130  141.1600 C   0  0  0  0  0  0  0  0  0  0  0  0
  188.7740  177.8350  142.6190 C   0  0  2  0  0  3  0  0  0  0  0  0
  185.1650  178.7510  139.5140 C   0  0  0  0  0  3  0  0  0  0  0  0
  185.9390  178.3130  142.2100 C   0  0  0  0  0  0  0  0  0  0  0  0
  188.6780  178.0060  140.0350 N   0  0  0  0  0  0  0  0  0  0  0  0
  186.4740  178.4160  139.8630 C   0  0  0  0  0  0  0  0  0  0  0  0
  189.6560  178.8850  142.8040 F   0  0  0  0  0  0  0  0  0  0  0  0
  184.2160  178.8480  140.5660 C   0  0  0  0  0  3  0  0  0  0  0  0
  188.1220  177.9720  141.2700 C   0  0  0  0  0  0  0  0  0  0  0  0
  184.6000  178.6290  141.9190 C   0  0  0  0  0  3  0  0  0  0  0  0
  187.7310  177.8390  143.7560 C   0  0  0  0  0  0  0  0  0  0  0  0
  190.3670  176.6630  144.6310 O   0  0  0  0  0  0  0  0  0  0  0  0
  191.6040  176.2120  145.0610 N   0  0  0  0  0  2  0  0  0  0  0  0
  189.4190  177.1450  145.5450 C   0  0  0  0  0  0  0  0  0  0  0  0
  191.9250  176.2280  146.4560 C   0  0  0  0  0  3  0  0  0  0  0  0
  191.0210  176.6800  147.3240 C   0  0  0  0  0  3  0  0  0  0  0  0
  189.7110  177.1580  146.8490 C   0  0  0  0  0  3  0  0  0  0  0  0
  190.0960  177.8930  139.7170 C   0  0  0  0  0  2  0  0  0  0  0  0
  190.6330  176.5500  140.1760 C   0  0  0  0  0  1  0  0  0  0  0  0
  187.8410  178.4430  137.6740 C   0  0  0  0  0  2  0  0  0  0  0  0
  187.3710  177.4470  135.4080 C   0  0  0  0  0  1  0  0  0  0  0  0
  187.6720  177.1420  136.8670 C   0  0  2  0  0  0  0  0  0  0  0  0
  186.5030  176.3390  137.4380 C   0  0  0  0  0  2  0  0  0  0  0  0
  185.3210  176.5900  136.7340 O   0  0  0  0  0  0  0  0  0  0  0  0
  183.3600  175.0180  136.0130 O   0  0  0  0  0  0  0  0  0  0  0  0
  184.2680  175.3380  137.1770 P   0  0  0  0  0  0  0  0  0  0  0  0
  185.1610  173.9580  137.5810 O   0  0  0  0  0  1  0  0  0  0  0  0
  183.3270  175.8100  138.5020 O   0  0  0  0  0  1  0  0  0  0  0  0
  188.9400  176.2870  136.9140 C   0  0  0  0  0  2  0  0  0  0  0  0
  188.6450  174.7850  136.9960 C   0  0  1  0  0  3  0  0  0  0  0  0
  188.8700  174.1690  135.6310 C   0  0  1  0  0  3  0  0  0  0  0  0
  189.8470  173.8580  136.7540 C   0  0  1  0  0  3  0  0  0  0  0  0
  187.9240  173.0010  135.4560 C   0  0  0  0  0  1  0  0  0  0  0  0
  192.0590  174.7080  137.6290 C   0  0  0  0  0  3  0  0  0  0  0  0
  193.5420  175.9480  136.1790 C   0  0  0  0  0  3  0  0  0  0  0  0
  193.2550  175.3990  137.4300 C   0  0  0  0  0  0  0  0  0  0  0  0
  192.6200  175.7980  135.1420 C   0  0  0  0  0  3  0  0  0  0  0  0
  191.4610  175.1170  135.3530 N   0  0  0  0  0  0  0  0  0  0  0  0
  194.1320  175.5430  138.4520 F   0  0  0  0  0  0  0  0  0  0  0  0
  191.1660  174.5560  136.5600 C   0  0  0  0  0  0  0  0  0  0  0  0
  1 17  1  0  0  0  0
  2 14  2  0  0  0  0
  3  9  2  0  0  0  0
  3  8  1  0  0  0  0
  4 12  2  0  0  0  0
  4  7  1  0  0  0  0
  5 10  1  1  0  0  0
  5 14  1  0  0  0  0
  6  9  1  0  0  0  0
  6 11  2  0  0  0  0
  7  2  1  0  0  0  0
  8 12  1  0  0  0  0
  9  4  1  0  0  0  0
 11 13  1  0  0  0  0
 12  5  1  0  0  0  0
 13  7  2  0  0  0  0
 14  1  1  0  0  0  0
 15 16  1  0  0  0  0
 15 17  1  0  0  0  0
 16 18  1  0  0  0  0
 17 20  2  0  0  0  0
 18 19  2  0  0  0  0
 20 19  1  0  0  0  0
 21  8  1  0  0  0  0
 21 22  1  0  0  0  0
 23  3  1  0  0  0  0
 25 24  1  6  0  0  0
 25 32  1  0  0  0  0
 25 26  1  0  0  0  0
 25 23  1  0  0  0  0
 27 29  1  0  0  0  0
 27 26  1  0  0  0  0
 28 29  2  0  0  0  0
 29 30  1  0  0  0  0
 29 31  1  0  0  0  0
 33 32  1  6  0  0  0
 34 36  1  1  0  0  0
 34 35  1  0  0  0  0
 34 33  1  0  0  0  0
 35 43  1  6  0  0  0
 35 33  1  0  0  0  0
 38 39  2  0  0  0  0
 39 37  1  0  0  0  0
 39 42  1  0  0  0  0
 40 41  2  0  0  0  0
 40 38  1  0  0  0  0
 41 43  1  0  0  0  0
 43 37  2  0  0  0  0
M  END
>  <MODEL>
3

>  <REMARK>
 VINA RESULT:      -7.3      2.731      4.672
  Name = 
  10 active torsions:
  status: ('A' for Active; 'I' for Inactive)
    1  A    between atoms: C_1  and  C_21
    2  A    between atoms: N_3  and  C_17
    3  A    between atoms: C_6  and  C_38
    4  A    between atoms: C_9  and  O_20
    5  A    between atoms: C_9  and  C_35
    6  A    between atoms: P_15  and  O_20
    7  A    between atoms: N_16  and  C_26
    8  A    between atoms: C_21  and  C_35
    9  A    between atoms: C_29  and  C_41
   10  A    between atoms: C_35  and  C_38
                            x       y       z     vdW  Elec       q    Type
                         _______ _______ _______ _____ _____    ______ ____

>  <TORSDO>
F 10

$$$$
=
 OpenBabel10232409023D

 43 48  0  0  1  0  0  0  0  0999 V2000
  190.1580  173.6420  136.8030 N   0  0  0  0  0  2  0  0  0  0  0  0
  187.8600  173.1470  136.9590 N   0  0  0  0  0  0  0  0  0  0  0  0
  184.9780  176.6250  137.4190 C   0  0  0  0  0  0  0  0  0  0  0  0
  186.1180  174.7830  137.1700 C   0  0  0  0  0  0  0  0  0  0  0  0
  188.4730  175.5640  137.1670 C   0  0  2  0  0  3  0  0  0  0  0  0
  183.7850  174.3480  137.3970 C   0  0  0  0  0  3  0  0  0  0  0  0
  186.4660  173.4660  137.0910 C   0  0  0  0  0  0  0  0  0  0  0  0
  186.2990  176.9640  137.3400 N   0  0  0  0  0  0  0  0  0  0  0  0
  184.8540  175.2420  137.3180 C   0  0  0  0  0  0  0  0  0  0  0  0
  189.0180  175.9880  138.3650 F   0  0  0  0  0  0  0  0  0  0  0  0
  184.0860  172.9640  137.2980 C   0  0  0  0  0  3  0  0  0  0  0  0
  186.9880  175.8070  137.1870 C   0  0  0  0  0  0  0  0  0  0  0  0
  185.4280  172.5170  137.1450 C   0  0  0  0  0  3  0  0  0  0  0  0
  188.7990  174.0700  136.9580 C   0  0  0  0  0  0  0  0  0  0  0  0
  191.5490  175.0570  135.3320 O   0  0  0  0  0  0  0  0  0  0  0  0
  192.6500  175.8720  135.1340 N   0  0  0  0  0  2  0  0  0  0  0  0
  191.2930  174.4850  136.5870 C   0  0  0  0  0  0  0  0  0  0  0  0
  193.5490  176.1350  136.2160 C   0  0  0  0  0  3  0  0  0  0  0  0
  193.3100  175.5850  137.4060 C   0  0  0  0  0  3  0  0  0  0  0  0
  192.1320  174.7220  137.6000 C   0  0  0  0  0  3  0  0  0  0  0  0
  186.8650  178.2980  137.5060 C   0  0  0  0  0  2  0  0  0  0  0  0
  187.4580  178.7840  136.1970 C   0  0  0  0  0  1  0  0  0  0  0  0
  183.8540  177.6010  137.6290 C   0  0  0  0  0  2  0  0  0  0  0  0
  182.7920  176.4780  139.6190 C   0  0  0  0  0  1  0  0  0  0  0  0
  183.4210  177.7620  139.0990 C   0  0  2  0  0  0  0  0  0  0  0  0
  182.3830  178.8790  139.2020 C   0  0  0  0  0  2  0  0  0  0  0  0
  182.1190  179.4470  137.9520 O   0  0  0  0  0  0  0  0  0  0  0  0
  180.2410  181.0840  137.1600 O   0  0  0  0  0  0  0  0  0  0  0  0
  181.2240  180.8480  138.2820 P   0  0  0  0  0  0  0  0  0  0  0  0
  180.3750  180.6540  139.7330 O   0  0  0  0  0  1  0  0  0  0  0  0
  182.2580  182.1820  138.4060 O   0  0  0  0  0  1  0  0  0  0  0  0
  184.6130  178.0970  139.9990 C   0  0  0  0  0  2  0  0  0  0  0  0
  184.2560  179.0760  141.1230 C   0  0  1  0  0  3  0  0  0  0  0  0
  184.1550  178.3070  142.4240 C   0  0  1  0  0  3  0  0  0  0  0  0
  185.3250  179.2550  142.2120 C   0  0  1  0  0  3  0  0  0  0  0  0
  183.1270  178.9760  143.3110 C   0  0  0  0  0  1  0  0  0  0  0  0
  187.0160  177.4880  142.8410 C   0  0  0  0  0  3  0  0  0  0  0  0
  189.0480  177.2390  141.5580 C   0  0  0  0  0  3  0  0  0  0  0  0
  188.2350  176.8460  142.6220 C   0  0  0  0  0  0  0  0  0  0  0  0
  188.6260  178.2780  140.7270 C   0  0  0  0  0  3  0  0  0  0  0  0
  187.4310  178.8900  140.9530 N   0  0  0  0  0  0  0  0  0  0  0  0
  188.6330  175.8470  143.4460 F   0  0  0  0  0  0  0  0  0  0  0  0
  186.6120  178.5120  141.9740 C   0  0  0  0  0  0  0  0  0  0  0  0
  1 14  1  0  0  0  0
  2  7  1  0  0  0  0
  3 23  1  0  0  0  0
  4 12  2  0  0  0  0
  4  9  1  0  0  0  0
  5 12  1  0  0  0  0
  5 10  1  1  0  0  0
  7 13  2  0  0  0  0
  7  4  1  0  0  0  0
  8  3  1  0  0  0  0
  8 21  1  0  0  0  0
  9  6  1  0  0  0  0
  9  3  2  0  0  0  0
 11  6  2  0  0  0  0
 12  8  1  0  0  0  0
 13 11  1  0  0  0  0
 14  2  2  0  0  0  0
 14  5  1  0  0  0  0
 15 17  1  0  0  0  0
 16 15  1  0  0  0  0
 16 18  1  0  0  0  0
 17  1  1  0  0  0  0
 17 20  2  0  0  0  0
 18 19  2  0  0  0  0
 19 20  1  0  0  0  0
 22 21  1  0  0  0  0
 23 25  1  0  0  0  0
 25 26  1  0  0  0  0
 25 24  1  1  0  0  0
 25 32  1  0  0  0  0
 27 29  1  0  0  0  0
 27 26  1  0  0  0  0
 28 29  2  0  0  0  0
 29 31  1  0  0  0  0
 29 30  1  0  0  0  0
 33 32  1  6  0  0  0
 33 35  1  0  0  0  0
 33 34  1  0  0  0  0
 34 36  1  1  0  0  0
 35 43  1  6  0  0  0
 35 34  1  0  0  0  0
 38 39  2  0  0  0  0
 39 37  1  0  0  0  0
 39 42  1  0  0  0  0
 40 41  2  0  0  0  0
 40 38  1  0  0  0  0
 41 43  1  0  0  0  0
 43 37  2  0  0  0  0
M  END
>  <MODEL>
4

>  <REMARK>
 VINA RESULT:      -7.3      3.094      7.434
  Name = 
  10 active torsions:
  status: ('A' for Active; 'I' for Inactive)
    1  A    between atoms: C_1  and  C_21
    2  A    between atoms: N_3  and  C_17
    3  A    between atoms: C_6  and  C_38
    4  A    between atoms: C_9  and  O_20
    5  A    between atoms: C_9  and  C_35
    6  A    between atoms: P_15  and  O_20
    7  A    between atoms: N_16  and  C_26
    8  A    between atoms: C_21  and  C_35
    9  A    between atoms: C_29  and  C_41
   10  A    between atoms: C_35  and  C_38
                            x       y       z     vdW  Elec       q    Type
                         _______ _______ _______ _____ _____    ______ ____

>  <TORSDO>
F 10

$$$$
=
 OpenBabel10232409023D

 43 48  0  0  1  0  0  0  0  0999 V2000
  188.4790  177.3710  145.7020 N   0  0  0  0  0  2  0  0  0  0  0  0
  186.7150  177.9040  144.2340 N   0  0  0  0  0  0  0  0  0  0  0  0
  187.7000  178.3530  139.8250 C   0  0  0  0  0  0  0  0  0  0  0  0
  186.9400  178.1640  141.8600 C   0  0  0  0  0  0  0  0  0  0  0  0
  188.9860  177.7400  143.1970 C   0  0  2  0  0  3  0  0  0  0  0  0
  185.2130  178.7640  140.3300 C   0  0  0  0  0  3  0  0  0  0  0  0
  186.1270  178.1910  142.9560 C   0  0  0  0  0  0  0  0  0  0  0  0
  188.7580  178.0510  140.6350 N   0  0  0  0  0  0  0  0  0  0  0  0
  186.5430  178.4320  140.5940 C   0  0  0  0  0  0  0  0  0  0  0  0
  189.8610  178.7930  143.3970 F   0  0  0  0  0  0  0  0  0  0  0  0
  184.3170  178.7860  141.4300 C   0  0  0  0  0  3  0  0  0  0  0  0
  188.2650  177.9400  141.8920 C   0  0  0  0  0  0  0  0  0  0  0  0
  184.7710  178.5000  142.7480 C   0  0  0  0  0  3  0  0  0  0  0  0
  188.0010  177.6640  144.3820 C   0  0  0  0  0  0  0  0  0  0  0  0
  190.6570  176.3910  145.0720 O   0  0  0  0  0  0  0  0  0  0  0  0
  191.9200  175.9390  145.4150 N   0  0  0  0  0  2  0  0  0  0  0  0
  189.7860  176.9020  146.0450 C   0  0  0  0  0  0  0  0  0  0  0  0
  192.3500  175.9840  146.7790 C   0  0  0  0  0  3  0  0  0  0  0  0
  191.5190  176.4630  147.7040 C   0  0  0  0  0  3  0  0  0  0  0  0
  190.1790  176.9420  147.3220 C   0  0  0  0  0  3  0  0  0  0  0  0
  190.1600  177.9800  140.2410 C   0  0  0  0  0  2  0  0  0  0  0  0
  190.5800  176.5350  140.0490 C   0  0  0  0  0  1  0  0  0  0  0  0
  187.7980  178.6030  138.3460 C   0  0  0  0  0  2  0  0  0  0  0  0
  187.8540  176.0960  138.0990 C   0  0  0  0  0  1  0  0  0  0  0  0
  187.3890  177.4010  137.4720 C   0  0  2  0  0  0  0  0  0  0  0  0
  188.0420  177.5290  136.0960 C   0  0  0  0  0  2  0  0  0  0  0  0
  189.4340  177.6080  136.1980 O   0  0  0  0  0  0  0  0  0  0  0  0
  191.0430  176.6290  134.3840 O   0  0  0  0  0  0  0  0  0  0  0  0
  190.0150  176.2230  135.4140 P   0  0  0  0  0  0  0  0  0  0  0  0
  190.7380  175.1890  136.5420 O   0  0  0  0  0  1  0  0  0  0  0  0
  188.7430  175.4150  134.6420 O   0  0  0  0  0  1  0  0  0  0  0  0
  185.8700  177.3250  137.3030 C   0  0  0  0  0  2  0  0  0  0  0  0
  185.4310  176.2140  136.3420 C   0  0  1  0  0  3  0  0  0  0  0  0
  184.8500  175.0720  137.1500 C   0  0  1  0  0  3  0  0  0  0  0  0
  183.9220  175.9280  136.3030 C   0  0  1  0  0  3  0  0  0  0  0  0
  185.1250  173.7710  136.4290 C   0  0  0  0  0  1  0  0  0  0  0  0
  182.6650  176.4520  138.4300 C   0  0  0  0  0  3  0  0  0  0  0  0
  181.4220  178.5150  138.6290 C   0  0  0  0  0  3  0  0  0  0  0  0
  181.8430  177.3000  139.1730 C   0  0  0  0  0  0  0  0  0  0  0  0
  181.8300  178.8610  137.3410 C   0  0  0  0  0  3  0  0  0  0  0  0
  182.6360  178.0240  136.6310 N   0  0  0  0  0  0  0  0  0  0  0  0
  181.4480  176.9410  140.4180 F   0  0  0  0  0  0  0  0  0  0  0  0
  183.0740  176.8410  137.1480 C   0  0  0  0  0  0  0  0  0  0  0  0
  1 17  1  0  0  0  0
  2 14  2  0  0  0  0
  3  9  2  0  0  0  0
  3  8  1  0  0  0  0
  4 12  2  0  0  0  0
  4  7  1  0  0  0  0
  5 10  1  1  0  0  0
  5 14  1  0  0  0  0
  6  9  1  0  0  0  0
  6 11  2  0  0  0  0
  7  2  1  0  0  0  0
  8 12  1  0  0  0  0
  9  4  1  0  0  0  0
 11 13  1  0  0  0  0
 12  5  1  0  0  0  0
 13  7  2  0  0  0  0
 14  1  1  0  0  0  0
 15 16  1  0  0  0  0
 15 17  1  0  0  0  0
 16 18  1  0  0  0  0
 17 20  2  0  0  0  0
 18 19  2  0  0  0  0
 20 19  1  0  0  0  0
 21  8  1  0  0  0  0
 22 21  1  0  0  0  0
 23  3  1  0  0  0  0
 25 24  1  1  0  0  0
 25 23  1  0  0  0  0
 26 27  1  0  0  0  0
 26 25  1  0  0  0  0
 28 29  2  0  0  0  0
 29 27  1  0  0  0  0
 29 30  1  0  0  0  0
 31 29  1  0  0  0  0
 32 25  1  0  0  0  0
 33 34  1  0  0  0  0
 33 32  1  1  0  0  0
 34 36  1  6  0  0  0
 35 33  1  0  0  0  0
 35 43  1  1  0  0  0
 35 34  1  0  0  0  0
 37 39  1  0  0  0  0
 38 39  2  0  0  0  0
 39 42  1  0  0  0  0
 40 38  1  0  0  0  0
 41 43  1  0  0  0  0
 41 40  2  0  0  0  0
 43 37  2  0  0  0  0
M  END
>  <MODEL>
5

>  <REMARK>
 VINA RESULT:      -7.1      3.193      4.879
  Name = 
  10 active torsions:
  status: ('A' for Active; 'I' for Inactive)
    1  A    between atoms: C_1  and  C_21
    2  A    between atoms: N_3  and  C_17
    3  A    between atoms: C_6  and  C_38
    4  A    between atoms: C_9  and  O_20
    5  A    between atoms: C_9  and  C_35
    6  A    between atoms: P_15  and  O_20
    7  A    between atoms: N_16  and  C_26
    8  A    between atoms: C_21  and  C_35
    9  A    between atoms: C_29  and  C_41
   10  A    between atoms: C_35  and  C_38
                            x       y       z     vdW  Elec       q    Type
                         _______ _______ _______ _____ _____    ______ ____

>  <TORSDO>
F 10

$$$$
=
 OpenBabel10232409023D

 43 48  0  0  1  0  0  0  0  0999 V2000
  189.9680  177.0800  144.6110 N   0  0  0  0  0  2  0  0  0  0  0  0
  190.6900  177.1010  142.3690 N   0  0  0  0  0  0  0  0  0  0  0  0
  187.6690  178.2690  139.1880 C   0  0  0  0  0  0  0  0  0  0  0  0
  189.3230  177.7110  140.4950 C   0  0  0  0  0  0  0  0  0  0  0  0
  188.2750  177.6380  142.7430 C   0  0  2  0  0  3  0  0  0  0  0  0
  189.9710  177.6910  138.2010 C   0  0  0  0  0  3  0  0  0  0  0  0
  190.5360  177.2880  140.9540 C   0  0  0  0  0  0  0  0  0  0  0  0
  187.1990  178.2660  140.4710 N   0  0  0  0  0  0  0  0  0  0  0  0
  189.0140  177.9130  139.1930 C   0  0  0  0  0  0  0  0  0  0  0  0
  187.4200  176.5880  143.0270 F   0  0  0  0  0  0  0  0  0  0  0  0
  191.2590  177.2700  138.6220 C   0  0  0  0  0  3  0  0  0  0  0  0
  188.2400  177.9160  141.2650 C   0  0  0  0  0  0  0  0  0  0  0  0
  191.5470  177.0670  140.0010 C   0  0  0  0  0  3  0  0  0  0  0  0
  189.6990  177.2780  143.2170 C   0  0  0  0  0  0  0  0  0  0  0  0
  187.8650  178.0420  145.4800 O   0  0  0  0  0  0  0  0  0  0  0  0
  187.0270  178.3490  146.5380 N   0  0  0  0  0  2  0  0  0  0  0  0
  189.0940  177.4020  145.6970 C   0  0  0  0  0  0  0  0  0  0  0  0
  187.4130  178.0190  147.8760 C   0  0  0  0  0  3  0  0  0  0  0  0
  188.5840  177.4180  148.0820 C   0  0  0  0  0  3  0  0  0  0  0  0
  189.4630  177.0960  146.9450 C   0  0  0  0  0  3  0  0  0  0  0  0
  185.8190  178.4810  140.8910 C   0  0  0  0  0  2  0  0  0  0  0  0
  185.7640  179.5010  142.0130 C   0  0  0  0  0  1  0  0  0  0  0  0
  186.8370  178.5680  137.9720 C   0  0  0  0  0  2  0  0  0  0  0  0
  186.2240  177.6370  135.7120 C   0  0  0  0  0  1  0  0  0  0  0  0
  186.3860  177.3190  137.1910 C   0  0  2  0  0  0  0  0  0  0  0  0
  185.0350  176.8450  137.7280 C   0  0  0  0  0  2  0  0  0  0  0  0
  183.9760  177.4380  137.0350 O   0  0  0  0  0  0  0  0  0  0  0  0
  182.9510  176.9610  139.3930 O   0  0  0  0  0  1  0  0  0  0  0  0
  182.8820  177.9270  138.2340 P   0  0  0  0  0  0  0  0  0  0  0  0
  183.2880  179.4770  138.7790 O   0  0  0  0  0  1  0  0  0  0  0  0
  181.3070  177.9410  137.6150 O   0  0  0  0  0  0  0  0  0  0  0  0
  187.4040  176.1840  137.3170 C   0  0  0  0  0  2  0  0  0  0  0  0
  186.7800  174.7970  137.1220 C   0  0  1  0  0  3  0  0  0  0  0  0
  186.8370  174.4400  135.6510 C   0  0  1  0  0  3  0  0  0  0  0  0
  187.7380  173.7010  136.6280 C   0  0  1  0  0  3  0  0  0  0  0  0
  185.6490  173.5670  135.3110 C   0  0  0  0  0  1  0  0  0  0  0  0
  189.5730  174.9860  135.4630 C   0  0  0  0  0  3  0  0  0  0  0  0
  191.8610  174.7860  136.2130 C   0  0  0  0  0  3  0  0  0  0  0  0
  190.9210  175.3240  135.3330 C   0  0  0  0  0  0  0  0  0  0  0  0
  191.4350  173.9110  137.2130 C   0  0  0  0  0  3  0  0  0  0  0  0
  190.1150  173.5950  137.3270 N   0  0  0  0  0  0  0  0  0  0  0  0
  191.3170  176.1670  134.3500 F   0  0  0  0  0  0  0  0  0  0  0  0
  189.1760  174.1220  136.4920 C   0  0  0  0  0  0  0  0  0  0  0  0
  1 17  1  0  0  0  0
  2 14  2  0  0  0  0
  3  9  2  0  0  0  0
  3  8  1  0  0  0  0
  4  7  1  0  0  0  0
  4 12  2  0  0  0  0
  5 10  1  6  0  0  0
  5 14  1  0  0  0  0
  6 11  2  0  0  0  0
  6  9  1  0  0  0  0
  7  2  1  0  0  0  0
  8 21  1  0  0  0  0
  8 12  1  0  0  0  0
  9  4  1  0  0  0  0
 11 13  1  0  0  0  0
 12  5  1  0  0  0  0
 13  7  2  0  0  0  0
 14  1  1  0  0  0  0
 15 17  1  0  0  0  0
 15 16  1  0  0  0  0
 16 18  1  0  0  0  0
 17 20  2  0  0  0  0
 18 19  2  0  0  0  0
 20 19  1  0  0  0  0
 21 22  1  0  0  0  0
 23  3  1  0  0  0  0
 25 24  1  6  0  0  0
 25 32  1  0  0  0  0
 25 26  1  0  0  0  0
 25 23  1  0  0  0  0
 27 26  1  0  0  0  0
 27 29  1  0  0  0  0
 29 30  1  0  0  0  0
 29 28  1  0  0  0  0
 31 29  2  0  0  0  0
 33 32  1  6  0  0  0
 34 36  1  1  0  0  0
 34 35  1  0  0  0  0
 34 33  1  0  0  0  0
 35 43  1  6  0  0  0
 35 33  1  0  0  0  0
 37 43  1  0  0  0  0
 38 40  2  0  0  0  0
 39 37  2  0  0  0  0
 39 38  1  0  0  0  0
 40 41  1  0  0  0  0
 42 39  1  0  0  0  0
 43 41  2  0  0  0  0
M  END
>  <MODEL>
6

>  <REMARK>
 VINA RESULT:      -7.0      1.766      2.872
  Name = 
  10 active torsions:
  status: ('A' for Active; 'I' for Inactive)
    1  A    between atoms: C_1  and  C_21
    2  A    between atoms: N_3  and  C_17
    3  A    between atoms: C_6  and  C_38
    4  A    between atoms: C_9  and  O_20
    5  A    between atoms: C_9  and  C_35
    6  A    between atoms: P_15  and  O_20
    7  A    between atoms: N_16  and  C_26
    8  A    between atoms: C_21  and  C_35
    9  A    between atoms: C_29  and  C_41
   10  A    between atoms: C_35  and  C_38
                            x       y       z     vdW  Elec       q    Type
                         _______ _______ _______ _____ _____    ______ ____

>  <TORSDO>
F 10

$$$$
=
 OpenBabel10232409023D

 43 48  0  0  1  0  0  0  0  0999 V2000
  192.9750  174.9000  135.4610 N   0  0  0  0  0  2  0  0  0  0  0  0
  190.9020  176.0180  135.4410 N   0  0  0  0  0  0  0  0  0  0  0  0
  189.6340  178.1830  139.2250 C   0  0  0  0  0  0  0  0  0  0  0  0
  190.0020  177.2690  137.2800 C   0  0  0  0  0  0  0  0  0  0  0  0
  192.1470  176.0660  137.6100 C   0  0  2  0  0  3  0  0  0  0  0  0
  187.8870  178.3670  137.3480 C   0  0  0  0  0  3  0  0  0  0  0  0
  189.8460  176.8140  136.0030 C   0  0  0  0  0  0  0  0  0  0  0  0
  190.8400  177.5440  139.2900 N   0  0  0  0  0  0  0  0  0  0  0  0
  189.0920  178.0080  137.9550 C   0  0  0  0  0  0  0  0  0  0  0  0
  192.1360  174.9190  138.3830 F   0  0  0  0  0  0  0  0  0  0  0  0
  187.6810  177.9390  136.0100 C   0  0  0  0  0  3  0  0  0  0  0  0
  191.0480  176.9830  138.0740 C   0  0  0  0  0  0  0  0  0  0  0  0
  188.6600  177.1610  135.3320 C   0  0  0  0  0  3  0  0  0  0  0  0
  191.9750  175.6830  136.1260 C   0  0  0  0  0  0  0  0  0  0  0  0
  195.2520  175.5960  136.1180 O   0  0  0  0  0  0  0  0  0  0  0  0
  196.5140  175.2910  136.5990 N   0  0  0  0  0  2  0  0  0  0  0  0
  194.2820  174.5960  135.9570 C   0  0  0  0  0  0  0  0  0  0  0  0
  196.8450  173.9390  136.9330 C   0  0  0  0  0  3  0  0  0  0  0  0
  195.9250  172.9890  136.7720 C   0  0  0  0  0  3  0  0  0  0  0  0
  194.5860  173.3310  136.2620 C   0  0  0  0  0  3  0  0  0  0  0  0
  191.6820  177.3960  140.4720 C   0  0  0  0  0  2  0  0  0  0  0  0
  193.1360  177.6470  140.1170 C   0  0  0  0  0  1  0  0  0  0  0  0
  188.9890  178.9130  140.3700 C   0  0  0  0  0  2  0  0  0  0  0  0
  188.7260  176.5520  141.2080 C   0  0  0  0  0  1  0  0  0  0  0  0
  188.2900  177.9970  141.3930 C   0  0  2  0  0  0  0  0  0  0  0  0
  186.7770  178.0710  141.1890 C   0  0  0  0  0  2  0  0  0  0  0  0
  186.4430  178.9680  140.1710 O   0  0  0  0  0  0  0  0  0  0  0  0
  184.5190  177.8030  138.8380 O   0  0  0  0  0  0  0  0  0  0  0  0
  184.7720  178.7900  139.9540 P   0  0  0  0  0  0  0  0  0  0  0  0
  184.0700  178.2090  141.3800 O   0  0  0  0  0  1  0  0  0  0  0  0
  184.0760  180.2790  139.5470 O   0  0  0  0  0  1  0  0  0  0  0  0
  188.6250  178.4070  142.8290 C   0  0  0  0  0  2  0  0  0  0  0  0
  189.3500  177.3050  143.6100 C   0  0  1  0  0  3  0  0  0  0  0  0
  189.8940  177.8950  144.8940 C   0  0  1  0  0  3  0  0  0  0  0  0
  188.7230  176.9260  144.9610 C   0  0  1  0  0  3  0  0  0  0  0  0
  191.1650  177.1670  145.2710 C   0  0  0  0  0  1  0  0  0  0  0  0
  187.3220  178.4210  146.4370 C   0  0  0  0  0  3  0  0  0  0  0  0
  184.9980  178.8180  145.9060 C   0  0  0  0  0  3  0  0  0  0  0  0
  186.1000  179.0240  146.7380 C   0  0  0  0  0  0  0  0  0  0  0  0
  185.1370  178.0040  144.7810 C   0  0  0  0  0  3  0  0  0  0  0  0
  186.3380  177.4270  144.5010 N   0  0  0  0  0  0  0  0  0  0  0  0
  185.9810  179.8020  147.8400 F   0  0  0  0  0  0  0  0  0  0  0  0
  187.4330  177.6280  145.2870 C   0  0  0  0  0  0  0  0  0  0  0  0
  1 17  1  0  0  0  0
  1 14  1  0  0  0  0
  2  7  1  0  0  0  0
  2 14  2  0  0  0  0
  3  8  1  0  0  0  0
  3 23  1  0  0  0  0
  4  9  1  0  0  0  0
  4 12  2  0  0  0  0
  5 12  1  0  0  0  0
  5 10  1  1  0  0  0
  6  9  1  0  0  0  0
  7  4  1  0  0  0  0
  8 21  1  0  0  0  0
  9  3  2  0  0  0  0
 11  6  2  0  0  0  0
 12  8  1  0  0  0  0
 13  7  2  0  0  0  0
 13 11  1  0  0  0  0
 14  5  1  0  0  0  0
 15 16  1  0  0  0  0
 16 18  1  0  0  0  0
 17 15  1  0  0  0  0
 17 20  2  0  0  0  0
 19 18  2  0  0  0  0
 20 19  1  0  0  0  0
 22 21  1  0  0  0  0
 23 25  1  0  0  0  0
 25 24  1  6  0  0  0
 25 32  1  0  0  0  0
 26 25  1  0  0  0  0
 27 26  1  0  0  0  0
 28 29  2  0  0  0  0
 29 27  1  0  0  0  0
 29 30  1  0  0  0  0
 31 29  1  0  0  0  0
 33 32  1  6  0  0  0
 33 34  1  0  0  0  0
 33 35  1  0  0  0  0
 34 35  1  0  0  0  0
 34 36  1  1  0  0  0
 35 43  1  6  0  0  0
 37 39  1  0  0  0  0
 38 39  2  0  0  0  0
 39 42  1  0  0  0  0
 40 38  1  0  0  0  0
 41 40  2  0  0  0  0
 41 43  1  0  0  0  0
 43 37  2  0  0  0  0
M  END
>  <MODEL>
7

>  <REMARK>
 VINA RESULT:      -6.9      3.683      8.215
  Name = 
  10 active torsions:
  status: ('A' for Active; 'I' for Inactive)
    1  A    between atoms: C_1  and  C_21
    2  A    between atoms: N_3  and  C_17
    3  A    between atoms: C_6  and  C_38
    4  A    between atoms: C_9  and  O_20
    5  A    between atoms: C_9  and  C_35
    6  A    between atoms: P_15  and  O_20
    7  A    between atoms: N_16  and  C_26
    8  A    between atoms: C_21  and  C_35
    9  A    between atoms: C_29  and  C_41
   10  A    between atoms: C_35  and  C_38
                            x       y       z     vdW  Elec       q    Type
                         _______ _______ _______ _____ _____    ______ ____

>  <TORSDO>
F 10

$$$$
=
 OpenBabel10232409023D

 43 48  0  0  1  0  0  0  0  0999 V2000
  192.0180  175.5260  135.5010 N   0  0  0  0  0  2  0  0  0  0  0  0
  189.9580  176.4530  136.1690 N   0  0  0  0  0  0  0  0  0  0  0  0
  189.6300  178.0280  140.4140 C   0  0  0  0  0  0  0  0  0  0  0  0
  189.5150  177.3900  138.3330 C   0  0  0  0  0  0  0  0  0  0  0  0
  191.7310  176.3480  137.9320 C   0  0  2  0  0  3  0  0  0  0  0  0
  187.4400  178.2840  139.0930 C   0  0  0  0  0  3  0  0  0  0  0  0
  189.0500  177.0800  137.0880 C   0  0  0  0  0  0  0  0  0  0  0  0
  190.8420  177.4940  140.0790 N   0  0  0  0  0  0  0  0  0  0  0  0
  188.7800  177.9610  139.3150 C   0  0  0  0  0  0  0  0  0  0  0  0
  191.9860  175.1200  138.5140 F   0  0  0  0  0  0  0  0  0  0  0  0
  186.9080  178.0030  137.8070 C   0  0  0  0  0  3  0  0  0  0  0  0
  190.7490  177.1040  138.7850 C   0  0  0  0  0  0  0  0  0  0  0  0
  187.7110  177.4000  136.7990 C   0  0  0  0  0  3  0  0  0  0  0  0
  191.1910  176.1330  136.5020 C   0  0  0  0  0  0  0  0  0  0  0  0
  193.9200  174.0910  136.1550 O   0  0  0  0  0  0  0  0  0  0  0  0
  195.2820  173.8630  136.2440 N   0  0  0  0  0  2  0  0  0  0  0  0
  193.4240  175.2790  135.5980 C   0  0  0  0  0  0  0  0  0  0  0  0
  196.2050  174.8490  135.7700 C   0  0  0  0  0  3  0  0  0  0  0  0
  195.7340  175.9800  135.2480 C   0  0  0  0  0  3  0  0  0  0  0  0
  194.2800  176.2060  135.1590 C   0  0  0  0  0  3  0  0  0  0  0  0
  191.9740  177.2800  140.9720 C   0  0  0  0  0  2  0  0  0  0  0  0
  193.2700  177.6640  140.2820 C   0  0  0  0  0  1  0  0  0  0  0  0
  189.2750  178.5570  141.7770 C   0  0  0  0  0  2  0  0  0  0  0  0
  189.1050  176.1320  142.4380 C   0  0  0  0  0  1  0  0  0  0  0  0
  188.5730  177.5350  142.6900 C   0  0  2  0  0  0  0  0  0  0  0  0
  187.0730  177.5370  142.3950 C   0  0  0  0  0  2  0  0  0  0  0  0
  186.3500  178.1230  143.4380 O   0  0  0  0  0  0  0  0  0  0  0  0
  185.7060  179.9130  141.6440 O   0  0  0  0  0  0  0  0  0  0  0  0
  185.1070  178.9920  142.6810 P   0  0  0  0  0  0  0  0  0  0  0  0
  184.0420  177.9180  141.9210 O   0  0  0  0  0  1  0  0  0  0  0  0
  184.2620  179.9130  143.8220 O   0  0  0  0  0  1  0  0  0  0  0  0
  188.7960  177.8610  144.1680 C   0  0  0  0  0  2  0  0  0  0  0  0
  189.5400  176.7500  144.9190 C   0  0  1  0  0  3  0  0  0  0  0  0
  190.3700  177.3780  146.0190 C   0  0  1  0  0  3  0  0  0  0  0  0
  189.1410  176.5620  146.3920 C   0  0  1  0  0  3  0  0  0  0  0  0
  191.6100  176.5380  146.2390 C   0  0  0  0  0  1  0  0  0  0  0  0
  186.7290  177.3060  146.3170 C   0  0  0  0  0  3  0  0  0  0  0  0
  185.9820  179.1440  147.6960 C   0  0  0  0  0  3  0  0  0  0  0  0
  185.7120  178.1600  146.7440 C   0  0  0  0  0  0  0  0  0  0  0  0
  187.2760  179.2610  148.2060 C   0  0  0  0  0  3  0  0  0  0  0  0
  188.2560  178.4170  147.7810 N   0  0  0  0  0  0  0  0  0  0  0  0
  184.4650  178.0390  146.2300 F   0  0  0  0  0  0  0  0  0  0  0  0
  188.0120  177.4360  146.8660 C   0  0  0  0  0  0  0  0  0  0  0  0
  1 17  1  0  0  0  0
  1 14  1  0  0  0  0
  2 14  2  0  0  0  0
  2  7  1  0  0  0  0
  3 23  1  0  0  0  0
  4 12  2  0  0  0  0
  4  9  1  0  0  0  0
  5 10  1  1  0  0  0
  5 12  1  0  0  0  0
  6  9  1  0  0  0  0
  7  4  1  0  0  0  0
  8  3  1  0  0  0  0
  8 21  1  0  0  0  0
  9  3  2  0  0  0  0
 11  6  2  0  0  0  0
 12  8  1  0  0  0  0
 13  7  2  0  0  0  0
 13 11  1  0  0  0  0
 14  5  1  0  0  0  0
 15 16  1  0  0  0  0
 17 15  1  0  0  0  0
 18 16  1  0  0  0  0
 19 18  2  0  0  0  0
 20 19  1  0  0  0  0
 20 17  2  0  0  0  0
 22 21  1  0  0  0  0
 23 25  1  0  0  0  0
 25 24  1  6  0  0  0
 25 32  1  0  0  0  0
 26 25  1  0  0  0  0
 26 27  1  0  0  0  0
 28 29  2  0  0  0  0
 29 27  1  0  0  0  0
 29 31  1  0  0  0  0
 30 29  1  0  0  0  0
 33 32  1  6  0  0  0
 33 34  1  0  0  0  0
 33 35  1  0  0  0  0
 34 36  1  1  0  0  0
 34 35  1  0  0  0  0
 35 43  1  6  0  0  0
 37 39  2  0  0  0  0
 37 43  1  0  0  0  0
 38 40  2  0  0  0  0
 39 38  1  0  0  0  0
 41 40  1  0  0  0  0
 42 39  1  0  0  0  0
 43 41  2  0  0  0  0
M  END
>  <MODEL>
8

>  <REMARK>
 VINA RESULT:      -6.9      3.482      8.709
  Name = 
  10 active torsions:
  status: ('A' for Active; 'I' for Inactive)
    1  A    between atoms: C_1  and  C_21
    2  A    between atoms: N_3  and  C_17
    3  A    between atoms: C_6  and  C_38
    4  A    between atoms: C_9  and  O_20
    5  A    between atoms: C_9  and  C_35
    6  A    between atoms: P_15  and  O_20
    7  A    between atoms: N_16  and  C_26
    8  A    between atoms: C_21  and  C_35
    9  A    between atoms: C_29  and  C_41
   10  A    between atoms: C_35  and  C_38
                            x       y       z     vdW  Elec       q    Type
                         _______ _______ _______ _____ _____    ______ ____

>  <TORSDO>
F 10

$$$$
=
 OpenBabel10232409023D

 43 48  0  0  1  0  0  0  0  0999 V2000
  185.7540  178.8180  141.6800 N   0  0  0  0  0  2  0  0  0  0  0  0
  186.4220  178.6810  139.4250 N   0  0  0  0  0  0  0  0  0  0  0  0
  190.4780  176.8470  138.5320 C   0  0  0  0  0  0  0  0  0  0  0  0
  188.4880  177.7290  138.6640 C   0  0  0  0  0  0  0  0  0  0  0  0
  188.0900  177.8790  141.1090 C   0  0  2  0  0  3  0  0  0  0  0  0
  189.2520  177.6180  136.4080 C   0  0  0  0  0  3  0  0  0  0  0  0
  187.3120  178.3440  138.3490 C   0  0  0  0  0  0  0  0  0  0  0  0
  190.1400  176.9100  139.8550 N   0  0  0  0  0  0  0  0  0  0  0  0
  189.4380  177.3700  137.7700 C   0  0  0  0  0  0  0  0  0  0  0  0
  188.7910  178.8320  141.8240 F   0  0  0  0  0  0  0  0  0  0  0  0
  188.0350  178.2360  136.0210 C   0  0  0  0  0  3  0  0  0  0  0  0
  188.9040  177.4610  139.9140 C   0  0  0  0  0  0  0  0  0  0  0  0
  187.0590  178.6020  136.9900 C   0  0  0  0  0  3  0  0  0  0  0  0
  186.7230  178.4580  140.6870 C   0  0  0  0  0  0  0  0  0  0  0  0
  186.6930  177.5220  143.5620 O   0  0  0  0  0  0  0  0  0  0  0  0
  186.7340  177.2120  144.9100 N   0  0  0  0  0  2  0  0  0  0  0  0
  185.8040  178.4900  143.0720 C   0  0  0  0  0  0  0  0  0  0  0  0
  185.8560  177.8790  145.8240 C   0  0  0  0  0  3  0  0  0  0  0  0
  185.0070  178.7930  145.3570 C   0  0  0  0  0  3  0  0  0  0  0  0
  184.9780  179.1120  143.9190 C   0  0  0  0  0  3  0  0  0  0  0  0
  190.9920  176.5610  140.9860 C   0  0  0  0  0  2  0  0  0  0  0  0
  191.9470  177.6980  141.2980 C   0  0  0  0  0  1  0  0  0  0  0  0
  191.7890  176.3330  138.0070 C   0  0  0  0  0  2  0  0  0  0  0  0
  191.9660  175.2500  135.7390 C   0  0  0  0  0  1  0  0  0  0  0  0
  191.6820  175.0160  137.2150 C   0  0  2  0  0  0  0  0  0  0  0  0
  190.2660  174.4590  137.3460 C   0  0  0  0  0  2  0  0  0  0  0  0
  190.0500  173.4000  136.4600 O   0  0  0  0  0  0  0  0  0  0  0  0
  187.6640  174.3090  137.0200 O   0  0  0  0  0  1  0  0  0  0  0  0
  188.4390  173.5610  135.9610 P   0  0  0  0  0  0  0  0  0  0  0  0
  188.3750  174.4290  134.5090 O   0  0  0  0  0  0  0  0  0  0  0  0
  187.7440  172.0340  135.7370 O   0  0  0  0  0  1  0  0  0  0  0  0
  192.6830  173.9760  137.7230 C   0  0  0  0  0  2  0  0  0  0  0  0
  194.1410  174.4210  137.5640 C   0  0  1  0  0  3  0  0  0  0  0  0
  195.0240  173.4950  138.3730 C   0  0  1  0  0  3  0  0  0  0  0  0
  195.0670  173.4200  136.8540 C   0  0  1  0  0  3  0  0  0  0  0  0
  196.2260  174.2700  138.8670 C   0  0  0  0  0  1  0  0  0  0  0  0
  194.4970  170.9660  137.0270 C   0  0  0  0  0  3  0  0  0  0  0  0
  193.2170  169.8900  135.2830 C   0  0  0  0  0  3  0  0  0  0  0  0
  193.8980  169.8220  136.4990 C   0  0  0  0  0  0  0  0  0  0  0  0
  193.1500  171.1110  134.6080 C   0  0  0  0  0  3  0  0  0  0  0  0
  193.7370  172.2180  135.1400 N   0  0  0  0  0  0  0  0  0  0  0  0
  193.9830  168.6450  137.1630 F   0  0  0  0  0  0  0  0  0  0  0  0
  194.3920  172.1800  136.3350 C   0  0  0  0  0  0  0  0  0  0  0  0
  1 17  1  0  0  0  0
  2 14  2  0  0  0  0
  3  8  1  0  0  0  0
  4 12  2  0  0  0  0
  5 10  1  6  0  0  0
  6  9  1  0  0  0  0
  7  4  1  0  0  0  0
  7  2  1  0  0  0  0
  8 12  1  0  0  0  0
  8 21  1  0  0  0  0
  9  3  2  0  0  0  0
  9  4  1  0  0  0  0
 11  6  2  0  0  0  0
 11 13  1  0  0  0  0
 12  5  1  0  0  0  0
 13  7  2  0  0  0  0
 14  5  1  0  0  0  0
 14  1  1  0  0  0  0
 15 16  1  0  0  0  0
 16 18  1  0  0  0  0
 17 15  1  0  0  0  0
 17 20  2  0  0  0  0
 19 18  2  0  0  0  0
 20 19  1  0  0  0  0
 21 22  1  0  0  0  0
 23  3  1  0  0  0  0
 25 24  1  6  0  0  0
 25 26  1  0  0  0  0
 25 32  1  0  0  0  0
 25 23  1  0  0  0  0
 27 26  1  0  0  0  0
 29 27  1  0  0  0  0
 29 28  1  0  0  0  0
 30 29  2  0  0  0  0
 31 29  1  0  0  0  0
 33 32  1  1  0  0  0
 33 34  1  0  0  0  0
 34 36  1  6  0  0  0
 35 43  1  1  0  0  0
 35 33  1  0  0  0  0
 35 34  1  0  0  0  0
 38 39  2  0  0  0  0
 39 37  1  0  0  0  0
 39 42  1  0  0  0  0
 40 41  2  0  0  0  0
 40 38  1  0  0  0  0
 41 43  1  0  0  0  0
 43 37  2  0  0  0  0
M  END
>  <MODEL>
9

>  <REMARK>
 VINA RESULT:      -6.8      3.873      6.029
  Name = 
  10 active torsions:
  status: ('A' for Active; 'I' for Inactive)
    1  A    between atoms: C_1  and  C_21
    2  A    between atoms: N_3  and  C_17
    3  A    between atoms: C_6  and  C_38
    4  A    between atoms: C_9  and  O_20
    5  A    between atoms: C_9  and  C_35
    6  A    between atoms: P_15  and  O_20
    7  A    between atoms: N_16  and  C_26
    8  A    between atoms: C_21  and  C_35
    9  A    between atoms: C_29  and  C_41
   10  A    between atoms: C_35  and  C_38
                            x       y       z     vdW  Elec       q    Type
                         _______ _______ _______ _____ _____    ______ ____

>  <TORSDO>
F 10

$$$$
