=
 OpenBabel10232411253D

 36 39  0  0  1  0  0  0  0  0999 V2000
  189.9340  177.1430  141.0070 C   0  0  1  0  0  3  0  0  0  0  0  0
  191.4920  176.5370  142.7160 O   0  0  0  0  0  0  0  0  0  0  0  0
  189.2820  176.0600  143.2170 N   0  0  0  0  0  2  0  0  0  0  0  0
  190.2900  176.5930  142.3590 C   0  0  0  0  0  0  0  0  0  0  0  0
  187.9560  176.5780  143.2510 C   0  0  0  0  0  3  0  0  0  0  0  0
  187.5380  177.3200  144.2690 C   0  0  0  0  0  3  0  0  0  0  0  0
  185.5800  178.2900  145.4830 C   0  0  0  0  0  3  0  0  0  0  0  0
  185.5140  178.0990  143.0720 C   0  0  0  0  0  3  0  0  0  0  0  0
  184.1970  178.5720  143.0750 C   0  0  0  0  0  3  0  0  0  0  0  0
  183.5770  178.9120  144.2740 C   0  0  0  0  0  3  0  0  0  0  0  0
  186.2010  177.9340  144.2790 C   0  0  0  0  0  0  0  0  0  0  0  0
  184.2770  178.7900  145.4800 C   0  0  0  0  0  3  0  0  0  0  0  0
  188.9650  178.3340  141.0260 C   0  0  0  0  0  2  0  0  0  0  0  0
  184.9040  179.0370  138.7930 C   0  0  0  0  0  1  0  0  0  0  0  0
  186.3160  177.4060  137.4720 C   0  0  0  0  0  0  0  0  0  0  0  0
  186.0500  175.9300  135.8280 C   0  0  0  0  0  0  0  0  0  0  0  0
  187.6450  176.8630  137.0920 C   0  0  1  0  0  3  0  0  0  0  0  0
  188.2590  178.4110  139.7110 C   0  0  0  0  0  0  0  0  0  0  0  0
  186.1320  178.2800  138.5990 N   0  0  0  0  0  0  0  0  0  0  0  0
  185.3920  175.0690  134.8080 C   0  0  0  0  0  1  0  0  0  0  0  0
  188.9770  178.9710  137.2240 C   0  0  0  0  0  3  0  0  0  0  0  0
  186.9820  178.1470  139.7040 N   0  0  0  0  0  0  0  0  0  0  0  0
  185.3780  176.8700  136.6990 C   0  0  0  0  0  0  0  0  0  0  0  0
  187.3190  175.9030  136.0460 N   0  0  0  0  0  0  0  0  0  0  0  0
  188.9310  179.1230  138.6540 N   0  0  0  0  0  2  0  0  0  0  0  0
  188.4400  177.9780  136.5130 C   0  0  0  0  0  3  0  0  0  0  0  0
  182.7610  177.2370  136.8410 C   0  0  0  0  0  3  0  0  0  0  0  0
  183.9520  177.0660  136.7800 C   0  0  0  0  0  0  0  0  0  0  0  0
  191.0410  177.2120  140.1220 O   0  0  0  0  0  0  0  0  0  0  0  0
  190.9460  176.2310  139.1120 C   0  0  0  0  0  2  0  0  0  0  0  0
  191.5950  176.6420  137.9450 O   0  0  0  0  0  0  0  0  0  0  0  0
  192.9520  176.3720  138.1590 C   0  0  0  0  0  2  0  0  0  0  0  0
  193.2860  174.9340  137.7800 C   0  0  0  0  0  2  0  0  0  0  0  0
  195.3440  175.0220  138.9500 O   0  0  0  0  0  0  0  0  0  0  0  0
  194.7890  174.7450  137.6880 C   0  0  1  0  0  3  0  0  0  0  0  0
  195.2180  173.6690  138.6020 C   0  0  0  0  0  2  0  0  0  0  0  0
  1 13  1  1  0  0  0
  1  4  1  0  0  0  0
  3  5  1  0  0  0  0
  4  2  2  0  0  0  0
  4  3  1  0  0  0  0
  5  6  2  0  0  0  0
  6 11  1  0  0  0  0
  8  9  2  0  0  0  0
  8 11  1  0  0  0  0
  9 10  1  0  0  0  0
 10 12  2  0  0  0  0
 11  7  2  0  0  0  0
 12  7  1  0  0  0  0
 15 19  1  0  0  0  0
 16 24  2  0  0  0  0
 16 23  1  0  0  0  0
 17 26  1  6  0  0  0
 17 15  1  0  0  0  0
 18 13  1  0  0  0  0
 19 14  1  0  0  0  0
 19 22  1  0  0  0  0
 20 16  1  0  0  0  0
 21 25  1  0  0  0  0
 22 18  2  0  0  0  0
 23 28  1  0  0  0  0
 23 15  2  0  0  0  0
 24 17  1  0  0  0  0
 25 18  1  0  0  0  0
 26 21  2  0  0  0  0
 28 27  3  0  0  0  0
 29  1  1  0  0  0  0
 30 29  1  0  0  0  0
 31 32  1  0  0  0  0
 31 30  1  0  0  0  0
 33 32  1  0  0  0  0
 35 33  1  1  0  0  0
 35 36  1  0  0  0  0
 35 34  1  0  0  0  0
 36 34  1  0  0  0  0
M  END
>  <MODEL>
1

>  <REMARK>
 VINA RESULT:      -7.9      0.000      0.000
  Name = 
  12 active torsions:
  status: ('A' for Active; 'I' for Inactive)
    1  A    between atoms: C_3  and  C_12
    2  A    between atoms: C_3  and  C_17
    3  A    between atoms: C_6  and  N_26
    4  A    between atoms: C_7  and  C_34
    5  A    between atoms: O_8  and  C_22
    6  A    between atoms: O_8  and  C_30
    7  A    between atoms: C_17  and  C_28
    8  A    between atoms: C_17  and  O_31
    9  A    between atoms: C_18  and  C_25
   10  A    between atoms: C_22  and  O_31
   11  A    between atoms: C_25  and  C_30
   12  A    between atoms: C_27  and  C_32
                            x       y       z     vdW  Elec       q    Type
                         _______ _______ _______ _____ _____    ______ ____

>  <TORSDO>
F 12

$$$$
=
 OpenBabel10232411253D

 36 39  0  0  1  0  0  0  0  0999 V2000
  189.6800  176.8650  140.9750 C   0  0  1  0  0  3  0  0  0  0  0  0
  191.3640  176.6850  142.6620 O   0  0  0  0  0  0  0  0  0  0  0  0
  189.2380  176.0900  143.3600 N   0  0  0  0  0  2  0  0  0  0  0  0
  190.1480  176.5720  142.3720 C   0  0  0  0  0  0  0  0  0  0  0  0
  187.8690  176.4810  143.3910 C   0  0  0  0  0  3  0  0  0  0  0  0
  187.4620  177.4860  144.1570 C   0  0  0  0  0  3  0  0  0  0  0  0
  185.3720  178.0970  142.9300 C   0  0  0  0  0  3  0  0  0  0  0  0
  185.4580  178.3410  145.3360 C   0  0  0  0  0  3  0  0  0  0  0  0
  184.1770  178.9030  145.3210 C   0  0  0  0  0  3  0  0  0  0  0  0
  183.4910  179.0520  144.1180 C   0  0  0  0  0  3  0  0  0  0  0  0
  186.0700  177.9580  144.1370 C   0  0  0  0  0  0  0  0  0  0  0  0
  184.0830  178.6300  142.9210 C   0  0  0  0  0  3  0  0  0  0  0  0
  189.3260  178.3340  140.7040 C   0  0  0  0  0  2  0  0  0  0  0  0
  185.0000  178.9350  138.9980 C   0  0  0  0  0  1  0  0  0  0  0  0
  186.2960  177.3850  137.4750 C   0  0  0  0  0  0  0  0  0  0  0  0
  185.8810  175.9350  135.8380 C   0  0  0  0  0  0  0  0  0  0  0  0
  187.5860  176.8990  136.9230 C   0  0  1  0  0  3  0  0  0  0  0  0
  188.4620  178.4130  139.4870 C   0  0  0  0  0  0  0  0  0  0  0  0
  186.2210  178.2280  138.6380 N   0  0  0  0  0  0  0  0  0  0  0  0
  185.1320  175.0720  134.8840 C   0  0  0  0  0  1  0  0  0  0  0  0
  188.8520  179.0510  136.9460 C   0  0  0  0  0  3  0  0  0  0  0  0
  187.2040  178.1020  139.6270 N   0  0  0  0  0  0  0  0  0  0  0  0
  185.2890  176.8310  136.8080 C   0  0  0  0  0  0  0  0  0  0  0  0
  187.1670  175.9500  135.9010 N   0  0  0  0  0  0  0  0  0  0  0  0
  188.9760  179.1710  138.3740 N   0  0  0  0  0  2  0  0  0  0  0  0
  188.2660  178.0540  136.2800 C   0  0  0  0  0  3  0  0  0  0  0  0
  182.6980  177.1010  137.2780 C   0  0  0  0  0  3  0  0  0  0  0  0
  183.8780  176.9730  137.0660 C   0  0  0  0  0  0  0  0  0  0  0  0
  190.4200  176.1750  139.9810 O   0  0  0  0  0  0  0  0  0  0  0  0
  191.5180  176.9440  139.5390 C   0  0  0  0  0  2  0  0  0  0  0  0
  191.5340  177.0510  138.1460 O   0  0  0  0  0  0  0  0  0  0  0  0
  192.2310  175.9240  137.6940 C   0  0  0  0  0  2  0  0  0  0  0  0
  191.4820  175.2430  136.5540 C   0  0  0  0  0  2  0  0  0  0  0  0
  189.8690  173.7740  137.4750 O   0  0  0  0  0  0  0  0  0  0  0  0
  191.1580  173.8050  136.9150 C   0  0  1  0  0  3  0  0  0  0  0  0
  189.9870  173.3450  136.1450 C   0  0  0  0  0  2  0  0  0  0  0  0
  1 13  1  6  0  0  0
  1  4  1  0  0  0  0
  3  5  1  0  0  0  0
  4  2  2  0  0  0  0
  4  3  1  0  0  0  0
  5  6  2  0  0  0  0
  7 11  1  0  0  0  0
  9  8  1  0  0  0  0
 10  9  2  0  0  0  0
 11  6  1  0  0  0  0
 11  8  2  0  0  0  0
 12  7  2  0  0  0  0
 12 10  1  0  0  0  0
 15 19  1  0  0  0  0
 16 24  2  0  0  0  0
 16 23  1  0  0  0  0
 17 26  1  6  0  0  0
 17 15  1  0  0  0  0
 18 22  2  0  0  0  0
 18 13  1  0  0  0  0
 19 14  1  0  0  0  0
 19 22  1  0  0  0  0
 20 16  1  0  0  0  0
 21 25  1  0  0  0  0
 23 28  1  0  0  0  0
 23 15  2  0  0  0  0
 24 17  1  0  0  0  0
 25 18  1  0  0  0  0
 26 21  2  0  0  0  0
 28 27  3  0  0  0  0
 29  1  1  0  0  0  0
 30 29  1  0  0  0  0
 31 30  1  0  0  0  0
 32 31  1  0  0  0  0
 33 32  1  0  0  0  0
 35 33  1  6  0  0  0
 35 34  1  0  0  0  0
 36 35  1  0  0  0  0
 36 34  1  0  0  0  0
M  END
>  <MODEL>
2

>  <REMARK>
 VINA RESULT:      -7.8      1.174      1.792
  Name = 
  12 active torsions:
  status: ('A' for Active; 'I' for Inactive)
    1  A    between atoms: C_3  and  C_12
    2  A    between atoms: C_3  and  C_17
    3  A    between atoms: C_6  and  N_26
    4  A    between atoms: C_7  and  C_34
    5  A    between atoms: O_8  and  C_22
    6  A    between atoms: O_8  and  C_30
    7  A    between atoms: C_17  and  C_28
    8  A    between atoms: C_17  and  O_31
    9  A    between atoms: C_18  and  C_25
   10  A    between atoms: C_22  and  O_31
   11  A    between atoms: C_25  and  C_30
   12  A    between atoms: C_27  and  C_32
                            x       y       z     vdW  Elec       q    Type
                         _______ _______ _______ _____ _____    ______ ____

>  <TORSDO>
F 12

$$$$
=
 OpenBabel10232411253D

 36 39  0  0  1  0  0  0  0  0999 V2000
  191.1340  177.0910  142.5420 C   0  0  1  0  0  3  0  0  0  0  0  0
  191.3510  174.9420  143.5650 O   0  0  0  0  0  0  0  0  0  0  0  0
  189.1970  175.4800  142.9080 N   0  0  0  0  0  2  0  0  0  0  0  0
  190.5810  175.7930  143.0580 C   0  0  0  0  0  0  0  0  0  0  0  0
  188.1800  176.4770  142.9470 C   0  0  0  0  0  3  0  0  0  0  0  0
  187.3870  176.6030  144.0040 C   0  0  0  0  0  3  0  0  0  0  0  0
  185.8910  178.0970  145.3380 C   0  0  0  0  0  3  0  0  0  0  0  0
  185.8840  178.2490  142.9240 C   0  0  0  0  0  3  0  0  0  0  0  0
  184.8510  179.1900  142.9890 C   0  0  0  0  0  3  0  0  0  0  0  0
  184.3480  179.5920  144.2240 C   0  0  0  0  0  3  0  0  0  0  0  0
  186.3910  177.6810  144.0970 C   0  0  0  0  0  0  0  0  0  0  0  0
  184.8820  179.0580  145.4030 C   0  0  0  0  0  3  0  0  0  0  0  0
  190.1740  177.8990  141.6560 C   0  0  0  0  0  2  0  0  0  0  0  0
  189.1440  178.8130  137.1750 C   0  0  0  0  0  1  0  0  0  0  0  0
  189.8110  176.3830  137.4050 C   0  0  0  0  0  0  0  0  0  0  0  0
  189.6630  174.5010  136.2260 C   0  0  0  0  0  0  0  0  0  0  0  0
  190.5500  175.3090  138.1160 C   0  0  1  0  0  3  0  0  0  0  0  0
  190.4520  177.5880  140.2220 C   0  0  0  0  0  0  0  0  0  0  0  0
  189.6000  177.6860  137.9760 N   0  0  0  0  0  0  0  0  0  0  0  0
  189.2870  173.5470  135.1470 C   0  0  0  0  0  1  0  0  0  0  0  0
  192.5250  176.6360  138.8750 C   0  0  0  0  0  3  0  0  0  0  0  0
  189.4920  177.8040  139.3670 N   0  0  0  0  0  0  0  0  0  0  0  0
  189.3120  175.9040  136.2700 C   0  0  0  0  0  0  0  0  0  0  0  0
  190.3440  174.1490  137.2610 N   0  0  0  0  0  0  0  0  0  0  0  0
  191.8360  177.4440  139.8450 N   0  0  0  0  0  2  0  0  0  0  0  0
  191.9910  175.6770  138.1170 C   0  0  0  0  0  3  0  0  0  0  0  0
  187.7660  177.1530  134.5220 C   0  0  0  0  0  3  0  0  0  0  0  0
  188.4710  176.5880  135.3200 C   0  0  0  0  0  0  0  0  0  0  0  0
  191.8870  177.8020  143.5100 O   0  0  0  0  0  0  0  0  0  0  0  0
  191.1210  178.0520  144.6690 C   0  0  0  0  0  2  0  0  0  0  0  0
  191.7990  177.6460  145.8220 O   0  0  0  0  0  0  0  0  0  0  0  0
  190.8900  176.8470  146.5260 C   0  0  0  0  0  2  0  0  0  0  0  0
  189.5020  177.4780  146.5290 C   0  0  0  0  0  2  0  0  0  0  0  0
  189.2990  178.1660  148.7860 O   0  0  0  0  0  0  0  0  0  0  0  0
  188.8100  177.2320  147.8570 C   0  0  1  0  0  3  0  0  0  0  0  0
  188.0300  178.4220  148.2470 C   0  0  0  0  0  2  0  0  0  0  0  0
  1 13  1  1  0  0  0
  1  4  1  0  0  0  0
  1 29  1  0  0  0  0
  3  5  1  0  0  0  0
  3  4  1  0  0  0  0
  4  2  2  0  0  0  0
  5  6  2  0  0  0  0
  6 11  1  0  0  0  0
  7 12  1  0  0  0  0
  8  9  2  0  0  0  0
  8 11  1  0  0  0  0
  9 10  1  0  0  0  0
 10 12  2  0  0  0  0
 11  7  2  0  0  0  0
 14 19  1  0  0  0  0
 15 19  1  0  0  0  0
 15 17  1  0  0  0  0
 16 23  1  0  0  0  0
 16 24  2  0  0  0  0
 17 26  1  6  0  0  0
 18 13  1  0  0  0  0
 19 22  1  0  0  0  0
 20 16  1  0  0  0  0
 21 25  1  0  0  0  0
 22 18  2  0  0  0  0
 23 15  2  0  0  0  0
 24 17  1  0  0  0  0
 25 18  1  0  0  0  0
 26 21  2  0  0  0  0
 27 28  3  0  0  0  0
 28 23  1  0  0  0  0
 29 30  1  0  0  0  0
 30 31  1  0  0  0  0
 31 32  1  0  0  0  0
 32 33  1  0  0  0  0
 35 33  1  6  0  0  0
 35 36  1  0  0  0  0
 35 34  1  0  0  0  0
 36 34  1  0  0  0  0
M  END
>  <MODEL>
3

>  <REMARK>
 VINA RESULT:      -7.8      2.741      5.252
  Name = 
  12 active torsions:
  status: ('A' for Active; 'I' for Inactive)
    1  A    between atoms: C_3  and  C_12
    2  A    between atoms: C_3  and  C_17
    3  A    between atoms: C_6  and  N_26
    4  A    between atoms: C_7  and  C_34
    5  A    between atoms: O_8  and  C_22
    6  A    between atoms: O_8  and  C_30
    7  A    between atoms: C_17  and  C_28
    8  A    between atoms: C_17  and  O_31
    9  A    between atoms: C_18  and  C_25
   10  A    between atoms: C_22  and  O_31
   11  A    between atoms: C_25  and  C_30
   12  A    between atoms: C_27  and  C_32
                            x       y       z     vdW  Elec       q    Type
                         _______ _______ _______ _____ _____    ______ ____

>  <TORSDO>
F 12

$$$$
=
 OpenBabel10232411253D

 36 39  0  0  1  0  0  0  0  0999 V2000
  184.6880  178.9720  138.8540 C   0  0  1  0  0  3  0  0  0  0  0  0
  182.9950  177.4170  138.2010 O   0  0  0  0  0  0  0  0  0  0  0  0
  183.1640  177.7480  140.4860 N   0  0  0  0  0  2  0  0  0  0  0  0
  183.5910  177.9870  139.1460 C   0  0  0  0  0  0  0  0  0  0  0  0
  184.0580  177.8030  141.5930 C   0  0  0  0  0  3  0  0  0  0  0  0
  183.7280  178.4500  142.7050 C   0  0  0  0  0  3  0  0  0  0  0  0
  185.9360  178.0290  143.8000 C   0  0  0  0  0  3  0  0  0  0  0  0
  184.0690  178.7930  145.1340 C   0  0  0  0  0  3  0  0  0  0  0  0
  184.8520  178.6800  146.2880 C   0  0  0  0  0  3  0  0  0  0  0  0
  186.1750  178.2540  146.1980 C   0  0  0  0  0  3  0  0  0  0  0  0
  184.6010  178.4440  143.8890 C   0  0  0  0  0  0  0  0  0  0  0  0
  186.7240  177.9460  144.9480 C   0  0  0  0  0  3  0  0  0  0  0  0
  185.5430  178.6450  137.6220 C   0  0  0  0  0  2  0  0  0  0  0  0
  188.6090  177.4570  140.9640 C   0  0  0  0  0  1  0  0  0  0  0  0
  189.6350  177.0280  138.6930 C   0  0  0  0  0  0  0  0  0  0  0  0
  191.6500  176.6540  137.8240 C   0  0  0  0  0  0  0  0  0  0  0  0
  189.4890  176.7270  137.2460 C   0  0  1  0  0  3  0  0  0  0  0  0
  186.6610  177.7400  138.0280 C   0  0  0  0  0  0  0  0  0  0  0  0
  188.5310  177.4500  139.5110 N   0  0  0  0  0  0  0  0  0  0  0  0
  193.1280  176.5080  137.7180 C   0  0  0  0  0  1  0  0  0  0  0  0
  187.4420  175.3010  137.3520 C   0  0  0  0  0  3  0  0  0  0  0  0
  187.4970  178.1890  138.9210 N   0  0  0  0  0  0  0  0  0  0  0  0
  190.9170  176.9540  139.0350 C   0  0  0  0  0  0  0  0  0  0  0  0
  190.8650  176.5400  136.8090 N   0  0  0  0  0  0  0  0  0  0  0  0
  186.5150  176.3430  137.7050 N   0  0  0  0  0  2  0  0  0  0  0  0
  188.7490  175.4440  137.1230 C   0  0  0  0  0  3  0  0  0  0  0  0
  192.0000  177.4780  141.3920 C   0  0  0  0  0  3  0  0  0  0  0  0
  191.5030  177.2420  140.3200 C   0  0  0  0  0  0  0  0  0  0  0  0
  184.2910  180.3220  139.0370 O   0  0  0  0  0  0  0  0  0  0  0  0
  182.9060  180.4800  138.8110 C   0  0  0  0  0  2  0  0  0  0  0  0
  182.5470  181.8300  138.7950 O   0  0  0  0  0  0  0  0  0  0  0  0
  181.1860  181.8490  138.4700 C   0  0  0  0  0  2  0  0  0  0  0  0
  180.9470  182.6200  137.1760 C   0  0  0  0  0  2  0  0  0  0  0  0
  182.0190  184.7300  137.2470 O   0  0  0  0  0  0  0  0  0  0  0  0
  180.7810  184.1000  137.4630 C   0  0  1  0  0  3  0  0  0  0  0  0
  181.0520  184.8830  136.2420 C   0  0  0  0  0  2  0  0  0  0  0  0
  1 13  1  6  0  0  0
  1 29  1  0  0  0  0
  1  4  1  0  0  0  0
  2  4  2  0  0  0  0
  3  5  1  0  0  0  0
  4  3  1  0  0  0  0
  5  6  2  0  0  0  0
  6 11  1  0  0  0  0
  7 11  2  0  0  0  0
  7 12  1  0  0  0  0
  8  9  2  0  0  0  0
 10  9  1  0  0  0  0
 11  8  1  0  0  0  0
 12 10  2  0  0  0  0
 13 18  1  0  0  0  0
 15 23  2  0  0  0  0
 15 19  1  0  0  0  0
 16 23  1  0  0  0  0
 17 26  1  1  0  0  0
 17 15  1  0  0  0  0
 18 22  2  0  0  0  0
 19 14  1  0  0  0  0
 20 16  1  0  0  0  0
 21 25  1  0  0  0  0
 22 19  1  0  0  0  0
 23 28  1  0  0  0  0
 24 17  1  0  0  0  0
 24 16  2  0  0  0  0
 25 18  1  0  0  0  0
 26 21  2  0  0  0  0
 28 27  3  0  0  0  0
 30 29  1  0  0  0  0
 31 30  1  0  0  0  0
 32 31  1  0  0  0  0
 33 32  1  0  0  0  0
 34 35  1  0  0  0  0
 35 33  1  6  0  0  0
 36 34  1  0  0  0  0
 36 35  1  0  0  0  0
M  END
>  <MODEL>
4

>  <REMARK>
 VINA RESULT:      -7.6      4.061      7.951
  Name = 
  12 active torsions:
  status: ('A' for Active; 'I' for Inactive)
    1  A    between atoms: C_3  and  C_12
    2  A    between atoms: C_3  and  C_17
    3  A    between atoms: C_6  and  N_26
    4  A    between atoms: C_7  and  C_34
    5  A    between atoms: O_8  and  C_22
    6  A    between atoms: O_8  and  C_30
    7  A    between atoms: C_17  and  C_28
    8  A    between atoms: C_17  and  O_31
    9  A    between atoms: C_18  and  C_25
   10  A    between atoms: C_22  and  O_31
   11  A    between atoms: C_25  and  C_30
   12  A    between atoms: C_27  and  C_32
                            x       y       z     vdW  Elec       q    Type
                         _______ _______ _______ _____ _____    ______ ____

>  <TORSDO>
F 12

$$$$
=
 OpenBabel10232411253D

 36 39  0  0  1  0  0  0  0  0999 V2000
  188.9940  178.0360  140.5210 C   0  0  1  0  0  3  0  0  0  0  0  0
  190.8580  176.7090  139.8300 O   0  0  0  0  0  0  0  0  0  0  0  0
  190.2030  176.3760  142.0260 N   0  0  0  0  0  2  0  0  0  0  0  0
  190.0830  177.0310  140.7630 C   0  0  0  0  0  0  0  0  0  0  0  0
  189.8670  177.0170  143.2520 C   0  0  0  0  0  3  0  0  0  0  0  0
  188.8710  176.5680  144.0070 C   0  0  0  0  0  3  0  0  0  0  0  0
  189.5400  177.2360  146.3210 C   0  0  0  0  0  3  0  0  0  0  0  0
  187.2650  177.5980  145.5860 C   0  0  0  0  0  3  0  0  0  0  0  0
  186.9280  178.0570  146.8640 C   0  0  0  0  0  3  0  0  0  0  0  0
  187.8960  178.1160  147.8640 C   0  0  0  0  0  3  0  0  0  0  0  0
  188.5660  177.1630  145.3170 C   0  0  0  0  0  0  0  0  0  0  0  0
  189.2100  177.7230  147.5870 C   0  0  0  0  0  3  0  0  0  0  0  0
  189.0750  178.7680  139.1730 C   0  0  0  0  0  2  0  0  0  0  0  0
  185.5780  176.7370  136.8020 C   0  0  0  0  0  1  0  0  0  0  0  0
  187.5510  175.1570  136.9060 C   0  0  0  0  0  0  0  0  0  0  0  0
  187.9670  172.9950  136.5770 C   0  0  0  0  0  0  0  0  0  0  0  0
  189.0120  174.9230  137.0310 C   0  0  1  0  0  3  0  0  0  0  0  0
  188.6890  177.8260  138.0800 C   0  0  0  0  0  0  0  0  0  0  0  0
  186.9430  176.4270  137.2010 N   0  0  0  0  0  0  0  0  0  0  0  0
  187.7440  171.5480  136.3110 C   0  0  0  0  0  1  0  0  0  0  0  0
  189.8330  176.9650  135.8520 C   0  0  0  0  0  3  0  0  0  0  0  0
  187.5260  177.2440  138.1770 N   0  0  0  0  0  0  0  0  0  0  0  0
  186.9410  174.0150  136.6080 C   0  0  0  0  0  0  0  0  0  0  0  0
  189.1320  173.4860  136.8270 N   0  0  0  0  0  0  0  0  0  0  0  0
  189.4310  177.9220  136.8480 N   0  0  0  0  0  2  0  0  0  0  0  0
  189.6820  175.6410  135.9140 C   0  0  0  0  0  3  0  0  0  0  0  0
  184.3400  173.5870  136.3650 C   0  0  0  0  0  3  0  0  0  0  0  0
  185.5250  173.7830  136.4710 C   0  0  0  0  0  0  0  0  0  0  0  0
  187.7160  177.5910  140.9480 O   0  0  0  0  0  0  0  0  0  0  0  0
  186.9830  178.6420  141.5400 C   0  0  0  0  0  2  0  0  0  0  0  0
  185.9550  179.0780  140.6990 O   0  0  0  0  0  0  0  0  0  0  0  0
  184.7700  178.8210  141.3980 C   0  0  0  0  0  2  0  0  0  0  0  0
  185.0420  178.6630  142.8900 C   0  0  0  0  0  2  0  0  0  0  0  0
  182.9280  178.8390  143.9420 O   0  0  0  0  0  0  0  0  0  0  0  0
  184.1140  179.5520  143.6960 C   0  0  1  0  0  3  0  0  0  0  0  0
  183.8360  178.9330  145.0060 C   0  0  0  0  0  2  0  0  0  0  0  0
  1 13  1  6  0  0  0
  1  4  1  0  0  0  0
  1 29  1  0  0  0  0
  2  4  2  0  0  0  0
  3  5  1  0  0  0  0
  4  3  1  0  0  0  0
  5  6  2  0  0  0  0
  6 11  1  0  0  0  0
  7 12  1  0  0  0  0
  8  9  2  0  0  0  0
  9 10  1  0  0  0  0
 11  8  1  0  0  0  0
 11  7  2  0  0  0  0
 12 10  2  0  0  0  0
 14 19  1  0  0  0  0
 15 17  1  0  0  0  0
 15 19  1  0  0  0  0
 16 23  1  0  0  0  0
 16 24  2  0  0  0  0
 17 26  1  6  0  0  0
 18 22  2  0  0  0  0
 18 13  1  0  0  0  0
 19 22  1  0  0  0  0
 20 16  1  0  0  0  0
 21 26  2  0  0  0  0
 21 25  1  0  0  0  0
 23 15  2  0  0  0  0
 24 17  1  0  0  0  0
 25 18  1  0  0  0  0
 27 28  3  0  0  0  0
 28 23  1  0  0  0  0
 29 30  1  0  0  0  0
 31 32  1  0  0  0  0
 31 30  1  0  0  0  0
 32 33  1  0  0  0  0
 34 36  1  0  0  0  0
 35 33  1  6  0  0  0
 35 34  1  0  0  0  0
 35 36  1  0  0  0  0
M  END
>  <MODEL>
5

>  <REMARK>
 VINA RESULT:      -7.5      2.730      5.583
  Name = 
  12 active torsions:
  status: ('A' for Active; 'I' for Inactive)
    1  A    between atoms: C_3  and  C_12
    2  A    between atoms: C_3  and  C_17
    3  A    between atoms: C_6  and  N_26
    4  A    between atoms: C_7  and  C_34
    5  A    between atoms: O_8  and  C_22
    6  A    between atoms: O_8  and  C_30
    7  A    between atoms: C_17  and  C_28
    8  A    between atoms: C_17  and  O_31
    9  A    between atoms: C_18  and  C_25
   10  A    between atoms: C_22  and  O_31
   11  A    between atoms: C_25  and  C_30
   12  A    between atoms: C_27  and  C_32
                            x       y       z     vdW  Elec       q    Type
                         _______ _______ _______ _____ _____    ______ ____

>  <TORSDO>
F 12

$$$$
=
 OpenBabel10232411253D

 36 39  0  0  1  0  0  0  0  0999 V2000
  190.4420  177.4050  139.3310 C   0  0  1  0  0  3  0  0  0  0  0  0
  192.5700  177.4560  140.4170 O   0  0  0  0  0  0  0  0  0  0  0  0
  190.8010  176.8830  141.7960 N   0  0  0  0  0  0  0  0  0  0  0  0
  191.3330  177.2790  140.5330 C   0  0  0  0  0  0  0  0  0  0  0  0
  189.4870  177.2380  142.2160 C   0  0  0  0  0  3  0  0  0  0  0  0
  189.0640  176.9620  143.4430 C   0  0  0  0  0  2  0  0  0  0  0  0
  186.7230  177.7310  143.0200 C   0  0  0  0  0  3  0  0  0  0  0  0
  187.5250  177.5460  145.2950 C   0  0  0  0  0  3  0  0  0  0  0  0
  186.3150  178.0710  145.7600 C   0  0  0  0  0  3  0  0  0  0  0  0
  185.3080  178.4140  144.8610 C   0  0  0  0  0  3  0  0  0  0  0  0
  187.7420  177.3970  143.9210 C   0  0  0  0  0  0  0  0  0  0  0  0
  185.5060  178.2250  143.4880 C   0  0  0  0  0  3  0  0  0  0  0  0
  189.9430  176.0730  138.7500 C   0  0  0  0  0  2  0  0  0  0  0  0
  191.0240  172.8470  135.5260 C   0  0  0  0  0  1  0  0  0  0  0  0
  193.0660  173.3440  136.9340 C   0  0  0  0  0  0  0  0  0  0  0  0
  195.0540  172.4350  137.3570 C   0  0  0  0  0  0  0  0  0  0  0  0
  193.8430  174.2660  137.8000 C   0  0  1  0  0  3  0  0  0  0  0  0
  190.9970  175.5020  137.8580 C   0  0  0  0  0  0  0  0  0  0  0  0
  191.6880  173.5780  136.5950 N   0  0  0  0  0  0  0  0  0  0  0  0
  196.1800  171.4630  137.3600 C   0  0  0  0  0  1  0  0  0  0  0  0
  193.2060  176.4300  136.7310 C   0  0  0  0  0  3  0  0  0  0  0  0
  190.8730  174.2520  137.5120 N   0  0  0  0  0  0  0  0  0  0  0  0
  193.8010  172.2730  136.6510 C   0  0  0  0  0  0  0  0  0  0  0  0
  195.0870  173.5400  138.0190 N   0  0  0  0  0  0  0  0  0  0  0  0
  191.8320  176.4440  137.1560 N   0  0  0  0  0  2  0  0  0  0  0  0
  194.1180  175.4990  137.0160 C   0  0  0  0  0  3  0  0  0  0  0  0
  193.0660  170.1320  135.2810 C   0  0  0  0  0  3  0  0  0  0  0  0
  193.4050  171.1060  135.9040 C   0  0  0  0  0  0  0  0  0  0  0  0
  189.5050  178.4650  139.4370 O   0  0  0  0  0  0  0  0  0  0  0  0
  188.5890  178.4440  138.3640 C   0  0  0  0  0  2  0  0  0  0  0  0
  187.2700  178.5000  138.8230 O   0  0  0  0  0  0  0  0  0  0  0  0
  186.4790  178.1460  137.7230 C   0  0  0  0  0  2  0  0  0  0  0  0
  185.0080  178.0670  138.1160 C   0  0  0  0  0  2  0  0  0  0  0  0
  184.4620  180.1630  139.0720 O   0  0  0  0  0  0  0  0  0  0  0  0
  184.7600  178.8300  139.4040 C   0  0  1  0  0  3  0  0  0  0  0  0
  183.3780  179.3460  139.4250 C   0  0  0  0  0  2  0  0  0  0  0  0
  1 13  1  1  0  0  0
  1 29  1  0  0  0  0
  1  4  1  0  0  0  0
  2  4  2  0  0  0  0
  3  5  2  0  0  0  0
  4  3  1  0  0  0  0
  5  6  1  0  0  0  0
  6 11  1  0  0  0  0
  7 12  2  0  0  0  0
  7 11  1  0  0  0  0
  8  9  1  0  0  0  0
 10  9  2  0  0  0  0
 11  8  2  0  0  0  0
 12 10  1  0  0  0  0
 14 19  1  0  0  0  0
 15 17  1  0  0  0  0
 16 20  1  0  0  0  0
 16 24  2  0  0  0  0
 17 26  1  6  0  0  0
 17 24  1  0  0  0  0
 18 13  1  0  0  0  0
 19 15  1  0  0  0  0
 19 22  1  0  0  0  0
 21 26  2  0  0  0  0
 21 25  1  0  0  0  0
 22 18  2  0  0  0  0
 23 15  2  0  0  0  0
 23 16  1  0  0  0  0
 25 18  1  0  0  0  0
 27 28  3  0  0  0  0
 28 23  1  0  0  0  0
 30 31  1  0  0  0  0
 30 29  1  0  0  0  0
 32 33  1  0  0  0  0
 32 31  1  0  0  0  0
 34 35  1  0  0  0  0
 34 36  1  0  0  0  0
 35 33  1  6  0  0  0
 35 36  1  0  0  0  0
M  END
>  <MODEL>
6

>  <REMARK>
 VINA RESULT:      -7.4      2.964      6.962
  Name = 
  12 active torsions:
  status: ('A' for Active; 'I' for Inactive)
    1  A    between atoms: C_3  and  C_12
    2  A    between atoms: C_3  and  C_17
    3  A    between atoms: C_6  and  N_26
    4  A    between atoms: C_7  and  C_34
    5  A    between atoms: O_8  and  C_22
    6  A    between atoms: O_8  and  C_30
    7  A    between atoms: C_17  and  C_28
    8  A    between atoms: C_17  and  O_31
    9  A    between atoms: C_18  and  C_25
   10  A    between atoms: C_22  and  O_31
   11  A    between atoms: C_25  and  C_30
   12  A    between atoms: C_27  and  C_32
                            x       y       z     vdW  Elec       q    Type
                         _______ _______ _______ _____ _____    ______ ____

>  <TORSDO>
F 12

$$$$
=
 OpenBabel10232411253D

 36 39  0  0  1  0  0  0  0  0999 V2000
  189.1330  177.3660  142.8030 C   0  0  1  0  0  3  0  0  0  0  0  0
  190.4270  175.3610  142.9320 O   0  0  0  0  0  0  0  0  0  0  0  0
  190.5840  176.4770  140.9090 N   0  0  0  0  0  2  0  0  0  0  0  0
  190.0570  176.3310  142.2270 C   0  0  0  0  0  0  0  0  0  0  0  0
  189.8480  177.0920  139.8570 C   0  0  0  0  0  3  0  0  0  0  0  0
  189.8790  176.6010  138.6240 C   0  0  0  0  0  3  0  0  0  0  0  0
  187.9110  177.9230  137.8310 C   0  0  0  0  0  3  0  0  0  0  0  0
  189.3910  176.8990  136.2140 C   0  0  0  0  0  3  0  0  0  0  0  0
  188.5550  177.3340  135.1790 C   0  0  0  0  0  3  0  0  0  0  0  0
  187.4090  178.0690  135.4670 C   0  0  0  0  0  3  0  0  0  0  0  0
  189.0580  177.1710  137.5450 C   0  0  0  0  0  0  0  0  0  0  0  0
  187.0960  178.3820  136.7950 C   0  0  0  0  0  3  0  0  0  0  0  0
  187.8080  176.8180  143.3540 C   0  0  0  0  0  2  0  0  0  0  0  0
  184.0520  179.3900  144.4730 C   0  0  0  0  0  1  0  0  0  0  0  0
  183.6910  178.3190  142.2100 C   0  0  0  0  0  0  0  0  0  0  0  0
  182.0050  177.9080  140.8160 C   0  0  0  0  0  0  0  0  0  0  0  0
  184.2340  177.7410  140.9540 C   0  0  1  0  0  3  0  0  0  0  0  0
  186.6830  177.6690  142.8590 C   0  0  0  0  0  0  0  0  0  0  0  0
  184.5110  178.5650  143.3660 N   0  0  0  0  0  0  0  0  0  0  0  0
  180.6210  177.8110  140.2780 C   0  0  0  0  0  1  0  0  0  0  0  0
  186.2670  179.1720  140.7180 C   0  0  0  0  0  3  0  0  0  0  0  0
  185.6140  177.7340  143.6010 N   0  0  0  0  0  0  0  0  0  0  0  0
  182.3720  178.4420  142.1100 C   0  0  0  0  0  0  0  0  0  0  0  0
  183.0360  177.4970  140.1620 N   0  0  0  0  0  0  0  0  0  0  0  0
  186.9990  178.6290  141.8310 N   0  0  0  0  0  2  0  0  0  0  0  0
  185.0610  178.7870  140.2970 C   0  0  0  0  0  3  0  0  0  0  0  0
  180.6730  179.2580  143.9690 C   0  0  0  0  0  3  0  0  0  0  0  0
  181.4500  178.8890  143.1240 C   0  0  0  0  0  0  0  0  0  0  0  0
  189.8050  178.3510  143.5710 O   0  0  0  0  0  0  0  0  0  0  0  0
  189.6730  178.0960  144.9530 C   0  0  0  0  0  2  0  0  0  0  0  0
  190.8050  177.4500  145.4590 O   0  0  0  0  0  0  0  0  0  0  0  0
  190.4070  176.9130  146.6890 C   0  0  0  0  0  2  0  0  0  0  0  0
  188.8880  176.9130  146.8160 C   0  0  0  0  0  2  0  0  0  0  0  0
  188.9780  178.4750  148.5950 O   0  0  0  0  0  0  0  0  0  0  0  0
  188.4750  177.2090  148.2460 C   0  0  1  0  0  3  0  0  0  0  0  0
  187.6120  178.4040  148.2840 C   0  0  0  0  0  2  0  0  0  0  0  0
  1 13  1  1  0  0  0
  1 29  1  0  0  0  0
  3  4  1  0  0  0  0
  4  1  1  0  0  0  0
  4  2  2  0  0  0  0
  5  3  1  0  0  0  0
  6  5  2  0  0  0  0
  8 11  2  0  0  0  0
  9 10  2  0  0  0  0
  9  8  1  0  0  0  0
 10 12  1  0  0  0  0
 11  7  1  0  0  0  0
 11  6  1  0  0  0  0
 12  7  2  0  0  0  0
 15 19  1  0  0  0  0
 16 23  1  0  0  0  0
 17 26  1  6  0  0  0
 17 15  1  0  0  0  0
 18 13  1  0  0  0  0
 18 22  2  0  0  0  0
 19 22  1  0  0  0  0
 19 14  1  0  0  0  0
 20 16  1  0  0  0  0
 21 25  1  0  0  0  0
 23 15  2  0  0  0  0
 23 28  1  0  0  0  0
 24 16  2  0  0  0  0
 24 17  1  0  0  0  0
 25 18  1  0  0  0  0
 26 21  2  0  0  0  0
 28 27  3  0  0  0  0
 29 30  1  0  0  0  0
 30 31  1  0  0  0  0
 31 32  1  0  0  0  0
 32 33  1  0  0  0  0
 35 33  1  6  0  0  0
 35 36  1  0  0  0  0
 35 34  1  0  0  0  0
 36 34  1  0  0  0  0
M  END
>  <MODEL>
7

>  <REMARK>
 VINA RESULT:      -7.3      3.038      7.050
  Name = 
  12 active torsions:
  status: ('A' for Active; 'I' for Inactive)
    1  A    between atoms: C_3  and  C_12
    2  A    between atoms: C_3  and  C_17
    3  A    between atoms: C_6  and  N_26
    4  A    between atoms: C_7  and  C_34
    5  A    between atoms: O_8  and  C_22
    6  A    between atoms: O_8  and  C_30
    7  A    between atoms: C_17  and  C_28
    8  A    between atoms: C_17  and  O_31
    9  A    between atoms: C_18  and  C_25
   10  A    between atoms: C_22  and  O_31
   11  A    between atoms: C_25  and  C_30
   12  A    between atoms: C_27  and  C_32
                            x       y       z     vdW  Elec       q    Type
                         _______ _______ _______ _____ _____    ______ ____

>  <TORSDO>
F 12

$$$$
=
 OpenBabel10232411253D

 36 39  0  0  1  0  0  0  0  0999 V2000
  188.0960  178.0080  139.0350 C   0  0  1  0  0  3  0  0  0  0  0  0
  190.2120  177.3400  138.1460 O   0  0  0  0  0  0  0  0  0  0  0  0
  188.3890  176.6980  136.8720 N   0  0  0  0  0  2  0  0  0  0  0  0
  188.9640  177.3170  138.0210 C   0  0  0  0  0  0  0  0  0  0  0  0
  187.1070  176.0780  136.8990 C   0  0  0  0  0  3  0  0  0  0  0  0
  186.9870  174.7610  137.0120 C   0  0  0  0  0  3  0  0  0  0  0  0
  185.5480  172.7180  137.0860 C   0  0  0  0  0  3  0  0  0  0  0  0
  184.5220  174.9050  137.2130 C   0  0  0  0  0  3  0  0  0  0  0  0
  183.2570  174.3080  137.2060 C   0  0  0  0  0  3  0  0  0  0  0  0
  183.1370  172.9210  137.1500 C   0  0  0  0  0  3  0  0  0  0  0  0
  185.6720  174.1120  137.1290 C   0  0  0  0  0  0  0  0  0  0  0  0
  184.2870  172.1230  137.1090 C   0  0  0  0  0  3  0  0  0  0  0  0
  188.8550  178.6830  140.1870 C   0  0  0  0  0  2  0  0  0  0  0  0
  185.6180  177.6740  143.4230 C   0  0  0  0  0  1  0  0  0  0  0  0
  187.8960  177.7770  144.5180 C   0  0  0  0  0  0  0  0  0  0  0  0
  188.7480  177.9350  146.5680 C   0  0  0  0  0  0  0  0  0  0  0  0
  189.3740  177.6570  144.4370 C   0  0  1  0  0  3  0  0  0  0  0  0
  188.5430  177.9700  141.4620 C   0  0  0  0  0  0  0  0  0  0  0  0
  187.0600  177.8530  143.3500 N   0  0  0  0  0  0  0  0  0  0  0  0
  188.8300  178.1010  148.0450 C   0  0  0  0  0  1  0  0  0  0  0  0
  189.5220  175.8530  142.7170 C   0  0  0  0  0  3  0  0  0  0  0  0
  187.5740  178.4470  142.1910 N   0  0  0  0  0  0  0  0  0  0  0  0
  187.5300  177.9120  145.7890 C   0  0  0  0  0  0  0  0  0  0  0  0
  189.7920  177.8090  145.8240 N   0  0  0  0  0  0  0  0  0  0  0  0
  189.0580  176.6310  141.6000 N   0  0  0  0  0  2  0  0  0  0  0  0
  189.6910  176.2820  143.9690 C   0  0  0  0  0  3  0  0  0  0  0  0
  185.0870  178.3130  146.7250 C   0  0  0  0  0  3  0  0  0  0  0  0
  186.2010  178.1300  146.3030 C   0  0  0  0  0  0  0  0  0  0  0  0
  187.0180  178.7230  138.4540 O   0  0  0  0  0  0  0  0  0  0  0  0
  185.8000  178.4220  139.1000 C   0  0  0  0  0  2  0  0  0  0  0  0
  185.1670  179.5820  139.5550 O   0  0  0  0  0  0  0  0  0  0  0  0
  183.8040  179.3820  139.3100 C   0  0  0  0  0  2  0  0  0  0  0  0
  183.2940  178.1500  140.0500 C   0  0  0  0  0  2  0  0  0  0  0  0
  181.2450  179.2610  140.4690 O   0  0  0  0  0  0  0  0  0  0  0  0
  182.2760  178.5470  141.1030 C   0  0  1  0  0  3  0  0  0  0  0  0
  180.9720  177.9260  140.8020 C   0  0  0  0  0  2  0  0  0  0  0  0
  1 13  1  6  0  0  0
  3  5  1  0  0  0  0
  3  4  1  0  0  0  0
  4  2  2  0  0  0  0
  4  1  1  0  0  0  0
  5  6  2  0  0  0  0
  6 11  1  0  0  0  0
  7 12  2  0  0  0  0
  7 11  1  0  0  0  0
  9  8  1  0  0  0  0
 10  9  2  0  0  0  0
 11  8  2  0  0  0  0
 12 10  1  0  0  0  0
 13 18  1  0  0  0  0
 15 23  2  0  0  0  0
 16 20  1  0  0  0  0
 17 26  1  1  0  0  0
 17 15  1  0  0  0  0
 17 24  1  0  0  0  0
 18 25  1  0  0  0  0
 18 22  2  0  0  0  0
 19 14  1  0  0  0  0
 19 15  1  0  0  0  0
 21 26  2  0  0  0  0
 22 19  1  0  0  0  0
 23 28  1  0  0  0  0
 23 16  1  0  0  0  0
 24 16  2  0  0  0  0
 25 21  1  0  0  0  0
 28 27  3  0  0  0  0
 29  1  1  0  0  0  0
 29 30  1  0  0  0  0
 30 31  1  0  0  0  0
 32 31  1  0  0  0  0
 32 33  1  0  0  0  0
 34 36  1  0  0  0  0
 34 35  1  0  0  0  0
 35 33  1  6  0  0  0
 36 35  1  0  0  0  0
M  END
>  <MODEL>
8

>  <REMARK>
 VINA RESULT:      -7.3      3.039      8.508
  Name = 
  12 active torsions:
  status: ('A' for Active; 'I' for Inactive)
    1  A    between atoms: C_3  and  C_12
    2  A    between atoms: C_3  and  C_17
    3  A    between atoms: C_6  and  N_26
    4  A    between atoms: C_7  and  C_34
    5  A    between atoms: O_8  and  C_22
    6  A    between atoms: O_8  and  C_30
    7  A    between atoms: C_17  and  C_28
    8  A    between atoms: C_17  and  O_31
    9  A    between atoms: C_18  and  C_25
   10  A    between atoms: C_22  and  O_31
   11  A    between atoms: C_25  and  C_30
   12  A    between atoms: C_27  and  C_32
                            x       y       z     vdW  Elec       q    Type
                         _______ _______ _______ _____ _____    ______ ____

>  <TORSDO>
F 12

$$$$
=
 OpenBabel10232411253D

 36 39  0  0  1  0  0  0  0  0999 V2000
  185.2330  178.5980  140.7300 C   0  0  1  0  0  3  0  0  0  0  0  0
  182.9480  178.0160  141.1210 O   0  0  0  0  0  0  0  0  0  0  0  0
  184.1830  178.4070  143.0410 N   0  0  0  0  0  0  0  0  0  0  0  0
  184.0630  178.2990  141.6230 C   0  0  0  0  0  0  0  0  0  0  0  0
  185.3930  178.1100  143.7300 C   0  0  0  0  0  3  0  0  0  0  0  0
  185.5480  178.4310  145.0090 C   0  0  0  0  0  2  0  0  0  0  0  0
  186.7970  178.1510  147.1550 C   0  0  0  0  0  3  0  0  0  0  0  0
  187.9020  177.6630  145.0590 C   0  0  0  0  0  3  0  0  0  0  0  0
  189.0940  177.4160  145.7490 C   0  0  0  0  0  3  0  0  0  0  0  0
  189.1350  177.5250  147.1370 C   0  0  0  0  0  3  0  0  0  0  0  0
  186.7560  178.0550  145.7590 C   0  0  0  0  0  0  0  0  0  0  0  0
  187.9790  177.8750  147.8440 C   0  0  0  0  0  3  0  0  0  0  0  0
  184.8740  179.2500  139.3860 C   0  0  0  0  0  2  0  0  0  0  0  0
  183.7960  176.0870  136.0970 C   0  0  0  0  0  1  0  0  0  0  0  0
  186.1510  175.6710  136.9230 C   0  0  0  0  0  0  0  0  0  0  0  0
  187.6720  174.0470  136.8550 C   0  0  0  0  0  0  0  0  0  0  0  0
  187.4110  176.1650  137.5330 C   0  0  1  0  0  3  0  0  0  0  0  0
  185.3710  178.3840  138.2740 C   0  0  0  0  0  0  0  0  0  0  0  0
  184.9320  176.4340  136.9390 N   0  0  0  0  0  0  0  0  0  0  0  0
  188.2990  172.7220  136.6020 C   0  0  0  0  0  1  0  0  0  0  0  0
  187.4150  178.4780  136.5920 C   0  0  0  0  0  3  0  0  0  0  0  0
  184.6930  177.3020  138.0110 N   0  0  0  0  0  0  0  0  0  0  0  0
  186.3220  174.4240  136.4970 C   0  0  0  0  0  0  0  0  0  0  0  0
  188.2910  175.0070  137.4510 N   0  0  0  0  0  0  0  0  0  0  0  0
  186.3030  178.9840  137.3530 N   0  0  0  0  0  2  0  0  0  0  0  0
  187.9370  177.2520  136.6660 C   0  0  0  0  0  3  0  0  0  0  0  0
  184.5070  172.8260  135.4180 C   0  0  0  0  0  3  0  0  0  0  0  0
  185.3350  173.5500  135.9120 C   0  0  0  0  0  0  0  0  0  0  0  0
  186.3540  179.1140  141.4290 O   0  0  0  0  0  0  0  0  0  0  0  0
  187.5010  178.3230  141.2080 C   0  0  0  0  0  2  0  0  0  0  0  0
  188.2030  178.7530  140.0780 O   0  0  0  0  0  0  0  0  0  0  0  0
  189.3800  177.9960  140.0620 C   0  0  0  0  0  2  0  0  0  0  0  0
  189.6530  177.3850  141.4310 C   0  0  0  0  0  2  0  0  0  0  0  0
  191.4610  178.1010  142.7820 O   0  0  0  0  0  0  0  0  0  0  0  0
  191.1460  177.2860  141.6810 C   0  0  1  0  0  3  0  0  0  0  0  0
  191.3960  176.7200  143.0200 C   0  0  0  0  0  2  0  0  0  0  0  0
  1 13  1  6  0  0  0
  1 29  1  0  0  0  0
  1  4  1  0  0  0  0
  2  4  2  0  0  0  0
  3  5  2  0  0  0  0
  4  3  1  0  0  0  0
  5  6  1  0  0  0  0
  6 11  1  0  0  0  0
  7 12  1  0  0  0  0
  8  9  2  0  0  0  0
  8 11  1  0  0  0  0
  9 10  1  0  0  0  0
 10 12  2  0  0  0  0
 11  7  2  0  0  0  0
 14 19  1  0  0  0  0
 15 19  1  0  0  0  0
 15 17  1  0  0  0  0
 16 24  2  0  0  0  0
 17 26  1  6  0  0  0
 18 13  1  0  0  0  0
 19 22  1  0  0  0  0
 20 16  1  0  0  0  0
 21 26  2  0  0  0  0
 21 25  1  0  0  0  0
 22 18  2  0  0  0  0
 23 16  1  0  0  0  0
 23 15  2  0  0  0  0
 24 17  1  0  0  0  0
 25 18  1  0  0  0  0
 27 28  3  0  0  0  0
 28 23  1  0  0  0  0
 30 29  1  0  0  0  0
 31 30  1  0  0  0  0
 32 31  1  0  0  0  0
 32 33  1  0  0  0  0
 34 36  1  0  0  0  0
 35 33  1  1  0  0  0
 35 34  1  0  0  0  0
 35 36  1  0  0  0  0
M  END
>  <MODEL>
9

>  <REMARK>
 VINA RESULT:      -7.3      2.811      4.393
  Name = 
  12 active torsions:
  status: ('A' for Active; 'I' for Inactive)
    1  A    between atoms: C_3  and  C_12
    2  A    between atoms: C_3  and  C_17
    3  A    between atoms: C_6  and  N_26
    4  A    between atoms: C_7  and  C_34
    5  A    between atoms: O_8  and  C_22
    6  A    between atoms: O_8  and  C_30
    7  A    between atoms: C_17  and  C_28
    8  A    between atoms: C_17  and  O_31
    9  A    between atoms: C_18  and  C_25
   10  A    between atoms: C_22  and  O_31
   11  A    between atoms: C_25  and  C_30
   12  A    between atoms: C_27  and  C_32
                            x       y       z     vdW  Elec       q    Type
                         _______ _______ _______ _____ _____    ______ ____

>  <TORSDO>
F 12

$$$$
