=
 OpenBabel10232408503D

 25 26  0  0  1  0  0  0  0  0999 V2000
  188.6410  177.4510  142.3780 C   0  0  0  0  0  0  0  0  0  0  0  0
  187.4320  177.6860  142.8320 C   0  0  0  0  0  0  0  0  0  0  0  0
  186.2330  177.9230  143.2840 C   0  0  0  0  0  3  0  0  0  0  0  0
  191.5940  177.1800  145.6100 C   0  0  0  0  0  0  0  0  0  0  0  0
  191.6990  176.8940  146.8320 O   0  0  0  0  0  0  0  0  0  0  0  0
  191.3540  176.0890  144.6370 C   0  0  0  0  0  0  0  0  0  0  0  0
  190.7790  178.6330  143.0010 C   0  0  0  0  0  3  0  0  0  0  0  0
  192.0100  174.7690  144.8880 C   0  0  0  0  0  1  0  0  0  0  0  0
  190.5500  175.2500  142.5780 O   0  0  0  0  0  1  0  0  0  0  0  0
  190.5950  176.2540  143.5440 C   0  0  0  0  0  0  0  0  0  0  0  0
  191.8240  178.5390  145.2020 N   0  0  0  0  0  2  0  0  0  0  0  0
  191.6640  179.0900  143.8850 C   0  0  0  0  0  3  0  0  0  0  0  0
  189.8210  177.5360  143.3400 C   0  0  2  0  0  3  0  0  0  0  0  0
  189.4030  177.7730  136.7190 N   0  0  0  0  0  1  0  0  0  0  0  0
  187.9160  178.2110  140.1010 C   0  0  0  0  0  3  0  0  0  0  0  0
  188.8370  177.5200  140.9070 C   0  0  0  0  0  0  0  0  0  0  0  0
  189.2130  177.6890  138.1260 C   0  0  0  0  0  0  0  0  0  0  0  0
  188.1020  178.2930  138.7180 C   0  0  0  0  0  3  0  0  0  0  0  0
  189.9540  176.9230  140.2990 C   0  0  0  0  0  3  0  0  0  0  0  0
  190.1410  177.0050  138.9160 C   0  0  0  0  0  3  0  0  0  0  0  0
  186.0560  178.6540  144.5680 C   0  0  0  0  0  2  0  0  0  0  0  0
  187.5320  177.6900  146.2940 C   0  0  0  0  0  1  0  0  0  0  0  0
  186.1210  177.6930  145.7440 C   0  0  1  0  0  3  0  0  0  0  0  0
  185.1660  178.1240  146.8470 C   0  0  0  0  0  2  0  0  0  0  0  0
  184.1480  178.9200  146.3210 O   0  0  0  0  0  1  0  0  0  0  0  0
  1  2  2  0  0  0  0
  2  3  2  0  0  0  0
  3 21  1  0  0  0  0
  4  5  2  0  0  0  0
  6  8  1  0  0  0  0
  6  4  1  0  0  0  0
  7 13  1  0  0  0  0
  7 12  2  0  0  0  0
  9 10  1  0  0  0  0
 10  6  2  0  0  0  0
 11  4  1  0  0  0  0
 12 11  1  0  0  0  0
 13  1  1  6  0  0  0
 13 10  1  0  0  0  0
 14 17  1  0  0  0  0
 15 16  1  0  0  0  0
 16  1  1  0  0  0  0
 17 18  1  0  0  0  0
 17 20  2  0  0  0  0
 18 15  2  0  0  0  0
 19 16  2  0  0  0  0
 20 19  1  0  0  0  0
 21 23  1  0  0  0  0
 23 22  1  1  0  0  0
 23 24  1  0  0  0  0
 25 24  1  0  0  0  0
M  END
>  <MODEL>
1

>  <REMARK>
 VINA RESULT:      -7.7      0.000      0.000
  Name = 
  5 active torsions:
  status: ('A' for Active; 'I' for Inactive)
    1  A    between atoms: C_3  and  C_8
    2  A    between atoms: C_3  and  C_24
    3  A    between atoms: C_9  and  C_14
    4  A    between atoms: C_10  and  C_12
    5  A    between atoms: C_10  and  C_14
                            x       y       z     vdW  Elec       q    Type
                         _______ _______ _______ _____ _____    ______ ____

>  <TORSDO>
F 5

$$$$
=
 OpenBabel10232408503D

 25 26  0  0  1  0  0  0  0  0999 V2000
  186.3470  177.8140  144.2010 C   0  0  0  0  0  0  0  0  0  0  0  0
  186.6430  177.7700  145.4800 C   0  0  0  0  0  0  0  0  0  0  0  0
  186.9390  177.7310  146.7480 C   0  0  0  0  0  3  0  0  0  0  0  0
  190.0960  177.7990  141.9230 C   0  0  0  0  0  0  0  0  0  0  0  0
  191.3230  178.0580  142.0370 O   0  0  0  0  0  0  0  0  0  0  0  0
  189.5520  176.5980  142.5980 C   0  0  0  0  0  0  0  0  0  0  0  0
  187.0240  178.1630  141.7990 C   0  0  0  0  0  3  0  0  0  0  0  0
  190.4170  175.3800  142.6650 C   0  0  0  0  0  1  0  0  0  0  0  0
  187.7990  175.3560  143.5860 O   0  0  0  0  0  1  0  0  0  0  0  0
  188.3190  176.5640  143.1230 C   0  0  0  0  0  0  0  0  0  0  0  0
  189.3000  178.6190  141.0510 N   0  0  0  0  0  2  0  0  0  0  0  0
  187.8790  178.5540  140.8540 C   0  0  0  0  0  3  0  0  0  0  0  0
  187.4800  177.8200  143.1800 C   0  0  2  0  0  3  0  0  0  0  0  0
  181.0590  179.4770  142.7940 N   0  0  0  0  0  1  0  0  0  0  0  0
  184.5230  178.1490  142.5140 C   0  0  0  0  0  3  0  0  0  0  0  0
  184.9770  178.2610  143.8390 C   0  0  0  0  0  0  0  0  0  0  0  0
  182.3750  179.0670  143.1450 C   0  0  0  0  0  0  0  0  0  0  0  0
  183.2300  178.5520  142.1680 C   0  0  0  0  0  3  0  0  0  0  0  0
  184.1040  178.7730  144.8130 C   0  0  0  0  0  3  0  0  0  0  0  0
  182.8100  179.1760  144.4680 C   0  0  0  0  0  3  0  0  0  0  0  0
  188.3070  178.1010  147.2020 C   0  0  0  0  0  2  0  0  0  0  0  0
  190.1630  178.2760  145.5850 C   0  0  0  0  0  1  0  0  0  0  0  0
  189.3570  177.3150  146.4330 C   0  0  1  0  0  3  0  0  0  0  0  0
  190.2970  176.5950  147.3880 C   0  0  0  0  0  2  0  0  0  0  0  0
  191.6240  176.8820  147.0660 O   0  0  0  0  0  1  0  0  0  0  0  0
  1  2  2  0  0  0  0
  2  3  2  0  0  0  0
  3 21  1  0  0  0  0
  4  5  2  0  0  0  0
  4  6  1  0  0  0  0
  6  8  1  0  0  0  0
  6 10  2  0  0  0  0
  7 13  1  0  0  0  0
 10 13  1  0  0  0  0
 10  9  1  0  0  0  0
 11  4  1  0  0  0  0
 12 11  1  0  0  0  0
 12  7  2  0  0  0  0
 13  1  1  1  0  0  0
 14 17  1  0  0  0  0
 15 16  1  0  0  0  0
 16  1  1  0  0  0  0
 16 19  2  0  0  0  0
 17 20  2  0  0  0  0
 18 15  2  0  0  0  0
 18 17  1  0  0  0  0
 20 19  1  0  0  0  0
 23 22  1  1  0  0  0
 23 21  1  0  0  0  0
 23 24  1  0  0  0  0
 25 24  1  0  0  0  0
M  END
>  <MODEL>
2

>  <REMARK>
 VINA RESULT:      -7.6      2.947      5.278
  Name = 
  5 active torsions:
  status: ('A' for Active; 'I' for Inactive)
    1  A    between atoms: C_3  and  C_8
    2  A    between atoms: C_3  and  C_24
    3  A    between atoms: C_9  and  C_14
    4  A    between atoms: C_10  and  C_12
    5  A    between atoms: C_10  and  C_14
                            x       y       z     vdW  Elec       q    Type
                         _______ _______ _______ _____ _____    ______ ____

>  <TORSDO>
F 5

$$$$
=
 OpenBabel10232408503D

 25 26  0  0  1  0  0  0  0  0999 V2000
  189.2290  177.5670  143.6950 C   0  0  0  0  0  0  0  0  0  0  0  0
  187.9420  177.7280  143.8960 C   0  0  0  0  0  0  0  0  0  0  0  0
  186.6630  177.8830  144.0940 C   0  0  0  0  0  3  0  0  0  0  0  0
  190.0140  176.6410  139.4800 C   0  0  0  0  0  0  0  0  0  0  0  0
  189.7170  175.8150  138.5770 O   0  0  0  0  0  0  0  0  0  0  0  0
  188.9920  177.6200  139.9190 C   0  0  0  0  0  0  0  0  0  0  0  0
  191.1580  177.8370  142.0960 C   0  0  0  0  0  3  0  0  0  0  0  0
  188.0600  178.1710  138.8870 C   0  0  0  0  0  1  0  0  0  0  0  0
  188.0340  179.0870  141.5060 O   0  0  0  0  0  1  0  0  0  0  0  0
  188.8950  178.0370  141.1890 C   0  0  0  0  0  0  0  0  0  0  0  0
  191.3660  176.6700  139.9650 N   0  0  0  0  0  2  0  0  0  0  0  0
  191.8860  177.4610  141.0450 C   0  0  0  0  0  3  0  0  0  0  0  0
  189.7390  177.3990  142.2680 C   0  0  2  0  0  3  0  0  0  0  0  0
  192.4320  176.0170  148.1720 N   0  0  0  0  0  1  0  0  0  0  0  0
  191.2240  176.4070  144.6750 C   0  0  0  0  0  3  0  0  0  0  0  0
  190.0500  177.1550  144.8630 C   0  0  0  0  0  0  0  0  0  0  0  0
  191.6330  176.4010  147.0610 C   0  0  0  0  0  0  0  0  0  0  0  0
  192.0100  176.0290  145.7680 C   0  0  0  0  0  3  0  0  0  0  0  0
  189.6860  177.5280  146.1680 C   0  0  0  0  0  3  0  0  0  0  0  0
  190.4720  177.1520  147.2610 C   0  0  0  0  0  3  0  0  0  0  0  0
  185.6960  177.4930  143.0320 C   0  0  0  0  0  2  0  0  0  0  0  0
  184.7860  179.6490  143.8150 C   0  0  0  0  0  1  0  0  0  0  0  0
  184.4470  178.3570  143.1020 C   0  0  1  0  0  3  0  0  0  0  0  0
  183.9380  178.6850  141.7070 C   0  0  0  0  0  2  0  0  0  0  0  0
  184.8860  179.4340  141.0110 O   0  0  0  0  0  1  0  0  0  0  0  0
  1  2  2  0  0  0  0
  1 16  1  0  0  0  0
  2  3  2  0  0  0  0
  4  6  1  0  0  0  0
  4 11  1  0  0  0  0
  5  4  2  0  0  0  0
  6 10  2  0  0  0  0
  7 13  1  0  0  0  0
  8  6  1  0  0  0  0
 10  9  1  0  0  0  0
 10 13  1  0  0  0  0
 11 12  1  0  0  0  0
 12  7  2  0  0  0  0
 13  1  1  1  0  0  0
 15 16  2  0  0  0  0
 15 18  1  0  0  0  0
 16 19  1  0  0  0  0
 17 20  1  0  0  0  0
 17 14  1  0  0  0  0
 18 17  2  0  0  0  0
 19 20  2  0  0  0  0
 21 23  1  0  0  0  0
 21  3  1  0  0  0  0
 23 22  1  6  0  0  0
 24 23  1  0  0  0  0
 25 24  1  0  0  0  0
M  END
>  <MODEL>
3

>  <REMARK>
 VINA RESULT:      -7.6      2.560      5.785
  Name = 
  5 active torsions:
  status: ('A' for Active; 'I' for Inactive)
    1  A    between atoms: C_3  and  C_8
    2  A    between atoms: C_3  and  C_24
    3  A    between atoms: C_9  and  C_14
    4  A    between atoms: C_10  and  C_12
    5  A    between atoms: C_10  and  C_14
                            x       y       z     vdW  Elec       q    Type
                         _______ _______ _______ _____ _____    ______ ____

>  <TORSDO>
F 5

$$$$
=
 OpenBabel10232408503D

 25 26  0  0  1  0  0  0  0  0999 V2000
  187.9440  177.5180  142.3260 C   0  0  0  0  0  0  0  0  0  0  0  0
  186.7190  177.9900  142.3390 C   0  0  0  0  0  0  0  0  0  0  0  0
  185.5050  178.4640  142.3530 C   0  0  0  0  0  3  0  0  0  0  0  0
  190.8320  177.1240  145.6040 C   0  0  0  0  0  0  0  0  0  0  0  0
  191.8770  176.5030  145.9320 O   0  0  0  0  0  0  0  0  0  0  0  0
  190.9210  178.1790  144.5670 C   0  0  0  0  0  0  0  0  0  0  0  0
  187.8900  177.7090  144.8380 C   0  0  0  0  0  3  0  0  0  0  0  0
  192.1540  179.0220  144.5290 C   0  0  0  0  0  1  0  0  0  0  0  0
  189.9990  179.5240  142.8560 O   0  0  0  0  0  1  0  0  0  0  0  0
  189.9340  178.4090  143.6890 C   0  0  0  0  0  0  0  0  0  0  0  0
  189.6210  176.8600  146.3310 N   0  0  0  0  0  2  0  0  0  0  0  0
  188.3120  177.3840  146.0600 C   0  0  0  0  0  3  0  0  0  0  0  0
  188.7380  177.4870  143.6280 C   0  0  2  0  0  3  0  0  0  0  0  0
  190.5580  177.2100  137.2490 N   0  0  0  0  0  1  0  0  0  0  0  0
  188.1260  178.1440  139.9050 C   0  0  0  0  0  3  0  0  0  0  0  0
  188.6190  177.4230  141.0060 C   0  0  0  0  0  0  0  0  0  0  0  0
  189.9080  177.2830  138.5110 C   0  0  0  0  0  0  0  0  0  0  0  0
  188.7660  178.0720  138.6640 C   0  0  0  0  0  3  0  0  0  0  0  0
  189.7730  176.6390  140.8400 C   0  0  0  0  0  3  0  0  0  0  0  0
  190.4130  176.5670  139.6000 C   0  0  0  0  0  3  0  0  0  0  0  0
  185.0580  179.3240  143.4820 C   0  0  0  0  0  2  0  0  0  0  0  0
  184.5050  178.7050  145.8060 C   0  0  0  0  0  1  0  0  0  0  0  0
  184.0670  178.5800  144.3620 C   0  0  1  0  0  3  0  0  0  0  0  0
  182.6710  179.1680  144.2200 C   0  0  0  0  0  2  0  0  0  0  0  0
  182.1440  178.8640  142.9650 O   0  0  0  0  0  1  0  0  0  0  0  0
  1  2  2  0  0  0  0
  2  3  2  0  0  0  0
  3 21  1  0  0  0  0
  4  5  2  0  0  0  0
  4 11  1  0  0  0  0
  6  4  1  0  0  0  0
  7 12  2  0  0  0  0
  8  6  1  0  0  0  0
  9 10  1  0  0  0  0
 10  6  2  0  0  0  0
 12 11  1  0  0  0  0
 13  1  1  6  0  0  0
 13 10  1  0  0  0  0
 13  7  1  0  0  0  0
 14 17  1  0  0  0  0
 15 16  1  0  0  0  0
 16  1  1  0  0  0  0
 17 18  1  0  0  0  0
 17 20  2  0  0  0  0
 18 15  2  0  0  0  0
 19 16  2  0  0  0  0
 20 19  1  0  0  0  0
 21 23  1  0  0  0  0
 23 22  1  1  0  0  0
 24 23  1  0  0  0  0
 25 24  1  0  0  0  0
M  END
>  <MODEL>
4

>  <REMARK>
 VINA RESULT:      -7.6      1.783      2.423
  Name = 
  5 active torsions:
  status: ('A' for Active; 'I' for Inactive)
    1  A    between atoms: C_3  and  C_8
    2  A    between atoms: C_3  and  C_24
    3  A    between atoms: C_9  and  C_14
    4  A    between atoms: C_10  and  C_12
    5  A    between atoms: C_10  and  C_14
                            x       y       z     vdW  Elec       q    Type
                         _______ _______ _______ _____ _____    ______ ____

>  <TORSDO>
F 5

$$$$
=
 OpenBabel10232408503D

 25 26  0  0  1  0  0  0  0  0999 V2000
  188.0860  177.8490  140.4940 C   0  0  0  0  0  0  0  0  0  0  0  0
  186.8990  178.2690  140.8650 C   0  0  0  0  0  0  0  0  0  0  0  0
  185.7220  178.6890  141.2330 C   0  0  0  0  0  3  0  0  0  0  0  0
  190.8470  178.2730  143.8770 C   0  0  0  0  0  0  0  0  0  0  0  0
  191.1250  179.0410  144.8350 O   0  0  0  0  0  0  0  0  0  0  0  0
  189.6030  177.4700  143.9400 C   0  0  0  0  0  0  0  0  0  0  0  0
  190.4680  177.1980  140.9980 C   0  0  0  0  0  3  0  0  0  0  0  0
  189.1760  176.9430  145.2730 C   0  0  0  0  0  1  0  0  0  0  0  0
  187.8140  176.2870  142.9460 O   0  0  0  0  0  1  0  0  0  0  0  0
  188.8720  177.1900  142.8520 C   0  0  0  0  0  0  0  0  0  0  0  0
  191.8040  178.1250  142.8150 N   0  0  0  0  0  2  0  0  0  0  0  0
  191.6450  177.3820  141.5970 C   0  0  0  0  0  3  0  0  0  0  0  0
  189.2130  177.8180  141.5210 C   0  0  2  0  0  3  0  0  0  0  0  0
  189.2300  177.7310  134.8920 N   0  0  0  0  0  1  0  0  0  0  0  0
  188.8890  178.9510  138.3900 C   0  0  0  0  0  3  0  0  0  0  0  0
  188.3680  177.8170  139.0360 C   0  0  0  0  0  0  0  0  0  0  0  0
  188.9420  177.7590  136.2840 C   0  0  0  0  0  0  0  0  0  0  0  0
  189.1710  178.9230  137.0210 C   0  0  0  0  0  3  0  0  0  0  0  0
  188.1490  176.6500  138.2840 C   0  0  0  0  0  3  0  0  0  0  0  0
  188.4320  176.6210  136.9150 C   0  0  0  0  0  3  0  0  0  0  0  0
  185.5790  179.5010  142.4720 C   0  0  0  0  0  2  0  0  0  0  0  0
  185.8370  178.3960  144.6640 C   0  0  0  0  0  1  0  0  0  0  0  0
  184.8590  178.7080  143.5510 C   0  0  1  0  0  3  0  0  0  0  0  0
  183.7000  179.5080  144.1260 C   0  0  0  0  0  2  0  0  0  0  0  0
  183.4780  179.1480  145.4560 O   0  0  0  0  0  1  0  0  0  0  0  0
  1  2  2  0  0  0  0
  2  3  2  0  0  0  0
  3 21  1  0  0  0  0
  4  6  1  0  0  0  0
  4  5  2  0  0  0  0
  6  8  1  0  0  0  0
  7 13  1  0  0  0  0
  7 12  2  0  0  0  0
 10  9  1  0  0  0  0
 10  6  2  0  0  0  0
 11  4  1  0  0  0  0
 12 11  1  0  0  0  0
 13  1  1  6  0  0  0
 13 10  1  0  0  0  0
 14 17  1  0  0  0  0
 15 16  1  0  0  0  0
 16  1  1  0  0  0  0
 17 20  2  0  0  0  0
 17 18  1  0  0  0  0
 18 15  2  0  0  0  0
 19 16  2  0  0  0  0
 20 19  1  0  0  0  0
 21 23  1  0  0  0  0
 23 24  1  0  0  0  0
 23 22  1  1  0  0  0
 24 25  1  0  0  0  0
M  END
>  <MODEL>
5

>  <REMARK>
 VINA RESULT:      -7.6      1.794      2.434
  Name = 
  5 active torsions:
  status: ('A' for Active; 'I' for Inactive)
    1  A    between atoms: C_3  and  C_8
    2  A    between atoms: C_3  and  C_24
    3  A    between atoms: C_9  and  C_14
    4  A    between atoms: C_10  and  C_12
    5  A    between atoms: C_10  and  C_14
                            x       y       z     vdW  Elec       q    Type
                         _______ _______ _______ _____ _____    ______ ____

>  <TORSDO>
F 5

$$$$
=
 OpenBabel10232408503D

 25 26  0  0  1  0  0  0  0  0999 V2000
  187.1200  178.0680  143.8650 C   0  0  0  0  0  0  0  0  0  0  0  0
  187.7440  177.7700  142.7490 C   0  0  0  0  0  0  0  0  0  0  0  0
  188.3630  177.4710  141.6420 C   0  0  0  0  0  3  0  0  0  0  0  0
  189.3990  176.5140  147.2760 C   0  0  0  0  0  0  0  0  0  0  0  0
  189.9690  175.4710  147.6910 O   0  0  0  0  0  0  0  0  0  0  0  0
  190.0180  177.2750  146.1660 C   0  0  0  0  0  0  0  0  0  0  0  0
  187.1880  178.4740  146.3520 C   0  0  0  0  0  3  0  0  0  0  0  0
  191.5100  177.3480  146.1130 C   0  0  0  0  0  1  0  0  0  0  0  0
  189.9220  178.7520  144.3220 O   0  0  0  0  0  1  0  0  0  0  0  0
  189.2900  177.9090  145.2350 C   0  0  0  0  0  0  0  0  0  0  0  0
  188.2310  176.9800  147.9720 N   0  0  0  0  0  2  0  0  0  0  0  0
  187.3850  178.0830  147.6100 C   0  0  0  0  0  3  0  0  0  0  0  0
  187.7890  177.7410  145.1960 C   0  0  2  0  0  3  0  0  0  0  0  0
  181.5050  179.1040  143.5370 N   0  0  0  0  0  1  0  0  0  0  0  0
  184.9270  178.6570  144.9280 C   0  0  0  0  0  3  0  0  0  0  0  0
  185.6590  178.3220  143.7760 C   0  0  0  0  0  0  0  0  0  0  0  0
  182.9010  178.8430  143.6170 C   0  0  0  0  0  0  0  0  0  0  0  0
  183.5550  178.9140  144.8490 C   0  0  0  0  0  3  0  0  0  0  0  0
  184.9900  178.2620  142.5420 C   0  0  0  0  0  3  0  0  0  0  0  0
  183.6180  178.5190  142.4630 C   0  0  0  0  0  3  0  0  0  0  0  0
  189.4720  176.4780  141.6580 C   0  0  0  0  0  2  0  0  0  0  0  0
  189.8390  177.6920  139.5420 C   0  0  0  0  0  1  0  0  0  0  0  0
  190.4880  176.7930  140.5730 C   0  0  1  0  0  3  0  0  0  0  0  0
  191.6970  177.5090  141.1560 C   0  0  0  0  0  2  0  0  0  0  0  0
  191.9470  177.0560  142.4520 O   0  0  0  0  0  1  0  0  0  0  0  0
  2  1  2  0  0  0  0
  3 21  1  0  0  0  0
  3  2  2  0  0  0  0
  4  5  2  0  0  0  0
  4 11  1  0  0  0  0
  6  4  1  0  0  0  0
  7 12  2  0  0  0  0
  8  6  1  0  0  0  0
  9 10  1  0  0  0  0
 10  6  2  0  0  0  0
 12 11  1  0  0  0  0
 13  1  1  6  0  0  0
 13 10  1  0  0  0  0
 13  7  1  0  0  0  0
 14 17  1  0  0  0  0
 16  1  1  0  0  0  0
 16 15  2  0  0  0  0
 17 18  2  0  0  0  0
 18 15  1  0  0  0  0
 19 16  1  0  0  0  0
 20 19  2  0  0  0  0
 20 17  1  0  0  0  0
 23 22  1  6  0  0  0
 23 24  1  0  0  0  0
 23 21  1  0  0  0  0
 24 25  1  0  0  0  0
M  END
>  <MODEL>
6

>  <REMARK>
 VINA RESULT:      -7.5      3.084      5.689
  Name = 
  5 active torsions:
  status: ('A' for Active; 'I' for Inactive)
    1  A    between atoms: C_3  and  C_8
    2  A    between atoms: C_3  and  C_24
    3  A    between atoms: C_9  and  C_14
    4  A    between atoms: C_10  and  C_12
    5  A    between atoms: C_10  and  C_14
                            x       y       z     vdW  Elec       q    Type
                         _______ _______ _______ _____ _____    ______ ____

>  <TORSDO>
F 5

$$$$
=
 OpenBabel10232408503D

 25 26  0  0  1  0  0  0  0  0999 V2000
  189.6520  177.1040  141.3890 C   0  0  0  0  0  0  0  0  0  0  0  0
  188.5500  177.6780  140.9640 C   0  0  0  0  0  0  0  0  0  0  0  0
  187.4580  178.2520  140.5440 C   0  0  0  0  0  3  0  0  0  0  0  0
  189.9410  177.5510  145.7430 C   0  0  0  0  0  0  0  0  0  0  0  0
  189.8350  178.4090  146.6580 O   0  0  0  0  0  0  0  0  0  0  0  0
  188.7160  177.0810  145.0550 C   0  0  0  0  0  0  0  0  0  0  0  0
  190.9810  176.0410  143.2480 C   0  0  0  0  0  3  0  0  0  0  0  0
  187.4680  176.9400  145.8660 C   0  0  0  0  0  1  0  0  0  0  0  0
  187.5670  176.1630  143.2040 O   0  0  0  0  0  1  0  0  0  0  0  0
  188.6990  176.7650  143.7530 C   0  0  0  0  0  0  0  0  0  0  0  0
  191.2350  176.9810  145.4830 N   0  0  0  0  0  2  0  0  0  0  0  0
  191.5880  176.0670  144.4340 C   0  0  0  0  0  3  0  0  0  0  0  0
  189.9120  177.0220  142.8890 C   0  0  2  0  0  3  0  0  0  0  0  0
  193.8570  176.4980  137.5610 N   0  0  0  0  0  1  0  0  0  0  0  0
  190.5110  176.3000  139.1750 C   0  0  0  0  0  3  0  0  0  0  0  0
  190.7520  176.9370  140.4040 C   0  0  0  0  0  0  0  0  0  0  0  0
  192.8140  176.6470  138.5150 C   0  0  0  0  0  0  0  0  0  0  0  0
  191.5370  176.1540  138.2360 C   0  0  0  0  0  3  0  0  0  0  0  0
  192.0390  177.4350  140.6680 C   0  0  0  0  0  3  0  0  0  0  0  0
  193.0650  177.2890  139.7300 C   0  0  0  0  0  3  0  0  0  0  0  0
  186.7040  179.1610  141.4490 C   0  0  0  0  0  2  0  0  0  0  0  0
  184.8460  179.2260  143.0730 C   0  0  0  0  0  1  0  0  0  0  0  0
  185.3590  178.5530  141.8180 C   0  0  1  0  0  3  0  0  0  0  0  0
  184.3480  178.7630  140.7000 C   0  0  0  0  0  2  0  0  0  0  0  0
  184.6610  179.9130  139.9750 O   0  0  0  0  0  1  0  0  0  0  0  0
  2  1  2  0  0  0  0
  3  2  2  0  0  0  0
  3 21  1  0  0  0  0
  4  5  2  0  0  0  0
  6  4  1  0  0  0  0
  6  8  1  0  0  0  0
  7 12  2  0  0  0  0
  9 10  1  0  0  0  0
 10  6  2  0  0  0  0
 11  4  1  0  0  0  0
 12 11  1  0  0  0  0
 13  1  1  6  0  0  0
 13  7  1  0  0  0  0
 13 10  1  0  0  0  0
 14 17  1  0  0  0  0
 15 16  1  0  0  0  0
 16 19  2  0  0  0  0
 16  1  1  0  0  0  0
 17 20  2  0  0  0  0
 18 17  1  0  0  0  0
 18 15  2  0  0  0  0
 20 19  1  0  0  0  0
 21 23  1  0  0  0  0
 23 22  1  1  0  0  0
 24 23  1  0  0  0  0
 25 24  1  0  0  0  0
M  END
>  <MODEL>
7

>  <REMARK>
 VINA RESULT:      -7.4      2.383      3.480
  Name = 
  5 active torsions:
  status: ('A' for Active; 'I' for Inactive)
    1  A    between atoms: C_3  and  C_8
    2  A    between atoms: C_3  and  C_24
    3  A    between atoms: C_9  and  C_14
    4  A    between atoms: C_10  and  C_12
    5  A    between atoms: C_10  and  C_14
                            x       y       z     vdW  Elec       q    Type
                         _______ _______ _______ _____ _____    ______ ____

>  <TORSDO>
F 5

$$$$
=
 OpenBabel10232408503D

 25 26  0  0  1  0  0  0  0  0999 V2000
  189.3390  177.8830  141.1320 C   0  0  0  0  0  0  0  0  0  0  0  0
  188.1110  178.3420  141.1940 C   0  0  0  0  0  0  0  0  0  0  0  0
  186.8900  178.7930  141.2560 C   0  0  0  0  0  3  0  0  0  0  0  0
  190.0110  176.0560  137.2000 C   0  0  0  0  0  0  0  0  0  0  0  0
  189.4900  175.2560  136.3800 O   0  0  0  0  0  0  0  0  0  0  0  0
  189.4030  177.3950  137.3790 C   0  0  0  0  0  0  0  0  0  0  0  0
  191.3350  177.1740  139.7660 C   0  0  0  0  0  3  0  0  0  0  0  0
  188.8190  178.0660  136.1780 C   0  0  0  0  0  1  0  0  0  0  0  0
  188.9550  179.3480  138.6350 O   0  0  0  0  0  1  0  0  0  0  0  0
  189.3800  178.0220  138.5640 C   0  0  0  0  0  0  0  0  0  0  0  0
  191.2390  175.6770  137.8440 N   0  0  0  0  0  2  0  0  0  0  0  0
  191.9410  176.3940  138.8710 C   0  0  0  0  0  3  0  0  0  0  0  0
  189.8480  177.3100  139.8120 C   0  0  2  0  0  3  0  0  0  0  0  0
  191.8880  176.7150  146.1160 N   0  0  0  0  0  1  0  0  0  0  0  0
  190.3700  178.6110  143.2980 C   0  0  0  0  0  3  0  0  0  0  0  0
  190.0140  177.5740  142.4190 C   0  0  0  0  0  0  0  0  0  0  0  0
  191.2570  177.0040  144.8750 C   0  0  0  0  0  0  0  0  0  0  0  0
  190.9910  178.3270  144.5180 C   0  0  0  0  0  3  0  0  0  0  0  0
  190.2800  176.2470  142.7940 C   0  0  0  0  0  3  0  0  0  0  0  0
  190.9000  175.9630  144.0140 C   0  0  0  0  0  3  0  0  0  0  0  0
  185.8970  178.3880  140.2240 C   0  0  0  0  0  2  0  0  0  0  0  0
  184.5430  178.9760  142.2020 C   0  0  0  0  0  1  0  0  0  0  0  0
  184.4900  178.4090  140.8000 C   0  0  1  0  0  3  0  0  0  0  0  0
  183.5730  179.2790  139.9530 C   0  0  0  0  0  2  0  0  0  0  0  0
  184.3240  180.1820  139.2010 O   0  0  0  0  0  1  0  0  0  0  0  0
  1  2  2  0  0  0  0
  1 16  1  0  0  0  0
  2  3  2  0  0  0  0
  4  6  1  0  0  0  0
  4 11  1  0  0  0  0
  5  4  2  0  0  0  0
  6 10  2  0  0  0  0
  7 13  1  0  0  0  0
  8  6  1  0  0  0  0
 10  9  1  0  0  0  0
 10 13  1  0  0  0  0
 11 12  1  0  0  0  0
 12  7  2  0  0  0  0
 13  1  1  1  0  0  0
 15 18  1  0  0  0  0
 16 19  1  0  0  0  0
 16 15  2  0  0  0  0
 17 14  1  0  0  0  0
 18 17  2  0  0  0  0
 19 20  2  0  0  0  0
 20 17  1  0  0  0  0
 21 23  1  0  0  0  0
 21  3  1  0  0  0  0
 23 22  1  1  0  0  0
 24 23  1  0  0  0  0
 25 24  1  0  0  0  0
M  END
>  <MODEL>
8

>  <REMARK>
 VINA RESULT:      -7.4      3.271      6.204
  Name = 
  5 active torsions:
  status: ('A' for Active; 'I' for Inactive)
    1  A    between atoms: C_3  and  C_8
    2  A    between atoms: C_3  and  C_24
    3  A    between atoms: C_9  and  C_14
    4  A    between atoms: C_10  and  C_12
    5  A    between atoms: C_10  and  C_14
                            x       y       z     vdW  Elec       q    Type
                         _______ _______ _______ _____ _____    ______ ____

>  <TORSDO>
F 5

$$$$
=
 OpenBabel10232408503D

 25 26  0  0  1  0  0  0  0  0999 V2000
  188.6270  177.4640  144.2590 C   0  0  0  0  0  0  0  0  0  0  0  0
  189.0650  177.5980  143.0290 C   0  0  0  0  0  0  0  0  0  0  0  0
  189.4990  177.7350  141.8080 C   0  0  0  0  0  3  0  0  0  0  0  0
  184.7590  179.4910  144.6790 C   0  0  0  0  0  0  0  0  0  0  0  0
  184.1900  180.5910  144.4540 O   0  0  0  0  0  0  0  0  0  0  0  0
  185.0940  178.6100  143.5350 C   0  0  0  0  0  0  0  0  0  0  0  0
  186.6850  177.3760  145.8640 C   0  0  0  0  0  3  0  0  0  0  0  0
  184.1430  178.5680  142.3820 C   0  0  0  0  0  1  0  0  0  0  0  0
  186.3670  176.9120  142.4940 O   0  0  0  0  0  1  0  0  0  0  0  0
  186.1960  177.8480  143.5130 C   0  0  0  0  0  0  0  0  0  0  0  0
  184.9570  179.0870  146.0440 N   0  0  0  0  0  2  0  0  0  0  0  0
  185.6610  177.9270  146.5150 C   0  0  0  0  0  3  0  0  0  0  0  0
  187.2320  177.9720  144.6060 C   0  0  2  0  0  3  0  0  0  0  0  0
  192.4940  176.4310  148.3430 N   0  0  0  0  0  1  0  0  0  0  0  0
  189.3610  177.5140  146.6560 C   0  0  0  0  0  3  0  0  0  0  0  0
  189.6410  177.2060  145.3140 C   0  0  0  0  0  0  0  0  0  0  0  0
  191.5350  176.6890  147.3260 C   0  0  0  0  0  0  0  0  0  0  0  0
  190.3040  177.2600  147.6560 C   0  0  0  0  0  3  0  0  0  0  0  0
  190.8800  176.6260  144.9970 C   0  0  0  0  0  3  0  0  0  0  0  0
  191.8240  176.3710  145.9970 C   0  0  0  0  0  3  0  0  0  0  0  0
  188.8500  178.7160  140.8960 C   0  0  0  0  0  2  0  0  0  0  0  0
  189.8340  177.0150  139.4020 C   0  0  0  0  0  1  0  0  0  0  0  0
  189.0200  178.2910  139.4460 C   0  0  1  0  0  3  0  0  0  0  0  0
  187.6680  178.0330  138.7970 C   0  0  0  0  0  2  0  0  0  0  0  0
  186.6480  178.5860  139.5710 O   0  0  0  0  0  1  0  0  0  0  0  0
  1 16  1  0  0  0  0
  2  1  2  0  0  0  0
  3  2  2  0  0  0  0
  4 11  1  0  0  0  0
  5  4  2  0  0  0  0
  6  4  1  0  0  0  0
  7 12  2  0  0  0  0
  8  6  1  0  0  0  0
  9 10  1  0  0  0  0
 10  6  2  0  0  0  0
 10 13  1  0  0  0  0
 11 12  1  0  0  0  0
 13  1  1  6  0  0  0
 13  7  1  0  0  0  0
 15 18  1  0  0  0  0
 16 15  2  0  0  0  0
 17 18  2  0  0  0  0
 17 14  1  0  0  0  0
 19 16  1  0  0  0  0
 19 20  2  0  0  0  0
 20 17  1  0  0  0  0
 21  3  1  0  0  0  0
 23 22  1  1  0  0  0
 23 21  1  0  0  0  0
 24 23  1  0  0  0  0
 24 25  1  0  0  0  0
M  END
>  <MODEL>
9

>  <REMARK>
 VINA RESULT:      -7.3      3.033      6.806
  Name = 
  5 active torsions:
  status: ('A' for Active; 'I' for Inactive)
    1  A    between atoms: C_3  and  C_8
    2  A    between atoms: C_3  and  C_24
    3  A    between atoms: C_9  and  C_14
    4  A    between atoms: C_10  and  C_12
    5  A    between atoms: C_10  and  C_14
                            x       y       z     vdW  Elec       q    Type
                         _______ _______ _______ _____ _____    ______ ____

>  <TORSDO>
F 5

$$$$
