=
 OpenBabel10232408373D

 28 29  0  0  1  0  0  0  0  0999 V2000
  191.6220  177.9140  144.3980 C   0  0  0  0  0  3  0  0  0  0  0  0
  188.8560  177.4970  144.1520 C   0  0  0  0  0  0  0  0  0  0  0  0
  189.5840  178.0390  143.0650 C   0  0  0  0  0  0  0  0  0  0  0  0
  190.9080  177.3730  145.4670 C   0  0  0  0  0  0  0  0  0  0  0  0
  190.9670  178.2400  143.2090 C   0  0  0  0  0  3  0  0  0  0  0  0
  189.5270  177.1660  145.3340 C   0  0  0  0  0  3  0  0  0  0  0  0
  191.6070  177.0440  146.6720 N   0  0  0  0  0  0  0  0  0  0  0  0
  192.8110  175.6050  148.1850 C   0  0  0  0  0  1  0  0  0  0  0  0
  192.0980  175.8700  146.9080 C   0  0  0  0  0  3  0  0  0  0  0  0
  187.4420  177.2520  144.1020 N   0  0  0  0  0  2  0  0  0  0  0  0
  185.8880  177.9350  145.8410 C   0  0  0  0  0  1  0  0  0  0  0  0
  186.3980  178.2090  144.4360 C   0  0  2  0  0  3  0  0  0  0  0  0
  185.2620  178.0770  143.4390 C   0  0  0  0  0  2  0  0  0  0  0  0
  185.5480  178.9130  142.1970 C   0  0  0  0  0  2  0  0  0  0  0  0
  183.7340  177.6630  141.2230 O   0  0  0  0  0  1  0  0  0  0  0  0
  184.3840  178.8990  141.2110 C   0  0  2  0  0  3  0  0  0  0  0  0
  184.1790  180.2560  139.1140 O   0  0  0  0  0  0  0  0  0  0  0  0
  185.7640  178.6100  139.2880 O   0  0  0  0  0  1  0  0  0  0  0  0
  184.8240  179.2510  139.8260 C   0  0  0  0  0  0  0  0  0  0  0  0
  188.9260  178.3310  141.8580 O   0  0  0  0  0  0  0  0  0  0  0  0
  188.9150  178.6390  139.4600 N   0  0  0  0  0  0  0  0  0  0  0  0
  190.1320  177.1660  138.0260 C   0  0  0  0  0  0  0  0  0  0  0  0
  190.5640  176.4520  139.1440 C   0  0  0  0  0  3  0  0  0  0  0  0
  190.1610  176.8470  140.4200 C   0  0  0  0  0  3  0  0  0  0  0  0
  190.5350  176.7710  136.7560 O   0  0  0  0  0  1  0  0  0  0  0  0
  189.3290  177.9590  140.5670 C   0  0  0  0  0  0  0  0  0  0  0  0
  188.8080  179.0620  137.0390 C   0  0  0  0  0  1  0  0  0  0  0  0
  189.2930  178.2750  138.2050 C   0  0  0  0  0  0  0  0  0  0  0  0
  1  4  1  0  0  0  0
  2  6  1  0  0  0  0
  3  5  1  0  0  0  0
  3  2  2  0  0  0  0
  4  7  1  0  0  0  0
  5  1  2  0  0  0  0
  6  4  2  0  0  0  0
  7  9  2  0  0  0  0
  9  8  1  0  0  0  0
 10  2  1  0  0  0  0
 10 12  1  0  0  0  0
 12 11  1  1  0  0  0
 13 12  1  0  0  0  0
 14 13  1  0  0  0  0
 16 15  1  6  0  0  0
 16 14  1  0  0  0  0
 17 19  2  0  0  0  0
 18 19  1  0  0  0  0
 19 16  1  0  0  0  0
 20  3  1  0  0  0  0
 21 26  2  0  0  0  0
 22 28  2  0  0  0  0
 22 23  1  0  0  0  0
 23 24  2  0  0  0  0
 24 26  1  0  0  0  0
 25 22  1  0  0  0  0
 26 20  1  0  0  0  0
 27 28  1  0  0  0  0
 28 21  1  0  0  0  0
M  END
>  <MODEL>
1

>  <REMARK>
 VINA RESULT:      -8.2      0.000      0.000
  Name = 
  9 active torsions:
  status: ('A' for Active; 'I' for Inactive)
    1  A    between atoms: C_6  and  N_10
    2  A    between atoms: C_8  and  C_12
    3  A    between atoms: C_8  and  C_27
    4  A    between atoms: N_9  and  C_23
    5  A    between atoms: N_10  and  C_21
    6  A    between atoms: C_12  and  C_14
    7  A    between atoms: C_14  and  C_21
    8  A    between atoms: C_15  and  O_17
    9  A    between atoms: C_16  and  O_17
                            x       y       z     vdW  Elec       q    Type
                         _______ _______ _______ _____ _____    ______ ____

>  <TORSDO>
F 9

$$$$
=
 OpenBabel10232408373D

 28 29  0  0  1  0  0  0  0  0999 V2000
  189.0700  177.1060  138.4950 C   0  0  0  0  0  3  0  0  0  0  0  0
  189.3260  177.7440  141.2180 C   0  0  0  0  0  0  0  0  0  0  0  0
  188.2680  178.3050  140.4610 C   0  0  0  0  0  0  0  0  0  0  0  0
  190.1080  176.5470  139.2410 C   0  0  0  0  0  0  0  0  0  0  0  0
  188.1590  177.9730  139.1010 C   0  0  0  0  0  3  0  0  0  0  0  0
  190.2270  176.8700  140.6000 C   0  0  0  0  0  3  0  0  0  0  0  0
  191.0250  175.6570  138.5950 N   0  0  0  0  0  0  0  0  0  0  0  0
  193.0870  175.0430  137.5080 C   0  0  0  0  0  1  0  0  0  0  0  0
  192.1900  176.0270  138.1690 C   0  0  0  0  0  3  0  0  0  0  0  0
  189.5210  178.0200  142.6140 N   0  0  0  0  0  2  0  0  0  0  0  0
  188.0640  176.2930  143.5090 C   0  0  0  0  0  1  0  0  0  0  0  0
  189.3560  177.0680  143.7020 C   0  0  2  0  0  3  0  0  0  0  0  0
  189.3160  177.8190  145.0200 C   0  0  0  0  0  2  0  0  0  0  0  0
  188.3800  177.1210  146.0000 C   0  0  0  0  0  2  0  0  0  0  0  0
  187.8010  177.5890  148.2900 O   0  0  0  0  0  1  0  0  0  0  0  0
  187.7480  178.0950  146.9890 C   0  0  2  0  0  3  0  0  0  0  0  0
  185.6700  179.4680  147.2580 O   0  0  0  0  0  1  0  0  0  0  0  0
  185.7530  177.7660  145.7260 O   0  0  0  0  0  0  0  0  0  0  0  0
  186.3420  178.4370  146.6120 C   0  0  0  0  0  0  0  0  0  0  0  0
  187.3320  179.1480  141.0840 O   0  0  0  0  0  0  0  0  0  0  0  0
  185.1320  179.3630  140.1060 N   0  0  0  0  0  0  0  0  0  0  0  0
  183.1860  178.6340  141.2840 C   0  0  0  0  0  0  0  0  0  0  0  0
  183.9950  178.2340  142.3490 C   0  0  0  0  0  3  0  0  0  0  0  0
  185.3770  178.4040  142.2750 C   0  0  0  0  0  3  0  0  0  0  0  0
  181.8090  178.4620  141.3590 O   0  0  0  0  0  1  0  0  0  0  0  0
  185.9410  178.9750  141.1310 C   0  0  0  0  0  0  0  0  0  0  0  0
  182.9550  179.6500  138.9960 C   0  0  0  0  0  1  0  0  0  0  0  0
  183.7810  179.2070  140.1520 C   0  0  0  0  0  0  0  0  0  0  0  0
  1  5  2  0  0  0  0
  1  4  1  0  0  0  0
  2 10  1  0  0  0  0
  3 20  1  0  0  0  0
  3  2  2  0  0  0  0
  4  6  2  0  0  0  0
  5  3  1  0  0  0  0
  6  2  1  0  0  0  0
  7  4  1  0  0  0  0
  8  9  1  0  0  0  0
  9  7  2  0  0  0  0
 10 12  1  0  0  0  0
 12 11  1  6  0  0  0
 12 13  1  0  0  0  0
 13 14  1  0  0  0  0
 14 16  1  0  0  0  0
 16 15  1  1  0  0  0
 18 19  2  0  0  0  0
 19 16  1  0  0  0  0
 19 17  1  0  0  0  0
 20 26  1  0  0  0  0
 21 28  1  0  0  0  0
 21 26  2  0  0  0  0
 22 25  1  0  0  0  0
 22 23  1  0  0  0  0
 24 23  2  0  0  0  0
 26 24  1  0  0  0  0
 27 28  1  0  0  0  0
 28 22  2  0  0  0  0
M  END
>  <MODEL>
2

>  <REMARK>
 VINA RESULT:      -7.9      2.642      6.282
  Name = 
  9 active torsions:
  status: ('A' for Active; 'I' for Inactive)
    1  A    between atoms: C_6  and  N_10
    2  A    between atoms: C_8  and  C_12
    3  A    between atoms: C_8  and  C_27
    4  A    between atoms: N_9  and  C_23
    5  A    between atoms: N_10  and  C_21
    6  A    between atoms: C_12  and  C_14
    7  A    between atoms: C_14  and  C_21
    8  A    between atoms: C_15  and  O_17
    9  A    between atoms: C_16  and  O_17
                            x       y       z     vdW  Elec       q    Type
                         _______ _______ _______ _____ _____    ______ ____

>  <TORSDO>
F 9

$$$$
=
 OpenBabel10232408373D

 28 29  0  0  1  0  0  0  0  0999 V2000
  189.4350  177.3610  138.6840 C   0  0  0  0  0  3  0  0  0  0  0  0
  189.4810  177.4710  141.4890 C   0  0  0  0  0  0  0  0  0  0  0  0
  188.5270  178.2340  140.7710 C   0  0  0  0  0  0  0  0  0  0  0  0
  190.3690  176.6030  139.3890 C   0  0  0  0  0  0  0  0  0  0  0  0
  188.5230  178.1640  139.3690 C   0  0  0  0  0  3  0  0  0  0  0  0
  190.3830  176.6620  140.7900 C   0  0  0  0  0  3  0  0  0  0  0  0
  191.2900  175.7830  138.6610 N   0  0  0  0  0  0  0  0  0  0  0  0
  193.3250  175.3050  137.4610 C   0  0  0  0  0  1  0  0  0  0  0  0
  192.4220  176.2180  138.2090 C   0  0  0  0  0  3  0  0  0  0  0  0
  189.5650  177.4720  142.9230 N   0  0  0  0  0  2  0  0  0  0  0  0
  191.6840  178.3420  143.7340 C   0  0  0  0  0  1  0  0  0  0  0  0
  190.1740  178.5100  143.7410 C   0  0  2  0  0  3  0  0  0  0  0  0
  189.6470  178.4010  145.1600 C   0  0  0  0  0  2  0  0  0  0  0  0
  189.5020  176.9370  145.5590 C   0  0  0  0  0  2  0  0  0  0  0  0
  189.5310  177.7080  147.8400 O   0  0  0  0  0  1  0  0  0  0  0  0
  189.9550  176.6820  146.9930 C   0  0  2  0  0  3  0  0  0  0  0  0
  192.1450  177.0200  148.1600 O   0  0  0  0  0  1  0  0  0  0  0  0
  192.0470  175.8950  146.1670 O   0  0  0  0  0  0  0  0  0  0  0  0
  191.4350  176.4980  147.0850 C   0  0  0  0  0  0  0  0  0  0  0  0
  187.5870  179.0130  141.4670 O   0  0  0  0  0  0  0  0  0  0  0  0
  185.4600  179.2750  140.3490 N   0  0  0  0  0  0  0  0  0  0  0  0
  183.4220  178.6290  141.4160 C   0  0  0  0  0  0  0  0  0  0  0  0
  184.1510  178.2240  142.5360 C   0  0  0  0  0  3  0  0  0  0  0  0
  185.5390  178.3520  142.5460 C   0  0  0  0  0  3  0  0  0  0  0  0
  182.0390  178.5000  141.4080 O   0  0  0  0  0  1  0  0  0  0  0  0
  186.1910  178.8830  141.4300 C   0  0  0  0  0  0  0  0  0  0  0  0
  183.3660  179.6070  139.1010 C   0  0  0  0  0  1  0  0  0  0  0  0
  184.1040  179.1620  140.3140 C   0  0  0  0  0  0  0  0  0  0  0  0
  1  5  2  0  0  0  0
  1  4  1  0  0  0  0
  2 10  1  0  0  0  0
  3 20  1  0  0  0  0
  3  2  2  0  0  0  0
  4  6  2  0  0  0  0
  5  3  1  0  0  0  0
  6  2  1  0  0  0  0
  7  4  1  0  0  0  0
  8  9  1  0  0  0  0
  9  7  2  0  0  0  0
 10 12  1  0  0  0  0
 12 11  1  1  0  0  0
 12 13  1  0  0  0  0
 13 14  1  0  0  0  0
 14 16  1  0  0  0  0
 16 19  1  0  0  0  0
 16 15  1  1  0  0  0
 18 19  2  0  0  0  0
 19 17  1  0  0  0  0
 21 26  2  0  0  0  0
 22 23  1  0  0  0  0
 23 24  2  0  0  0  0
 25 22  1  0  0  0  0
 26 20  1  0  0  0  0
 26 24  1  0  0  0  0
 27 28  1  0  0  0  0
 28 21  1  0  0  0  0
 28 22  2  0  0  0  0
M  END
>  <MODEL>
3

>  <REMARK>
 VINA RESULT:      -7.8      2.665      6.904
  Name = 
  9 active torsions:
  status: ('A' for Active; 'I' for Inactive)
    1  A    between atoms: C_6  and  N_10
    2  A    between atoms: C_8  and  C_12
    3  A    between atoms: C_8  and  C_27
    4  A    between atoms: N_9  and  C_23
    5  A    between atoms: N_10  and  C_21
    6  A    between atoms: C_12  and  C_14
    7  A    between atoms: C_14  and  C_21
    8  A    between atoms: C_15  and  O_17
    9  A    between atoms: C_16  and  O_17
                            x       y       z     vdW  Elec       q    Type
                         _______ _______ _______ _____ _____    ______ ____

>  <TORSDO>
F 9

$$$$
=
 OpenBabel10232408373D

 28 29  0  0  1  0  0  0  0  0999 V2000
  184.8560  178.2880  142.2290 C   0  0  0  0  0  3  0  0  0  0  0  0
  187.6540  178.1340  142.0470 C   0  0  0  0  0  0  0  0  0  0  0  0
  186.9800  177.4710  143.1020 C   0  0  0  0  0  0  0  0  0  0  0  0
  185.5160  178.9350  141.1850 C   0  0  0  0  0  0  0  0  0  0  0  0
  185.5810  177.5620  143.1740 C   0  0  0  0  0  3  0  0  0  0  0  0
  186.9140  178.8510  141.1010 C   0  0  0  0  0  3  0  0  0  0  0  0
  184.7470  179.6700  140.2260 N   0  0  0  0  0  0  0  0  0  0  0  0
  182.8560  180.0920  138.7930 C   0  0  0  0  0  1  0  0  0  0  0  0
  183.5940  179.2740  139.7900 C   0  0  0  0  0  3  0  0  0  0  0  0
  189.0800  178.1000  141.8860 N   0  0  0  0  0  2  0  0  0  0  0  0
  191.0110  176.6720  142.2580 C   0  0  0  0  0  1  0  0  0  0  0  0
  189.8500  176.9950  141.3330 C   0  0  2  0  0  3  0  0  0  0  0  0
  190.3720  177.3860  139.9640 C   0  0  0  0  0  2  0  0  0  0  0  0
  189.4450  176.8610  138.8740 C   0  0  0  0  0  2  0  0  0  0  0  0
  189.1060  179.2270  138.5770 O   0  0  0  0  0  1  0  0  0  0  0  0
  188.9100  177.9780  137.9830 C   0  0  2  0  0  3  0  0  0  0  0  0
  186.9700  176.4990  137.4140 O   0  0  0  0  0  0  0  0  0  0  0  0
  186.7090  178.7720  137.5290 O   0  0  0  0  0  1  0  0  0  0  0  0
  187.4690  177.7760  137.6420 C   0  0  0  0  0  0  0  0  0  0  0  0
  187.7120  176.7110  144.0310 O   0  0  0  0  0  0  0  0  0  0  0  0
  189.3790  176.8510  145.7760 N   0  0  0  0  0  0  0  0  0  0  0  0
  188.8890  177.9060  147.8630 C   0  0  0  0  0  0  0  0  0  0  0  0
  187.5990  178.1810  147.4080 C   0  0  0  0  0  3  0  0  0  0  0  0
  187.2130  177.7830  146.1290 C   0  0  0  0  0  3  0  0  0  0  0  0
  189.2730  178.3040  149.1380 O   0  0  0  0  0  1  0  0  0  0  0  0
  188.1250  177.1130  145.3100 C   0  0  0  0  0  0  0  0  0  0  0  0
  191.1650  176.9130  147.4670 C   0  0  0  0  0  1  0  0  0  0  0  0
  189.7810  177.2280  147.0200 C   0  0  0  0  0  0  0  0  0  0  0  0
  1  5  1  0  0  0  0
  2  3  1  0  0  0  0
  3  5  2  0  0  0  0
  3 20  1  0  0  0  0
  4  1  2  0  0  0  0
  6  4  1  0  0  0  0
  6  2  2  0  0  0  0
  7  4  1  0  0  0  0
  8  9  1  0  0  0  0
  9  7  2  0  0  0  0
 10  2  1  0  0  0  0
 12 10  1  0  0  0  0
 12 11  1  1  0  0  0
 13 12  1  0  0  0  0
 14 13  1  0  0  0  0
 16 15  1  1  0  0  0
 16 14  1  0  0  0  0
 17 19  2  0  0  0  0
 18 19  1  0  0  0  0
 19 16  1  0  0  0  0
 20 26  1  0  0  0  0
 21 28  1  0  0  0  0
 22 25  1  0  0  0  0
 23 22  1  0  0  0  0
 24 23  2  0  0  0  0
 26 21  2  0  0  0  0
 26 24  1  0  0  0  0
 28 27  1  0  0  0  0
 28 22  2  0  0  0  0
M  END
>  <MODEL>
4

>  <REMARK>
 VINA RESULT:      -7.8      2.463      7.357
  Name = 
  9 active torsions:
  status: ('A' for Active; 'I' for Inactive)
    1  A    between atoms: C_6  and  N_10
    2  A    between atoms: C_8  and  C_12
    3  A    between atoms: C_8  and  C_27
    4  A    between atoms: N_9  and  C_23
    5  A    between atoms: N_10  and  C_21
    6  A    between atoms: C_12  and  C_14
    7  A    between atoms: C_14  and  C_21
    8  A    between atoms: C_15  and  O_17
    9  A    between atoms: C_16  and  O_17
                            x       y       z     vdW  Elec       q    Type
                         _______ _______ _______ _____ _____    ______ ____

>  <TORSDO>
F 9

$$$$
=
 OpenBabel10232408373D

 28 29  0  0  1  0  0  0  0  0999 V2000
  188.5450  177.2180  146.2470 C   0  0  0  0  0  3  0  0  0  0  0  0
  189.3850  177.7330  143.6180 C   0  0  0  0  0  0  0  0  0  0  0  0
  188.0020  177.7140  143.9230 C   0  0  0  0  0  0  0  0  0  0  0  0
  189.9080  177.2450  145.9510 C   0  0  0  0  0  0  0  0  0  0  0  0
  187.6040  177.4540  145.2440 C   0  0  0  0  0  3  0  0  0  0  0  0
  190.3180  177.5050  144.6350 C   0  0  0  0  0  3  0  0  0  0  0  0
  190.8520  177.0050  147.0010 N   0  0  0  0  0  0  0  0  0  0  0  0
  192.6530  175.8480  148.1070 C   0  0  0  0  0  1  0  0  0  0  0  0
  191.7040  176.0320  146.9780 C   0  0  0  0  0  3  0  0  0  0  0  0
  189.8920  177.9920  142.3000 N   0  0  0  0  0  2  0  0  0  0  0  0
  191.9140  177.4530  141.0640 C   0  0  0  0  0  1  0  0  0  0  0  0
  190.5030  177.0130  141.4130 C   0  0  2  0  0  3  0  0  0  0  0  0
  189.6700  176.8970  140.1490 C   0  0  0  0  0  2  0  0  0  0  0  0
  189.1200  178.2610  139.7510 C   0  0  0  0  0  2  0  0  0  0  0  0
  188.9890  179.5140  137.6980 O   0  0  0  0  0  1  0  0  0  0  0  0
  188.6600  178.2960  138.2970 C   0  0  2  0  0  3  0  0  0  0  0  0
  186.7120  177.2330  137.1340 O   0  0  0  0  0  0  0  0  0  0  0  0
  186.3920  178.5420  138.9870 O   0  0  0  0  0  1  0  0  0  0  0  0
  187.1950  178.0240  138.1690 C   0  0  0  0  0  0  0  0  0  0  0  0
  187.0600  177.9870  142.9170 O   0  0  0  0  0  0  0  0  0  0  0  0
  184.8100  178.2250  142.0640 N   0  0  0  0  0  0  0  0  0  0  0  0
  183.0220  178.9190  143.4880 C   0  0  0  0  0  0  0  0  0  0  0  0
  183.9180  178.9950  144.5570 C   0  0  0  0  0  3  0  0  0  0  0  0
  185.2620  178.6790  144.3610 C   0  0  0  0  0  3  0  0  0  0  0  0
  181.6830  179.2320  143.6860 O   0  0  0  0  0  1  0  0  0  0  0  0
  185.7010  178.2870  143.0940 C   0  0  0  0  0  0  0  0  0  0  0  0
  182.5730  178.4360  141.0620 C   0  0  0  0  0  1  0  0  0  0  0  0
  183.4940  178.5270  142.2280 C   0  0  0  0  0  0  0  0  0  0  0  0
  2  3  2  0  0  0  0
  2  6  1  0  0  0  0
  3  5  1  0  0  0  0
  4  1  1  0  0  0  0
  4  7  1  0  0  0  0
  5  1  2  0  0  0  0
  6  4  2  0  0  0  0
  9  7  2  0  0  0  0
  9  8  1  0  0  0  0
 10  2  1  0  0  0  0
 12 11  1  6  0  0  0
 12 10  1  0  0  0  0
 13 12  1  0  0  0  0
 14 13  1  0  0  0  0
 16 15  1  1  0  0  0
 16 14  1  0  0  0  0
 17 19  2  0  0  0  0
 19 16  1  0  0  0  0
 19 18  1  0  0  0  0
 20 26  1  0  0  0  0
 20  3  1  0  0  0  0
 21 28  1  0  0  0  0
 21 26  2  0  0  0  0
 22 25  1  0  0  0  0
 22 23  1  0  0  0  0
 24 23  2  0  0  0  0
 26 24  1  0  0  0  0
 27 28  1  0  0  0  0
 28 22  2  0  0  0  0
M  END
>  <MODEL>
5

>  <REMARK>
 VINA RESULT:      -7.7      1.828      5.268
  Name = 
  9 active torsions:
  status: ('A' for Active; 'I' for Inactive)
    1  A    between atoms: C_6  and  N_10
    2  A    between atoms: C_8  and  C_12
    3  A    between atoms: C_8  and  C_27
    4  A    between atoms: N_9  and  C_23
    5  A    between atoms: N_10  and  C_21
    6  A    between atoms: C_12  and  C_14
    7  A    between atoms: C_14  and  C_21
    8  A    between atoms: C_15  and  O_17
    9  A    between atoms: C_16  and  O_17
                            x       y       z     vdW  Elec       q    Type
                         _______ _______ _______ _____ _____    ______ ____

>  <TORSDO>
F 9

$$$$
=
 OpenBabel10232408373D

 28 29  0  0  1  0  0  0  0  0999 V2000
  191.4490  178.2960  144.4550 C   0  0  0  0  0  3  0  0  0  0  0  0
  188.9120  177.3100  143.7680 C   0  0  0  0  0  0  0  0  0  0  0  0
  189.5860  178.1900  142.8870 C   0  0  0  0  0  0  0  0  0  0  0  0
  190.7910  177.4230  145.3200 C   0  0  0  0  0  0  0  0  0  0  0  0
  190.8540  178.6720  143.2500 C   0  0  0  0  0  3  0  0  0  0  0  0
  189.5250  176.9340  144.9680 C   0  0  0  0  0  3  0  0  0  0  0  0
  191.4280  177.0500  146.5480 N   0  0  0  0  0  0  0  0  0  0  0  0
  192.7080  175.6230  148.0070 C   0  0  0  0  0  1  0  0  0  0  0  0
  192.0740  175.9400  146.7010 C   0  0  0  0  0  3  0  0  0  0  0  0
  187.6150  176.7620  143.4860 N   0  0  0  0  0  2  0  0  0  0  0  0
  185.9130  178.2360  142.5720 C   0  0  0  0  0  1  0  0  0  0  0  0
  186.3380  177.4020  143.7680 C   0  0  2  0  0  3  0  0  0  0  0  0
  186.4840  178.2880  144.9910 C   0  0  0  0  0  2  0  0  0  0  0  0
  185.9460  177.5770  146.2270 C   0  0  0  0  0  2  0  0  0  0  0  0
  186.1810  179.6690  147.3970 O   0  0  0  0  0  1  0  0  0  0  0  0
  186.3400  178.2870  147.5190 C   0  0  2  0  0  3  0  0  0  0  0  0
  188.6680  178.9560  148.1550 O   0  0  0  0  0  1  0  0  0  0  0  0
  188.0760  176.7450  148.0570 O   0  0  0  0  0  0  0  0  0  0  0  0
  187.7350  177.9500  147.9360 C   0  0  0  0  0  0  0  0  0  0  0  0
  188.9970  178.5380  141.6590 O   0  0  0  0  0  0  0  0  0  0  0  0
  188.9110  178.6590  139.2460 N   0  0  0  0  0  0  0  0  0  0  0  0
  190.0730  177.0700  137.8920 C   0  0  0  0  0  0  0  0  0  0  0  0
  190.5370  176.4410  139.0490 C   0  0  0  0  0  3  0  0  0  0  0  0
  190.1780  176.9370  140.3010 C   0  0  0  0  0  3  0  0  0  0  0  0
  190.4330  176.5750  136.6450 O   0  0  0  0  0  1  0  0  0  0  0  0
  189.3560  178.0640  140.3880 C   0  0  0  0  0  0  0  0  0  0  0  0
  188.7280  178.8930  136.8030 C   0  0  0  0  0  1  0  0  0  0  0  0
  189.2460  178.1950  138.0110 C   0  0  0  0  0  0  0  0  0  0  0  0
  1  4  1  0  0  0  0
  2  6  1  0  0  0  0
  3  5  1  0  0  0  0
  3  2  2  0  0  0  0
  4  7  1  0  0  0  0
  5  1  2  0  0  0  0
  6  4  2  0  0  0  0
  7  9  2  0  0  0  0
  9  8  1  0  0  0  0
 10  2  1  0  0  0  0
 10 12  1  0  0  0  0
 12 11  1  6  0  0  0
 12 13  1  0  0  0  0
 13 14  1  0  0  0  0
 14 16  1  0  0  0  0
 16 15  1  6  0  0  0
 16 19  1  0  0  0  0
 19 18  2  0  0  0  0
 19 17  1  0  0  0  0
 20  3  1  0  0  0  0
 21 26  2  0  0  0  0
 22 28  2  0  0  0  0
 22 23  1  0  0  0  0
 23 24  2  0  0  0  0
 24 26  1  0  0  0  0
 25 22  1  0  0  0  0
 26 20  1  0  0  0  0
 27 28  1  0  0  0  0
 28 21  1  0  0  0  0
M  END
>  <MODEL>
6

>  <REMARK>
 VINA RESULT:      -7.6      2.214      3.749
  Name = 
  9 active torsions:
  status: ('A' for Active; 'I' for Inactive)
    1  A    between atoms: C_6  and  N_10
    2  A    between atoms: C_8  and  C_12
    3  A    between atoms: C_8  and  C_27
    4  A    between atoms: N_9  and  C_23
    5  A    between atoms: N_10  and  C_21
    6  A    between atoms: C_12  and  C_14
    7  A    between atoms: C_14  and  C_21
    8  A    between atoms: C_15  and  O_17
    9  A    between atoms: C_16  and  O_17
                            x       y       z     vdW  Elec       q    Type
                         _______ _______ _______ _____ _____    ______ ____

>  <TORSDO>
F 9

$$$$
=
 OpenBabel10232408373D

 28 29  0  0  1  0  0  0  0  0999 V2000
  191.4230  177.8640  144.2180 C   0  0  0  0  0  3  0  0  0  0  0  0
  188.6400  177.5180  144.0970 C   0  0  0  0  0  0  0  0  0  0  0  0
  189.3320  178.0390  142.9770 C   0  0  0  0  0  0  0  0  0  0  0  0
  190.7440  177.3440  145.3190 C   0  0  0  0  0  0  0  0  0  0  0  0
  190.7250  178.2050  143.0590 C   0  0  0  0  0  3  0  0  0  0  0  0
  189.3540  177.1720  145.2480 C   0  0  0  0  0  3  0  0  0  0  0  0
  191.4870  176.9980  146.4930 N   0  0  0  0  0  0  0  0  0  0  0  0
  192.7350  175.5360  147.9470 C   0  0  0  0  0  1  0  0  0  0  0  0
  191.9740  175.8170  146.7010 C   0  0  0  0  0  3  0  0  0  0  0  0
  187.2190  177.3100  144.1100 N   0  0  0  0  0  2  0  0  0  0  0  0
  185.3980  178.4250  145.2710 C   0  0  0  0  0  1  0  0  0  0  0  0
  186.2030  178.3450  143.9850 C   0  0  2  0  0  3  0  0  0  0  0  0
  185.2880  178.0090  142.8230 C   0  0  0  0  0  2  0  0  0  0  0  0
  185.1780  179.1980  141.8750 C   0  0  0  0  0  2  0  0  0  0  0  0
  184.5910  179.8930  139.6450 O   0  0  0  0  0  1  0  0  0  0  0  0
  184.6030  178.8030  140.5180 C   0  0  2  0  0  3  0  0  0  0  0  0
  182.9860  176.9150  140.2130 O   0  0  0  0  0  0  0  0  0  0  0  0
  182.2970  178.9060  141.1130 O   0  0  0  0  0  1  0  0  0  0  0  0
  183.2360  178.2120  140.6430 C   0  0  0  0  0  0  0  0  0  0  0  0
  188.6290  178.3470  141.7990 O   0  0  0  0  0  0  0  0  0  0  0  0
  190.1180  177.2910  140.2150 N   0  0  0  0  0  0  0  0  0  0  0  0
  189.6640  177.3520  137.8700 C   0  0  0  0  0  0  0  0  0  0  0  0
  188.5020  178.0810  138.1260 C   0  0  0  0  0  3  0  0  0  0  0  0
  188.1600  178.4070  139.4380 C   0  0  0  0  0  3  0  0  0  0  0  0
  190.0030  177.0270  136.5630 O   0  0  0  0  0  1  0  0  0  0  0  0
  188.9860  177.9970  140.4890 C   0  0  0  0  0  0  0  0  0  0  0  0
  191.7240  176.1830  138.7150 C   0  0  0  0  0  1  0  0  0  0  0  0
  190.4750  176.9590  138.9440 C   0  0  0  0  0  0  0  0  0  0  0  0
  1  4  1  0  0  0  0
  2 10  1  0  0  0  0
  2  6  1  0  0  0  0
  3  5  1  0  0  0  0
  3  2  2  0  0  0  0
  4  7  1  0  0  0  0
  5  1  2  0  0  0  0
  6  4  2  0  0  0  0
  7  9  2  0  0  0  0
  9  8  1  0  0  0  0
 12 10  1  0  0  0  0
 12 11  1  1  0  0  0
 13 12  1  0  0  0  0
 14 13  1  0  0  0  0
 16 15  1  6  0  0  0
 16 19  1  0  0  0  0
 16 14  1  0  0  0  0
 17 19  2  0  0  0  0
 19 18  1  0  0  0  0
 20  3  1  0  0  0  0
 21 26  2  0  0  0  0
 22 23  1  0  0  0  0
 22 28  2  0  0  0  0
 23 24  2  0  0  0  0
 24 26  1  0  0  0  0
 25 22  1  0  0  0  0
 26 20  1  0  0  0  0
 27 28  1  0  0  0  0
 28 21  1  0  0  0  0
M  END
>  <MODEL>
7

>  <REMARK>
 VINA RESULT:      -7.5      0.876      1.772
  Name = 
  9 active torsions:
  status: ('A' for Active; 'I' for Inactive)
    1  A    between atoms: C_6  and  N_10
    2  A    between atoms: C_8  and  C_12
    3  A    between atoms: C_8  and  C_27
    4  A    between atoms: N_9  and  C_23
    5  A    between atoms: N_10  and  C_21
    6  A    between atoms: C_12  and  C_14
    7  A    between atoms: C_14  and  C_21
    8  A    between atoms: C_15  and  O_17
    9  A    between atoms: C_16  and  O_17
                            x       y       z     vdW  Elec       q    Type
                         _______ _______ _______ _____ _____    ______ ____

>  <TORSDO>
F 9

$$$$
=
 OpenBabel10232408373D

 28 29  0  0  1  0  0  0  0  0999 V2000
  185.1820  179.0940  145.0420 C   0  0  0  0  0  3  0  0  0  0  0  0
  186.7600  178.0000  142.9940 C   0  0  0  0  0  0  0  0  0  0  0  0
  185.6760  178.8510  142.6670 C   0  0  0  0  0  0  0  0  0  0  0  0
  186.2540  178.2630  145.3660 C   0  0  0  0  0  0  0  0  0  0  0  0
  184.8990  179.3870  143.7070 C   0  0  0  0  0  3  0  0  0  0  0  0
  187.0380  177.7230  144.3370 C   0  0  0  0  0  3  0  0  0  0  0  0
  186.5240  177.9840  146.7450 N   0  0  0  0  0  0  0  0  0  0  0  0
  187.9200  177.5720  148.6650 C   0  0  0  0  0  1  0  0  0  0  0  0
  187.7210  177.8620  147.2210 C   0  0  0  0  0  3  0  0  0  0  0  0
  187.6140  177.4060  142.0040 N   0  0  0  0  0  2  0  0  0  0  0  0
  188.5710  178.4410  140.0250 C   0  0  0  0  0  1  0  0  0  0  0  0
  188.8250  177.9980  141.4550 C   0  0  2  0  0  3  0  0  0  0  0  0
  189.9420  176.9710  141.4880 C   0  0  0  0  0  2  0  0  0  0  0  0
  190.0050  176.3020  142.8560 C   0  0  0  0  0  2  0  0  0  0  0  0
  191.9260  175.3590  143.9620 O   0  0  0  0  0  1  0  0  0  0  0  0
  191.3330  176.5590  143.5640 C   0  0  2  0  0  3  0  0  0  0  0  0
  190.3770  178.6150  144.6270 O   0  0  0  0  0  0  0  0  0  0  0  0
  191.7910  177.2460  145.7990 O   0  0  0  0  0  1  0  0  0  0  0  0
  191.1730  177.4810  144.7290 C   0  0  0  0  0  0  0  0  0  0  0  0
  185.4180  179.1710  141.3230 O   0  0  0  0  0  0  0  0  0  0  0  0
  185.0370  178.2840  139.1070 N   0  0  0  0  0  0  0  0  0  0  0  0
  183.1110  176.9550  138.6280 C   0  0  0  0  0  0  0  0  0  0  0  0
  182.7030  177.0890  139.9560 C   0  0  0  0  0  3  0  0  0  0  0  0
  183.4770  177.8260  140.8510 C   0  0  0  0  0  3  0  0  0  0  0  0
  182.3380  176.2190  137.7380 O   0  0  0  0  0  1  0  0  0  0  0  0
  184.6610  178.4240  140.4090 C   0  0  0  0  0  0  0  0  0  0  0  0
  184.7700  177.4540  136.8060 C   0  0  0  0  0  1  0  0  0  0  0  0
  184.3000  177.5700  138.2140 C   0  0  0  0  0  0  0  0  0  0  0  0
  1  4  1  0  0  0  0
  2  6  1  0  0  0  0
  3  2  2  0  0  0  0
  3  5  1  0  0  0  0
  4  7  1  0  0  0  0
  5  1  2  0  0  0  0
  6  4  2  0  0  0  0
  7  9  2  0  0  0  0
  9  8  1  0  0  0  0
 10  2  1  0  0  0  0
 12 11  1  6  0  0  0
 12 13  1  0  0  0  0
 12 10  1  0  0  0  0
 13 14  1  0  0  0  0
 14 16  1  0  0  0  0
 16 15  1  1  0  0  0
 16 19  1  0  0  0  0
 17 19  2  0  0  0  0
 19 18  1  0  0  0  0
 20  3  1  0  0  0  0
 21 26  2  0  0  0  0
 22 23  1  0  0  0  0
 23 24  2  0  0  0  0
 25 22  1  0  0  0  0
 26 24  1  0  0  0  0
 26 20  1  0  0  0  0
 27 28  1  0  0  0  0
 28 22  2  0  0  0  0
 28 21  1  0  0  0  0
M  END
>  <MODEL>
8

>  <REMARK>
 VINA RESULT:      -7.5      2.641      5.997
  Name = 
  9 active torsions:
  status: ('A' for Active; 'I' for Inactive)
    1  A    between atoms: C_6  and  N_10
    2  A    between atoms: C_8  and  C_12
    3  A    between atoms: C_8  and  C_27
    4  A    between atoms: N_9  and  C_23
    5  A    between atoms: N_10  and  C_21
    6  A    between atoms: C_12  and  C_14
    7  A    between atoms: C_14  and  C_21
    8  A    between atoms: C_15  and  O_17
    9  A    between atoms: C_16  and  O_17
                            x       y       z     vdW  Elec       q    Type
                         _______ _______ _______ _____ _____    ______ ____

>  <TORSDO>
F 9

$$$$
=
 OpenBabel10232408373D

 28 29  0  0  1  0  0  0  0  0999 V2000
  185.3450  178.8130  141.4610 C   0  0  0  0  0  3  0  0  0  0  0  0
  187.7760  177.8360  142.4680 C   0  0  0  0  0  0  0  0  0  0  0  0
  187.7090  178.3150  141.1370 C   0  0  0  0  0  0  0  0  0  0  0  0
  185.4110  178.3500  142.7750 C   0  0  0  0  0  0  0  0  0  0  0  0
  186.4820  178.7990  140.6530 C   0  0  0  0  0  3  0  0  0  0  0  0
  186.6300  177.8650  143.2700 C   0  0  0  0  0  3  0  0  0  0  0  0
  184.2290  178.3810  143.5830 N   0  0  0  0  0  0  0  0  0  0  0  0
  181.8940  178.7640  144.0370 C   0  0  0  0  0  1  0  0  0  0  0  0
  183.0750  178.7580  143.1350 C   0  0  0  0  0  3  0  0  0  0  0  0
  188.9830  177.3240  143.0550 N   0  0  0  0  0  2  0  0  0  0  0  0
  191.4040  177.4340  143.2340 C   0  0  0  0  0  1  0  0  0  0  0  0
  190.0900  178.1220  143.5620 C   0  0  2  0  0  3  0  0  0  0  0  0
  189.9480  178.2740  145.0650 C   0  0  0  0  0  2  0  0  0  0  0  0
  189.4360  176.9780  145.6830 C   0  0  0  0  0  2  0  0  0  0  0  0
  189.5220  177.9070  147.9030 O   0  0  0  0  0  1  0  0  0  0  0  0
  189.8930  176.8060  147.1280 C   0  0  2  0  0  3  0  0  0  0  0  0
  192.1160  177.1710  148.2240 O   0  0  0  0  0  1  0  0  0  0  0  0
  191.9360  175.8430  146.3650 O   0  0  0  0  0  0  0  0  0  0  0  0
  191.3660  176.5690  147.2210 C   0  0  0  0  0  0  0  0  0  0  0  0
  188.8660  178.3310  140.3390 O   0  0  0  0  0  0  0  0  0  0  0  0
  188.4150  176.8540  138.4800 N   0  0  0  0  0  0  0  0  0  0  0  0
  190.1050  175.3950  137.6290 C   0  0  0  0  0  0  0  0  0  0  0  0
  190.9950  175.8890  138.5850 C   0  0  0  0  0  3  0  0  0  0  0  0
  190.5770  176.8700  139.4830 C   0  0  0  0  0  3  0  0  0  0  0  0
  190.5230  174.4190  136.7340 O   0  0  0  0  0  1  0  0  0  0  0  0
  189.2680  177.3540  139.4180 C   0  0  0  0  0  0  0  0  0  0  0  0
  187.8150  175.3970  136.5900 C   0  0  0  0  0  1  0  0  0  0  0  0
  188.7970  175.8970  137.5910 C   0  0  0  0  0  0  0  0  0  0  0  0
  1  4  1  0  0  0  0
  2 10  1  0  0  0  0
  2  6  1  0  0  0  0
  3  2  2  0  0  0  0
  4  6  2  0  0  0  0
  4  7  1  0  0  0  0
  5  3  1  0  0  0  0
  5  1  2  0  0  0  0
  9  7  2  0  0  0  0
  9  8  1  0  0  0  0
 10 12  1  0  0  0  0
 12 11  1  1  0  0  0
 12 13  1  0  0  0  0
 13 14  1  0  0  0  0
 14 16  1  0  0  0  0
 16 19  1  0  0  0  0
 16 15  1  1  0  0  0
 18 19  2  0  0  0  0
 19 17  1  0  0  0  0
 20  3  1  0  0  0  0
 21 26  2  0  0  0  0
 22 23  1  0  0  0  0
 23 24  2  0  0  0  0
 25 22  1  0  0  0  0
 26 24  1  0  0  0  0
 26 20  1  0  0  0  0
 27 28  1  0  0  0  0
 28 22  2  0  0  0  0
 28 21  1  0  0  0  0
M  END
>  <MODEL>
9

>  <REMARK>
 VINA RESULT:      -7.4      2.740      6.296
  Name = 
  9 active torsions:
  status: ('A' for Active; 'I' for Inactive)
    1  A    between atoms: C_6  and  N_10
    2  A    between atoms: C_8  and  C_12
    3  A    between atoms: C_8  and  C_27
    4  A    between atoms: N_9  and  C_23
    5  A    between atoms: N_10  and  C_21
    6  A    between atoms: C_12  and  C_14
    7  A    between atoms: C_14  and  C_21
    8  A    between atoms: C_15  and  O_17
    9  A    between atoms: C_16  and  O_17
                            x       y       z     vdW  Elec       q    Type
                         _______ _______ _______ _____ _____    ______ ____

>  <TORSDO>
F 9

$$$$
