=
 OpenBabel10232411413D

 52 56  0  0  1  0  0  0  0  0999 V2000
  191.3250  173.9760  136.0530 N   0  0  0  0  0  2  0  0  0  0  0  0
  190.2550  175.7400  137.5400 C   0  0  0  0  0  0  0  0  0  0  0  0
  192.5060  175.4010  137.5880 N   0  0  0  0  0  0  0  0  0  0  0  0
  192.4330  173.2480  135.5140 C   0  0  0  0  0  0  0  0  0  0  0  0
  190.7210  176.6030  138.4350 C   0  0  0  0  0  0  0  0  0  0  0  0
  192.2220  172.3630  134.6440 O   0  0  0  0  0  0  0  0  0  0  0  0
  193.7690  173.5090  135.9520 N   0  0  0  0  0  2  0  0  0  0  0  0
  192.2060  176.4770  138.5270 C   0  0  0  0  0  2  0  0  0  0  0  0
  191.4020  175.0080  137.0430 C   0  0  0  0  0  0  0  0  0  0  0  0
  194.8260  172.8450  135.4250 O   0  0  0  0  0  0  0  0  0  0  0  0
  199.0890  173.4940  136.4650 C   0  0  0  0  0  2  0  0  0  0  0  0
  196.1950  173.3110  137.3420 C   0  0  1  0  0  3  0  0  0  0  0  0
  195.9520  173.5580  135.8480 C   0  0  1  0  0  3  0  0  0  0  0  0
  197.1430  173.2090  134.9590 C   0  0  0  0  0  2  0  0  0  0  0  0
  196.5700  171.8740  137.6820 C   0  0  0  0  0  1  0  0  0  0  0  0
  197.1310  174.3570  137.9510 C   0  0  0  0  0  2  0  0  0  0  0  0
  198.6360  174.0890  137.8020 C   0  0  0  0  0  2  0  0  0  0  0  0
  198.3550  174.0750  135.2670 C   0  0  0  0  0  2  0  0  0  0  0  0
  189.9790  177.6680  139.0460 N   0  0  0  0  0  2  0  0  0  0  0  0
  189.5110  177.6940  140.4000 C   0  0  0  0  0  0  0  0  0  0  0  0
  188.6610  177.6660  143.0540 C   0  0  0  0  0  0  0  0  0  0  0  0
  189.9090  177.2390  142.7100 N   0  0  0  0  0  0  0  0  0  0  0  0
  188.2170  178.1180  140.7210 C   0  0  0  0  0  3  0  0  0  0  0  0
  190.3450  177.2400  141.4220 C   0  0  0  0  0  3  0  0  0  0  0  0
  187.7900  178.1100  142.0480 C   0  0  0  0  0  3  0  0  0  0  0  0
  187.4120  177.6230  147.1560 C   0  0  0  0  0  3  0  0  0  0  0  0
  186.4860  177.8900  146.1440 C   0  0  0  0  0  0  0  0  0  0  0  0
  188.7470  177.3670  146.8330 C   0  0  0  0  0  3  0  0  0  0  0  0
  189.1580  177.3800  145.4970 C   0  0  0  0  0  3  0  0  0  0  0  0
  188.2370  177.6510  144.4710 C   0  0  0  0  0  0  0  0  0  0  0  0
  186.8980  177.9070  144.8070 C   0  0  0  0  0  3  0  0  0  0  0  0
  184.4200  179.0050  145.3900 C   0  0  0  0  0  1  0  0  0  0  0  0
  185.0670  178.1830  146.4890 C   0  0  0  0  0  2  0  0  0  0  0  0
  188.8800  175.7050  136.9530 C   0  0  0  0  0  2  0  0  0  0  0  0
  188.4250  177.6610  135.4020 C   0  0  0  0  0  2  0  0  0  0  0  0
  185.7600  175.8140  135.0520 C   0  0  0  0  0  0  0  0  0  0  0  0
  186.9610  177.8610  135.7750 C   0  0  0  0  0  2  0  0  0  0  0  0
  184.5770  175.4250  135.4350 N   0  0  0  0  0  0  0  0  0  0  0  0
  186.0510  177.2520  134.7220 C   0  0  0  0  0  2  0  0  0  0  0  0
  188.2040  175.2750  134.5140 C   0  0  0  0  0  2  0  0  0  0  0  0
  188.8950  176.2110  135.5130 C   0  0  2  0  0  3  0  0  0  0  0  0
  186.8350  174.7700  134.9810 C   0  0  0  0  0  2  0  0  0  0  0  0
  183.1210  176.8900  136.8080 N   0  0  0  0  0  2  0  0  0  0  0  0
  183.3860  176.2210  135.5760 C   0  0  0  0  0  0  0  0  0  0  0  0
  182.5560  176.3300  134.6340 O   0  0  0  0  0  0  0  0  0  0  0  0
  184.0630  176.8610  137.9190 C   0  0  0  0  0  2  0  0  0  0  0  0
  183.7890  177.9970  138.9030 C   0  0  2  0  0  3  0  0  0  0  0  0
  184.9240  179.5740  140.2940 O   0  0  0  0  0  1  0  0  0  0  0  0
  185.0500  178.8160  139.1290 C   0  0  0  0  0  2  0  0  0  0  0  0
  183.2460  177.4740  140.2320 C   0  0  0  0  0  2  0  0  0  0  0  0
  181.7750  177.8210  140.4010 C   0  0  0  0  0  2  0  0  0  0  0  0
  181.6420  179.1620  140.7600 O   0  0  0  0  0  1  0  0  0  0  0  0
  1  9  1  0  0  0  0
  2  5  2  0  0  0  0
  3  8  1  0  0  0  0
  4  7  1  0  0  0  0
  4  1  1  0  0  0  0
  5  8  1  0  0  0  0
  5 19  1  0  0  0  0
  6  4  2  0  0  0  0
  9  2  1  0  0  0  0
  9  3  2  0  0  0  0
 10  7  1  0  0  0  0
 11 17  1  0  0  0  0
 12 15  1  6  0  0  0
 12 16  1  0  0  0  0
 13 10  1  6  0  0  0
 13 12  1  0  0  0  0
 14 18  1  0  0  0  0
 14 13  1  0  0  0  0
 17 16  1  0  0  0  0
 18 11  1  0  0  0  0
 19 20  1  0  0  0  0
 20 23  2  0  0  0  0
 20 24  1  0  0  0  0
 21 30  1  0  0  0  0
 22 21  1  0  0  0  0
 23 25  1  0  0  0  0
 24 22  2  0  0  0  0
 25 21  2  0  0  0  0
 27 33  1  0  0  0  0
 27 26  2  0  0  0  0
 28 26  1  0  0  0  0
 29 28  2  0  0  0  0
 30 31  2  0  0  0  0
 30 29  1  0  0  0  0
 31 27  1  0  0  0  0
 32 33  1  0  0  0  0
 34  2  1  0  0  0  0
 35 41  1  0  0  0  0
 35 37  1  0  0  0  0
 36 38  2  0  0  0  0
 38 44  1  0  0  0  0
 39 36  1  0  0  0  0
 39 37  1  0  0  0  0
 40 42  1  0  0  0  0
 40 41  1  0  0  0  0
 41 34  1  1  0  0  0
 42 36  1  0  0  0  0
 43 46  1  0  0  0  0
 44 43  1  0  0  0  0
 45 44  2  0  0  0  0
 47 46  1  6  0  0  0
 47 49  1  0  0  0  0
 47 50  1  0  0  0  0
 49 48  1  0  0  0  0
 50 51  1  0  0  0  0
 51 52  1  0  0  0  0
M  END
>  <MODEL>
1

>  <REMARK>
 VINA RESULT:      -8.2      0.000      0.000
  Name = 
  14 active torsions:
  status: ('A' for Active; 'I' for Inactive)
    1  A    between atoms: C_2  and  C_49
    2  A    between atoms: O_4  and  C_19
    3  A    between atoms: O_4  and  N_23
    4  A    between atoms: N_5  and  C_39
    5  A    between atoms: N_6  and  C_9
    6  A    between atoms: N_6  and  C_18
    7  A    between atoms: C_10  and  C_24
    8  A    between atoms: C_10  and  C_33
    9  A    between atoms: C_14  and  C_44
   10  A    between atoms: C_17  and  C_22
   11  A    between atoms: C_24  and  C_39
   12  A    between atoms: C_24  and  C_50
   13  A    between atoms: N_28  and  C_29
   14  A    between atoms: C_41  and  C_49
                            x       y       z     vdW  Elec       q    Type
                         _______ _______ _______ _____ _____    ______ ____

>  <TORSDO>
F 14

$$$$
=
 OpenBabel10232411413D

 52 56  0  0  1  0  0  0  0  0999 V2000
  190.3050  173.8790  136.2410 N   0  0  0  0  0  2  0  0  0  0  0  0
  189.4610  175.7590  137.7310 C   0  0  0  0  0  0  0  0  0  0  0  0
  191.6930  175.3780  137.5070 N   0  0  0  0  0  0  0  0  0  0  0  0
  191.3240  173.0950  135.6120 C   0  0  0  0  0  0  0  0  0  0  0  0
  190.0500  176.6690  138.4970 C   0  0  0  0  0  0  0  0  0  0  0  0
  190.9900  172.1590  134.8390 O   0  0  0  0  0  0  0  0  0  0  0  0
  192.7080  173.3570  135.8530 N   0  0  0  0  0  2  0  0  0  0  0  0
  191.5330  176.5200  138.4030 C   0  0  0  0  0  2  0  0  0  0  0  0
  190.5240  174.9730  137.1400 C   0  0  0  0  0  0  0  0  0  0  0  0
  193.6790  172.6390  135.2380 O   0  0  0  0  0  0  0  0  0  0  0  0
  196.7610  173.7870  138.2150 C   0  0  0  0  0  2  0  0  0  0  0  0
  196.0520  172.4790  135.5750 C   0  0  1  0  0  3  0  0  0  0  0  0
  194.6590  172.4400  136.2160 C   0  0  1  0  0  3  0  0  0  0  0  0
  194.4670  173.4510  137.3450 C   0  0  0  0  0  2  0  0  0  0  0  0
  196.4340  173.8380  134.9980 C   0  0  0  0  0  1  0  0  0  0  0  0
  197.1190  171.8700  136.4870 C   0  0  0  0  0  2  0  0  0  0  0  0
  197.7280  172.8090  137.5400 C   0  0  0  0  0  2  0  0  0  0  0  0
  195.4000  173.1790  138.5150 C   0  0  0  0  0  2  0  0  0  0  0  0
  189.4070  177.7870  139.1270 N   0  0  0  0  0  2  0  0  0  0  0  0
  188.8490  177.7990  140.4450 C   0  0  0  0  0  0  0  0  0  0  0  0
  187.7090  177.9060  142.9870 C   0  0  0  0  0  0  0  0  0  0  0  0
  187.0410  178.3770  141.8960 N   0  0  0  0  0  0  0  0  0  0  0  0
  189.5660  177.3280  141.5500 C   0  0  0  0  0  3  0  0  0  0  0  0
  187.5780  178.3390  140.6470 C   0  0  0  0  0  3  0  0  0  0  0  0
  188.9970  177.3750  142.8220 C   0  0  0  0  0  3  0  0  0  0  0  0
  185.9000  178.0700  146.8720 C   0  0  0  0  0  3  0  0  0  0  0  0
  187.2220  177.6370  146.7310 C   0  0  0  0  0  0  0  0  0  0  0  0
  185.1660  178.4530  145.7460 C   0  0  0  0  0  3  0  0  0  0  0  0
  185.7530  178.4000  144.4780 C   0  0  0  0  0  3  0  0  0  0  0  0
  187.0790  177.9630  144.3230 C   0  0  0  0  0  0  0  0  0  0  0  0
  187.8070  177.5810  145.4610 C   0  0  0  0  0  3  0  0  0  0  0  0
  188.9910  178.2890  148.3200 C   0  0  0  0  0  1  0  0  0  0  0  0
  187.9980  177.2100  147.9290 C   0  0  0  0  0  2  0  0  0  0  0  0
  188.0190  175.7130  137.3330 C   0  0  0  0  0  2  0  0  0  0  0  0
  187.1740  177.5780  135.8350 C   0  0  0  0  0  2  0  0  0  0  0  0
  184.7570  175.3910  135.7160 C   0  0  0  0  0  0  0  0  0  0  0  0
  185.7350  177.5850  136.3370 C   0  0  0  0  0  2  0  0  0  0  0  0
  183.6750  174.8520  136.2010 N   0  0  0  0  0  0  0  0  0  0  0  0
  184.8240  176.8510  135.3660 C   0  0  0  0  0  2  0  0  0  0  0  0
  187.1940  175.1760  134.9620 C   0  0  0  0  0  2  0  0  0  0  0  0
  187.8400  176.2040  135.9000 C   0  0  2  0  0  3  0  0  0  0  0  0
  185.9520  174.4980  135.5470 C   0  0  0  0  0  2  0  0  0  0  0  0
  182.0720  175.9100  137.7690 N   0  0  0  0  0  2  0  0  0  0  0  0
  182.4060  175.4830  136.4490 C   0  0  0  0  0  0  0  0  0  0  0  0
  181.5680  175.6570  135.5240 O   0  0  0  0  0  0  0  0  0  0  0  0
  183.0120  175.7990  138.8760 C   0  0  0  0  0  2  0  0  0  0  0  0
  182.7720  176.8940  139.9150 C   0  0  2  0  0  3  0  0  0  0  0  0
  180.8680  177.9990  140.8430 O   0  0  0  0  0  1  0  0  0  0  0  0
  181.4550  177.6030  139.6410 C   0  0  0  0  0  2  0  0  0  0  0  0
  183.9220  177.8970  139.9540 C   0  0  0  0  0  2  0  0  0  0  0  0
  183.8080  178.9130  138.8270 C   0  0  0  0  0  2  0  0  0  0  0  0
  184.4990  180.0760  139.1640 O   0  0  0  0  0  1  0  0  0  0  0  0
  1  9  1  0  0  0  0
  2  5  2  0  0  0  0
  3  8  1  0  0  0  0
  4  7  1  0  0  0  0
  4  1  1  0  0  0  0
  5 19  1  0  0  0  0
  6  4  2  0  0  0  0
  8  5  1  0  0  0  0
  9  3  2  0  0  0  0
  9  2  1  0  0  0  0
 10  7  1  0  0  0  0
 11 18  1  0  0  0  0
 12 15  1  1  0  0  0
 12 13  1  0  0  0  0
 12 16  1  0  0  0  0
 13 10  1  6  0  0  0
 13 14  1  0  0  0  0
 14 18  1  0  0  0  0
 16 17  1  0  0  0  0
 17 11  1  0  0  0  0
 19 20  1  0  0  0  0
 20 24  2  0  0  0  0
 20 23  1  0  0  0  0
 21 30  1  0  0  0  0
 22 21  2  0  0  0  0
 23 25  2  0  0  0  0
 24 22  1  0  0  0  0
 25 21  1  0  0  0  0
 27 26  1  0  0  0  0
 27 33  1  0  0  0  0
 28 26  2  0  0  0  0
 29 28  1  0  0  0  0
 30 29  2  0  0  0  0
 30 31  1  0  0  0  0
 31 27  2  0  0  0  0
 33 32  1  0  0  0  0
 34  2  1  0  0  0  0
 35 41  1  0  0  0  0
 35 37  1  0  0  0  0
 36 38  2  0  0  0  0
 38 44  1  0  0  0  0
 39 36  1  0  0  0  0
 39 37  1  0  0  0  0
 40 42  1  0  0  0  0
 40 41  1  0  0  0  0
 41 34  1  1  0  0  0
 42 36  1  0  0  0  0
 43 46  1  0  0  0  0
 44 43  1  0  0  0  0
 45 44  2  0  0  0  0
 47 46  1  6  0  0  0
 47 50  1  0  0  0  0
 49 47  1  0  0  0  0
 49 48  1  0  0  0  0
 51 52  1  0  0  0  0
 51 50  1  0  0  0  0
M  END
>  <MODEL>
2

>  <REMARK>
 VINA RESULT:      -8.2      1.202      2.259
  Name = 
  14 active torsions:
  status: ('A' for Active; 'I' for Inactive)
    1  A    between atoms: C_2  and  C_49
    2  A    between atoms: O_4  and  C_19
    3  A    between atoms: O_4  and  N_23
    4  A    between atoms: N_5  and  C_39
    5  A    between atoms: N_6  and  C_9
    6  A    between atoms: N_6  and  C_18
    7  A    between atoms: C_10  and  C_24
    8  A    between atoms: C_10  and  C_33
    9  A    between atoms: C_14  and  C_44
   10  A    between atoms: C_17  and  C_22
   11  A    between atoms: C_24  and  C_39
   12  A    between atoms: C_24  and  C_50
   13  A    between atoms: N_28  and  C_29
   14  A    between atoms: C_41  and  C_49
                            x       y       z     vdW  Elec       q    Type
                         _______ _______ _______ _____ _____    ______ ____

>  <TORSDO>
F 14

$$$$
=
 OpenBabel10232411413D

 52 56  0  0  1  0  0  0  0  0999 V2000
  188.8690  173.6570  136.0410 N   0  0  0  0  0  2  0  0  0  0  0  0
  189.6970  175.6820  137.3380 C   0  0  0  0  0  0  0  0  0  0  0  0
  187.4960  175.4800  136.7960 N   0  0  0  0  0  0  0  0  0  0  0  0
  187.8630  172.8510  135.4210 C   0  0  0  0  0  0  0  0  0  0  0  0
  189.1130  176.7690  137.8290 C   0  0  0  0  0  0  0  0  0  0  0  0
  188.1950  171.7640  134.8780 O   0  0  0  0  0  0  0  0  0  0  0  0
  186.4940  173.2630  135.4060 N   0  0  0  0  0  2  0  0  0  0  0  0
  187.6480  176.7240  137.5440 C   0  0  0  0  0  2  0  0  0  0  0  0
  188.6510  174.9120  136.6980 C   0  0  0  0  0  0  0  0  0  0  0  0
  185.5310  172.4900  134.8480 O   0  0  0  0  0  0  0  0  0  0  0  0
  182.3620  174.3530  137.3310 C   0  0  0  0  0  2  0  0  0  0  0  0
  183.2330  172.1420  135.4510 C   0  0  1  0  0  3  0  0  0  0  0  0
  184.3310  173.1570  135.1120 C   0  0  1  0  0  3  0  0  0  0  0  0
  184.5590  174.2100  136.1950 C   0  0  0  0  0  2  0  0  0  0  0  0
  183.4730  171.3730  136.7450 C   0  0  0  0  0  1  0  0  0  0  0  0
  181.8340  172.7530  135.3430 C   0  0  0  0  0  2  0  0  0  0  0  0
  181.3270  173.5080  136.5810 C   0  0  0  0  0  2  0  0  0  0  0  0
  183.3290  175.0790  136.4090 C   0  0  0  0  0  2  0  0  0  0  0  0
  189.7180  177.7260  138.7110 N   0  0  0  0  0  2  0  0  0  0  0  0
  189.8610  177.5850  140.1290 C   0  0  0  0  0  0  0  0  0  0  0  0
  190.0570  177.3670  142.9010 C   0  0  0  0  0  0  0  0  0  0  0  0
  188.8480  177.5280  142.2920 N   0  0  0  0  0  0  0  0  0  0  0  0
  191.1170  177.4420  140.7290 C   0  0  0  0  0  3  0  0  0  0  0  0
  188.7280  177.6400  140.9420 C   0  0  0  0  0  3  0  0  0  0  0  0
  191.2180  177.3280  142.1150 C   0  0  0  0  0  3  0  0  0  0  0  0
  190.2580  177.0090  147.1700 C   0  0  0  0  0  3  0  0  0  0  0  0
  189.0750  177.4330  146.5570 C   0  0  0  0  0  0  0  0  0  0  0  0
  191.3770  176.6980  146.3920 C   0  0  0  0  0  3  0  0  0  0  0  0
  191.3150  176.8140  145.0010 C   0  0  0  0  0  3  0  0  0  0  0  0
  190.1340  177.2430  144.3730 C   0  0  0  0  0  0  0  0  0  0  0  0
  189.0150  177.5520  145.1640 C   0  0  0  0  0  3  0  0  0  0  0  0
  188.3050  177.9930  148.8300 C   0  0  0  0  0  1  0  0  0  0  0  0
  187.8890  177.7830  147.3860 C   0  0  0  0  0  2  0  0  0  0  0  0
  191.0860  175.2010  137.6170 C   0  0  0  0  0  2  0  0  0  0  0  0
  192.1180  175.1120  135.3000 C   0  0  0  0  0  2  0  0  0  0  0  0
  194.3760  173.6750  137.1640 C   0  0  0  0  0  0  0  0  0  0  0  0
  192.6470  173.6850  135.3850 C   0  0  0  0  0  2  0  0  0  0  0  0
  194.8650  172.6330  137.7740 N   0  0  0  0  0  0  0  0  0  0  0  0
  194.1380  173.6820  135.6800 C   0  0  0  0  0  2  0  0  0  0  0  0
  193.4730  176.0690  137.2440 C   0  0  0  0  0  2  0  0  0  0  0  0
  192.0800  175.8340  136.6460 C   0  0  2  0  0  3  0  0  0  0  0  0
  194.0310  174.8660  138.0100 C   0  0  0  0  0  2  0  0  0  0  0  0
  196.6570  171.1600  136.9000 N   0  0  0  0  0  2  0  0  0  0  0  0
  195.2790  171.3820  137.1960 C   0  0  0  0  0  0  0  0  0  0  0  0
  194.4460  170.4760  136.9290 O   0  0  0  0  0  0  0  0  0  0  0  0
  197.6850  172.1350  137.2360 C   0  0  0  0  0  2  0  0  0  0  0  0
  197.8610  173.1600  136.1170 C   0  0  2  0  0  3  0  0  0  0  0  0
  200.2290  173.1140  135.8060 O   0  0  0  0  0  1  0  0  0  0  0  0
  199.0170  172.7620  135.2120 C   0  0  0  0  0  2  0  0  0  0  0  0
  198.0730  174.5680  136.6680 C   0  0  0  0  0  2  0  0  0  0  0  0
  197.8070  174.6210  138.1650 C   0  0  0  0  0  2  0  0  0  0  0  0
  198.5670  175.6350  138.7460 O   0  0  0  0  0  1  0  0  0  0  0  0
  1  9  1  0  0  0  0
  2 34  1  0  0  0  0
  2  5  2  0  0  0  0
  3  8  1  0  0  0  0
  4  1  1  0  0  0  0
  5 19  1  0  0  0  0
  6  4  2  0  0  0  0
  7  4  1  0  0  0  0
  8  5  1  0  0  0  0
  9  3  2  0  0  0  0
  9  2  1  0  0  0  0
 10  7  1  0  0  0  0
 12 15  1  1  0  0  0
 13 10  1  1  0  0  0
 13 12  1  0  0  0  0
 13 14  1  0  0  0  0
 14 18  1  0  0  0  0
 16 12  1  0  0  0  0
 16 17  1  0  0  0  0
 17 11  1  0  0  0  0
 18 11  1  0  0  0  0
 19 20  1  0  0  0  0
 20 23  2  0  0  0  0
 20 24  1  0  0  0  0
 21 30  1  0  0  0  0
 22 21  1  0  0  0  0
 23 25  1  0  0  0  0
 24 22  2  0  0  0  0
 25 21  2  0  0  0  0
 27 26  1  0  0  0  0
 27 33  1  0  0  0  0
 28 26  2  0  0  0  0
 29 28  1  0  0  0  0
 30 29  2  0  0  0  0
 30 31  1  0  0  0  0
 31 27  2  0  0  0  0
 33 32  1  0  0  0  0
 35 37  1  0  0  0  0
 35 41  1  0  0  0  0
 36 38  2  0  0  0  0
 36 42  1  0  0  0  0
 37 39  1  0  0  0  0
 39 36  1  0  0  0  0
 40 42  1  0  0  0  0
 41 40  1  0  0  0  0
 41 34  1  1  0  0  0
 43 44  1  0  0  0  0
 43 46  1  0  0  0  0
 44 38  1  0  0  0  0
 45 44  2  0  0  0  0
 47 49  1  1  0  0  0
 47 50  1  0  0  0  0
 47 46  1  0  0  0  0
 49 48  1  0  0  0  0
 50 51  1  0  0  0  0
 51 52  1  0  0  0  0
M  END
>  <MODEL>
3

>  <REMARK>
 VINA RESULT:      -8.1      2.973      9.675
  Name = 
  14 active torsions:
  status: ('A' for Active; 'I' for Inactive)
    1  A    between atoms: C_2  and  C_49
    2  A    between atoms: O_4  and  C_19
    3  A    between atoms: O_4  and  N_23
    4  A    between atoms: N_5  and  C_39
    5  A    between atoms: N_6  and  C_9
    6  A    between atoms: N_6  and  C_18
    7  A    between atoms: C_10  and  C_24
    8  A    between atoms: C_10  and  C_33
    9  A    between atoms: C_14  and  C_44
   10  A    between atoms: C_17  and  C_22
   11  A    between atoms: C_24  and  C_39
   12  A    between atoms: C_24  and  C_50
   13  A    between atoms: N_28  and  C_29
   14  A    between atoms: C_41  and  C_49
                            x       y       z     vdW  Elec       q    Type
                         _______ _______ _______ _____ _____    ______ ____

>  <TORSDO>
F 14

$$$$
=
 OpenBabel10232411413D

 52 56  0  0  1  0  0  0  0  0999 V2000
  187.5160  174.4700  136.0580 N   0  0  0  0  0  2  0  0  0  0  0  0
  189.0130  176.0540  137.3690 C   0  0  0  0  0  0  0  0  0  0  0  0
  186.7900  176.4880  137.1450 N   0  0  0  0  0  0  0  0  0  0  0  0
  186.2610  174.0250  135.5340 C   0  0  0  0  0  0  0  0  0  0  0  0
  188.8110  177.1920  138.0220 C   0  0  0  0  0  0  0  0  0  0  0  0
  186.2180  172.9580  134.8660 O   0  0  0  0  0  0  0  0  0  0  0  0
  185.0640  174.7740  135.7550 N   0  0  0  0  0  2  0  0  0  0  0  0
  187.3640  177.5570  137.9560 C   0  0  0  0  0  2  0  0  0  0  0  0
  187.7280  175.6560  136.8340 C   0  0  0  0  0  0  0  0  0  0  0  0
  183.8670  174.3430  135.2880 O   0  0  0  0  0  0  0  0  0  0  0  0
  180.1300  174.6230  137.6630 C   0  0  0  0  0  2  0  0  0  0  0  0
  182.9450  175.6010  137.1150 C   0  0  1  0  0  3  0  0  0  0  0  0
  183.0520  174.2380  136.4190 C   0  0  1  0  0  3  0  0  0  0  0  0
  181.7050  173.6350  136.0250 C   0  0  0  0  0  2  0  0  0  0  0  0
  182.2290  176.6650  136.2910 C   0  0  0  0  0  1  0  0  0  0  0  0
  182.4270  175.4740  138.5490 C   0  0  0  0  0  2  0  0  0  0  0  0
  180.9010  175.4220  138.7170 C   0  0  0  0  0  2  0  0  0  0  0  0
  180.8360  173.3440  137.2400 C   0  0  0  0  0  2  0  0  0  0  0  0
  189.7550  177.8550  138.8750 N   0  0  0  0  0  2  0  0  0  0  0  0
  189.8230  177.7370  140.3010 C   0  0  0  0  0  0  0  0  0  0  0  0
  190.0160  177.4260  143.0640 C   0  0  0  0  0  0  0  0  0  0  0  0
  191.0350  177.0510  142.2410 N   0  0  0  0  0  0  0  0  0  0  0  0
  188.7520  178.1110  141.1200 C   0  0  0  0  0  3  0  0  0  0  0  0
  190.9630  177.1900  140.8900 C   0  0  0  0  0  3  0  0  0  0  0  0
  188.8470  177.9620  142.5030 C   0  0  0  0  0  3  0  0  0  0  0  0
  190.3740  176.9490  147.3110 C   0  0  0  0  0  3  0  0  0  0  0  0
  189.1460  177.3070  146.7460 C   0  0  0  0  0  0  0  0  0  0  0  0
  191.4870  176.7440  146.4920 C   0  0  0  0  0  3  0  0  0  0  0  0
  191.3740  176.8980  145.1070 C   0  0  0  0  0  3  0  0  0  0  0  0
  190.1470  177.2620  144.5280 C   0  0  0  0  0  0  0  0  0  0  0  0
  189.0340  177.4660  145.3610 C   0  0  0  0  0  3  0  0  0  0  0  0
  188.4050  178.1470  148.9430 C   0  0  0  0  0  1  0  0  0  0  0  0
  187.9640  177.5460  147.6210 C   0  0  0  0  0  2  0  0  0  0  0  0
  190.2440  175.2040  137.4000 C   0  0  0  0  0  2  0  0  0  0  0  0
  191.1710  173.5840  135.6810 C   0  0  0  0  0  2  0  0  0  0  0  0
  193.8610  174.9080  136.9640 C   0  0  0  0  0  0  0  0  0  0  0  0
  192.3010  173.0270  136.5380 C   0  0  0  0  0  2  0  0  0  0  0  0
  194.7840  174.9670  137.8810 N   0  0  0  0  0  0  0  0  0  0  0  0
  193.6280  173.6630  136.1560 C   0  0  0  0  0  2  0  0  0  0  0  0
  191.9530  176.0170  135.6650 C   0  0  0  0  0  2  0  0  0  0  0  0
  190.8200  175.0370  135.9970 C   0  0  2  0  0  3  0  0  0  0  0  0
  193.0140  176.1320  136.7640 C   0  0  0  0  0  2  0  0  0  0  0  0
  197.0110  173.9030  137.6460 N   0  0  0  0  0  2  0  0  0  0  0  0
  195.7230  173.9440  138.2590 C   0  0  0  0  0  0  0  0  0  0  0  0
  195.4280  173.0670  139.1140 O   0  0  0  0  0  0  0  0  0  0  0  0
  197.4460  174.9180  136.6960 C   0  0  0  0  0  2  0  0  0  0  0  0
  197.1310  174.5000  135.2600 C   0  0  2  0  0  3  0  0  0  0  0  0
  199.2770  173.4880  135.5440 O   0  0  0  0  0  1  0  0  0  0  0  0
  198.3780  173.9520  134.5830 C   0  0  0  0  0  2  0  0  0  0  0  0
  196.5470  175.6550  134.4510 C   0  0  0  0  0  2  0  0  0  0  0  0
  196.7390  176.9830  135.1660 C   0  0  0  0  0  2  0  0  0  0  0  0
  195.5380  177.6920  135.1820 O   0  0  0  0  0  1  0  0  0  0  0  0
  1  9  1  0  0  0  0
  2 34  1  0  0  0  0
  2  5  2  0  0  0  0
  3  8  1  0  0  0  0
  4  7  1  0  0  0  0
  4  1  1  0  0  0  0
  5 19  1  0  0  0  0
  6  4  2  0  0  0  0
  8  5  1  0  0  0  0
  9  3  2  0  0  0  0
  9  2  1  0  0  0  0
 10  7  1  0  0  0  0
 11 17  1  0  0  0  0
 12 15  1  6  0  0  0
 12 16  1  0  0  0  0
 13 10  1  6  0  0  0
 13 12  1  0  0  0  0
 14 13  1  0  0  0  0
 14 18  1  0  0  0  0
 16 17  1  0  0  0  0
 18 11  1  0  0  0  0
 19 20  1  0  0  0  0
 20 24  2  0  0  0  0
 20 23  1  0  0  0  0
 21 30  1  0  0  0  0
 22 21  2  0  0  0  0
 23 25  2  0  0  0  0
 24 22  1  0  0  0  0
 25 21  1  0  0  0  0
 27 26  1  0  0  0  0
 27 33  1  0  0  0  0
 28 26  2  0  0  0  0
 29 28  1  0  0  0  0
 30 29  2  0  0  0  0
 30 31  1  0  0  0  0
 31 27  2  0  0  0  0
 33 32  1  0  0  0  0
 35 41  1  0  0  0  0
 35 37  1  0  0  0  0
 36 38  2  0  0  0  0
 38 44  1  0  0  0  0
 39 37  1  0  0  0  0
 39 36  1  0  0  0  0
 40 41  1  0  0  0  0
 40 42  1  0  0  0  0
 41 34  1  1  0  0  0
 42 36  1  0  0  0  0
 43 44  1  0  0  0  0
 44 45  2  0  0  0  0
 46 43  1  0  0  0  0
 47 50  1  6  0  0  0
 47 46  1  0  0  0  0
 49 47  1  0  0  0  0
 49 48  1  0  0  0  0
 50 51  1  0  0  0  0
 51 52  1  0  0  0  0
M  END
>  <MODEL>
4

>  <REMARK>
 VINA RESULT:      -8.1      2.601      9.813
  Name = 
  14 active torsions:
  status: ('A' for Active; 'I' for Inactive)
    1  A    between atoms: C_2  and  C_49
    2  A    between atoms: O_4  and  C_19
    3  A    between atoms: O_4  and  N_23
    4  A    between atoms: N_5  and  C_39
    5  A    between atoms: N_6  and  C_9
    6  A    between atoms: N_6  and  C_18
    7  A    between atoms: C_10  and  C_24
    8  A    between atoms: C_10  and  C_33
    9  A    between atoms: C_14  and  C_44
   10  A    between atoms: C_17  and  C_22
   11  A    between atoms: C_24  and  C_39
   12  A    between atoms: C_24  and  C_50
   13  A    between atoms: N_28  and  C_29
   14  A    between atoms: C_41  and  C_49
                            x       y       z     vdW  Elec       q    Type
                         _______ _______ _______ _____ _____    ______ ____

>  <TORSDO>
F 14

$$$$
=
 OpenBabel10232411413D

 52 56  0  0  1  0  0  0  0  0999 V2000
  186.1560  178.4670  142.1620 N   0  0  0  0  0  2  0  0  0  0  0  0
  188.2330  178.1980  140.7190 C   0  0  0  0  0  0  0  0  0  0  0  0
  186.1820  178.4250  139.7580 N   0  0  0  0  0  0  0  0  0  0  0  0
  184.7540  178.6610  142.3740 C   0  0  0  0  0  0  0  0  0  0  0  0
  188.4510  178.1470  139.4100 C   0  0  0  0  0  0  0  0  0  0  0  0
  184.3150  178.7330  143.5530 O   0  0  0  0  0  0  0  0  0  0  0  0
  183.8500  178.7690  141.2720 N   0  0  0  0  0  2  0  0  0  0  0  0
  187.1590  178.3110  138.6800 C   0  0  0  0  0  2  0  0  0  0  0  0
  186.8040  178.3660  140.8880 C   0  0  0  0  0  0  0  0  0  0  0  0
  182.5250  178.9830  141.4650 O   0  0  0  0  0  0  0  0  0  0  0  0
  181.9020  176.4940  137.8470 C   0  0  0  0  0  2  0  0  0  0  0  0
  181.0140  178.7930  139.6090 C   0  0  1  0  0  3  0  0  0  0  0  0
  181.8830  178.0580  140.6360 C   0  0  1  0  0  3  0  0  0  0  0  0
  182.9180  177.1210  140.0170 C   0  0  0  0  0  2  0  0  0  0  0  0
  181.8040  179.6340  138.6130 C   0  0  0  0  0  1  0  0  0  0  0  0
  179.9860  177.8640  138.9590 C   0  0  0  0  0  2  0  0  0  0  0  0
  180.4770  177.0460  137.7550 C   0  0  0  0  0  2  0  0  0  0  0  0
  182.2660  175.9910  139.2350 C   0  0  0  0  0  2  0  0  0  0  0  0
  189.7330  178.1820  138.7660 N   0  0  0  0  0  2  0  0  0  0  0  0
  190.4300  177.0540  138.2250 C   0  0  0  0  0  0  0  0  0  0  0  0
  191.7030  174.8020  137.1870 C   0  0  0  0  0  0  0  0  0  0  0  0
  190.3510  174.9500  137.0970 N   0  0  0  0  0  0  0  0  0  0  0  0
  191.8170  176.9190  138.3500 C   0  0  0  0  0  3  0  0  0  0  0  0
  189.7070  176.0370  137.5990 C   0  0  0  0  0  3  0  0  0  0  0  0
  192.4580  175.7960  137.8280 C   0  0  0  0  0  3  0  0  0  0  0  0
  193.6140  171.3270  135.5540 C   0  0  0  0  0  3  0  0  0  0  0  0
  194.2880  172.1280  136.4810 C   0  0  0  0  0  0  0  0  0  0  0  0
  192.3140  171.6560  135.1600 C   0  0  0  0  0  3  0  0  0  0  0  0
  191.6880  172.7880  135.6900 C   0  0  0  0  0  3  0  0  0  0  0  0
  192.3570  173.6040  136.6190 C   0  0  0  0  0  0  0  0  0  0  0  0
  193.6620  173.2640  137.0080 C   0  0  0  0  0  3  0  0  0  0  0  0
  196.2320  172.8600  137.8090 C   0  0  0  0  0  1  0  0  0  0  0  0
  195.6800  171.7890  136.8860 C   0  0  0  0  0  2  0  0  0  0  0  0
  189.2590  178.3340  141.7990 C   0  0  0  0  0  2  0  0  0  0  0  0
  190.1980  175.9770  141.8400 C   0  0  0  0  0  2  0  0  0  0  0  0
  191.4320  177.3040  144.5520 C   0  0  0  0  0  0  0  0  0  0  0  0
  189.9770  175.7130  143.3240 C   0  0  0  0  0  2  0  0  0  0  0  0
  191.3420  177.6370  145.8090 N   0  0  0  0  0  0  0  0  0  0  0  0
  191.2740  175.8800  144.0980 C   0  0  0  0  0  2  0  0  0  0  0  0
  191.7810  177.9660  142.1040 C   0  0  0  0  0  2  0  0  0  0  0  0
  190.4660  177.4450  141.5110 C   0  0  2  0  0  3  0  0  0  0  0  0
  191.6700  178.4100  143.5660 C   0  0  0  0  0  2  0  0  0  0  0  0
  190.0790  177.0630  147.8640 N   0  0  0  0  0  2  0  0  0  0  0  0
  191.1260  176.7730  146.9400 C   0  0  0  0  0  0  0  0  0  0  0  0
  191.8550  175.7670  147.1440 O   0  0  0  0  0  0  0  0  0  0  0  0
  189.1570  178.1730  147.6620 C   0  0  0  0  0  2  0  0  0  0  0  0
  187.8260  177.6870  147.0890 C   0  0  2  0  0  3  0  0  0  0  0  0
  187.1130  176.8350  144.9730 O   0  0  0  0  0  1  0  0  0  0  0  0
  187.7940  177.8900  145.5820 C   0  0  0  0  0  2  0  0  0  0  0  0
  186.6380  178.3840  147.7480 C   0  0  0  0  0  2  0  0  0  0  0  0
  185.7360  179.0350  146.7110 C   0  0  0  0  0  2  0  0  0  0  0  0
  184.4730  178.4450  146.7440 O   0  0  0  0  0  1  0  0  0  0  0  0
  1  4  1  0  0  0  0
  2  9  1  0  0  0  0
  2 34  1  0  0  0  0
  3  9  2  0  0  0  0
  4  6  2  0  0  0  0
  5  2  2  0  0  0  0
  7 10  1  0  0  0  0
  7  4  1  0  0  0  0
  8  5  1  0  0  0  0
  8  3  1  0  0  0  0
  9  1  1  0  0  0  0
 11 18  1  0  0  0  0
 12 15  1  6  0  0  0
 12 13  1  0  0  0  0
 13 10  1  6  0  0  0
 14 13  1  0  0  0  0
 16 12  1  0  0  0  0
 17 11  1  0  0  0  0
 17 16  1  0  0  0  0
 18 14  1  0  0  0  0
 19  5  1  0  0  0  0
 20 23  1  0  0  0  0
 20 19  1  0  0  0  0
 21 25  1  0  0  0  0
 22 21  2  0  0  0  0
 22 24  1  0  0  0  0
 24 20  2  0  0  0  0
 25 23  2  0  0  0  0
 26 27  1  0  0  0  0
 27 33  1  0  0  0  0
 27 31  2  0  0  0  0
 28 26  2  0  0  0  0
 28 29  1  0  0  0  0
 29 30  2  0  0  0  0
 30 31  1  0  0  0  0
 30 21  1  0  0  0  0
 33 32  1  0  0  0  0
 35 37  1  0  0  0  0
 36 38  2  0  0  0  0
 37 39  1  0  0  0  0
 38 44  1  0  0  0  0
 39 36  1  0  0  0  0
 40 42  1  0  0  0  0
 41 34  1  1  0  0  0
 41 35  1  0  0  0  0
 41 40  1  0  0  0  0
 42 36  1  0  0  0  0
 44 45  2  0  0  0  0
 44 43  1  0  0  0  0
 46 43  1  0  0  0  0
 47 49  1  6  0  0  0
 47 46  1  0  0  0  0
 47 50  1  0  0  0  0
 48 49  1  0  0  0  0
 51 52  1  0  0  0  0
 51 50  1  0  0  0  0
M  END
>  <MODEL>
5

>  <REMARK>
 VINA RESULT:      -8.0      3.500     11.288
  Name = 
  14 active torsions:
  status: ('A' for Active; 'I' for Inactive)
    1  A    between atoms: C_2  and  C_49
    2  A    between atoms: O_4  and  C_19
    3  A    between atoms: O_4  and  N_23
    4  A    between atoms: N_5  and  C_39
    5  A    between atoms: N_6  and  C_9
    6  A    between atoms: N_6  and  C_18
    7  A    between atoms: C_10  and  C_24
    8  A    between atoms: C_10  and  C_33
    9  A    between atoms: C_14  and  C_44
   10  A    between atoms: C_17  and  C_22
   11  A    between atoms: C_24  and  C_39
   12  A    between atoms: C_24  and  C_50
   13  A    between atoms: N_28  and  C_29
   14  A    between atoms: C_41  and  C_49
                            x       y       z     vdW  Elec       q    Type
                         _______ _______ _______ _____ _____    ______ ____

>  <TORSDO>
F 14

$$$$
=
 OpenBabel10232411413D

 52 56  0  0  1  0  0  0  0  0999 V2000
  186.5230  178.6340  140.4440 N   0  0  0  0  0  2  0  0  0  0  0  0
  188.9680  178.0570  140.0500 C   0  0  0  0  0  0  0  0  0  0  0  0
  187.4800  178.0110  138.3280 N   0  0  0  0  0  0  0  0  0  0  0  0
  185.1700  178.8510  140.0310 C   0  0  0  0  0  0  0  0  0  0  0  0
  189.6740  177.6930  138.9860 C   0  0  0  0  0  0  0  0  0  0  0  0
  184.3140  179.1990  140.8870 O   0  0  0  0  0  0  0  0  0  0  0  0
  184.7790  178.6730  138.6670 N   0  0  0  0  0  2  0  0  0  0  0  0
  188.7870  177.6540  137.7850 C   0  0  0  0  0  2  0  0  0  0  0  0
  187.6050  178.2380  139.5930 C   0  0  0  0  0  0  0  0  0  0  0  0
  183.5060  178.9060  138.2630 O   0  0  0  0  0  0  0  0  0  0  0  0
  182.0730  175.4060  135.9450 C   0  0  0  0  0  2  0  0  0  0  0  0
  181.4570  177.7670  137.7410 C   0  0  1  0  0  3  0  0  0  0  0  0
  182.9520  177.6390  138.0600 C   0  0  1  0  0  3  0  0  0  0  0  0
  183.7520  176.8960  136.9920 C   0  0  0  0  0  2  0  0  0  0  0  0
  181.1600  178.4720  136.4220 C   0  0  0  0  0  1  0  0  0  0  0  0
  180.7170  176.4390  137.9150 C   0  0  0  0  0  2  0  0  0  0  0  0
  180.7510  175.4820  136.7140 C   0  0  0  0  0  2  0  0  0  0  0  0
  183.2980  175.4510  136.8440 C   0  0  0  0  0  2  0  0  0  0  0  0
  191.1040  177.5920  138.9150 N   0  0  0  0  0  2  0  0  0  0  0  0
  191.8400  176.4830  138.3890 C   0  0  0  0  0  0  0  0  0  0  0  0
  193.3460  174.3880  137.3340 C   0  0  0  0  0  0  0  0  0  0  0  0
  193.9470  175.5100  137.8220 N   0  0  0  0  0  0  0  0  0  0  0  0
  191.1960  175.3520  137.8750 C   0  0  0  0  0  3  0  0  0  0  0  0
  193.2330  176.5460  138.3380 C   0  0  0  0  0  3  0  0  0  0  0  0
  191.9470  174.3000  137.3510 C   0  0  0  0  0  3  0  0  0  0  0  0
  195.7110  171.1790  135.7510 C   0  0  0  0  0  3  0  0  0  0  0  0
  194.3530  170.9830  136.0210 C   0  0  0  0  0  0  0  0  0  0  0  0
  196.3000  172.4230  135.9950 C   0  0  0  0  0  3  0  0  0  0  0  0
  195.5320  173.4710  136.5110 C   0  0  0  0  0  3  0  0  0  0  0  0
  194.1680  173.2850  136.7900 C   0  0  0  0  0  0  0  0  0  0  0  0
  193.5860  172.0320  136.5410 C   0  0  0  0  0  3  0  0  0  0  0  0
  193.8560  168.7840  137.0180 C   0  0  0  0  0  1  0  0  0  0  0  0
  193.7300  169.6520  135.7800 C   0  0  0  0  0  2  0  0  0  0  0  0
  189.5000  178.4680  141.3860 C   0  0  0  0  0  2  0  0  0  0  0  0
  190.1940  176.1550  142.1650 C   0  0  0  0  0  2  0  0  0  0  0  0
  190.1160  177.8680  144.9390 C   0  0  0  0  0  0  0  0  0  0  0  0
  189.3060  176.0980  143.4020 C   0  0  0  0  0  2  0  0  0  0  0  0
  189.4780  178.3730  145.9570 N   0  0  0  0  0  0  0  0  0  0  0  0
  190.1120  176.3920  144.6560 C   0  0  0  0  0  2  0  0  0  0  0  0
  191.5810  178.1850  142.8630 C   0  0  0  0  0  2  0  0  0  0  0  0
  190.6570  177.5660  141.8060 C   0  0  2  0  0  3  0  0  0  0  0  0
  190.8360  178.8280  144.0370 C   0  0  0  0  0  2  0  0  0  0  0  0
  187.3780  177.2860  146.7020 N   0  0  0  0  0  2  0  0  0  0  0  0
  188.7250  177.6740  146.9650 C   0  0  0  0  0  0  0  0  0  0  0  0
  189.2260  177.4060  148.0890 O   0  0  0  0  0  0  0  0  0  0  0  0
  186.7510  177.5060  145.4050 C   0  0  0  0  0  2  0  0  0  0  0  0
  185.8440  178.7350  145.4330 C   0  0  2  0  0  3  0  0  0  0  0  0
  185.6090  179.7720  147.5730 O   0  0  0  0  0  1  0  0  0  0  0  0
  185.0690  178.7910  146.7410 C   0  0  0  0  0  2  0  0  0  0  0  0
  184.8870  178.7580  144.2430 C   0  0  0  0  0  2  0  0  0  0  0  0
  183.4590  179.0340  144.6880 C   0  0  0  0  0  2  0  0  0  0  0  0
  182.5790  178.8000  143.6320 O   0  0  0  0  0  1  0  0  0  0  0  0
  2 34  1  0  0  0  0
  3  9  2  0  0  0  0
  4  1  1  0  0  0  0
  4  6  2  0  0  0  0
  5  2  2  0  0  0  0
  7  4  1  0  0  0  0
  8  3  1  0  0  0  0
  8  5  1  0  0  0  0
  9  2  1  0  0  0  0
  9  1  1  0  0  0  0
 10  7  1  0  0  0  0
 11 17  1  0  0  0  0
 11 18  1  0  0  0  0
 12 15  1  6  0  0  0
 12 16  1  0  0  0  0
 12 13  1  0  0  0  0
 13 10  1  6  0  0  0
 14 13  1  0  0  0  0
 17 16  1  0  0  0  0
 18 14  1  0  0  0  0
 19  5  1  0  0  0  0
 20 19  1  0  0  0  0
 21 25  2  0  0  0  0
 21 22  1  0  0  0  0
 22 24  2  0  0  0  0
 23 20  2  0  0  0  0
 24 20  1  0  0  0  0
 25 23  1  0  0  0  0
 26 28  2  0  0  0  0
 26 27  1  0  0  0  0
 27 31  2  0  0  0  0
 28 29  1  0  0  0  0
 29 30  2  0  0  0  0
 30 21  1  0  0  0  0
 31 30  1  0  0  0  0
 33 27  1  0  0  0  0
 33 32  1  0  0  0  0
 35 37  1  0  0  0  0
 36 38  2  0  0  0  0
 37 39  1  0  0  0  0
 38 44  1  0  0  0  0
 39 36  1  0  0  0  0
 40 42  1  0  0  0  0
 41 34  1  1  0  0  0
 41 35  1  0  0  0  0
 41 40  1  0  0  0  0
 42 36  1  0  0  0  0
 43 44  1  0  0  0  0
 44 45  2  0  0  0  0
 46 47  1  0  0  0  0
 46 43  1  0  0  0  0
 47 50  1  6  0  0  0
 47 49  1  0  0  0  0
 49 48  1  0  0  0  0
 50 51  1  0  0  0  0
 52 51  1  0  0  0  0
M  END
>  <MODEL>
6

>  <REMARK>
 VINA RESULT:      -7.7      3.283     10.806
  Name = 
  14 active torsions:
  status: ('A' for Active; 'I' for Inactive)
    1  A    between atoms: C_2  and  C_49
    2  A    between atoms: O_4  and  C_19
    3  A    between atoms: O_4  and  N_23
    4  A    between atoms: N_5  and  C_39
    5  A    between atoms: N_6  and  C_9
    6  A    between atoms: N_6  and  C_18
    7  A    between atoms: C_10  and  C_24
    8  A    between atoms: C_10  and  C_33
    9  A    between atoms: C_14  and  C_44
   10  A    between atoms: C_17  and  C_22
   11  A    between atoms: C_24  and  C_39
   12  A    between atoms: C_24  and  C_50
   13  A    between atoms: N_28  and  C_29
   14  A    between atoms: C_41  and  C_49
                            x       y       z     vdW  Elec       q    Type
                         _______ _______ _______ _____ _____    ______ ____

>  <TORSDO>
F 14

$$$$
=
 OpenBabel10232411413D

 52 56  0  0  1  0  0  0  0  0999 V2000
  188.5230  174.0860  135.6230 N   0  0  0  0  0  2  0  0  0  0  0  0
  188.7000  176.2060  137.0160 C   0  0  0  0  0  0  0  0  0  0  0  0
  186.7470  175.0400  136.9340 N   0  0  0  0  0  0  0  0  0  0  0  0
  187.8410  172.9350  135.1130 C   0  0  0  0  0  0  0  0  0  0  0  0
  187.8550  176.8810  137.7870 C   0  0  0  0  0  0  0  0  0  0  0  0
  188.4560  172.1470  134.3460 O   0  0  0  0  0  0  0  0  0  0  0  0
  186.4790  172.6730  135.4580 N   0  0  0  0  0  2  0  0  0  0  0  0
  186.5370  176.1810  137.8200 C   0  0  0  0  0  2  0  0  0  0  0  0
  187.9640  175.0700  136.5010 C   0  0  0  0  0  0  0  0  0  0  0  0
  185.8370  171.5690  135.0040 O   0  0  0  0  0  0  0  0  0  0  0  0
  181.9340  171.6940  137.1090 C   0  0  0  0  0  2  0  0  0  0  0  0
  183.6480  170.5910  134.8670 C   0  0  1  0  0  3  0  0  0  0  0  0
  184.4770  171.8440  135.1740 C   0  0  1  0  0  3  0  0  0  0  0  0
  184.2420  172.4160  136.5710 C   0  0  0  0  0  2  0  0  0  0  0  0
  183.8750  169.4400  135.8400 C   0  0  0  0  0  1  0  0  0  0  0  0
  182.1730  170.9230  134.6320 C   0  0  0  0  0  2  0  0  0  0  0  0
  181.2930  171.0300  135.8870 C   0  0  0  0  0  2  0  0  0  0  0  0
  182.8080  172.8880  136.7580 C   0  0  0  0  0  2  0  0  0  0  0  0
  188.1940  177.9690  138.6590 N   0  0  0  0  0  2  0  0  0  0  0  0
  188.2480  177.9110  140.0890 C   0  0  0  0  0  0  0  0  0  0  0  0
  188.4090  177.7140  142.8650 C   0  0  0  0  0  0  0  0  0  0  0  0
  189.4140  177.2530  142.0670 N   0  0  0  0  0  0  0  0  0  0  0  0
  187.1920  178.3730  140.8820 C   0  0  0  0  0  3  0  0  0  0  0  0
  189.3560  177.3350  140.7110 C   0  0  0  0  0  3  0  0  0  0  0  0
  187.2710  178.2800  142.2710 C   0  0  0  0  0  3  0  0  0  0  0  0
  188.7610  177.4090  147.1280 C   0  0  0  0  0  3  0  0  0  0  0  0
  189.9020  177.3380  146.3230 C   0  0  0  0  0  0  0  0  0  0  0  0
  187.5030  177.5820  146.5450 C   0  0  0  0  0  3  0  0  0  0  0  0
  187.3850  177.6820  145.1550 C   0  0  0  0  0  3  0  0  0  0  0  0
  188.5230  177.6080  144.3350 C   0  0  0  0  0  0  0  0  0  0  0  0
  189.7820  177.4340  144.9320 C   0  0  0  0  0  3  0  0  0  0  0  0
  191.5920  175.6570  146.9540 C   0  0  0  0  0  1  0  0  0  0  0  0
  191.2410  177.1330  146.9430 C   0  0  0  0  0  2  0  0  0  0  0  0
  190.1790  176.4050  136.9100 C   0  0  0  0  0  2  0  0  0  0  0  0
  191.8010  176.1040  138.8380 C   0  0  0  0  0  2  0  0  0  0  0  0
  193.6870  175.6460  136.2160 C   0  0  0  0  0  0  0  0  0  0  0  0
  192.9580  176.8910  138.2350 C   0  0  0  0  0  2  0  0  0  0  0  0
  194.4240  176.0980  135.2420 N   0  0  0  0  0  0  0  0  0  0  0  0
  194.0020  175.9510  137.6540 C   0  0  0  0  0  2  0  0  0  0  0  0
  191.6580  174.3100  137.0240 C   0  0  0  0  0  2  0  0  0  0  0  0
  190.9220  175.4110  137.7980 C   0  0  2  0  0  3  0  0  0  0  0  0
  192.4840  174.8280  135.8430 C   0  0  0  0  0  2  0  0  0  0  0  0
  196.8980  176.2530  135.3190 N   0  0  0  0  0  2  0  0  0  0  0  0
  195.6220  176.8910  135.3330 C   0  0  0  0  0  0  0  0  0  0  0  0
  195.5700  178.1450  135.4410 O   0  0  0  0  0  0  0  0  0  0  0  0
  197.0390  174.8140  135.1360 C   0  0  0  0  0  2  0  0  0  0  0  0
  197.2870  174.1110  136.4690 C   0  0  2  0  0  3  0  0  0  0  0  0
  198.7860  174.3430  138.3150 O   0  0  0  0  0  1  0  0  0  0  0  0
  198.7230  174.3250  136.9220 C   0  0  0  0  0  2  0  0  0  0  0  0
  196.9680  172.6190  136.3890 C   0  0  0  0  0  2  0  0  0  0  0  0
  196.4880  172.0840  137.7300 C   0  0  0  0  0  2  0  0  0  0  0  0
  195.6530  173.0190  138.3410 O   0  0  0  0  0  1  0  0  0  0  0  0
  1  9  1  0  0  0  0
  2  5  2  0  0  0  0
  3  8  1  0  0  0  0
  4  7  1  0  0  0  0
  4  1  1  0  0  0  0
  5  8  1  0  0  0  0
  5 19  1  0  0  0  0
  6  4  2  0  0  0  0
  9  3  2  0  0  0  0
  9  2  1  0  0  0  0
 10  7  1  0  0  0  0
 12 13  1  0  0  0  0
 12 15  1  1  0  0  0
 13 10  1  1  0  0  0
 13 14  1  0  0  0  0
 14 18  1  0  0  0  0
 16 12  1  0  0  0  0
 16 17  1  0  0  0  0
 17 11  1  0  0  0  0
 18 11  1  0  0  0  0
 19 20  1  0  0  0  0
 20 24  2  0  0  0  0
 20 23  1  0  0  0  0
 21 30  1  0  0  0  0
 22 21  2  0  0  0  0
 23 25  2  0  0  0  0
 24 22  1  0  0  0  0
 25 21  1  0  0  0  0
 27 33  1  0  0  0  0
 27 26  2  0  0  0  0
 28 26  1  0  0  0  0
 29 28  2  0  0  0  0
 30 31  2  0  0  0  0
 30 29  1  0  0  0  0
 31 27  1  0  0  0  0
 33 32  1  0  0  0  0
 34  2  1  0  0  0  0
 36 39  1  0  0  0  0
 37 35  1  0  0  0  0
 38 44  1  0  0  0  0
 38 36  2  0  0  0  0
 39 37  1  0  0  0  0
 40 41  1  0  0  0  0
 41 34  1  6  0  0  0
 41 35  1  0  0  0  0
 42 36  1  0  0  0  0
 42 40  1  0  0  0  0
 43 44  1  0  0  0  0
 44 45  2  0  0  0  0
 46 43  1  0  0  0  0
 47 46  1  6  0  0  0
 47 49  1  0  0  0  0
 49 48  1  0  0  0  0
 50 47  1  0  0  0  0
 50 51  1  0  0  0  0
 51 52  1  0  0  0  0
M  END
>  <MODEL>
7

>  <REMARK>
 VINA RESULT:      -7.5      3.032      9.392
  Name = 
  14 active torsions:
  status: ('A' for Active; 'I' for Inactive)
    1  A    between atoms: C_2  and  C_49
    2  A    between atoms: O_4  and  C_19
    3  A    between atoms: O_4  and  N_23
    4  A    between atoms: N_5  and  C_39
    5  A    between atoms: N_6  and  C_9
    6  A    between atoms: N_6  and  C_18
    7  A    between atoms: C_10  and  C_24
    8  A    between atoms: C_10  and  C_33
    9  A    between atoms: C_14  and  C_44
   10  A    between atoms: C_17  and  C_22
   11  A    between atoms: C_24  and  C_39
   12  A    between atoms: C_24  and  C_50
   13  A    between atoms: N_28  and  C_29
   14  A    between atoms: C_41  and  C_49
                            x       y       z     vdW  Elec       q    Type
                         _______ _______ _______ _____ _____    ______ ____

>  <TORSDO>
F 14

$$$$
=
 OpenBabel10232411413D

 52 56  0  0  1  0  0  0  0  0999 V2000
  187.6330  178.4220  140.4850 N   0  0  0  0  0  2  0  0  0  0  0  0
  189.2630  177.8350  138.6230 C   0  0  0  0  0  0  0  0  0  0  0  0
  189.7530  177.3280  140.7870 N   0  0  0  0  0  0  0  0  0  0  0  0
  187.1910  178.4490  141.8460 C   0  0  0  0  0  0  0  0  0  0  0  0
  190.4550  177.2500  138.5860 C   0  0  0  0  0  0  0  0  0  0  0  0
  186.0770  178.9700  142.1200 O   0  0  0  0  0  0  0  0  0  0  0  0
  187.9950  177.9000  142.8930 N   0  0  0  0  0  2  0  0  0  0  0  0
  190.8620  176.8530  139.9660 C   0  0  0  0  0  2  0  0  0  0  0  0
  188.8680  177.8670  140.0160 C   0  0  0  0  0  0  0  0  0  0  0  0
  187.5690  177.8950  144.1800 O   0  0  0  0  0  0  0  0  0  0  0  0
  190.7300  177.1040  147.1900 C   0  0  0  0  0  2  0  0  0  0  0  0
  189.9160  177.3980  144.2860 C   0  0  1  0  0  3  0  0  0  0  0  0
  188.5230  177.1460  144.8750 C   0  0  1  0  0  3  0  0  0  0  0  0
  188.4170  177.4450  146.3690 C   0  0  0  0  0  2  0  0  0  0  0  0
  190.4210  178.8250  144.4700 C   0  0  0  0  0  1  0  0  0  0  0  0
  190.9220  176.3250  144.7110 C   0  0  0  0  0  2  0  0  0  0  0  0
  191.6070  176.5390  146.0700 C   0  0  0  0  0  2  0  0  0  0  0  0
  189.3180  176.5380  147.1950 C   0  0  0  0  0  2  0  0  0  0  0  0
  191.1510  176.8270  137.4040 N   0  0  0  0  0  2  0  0  0  0  0  0
  192.2170  175.8720  137.3560 C   0  0  0  0  0  0  0  0  0  0  0  0
  194.3540  174.0870  137.2290 C   0  0  0  0  0  0  0  0  0  0  0  0
  194.5580  175.4130  137.4700 N   0  0  0  0  0  0  0  0  0  0  0  0
  191.9790  174.5200  137.0870 C   0  0  0  0  0  3  0  0  0  0  0  0
  193.5320  176.3030  137.5320 C   0  0  0  0  0  3  0  0  0  0  0  0
  193.0450  173.6230  137.0280 C   0  0  0  0  0  3  0  0  0  0  0  0
  197.6730  171.3760  137.0800 C   0  0  0  0  0  3  0  0  0  0  0  0
  196.3870  170.8960  137.3450 C   0  0  0  0  0  0  0  0  0  0  0  0
  197.8790  172.7400  136.8600 C   0  0  0  0  0  3  0  0  0  0  0  0
  196.7990  173.6270  136.9080 C   0  0  0  0  0  3  0  0  0  0  0  0
  195.5030  173.1580  137.1780 C   0  0  0  0  0  0  0  0  0  0  0  0
  195.3070  171.7850  137.3960 C   0  0  0  0  0  3  0  0  0  0  0  0
  197.4520  168.8030  138.0960 C   0  0  0  0  0  1  0  0  0  0  0  0
  196.1700  169.4440  137.5980 C   0  0  0  0  0  2  0  0  0  0  0  0
  188.3780  178.1510  137.4600 C   0  0  0  0  0  2  0  0  0  0  0  0
  188.1070  177.5250  135.0160 C   0  0  0  0  0  2  0  0  0  0  0  0
  185.2600  176.6170  136.3240 C   0  0  0  0  0  0  0  0  0  0  0  0
  186.6760  178.0240  134.8510 C   0  0  0  0  0  2  0  0  0  0  0  0
  184.0480  176.8780  136.7260 N   0  0  0  0  0  0  0  0  0  0  0  0
  185.6930  176.8660  134.9060 C   0  0  0  0  0  2  0  0  0  0  0  0
  187.6280  175.7800  136.8210 C   0  0  0  0  0  2  0  0  0  0  0  0
  188.4260  177.0290  136.4260 C   0  0  2  0  0  3  0  0  0  0  0  0
  186.2210  176.0820  137.3460 C   0  0  0  0  0  2  0  0  0  0  0  0
  181.8530  178.0230  136.6030 N   0  0  0  0  0  2  0  0  0  0  0  0
  182.9480  177.3850  135.9490 C   0  0  0  0  0  0  0  0  0  0  0  0
  182.9210  177.2640  134.6950 O   0  0  0  0  0  0  0  0  0  0  0  0
  181.8420  178.2540  138.0420 C   0  0  0  0  0  2  0  0  0  0  0  0
  182.6260  179.5150  138.4030 C   0  0  2  0  0  3  0  0  0  0  0  0
  184.8290  179.9130  139.2370 O   0  0  0  0  0  1  0  0  0  0  0  0
  183.6510  179.2080  139.4840 C   0  0  0  0  0  2  0  0  0  0  0  0
  181.7020  180.6470  138.8480 C   0  0  0  0  0  2  0  0  0  0  0  0
  180.4130  180.1040  139.4470 C   0  0  0  0  0  2  0  0  0  0  0  0
  180.1400  180.7520  140.6510 O   0  0  0  0  0  1  0  0  0  0  0  0
  1  4  1  0  0  0  0
  2  9  1  0  0  0  0
  4  6  2  0  0  0  0
  4  7  1  0  0  0  0
  5  2  2  0  0  0  0
  5  8  1  0  0  0  0
  7 10  1  0  0  0  0
  8  3  1  0  0  0  0
  9  1  1  0  0  0  0
  9  3  2  0  0  0  0
 11 18  1  0  0  0  0
 12 15  1  1  0  0  0
 12 16  1  0  0  0  0
 12 13  1  0  0  0  0
 13 10  1  6  0  0  0
 13 14  1  0  0  0  0
 14 18  1  0  0  0  0
 16 17  1  0  0  0  0
 17 11  1  0  0  0  0
 19  5  1  0  0  0  0
 20 19  1  0  0  0  0
 20 24  1  0  0  0  0
 21 22  1  0  0  0  0
 22 24  2  0  0  0  0
 23 20  2  0  0  0  0
 25 23  1  0  0  0  0
 25 21  2  0  0  0  0
 26 27  1  0  0  0  0
 27 31  2  0  0  0  0
 27 33  1  0  0  0  0
 28 29  1  0  0  0  0
 28 26  2  0  0  0  0
 29 30  2  0  0  0  0
 30 21  1  0  0  0  0
 30 31  1  0  0  0  0
 33 32  1  0  0  0  0
 34  2  1  0  0  0  0
 35 41  1  0  0  0  0
 36 38  2  0  0  0  0
 36 42  1  0  0  0  0
 37 39  1  0  0  0  0
 37 35  1  0  0  0  0
 39 36  1  0  0  0  0
 40 42  1  0  0  0  0
 41 40  1  0  0  0  0
 41 34  1  1  0  0  0
 43 46  1  0  0  0  0
 44 43  1  0  0  0  0
 44 38  1  0  0  0  0
 45 44  2  0  0  0  0
 47 46  1  1  0  0  0
 47 50  1  0  0  0  0
 47 49  1  0  0  0  0
 48 49  1  0  0  0  0
 50 51  1  0  0  0  0
 51 52  1  0  0  0  0
M  END
>  <MODEL>
8

>  <REMARK>
 VINA RESULT:      -7.5      2.836      8.699
  Name = 
  14 active torsions:
  status: ('A' for Active; 'I' for Inactive)
    1  A    between atoms: C_2  and  C_49
    2  A    between atoms: O_4  and  C_19
    3  A    between atoms: O_4  and  N_23
    4  A    between atoms: N_5  and  C_39
    5  A    between atoms: N_6  and  C_9
    6  A    between atoms: N_6  and  C_18
    7  A    between atoms: C_10  and  C_24
    8  A    between atoms: C_10  and  C_33
    9  A    between atoms: C_14  and  C_44
   10  A    between atoms: C_17  and  C_22
   11  A    between atoms: C_24  and  C_39
   12  A    between atoms: C_24  and  C_50
   13  A    between atoms: N_28  and  C_29
   14  A    between atoms: C_41  and  C_49
                            x       y       z     vdW  Elec       q    Type
                         _______ _______ _______ _____ _____    ______ ____

>  <TORSDO>
F 14

$$$$
=
 OpenBabel10232411413D

 52 56  0  0  1  0  0  0  0  0999 V2000
  187.5940  174.5820  135.9580 N   0  0  0  0  0  2  0  0  0  0  0  0
  188.8670  176.3340  137.2930 C   0  0  0  0  0  0  0  0  0  0  0  0
  186.6430  176.5880  136.8820 N   0  0  0  0  0  0  0  0  0  0  0  0
  186.4190  174.0200  135.3670 C   0  0  0  0  0  0  0  0  0  0  0  0
  188.5320  177.4830  137.8700 C   0  0  0  0  0  0  0  0  0  0  0  0
  186.5050  172.9230  134.7540 O   0  0  0  0  0  0  0  0  0  0  0  0
  185.1580  174.6860  135.4580 N   0  0  0  0  0  2  0  0  0  0  0  0
  187.0730  177.7340  137.6770 C   0  0  0  0  0  2  0  0  0  0  0  0
  187.6590  175.8160  136.6850 C   0  0  0  0  0  0  0  0  0  0  0  0
  184.0350  174.1450  134.9260 O   0  0  0  0  0  0  0  0  0  0  0  0
  180.9470  171.7650  137.0430 C   0  0  0  0  0  2  0  0  0  0  0  0
  182.0180  174.4680  136.1900 C   0  0  1  0  0  3  0  0  0  0  0  0
  183.3110  173.6610  136.0200 C   0  0  1  0  0  3  0  0  0  0  0  0
  183.0880  172.1580  135.8620 C   0  0  0  0  0  2  0  0  0  0  0  0
  181.0280  174.3050  135.0430 C   0  0  0  0  0  1  0  0  0  0  0  0
  181.3990  174.2750  137.5760 C   0  0  0  0  0  2  0  0  0  0  0  0
  180.4930  173.0460  137.7490 C   0  0  0  0  0  2  0  0  0  0  0  0
  182.4500  171.5450  137.0990 C   0  0  0  0  0  2  0  0  0  0  0  0
  189.3570  178.2540  138.7550 N   0  0  0  0  0  2  0  0  0  0  0  0
  189.5970  177.9680  140.1380 C   0  0  0  0  0  0  0  0  0  0  0  0
  190.0010  177.4880  142.8540 C   0  0  0  0  0  0  0  0  0  0  0  0
  188.8230  178.0000  142.3980 N   0  0  0  0  0  0  0  0  0  0  0  0
  190.8240  177.4620  140.5800 C   0  0  0  0  0  3  0  0  0  0  0  0
  188.6040  178.2470  141.0790 C   0  0  0  0  0  3  0  0  0  0  0  0
  191.0280  177.2160  141.9380 C   0  0  0  0  0  3  0  0  0  0  0  0
  190.5200  176.7450  147.0450 C   0  0  0  0  0  3  0  0  0  0  0  0
  189.2700  177.1280  146.5510 C   0  0  0  0  0  0  0  0  0  0  0  0
  191.6030  176.6010  146.1740 C   0  0  0  0  0  3  0  0  0  0  0  0
  191.4380  176.8420  144.8080 C   0  0  0  0  0  3  0  0  0  0  0  0
  190.1880  177.2320  144.2980 C   0  0  0  0  0  0  0  0  0  0  0  0
  189.1060  177.3740  145.1830 C   0  0  0  0  0  3  0  0  0  0  0  0
  188.5250  178.1720  148.6560 C   0  0  0  0  0  1  0  0  0  0  0  0
  188.1210  177.3010  147.4810 C   0  0  0  0  0  2  0  0  0  0  0  0
  190.1490  175.5820  137.4610 C   0  0  0  0  0  2  0  0  0  0  0  0
  191.1100  176.0920  135.1680 C   0  0  0  0  0  2  0  0  0  0  0  0
  192.8990  173.5530  136.1630 C   0  0  0  0  0  0  0  0  0  0  0  0
  191.2320  174.6510  134.6900 C   0  0  0  0  0  2  0  0  0  0  0  0
  193.0870  172.2720  136.3130 N   0  0  0  0  0  0  0  0  0  0  0  0
  192.6660  174.1640  134.8100 C   0  0  0  0  0  2  0  0  0  0  0  0
  192.6810  175.8950  137.1740 C   0  0  0  0  0  2  0  0  0  0  0  0
  191.2740  176.2540  136.6790 C   0  0  2  0  0  3  0  0  0  0  0  0
  192.8930  174.3950  137.4050 C   0  0  0  0  0  2  0  0  0  0  0  0
  194.4070  170.7470  134.8710 N   0  0  0  0  0  2  0  0  0  0  0  0
  193.1440  171.2600  135.2920 C   0  0  0  0  0  0  0  0  0  0  0  0
  192.0970  170.8230  134.7440 O   0  0  0  0  0  0  0  0  0  0  0  0
  195.6550  171.1580  135.5000 C   0  0  0  0  0  2  0  0  0  0  0  0
  196.2540  170.0240  136.3290 C   0  0  2  0  0  3  0  0  0  0  0  0
  197.1370  167.9240  135.6050 O   0  0  0  0  0  1  0  0  0  0  0  0
  195.9670  168.6810  135.6750 C   0  0  0  0  0  2  0  0  0  0  0  0
  195.7380  170.0400  137.7670 C   0  0  0  0  0  2  0  0  0  0  0  0
  194.7010  168.9500  137.9920 C   0  0  0  0  0  2  0  0  0  0  0  0
  195.2100  167.9830  138.8590 O   0  0  0  0  0  1  0  0  0  0  0  0
  1  9  1  0  0  0  0
  2 34  1  0  0  0  0
  2  5  2  0  0  0  0
  3  8  1  0  0  0  0
  4  7  1  0  0  0  0
  4  1  1  0  0  0  0
  5 19  1  0  0  0  0
  6  4  2  0  0  0  0
  8  5  1  0  0  0  0
  9  3  2  0  0  0  0
  9  2  1  0  0  0  0
 10  7  1  0  0  0  0
 11 18  1  0  0  0  0
 11 17  1  0  0  0  0
 12 15  1  6  0  0  0
 12 16  1  0  0  0  0
 13 10  1  6  0  0  0
 13 12  1  0  0  0  0
 14 13  1  0  0  0  0
 14 18  1  0  0  0  0
 16 17  1  0  0  0  0
 19 20  1  0  0  0  0
 20 23  2  0  0  0  0
 20 24  1  0  0  0  0
 21 30  1  0  0  0  0
 22 21  1  0  0  0  0
 23 25  1  0  0  0  0
 24 22  2  0  0  0  0
 25 21  2  0  0  0  0
 27 26  1  0  0  0  0
 27 33  1  0  0  0  0
 28 26  2  0  0  0  0
 29 28  1  0  0  0  0
 30 29  2  0  0  0  0
 30 31  1  0  0  0  0
 31 27  2  0  0  0  0
 33 32  1  0  0  0  0
 35 41  1  0  0  0  0
 36 38  2  0  0  0  0
 36 42  1  0  0  0  0
 37 39  1  0  0  0  0
 37 35  1  0  0  0  0
 39 36  1  0  0  0  0
 40 42  1  0  0  0  0
 41 40  1  0  0  0  0
 41 34  1  1  0  0  0
 43 44  1  0  0  0  0
 43 46  1  0  0  0  0
 44 38  1  0  0  0  0
 45 44  2  0  0  0  0
 47 46  1  6  0  0  0
 47 50  1  0  0  0  0
 48 49  1  0  0  0  0
 49 47  1  0  0  0  0
 50 51  1  0  0  0  0
 51 52  1  0  0  0  0
M  END
>  <MODEL>
9

>  <REMARK>
 VINA RESULT:      -7.4      2.922      9.717
  Name = 
  14 active torsions:
  status: ('A' for Active; 'I' for Inactive)
    1  A    between atoms: C_2  and  C_49
    2  A    between atoms: O_4  and  C_19
    3  A    between atoms: O_4  and  N_23
    4  A    between atoms: N_5  and  C_39
    5  A    between atoms: N_6  and  C_9
    6  A    between atoms: N_6  and  C_18
    7  A    between atoms: C_10  and  C_24
    8  A    between atoms: C_10  and  C_33
    9  A    between atoms: C_14  and  C_44
   10  A    between atoms: C_17  and  C_22
   11  A    between atoms: C_24  and  C_39
   12  A    between atoms: C_24  and  C_50
   13  A    between atoms: N_28  and  C_29
   14  A    between atoms: C_41  and  C_49
                            x       y       z     vdW  Elec       q    Type
                         _______ _______ _______ _____ _____    ______ ____

>  <TORSDO>
F 14

$$$$
