=
 OpenBabel10232410473D

 35 40  0  0  1  0  0  0  0  0999 V2000
  185.6900  175.2940  136.7410 O   0  0  0  0  0  0  0  0  0  0  0  0
  188.9400  174.2950  137.0520 C   0  0  0  0  0  0  0  0  0  0  0  0
  187.5900  174.0120  137.1830 O   0  0  0  0  0  0  0  0  0  0  0  0
  189.8560  173.4610  137.2840 O   0  0  0  0  0  0  0  0  0  0  0  0
  189.1320  175.6620  136.5630 C   0  0  0  0  0  0  0  0  0  0  0  0
  186.9430  175.1710  136.7870 C   0  0  0  0  0  0  0  0  0  0  0  0
  187.9170  176.2000  136.4110 C   0  0  0  0  0  0  0  0  0  0  0  0
  191.7710  177.8320  142.4770 F   0  0  0  0  0  0  0  0  0  0  0  0
  193.3500  176.0590  135.8980 N   0  0  0  0  0  1  0  0  0  0  0  0
  191.6370  177.4880  141.1730 C   0  0  0  0  0  0  0  0  0  0  0  0
  191.3420  176.7660  138.5180 C   0  0  0  0  0  0  0  0  0  0  0  0
  190.1870  177.0340  139.2530 C   0  0  0  0  0  3  0  0  0  0  0  0
  190.6260  176.7150  135.0590 O   0  0  0  0  0  0  0  0  0  0  0  0
  193.5420  176.6070  138.1470 N   0  0  0  0  0  0  0  0  0  0  0  0
  190.3480  177.3950  140.6030 C   0  0  0  0  0  3  0  0  0  0  0  0
  192.7840  177.2220  140.3990 C   0  0  0  0  0  3  0  0  0  0  0  0
  192.8080  176.3560  137.0320 C   0  0  0  0  0  0  0  0  0  0  0  0
  191.4630  176.4310  137.2200 N   0  0  0  0  0  0  0  0  0  0  0  0
  192.5920  176.8660  139.0670 C   0  0  0  0  0  0  0  0  0  0  0  0
  190.4240  176.2990  136.2320 C   0  0  0  0  0  0  0  0  0  0  0  0
  186.2150  177.9660  136.0710 C   0  0  0  0  0  2  0  0  0  0  0  0
  187.2320  178.5870  136.9340 N   0  0  0  0  0  0  0  0  0  0  0  0
  187.6150  177.5900  135.8900 C   0  0  1  0  0  3  0  0  0  0  0  0
  187.0140  178.0220  138.2640 C   0  0  0  0  0  2  0  0  0  0  0  0
  185.5800  178.2580  138.7000 C   0  0  0  0  0  2  0  0  0  0  0  0
  185.5490  179.2090  139.7530 O   0  0  0  0  0  0  0  0  0  0  0  0
  187.8350  177.5500  143.6410 C   0  0  0  0  0  3  0  0  0  0  0  0
  184.8050  178.9990  142.2030 C   0  0  0  0  0  2  0  0  0  0  0  0
  186.8490  178.0960  142.8210 C   0  0  0  0  0  0  0  0  0  0  0  0
  186.2770  177.7580  145.5120 C   0  0  0  0  0  3  0  0  0  0  0  0
  185.6240  178.4600  143.3130 C   0  0  0  0  0  0  0  0  0  0  0  0
  186.9450  178.3420  141.4320 N   0  0  0  0  0  0  0  0  0  0  0  0
  187.5380  177.3810  145.0040 C   0  0  0  0  0  3  0  0  0  0  0  0
  185.3020  178.3060  144.6610 C   0  0  0  0  0  3  0  0  0  0  0  0
  185.8020  178.8470  141.0760 C   0  0  0  0  0  0  0  0  0  0  0  0
  1  6  2  0  0  0  0
  2  3  1  0  0  0  0
  2  4  2  0  0  0  0
  5  2  1  0  0  0  0
  6  3  1  0  0  0  0
  7  5  2  0  0  0  0
  7  6  1  0  0  0  0
  9 17  1  0  0  0  0
 10  8  1  0  0  0  0
 11 19  2  0  0  0  0
 11 12  1  0  0  0  0
 12 15  2  0  0  0  0
 13 20  2  0  0  0  0
 14 19  1  0  0  0  0
 15 10  1  0  0  0  0
 16 10  2  0  0  0  0
 17 18  1  0  0  0  0
 17 14  2  0  0  0  0
 18 11  1  0  0  0  0
 19 16  1  0  0  0  0
 20  5  1  0  0  0  0
 20 18  1  0  0  0  0
 21 22  1  0  0  0  0
 22 24  1  0  0  0  0
 23 21  1  0  0  0  0
 23  7  1  1  0  0  0
 23 22  1  0  0  0  0
 24 25  1  0  0  0  0
 25 26  1  0  0  0  0
 26 35  1  0  0  0  0
 27 33  1  0  0  0  0
 28 31  1  0  0  0  0
 29 31  1  0  0  0  0
 29 27  2  0  0  0  0
 31 34  2  0  0  0  0
 32 29  1  0  0  0  0
 33 30  2  0  0  0  0
 34 30  1  0  0  0  0
 35 32  2  0  0  0  0
 35 28  1  0  0  0  0
M  END
>  <MODEL>
1

>  <REMARK>
 VINA RESULT:      -8.5      0.000      0.000
  Name = 
  6 active torsions:
  status: ('A' for Active; 'I' for Inactive)
    1  A    between atoms: O_4  and  C_25
    2  A    between atoms: O_4  and  C_34
    3  A    between atoms: N_9  and  C_12
    4  A    between atoms: C_12  and  C_25
    5  A    between atoms: C_22  and  C_35
    6  A    between atoms: C_29  and  C_33
                            x       y       z     vdW  Elec       q    Type
                         _______ _______ _______ _____ _____    ______ ____

>  <TORSDO>
F 6

$$$$
=
 OpenBabel10232410473D

 35 40  0  0  1  0  0  0  0  0999 V2000
  182.6640  176.8970  138.9860 O   0  0  0  0  0  0  0  0  0  0  0  0
  185.3540  175.6460  137.2960 C   0  0  0  0  0  0  0  0  0  0  0  0
  184.1570  175.4260  137.9590 O   0  0  0  0  0  0  0  0  0  0  0  0
  186.0240  174.7360  136.7390 O   0  0  0  0  0  0  0  0  0  0  0  0
  185.6850  177.0730  137.2960 C   0  0  0  0  0  0  0  0  0  0  0  0
  183.7410  176.6830  138.3690 C   0  0  0  0  0  0  0  0  0  0  0  0
  184.7090  177.7040  137.9570 C   0  0  0  0  0  0  0  0  0  0  0  0
  190.7040  177.2570  141.9250 F   0  0  0  0  0  0  0  0  0  0  0  0
  189.3340  177.3990  135.0680 N   0  0  0  0  0  1  0  0  0  0  0  0
  190.0270  177.3190  140.7520 C   0  0  0  0  0  0  0  0  0  0  0  0
  188.6270  177.4240  138.3680 C   0  0  0  0  0  0  0  0  0  0  0  0
  187.9020  177.5330  139.5560 C   0  0  0  0  0  3  0  0  0  0  0  0
  186.6530  178.4310  135.6170 O   0  0  0  0  0  0  0  0  0  0  0  0
  190.4580  177.2520  137.0950 N   0  0  0  0  0  0  0  0  0  0  0  0
  188.6230  177.4730  140.7610 C   0  0  0  0  0  3  0  0  0  0  0  0
  190.7300  177.2240  139.5340 C   0  0  0  0  0  3  0  0  0  0  0  0
  189.3240  177.3820  136.3590 C   0  0  0  0  0  0  0  0  0  0  0  0
  188.1860  177.4780  137.0970 N   0  0  0  0  0  0  0  0  0  0  0  0
  189.9890  177.2870  138.3580 C   0  0  0  0  0  0  0  0  0  0  0  0
  186.8440  177.7020  136.6270 C   0  0  0  0  0  0  0  0  0  0  0  0
  183.4860  179.5590  139.0510 C   0  0  0  0  0  2  0  0  0  0  0  0
  184.8550  179.6480  139.5830 N   0  0  0  0  0  0  0  0  0  0  0  0
  184.6030  179.1980  138.1810 C   0  0  1  0  0  3  0  0  0  0  0  0
  184.9670  178.5640  140.5580 C   0  0  0  0  0  2  0  0  0  0  0  0
  185.3970  179.1180  141.9030 C   0  0  0  0  0  2  0  0  0  0  0  0
  185.1330  178.1650  142.9210 O   0  0  0  0  0  0  0  0  0  0  0  0
  186.7280  178.4130  147.4480 C   0  0  0  0  0  3  0  0  0  0  0  0
  187.3460  177.4130  143.9880 C   0  0  0  0  0  2  0  0  0  0  0  0
  186.6700  178.1490  146.0800 C   0  0  0  0  0  0  0  0  0  0  0  0
  188.9690  177.4370  147.4550 C   0  0  0  0  0  3  0  0  0  0  0  0
  187.7110  177.5550  145.4170 C   0  0  0  0  0  0  0  0  0  0  0  0
  185.5940  178.4370  145.2090 N   0  0  0  0  0  0  0  0  0  0  0  0
  187.8980  178.0510  148.1380 C   0  0  0  0  0  3  0  0  0  0  0  0
  188.8810  177.1830  146.0760 C   0  0  0  0  0  3  0  0  0  0  0  0
  185.9650  178.0300  144.0320 C   0  0  0  0  0  0  0  0  0  0  0  0
  2  5  1  0  0  0  0
  2  3  1  0  0  0  0
  3  6  1  0  0  0  0
  4  2  2  0  0  0  0
  5  7  2  0  0  0  0
  6  1  2  0  0  0  0
  7  6  1  0  0  0  0
  9 17  1  0  0  0  0
 10 15  1  0  0  0  0
 10  8  1  0  0  0  0
 11 12  1  0  0  0  0
 12 15  2  0  0  0  0
 13 20  2  0  0  0  0
 14 19  1  0  0  0  0
 16 10  2  0  0  0  0
 17 14  2  0  0  0  0
 17 18  1  0  0  0  0
 18 11  1  0  0  0  0
 19 11  2  0  0  0  0
 19 16  1  0  0  0  0
 20 18  1  0  0  0  0
 20  5  1  0  0  0  0
 21 22  1  0  0  0  0
 22 24  1  0  0  0  0
 23  7  1  1  0  0  0
 23 21  1  0  0  0  0
 23 22  1  0  0  0  0
 24 25  1  0  0  0  0
 25 26  1  0  0  0  0
 26 35  1  0  0  0  0
 27 33  1  0  0  0  0
 28 35  1  0  0  0  0
 28 31  1  0  0  0  0
 29 27  2  0  0  0  0
 30 33  2  0  0  0  0
 31 34  2  0  0  0  0
 31 29  1  0  0  0  0
 32 29  1  0  0  0  0
 34 30  1  0  0  0  0
 35 32  2  0  0  0  0
M  END
>  <MODEL>
2

>  <REMARK>
 VINA RESULT:      -8.5      2.049      3.477
  Name = 
  6 active torsions:
  status: ('A' for Active; 'I' for Inactive)
    1  A    between atoms: O_4  and  C_25
    2  A    between atoms: O_4  and  C_34
    3  A    between atoms: N_9  and  C_12
    4  A    between atoms: C_12  and  C_25
    5  A    between atoms: C_22  and  C_35
    6  A    between atoms: C_29  and  C_33
                            x       y       z     vdW  Elec       q    Type
                         _______ _______ _______ _____ _____    ______ ____

>  <TORSDO>
F 6

$$$$
=
 OpenBabel10232410473D

 35 40  0  0  1  0  0  0  0  0999 V2000
  191.1380  176.8340  139.9410 O   0  0  0  0  0  0  0  0  0  0  0  0
  190.3840  174.9100  137.2230 C   0  0  0  0  0  0  0  0  0  0  0  0
  191.0220  175.0450  138.4460 O   0  0  0  0  0  0  0  0  0  0  0  0
  190.3710  173.8420  136.5540 O   0  0  0  0  0  0  0  0  0  0  0  0
  189.6990  176.1540  136.8610 C   0  0  0  0  0  0  0  0  0  0  0  0
  190.7470  176.3420  138.8490 C   0  0  0  0  0  0  0  0  0  0  0  0
  189.9280  177.0290  137.8460 C   0  0  0  0  0  0  0  0  0  0  0  0
  184.1430  172.2730  137.7130 F   0  0  0  0  0  0  0  0  0  0  0  0
  186.6690  177.8650  134.3560 N   0  0  0  0  0  1  0  0  0  0  0  0
  185.0080  173.2030  137.2390 C   0  0  0  0  0  0  0  0  0  0  0  0
  186.7830  175.1050  136.2950 C   0  0  0  0  0  0  0  0  0  0  0  0
  187.2970  174.0500  137.0510 C   0  0  0  0  0  3  0  0  0  0  0  0
  189.3810  176.8010  134.6070 O   0  0  0  0  0  0  0  0  0  0  0  0
  185.2100  176.2790  135.2230 N   0  0  0  0  0  0  0  0  0  0  0  0
  186.3850  173.0920  137.5290 C   0  0  0  0  0  3  0  0  0  0  0  0
  184.5230  174.2750  136.4620 C   0  0  0  0  0  3  0  0  0  0  0  0
  186.4520  176.8030  135.0590 C   0  0  0  0  0  0  0  0  0  0  0  0
  187.4360  176.1230  135.7060 N   0  0  0  0  0  0  0  0  0  0  0  0
  185.4490  175.2070  136.0030 C   0  0  0  0  0  0  0  0  0  0  0  0
  188.8540  176.3720  135.6690 C   0  0  0  0  0  0  0  0  0  0  0  0
  187.9270  178.4890  137.8770 C   0  0  0  0  0  2  0  0  0  0  0  0
  188.5990  178.7470  139.1610 N   0  0  0  0  0  0  0  0  0  0  0  0
  189.3870  178.4420  137.9280 C   0  0  1  0  0  3  0  0  0  0  0  0
  188.3050  177.5850  139.9970 C   0  0  0  0  0  2  0  0  0  0  0  0
  187.8700  178.0370  141.3780 C   0  0  0  0  0  2  0  0  0  0  0  0
  188.0860  176.9920  142.3150 O   0  0  0  0  0  0  0  0  0  0  0  0
  189.6280  177.3750  146.8510 C   0  0  0  0  0  3  0  0  0  0  0  0
  186.8690  177.6700  144.4740 C   0  0  0  0  0  2  0  0  0  0  0  0
  188.7970  177.3980  145.7320 C   0  0  0  0  0  0  0  0  0  0  0  0
  187.7070  178.0820  148.1860 C   0  0  0  0  0  3  0  0  0  0  0  0
  187.4760  177.7440  145.8230 C   0  0  0  0  0  0  0  0  0  0  0  0
  189.1620  177.0800  144.4020 N   0  0  0  0  0  0  0  0  0  0  0  0
  189.0680  177.7220  148.0920 C   0  0  0  0  0  3  0  0  0  0  0  0
  186.8940  178.0960  147.0400 C   0  0  0  0  0  3  0  0  0  0  0  0
  188.0850  177.2290  143.6900 C   0  0  0  0  0  0  0  0  0  0  0  0
  2  3  1  0  0  0  0
  3  6  1  0  0  0  0
  4  2  2  0  0  0  0
  5  2  1  0  0  0  0
  5  7  2  0  0  0  0
  6  1  2  0  0  0  0
  7  6  1  0  0  0  0
  9 17  1  0  0  0  0
 10 15  1  0  0  0  0
 10  8  1  0  0  0  0
 11 12  1  0  0  0  0
 12 15  2  0  0  0  0
 13 20  2  0  0  0  0
 14 19  1  0  0  0  0
 16 10  2  0  0  0  0
 17 14  2  0  0  0  0
 17 18  1  0  0  0  0
 18 11  1  0  0  0  0
 19 11  2  0  0  0  0
 19 16  1  0  0  0  0
 20 18  1  0  0  0  0
 20  5  1  0  0  0  0
 21 23  1  0  0  0  0
 21 22  1  0  0  0  0
 22 24  1  0  0  0  0
 23  7  1  1  0  0  0
 23 22  1  0  0  0  0
 24 25  1  0  0  0  0
 25 26  1  0  0  0  0
 26 35  1  0  0  0  0
 27 33  1  0  0  0  0
 28 31  1  0  0  0  0
 29 31  1  0  0  0  0
 29 27  2  0  0  0  0
 31 34  2  0  0  0  0
 32 29  1  0  0  0  0
 33 30  2  0  0  0  0
 34 30  1  0  0  0  0
 35 32  2  0  0  0  0
 35 28  1  0  0  0  0
M  END
>  <MODEL>
3

>  <REMARK>
 VINA RESULT:      -7.9      3.101      5.034
  Name = 
  6 active torsions:
  status: ('A' for Active; 'I' for Inactive)
    1  A    between atoms: O_4  and  C_25
    2  A    between atoms: O_4  and  C_34
    3  A    between atoms: N_9  and  C_12
    4  A    between atoms: C_12  and  C_25
    5  A    between atoms: C_22  and  C_35
    6  A    between atoms: C_29  and  C_33
                            x       y       z     vdW  Elec       q    Type
                         _______ _______ _______ _____ _____    ______ ____

>  <TORSDO>
F 6

$$$$
=
 OpenBabel10232410473D

 35 40  0  0  1  0  0  0  0  0999 V2000
  188.9820  179.6870  137.3450 O   0  0  0  0  0  0  0  0  0  0  0  0
  186.6570  177.6920  135.8370 C   0  0  0  0  0  0  0  0  0  0  0  0
  187.3340  178.9010  135.8910 O   0  0  0  0  0  0  0  0  0  0  0  0
  185.8210  177.3970  134.9410 O   0  0  0  0  0  0  0  0  0  0  0  0
  187.0900  176.8130  136.9260 C   0  0  0  0  0  0  0  0  0  0  0  0
  188.1750  178.7890  136.9860 C   0  0  0  0  0  0  0  0  0  0  0  0
  188.0070  177.4830  137.6310 C   0  0  0  0  0  0  0  0  0  0  0  0
  180.6790  177.1930  139.2490 F   0  0  0  0  0  0  0  0  0  0  0  0
  185.3180  172.9900  136.1280 N   0  0  0  0  0  1  0  0  0  0  0  0
  181.8450  176.7130  138.7520 C   0  0  0  0  0  0  0  0  0  0  0  0
  184.2300  175.7600  137.7220 C   0  0  0  0  0  0  0  0  0  0  0  0
  184.2500  176.9870  138.3870 C   0  0  0  0  0  3  0  0  0  0  0  0
  187.5120  174.5170  137.3160 O   0  0  0  0  0  0  0  0  0  0  0  0
  183.3290  173.8620  136.9540 N   0  0  0  0  0  0  0  0  0  0  0  0
  183.0320  177.4640  138.9020 C   0  0  0  0  0  3  0  0  0  0  0  0
  181.8610  175.4710  138.0850 C   0  0  0  0  0  3  0  0  0  0  0  0
  184.6660  173.9320  136.7260 C   0  0  0  0  0  0  0  0  0  0  0  0
  185.2500  175.0780  137.1690 N   0  0  0  0  0  0  0  0  0  0  0  0
  183.0830  175.0260  137.5870 C   0  0  0  0  0  0  0  0  0  0  0  0
  186.6480  175.4210  137.1530 C   0  0  0  0  0  0  0  0  0  0  0  0
  189.4330  178.0210  139.5840 C   0  0  0  0  0  2  0  0  0  0  0  0
  188.2320  177.3940  140.1580 N   0  0  0  0  0  0  0  0  0  0  0  0
  188.7670  176.9590  138.8330 C   0  0  1  0  0  3  0  0  0  0  0  0
  187.1870  178.4130  140.0870 C   0  0  0  0  0  2  0  0  0  0  0  0
  186.7670  178.8240  141.4850 C   0  0  0  0  0  2  0  0  0  0  0  0
  186.6490  177.6740  142.3090 O   0  0  0  0  0  0  0  0  0  0  0  0
  189.6680  177.2160  146.0190 C   0  0  0  0  0  3  0  0  0  0  0  0
  186.2910  177.9540  144.8370 C   0  0  0  0  0  2  0  0  0  0  0  0
  188.5090  177.4460  145.2810 C   0  0  0  0  0  0  0  0  0  0  0  0
  188.3720  177.6780  148.0390 C   0  0  0  0  0  3  0  0  0  0  0  0
  187.3250  177.7780  145.8830 C   0  0  0  0  0  0  0  0  0  0  0  0
  188.3750  177.3750  143.8740 N   0  0  0  0  0  0  0  0  0  0  0  0
  189.5910  177.3340  147.4180 C   0  0  0  0  0  3  0  0  0  0  0  0
  187.2190  177.9040  147.2670 C   0  0  0  0  0  3  0  0  0  0  0  0
  187.1330  177.6560  143.6170 C   0  0  0  0  0  0  0  0  0  0  0  0
  2  3  1  0  0  0  0
  2  5  1  0  0  0  0
  3  6  1  0  0  0  0
  4  2  2  0  0  0  0
  5 20  1  0  0  0  0
  5  7  2  0  0  0  0
  6  1  2  0  0  0  0
  6  7  1  0  0  0  0
  9 17  1  0  0  0  0
 10 15  1  0  0  0  0
 10  8  1  0  0  0  0
 11 12  1  0  0  0  0
 12 15  2  0  0  0  0
 14 19  1  0  0  0  0
 16 10  2  0  0  0  0
 17 14  2  0  0  0  0
 17 18  1  0  0  0  0
 18 11  1  0  0  0  0
 19 11  2  0  0  0  0
 19 16  1  0  0  0  0
 20 18  1  0  0  0  0
 20 13  2  0  0  0  0
 21 22  1  0  0  0  0
 23  7  1  6  0  0  0
 23 21  1  0  0  0  0
 23 22  1  0  0  0  0
 24 22  1  0  0  0  0
 24 25  1  0  0  0  0
 25 26  1  0  0  0  0
 26 35  1  0  0  0  0
 27 33  1  0  0  0  0
 28 31  1  0  0  0  0
 29 31  1  0  0  0  0
 29 27  2  0  0  0  0
 31 34  2  0  0  0  0
 32 29  1  0  0  0  0
 33 30  2  0  0  0  0
 34 30  1  0  0  0  0
 35 32  2  0  0  0  0
 35 28  1  0  0  0  0
M  END
>  <MODEL>
4

>  <REMARK>
 VINA RESULT:      -7.7      3.442      5.935
  Name = 
  6 active torsions:
  status: ('A' for Active; 'I' for Inactive)
    1  A    between atoms: O_4  and  C_25
    2  A    between atoms: O_4  and  C_34
    3  A    between atoms: N_9  and  C_12
    4  A    between atoms: C_12  and  C_25
    5  A    between atoms: C_22  and  C_35
    6  A    between atoms: C_29  and  C_33
                            x       y       z     vdW  Elec       q    Type
                         _______ _______ _______ _____ _____    ______ ____

>  <TORSDO>
F 6

$$$$
=
 OpenBabel10232410473D

 35 40  0  0  1  0  0  0  0  0999 V2000
  179.9820  176.2230  139.7020 O   0  0  0  0  0  0  0  0  0  0  0  0
  181.1840  179.3860  140.1570 C   0  0  0  0  0  0  0  0  0  0  0  0
  180.1010  178.5250  140.0650 O   0  0  0  0  0  0  0  0  0  0  0  0
  181.0820  180.6150  140.4170 O   0  0  0  0  0  0  0  0  0  0  0  0
  182.4390  178.6540  139.9640 C   0  0  0  0  0  0  0  0  0  0  0  0
  180.6570  177.2800  139.8200 C   0  0  0  0  0  0  0  0  0  0  0  0
  182.1180  177.3740  139.7490 C   0  0  0  0  0  0  0  0  0  0  0  0
  184.1340  178.4180  146.5760 F   0  0  0  0  0  0  0  0  0  0  0  0
  186.7230  178.7740  140.0880 N   0  0  0  0  0  1  0  0  0  0  0  0
  184.2070  178.5460  145.2290 C   0  0  0  0  0  0  0  0  0  0  0  0
  184.3360  178.7880  142.4750 C   0  0  0  0  0  0  0  0  0  0  0  0
  183.0880  178.9240  143.0840 C   0  0  0  0  0  3  0  0  0  0  0  0
  184.2260  179.9740  139.1490 O   0  0  0  0  0  0  0  0  0  0  0  0
  186.5540  178.5160  142.3910 N   0  0  0  0  0  0  0  0  0  0  0  0
  183.0330  178.7940  144.4830 C   0  0  0  0  0  3  0  0  0  0  0  0
  185.4550  178.4260  144.5830 C   0  0  0  0  0  3  0  0  0  0  0  0
  186.0120  178.7350  141.1650 C   0  0  0  0  0  0  0  0  0  0  0  0
  184.6600  178.8930  141.1730 N   0  0  0  0  0  0  0  0  0  0  0  0
  185.4760  178.5590  143.1970 C   0  0  0  0  0  0  0  0  0  0  0  0
  183.8020  179.2160  140.0630 C   0  0  0  0  0  0  0  0  0  0  0  0
  182.6650  175.3210  138.4760 C   0  0  0  0  0  2  0  0  0  0  0  0
  183.7860  176.2360  138.2110 N   0  0  0  0  0  0  0  0  0  0  0  0
  183.0920  176.2340  139.5340 C   0  0  1  0  0  3  0  0  0  0  0  0
  183.2730  177.2170  137.2570 C   0  0  0  0  0  2  0  0  0  0  0  0
  183.4670  176.7140  135.8390 C   0  0  0  0  0  2  0  0  0  0  0  0
  184.6440  177.2830  135.2850 O   0  0  0  0  0  0  0  0  0  0  0  0
  188.9100  178.1490  137.3220 C   0  0  0  0  0  3  0  0  0  0  0  0
  186.5220  175.7000  136.0390 C   0  0  0  0  0  2  0  0  0  0  0  0
  187.8220  177.4730  136.7720 C   0  0  0  0  0  0  0  0  0  0  0  0
  189.9830  175.9780  137.6510 C   0  0  0  0  0  3  0  0  0  0  0  0
  187.8030  176.1090  136.6590 C   0  0  0  0  0  0  0  0  0  0  0  0
  186.6340  178.0540  136.2680 N   0  0  0  0  0  0  0  0  0  0  0  0
  190.0020  177.3830  137.7650 C   0  0  0  0  0  3  0  0  0  0  0  0
  188.8710  175.3240  137.0920 C   0  0  0  0  0  3  0  0  0  0  0  0
  185.9000  177.0660  135.8520 C   0  0  0  0  0  0  0  0  0  0  0  0
  1  6  2  0  0  0  0
  2  4  2  0  0  0  0
  3  2  1  0  0  0  0
  5 20  1  0  0  0  0
  5  2  1  0  0  0  0
  6  3  1  0  0  0  0
  7  6  1  0  0  0  0
  7  5  2  0  0  0  0
  9 17  1  0  0  0  0
 10  8  1  0  0  0  0
 11 12  2  0  0  0  0
 11 19  1  0  0  0  0
 12 15  1  0  0  0  0
 13 20  2  0  0  0  0
 14 19  1  0  0  0  0
 15 10  2  0  0  0  0
 16 10  1  0  0  0  0
 17 18  1  0  0  0  0
 17 14  2  0  0  0  0
 18 11  1  0  0  0  0
 19 16  2  0  0  0  0
 20 18  1  0  0  0  0
 21 23  1  0  0  0  0
 22 21  1  0  0  0  0
 22 23  1  0  0  0  0
 23  7  1  6  0  0  0
 24 22  1  0  0  0  0
 25 24  1  0  0  0  0
 26 25  1  0  0  0  0
 26 35  1  0  0  0  0
 27 33  1  0  0  0  0
 28 31  1  0  0  0  0
 29 27  2  0  0  0  0
 30 33  2  0  0  0  0
 31 29  1  0  0  0  0
 31 34  2  0  0  0  0
 32 29  1  0  0  0  0
 34 30  1  0  0  0  0
 35 28  1  0  0  0  0
 35 32  2  0  0  0  0
M  END
>  <MODEL>
5

>  <REMARK>
 VINA RESULT:      -7.7      3.440      7.617
  Name = 
  6 active torsions:
  status: ('A' for Active; 'I' for Inactive)
    1  A    between atoms: O_4  and  C_25
    2  A    between atoms: O_4  and  C_34
    3  A    between atoms: N_9  and  C_12
    4  A    between atoms: C_12  and  C_25
    5  A    between atoms: C_22  and  C_35
    6  A    between atoms: C_29  and  C_33
                            x       y       z     vdW  Elec       q    Type
                         _______ _______ _______ _____ _____    ______ ____

>  <TORSDO>
F 6

$$$$
=
 OpenBabel10232410473D

 35 40  0  0  1  0  0  0  0  0999 V2000
  189.3570  178.0170  134.9850 O   0  0  0  0  0  0  0  0  0  0  0  0
  186.0550  177.1510  135.0370 C   0  0  0  0  0  0  0  0  0  0  0  0
  187.0800  177.9030  134.4850 O   0  0  0  0  0  0  0  0  0  0  0  0
  184.8690  177.1630  134.6090 O   0  0  0  0  0  0  0  0  0  0  0  0
  186.5600  176.3220  136.1330 C   0  0  0  0  0  0  0  0  0  0  0  0
  188.2070  177.5570  135.2140 C   0  0  0  0  0  0  0  0  0  0  0  0
  187.8680  176.5750  136.2480 C   0  0  0  0  0  0  0  0  0  0  0  0
  182.1560  179.9200  139.9150 F   0  0  0  0  0  0  0  0  0  0  0  0
  183.3930  173.6160  137.1510 N   0  0  0  0  0  1  0  0  0  0  0  0
  182.7830  178.8920  139.2930 C   0  0  0  0  0  0  0  0  0  0  0  0
  184.0700  176.8120  138.0000 C   0  0  0  0  0  0  0  0  0  0  0  0
  184.7810  177.9970  138.1970 C   0  0  0  0  0  3  0  0  0  0  0  0
  186.2610  174.1870  137.1110 O   0  0  0  0  0  0  0  0  0  0  0  0
  182.3340  175.4120  138.1740 N   0  0  0  0  0  0  0  0  0  0  0  0
  184.1150  179.0490  138.8510 C   0  0  0  0  0  3  0  0  0  0  0  0
  182.0980  177.6780  139.0880 C   0  0  0  0  0  3  0  0  0  0  0  0
  183.4060  174.8370  137.5690 C   0  0  0  0  0  0  0  0  0  0  0  0
  184.4800  175.6610  137.4340 N   0  0  0  0  0  0  0  0  0  0  0  0
  182.7830  176.6550  138.4380 C   0  0  0  0  0  0  0  0  0  0  0  0
  185.7830  175.3370  136.9140 C   0  0  0  0  0  0  0  0  0  0  0  0
  190.0100  176.7310  137.4810 C   0  0  0  0  0  2  0  0  0  0  0  0
  188.9810  176.6350  138.5290 N   0  0  0  0  0  0  0  0  0  0  0  0
  188.8220  175.9200  137.2260 C   0  0  1  0  0  3  0  0  0  0  0  0
  188.3510  177.9520  138.5800 C   0  0  0  0  0  2  0  0  0  0  0  0
  188.2240  178.4110  140.0210 C   0  0  0  0  0  2  0  0  0  0  0  0
  188.7550  177.4200  140.8880 O   0  0  0  0  0  0  0  0  0  0  0  0
  186.4120  177.7610  145.0700 C   0  0  0  0  0  3  0  0  0  0  0  0
  189.5750  177.2420  143.3160 C   0  0  0  0  0  2  0  0  0  0  0  0
  187.4370  177.5960  144.1400 C   0  0  0  0  0  0  0  0  0  0  0  0
  188.0780  177.4560  146.8330 C   0  0  0  0  0  3  0  0  0  0  0  0
  188.7310  177.3710  144.5270 C   0  0  0  0  0  0  0  0  0  0  0  0
  187.3140  177.6360  142.7310 N   0  0  0  0  0  0  0  0  0  0  0  0
  186.7450  177.6900  146.4340 C   0  0  0  0  0  3  0  0  0  0  0  0
  189.0900  177.2930  145.8720 C   0  0  0  0  0  3  0  0  0  0  0  0
  188.5100  177.4410  142.2610 C   0  0  0  0  0  0  0  0  0  0  0  0
  1  6  2  0  0  0  0
  2  5  1  0  0  0  0
  3  2  1  0  0  0  0
  3  6  1  0  0  0  0
  4  2  2  0  0  0  0
  5  7  2  0  0  0  0
  5 20  1  0  0  0  0
  6  7  1  0  0  0  0
  9 17  1  0  0  0  0
 10  8  1  0  0  0  0
 11 12  2  0  0  0  0
 11 19  1  0  0  0  0
 12 15  1  0  0  0  0
 14 19  1  0  0  0  0
 15 10  2  0  0  0  0
 16 10  1  0  0  0  0
 17 14  2  0  0  0  0
 18 17  1  0  0  0  0
 18 11  1  0  0  0  0
 19 16  2  0  0  0  0
 20 13  2  0  0  0  0
 20 18  1  0  0  0  0
 21 22  1  0  0  0  0
 22 24  1  0  0  0  0
 23  7  1  6  0  0  0
 23 21  1  0  0  0  0
 23 22  1  0  0  0  0
 24 25  1  0  0  0  0
 25 26  1  0  0  0  0
 26 35  1  0  0  0  0
 27 33  1  0  0  0  0
 28 31  1  0  0  0  0
 29 31  1  0  0  0  0
 29 27  2  0  0  0  0
 31 34  2  0  0  0  0
 32 29  1  0  0  0  0
 33 30  2  0  0  0  0
 34 30  1  0  0  0  0
 35 32  2  0  0  0  0
 35 28  1  0  0  0  0
M  END
>  <MODEL>
6

>  <REMARK>
 VINA RESULT:      -7.6      3.079      5.924
  Name = 
  6 active torsions:
  status: ('A' for Active; 'I' for Inactive)
    1  A    between atoms: O_4  and  C_25
    2  A    between atoms: O_4  and  C_34
    3  A    between atoms: N_9  and  C_12
    4  A    between atoms: C_12  and  C_25
    5  A    between atoms: C_22  and  C_35
    6  A    between atoms: C_29  and  C_33
                            x       y       z     vdW  Elec       q    Type
                         _______ _______ _______ _____ _____    ______ ____

>  <TORSDO>
F 6

$$$$
=
 OpenBabel10232410473D

 35 40  0  0  1  0  0  0  0  0999 V2000
  180.1890  179.0790  141.7720 O   0  0  0  0  0  0  0  0  0  0  0  0
  182.1140  180.1620  139.1680 C   0  0  0  0  0  0  0  0  0  0  0  0
  180.9160  180.2110  139.8650 O   0  0  0  0  0  0  0  0  0  0  0  0
  182.3750  180.8900  138.1730 O   0  0  0  0  0  0  0  0  0  0  0  0
  183.0260  179.1960  139.7840 C   0  0  0  0  0  0  0  0  0  0  0  0
  181.0680  179.2980  140.8960 C   0  0  0  0  0  0  0  0  0  0  0  0
  182.3870  178.6620  140.8300 C   0  0  0  0  0  0  0  0  0  0  0  0
  182.9040  173.1720  136.5670 F   0  0  0  0  0  0  0  0  0  0  0  0
  186.5260  179.1090  137.3080 N   0  0  0  0  0  1  0  0  0  0  0  0
  183.3110  174.3770  137.0350 C   0  0  0  0  0  0  0  0  0  0  0  0
  184.1160  176.8470  137.9890 C   0  0  0  0  0  0  0  0  0  0  0  0
  183.0580  176.2090  138.6390 C   0  0  0  0  0  3  0  0  0  0  0  0
  185.3670  179.4940  139.9650 O   0  0  0  0  0  0  0  0  0  0  0  0
  185.7740  177.0640  136.5040 N   0  0  0  0  0  0  0  0  0  0  0  0
  182.6540  174.9570  138.1430 C   0  0  0  0  0  3  0  0  0  0  0  0
  184.3850  175.0420  136.4090 C   0  0  0  0  0  3  0  0  0  0  0  0
  185.7080  178.1120  137.3660 C   0  0  0  0  0  0  0  0  0  0  0  0
  184.7040  178.0230  138.2790 N   0  0  0  0  0  0  0  0  0  0  0  0
  184.7610  176.2800  136.9230 C   0  0  0  0  0  0  0  0  0  0  0  0
  184.4170  178.9190  139.3680 C   0  0  0  0  0  0  0  0  0  0  0  0
  184.2980  177.9760  142.2480 C   0  0  0  0  0  2  0  0  0  0  0  0
  183.1750  178.1350  143.1850 N   0  0  0  0  0  0  0  0  0  0  0  0
  182.9510  177.6380  141.7940 C   0  0  1  0  0  3  0  0  0  0  0  0
  183.0040  179.5770  143.3500 C   0  0  0  0  0  2  0  0  0  0  0  0
  184.0260  180.1110  144.3350 C   0  0  0  0  0  2  0  0  0  0  0  0
  184.1270  179.2320  145.4460 O   0  0  0  0  0  0  0  0  0  0  0  0
  187.8030  178.3610  148.4160 C   0  0  0  0  0  3  0  0  0  0  0  0
  186.3780  178.0540  145.0660 C   0  0  0  0  0  2  0  0  0  0  0  0
  187.0120  178.3970  147.2690 C   0  0  0  0  0  0  0  0  0  0  0  0
  189.4980  177.1840  147.1060 C   0  0  0  0  0  3  0  0  0  0  0  0
  187.4340  177.8550  146.0850 C   0  0  0  0  0  0  0  0  0  0  0  0
  185.7240  178.9690  147.1490 N   0  0  0  0  0  0  0  0  0  0  0  0
  189.0630  177.7450  148.3250 C   0  0  0  0  0  3  0  0  0  0  0  0
  188.6770  177.2360  145.9660 C   0  0  0  0  0  3  0  0  0  0  0  0
  185.3610  178.7840  145.9150 C   0  0  0  0  0  0  0  0  0  0  0  0
  2  5  1  0  0  0  0
  2  3  1  0  0  0  0
  3  6  1  0  0  0  0
  4  2  2  0  0  0  0
  5  7  2  0  0  0  0
  6  1  2  0  0  0  0
  7  6  1  0  0  0  0
  8 10  1  0  0  0  0
  9 17  1  0  0  0  0
 10 15  1  0  0  0  0
 11 18  1  0  0  0  0
 11 12  1  0  0  0  0
 14 19  1  0  0  0  0
 14 17  2  0  0  0  0
 15 12  2  0  0  0  0
 16 19  1  0  0  0  0
 16 10  2  0  0  0  0
 17 18  1  0  0  0  0
 18 20  1  0  0  0  0
 19 11  2  0  0  0  0
 20  5  1  0  0  0  0
 20 13  2  0  0  0  0
 21 22  1  0  0  0  0
 22 24  1  0  0  0  0
 23  7  1  6  0  0  0
 23 21  1  0  0  0  0
 23 22  1  0  0  0  0
 24 25  1  0  0  0  0
 25 26  1  0  0  0  0
 26 35  1  0  0  0  0
 28 35  1  0  0  0  0
 28 31  1  0  0  0  0
 29 27  2  0  0  0  0
 30 33  2  0  0  0  0
 31 29  1  0  0  0  0
 32 29  1  0  0  0  0
 33 27  1  0  0  0  0
 34 31  2  0  0  0  0
 34 30  1  0  0  0  0
 35 32  2  0  0  0  0
M  END
>  <MODEL>
7

>  <REMARK>
 VINA RESULT:      -7.2      5.024      7.327
  Name = 
  6 active torsions:
  status: ('A' for Active; 'I' for Inactive)
    1  A    between atoms: O_4  and  C_25
    2  A    between atoms: O_4  and  C_34
    3  A    between atoms: N_9  and  C_12
    4  A    between atoms: C_12  and  C_25
    5  A    between atoms: C_22  and  C_35
    6  A    between atoms: C_29  and  C_33
                            x       y       z     vdW  Elec       q    Type
                         _______ _______ _______ _____ _____    ______ ____

>  <TORSDO>
F 6

$$$$
=
 OpenBabel10232410473D

 35 40  0  0  1  0  0  0  0  0999 V2000
  191.7050  176.7830  139.1780 O   0  0  0  0  0  0  0  0  0  0  0  0
  189.5110  176.4740  136.5810 C   0  0  0  0  0  0  0  0  0  0  0  0
  190.7040  176.1040  137.1820 O   0  0  0  0  0  0  0  0  0  0  0  0
  189.0780  175.9640  135.5130 O   0  0  0  0  0  0  0  0  0  0  0  0
  188.8220  177.4850  137.3860 C   0  0  0  0  0  0  0  0  0  0  0  0
  190.7680  176.8620  138.3400 C   0  0  0  0  0  0  0  0  0  0  0  0
  189.5910  177.7290  138.4520 C   0  0  0  0  0  0  0  0  0  0  0  0
  184.4280  172.2580  137.2400 F   0  0  0  0  0  0  0  0  0  0  0  0
  184.9520  179.1760  138.1300 N   0  0  0  0  0  1  0  0  0  0  0  0
  184.9410  173.5120  137.2780 C   0  0  0  0  0  0  0  0  0  0  0  0
  186.0110  176.0620  137.3700 C   0  0  0  0  0  0  0  0  0  0  0  0
  186.8300  175.0270  136.9160 C   0  0  0  0  0  3  0  0  0  0  0  0
  187.4170  179.1990  136.5570 O   0  0  0  0  0  0  0  0  0  0  0  0
  184.1190  177.0070  138.0960 N   0  0  0  0  0  0  0  0  0  0  0  0
  186.2780  173.7340  136.8780 C   0  0  0  0  0  3  0  0  0  0  0  0
  184.1370  174.5820  137.7200 C   0  0  0  0  0  3  0  0  0  0  0  0
  185.1120  177.9140  137.9060 C   0  0  0  0  0  0  0  0  0  0  0  0
  186.2850  177.3760  137.4750 N   0  0  0  0  0  0  0  0  0  0  0  0
  184.7120  175.8500  137.7460 C   0  0  0  0  0  0  0  0  0  0  0  0
  187.4930  178.0680  137.1080 C   0  0  0  0  0  0  0  0  0  0  0  0
  187.9980  178.3680  140.2380 C   0  0  0  0  0  2  0  0  0  0  0  0
  189.2510  178.0610  140.9460 N   0  0  0  0  0  0  0  0  0  0  0  0
  189.2680  178.6800  139.5870 C   0  0  1  0  0  3  0  0  0  0  0  0
  189.3490  176.6020  140.9510 C   0  0  0  0  0  2  0  0  0  0  0  0
  190.1040  176.1370  142.1820 C   0  0  0  0  0  2  0  0  0  0  0  0
  190.3930  177.2490  143.0160 O   0  0  0  0  0  0  0  0  0  0  0  0
  187.0150  177.9550  146.3600 C   0  0  0  0  0  3  0  0  0  0  0  0
  190.5330  177.3530  145.5790 C   0  0  0  0  0  2  0  0  0  0  0  0
  188.2520  177.7250  145.7610 C   0  0  0  0  0  0  0  0  0  0  0  0
  188.1470  177.8900  148.5250 C   0  0  0  0  0  3  0  0  0  0  0  0
  189.3950  177.5830  146.5000 C   0  0  0  0  0  0  0  0  0  0  0  0
  188.5110  177.6130  144.3740 N   0  0  0  0  0  0  0  0  0  0  0  0
  186.9700  178.0390  147.7630 C   0  0  0  0  0  3  0  0  0  0  0  0
  189.3810  177.6580  147.8920 C   0  0  0  0  0  3  0  0  0  0  0  0
  189.7890  177.4060  144.2630 C   0  0  0  0  0  0  0  0  0  0  0  0
  2  3  1  0  0  0  0
  2  5  1  0  0  0  0
  3  6  1  0  0  0  0
  4  2  2  0  0  0  0
  5  7  2  0  0  0  0
  6  7  1  0  0  0  0
  6  1  2  0  0  0  0
  8 10  1  0  0  0  0
 10 16  1  0  0  0  0
 11 18  1  0  0  0  0
 11 19  1  0  0  0  0
 12 11  2  0  0  0  0
 13 20  2  0  0  0  0
 15 12  1  0  0  0  0
 15 10  2  0  0  0  0
 16 19  2  0  0  0  0
 17 14  2  0  0  0  0
 17  9  1  0  0  0  0
 18 17  1  0  0  0  0
 19 14  1  0  0  0  0
 20  5  1  0  0  0  0
 20 18  1  0  0  0  0
 21 22  1  0  0  0  0
 22 24  1  0  0  0  0
 23  7  1  6  0  0  0
 23 21  1  0  0  0  0
 23 22  1  0  0  0  0
 24 25  1  0  0  0  0
 25 26  1  0  0  0  0
 26 35  1  0  0  0  0
 27 33  1  0  0  0  0
 28 31  1  0  0  0  0
 29 27  2  0  0  0  0
 29 31  1  0  0  0  0
 31 34  2  0  0  0  0
 32 29  1  0  0  0  0
 33 30  2  0  0  0  0
 34 30  1  0  0  0  0
 35 32  2  0  0  0  0
 35 28  1  0  0  0  0
M  END
>  <MODEL>
8

>  <REMARK>
 VINA RESULT:      -7.1      3.205      5.775
  Name = 
  6 active torsions:
  status: ('A' for Active; 'I' for Inactive)
    1  A    between atoms: O_4  and  C_25
    2  A    between atoms: O_4  and  C_34
    3  A    between atoms: N_9  and  C_12
    4  A    between atoms: C_12  and  C_25
    5  A    between atoms: C_22  and  C_35
    6  A    between atoms: C_29  and  C_33
                            x       y       z     vdW  Elec       q    Type
                         _______ _______ _______ _____ _____    ______ ____

>  <TORSDO>
F 6

$$$$
=
 OpenBabel10232410473D

 35 40  0  0  1  0  0  0  0  0999 V2000
  189.3260  179.2090  138.4400 O   0  0  0  0  0  0  0  0  0  0  0  0
  189.1150  176.9990  135.8450 C   0  0  0  0  0  0  0  0  0  0  0  0
  188.8290  178.2490  136.3710 O   0  0  0  0  0  0  0  0  0  0  0  0
  188.8210  176.6480  134.6710 O   0  0  0  0  0  0  0  0  0  0  0  0
  189.8420  176.1860  136.8230 C   0  0  0  0  0  0  0  0  0  0  0  0
  189.3620  178.2280  137.6500 C   0  0  0  0  0  0  0  0  0  0  0  0
  189.9840  176.9300  137.9250 C   0  0  0  0  0  0  0  0  0  0  0  0
  184.4620  171.9780  136.7860 F   0  0  0  0  0  0  0  0  0  0  0  0
  191.1090  172.6700  134.7210 N   0  0  0  0  0  1  0  0  0  0  0  0
  185.7170  172.4700  136.6430 C   0  0  0  0  0  0  0  0  0  0  0  0
  188.2690  173.4980  136.3460 C   0  0  0  0  0  0  0  0  0  0  0  0
  187.3920  174.1650  137.2040 C   0  0  0  0  0  3  0  0  0  0  0  0
  191.5870  174.5880  136.8760 O   0  0  0  0  0  0  0  0  0  0  0  0
  188.9370  171.8810  134.9540 N   0  0  0  0  0  0  0  0  0  0  0  0
  186.0970  173.6360  137.3430 C   0  0  0  0  0  3  0  0  0  0  0  0
  186.6310  171.8140  135.7940 C   0  0  0  0  0  3  0  0  0  0  0  0
  189.9250  172.7710  135.2260 C   0  0  0  0  0  0  0  0  0  0  0  0
  189.5540  173.7790  136.0620 N   0  0  0  0  0  0  0  0  0  0  0  0
  187.9060  172.3610  135.6760 C   0  0  0  0  0  0  0  0  0  0  0  0
  190.3800  174.8270  136.6030 C   0  0  0  0  0  0  0  0  0  0  0  0
  190.8990  177.6350  140.1160 C   0  0  0  0  0  2  0  0  0  0  0  0
  189.8940  176.6120  140.4420 N   0  0  0  0  0  0  0  0  0  0  0  0
  190.7070  176.5200  139.1920 C   0  0  1  0  0  3  0  0  0  0  0  0
  188.5990  177.2690  140.2780 C   0  0  0  0  0  2  0  0  0  0  0  0
  188.0690  177.7160  141.6270 C   0  0  0  0  0  2  0  0  0  0  0  0
  188.3880  176.7460  142.6130 O   0  0  0  0  0  0  0  0  0  0  0  0
  189.8140  177.3160  147.1670 C   0  0  0  0  0  3  0  0  0  0  0  0
  187.1250  177.5430  144.7040 C   0  0  0  0  0  2  0  0  0  0  0  0
  189.0140  177.3000  146.0260 C   0  0  0  0  0  0  0  0  0  0  0  0
  187.8700  178.1150  148.4150 C   0  0  0  0  0  3  0  0  0  0  0  0
  187.6960  177.6710  146.0650 C   0  0  0  0  0  0  0  0  0  0  0  0
  189.4080  176.9150  144.7230 N   0  0  0  0  0  0  0  0  0  0  0  0
  189.2270  177.7300  148.3750 C   0  0  0  0  0  3  0  0  0  0  0  0
  187.0880  178.0880  147.2470 C   0  0  0  0  0  3  0  0  0  0  0  0
  188.3540  177.0460  143.9750 C   0  0  0  0  0  0  0  0  0  0  0  0
  2  3  1  0  0  0  0
  2  5  1  0  0  0  0
  3  6  1  0  0  0  0
  4  2  2  0  0  0  0
  5  7  2  0  0  0  0
  6  7  1  0  0  0  0
  6  1  2  0  0  0  0
  9 17  1  0  0  0  0
 10  8  1  0  0  0  0
 10 15  1  0  0  0  0
 11 12  1  0  0  0  0
 12 15  2  0  0  0  0
 14 17  2  0  0  0  0
 14 19  1  0  0  0  0
 16 10  2  0  0  0  0
 17 18  1  0  0  0  0
 18 11  1  0  0  0  0
 18 20  1  0  0  0  0
 19 16  1  0  0  0  0
 19 11  2  0  0  0  0
 20  5  1  0  0  0  0
 20 13  2  0  0  0  0
 21 22  1  0  0  0  0
 23  7  1  6  0  0  0
 23 21  1  0  0  0  0
 23 22  1  0  0  0  0
 24 22  1  0  0  0  0
 24 25  1  0  0  0  0
 25 26  1  0  0  0  0
 26 35  1  0  0  0  0
 27 33  1  0  0  0  0
 28 31  1  0  0  0  0
 29 31  1  0  0  0  0
 29 27  2  0  0  0  0
 31 34  2  0  0  0  0
 32 29  1  0  0  0  0
 33 30  2  0  0  0  0
 34 30  1  0  0  0  0
 35 28  1  0  0  0  0
 35 32  2  0  0  0  0
M  END
>  <MODEL>
9

>  <REMARK>
 VINA RESULT:      -7.1      3.259      5.101
  Name = 
  6 active torsions:
  status: ('A' for Active; 'I' for Inactive)
    1  A    between atoms: O_4  and  C_25
    2  A    between atoms: O_4  and  C_34
    3  A    between atoms: N_9  and  C_12
    4  A    between atoms: C_12  and  C_25
    5  A    between atoms: C_22  and  C_35
    6  A    between atoms: C_29  and  C_33
                            x       y       z     vdW  Elec       q    Type
                         _______ _______ _______ _____ _____    ______ ____

>  <TORSDO>
F 6

$$$$
