=
 OpenBabel10232410173D

 41 43  0  0  1  0  0  0  0  0999 V2000
  186.1760  177.6630  137.7290 C   0  0  0  0  0  0  0  0  0  0  0  0
  188.6530  177.2060  137.7430 N   0  0  0  0  0  0  0  0  0  0  0  0
  188.1490  174.9310  137.1230 C   0  0  0  0  0  2  0  0  0  0  0  0
  187.3400  177.1240  137.2170 C   0  0  1  0  0  3  0  0  0  0  0  0
  189.0070  179.4760  138.1020 O   0  0  0  0  0  0  0  0  0  0  0  0
  189.7380  178.0900  139.8080 N   0  0  0  0  0  0  0  0  0  0  0  0
  185.7130  175.6520  137.1570 N   0  0  0  0  0  0  0  0  0  0  0  0
  186.0600  178.7910  138.2790 O   0  0  0  0  0  0  0  0  0  0  0  0
  189.1390  178.3010  138.5280 C   0  0  0  0  0  0  0  0  0  0  0  0
  185.0280  174.3700  137.1300 C   0  0  0  0  0  1  0  0  0  0  0  0
  187.0150  175.8630  136.8800 C   0  0  2  0  0  3  0  0  0  0  0  0
  185.1820  176.7570  137.6650 N   0  0  0  0  0  2  0  0  0  0  0  0
  189.2580  175.8680  137.6750 C   0  0  1  0  0  3  0  0  0  0  0  0
  189.8120  176.8180  140.3960 N   0  0  0  0  0  0  0  0  0  0  0  0
  190.0470  176.6070  141.7930 C   0  0  0  0  0  0  0  0  0  0  0  0
  189.9700  175.4330  142.2400 O   0  0  0  0  0  0  0  0  0  0  0  0
  190.3370  177.7020  142.7450 C   0  0  0  0  0  0  0  0  0  0  0  0
  191.5810  178.1440  142.9090 C   0  0  0  0  0  2  0  0  0  0  0  0
  189.2640  178.2070  143.5000 O   0  0  0  0  0  0  0  0  0  0  0  0
  187.4570  178.0360  145.1900 N   0  0  0  0  0  2  0  0  0  0  0  0
  188.7650  177.7020  144.7100 C   0  0  0  0  0  0  0  0  0  0  0  0
  189.4960  176.9310  145.3860 O   0  0  0  0  0  0  0  0  0  0  0  0
  186.9060  177.4960  146.4240 C   0  0  0  0  0  2  0  0  0  0  0  0
  188.1090  177.7150  148.5800 C   0  0  0  0  0  1  0  0  0  0  0  0
  187.2160  178.4260  147.5840 C   0  0  0  0  0  2  0  0  0  0  0  0
  190.4820  175.8750  136.7510 C   0  0  1  0  0  3  0  0  0  0  0  0
  190.6120  177.1330  136.1830 F   0  0  0  0  0  0  0  0  0  0  0  0
  193.7520  176.6250  137.8030 O   0  0  0  0  0  0  0  0  0  0  0  0
  191.7700  175.5330  137.5090 C   0  0  1  0  0  3  0  0  0  0  0  0
  192.7730  174.8780  136.6050 C   0  0  1  0  0  3  0  0  0  0  0  0
  193.9010  175.8670  136.6360 C   0  0  0  0  0  2  0  0  0  0  0  0
  192.4070  176.7530  137.9850 N   0  0  0  0  0  2  0  0  0  0  0  0
  193.2110  173.5620  137.2300 C   0  0  0  0  0  2  0  0  0  0  0  0
  194.4180  173.0010  136.4970 C   0  0  0  0  0  2  0  0  0  0  0  0
  196.9410  172.3120  137.0150 O   0  0  0  0  0  0  0  0  0  0  0  0
  195.1810  170.9250  138.0200 O   0  0  0  0  0  0  0  0  0  0  0  0
  195.5840  172.3250  137.6580 S   0  0  0  0  0  0  0  0  0  0  0  0
  196.3410  174.5400  139.1530 C   0  0  0  0  0  0  0  0  0  0  0  0
  195.6220  173.3070  139.0860 N   0  0  0  0  0  2  0  0  0  0  0  0
  196.4110  175.2250  140.3610 O   0  0  0  0  0  1  0  0  0  0  0  0
  196.9190  175.0080  138.1300 O   0  0  0  0  0  0  0  0  0  0  0  0
  1  8  2  0  0  0  0
  2  9  1  0  0  0  0
  3 13  1  0  0  0  0
  4  1  1  1  0  0  0
  4  2  1  0  0  0  0
  5  9  2  0  0  0  0
  6 14  2  0  0  0  0
  7 12  1  0  0  0  0
  9  6  1  0  0  0  0
 10  7  1  0  0  0  0
 11  3  1  1  0  0  0
 11  7  1  0  0  0  0
 11  4  1  0  0  0  0
 12  1  1  0  0  0  0
 13 26  1  6  0  0  0
 13  2  1  0  0  0  0
 14 15  1  0  0  0  0
 15 16  2  0  0  0  0
 15 17  1  0  0  0  0
 17 18  2  0  0  0  0
 17 19  1  0  0  0  0
 19 21  1  0  0  0  0
 20 23  1  0  0  0  0
 21 20  1  0  0  0  0
 21 22  2  0  0  0  0
 23 25  1  0  0  0  0
 25 24  1  0  0  0  0
 26 27  1  1  0  0  0
 28 32  1  0  0  0  0
 29 26  1  6  0  0  0
 29 32  1  0  0  0  0
 30 31  1  0  0  0  0
 30 33  1  1  0  0  0
 30 29  1  0  0  0  0
 31 28  1  0  0  0  0
 34 33  1  0  0  0  0
 34 37  1  0  0  0  0
 35 37  2  0  0  0  0
 37 36  2  0  0  0  0
 37 39  1  0  0  0  0
 38 40  1  0  0  0  0
 39 38  1  0  0  0  0
 41 38  2  0  0  0  0
M  END
>  <MODEL>
1

>  <REMARK>
 VINA RESULT:      -7.8      0.000      0.000
  Name = 
  12 active torsions:
  status: ('A' for Active; 'I' for Inactive)
    1  A    between atoms: C_1  and  N_29
    2  A    between atoms: C_1  and  C_38
    3  A    between atoms: N_2  and  N_15
    4  A    between atoms: O_3  and  C_12
    5  A    between atoms: O_3  and  C_31
    6  A    between atoms: C_12  and  C_27
    7  A    between atoms: N_13  and  S_33
    8  A    between atoms: C_14  and  C_24
    9  A    between atoms: C_17  and  C_34
   10  A    between atoms: C_19  and  S_33
   11  A    between atoms: C_19  and  C_34
   12  A    between atoms: C_24  and  C_37
                            x       y       z     vdW  Elec       q    Type
                         _______ _______ _______ _____ _____    ______ ____

>  <TORSDO>
F 12

$$$$
=
 OpenBabel10232410173D

 41 43  0  0  1  0  0  0  0  0999 V2000
  181.6140  177.8580  136.1100 C   0  0  0  0  0  0  0  0  0  0  0  0
  183.1440  177.7010  138.1040 N   0  0  0  0  0  0  0  0  0  0  0  0
  182.5210  179.9650  138.6520 C   0  0  0  0  0  2  0  0  0  0  0  0
  181.9440  178.0510  137.4380 C   0  0  1  0  0  3  0  0  0  0  0  0
  183.4690  175.4530  137.5990 O   0  0  0  0  0  0  0  0  0  0  0  0
  185.3720  176.7690  137.4800 N   0  0  0  0  0  0  0  0  0  0  0  0
  181.0330  179.8620  136.5960 N   0  0  0  0  0  0  0  0  0  0  0  0
  181.8970  176.8460  135.4140 O   0  0  0  0  0  0  0  0  0  0  0  0
  183.9780  176.5950  137.7350 C   0  0  0  0  0  0  0  0  0  0  0  0
  180.6990  181.2640  136.4050 C   0  0  0  0  0  1  0  0  0  0  0  0
  181.5770  179.3180  137.7020 C   0  0  2  0  0  3  0  0  0  0  0  0
  181.0360  178.9690  135.6130 N   0  0  0  0  0  2  0  0  0  0  0  0
  183.5540  178.8400  138.9370 C   0  0  1  0  0  3  0  0  0  0  0  0
  185.9820  178.0320  137.5000 N   0  0  0  0  0  0  0  0  0  0  0  0
  187.3720  178.2420  137.2230 C   0  0  0  0  0  0  0  0  0  0  0  0
  187.7920  179.4260  137.1430 O   0  0  0  0  0  0  0  0  0  0  0  0
  188.3310  177.1410  136.9890 C   0  0  0  0  0  0  0  0  0  0  0  0
  188.8680  176.9560  135.7860 C   0  0  0  0  0  2  0  0  0  0  0  0
  188.6030  176.2760  138.0640 O   0  0  0  0  0  0  0  0  0  0  0  0
  189.6580  177.2080  140.1050 N   0  0  0  0  0  2  0  0  0  0  0  0
  189.6800  176.3480  138.9600 C   0  0  0  0  0  0  0  0  0  0  0  0
  190.6910  175.6280  138.7430 O   0  0  0  0  0  0  0  0  0  0  0  0
  190.7480  177.2730  141.0670 C   0  0  0  0  0  2  0  0  0  0  0  0
  190.0510  178.2830  143.2200 C   0  0  0  0  0  1  0  0  0  0  0  0
  190.2290  176.9830  142.4640 C   0  0  0  0  0  2  0  0  0  0  0  0
  183.5500  178.4530  140.4210 C   0  0  1  0  0  3  0  0  0  0  0  0
  183.7280  177.0830  140.5320 F   0  0  0  0  0  0  0  0  0  0  0  0
  186.9300  178.9080  141.2790 O   0  0  0  0  0  0  0  0  0  0  0  0
  184.6640  179.1650  141.1980 C   0  0  1  0  0  3  0  0  0  0  0  0
  184.9810  178.4440  142.4760 C   0  0  1  0  0  3  0  0  0  0  0  0
  186.4110  178.0470  142.2530 C   0  0  0  0  0  2  0  0  0  0  0  0
  185.8980  179.1550  140.4240 N   0  0  0  0  0  2  0  0  0  0  0  0
  184.8820  179.4270  143.6320 C   0  0  0  0  0  2  0  0  0  0  0  0
  184.2020  178.7770  144.8250 C   0  0  0  0  0  2  0  0  0  0  0  0
  184.6010  178.0740  147.3660 O   0  0  0  0  0  0  0  0  0  0  0  0
  185.7280  180.1130  146.5860 O   0  0  0  0  0  0  0  0  0  0  0  0
  185.3140  178.7190  146.2120 S   0  0  0  0  0  0  0  0  0  0  0  0
  187.8000  177.5810  146.7030 C   0  0  0  0  0  0  0  0  0  0  0  0
  186.7160  177.7880  145.7960 N   0  0  0  0  0  2  0  0  0  0  0  0
  188.9370  176.9090  146.2690 O   0  0  0  0  0  0  0  0  0  0  0  0
  187.7390  178.0100  147.8910 O   0  0  0  0  0  1  0  0  0  0  0  0
  2 13  1  0  0  0  0
  3 13  1  0  0  0  0
  4  1  1  6  0  0  0
  4 11  1  0  0  0  0
  4  2  1  0  0  0  0
  5  9  2  0  0  0  0
  6 14  2  0  0  0  0
  6  9  1  0  0  0  0
  7 11  1  0  0  0  0
  8  1  2  0  0  0  0
  9  2  1  0  0  0  0
 10  7  1  0  0  0  0
 11  3  1  6  0  0  0
 12  1  1  0  0  0  0
 12  7  1  0  0  0  0
 13 26  1  1  0  0  0
 15 14  1  0  0  0  0
 16 15  2  0  0  0  0
 17 15  1  0  0  0  0
 17 19  1  0  0  0  0
 18 17  2  0  0  0  0
 19 21  1  0  0  0  0
 20 23  1  0  0  0  0
 21 20  1  0  0  0  0
 22 21  2  0  0  0  0
 23 25  1  0  0  0  0
 25 24  1  0  0  0  0
 26 27  1  6  0  0  0
 28 31  1  0  0  0  0
 29 26  1  6  0  0  0
 29 30  1  0  0  0  0
 30 33  1  1  0  0  0
 31 30  1  0  0  0  0
 32 29  1  0  0  0  0
 32 28  1  0  0  0  0
 33 34  1  0  0  0  0
 34 37  1  0  0  0  0
 37 36  2  0  0  0  0
 37 35  2  0  0  0  0
 38 41  1  0  0  0  0
 39 37  1  0  0  0  0
 39 38  1  0  0  0  0
 40 38  2  0  0  0  0
M  END
>  <MODEL>
2

>  <REMARK>
 VINA RESULT:      -7.2      4.331      8.782
  Name = 
  12 active torsions:
  status: ('A' for Active; 'I' for Inactive)
    1  A    between atoms: C_1  and  N_29
    2  A    between atoms: C_1  and  C_38
    3  A    between atoms: N_2  and  N_15
    4  A    between atoms: O_3  and  C_12
    5  A    between atoms: O_3  and  C_31
    6  A    between atoms: C_12  and  C_27
    7  A    between atoms: N_13  and  S_33
    8  A    between atoms: C_14  and  C_24
    9  A    between atoms: C_17  and  C_34
   10  A    between atoms: C_19  and  S_33
   11  A    between atoms: C_19  and  C_34
   12  A    between atoms: C_24  and  C_37
                            x       y       z     vdW  Elec       q    Type
                         _______ _______ _______ _____ _____    ______ ____

>  <TORSDO>
F 12

$$$$
=
 OpenBabel10232410173D

 41 43  0  0  1  0  0  0  0  0999 V2000
  186.1850  176.5820  137.2230 C   0  0  0  0  0  0  0  0  0  0  0  0
  188.7020  176.6590  137.1780 N   0  0  0  0  0  0  0  0  0  0  0  0
  188.6870  174.2550  136.9940 C   0  0  0  0  0  2  0  0  0  0  0  0
  187.4280  176.2120  136.7480 C   0  0  1  0  0  3  0  0  0  0  0  0
  188.5670  178.9800  137.1140 O   0  0  0  0  0  0  0  0  0  0  0  0
  189.6080  178.1110  138.9920 N   0  0  0  0  0  2  0  0  0  0  0  0
  186.1540  174.4480  137.0370 N   0  0  0  0  0  0  0  0  0  0  0  0
  185.8390  177.7420  137.5740 O   0  0  0  0  0  0  0  0  0  0  0  0
  188.9550  177.9560  137.7320 C   0  0  0  0  0  0  0  0  0  0  0  0
  185.7590  173.0690  137.2740 C   0  0  0  0  0  1  0  0  0  0  0  0
  187.3750  174.8700  136.6560 C   0  0  2  0  0  3  0  0  0  0  0  0
  185.4070  175.4920  137.3740 N   0  0  0  0  0  2  0  0  0  0  0  0
  189.5780  175.4870  137.3110 C   0  0  1  0  0  3  0  0  0  0  0  0
  189.9640  177.0120  139.7880 N   0  0  0  0  0  2  0  0  0  0  0  0
  189.7540  176.9620  141.2050 C   0  0  0  0  0  0  0  0  0  0  0  0
  189.9930  175.8820  141.8050 O   0  0  0  0  0  0  0  0  0  0  0  0
  189.2360  178.1010  141.9920 C   0  0  0  0  0  0  0  0  0  0  0  0
  189.6670  178.3210  143.2310 C   0  0  0  0  0  2  0  0  0  0  0  0
  188.2380  178.8980  141.4020 O   0  0  0  0  0  0  0  0  0  0  0  0
  186.2300  178.4580  142.7910 N   0  0  0  0  0  2  0  0  0  0  0  0
  186.8480  178.7530  141.5330 C   0  0  0  0  0  0  0  0  0  0  0  0
  186.1310  178.8900  140.5060 O   0  0  0  0  0  0  0  0  0  0  0  0
  184.7900  178.3390  142.9560 C   0  0  0  0  0  2  0  0  0  0  0  0
  183.5330  178.8290  145.0360 C   0  0  0  0  0  1  0  0  0  0  0  0
  184.2760  179.4410  143.8660 C   0  0  0  0  0  2  0  0  0  0  0  0
  190.7560  175.5790  136.3320 C   0  0  1  0  0  3  0  0  0  0  0  0
  190.8240  176.8690  135.8270 F   0  0  0  0  0  0  0  0  0  0  0  0
  194.0820  176.3330  137.1870 O   0  0  0  0  0  0  0  0  0  0  0  0
  192.0880  175.2380  137.0100 C   0  0  1  0  0  3  0  0  0  0  0  0
  193.0360  174.5870  136.0460 C   0  0  1  0  0  3  0  0  0  0  0  0
  194.1620  175.5780  136.0110 C   0  0  0  0  0  2  0  0  0  0  0  0
  192.7510  176.4580  137.4510 N   0  0  0  0  0  2  0  0  0  0  0  0
  193.5130  173.2700  136.6400 C   0  0  0  0  0  2  0  0  0  0  0  0
  194.9790  173.0410  136.3140 C   0  0  0  0  0  2  0  0  0  0  0  0
  197.2600  172.1280  137.3510 O   0  0  0  0  0  0  0  0  0  0  0  0
  195.1980  170.9630  138.0020 O   0  0  0  0  0  0  0  0  0  0  0  0
  195.8100  172.3010  137.7020 S   0  0  0  0  0  0  0  0  0  0  0  0
  196.3380  174.5860  139.1890 C   0  0  0  0  0  0  0  0  0  0  0  0
  195.6620  173.3320  139.0880 N   0  0  0  0  0  2  0  0  0  0  0  0
  196.2540  175.3150  140.3710 O   0  0  0  0  0  1  0  0  0  0  0  0
  197.0150  175.0360  138.2210 O   0  0  0  0  0  0  0  0  0  0  0  0
  1 12  1  0  0  0  0
  1  8  2  0  0  0  0
  2 13  1  0  0  0  0
  2  9  1  0  0  0  0
  3 13  1  0  0  0  0
  4  2  1  0  0  0  0
  4  1  1  1  0  0  0
  5  9  2  0  0  0  0
  6 14  1  0  0  0  0
  7 10  1  0  0  0  0
  7 12  1  0  0  0  0
  9  6  1  0  0  0  0
 11  4  1  0  0  0  0
 11  3  1  1  0  0  0
 11  7  1  0  0  0  0
 13 26  1  6  0  0  0
 14 15  1  0  0  0  0
 15 16  2  0  0  0  0
 15 17  1  0  0  0  0
 17 18  2  0  0  0  0
 19 21  1  0  0  0  0
 19 17  1  0  0  0  0
 20 23  1  0  0  0  0
 21 20  1  0  0  0  0
 22 21  2  0  0  0  0
 23 25  1  0  0  0  0
 25 24  1  0  0  0  0
 26 27  1  1  0  0  0
 28 32  1  0  0  0  0
 29 26  1  6  0  0  0
 29 32  1  0  0  0  0
 30 33  1  1  0  0  0
 30 29  1  0  0  0  0
 31 30  1  0  0  0  0
 31 28  1  0  0  0  0
 34 33  1  0  0  0  0
 34 37  1  0  0  0  0
 35 37  2  0  0  0  0
 37 36  2  0  0  0  0
 37 39  1  0  0  0  0
 38 40  1  0  0  0  0
 39 38  1  0  0  0  0
 41 38  2  0  0  0  0
M  END
>  <MODEL>
3

>  <REMARK>
 VINA RESULT:      -7.2      1.721      2.034
  Name = 
  12 active torsions:
  status: ('A' for Active; 'I' for Inactive)
    1  A    between atoms: C_1  and  N_29
    2  A    between atoms: C_1  and  C_38
    3  A    between atoms: N_2  and  N_15
    4  A    between atoms: O_3  and  C_12
    5  A    between atoms: O_3  and  C_31
    6  A    between atoms: C_12  and  C_27
    7  A    between atoms: N_13  and  S_33
    8  A    between atoms: C_14  and  C_24
    9  A    between atoms: C_17  and  C_34
   10  A    between atoms: C_19  and  S_33
   11  A    between atoms: C_19  and  C_34
   12  A    between atoms: C_24  and  C_37
                            x       y       z     vdW  Elec       q    Type
                         _______ _______ _______ _____ _____    ______ ____

>  <TORSDO>
F 12

$$$$
=
 OpenBabel10232410173D

 41 43  0  0  1  0  0  0  0  0999 V2000
  185.5600  178.0370  137.7540 C   0  0  0  0  0  0  0  0  0  0  0  0
  187.9790  177.4800  137.3280 N   0  0  0  0  0  0  0  0  0  0  0  0
  187.2810  175.2320  136.8070 C   0  0  0  0  0  2  0  0  0  0  0  0
  186.5930  177.4550  137.0430 C   0  0  1  0  0  3  0  0  0  0  0  0
  188.4840  179.7320  137.6200 O   0  0  0  0  0  0  0  0  0  0  0  0
  189.4480  178.3040  139.1690 N   0  0  0  0  0  0  0  0  0  0  0  0
  184.9220  176.0490  137.2710 N   0  0  0  0  0  0  0  0  0  0  0  0
  185.5890  179.1640  138.3170 O   0  0  0  0  0  0  0  0  0  0  0  0
  188.6410  178.5490  138.0160 C   0  0  0  0  0  0  0  0  0  0  0  0
  184.1910  174.7960  137.3660 C   0  0  0  0  0  1  0  0  0  0  0  0
  186.1610  176.2100  136.7690 C   0  0  2  0  0  3  0  0  0  0  0  0
  184.5340  177.1710  137.8670 N   0  0  0  0  0  2  0  0  0  0  0  0
  188.5080  176.1190  137.1540 C   0  0  1  0  0  3  0  0  0  0  0  0
  189.5730  177.0260  139.7340 N   0  0  0  0  0  0  0  0  0  0  0  0
  190.4880  176.7170  140.7930 C   0  0  0  0  0  0  0  0  0  0  0  0
  190.4330  175.5730  141.3130 O   0  0  0  0  0  0  0  0  0  0  0  0
  191.4670  177.6860  141.3320 C   0  0  0  0  0  0  0  0  0  0  0  0
  192.6950  177.7610  140.8260 C   0  0  0  0  0  2  0  0  0  0  0  0
  191.0660  178.4730  142.4260 O   0  0  0  0  0  0  0  0  0  0  0  0
  189.4400  178.2480  144.2850 N   0  0  0  0  0  2  0  0  0  0  0  0
  190.7360  178.0290  143.7160 C   0  0  0  0  0  0  0  0  0  0  0  0
  191.6120  177.4190  144.3830 O   0  0  0  0  0  0  0  0  0  0  0  0
  189.0640  177.7660  145.6050 C   0  0  0  0  0  2  0  0  0  0  0  0
  186.8900  178.1330  146.7370 C   0  0  0  0  0  1  0  0  0  0  0  0
  187.5940  177.3850  145.6240 C   0  0  0  0  0  2  0  0  0  0  0  0
  189.5480  176.0850  136.0270 C   0  0  1  0  0  3  0  0  0  0  0  0
  189.9850  177.3760  135.7750 F   0  0  0  0  0  0  0  0  0  0  0  0
  191.7390  174.6480  138.3730 O   0  0  0  0  0  0  0  0  0  0  0  0
  190.7550  175.2120  136.3930 C   0  0  1  0  0  3  0  0  0  0  0  0
  192.0030  176.0370  136.5160 C   0  0  1  0  0  3  0  0  0  0  0  0
  192.3610  175.8320  137.9590 C   0  0  0  0  0  2  0  0  0  0  0  0
  190.5530  174.6050  137.7010 N   0  0  0  0  0  2  0  0  0  0  0  0
  193.0770  175.4400  135.6190 C   0  0  0  0  0  2  0  0  0  0  0  0
  194.3970  176.1650  135.8150 C   0  0  0  0  0  2  0  0  0  0  0  0
  197.0000  175.7240  136.1810 O   0  0  0  0  0  0  0  0  0  0  0  0
  195.9070  174.4810  134.3660 O   0  0  0  0  0  0  0  0  0  0  0  0
  195.7470  175.0090  135.7620 S   0  0  0  0  0  0  0  0  0  0  0  0
  195.4160  173.8560  138.2670 C   0  0  0  0  0  0  0  0  0  0  0  0
  195.4330  173.6950  136.8480 N   0  0  0  0  0  2  0  0  0  0  0  0
  195.2560  172.7400  139.0810 O   0  0  0  0  0  1  0  0  0  0  0  0
  195.5500  175.0000  138.7900 O   0  0  0  0  0  0  0  0  0  0  0  0
  1 12  1  0  0  0  0
  1  8  2  0  0  0  0
  2  9  1  0  0  0  0
  3 13  1  0  0  0  0
  4  2  1  0  0  0  0
  4  1  1  1  0  0  0
  5  9  2  0  0  0  0
  6 14  2  0  0  0  0
  7 10  1  0  0  0  0
  7 12  1  0  0  0  0
  9  6  1  0  0  0  0
 11  3  1  1  0  0  0
 11  4  1  0  0  0  0
 11  7  1  0  0  0  0
 13 26  1  6  0  0  0
 13  2  1  0  0  0  0
 14 15  1  0  0  0  0
 15 16  2  0  0  0  0
 15 17  1  0  0  0  0
 17 19  1  0  0  0  0
 18 17  2  0  0  0  0
 19 21  1  0  0  0  0
 20 23  1  0  0  0  0
 21 20  1  0  0  0  0
 21 22  2  0  0  0  0
 23 25  1  0  0  0  0
 25 24  1  0  0  0  0
 26 27  1  1  0  0  0
 29 26  1  1  0  0  0
 29 30  1  0  0  0  0
 29 32  1  0  0  0  0
 30 33  1  6  0  0  0
 30 31  1  0  0  0  0
 31 28  1  0  0  0  0
 32 28  1  0  0  0  0
 33 34  1  0  0  0  0
 36 37  2  0  0  0  0
 37 34  1  0  0  0  0
 37 35  2  0  0  0  0
 37 39  1  0  0  0  0
 38 41  2  0  0  0  0
 38 40  1  0  0  0  0
 39 38  1  0  0  0  0
M  END
>  <MODEL>
4

>  <REMARK>
 VINA RESULT:      -6.8      1.592      2.026
  Name = 
  12 active torsions:
  status: ('A' for Active; 'I' for Inactive)
    1  A    between atoms: C_1  and  N_29
    2  A    between atoms: C_1  and  C_38
    3  A    between atoms: N_2  and  N_15
    4  A    between atoms: O_3  and  C_12
    5  A    between atoms: O_3  and  C_31
    6  A    between atoms: C_12  and  C_27
    7  A    between atoms: N_13  and  S_33
    8  A    between atoms: C_14  and  C_24
    9  A    between atoms: C_17  and  C_34
   10  A    between atoms: C_19  and  S_33
   11  A    between atoms: C_19  and  C_34
   12  A    between atoms: C_24  and  C_37
                            x       y       z     vdW  Elec       q    Type
                         _______ _______ _______ _____ _____    ______ ____

>  <TORSDO>
F 12

$$$$
=
 OpenBabel10232410173D

 41 43  0  0  1  0  0  0  0  0999 V2000
  187.3680  175.7280  136.2600 C   0  0  0  0  0  0  0  0  0  0  0  0
  189.6870  175.4140  137.1920 N   0  0  0  0  0  0  0  0  0  0  0  0
  189.7140  177.7730  137.6890 C   0  0  0  0  0  2  0  0  0  0  0  0
  188.3660  175.9260  137.1940 C   0  0  1  0  0  3  0  0  0  0  0  0
  189.4330  173.1230  136.8810 O   0  0  0  0  0  0  0  0  0  0  0  0
  191.1290  174.0970  135.6390 N   0  0  0  0  0  2  0  0  0  0  0  0
  187.3680  177.8210  136.7150 N   0  0  0  0  0  0  0  0  0  0  0  0
  187.1230  174.6520  135.6520 O   0  0  0  0  0  0  0  0  0  0  0  0
  190.0670  174.1690  136.5920 C   0  0  0  0  0  0  0  0  0  0  0  0
  187.1500  179.2490  136.5470 C   0  0  0  0  0  1  0  0  0  0  0  0
  188.3430  177.2470  137.4460 C   0  0  2  0  0  3  0  0  0  0  0  0
  186.7500  176.8950  135.9920 N   0  0  0  0  0  2  0  0  0  0  0  0
  190.6030  176.5080  137.5450 C   0  0  1  0  0  3  0  0  0  0  0  0
  191.8010  175.2420  135.1840 N   0  0  0  0  0  2  0  0  0  0  0  0
  193.2290  175.3520  135.1360 C   0  0  0  0  0  0  0  0  0  0  0  0
  193.7300  176.3710  134.5930 O   0  0  0  0  0  0  0  0  0  0  0  0
  194.1440  174.3130  135.6550 C   0  0  0  0  0  0  0  0  0  0  0  0
  194.3070  173.1660  135.0020 C   0  0  0  0  0  2  0  0  0  0  0  0
  194.7820  174.5640  136.8830 O   0  0  0  0  0  0  0  0  0  0  0  0
  196.8820  174.3640  138.1880 N   0  0  0  0  0  2  0  0  0  0  0  0
  196.1310  174.8920  137.0880 C   0  0  0  0  0  0  0  0  0  0  0  0
  196.6900  175.6710  136.2720 O   0  0  0  0  0  0  0  0  0  0  0  0
  198.2900  174.6620  138.3990 C   0  0  0  0  0  2  0  0  0  0  0  0
  197.2240  175.2380  140.5620 C   0  0  0  0  0  1  0  0  0  0  0  0
  198.4790  175.3780  139.7250 C   0  0  0  0  0  2  0  0  0  0  0  0
  191.3340  176.1970  138.8570 C   0  0  1  0  0  3  0  0  0  0  0  0
  192.6960  176.1300  138.6110 F   0  0  0  0  0  0  0  0  0  0  0  0
  192.1010  177.8120  141.8850 O   0  0  0  0  0  0  0  0  0  0  0  0
  191.0710  177.2680  139.9230 C   0  0  1  0  0  3  0  0  0  0  0  0
  190.2160  176.7310  141.0330 C   0  0  1  0  0  3  0  0  0  0  0  0
  191.1400  176.8480  142.2100 C   0  0  0  0  0  2  0  0  0  0  0  0
  192.3250  177.6680  140.5480 N   0  0  0  0  0  2  0  0  0  0  0  0
  189.0150  177.6460  141.2140 C   0  0  0  0  0  2  0  0  0  0  0  0
  188.9360  178.1420  142.6480 C   0  0  0  0  0  2  0  0  0  0  0  0
  187.8670  175.8020  143.3480 O   0  0  0  0  0  0  0  0  0  0  0  0
  186.3130  177.6680  142.9790 O   0  0  0  0  0  0  0  0  0  0  0  0
  187.6540  177.2780  143.5280 S   0  0  0  0  0  0  0  0  0  0  0  0
  188.8690  177.3780  146.0240 C   0  0  0  0  0  0  0  0  0  0  0  0
  187.7320  177.6790  145.2130 N   0  0  0  0  0  2  0  0  0  0  0  0
  188.8230  177.6370  147.3890 O   0  0  0  0  0  1  0  0  0  0  0  0
  189.9110  176.8740  145.5150 O   0  0  0  0  0  0  0  0  0  0  0  0
  2  4  1  0  0  0  0
  2 13  1  0  0  0  0
  4  1  1  6  0  0  0
  4 11  1  0  0  0  0
  6  9  1  0  0  0  0
  7 11  1  0  0  0  0
  8  1  2  0  0  0  0
  9  5  2  0  0  0  0
  9  2  1  0  0  0  0
 10  7  1  0  0  0  0
 11  3  1  6  0  0  0
 12  1  1  0  0  0  0
 12  7  1  0  0  0  0
 13  3  1  0  0  0  0
 13 26  1  1  0  0  0
 14  6  1  0  0  0  0
 15 14  1  0  0  0  0
 15 17  1  0  0  0  0
 16 15  2  0  0  0  0
 17 19  1  0  0  0  0
 18 17  2  0  0  0  0
 19 21  1  0  0  0  0
 20 23  1  0  0  0  0
 21 20  1  0  0  0  0
 22 21  2  0  0  0  0
 23 25  1  0  0  0  0
 25 24  1  0  0  0  0
 26 27  1  6  0  0  0
 28 31  1  0  0  0  0
 29 26  1  6  0  0  0
 29 32  1  0  0  0  0
 29 30  1  0  0  0  0
 30 33  1  1  0  0  0
 30 31  1  0  0  0  0
 32 28  1  0  0  0  0
 33 34  1  0  0  0  0
 34 37  1  0  0  0  0
 35 37  2  0  0  0  0
 36 37  2  0  0  0  0
 37 39  1  0  0  0  0
 38 40  1  0  0  0  0
 39 38  1  0  0  0  0
 41 38  2  0  0  0  0
M  END
>  <MODEL>
5

>  <REMARK>
 VINA RESULT:      -6.5      2.894      8.120
  Name = 
  12 active torsions:
  status: ('A' for Active; 'I' for Inactive)
    1  A    between atoms: C_1  and  N_29
    2  A    between atoms: C_1  and  C_38
    3  A    between atoms: N_2  and  N_15
    4  A    between atoms: O_3  and  C_12
    5  A    between atoms: O_3  and  C_31
    6  A    between atoms: C_12  and  C_27
    7  A    between atoms: N_13  and  S_33
    8  A    between atoms: C_14  and  C_24
    9  A    between atoms: C_17  and  C_34
   10  A    between atoms: C_19  and  S_33
   11  A    between atoms: C_19  and  C_34
   12  A    between atoms: C_24  and  C_37
                            x       y       z     vdW  Elec       q    Type
                         _______ _______ _______ _____ _____    ______ ____

>  <TORSDO>
F 12

$$$$
=
 OpenBabel10232410173D

 41 43  0  0  1  0  0  0  0  0999 V2000
  185.2320  176.9300  137.4740 C   0  0  0  0  0  0  0  0  0  0  0  0
  187.6590  177.2130  136.8670 N   0  0  0  0  0  0  0  0  0  0  0  0
  187.7680  174.8260  136.5440 C   0  0  0  0  0  2  0  0  0  0  0  0
  186.3560  176.6830  136.7090 C   0  0  1  0  0  3  0  0  0  0  0  0
  187.3540  179.5160  136.9780 O   0  0  0  0  0  0  0  0  0  0  0  0
  188.8560  178.6520  138.5160 N   0  0  0  0  0  2  0  0  0  0  0  0
  185.3060  174.8110  137.1700 N   0  0  0  0  0  0  0  0  0  0  0  0
  184.8970  178.0420  137.9650 O   0  0  0  0  0  0  0  0  0  0  0  0
  187.9440  178.5010  137.4280 C   0  0  0  0  0  0  0  0  0  0  0  0
  185.0720  173.3950  137.4040 C   0  0  0  0  0  1  0  0  0  0  0  0
  186.3750  175.3470  136.5490 C   0  0  2  0  0  3  0  0  0  0  0  0
  184.5860  175.7750  137.7300 N   0  0  0  0  0  2  0  0  0  0  0  0
  188.6220  176.1110  136.7260 C   0  0  1  0  0  3  0  0  0  0  0  0
  189.4600  177.5510  139.1420 N   0  0  0  0  0  2  0  0  0  0  0  0
  189.3130  177.2580  140.5370 C   0  0  0  0  0  0  0  0  0  0  0  0
  189.7920  176.1790  140.9720 O   0  0  0  0  0  0  0  0  0  0  0  0
  188.5950  178.1390  141.4830 C   0  0  0  0  0  0  0  0  0  0  0  0
  187.4540  178.7250  141.1310 C   0  0  0  0  0  2  0  0  0  0  0  0
  189.1930  178.3710  142.7350 O   0  0  0  0  0  0  0  0  0  0  0  0
  189.5590  178.0640  145.1690 N   0  0  0  0  0  2  0  0  0  0  0  0
  188.9760  177.6590  143.9250 C   0  0  0  0  0  0  0  0  0  0  0  0
  188.2420  176.6360  143.8870 O   0  0  0  0  0  0  0  0  0  0  0  0
  189.3190  177.3620  146.4200 C   0  0  0  0  0  2  0  0  0  0  0  0
  188.3240  178.0330  148.5890 C   0  0  0  0  0  1  0  0  0  0  0  0
  188.0780  177.9150  147.0990 C   0  0  0  0  0  2  0  0  0  0  0  0
  189.5340  176.3410  135.5150 C   0  0  1  0  0  3  0  0  0  0  0  0
  189.6920  177.7050  135.3210 F   0  0  0  0  0  0  0  0  0  0  0  0
  191.7490  173.6200  135.2930 O   0  0  0  0  0  0  0  0  0  0  0  0
  190.9130  175.7020  135.7110 C   0  0  1  0  0  3  0  0  0  0  0  0
  190.9990  174.9880  137.0280 C   0  0  1  0  0  3  0  0  0  0  0  0
  191.2280  173.5710  136.5910 C   0  0  0  0  0  2  0  0  0  0  0  0
  191.1390  174.6820  134.6950 N   0  0  0  0  0  2  0  0  0  0  0  0
  192.2100  175.5060  137.7900 C   0  0  0  0  0  2  0  0  0  0  0  0
  193.3070  175.9210  136.8240 C   0  0  0  0  0  2  0  0  0  0  0  0
  194.5970  173.5900  136.9130 O   0  0  0  0  0  0  0  0  0  0  0  0
  195.1660  175.2420  138.6390 O   0  0  0  0  0  0  0  0  0  0  0  0
  194.8130  175.0500  137.1930 S   0  0  0  0  0  0  0  0  0  0  0  0
  197.4100  175.0970  136.2110 C   0  0  0  0  0  0  0  0  0  0  0  0
  196.0950  175.6540  136.1950 N   0  0  0  0  0  2  0  0  0  0  0  0
  198.4160  175.6950  135.4600 O   0  0  0  0  0  0  0  0  0  0  0  0
  197.6700  174.0720  136.9050 O   0  0  0  0  0  1  0  0  0  0  0  0
  1 12  1  0  0  0  0
  1  8  2  0  0  0  0
  2  9  1  0  0  0  0
  3 13  1  0  0  0  0
  4  2  1  0  0  0  0
  4  1  1  1  0  0  0
  5  9  2  0  0  0  0
  6 14  1  0  0  0  0
  7 10  1  0  0  0  0
  7 12  1  0  0  0  0
  9  6  1  0  0  0  0
 11  3  1  1  0  0  0
 11  4  1  0  0  0  0
 11  7  1  0  0  0  0
 13 26  1  6  0  0  0
 13  2  1  0  0  0  0
 14 15  1  0  0  0  0
 15 16  2  0  0  0  0
 15 17  1  0  0  0  0
 17 19  1  0  0  0  0
 18 17  2  0  0  0  0
 19 21  1  0  0  0  0
 20 23  1  0  0  0  0
 21 20  1  0  0  0  0
 22 21  2  0  0  0  0
 23 25  1  0  0  0  0
 25 24  1  0  0  0  0
 26 27  1  1  0  0  0
 28 31  1  0  0  0  0
 29 26  1  6  0  0  0
 29 30  1  0  0  0  0
 30 33  1  1  0  0  0
 31 30  1  0  0  0  0
 32 28  1  0  0  0  0
 32 29  1  0  0  0  0
 34 37  1  0  0  0  0
 34 33  1  0  0  0  0
 35 37  2  0  0  0  0
 37 36  2  0  0  0  0
 38 41  1  0  0  0  0
 39 38  1  0  0  0  0
 39 37  1  0  0  0  0
 40 38  2  0  0  0  0
M  END
>  <MODEL>
6

>  <REMARK>
 VINA RESULT:      -6.5      1.967      2.401
  Name = 
  12 active torsions:
  status: ('A' for Active; 'I' for Inactive)
    1  A    between atoms: C_1  and  N_29
    2  A    between atoms: C_1  and  C_38
    3  A    between atoms: N_2  and  N_15
    4  A    between atoms: O_3  and  C_12
    5  A    between atoms: O_3  and  C_31
    6  A    between atoms: C_12  and  C_27
    7  A    between atoms: N_13  and  S_33
    8  A    between atoms: C_14  and  C_24
    9  A    between atoms: C_17  and  C_34
   10  A    between atoms: C_19  and  S_33
   11  A    between atoms: C_19  and  C_34
   12  A    between atoms: C_24  and  C_37
                            x       y       z     vdW  Elec       q    Type
                         _______ _______ _______ _____ _____    ______ ____

>  <TORSDO>
F 12

$$$$
=
 OpenBabel10232410173D

 41 43  0  0  1  0  0  0  0  0999 V2000
  191.0320  176.9020  137.8820 C   0  0  0  0  0  0  0  0  0  0  0  0
  188.5760  177.1000  137.3620 N   0  0  0  0  0  0  0  0  0  0  0  0
  188.2130  177.6190  139.6890 C   0  0  0  0  0  2  0  0  0  0  0  0
  189.7910  177.5040  137.9660 C   0  0  1  0  0  3  0  0  0  0  0  0
  189.0940  176.8270  135.1110 O   0  0  0  0  0  0  0  0  0  0  0  0
  187.7630  175.1620  136.0170 N   0  0  0  0  0  2  0  0  0  0  0  0
  190.7290  177.3830  139.9470 N   0  0  0  0  0  0  0  0  0  0  0  0
  191.5310  176.3690  136.8540 O   0  0  0  0  0  0  0  0  0  0  0  0
  188.4900  176.3870  136.1220 C   0  0  0  0  0  0  0  0  0  0  0  0
  190.8700  177.3180  141.3930 C   0  0  0  0  0  1  0  0  0  0  0  0
  189.6320  177.7800  139.2730 C   0  0  2  0  0  3  0  0  0  0  0  0
  191.6040  176.8540  139.1010 N   0  0  0  0  0  2  0  0  0  0  0  0
  187.5110  177.1910  138.3710 C   0  0  1  0  0  3  0  0  0  0  0  0
  187.1630  174.5540  137.1300 N   0  0  0  0  0  2  0  0  0  0  0  0
  185.9520  173.7910  137.0560 C   0  0  0  0  0  0  0  0  0  0  0  0
  185.5660  173.1830  138.0880 O   0  0  0  0  0  0  0  0  0  0  0  0
  185.1530  173.6490  135.8190 C   0  0  0  0  0  0  0  0  0  0  0  0
  185.3850  172.6480  134.9740 C   0  0  0  0  0  2  0  0  0  0  0  0
  184.1900  174.6390  135.5520 O   0  0  0  0  0  0  0  0  0  0  0  0
  182.4160  174.4470  137.2750 N   0  0  0  0  0  2  0  0  0  0  0  0
  182.8350  174.6250  135.9160 C   0  0  0  0  0  0  0  0  0  0  0  0
  181.9690  174.7770  135.0140 O   0  0  0  0  0  0  0  0  0  0  0  0
  181.0190  174.4650  137.6800 C   0  0  0  0  0  2  0  0  0  0  0  0
  181.8640  175.7840  139.6010 C   0  0  0  0  0  1  0  0  0  0  0  0
  180.7520  175.6590  138.5800 C   0  0  0  0  0  2  0  0  0  0  0  0
  186.4550  178.2220  137.9500 C   0  0  1  0  0  3  0  0  0  0  0  0
  186.2380  178.1150  136.5850 F   0  0  0  0  0  0  0  0  0  0  0  0
  182.9960  178.7350  138.3130 O   0  0  0  0  0  0  0  0  0  0  0  0
  185.1270  178.0090  138.6860 C   0  0  1  0  0  3  0  0  0  0  0  0
  184.8630  179.1200  139.6600 C   0  0  1  0  0  3  0  0  0  0  0  0
  183.6030  179.7170  139.1040 C   0  0  0  0  0  2  0  0  0  0  0  0
  184.0210  178.0450  137.7390 N   0  0  0  0  0  2  0  0  0  0  0  0
  184.5980  178.5170  141.0320 C   0  0  0  0  0  2  0  0  0  0  0  0
  185.5740  179.0730  142.0540 C   0  0  0  0  0  2  0  0  0  0  0  0
  183.6760  178.0860  143.6450 O   0  0  0  0  0  0  0  0  0  0  0  0
  184.4290  180.3790  144.1030 O   0  0  0  0  0  0  0  0  0  0  0  0
  184.8640  179.0050  143.6830 S   0  0  0  0  0  0  0  0  0  0  0  0
  185.8190  178.3880  146.2170 C   0  0  0  0  0  0  0  0  0  0  0  0
  186.0380  178.3980  144.8060 N   0  0  0  0  0  2  0  0  0  0  0  0
  186.8430  177.9800  147.0650 O   0  0  0  0  0  1  0  0  0  0  0  0
  184.7090  178.7510  146.7020 O   0  0  0  0  0  0  0  0  0  0  0  0
  1 12  1  0  0  0  0
  2  4  1  0  0  0  0
  2 13  1  0  0  0  0
  4  1  1  1  0  0  0
  4 11  1  0  0  0  0
  5  9  2  0  0  0  0
  6  9  1  0  0  0  0
  6 14  1  0  0  0  0
  7 10  1  0  0  0  0
  8  1  2  0  0  0  0
  9  2  1  0  0  0  0
 11  3  1  1  0  0  0
 11  7  1  0  0  0  0
 12  7  1  0  0  0  0
 13 26  1  6  0  0  0
 13  3  1  0  0  0  0
 15 14  1  0  0  0  0
 15 16  2  0  0  0  0
 17 15  1  0  0  0  0
 18 17  2  0  0  0  0
 19 17  1  0  0  0  0
 19 21  1  0  0  0  0
 20 23  1  0  0  0  0
 21 20  1  0  0  0  0
 22 21  2  0  0  0  0
 23 25  1  0  0  0  0
 25 24  1  0  0  0  0
 26 27  1  6  0  0  0
 28 31  1  0  0  0  0
 29 26  1  6  0  0  0
 29 30  1  0  0  0  0
 30 33  1  1  0  0  0
 31 30  1  0  0  0  0
 32 28  1  0  0  0  0
 32 29  1  0  0  0  0
 33 34  1  0  0  0  0
 34 37  1  0  0  0  0
 35 37  2  0  0  0  0
 37 36  2  0  0  0  0
 37 39  1  0  0  0  0
 38 41  2  0  0  0  0
 38 40  1  0  0  0  0
 39 38  1  0  0  0  0
M  END
>  <MODEL>
7

>  <REMARK>
 VINA RESULT:      -6.3      4.029      9.449
  Name = 
  12 active torsions:
  status: ('A' for Active; 'I' for Inactive)
    1  A    between atoms: C_1  and  N_29
    2  A    between atoms: C_1  and  C_38
    3  A    between atoms: N_2  and  N_15
    4  A    between atoms: O_3  and  C_12
    5  A    between atoms: O_3  and  C_31
    6  A    between atoms: C_12  and  C_27
    7  A    between atoms: N_13  and  S_33
    8  A    between atoms: C_14  and  C_24
    9  A    between atoms: C_17  and  C_34
   10  A    between atoms: C_19  and  S_33
   11  A    between atoms: C_19  and  C_34
   12  A    between atoms: C_24  and  C_37
                            x       y       z     vdW  Elec       q    Type
                         _______ _______ _______ _____ _____    ______ ____

>  <TORSDO>
F 12

$$$$
=
 OpenBabel10232410173D

 41 43  0  0  1  0  0  0  0  0999 V2000
  182.2830  177.1100  138.4710 C   0  0  0  0  0  0  0  0  0  0  0  0
  184.5100  178.2850  138.4140 N   0  0  0  0  0  0  0  0  0  0  0  0
  185.4980  176.1950  137.7280 C   0  0  0  0  0  2  0  0  0  0  0  0
  183.5110  177.4140  137.9150 C   0  0  1  0  0  3  0  0  0  0  0  0
  183.3960  180.2820  138.8420 O   0  0  0  0  0  0  0  0  0  0  0  0
  184.8930  179.6240  140.4830 N   0  0  0  0  0  2  0  0  0  0  0  0
  183.1430  175.2520  137.8400 N   0  0  0  0  0  0  0  0  0  0  0  0
  181.5150  177.9160  139.0620 O   0  0  0  0  0  0  0  0  0  0  0  0
  184.2440  179.4360  139.2250 C   0  0  0  0  0  0  0  0  0  0  0  0
  183.3970  173.8210  137.7860 C   0  0  0  0  0  1  0  0  0  0  0  0
  184.0220  176.2270  137.5430 C   0  0  2  0  0  3  0  0  0  0  0  0
  182.0610  175.7830  138.3980 N   0  0  0  0  0  2  0  0  0  0  0  0
  185.8100  177.6110  138.2870 C   0  0  1  0  0  3  0  0  0  0  0  0
  185.7610  178.6650  141.0260 N   0  0  0  0  0  2  0  0  0  0  0  0
  185.7010  178.2270  142.3890 C   0  0  0  0  0  0  0  0  0  0  0  0
  186.4420  177.2720  142.7410 O   0  0  0  0  0  0  0  0  0  0  0  0
  184.7880  178.8130  143.3930 C   0  0  0  0  0  0  0  0  0  0  0  0
  183.4710  178.7950  143.2030 C   0  0  0  0  0  2  0  0  0  0  0  0
  185.3670  179.4320  144.5160 O   0  0  0  0  0  0  0  0  0  0  0  0
  186.9170  178.2850  146.0750 N   0  0  0  0  0  2  0  0  0  0  0  0
  185.6370  178.8470  145.7620 C   0  0  0  0  0  0  0  0  0  0  0  0
  184.7210  178.8230  146.6260 O   0  0  0  0  0  0  0  0  0  0  0  0
  187.2310  177.7050  147.3720 C   0  0  0  0  0  2  0  0  0  0  0  0
  189.5660  176.8810  147.2670 C   0  0  0  0  0  1  0  0  0  0  0  0
  188.6720  178.0070  147.7440 C   0  0  0  0  0  2  0  0  0  0  0  0
  186.7300  178.3870  137.3370 C   0  0  1  0  0  3  0  0  0  0  0  0
  186.4320  179.7380  137.4210 F   0  0  0  0  0  0  0  0  0  0  0  0
  190.1100  178.0650  136.4240 O   0  0  0  0  0  0  0  0  0  0  0  0
  188.2100  178.1800  137.6810 C   0  0  1  0  0  3  0  0  0  0  0  0
  188.5900  176.7310  137.5890 C   0  0  1  0  0  3  0  0  0  0  0  0
  189.6180  176.7570  136.4950 C   0  0  0  0  0  2  0  0  0  0  0  0
  189.0490  178.8700  136.7120 N   0  0  0  0  0  2  0  0  0  0  0  0
  189.2320  176.3070  138.9020 C   0  0  0  0  0  2  0  0  0  0  0  0
  189.1120  177.4150  139.9330 C   0  0  0  0  0  2  0  0  0  0  0  0
  191.6940  177.6280  140.5620 O   0  0  0  0  0  0  0  0  0  0  0  0
  190.4340  175.8170  141.6400 O   0  0  0  0  0  0  0  0  0  0  0  0
  190.3770  177.2420  141.1720 S   0  0  0  0  0  0  0  0  0  0  0  0
  190.8700  178.3670  143.6630 C   0  0  0  0  0  0  0  0  0  0  0  0
  190.0260  178.2830  142.5130 N   0  0  0  0  0  2  0  0  0  0  0  0
  190.4750  179.1460  144.7450 O   0  0  0  0  0  1  0  0  0  0  0  0
  191.9650  177.7370  143.7090 O   0  0  0  0  0  0  0  0  0  0  0  0
  1  8  2  0  0  0  0
  2  9  1  0  0  0  0
  3 13  1  0  0  0  0
  4  2  1  0  0  0  0
  4  1  1  1  0  0  0
  5  9  2  0  0  0  0
  6 14  1  0  0  0  0
  7 12  1  0  0  0  0
  9  6  1  0  0  0  0
 10  7  1  0  0  0  0
 11  3  1  1  0  0  0
 11  7  1  0  0  0  0
 11  4  1  0  0  0  0
 12  1  1  0  0  0  0
 13 26  1  6  0  0  0
 13  2  1  0  0  0  0
 14 15  1  0  0  0  0
 15 16  2  0  0  0  0
 15 17  1  0  0  0  0
 17 19  1  0  0  0  0
 18 17  2  0  0  0  0
 19 21  1  0  0  0  0
 20 23  1  0  0  0  0
 21 20  1  0  0  0  0
 21 22  2  0  0  0  0
 23 25  1  0  0  0  0
 24 25  1  0  0  0  0
 26 27  1  1  0  0  0
 28 31  1  0  0  0  0
 28 32  1  0  0  0  0
 29 26  1  6  0  0  0
 30 29  1  0  0  0  0
 30 33  1  1  0  0  0
 31 30  1  0  0  0  0
 32 29  1  0  0  0  0
 33 34  1  0  0  0  0
 34 37  1  0  0  0  0
 35 37  2  0  0  0  0
 37 36  2  0  0  0  0
 37 39  1  0  0  0  0
 38 41  2  0  0  0  0
 38 40  1  0  0  0  0
 39 38  1  0  0  0  0
M  END
>  <MODEL>
8

>  <REMARK>
 VINA RESULT:      -6.2      3.912      5.229
  Name = 
  12 active torsions:
  status: ('A' for Active; 'I' for Inactive)
    1  A    between atoms: C_1  and  N_29
    2  A    between atoms: C_1  and  C_38
    3  A    between atoms: N_2  and  N_15
    4  A    between atoms: O_3  and  C_12
    5  A    between atoms: O_3  and  C_31
    6  A    between atoms: C_12  and  C_27
    7  A    between atoms: N_13  and  S_33
    8  A    between atoms: C_14  and  C_24
    9  A    between atoms: C_17  and  C_34
   10  A    between atoms: C_19  and  S_33
   11  A    between atoms: C_19  and  C_34
   12  A    between atoms: C_24  and  C_37
                            x       y       z     vdW  Elec       q    Type
                         _______ _______ _______ _____ _____    ______ ____

>  <TORSDO>
F 12

$$$$
=
 OpenBabel10232410173D

 41 43  0  0  1  0  0  0  0  0999 V2000
  181.2190  178.7930  136.3620 C   0  0  0  0  0  0  0  0  0  0  0  0
  182.6670  178.1120  138.3080 N   0  0  0  0  0  0  0  0  0  0  0  0
  182.3760  180.3370  139.1920 C   0  0  0  0  0  2  0  0  0  0  0  0
  181.5470  178.7340  137.7030 C   0  0  1  0  0  3  0  0  0  0  0  0
  182.6660  175.9430  137.4690 O   0  0  0  0  0  0  0  0  0  0  0  0
  184.7450  176.9620  137.5460 N   0  0  0  0  0  2  0  0  0  0  0  0
  180.9330  180.7660  137.1460 N   0  0  0  0  0  0  0  0  0  0  0  0
  181.3640  177.8660  135.5210 O   0  0  0  0  0  0  0  0  0  0  0  0
  183.3350  176.9630  137.7750 C   0  0  0  0  0  0  0  0  0  0  0  0
  180.8140  182.2150  137.1700 C   0  0  0  0  0  1  0  0  0  0  0  0
  181.3660  179.9880  138.1560 C   0  0  2  0  0  3  0  0  0  0  0  0
  180.8240  180.0400  136.0400 N   0  0  0  0  0  2  0  0  0  0  0  0
  183.2240  179.0410  139.3020 C   0  0  1  0  0  3  0  0  0  0  0  0
  185.5350  178.1020  137.7560 N   0  0  0  0  0  2  0  0  0  0  0  0
  186.8220  178.2920  137.1550 C   0  0  0  0  0  0  0  0  0  0  0  0
  187.3930  179.4030  137.3060 O   0  0  0  0  0  0  0  0  0  0  0  0
  187.4980  177.2630  136.3340 C   0  0  0  0  0  0  0  0  0  0  0  0
  187.7000  177.4600  135.0340 C   0  0  0  0  0  2  0  0  0  0  0  0
  187.8610  176.0620  136.9690 O   0  0  0  0  0  0  0  0  0  0  0  0
  189.9560  174.7450  136.7970 N   0  0  0  0  0  2  0  0  0  0  0  0
  189.1280  175.7090  137.4580 C   0  0  0  0  0  0  0  0  0  0  0  0
  189.5420  176.2660  138.5100 O   0  0  0  0  0  0  0  0  0  0  0  0
  191.2870  174.3910  137.2660 C   0  0  0  0  0  2  0  0  0  0  0  0
  192.7890  176.1930  136.4660 C   0  0  0  0  0  1  0  0  0  0  0  0
  192.3260  174.7710  136.2260 C   0  0  0  0  0  2  0  0  0  0  0  0
  183.1320  178.4410  140.7110 C   0  0  1  0  0  3  0  0  0  0  0  0
  183.3910  177.0810  140.6420 F   0  0  0  0  0  0  0  0  0  0  0  0
  186.4100  179.0640  141.8210 O   0  0  0  0  0  0  0  0  0  0  0  0
  184.1330  179.0910  141.6730 C   0  0  1  0  0  3  0  0  0  0  0  0
  184.4910  178.1600  142.7950 C   0  0  1  0  0  3  0  0  0  0  0  0
  185.9630  177.9710  142.5740 C   0  0  0  0  0  2  0  0  0  0  0  0
  185.3830  179.3710  140.9800 N   0  0  0  0  0  2  0  0  0  0  0  0
  184.2450  178.8680  144.1190 C   0  0  0  0  0  2  0  0  0  0  0  0
  185.5550  179.3620  144.7080 C   0  0  0  0  0  2  0  0  0  0  0  0
  184.7280  177.6320  146.5600 O   0  0  0  0  0  0  0  0  0  0  0  0
  185.8720  179.6530  147.3600 O   0  0  0  0  0  0  0  0  0  0  0  0
  185.8440  178.6000  146.2900 S   0  0  0  0  0  0  0  0  0  0  0  0
  188.0200  177.3270  147.4540 C   0  0  0  0  0  0  0  0  0  0  0  0
  187.3570  177.7560  146.2630 N   0  0  0  0  0  2  0  0  0  0  0  0
  189.2800  176.7450  147.3630 O   0  0  0  0  0  0  0  0  0  0  0  0
  187.4780  177.4780  148.5860 O   0  0  0  0  0  1  0  0  0  0  0  0
  2 13  1  0  0  0  0
  3 13  1  0  0  0  0
  4  1  1  6  0  0  0
  4 11  1  0  0  0  0
  4  2  1  0  0  0  0
  5  9  2  0  0  0  0
  6 14  1  0  0  0  0
  6  9  1  0  0  0  0
  7 10  1  0  0  0  0
  7 11  1  0  0  0  0
  8  1  2  0  0  0  0
  9  2  1  0  0  0  0
 11  3  1  6  0  0  0
 12  1  1  0  0  0  0
 12  7  1  0  0  0  0
 13 26  1  1  0  0  0
 15 16  2  0  0  0  0
 15 14  1  0  0  0  0
 17 19  1  0  0  0  0
 17 15  1  0  0  0  0
 18 17  2  0  0  0  0
 19 21  1  0  0  0  0
 20 23  1  0  0  0  0
 20 21  1  0  0  0  0
 21 22  2  0  0  0  0
 25 24  1  0  0  0  0
 25 23  1  0  0  0  0
 26 27  1  6  0  0  0
 28 31  1  0  0  0  0
 29 26  1  6  0  0  0
 29 30  1  0  0  0  0
 30 33  1  1  0  0  0
 31 30  1  0  0  0  0
 32 29  1  0  0  0  0
 32 28  1  0  0  0  0
 33 34  1  0  0  0  0
 34 37  1  0  0  0  0
 37 35  2  0  0  0  0
 37 36  2  0  0  0  0
 38 41  1  0  0  0  0
 39 37  1  0  0  0  0
 39 38  1  0  0  0  0
 40 38  2  0  0  0  0
M  END
>  <MODEL>
9

>  <REMARK>
 VINA RESULT:      -6.1      4.485      9.587
  Name = 
  12 active torsions:
  status: ('A' for Active; 'I' for Inactive)
    1  A    between atoms: C_1  and  N_29
    2  A    between atoms: C_1  and  C_38
    3  A    between atoms: N_2  and  N_15
    4  A    between atoms: O_3  and  C_12
    5  A    between atoms: O_3  and  C_31
    6  A    between atoms: C_12  and  C_27
    7  A    between atoms: N_13  and  S_33
    8  A    between atoms: C_14  and  C_24
    9  A    between atoms: C_17  and  C_34
   10  A    between atoms: C_19  and  S_33
   11  A    between atoms: C_19  and  C_34
   12  A    between atoms: C_24  and  C_37
                            x       y       z     vdW  Elec       q    Type
                         _______ _______ _______ _____ _____    ______ ____

>  <TORSDO>
F 12

$$$$
