=
 OpenBabel10232408513D

 25 27  0  0  1  0  0  0  0  0999 V2000
  190.5550  176.3120  136.7650 S   0  0  0  0  0  0  0  0  0  0  0  0
  190.5930  177.0290  139.3010 N   0  0  0  0  0  0  0  0  0  0  0  0
  189.5460  177.7330  138.6970 C   0  0  0  0  0  0  0  0  0  0  0  0
  189.2500  177.9240  140.9510 C   0  0  0  0  0  0  0  0  0  0  0  0
  189.3400  177.4680  137.4190 C   0  0  2  0  0  3  0  0  0  0  0  0
  191.1550  175.9830  138.4710 C   0  0  0  0  0  2  0  0  0  0  0  0
  190.4210  177.0020  140.7370 C   0  0  0  0  0  3  0  0  0  0  0  0
  188.7250  178.2160  142.1040 N   0  0  0  0  0  2  0  0  0  0  0  0
  188.6430  178.3980  139.6670 C   0  0  0  0  0  3  0  0  0  0  0  0
  187.0040  177.3120  137.1430 F   0  0  0  0  0  0  0  0  0  0  0  0
  188.1380  177.9280  136.6460 C   0  0  0  0  0  0  0  0  0  0  0  0
  187.9900  179.2980  136.7620 F   0  0  0  0  0  0  0  0  0  0  0  0
  188.2870  177.6060  135.3100 F   0  0  0  0  0  0  0  0  0  0  0  0
  189.2320  177.8130  143.3560 N   0  0  0  0  0  0  0  0  0  0  0  0
  188.4740  176.8560  144.1440 C   0  0  0  0  0  2  0  0  0  0  0  0
  187.3260  177.5590  144.8460 C   0  0  0  0  0  2  0  0  0  0  0  0
  187.4190  178.2470  148.3750 N   0  0  0  0  0  0  0  0  0  0  0  0
  188.6900  177.1250  146.9030 N   0  0  0  0  0  0  0  0  0  0  0  0
  187.6350  177.7020  146.2960 C   0  0  0  0  0  0  0  0  0  0  0  0
  188.5260  177.4900  148.2000 C   0  0  0  0  0  3  0  0  0  0  0  0
  185.6980  179.0620  146.9100 N   0  0  0  0  0  1  0  0  0  0  0  0
  186.8790  178.3630  147.1790 N   0  0  0  0  0  0  0  0  0  0  0  0
  190.3810  178.4530  143.9890 C   0  0  0  0  0  2  0  0  0  0  0  0
  191.4430  177.4180  144.3100 C   0  0  0  0  0  2  0  0  0  0  0  0
  191.7030  177.4330  145.6660 F   0  0  0  0  0  0  0  0  0  0  0  0
  1  5  1  0  0  0  0
  1  6  1  0  0  0  0
  2  7  1  0  0  0  0
  3  2  1  0  0  0  0
  3  9  2  0  0  0  0
  4  8  1  0  0  0  0
  5 11  1  1  0  0  0
  5  3  1  0  0  0  0
  6  2  1  0  0  0  0
  7  4  2  0  0  0  0
  8 14  1  0  0  0  0
  9  4  1  0  0  0  0
 11 12  1  0  0  0  0
 11 10  1  0  0  0  0
 13 11  1  0  0  0  0
 14 23  1  0  0  0  0
 14 15  1  0  0  0  0
 15 16  1  0  0  0  0
 16 19  1  0  0  0  0
 18 20  1  0  0  0  0
 19 18  2  0  0  0  0
 19 22  1  0  0  0  0
 20 17  2  0  0  0  0
 21 22  1  0  0  0  0
 22 17  1  0  0  0  0
 23 24  1  0  0  0  0
 24 25  1  0  0  0  0
M  END
>  <MODEL>
1

>  <REMARK>
 VINA RESULT:      -6.9      0.000      0.000
  Name = 
  7 active torsions:
  status: ('A' for Active; 'I' for Inactive)
    1  A    between atoms: C_6  and  C_10
    2  A    between atoms: C_6  and  C_14
    3  A    between atoms: C_8  and  C_11
    4  A    between atoms: C_14  and  N_23
    5  A    between atoms: C_16  and  C_18
    6  A    between atoms: C_18  and  N_23
    7  A    between atoms: N_21  and  N_23
                            x       y       z     vdW  Elec       q    Type
                         _______ _______ _______ _____ _____    ______ ____

>  <TORSDO>
F 7

$$$$
=
 OpenBabel10232408513D

 25 27  0  0  1  0  0  0  0  0999 V2000
  190.5420  176.2930  136.8570 S   0  0  0  0  0  0  0  0  0  0  0  0
  190.4800  176.9480  139.4090 N   0  0  0  0  0  0  0  0  0  0  0  0
  189.5420  177.7580  138.7600 C   0  0  0  0  0  0  0  0  0  0  0  0
  189.1200  177.9260  140.9950 C   0  0  0  0  0  0  0  0  0  0  0  0
  189.3960  177.5410  137.4650 C   0  0  2  0  0  3  0  0  0  0  0  0
  190.9980  175.8730  138.5870 C   0  0  0  0  0  2  0  0  0  0  0  0
  190.2140  176.9060  140.8300 C   0  0  0  0  0  3  0  0  0  0  0  0
  188.5500  178.2410  142.1220 N   0  0  0  0  0  2  0  0  0  0  0  0
  188.6430  178.4820  139.6900 C   0  0  0  0  0  3  0  0  0  0  0  0
  188.5230  177.8480  135.2970 F   0  0  0  0  0  0  0  0  0  0  0  0
  188.2930  178.1260  136.6320 C   0  0  0  0  0  0  0  0  0  0  0  0
  187.0760  177.5810  136.9990 F   0  0  0  0  0  0  0  0  0  0  0  0
  188.2420  179.4950  136.8130 F   0  0  0  0  0  0  0  0  0  0  0  0
  188.9360  177.7660  143.3920 N   0  0  0  0  0  0  0  0  0  0  0  0
  188.0060  176.9430  144.1450 C   0  0  0  0  0  2  0  0  0  0  0  0
  187.4750  177.7210  145.3340 C   0  0  0  0  0  2  0  0  0  0  0  0
  184.1700  179.1420  145.3290 N   0  0  0  0  0  0  0  0  0  0  0  0
  185.4610  178.0230  143.8730 N   0  0  0  0  0  0  0  0  0  0  0  0
  186.0850  178.1810  145.0560 C   0  0  0  0  0  0  0  0  0  0  0  0
  184.2660  178.6310  144.0810 C   0  0  0  0  0  3  0  0  0  0  0  0
  185.6420  179.2160  147.2270 N   0  0  0  0  0  1  0  0  0  0  0  0
  185.3130  178.8530  145.9170 N   0  0  0  0  0  0  0  0  0  0  0  0
  190.1460  178.2170  144.0710 C   0  0  0  0  0  2  0  0  0  0  0  0
  191.0130  177.0270  144.4380 C   0  0  0  0  0  2  0  0  0  0  0  0
  191.6990  177.3010  145.6060 F   0  0  0  0  0  0  0  0  0  0  0  0
  1  5  1  0  0  0  0
  1  6  1  0  0  0  0
  2  7  1  0  0  0  0
  3  2  1  0  0  0  0
  3  9  2  0  0  0  0
  4  8  1  0  0  0  0
  5 11  1  1  0  0  0
  5  3  1  0  0  0  0
  6  2  1  0  0  0  0
  7  4  2  0  0  0  0
  8 14  1  0  0  0  0
  9  4  1  0  0  0  0
 10 11  1  0  0  0  0
 11 13  1  0  0  0  0
 11 12  1  0  0  0  0
 14 23  1  0  0  0  0
 14 15  1  0  0  0  0
 15 16  1  0  0  0  0
 17 22  1  0  0  0  0
 18 20  1  0  0  0  0
 18 19  2  0  0  0  0
 19 16  1  0  0  0  0
 19 22  1  0  0  0  0
 20 17  2  0  0  0  0
 22 21  1  0  0  0  0
 23 24  1  0  0  0  0
 24 25  1  0  0  0  0
M  END
>  <MODEL>
2

>  <REMARK>
 VINA RESULT:      -6.9      1.142      2.031
  Name = 
  7 active torsions:
  status: ('A' for Active; 'I' for Inactive)
    1  A    between atoms: C_6  and  C_10
    2  A    between atoms: C_6  and  C_14
    3  A    between atoms: C_8  and  C_11
    4  A    between atoms: C_14  and  N_23
    5  A    between atoms: C_16  and  C_18
    6  A    between atoms: C_18  and  N_23
    7  A    between atoms: N_21  and  N_23
                            x       y       z     vdW  Elec       q    Type
                         _______ _______ _______ _____ _____    ______ ____

>  <TORSDO>
F 7

$$$$
=
 OpenBabel10232408513D

 25 27  0  0  1  0  0  0  0  0999 V2000
  185.3890  178.7220  147.0590 S   0  0  0  0  0  0  0  0  0  0  0  0
  187.2350  177.5510  145.5870 N   0  0  0  0  0  0  0  0  0  0  0  0
  186.1560  177.8280  144.7400 C   0  0  0  0  0  0  0  0  0  0  0  0
  187.9310  177.3240  143.3990 C   0  0  0  0  0  0  0  0  0  0  0  0
  185.1400  178.4620  145.2960 C   0  0  2  0  0  3  0  0  0  0  0  0
  187.1370  178.1790  146.8880 C   0  0  0  0  0  2  0  0  0  0  0  0
  188.4390  177.3300  144.8150 C   0  0  0  0  0  3  0  0  0  0  0  0
  188.6660  177.1540  142.3380 N   0  0  0  0  0  2  0  0  0  0  0  0
  186.4760  177.6610  143.3020 C   0  0  0  0  0  3  0  0  0  0  0  0
  183.6210  178.1960  143.5110 F   0  0  0  0  0  0  0  0  0  0  0  0
  183.9960  179.0580  144.5270 C   0  0  0  0  0  0  0  0  0  0  0  0
  182.9140  179.2630  145.3620 F   0  0  0  0  0  0  0  0  0  0  0  0
  184.3770  180.2700  143.9820 F   0  0  0  0  0  0  0  0  0  0  0  0
  190.0390  176.8340  142.3400 N   0  0  0  0  0  0  0  0  0  0  0  0
  190.9540  177.6700  141.5830 C   0  0  0  0  0  2  0  0  0  0  0  0
  191.3980  176.9440  140.3270 C   0  0  0  0  0  2  0  0  0  0  0  0
  189.1110  176.6680  137.5640 N   0  0  0  0  0  0  0  0  0  0  0  0
  189.5640  178.1870  139.1550 N   0  0  0  0  0  0  0  0  0  0  0  0
  190.3750  177.1170  139.2570 C   0  0  0  0  0  0  0  0  0  0  0  0
  188.7910  177.8750  138.0840 C   0  0  0  0  0  3  0  0  0  0  0  0
  190.7200  174.9760  138.1270 N   0  0  0  0  0  1  0  0  0  0  0  0
  190.0960  176.2130  138.3110 N   0  0  0  0  0  0  0  0  0  0  0  0
  190.5620  175.5950  142.9050 C   0  0  0  0  0  2  0  0  0  0  0  0
  191.6180  175.9020  143.9500 C   0  0  0  0  0  2  0  0  0  0  0  0
  192.4520  174.8110  144.0960 F   0  0  0  0  0  0  0  0  0  0  0  0
  2  6  1  0  0  0  0
  3  5  1  0  0  0  0
  3  2  1  0  0  0  0
  4  7  2  0  0  0  0
  5 11  1  6  0  0  0
  5  1  1  0  0  0  0
  6  1  1  0  0  0  0
  7  2  1  0  0  0  0
  8 14  1  0  0  0  0
  8  4  1  0  0  0  0
  9  4  1  0  0  0  0
  9  3  2  0  0  0  0
 10 11  1  0  0  0  0
 11 12  1  0  0  0  0
 13 11  1  0  0  0  0
 14 23  1  0  0  0  0
 15 14  1  0  0  0  0
 16 15  1  0  0  0  0
 17 20  2  0  0  0  0
 17 22  1  0  0  0  0
 18 19  2  0  0  0  0
 19 16  1  0  0  0  0
 20 18  1  0  0  0  0
 21 22  1  0  0  0  0
 22 19  1  0  0  0  0
 23 24  1  0  0  0  0
 24 25  1  0  0  0  0
M  END
>  <MODEL>
3

>  <REMARK>
 VINA RESULT:      -6.8      4.062      7.539
  Name = 
  7 active torsions:
  status: ('A' for Active; 'I' for Inactive)
    1  A    between atoms: C_6  and  C_10
    2  A    between atoms: C_6  and  C_14
    3  A    between atoms: C_8  and  C_11
    4  A    between atoms: C_14  and  N_23
    5  A    between atoms: C_16  and  C_18
    6  A    between atoms: C_18  and  N_23
    7  A    between atoms: N_21  and  N_23
                            x       y       z     vdW  Elec       q    Type
                         _______ _______ _______ _____ _____    ______ ____

>  <TORSDO>
F 7

$$$$
=
 OpenBabel10232408513D

 25 27  0  0  1  0  0  0  0  0999 V2000
  190.2630  177.0030  146.3540 S   0  0  0  0  0  0  0  0  0  0  0  0
  188.1460  177.1300  144.7890 N   0  0  0  0  0  0  0  0  0  0  0  0
  187.7230  177.4910  146.0720 C   0  0  0  0  0  0  0  0  0  0  0  0
  186.0630  178.1110  144.6360 C   0  0  0  0  0  0  0  0  0  0  0  0
  188.6660  177.5300  146.9960 C   0  0  2  0  0  3  0  0  0  0  0  0
  189.5840  177.0450  144.6450 C   0  0  0  0  0  2  0  0  0  0  0  0
  187.1980  177.5900  143.7970 C   0  0  0  0  0  3  0  0  0  0  0  0
  184.9640  178.6320  144.1730 N   0  0  0  0  0  2  0  0  0  0  0  0
  186.3660  178.0880  146.1020 C   0  0  0  0  0  3  0  0  0  0  0  0
  187.7330  179.2740  148.2800 F   0  0  0  0  0  0  0  0  0  0  0  0
  188.4790  178.1120  148.3670 C   0  0  0  0  0  0  0  0  0  0  0  0
  187.8160  177.2140  149.1830 F   0  0  0  0  0  0  0  0  0  0  0  0
  189.7100  178.4000  148.9280 F   0  0  0  0  0  0  0  0  0  0  0  0
  184.6010  178.6940  142.8130 N   0  0  0  0  0  0  0  0  0  0  0  0
  185.5050  179.3350  141.8740 C   0  0  0  0  0  2  0  0  0  0  0  0
  185.2120  178.8550  140.4640 C   0  0  0  0  0  2  0  0  0  0  0  0
  187.8570  177.9110  138.2170 N   0  0  0  0  0  0  0  0  0  0  0  0
  187.6990  178.5660  140.3580 N   0  0  0  0  0  0  0  0  0  0  0  0
  186.4850  178.4910  139.7810 C   0  0  0  0  0  0  0  0  0  0  0  0
  188.5320  178.1920  139.3540 C   0  0  0  0  0  3  0  0  0  0  0  0
  185.5360  177.9430  137.5940 N   0  0  0  0  0  1  0  0  0  0  0  0
  186.5860  178.1070  138.5040 N   0  0  0  0  0  0  0  0  0  0  0  0
  183.2770  178.3180  142.3290 C   0  0  0  0  0  2  0  0  0  0  0  0
  182.2110  179.1340  143.0370 C   0  0  0  0  0  2  0  0  0  0  0  0
  181.7500  178.4330  144.1350 F   0  0  0  0  0  0  0  0  0  0  0  0
  1  5  1  0  0  0  0
  2  3  1  0  0  0  0
  3  9  2  0  0  0  0
  3  5  1  0  0  0  0
  4  9  1  0  0  0  0
  5 11  1  6  0  0  0
  6  2  1  0  0  0  0
  6  1  1  0  0  0  0
  7  4  2  0  0  0  0
  7  2  1  0  0  0  0
  8  4  1  0  0  0  0
 10 11  1  0  0  0  0
 11 13  1  0  0  0  0
 11 12  1  0  0  0  0
 14  8  1  0  0  0  0
 15 14  1  0  0  0  0
 16 15  1  0  0  0  0
 17 22  1  0  0  0  0
 17 20  2  0  0  0  0
 19 18  2  0  0  0  0
 19 16  1  0  0  0  0
 20 18  1  0  0  0  0
 21 22  1  0  0  0  0
 22 19  1  0  0  0  0
 23 14  1  0  0  0  0
 23 24  1  0  0  0  0
 24 25  1  0  0  0  0
M  END
>  <MODEL>
4

>  <REMARK>
 VINA RESULT:      -6.8      4.480      8.465
  Name = 
  7 active torsions:
  status: ('A' for Active; 'I' for Inactive)
    1  A    between atoms: C_6  and  C_10
    2  A    between atoms: C_6  and  C_14
    3  A    between atoms: C_8  and  C_11
    4  A    between atoms: C_14  and  N_23
    5  A    between atoms: C_16  and  C_18
    6  A    between atoms: C_18  and  N_23
    7  A    between atoms: N_21  and  N_23
                            x       y       z     vdW  Elec       q    Type
                         _______ _______ _______ _____ _____    ______ ____

>  <TORSDO>
F 7

$$$$
=
 OpenBabel10232408513D

 25 27  0  0  1  0  0  0  0  0999 V2000
  185.2120  178.4480  146.7540 S   0  0  0  0  0  0  0  0  0  0  0  0
  187.0490  177.2760  145.2710 N   0  0  0  0  0  0  0  0  0  0  0  0
  186.0580  177.7390  144.3990 C   0  0  0  0  0  0  0  0  0  0  0  0
  187.8720  177.2200  143.1170 C   0  0  0  0  0  0  0  0  0  0  0  0
  185.0640  178.4010  144.9610 C   0  0  2  0  0  3  0  0  0  0  0  0
  186.9150  177.7690  146.6270 C   0  0  0  0  0  2  0  0  0  0  0  0
  188.2800  177.0290  144.5530 C   0  0  0  0  0  3  0  0  0  0  0  0
  188.6610  177.0970  142.0890 N   0  0  0  0  0  2  0  0  0  0  0  0
  186.4610  177.6980  142.9720 C   0  0  0  0  0  3  0  0  0  0  0  0
  183.5720  178.4210  143.1350 F   0  0  0  0  0  0  0  0  0  0  0  0
  184.0300  179.1780  144.1970 C   0  0  0  0  0  0  0  0  0  0  0  0
  182.9620  179.4890  145.0190 F   0  0  0  0  0  0  0  0  0  0  0  0
  184.5830  180.3520  143.7180 F   0  0  0  0  0  0  0  0  0  0  0  0
  189.9980  176.6540  142.1360 N   0  0  0  0  0  0  0  0  0  0  0  0
  190.3550  175.6000  143.0690 C   0  0  0  0  0  2  0  0  0  0  0  0
  191.7890  175.7830  143.5320 C   0  0  0  0  0  2  0  0  0  0  0  0
  191.6480  177.1100  146.8730 N   0  0  0  0  0  0  0  0  0  0  0  0
  191.9980  175.1010  145.9350 N   0  0  0  0  0  0  0  0  0  0  0  0
  191.8140  176.0500  144.9980 C   0  0  0  0  0  0  0  0  0  0  0  0
  191.8920  175.7990  147.0930 C   0  0  0  0  0  3  0  0  0  0  0  0
  191.3520  178.4500  144.9000 N   0  0  0  0  0  1  0  0  0  0  0  0
  191.6000  177.2440  145.5630 N   0  0  0  0  0  0  0  0  0  0  0  0
  191.0820  177.3330  141.4340 C   0  0  0  0  0  2  0  0  0  0  0  0
  190.9670  177.0940  139.9400 C   0  0  0  0  0  2  0  0  0  0  0  0
  190.1280  178.0420  139.3870 F   0  0  0  0  0  0  0  0  0  0  0  0
  2  6  1  0  0  0  0
  3  5  1  0  0  0  0
  3  2  1  0  0  0  0
  4  7  2  0  0  0  0
  5 11  1  6  0  0  0
  5  1  1  0  0  0  0
  6  1  1  0  0  0  0
  7  2  1  0  0  0  0
  8 14  1  0  0  0  0
  8  4  1  0  0  0  0
  9  4  1  0  0  0  0
  9  3  2  0  0  0  0
 10 11  1  0  0  0  0
 11 12  1  0  0  0  0
 13 11  1  0  0  0  0
 14 15  1  0  0  0  0
 15 16  1  0  0  0  0
 16 19  1  0  0  0  0
 17 20  2  0  0  0  0
 18 20  1  0  0  0  0
 19 22  1  0  0  0  0
 19 18  2  0  0  0  0
 21 22  1  0  0  0  0
 22 17  1  0  0  0  0
 23 14  1  0  0  0  0
 24 23  1  0  0  0  0
 25 24  1  0  0  0  0
M  END
>  <MODEL>
5

>  <REMARK>
 VINA RESULT:      -6.7      4.190      6.276
  Name = 
  7 active torsions:
  status: ('A' for Active; 'I' for Inactive)
    1  A    between atoms: C_6  and  C_10
    2  A    between atoms: C_6  and  C_14
    3  A    between atoms: C_8  and  C_11
    4  A    between atoms: C_14  and  N_23
    5  A    between atoms: C_16  and  C_18
    6  A    between atoms: C_18  and  N_23
    7  A    between atoms: N_21  and  N_23
                            x       y       z     vdW  Elec       q    Type
                         _______ _______ _______ _____ _____    ______ ____

>  <TORSDO>
F 7

$$$$
=
 OpenBabel10232408513D

 25 27  0  0  1  0  0  0  0  0999 V2000
  184.9950  178.3690  146.7690 S   0  0  0  0  0  0  0  0  0  0  0  0
  187.0420  177.6150  145.2900 N   0  0  0  0  0  0  0  0  0  0  0  0
  186.0170  177.9750  144.4090 C   0  0  0  0  0  0  0  0  0  0  0  0
  187.9300  177.8470  143.1720 C   0  0  0  0  0  0  0  0  0  0  0  0
  184.9110  178.4280  144.9720 C   0  0  2  0  0  3  0  0  0  0  0  0
  186.7900  177.9810  146.6680 C   0  0  0  0  0  2  0  0  0  0  0  0
  188.3190  177.6200  144.6080 C   0  0  0  0  0  3  0  0  0  0  0  0
  188.7580  177.9260  142.1730 N   0  0  0  0  0  2  0  0  0  0  0  0
  186.4640  178.1020  143.0010 C   0  0  0  0  0  3  0  0  0  0  0  0
  184.1510  180.3730  143.8760 F   0  0  0  0  0  0  0  0  0  0  0  0
  183.7890  179.0820  144.2190 C   0  0  0  0  0  0  0  0  0  0  0  0
  183.5110  178.3740  143.0640 F   0  0  0  0  0  0  0  0  0  0  0  0
  182.6530  179.1190  145.0060 F   0  0  0  0  0  0  0  0  0  0  0  0
  190.1480  177.7000  142.2460 N   0  0  0  0  0  0  0  0  0  0  0  0
  190.7380  176.6800  141.3970 C   0  0  0  0  0  2  0  0  0  0  0  0
  191.1870  177.2970  140.0850 C   0  0  0  0  0  2  0  0  0  0  0  0
  188.8090  176.8510  137.4230 N   0  0  0  0  0  0  0  0  0  0  0  0
  190.4070  175.6140  138.4000 N   0  0  0  0  0  0  0  0  0  0  0  0
  190.3070  176.8250  138.9790 C   0  0  0  0  0  0  0  0  0  0  0  0
  189.4540  175.6630  137.4360 C   0  0  0  0  0  3  0  0  0  0  0  0
  188.9930  178.8710  138.7110 N   0  0  0  0  0  1  0  0  0  0  0  0
  189.3580  177.5600  138.3890 N   0  0  0  0  0  0  0  0  0  0  0  0
  190.9950  178.3040  143.2690 C   0  0  0  0  0  2  0  0  0  0  0  0
  191.7420  177.2250  144.0320 C   0  0  0  0  0  2  0  0  0  0  0  0
  191.7950  177.5630  145.3700 F   0  0  0  0  0  0  0  0  0  0  0  0
  2  6  1  0  0  0  0
  3  5  1  0  0  0  0
  3  2  1  0  0  0  0
  4  7  2  0  0  0  0
  5 11  1  1  0  0  0
  5  1  1  0  0  0  0
  6  1  1  0  0  0  0
  7  2  1  0  0  0  0
  8 14  1  0  0  0  0
  8  4  1  0  0  0  0
  9  4  1  0  0  0  0
  9  3  2  0  0  0  0
 10 11  1  0  0  0  0
 11 13  1  0  0  0  0
 12 11  1  0  0  0  0
 14 23  1  0  0  0  0
 15 14  1  0  0  0  0
 16 15  1  0  0  0  0
 17 20  2  0  0  0  0
 17 22  1  0  0  0  0
 18 19  2  0  0  0  0
 19 16  1  0  0  0  0
 20 18  1  0  0  0  0
 22 21  1  0  0  0  0
 22 19  1  0  0  0  0
 23 24  1  0  0  0  0
 24 25  1  0  0  0  0
M  END
>  <MODEL>
6

>  <REMARK>
 VINA RESULT:      -6.6      3.977      7.396
  Name = 
  7 active torsions:
  status: ('A' for Active; 'I' for Inactive)
    1  A    between atoms: C_6  and  C_10
    2  A    between atoms: C_6  and  C_14
    3  A    between atoms: C_8  and  C_11
    4  A    between atoms: C_14  and  N_23
    5  A    between atoms: C_16  and  C_18
    6  A    between atoms: C_18  and  N_23
    7  A    between atoms: N_21  and  N_23
                            x       y       z     vdW  Elec       q    Type
                         _______ _______ _______ _____ _____    ______ ____

>  <TORSDO>
F 7

$$$$
=
 OpenBabel10232408513D

 25 27  0  0  1  0  0  0  0  0999 V2000
  188.0540  177.6670  147.3360 S   0  0  0  0  0  0  0  0  0  0  0  0
  188.7300  177.1550  144.8410 N   0  0  0  0  0  0  0  0  0  0  0  0
  187.3870  177.5450  144.8250 C   0  0  0  0  0  0  0  0  0  0  0  0
  188.1200  177.6260  142.6660 C   0  0  0  0  0  0  0  0  0  0  0  0
  186.8760  177.8890  145.9930 C   0  0  2  0  0  3  0  0  0  0  0  0
  189.3920  177.3780  146.1100 C   0  0  0  0  0  2  0  0  0  0  0  0
  189.3100  177.2860  143.5220 C   0  0  0  0  0  3  0  0  0  0  0  0
  188.1530  177.8390  141.3830 N   0  0  0  0  0  2  0  0  0  0  0  0
  186.8690  177.8240  143.4640 C   0  0  0  0  0  3  0  0  0  0  0  0
  185.6520  179.9000  145.8630 F   0  0  0  0  0  0  0  0  0  0  0  0
  185.5420  178.5550  146.1670 C   0  0  0  0  0  0  0  0  0  0  0  0
  184.6070  177.9810  145.3250 F   0  0  0  0  0  0  0  0  0  0  0  0
  185.1130  178.4140  147.4740 F   0  0  0  0  0  0  0  0  0  0  0  0
  189.2850  177.6760  140.5590 N   0  0  0  0  0  0  0  0  0  0  0  0
  189.3530  178.4100  139.3080 C   0  0  0  0  0  2  0  0  0  0  0  0
  189.0620  177.4790  138.1450 C   0  0  0  0  0  2  0  0  0  0  0  0
  185.6500  176.7440  137.2730 N   0  0  0  0  0  0  0  0  0  0  0  0
  186.7620  178.4750  138.1710 N   0  0  0  0  0  0  0  0  0  0  0  0
  187.5980  177.4650  137.8650 C   0  0  0  0  0  0  0  0  0  0  0  0
  185.5550  177.9930  137.7840 C   0  0  0  0  0  3  0  0  0  0  0  0
  187.4680  175.2130  136.9210 N   0  0  0  0  0  1  0  0  0  0  0  0
  186.9300  176.4350  137.3360 N   0  0  0  0  0  0  0  0  0  0  0  0
  190.3040  176.6600  140.8050 C   0  0  0  0  0  2  0  0  0  0  0  0
  191.6880  177.2730  140.7050 C   0  0  0  0  0  2  0  0  0  0  0  0
  192.2550  177.3330  141.9630 F   0  0  0  0  0  0  0  0  0  0  0  0
  2  6  1  0  0  0  0
  3  2  1  0  0  0  0
  3  5  1  0  0  0  0
  4  9  1  0  0  0  0
  4  7  2  0  0  0  0
  5 11  1  6  0  0  0
  5  1  1  0  0  0  0
  6  1  1  0  0  0  0
  7  2  1  0  0  0  0
  8  4  1  0  0  0  0
  9  3  2  0  0  0  0
 10 11  1  0  0  0  0
 11 13  1  0  0  0  0
 12 11  1  0  0  0  0
 14 23  1  0  0  0  0
 14  8  1  0  0  0  0
 15 14  1  0  0  0  0
 16 15  1  0  0  0  0
 17 22  1  0  0  0  0
 17 20  2  0  0  0  0
 19 16  1  0  0  0  0
 19 18  2  0  0  0  0
 20 18  1  0  0  0  0
 21 22  1  0  0  0  0
 22 19  1  0  0  0  0
 24 23  1  0  0  0  0
 24 25  1  0  0  0  0
M  END
>  <MODEL>
7

>  <REMARK>
 VINA RESULT:      -6.5      3.967      7.847
  Name = 
  7 active torsions:
  status: ('A' for Active; 'I' for Inactive)
    1  A    between atoms: C_6  and  C_10
    2  A    between atoms: C_6  and  C_14
    3  A    between atoms: C_8  and  C_11
    4  A    between atoms: C_14  and  N_23
    5  A    between atoms: C_16  and  C_18
    6  A    between atoms: C_18  and  N_23
    7  A    between atoms: N_21  and  N_23
                            x       y       z     vdW  Elec       q    Type
                         _______ _______ _______ _____ _____    ______ ____

>  <TORSDO>
F 7

$$$$
=
 OpenBabel10232408513D

 25 27  0  0  1  0  0  0  0  0999 V2000
  188.0210  177.8480  148.2290 S   0  0  0  0  0  0  0  0  0  0  0  0
  188.7420  176.9950  145.8420 N   0  0  0  0  0  0  0  0  0  0  0  0
  187.4510  177.5180  145.7120 C   0  0  0  0  0  0  0  0  0  0  0  0
  188.2780  177.2820  143.6000 C   0  0  0  0  0  0  0  0  0  0  0  0
  186.9320  178.0400  146.8090 C   0  0  2  0  0  3  0  0  0  0  0  0
  189.3710  177.2880  147.1130 C   0  0  0  0  0  2  0  0  0  0  0  0
  189.3870  176.9180  144.5490 C   0  0  0  0  0  3  0  0  0  0  0  0
  188.3880  177.3460  142.3050 N   0  0  0  0  0  2  0  0  0  0  0  0
  187.0230  177.6960  144.3030 C   0  0  0  0  0  3  0  0  0  0  0  0
  185.4910  179.4750  145.6160 F   0  0  0  0  0  0  0  0  0  0  0  0
  185.6720  178.8560  146.8390 C   0  0  0  0  0  0  0  0  0  0  0  0
  184.5820  178.0440  147.0950 F   0  0  0  0  0  0  0  0  0  0  0  0
  185.7570  179.8160  147.8300 F   0  0  0  0  0  0  0  0  0  0  0  0
  189.5290  176.9760  141.5650 N   0  0  0  0  0  0  0  0  0  0  0  0
  189.4710  177.0280  140.1140 C   0  0  0  0  0  2  0  0  0  0  0  0
  188.7470  178.2860  139.6710 C   0  0  0  0  0  2  0  0  0  0  0  0
  187.2480  178.2310  136.4020 N   0  0  0  0  0  0  0  0  0  0  0  0
  189.3160  178.0120  137.2460 N   0  0  0  0  0  0  0  0  0  0  0  0
  188.4080  178.1890  138.2240 C   0  0  0  0  0  0  0  0  0  0  0  0
  188.5570  178.0390  136.1220 C   0  0  0  0  0  3  0  0  0  0  0  0
  185.9970  178.5450  138.4290 N   0  0  0  0  0  1  0  0  0  0  0  0
  187.1790  178.3260  137.7140 N   0  0  0  0  0  0  0  0  0  0  0  0
  190.7030  176.3590  142.1740 C   0  0  0  0  0  2  0  0  0  0  0  0
  191.8970  177.2880  142.0650 C   0  0  0  0  0  2  0  0  0  0  0  0
  191.6360  178.4560  142.7550 F   0  0  0  0  0  0  0  0  0  0  0  0
  2  6  1  0  0  0  0
  3  2  1  0  0  0  0
  3  5  1  0  0  0  0
  4  9  1  0  0  0  0
  4  7  2  0  0  0  0
  5 11  1  6  0  0  0
  5  1  1  0  0  0  0
  6  1  1  0  0  0  0
  7  2  1  0  0  0  0
  8  4  1  0  0  0  0
  9  3  2  0  0  0  0
 10 11  1  0  0  0  0
 11 12  1  0  0  0  0
 11 13  1  0  0  0  0
 14 23  1  0  0  0  0
 14  8  1  0  0  0  0
 15 14  1  0  0  0  0
 16 15  1  0  0  0  0
 17 22  1  0  0  0  0
 18 19  2  0  0  0  0
 19 16  1  0  0  0  0
 20 17  2  0  0  0  0
 20 18  1  0  0  0  0
 22 19  1  0  0  0  0
 22 21  1  0  0  0  0
 24 23  1  0  0  0  0
 24 25  1  0  0  0  0
M  END
>  <MODEL>
8

>  <REMARK>
 VINA RESULT:      -6.5      3.941      8.065
  Name = 
  7 active torsions:
  status: ('A' for Active; 'I' for Inactive)
    1  A    between atoms: C_6  and  C_10
    2  A    between atoms: C_6  and  C_14
    3  A    between atoms: C_8  and  C_11
    4  A    between atoms: C_14  and  N_23
    5  A    between atoms: C_16  and  C_18
    6  A    between atoms: C_18  and  N_23
    7  A    between atoms: N_21  and  N_23
                            x       y       z     vdW  Elec       q    Type
                         _______ _______ _______ _____ _____    ______ ____

>  <TORSDO>
F 7

$$$$
=
 OpenBabel10232408513D

 25 27  0  0  1  0  0  0  0  0999 V2000
  191.2080  176.8040  144.7700 S   0  0  0  0  0  0  0  0  0  0  0  0
  188.8460  177.0060  143.6180 N   0  0  0  0  0  0  0  0  0  0  0  0
  188.6220  176.9780  144.9990 C   0  0  0  0  0  0  0  0  0  0  0  0
  186.6800  177.6860  144.0340 C   0  0  0  0  0  0  0  0  0  0  0  0
  189.7050  176.9240  145.7530 C   0  0  2  0  0  3  0  0  0  0  0  0
  190.2380  177.1650  143.2500 C   0  0  0  0  0  2  0  0  0  0  0  0
  187.6960  177.5540  142.9320 C   0  0  0  0  0  3  0  0  0  0  0  0
  185.4710  178.1420  143.8910 N   0  0  0  0  0  2  0  0  0  0  0  0
  187.2380  177.3480  145.3820 C   0  0  0  0  0  3  0  0  0  0  0  0
  190.9820  176.9150  147.7360 F   0  0  0  0  0  0  0  0  0  0  0  0
  189.7060  177.1200  147.2420 C   0  0  0  0  0  0  0  0  0  0  0  0
  189.3070  178.4060  147.5550 F   0  0  0  0  0  0  0  0  0  0  0  0
  188.8360  176.2250  147.8350 F   0  0  0  0  0  0  0  0  0  0  0  0
  184.8680  178.4820  142.6620 N   0  0  0  0  0  0  0  0  0  0  0  0
  185.6780  179.1130  141.6350 C   0  0  0  0  0  2  0  0  0  0  0  0
  184.9080  179.1640  140.3280 C   0  0  0  0  0  2  0  0  0  0  0  0
  186.1340  177.4490  137.4130 N   0  0  0  0  0  0  0  0  0  0  0  0
  187.0320  178.4140  139.2310 N   0  0  0  0  0  0  0  0  0  0  0  0
  185.6880  178.4820  139.2570 C   0  0  0  0  0  0  0  0  0  0  0  0
  187.2770  177.7590  138.0680 C   0  0  0  0  0  3  0  0  0  0  0  0
  183.8010  177.8160  137.8520 N   0  0  0  0  0  1  0  0  0  0  0  0
  185.1590  177.9120  138.1690 N   0  0  0  0  0  0  0  0  0  0  0  0
  183.4280  178.4080  142.4400 C   0  0  0  0  0  2  0  0  0  0  0  0
  182.6840  178.9440  143.6490 C   0  0  0  0  0  2  0  0  0  0  0  0
  181.3420  178.6410  143.5340 F   0  0  0  0  0  0  0  0  0  0  0  0
  1  5  1  0  0  0  0
  2  3  1  0  0  0  0
  3  9  2  0  0  0  0
  3  5  1  0  0  0  0
  4  9  1  0  0  0  0
  5 11  1  6  0  0  0
  6  2  1  0  0  0  0
  6  1  1  0  0  0  0
  7  2  1  0  0  0  0
  7  4  2  0  0  0  0
  8  4  1  0  0  0  0
 11 12  1  0  0  0  0
 11 10  1  0  0  0  0
 11 13  1  0  0  0  0
 14  8  1  0  0  0  0
 15 14  1  0  0  0  0
 16 15  1  0  0  0  0
 17 20  2  0  0  0  0
 17 22  1  0  0  0  0
 18 19  2  0  0  0  0
 19 16  1  0  0  0  0
 20 18  1  0  0  0  0
 21 22  1  0  0  0  0
 22 19  1  0  0  0  0
 23 14  1  0  0  0  0
 23 24  1  0  0  0  0
 25 24  1  0  0  0  0
M  END
>  <MODEL>
9

>  <REMARK>
 VINA RESULT:      -6.3      4.416      8.123
  Name = 
  7 active torsions:
  status: ('A' for Active; 'I' for Inactive)
    1  A    between atoms: C_6  and  C_10
    2  A    between atoms: C_6  and  C_14
    3  A    between atoms: C_8  and  C_11
    4  A    between atoms: C_14  and  N_23
    5  A    between atoms: C_16  and  C_18
    6  A    between atoms: C_18  and  N_23
    7  A    between atoms: N_21  and  N_23
                            x       y       z     vdW  Elec       q    Type
                         _______ _______ _______ _____ _____    ______ ____

>  <TORSDO>
F 7

$$$$
