=
 OpenBabel10232412403D

 37 41  0  0  1  0  0  0  0  0999 V2000
  185.3460  178.4180  144.4210 C   0  0  0  0  0  0  0  0  0  0  0  0
  186.7020  178.1030  144.6020 C   0  0  0  0  0  0  0  0  0  0  0  0
  183.0700  178.8540  144.9500 N   0  0  0  0  0  0  0  0  0  0  0  0
  189.4310  177.4580  144.5880 C   0  0  0  0  0  0  0  0  0  0  0  0
  186.3600  178.3470  142.1010 S   0  0  0  0  0  0  0  0  0  0  0  0
  184.3330  178.5630  145.3750 C   0  0  0  0  0  0  0  0  0  0  0  0
  185.0150  178.5780  143.0870 C   0  0  0  0  0  0  0  0  0  0  0  0
  188.7080  177.5320  145.7990 C   0  0  0  0  0  3  0  0  0  0  0  0
  184.5920  178.4160  146.7690 N   0  0  0  0  0  1  0  0  0  0  0  0
  182.7760  178.9960  143.6230 C   0  0  0  0  0  0  0  0  0  0  0  0
  188.7770  177.7120  143.3580 C   0  0  0  0  0  0  0  0  0  0  0  0
  183.7530  178.8540  142.6850 N   0  0  0  0  0  2  0  0  0  0  0  0
  187.3470  177.8580  145.8130 C   0  0  0  0  0  3  0  0  0  0  0  0
  181.5980  179.2510  143.2690 O   0  0  0  0  0  0  0  0  0  0  0  0
  187.4080  178.0300  143.3980 C   0  0  0  0  0  0  0  0  0  0  0  0
  189.5410  176.2640  141.5430 N   0  0  0  0  0  2  0  0  0  0  0  0
  189.0300  177.4950  139.5490 C   0  0  1  0  0  3  0  0  0  0  0  0
  189.8660  176.3780  140.1330 C   0  0  0  0  0  2  0  0  0  0  0  0
  189.5450  177.6210  142.0640 C   0  0  1  0  0  3  0  0  0  0  0  0
  188.9040  178.7800  140.8130 S   0  0  0  0  0  0  0  0  0  0  0  0
  189.6860  178.0280  138.3670 N   0  0  0  0  0  2  0  0  0  0  0  0
  189.0610  177.8050  135.8100 O   0  0  0  0  0  0  0  0  0  0  0  0
  188.1110  179.7070  137.0190 O   0  0  0  0  0  0  0  0  0  0  0  0
  188.4940  178.2560  137.1270 S   0  0  0  0  0  0  0  0  0  0  0  0
  187.0260  177.2750  137.4890 C   0  0  0  0  0  2  0  0  0  0  0  0
  185.7740  178.0430  137.5400 N   0  0  0  0  0  0  0  0  0  0  0  0
  183.1990  177.8960  138.1660 S   0  0  0  0  0  0  0  0  0  0  0  0
  185.6630  178.6740  138.7900 N   0  0  0  0  0  2  0  0  0  0  0  0
  184.6430  177.1400  137.3870 C   0  0  0  0  0  2  0  0  0  0  0  0
  184.2890  179.1280  138.9170 C   0  0  0  0  0  2  0  0  0  0  0  0
  191.0170  175.7340  144.1910 O   0  0  0  0  0  1  0  0  0  0  0  0
  190.8780  177.0610  144.6090 C   0  0  2  0  0  3  0  0  0  0  0  0
  191.4940  177.2470  145.9890 C   0  0  0  0  0  2  0  0  0  0  0  0
  192.4670  175.8290  147.6950 C   0  0  0  0  0  0  0  0  0  0  0  0
  192.8100  175.6810  148.9430 C   0  0  0  0  0  3  0  0  0  0  0  0
  193.6600  176.7020  149.6080 C   0  0  0  0  0  1  0  0  0  0  0  0
  192.1170  175.9740  146.4480 C   0  0  0  0  0  3  0  0  0  0  0  0
  1  2  1  0  0  0  0
  1  6  1  0  0  0  0
  2 13  1  0  0  0  0
  3  6  2  0  0  0  0
  4 32  1  0  0  0  0
  4  8  1  0  0  0  0
  5  7  1  0  0  0  0
  5 15  1  0  0  0  0
  6  9  1  0  0  0  0
  7  1  2  0  0  0  0
  8 13  2  0  0  0  0
 10  3  1  0  0  0  0
 11 15  1  0  0  0  0
 11  4  2  0  0  0  0
 12  7  1  0  0  0  0
 12 10  1  0  0  0  0
 14 10  2  0  0  0  0
 15  2  2  0  0  0  0
 16 19  1  0  0  0  0
 17 21  1  6  0  0  0
 17 18  1  0  0  0  0
 17 20  1  0  0  0  0
 18 16  1  0  0  0  0
 19 11  1  1  0  0  0
 20 19  1  0  0  0  0
 22 24  2  0  0  0  0
 23 24  2  0  0  0  0
 24 25  1  0  0  0  0
 24 21  1  0  0  0  0
 25 26  1  0  0  0  0
 26 28  1  0  0  0  0
 27 30  1  0  0  0  0
 28 30  1  0  0  0  0
 29 26  1  0  0  0  0
 29 27  1  0  0  0  0
 32 31  1  1  0  0  0
 32 33  1  0  0  0  0
 33 37  1  0  0  0  0
 34 35  2  0  0  0  0
 35 36  1  0  0  0  0
 37 34  2  0  0  0  0
M  END
>  <MODEL>
1

>  <REMARK>
 VINA RESULT:      -9.0      0.000      0.000
  Name = 
  8 active torsions:
  status: ('A' for Active; 'I' for Inactive)
    1  A    between atoms: C_6  and  C_31
    2  A    between atoms: C_6  and  C_34
    3  A    between atoms: C_7  and  N_21
    4  A    between atoms: C_9  and  C_31
    5  A    between atoms: N_11  and  C_27
    6  A    between atoms: C_20  and  C_25
    7  A    between atoms: N_21  and  S_36
    8  A    between atoms: C_27  and  S_36
                            x       y       z     vdW  Elec       q    Type
                         _______ _______ _______ _____ _____    ______ ____

>  <TORSDO>
F 8

$$$$
=
 OpenBabel10232412403D

 37 41  0  0  1  0  0  0  0  0999 V2000
  184.2680  178.5140  143.2720 C   0  0  0  0  0  0  0  0  0  0  0  0
  185.3020  178.2210  144.1760 C   0  0  0  0  0  0  0  0  0  0  0  0
  182.0980  179.0570  142.4700 N   0  0  0  0  0  0  0  0  0  0  0  0
  187.5750  177.5540  145.6770 C   0  0  0  0  0  0  0  0  0  0  0  0
  186.3150  178.0400  141.8580 S   0  0  0  0  0  0  0  0  0  0  0  0
  182.9290  178.8300  143.5270 C   0  0  0  0  0  0  0  0  0  0  0  0
  184.6860  178.4490  141.9540 C   0  0  0  0  0  0  0  0  0  0  0  0
  186.3450  177.8410  146.3090 C   0  0  0  0  0  3  0  0  0  0  0  0
  182.4220  178.9190  144.8550 N   0  0  0  0  0  1  0  0  0  0  0  0
  182.5410  178.9750  141.1800 C   0  0  0  0  0  0  0  0  0  0  0  0
  187.6720  177.6020  144.2650 C   0  0  0  0  0  0  0  0  0  0  0  0
  183.8420  178.6660  140.9190 N   0  0  0  0  0  2  0  0  0  0  0  0
  185.2090  178.1780  145.5650 C   0  0  0  0  0  3  0  0  0  0  0  0
  181.7420  179.1790  140.2310 O   0  0  0  0  0  0  0  0  0  0  0  0
  186.5140  177.9360  143.5400 C   0  0  0  0  0  0  0  0  0  0  0  0
  189.0260  175.8990  143.1510 N   0  0  0  0  0  2  0  0  0  0  0  0
  189.8680  177.0000  141.1930 C   0  0  1  0  0  3  0  0  0  0  0  0
  190.0640  175.8350  142.1380 C   0  0  0  0  0  2  0  0  0  0  0  0
  188.9810  177.2850  143.5890 C   0  0  1  0  0  3  0  0  0  0  0  0
  189.3080  178.4010  142.1870 S   0  0  0  0  0  0  0  0  0  0  0  0
  191.1290  177.3240  140.5500 N   0  0  0  0  0  2  0  0  0  0  0  0
  190.5200  175.4070  138.8380 O   0  0  0  0  0  0  0  0  0  0  0  0
  192.4260  176.8310  138.2710 O   0  0  0  0  0  0  0  0  0  0  0  0
  191.0560  176.8090  138.8940 S   0  0  0  0  0  0  0  0  0  0  0  0
  189.9550  177.8860  137.9580 C   0  0  0  0  0  2  0  0  0  0  0  0
  188.6700  177.2750  137.5890 N   0  0  0  0  0  0  0  0  0  0  0  0
  186.0660  177.7380  137.3750 S   0  0  0  0  0  0  0  0  0  0  0  0
  188.4410  177.4620  136.2150 N   0  0  0  0  0  2  0  0  0  0  0  0
  187.5940  177.9270  138.3190 C   0  0  0  0  0  2  0  0  0  0  0  0
  187.0430  177.1520  135.9700 C   0  0  0  0  0  2  0  0  0  0  0  0
  188.3890  177.0330  147.8480 O   0  0  0  0  0  1  0  0  0  0  0  0
  188.7600  177.1510  146.5050 C   0  0  2  0  0  3  0  0  0  0  0  0
  189.9120  178.1350  146.3590 C   0  0  0  0  0  2  0  0  0  0  0  0
  191.7040  176.5060  146.3740 C   0  0  0  0  0  0  0  0  0  0  0  0
  192.3160  175.5440  147.0050 C   0  0  0  0  0  3  0  0  0  0  0  0
  192.7740  175.7460  148.4040 C   0  0  0  0  0  1  0  0  0  0  0  0
  191.0860  177.4610  145.7390 C   0  0  0  0  0  3  0  0  0  0  0  0
  1  6  1  0  0  0  0
  1  2  1  0  0  0  0
  2 13  1  0  0  0  0
  3  6  2  0  0  0  0
  4  8  1  0  0  0  0
  4 32  1  0  0  0  0
  5  7  1  0  0  0  0
  5 15  1  0  0  0  0
  6  9  1  0  0  0  0
  7  1  2  0  0  0  0
 10  3  1  0  0  0  0
 11  4  2  0  0  0  0
 12 10  1  0  0  0  0
 12  7  1  0  0  0  0
 13  8  2  0  0  0  0
 14 10  2  0  0  0  0
 15  2  2  0  0  0  0
 15 11  1  0  0  0  0
 16 19  1  0  0  0  0
 17 21  1  1  0  0  0
 17 18  1  0  0  0  0
 17 20  1  0  0  0  0
 18 16  1  0  0  0  0
 19 11  1  6  0  0  0
 20 19  1  0  0  0  0
 22 24  2  0  0  0  0
 23 24  2  0  0  0  0
 24 21  1  0  0  0  0
 25 24  1  0  0  0  0
 26 25  1  0  0  0  0
 26 29  1  0  0  0  0
 27 29  1  0  0  0  0
 28 26  1  0  0  0  0
 30 28  1  0  0  0  0
 30 27  1  0  0  0  0
 32 31  1  1  0  0  0
 33 32  1  0  0  0  0
 34 35  2  0  0  0  0
 35 36  1  0  0  0  0
 37 33  1  0  0  0  0
 37 34  2  0  0  0  0
M  END
>  <MODEL>
2

>  <REMARK>
 VINA RESULT:      -9.0      2.100      2.677
  Name = 
  8 active torsions:
  status: ('A' for Active; 'I' for Inactive)
    1  A    between atoms: C_6  and  C_31
    2  A    between atoms: C_6  and  C_34
    3  A    between atoms: C_7  and  N_21
    4  A    between atoms: C_9  and  C_31
    5  A    between atoms: N_11  and  C_27
    6  A    between atoms: C_20  and  C_25
    7  A    between atoms: N_21  and  S_36
    8  A    between atoms: C_27  and  S_36
                            x       y       z     vdW  Elec       q    Type
                         _______ _______ _______ _____ _____    ______ ____

>  <TORSDO>
F 8

$$$$
=
 OpenBabel10232412403D

 37 41  0  0  1  0  0  0  0  0999 V2000
  189.2920  177.0920  145.2420 C   0  0  0  0  0  0  0  0  0  0  0  0
  188.2240  177.4150  144.3900 C   0  0  0  0  0  0  0  0  0  0  0  0
  190.4960  176.6860  147.2510 N   0  0  0  0  0  0  0  0  0  0  0  0
  186.3450  178.0580  142.4110 C   0  0  0  0  0  0  0  0  0  0  0  0
  190.2340  177.0350  142.8920 S   0  0  0  0  0  0  0  0  0  0  0  0
  189.3180  176.9990  146.6380 C   0  0  0  0  0  0  0  0  0  0  0  0
  190.4670  176.8590  144.5490 C   0  0  0  0  0  0  0  0  0  0  0  0
  185.9870  178.0500  143.7770 C   0  0  0  0  0  3  0  0  0  0  0  0
  188.1500  177.2220  147.4240 N   0  0  0  0  0  1  0  0  0  0  0  0
  191.6400  176.4720  146.5370 C   0  0  0  0  0  0  0  0  0  0  0  0
  187.6690  177.7370  142.0250 C   0  0  0  0  0  0  0  0  0  0  0  0
  191.6280  176.5620  145.1770 N   0  0  0  0  0  2  0  0  0  0  0  0
  186.9190  177.7260  144.7690 C   0  0  0  0  0  3  0  0  0  0  0  0
  192.7090  176.1980  147.1380 O   0  0  0  0  0  0  0  0  0  0  0  0
  188.5890  177.4230  143.0410 C   0  0  0  0  0  0  0  0  0  0  0  0
  188.5300  179.0710  140.1660 N   0  0  0  0  0  2  0  0  0  0  0  0
  190.2080  177.6790  139.1670 C   0  0  1  0  0  3  0  0  0  0  0  0
  189.2930  178.8630  138.9490 C   0  0  0  0  0  2  0  0  0  0  0  0
  188.0540  177.7570  140.5690 C   0  0  1  0  0  3  0  0  0  0  0  0
  189.3030  176.4880  140.1800 S   0  0  0  0  0  0  0  0  0  0  0  0
  190.5450  177.0810  137.8860 N   0  0  0  0  0  2  0  0  0  0  0  0
  191.7710  174.7880  138.3480 O   0  0  0  0  0  0  0  0  0  0  0  0
  192.8670  176.8130  139.1730 O   0  0  0  0  0  0  0  0  0  0  0  0
  192.0500  176.2330  138.0490 S   0  0  0  0  0  0  0  0  0  0  0  0
  192.9880  176.3340  136.5140 C   0  0  0  0  0  2  0  0  0  0  0  0
  194.4390  176.1600  136.6710 N   0  0  0  0  0  0  0  0  0  0  0  0
  196.4680  174.5330  136.1410 S   0  0  0  0  0  0  0  0  0  0  0  0
  195.1010  176.7410  135.5760 N   0  0  0  0  0  2  0  0  0  0  0  0
  194.7600  174.7410  136.6910 C   0  0  0  0  0  2  0  0  0  0  0  0
  196.4710  176.2590  135.6010 C   0  0  0  0  0  2  0  0  0  0  0  0
  185.3510  179.8410  141.1950 O   0  0  0  0  0  1  0  0  0  0  0  0
  185.3300  178.4560  141.3790 C   0  0  2  0  0  3  0  0  0  0  0  0
  183.9290  177.9940  141.7580 C   0  0  0  0  0  2  0  0  0  0  0  0
  183.4010  177.6400  139.4200 C   0  0  0  0  0  0  0  0  0  0  0  0
  183.7760  177.1780  138.2620 C   0  0  0  0  0  3  0  0  0  0  0  0
  185.0830  177.5880  137.6840 C   0  0  0  0  0  1  0  0  0  0  0  0
  183.0210  178.0950  140.5810 C   0  0  0  0  0  3  0  0  0  0  0  0
  1  6  1  0  0  0  0
  2 13  1  0  0  0  0
  2  1  1  0  0  0  0
  4  8  1  0  0  0  0
  5 15  1  0  0  0  0
  5  7  1  0  0  0  0
  6  3  2  0  0  0  0
  6  9  1  0  0  0  0
  7 12  1  0  0  0  0
  7  1  2  0  0  0  0
  8 13  2  0  0  0  0
 10 14  2  0  0  0  0
 10  3  1  0  0  0  0
 11  4  2  0  0  0  0
 11 15  1  0  0  0  0
 12 10  1  0  0  0  0
 15  2  2  0  0  0  0
 16 19  1  0  0  0  0
 17 21  1  6  0  0  0
 17 20  1  0  0  0  0
 18 17  1  0  0  0  0
 18 16  1  0  0  0  0
 19 11  1  1  0  0  0
 20 19  1  0  0  0  0
 21 24  1  0  0  0  0
 24 22  2  0  0  0  0
 24 23  2  0  0  0  0
 25 26  1  0  0  0  0
 25 24  1  0  0  0  0
 26 29  1  0  0  0  0
 27 29  1  0  0  0  0
 28 30  1  0  0  0  0
 28 26  1  0  0  0  0
 30 27  1  0  0  0  0
 32 31  1  1  0  0  0
 32 33  1  0  0  0  0
 32  4  1  0  0  0  0
 34 37  2  0  0  0  0
 35 34  2  0  0  0  0
 36 35  1  0  0  0  0
 37 33  1  0  0  0  0
M  END
>  <MODEL>
3

>  <REMARK>
 VINA RESULT:      -8.7      3.640      7.697
  Name = 
  8 active torsions:
  status: ('A' for Active; 'I' for Inactive)
    1  A    between atoms: C_6  and  C_31
    2  A    between atoms: C_6  and  C_34
    3  A    between atoms: C_7  and  N_21
    4  A    between atoms: C_9  and  C_31
    5  A    between atoms: N_11  and  C_27
    6  A    between atoms: C_20  and  C_25
    7  A    between atoms: N_21  and  S_36
    8  A    between atoms: C_27  and  S_36
                            x       y       z     vdW  Elec       q    Type
                         _______ _______ _______ _____ _____    ______ ____

>  <TORSDO>
F 8

$$$$
=
 OpenBabel10232412403D

 37 41  0  0  1  0  0  0  0  0999 V2000
  187.3480  178.1890  139.3530 C   0  0  0  0  0  0  0  0  0  0  0  0
  188.6750  177.7560  139.2000 C   0  0  0  0  0  0  0  0  0  0  0  0
  185.1460  178.8690  138.7730 N   0  0  0  0  0  0  0  0  0  0  0  0
  191.3600  176.9510  139.2650 C   0  0  0  0  0  0  0  0  0  0  0  0
  188.3220  178.0930  141.6890 S   0  0  0  0  0  0  0  0  0  0  0  0
  186.3730  178.4250  138.3770 C   0  0  0  0  0  0  0  0  0  0  0  0
  187.0160  178.4160  140.6770 C   0  0  0  0  0  0  0  0  0  0  0  0
  190.6660  177.0660  138.0420 C   0  0  0  0  0  3  0  0  0  0  0  0
  186.6350  178.2120  136.9930 N   0  0  0  0  0  1  0  0  0  0  0  0
  184.8550  179.0920  140.0880 C   0  0  0  0  0  0  0  0  0  0  0  0
  190.6990  177.2440  140.4830 C   0  0  0  0  0  0  0  0  0  0  0  0
  185.7960  178.8680  141.0480 N   0  0  0  0  0  2  0  0  0  0  0  0
  189.3240  177.4620  138.0030 C   0  0  0  0  0  3  0  0  0  0  0  0
  183.7160  179.5130  140.4130 O   0  0  0  0  0  0  0  0  0  0  0  0
  189.3540  177.6480  140.4170 C   0  0  0  0  0  0  0  0  0  0  0  0
  191.5070  178.4170  142.4700 N   0  0  0  0  0  2  0  0  0  0  0  0
  190.8830  176.9910  144.2940 C   0  0  1  0  0  3  0  0  0  0  0  0
  191.7950  178.1170  143.8600 C   0  0  0  0  0  2  0  0  0  0  0  0
  191.4430  177.1340  141.7890 C   0  0  1  0  0  3  0  0  0  0  0  0
  190.7100  175.8760  142.8830 S   0  0  0  0  0  0  0  0  0  0  0  0
  191.4820  176.2820  145.4120 N   0  0  0  0  0  2  0  0  0  0  0  0
  191.6830  177.2850  147.8480 O   0  0  0  0  0  0  0  0  0  0  0  0
  189.9590  175.5880  147.4890 O   0  0  0  0  0  0  0  0  0  0  0  0
  190.6700  176.7600  146.8700 S   0  0  0  0  0  0  0  0  0  0  0  0
  189.4790  178.0650  146.5170 C   0  0  0  0  0  2  0  0  0  0  0  0
  188.0820  177.6140  146.4380 N   0  0  0  0  0  0  0  0  0  0  0  0
  185.5690  178.3490  146.8690 S   0  0  0  0  0  0  0  0  0  0  0  0
  187.5640  177.9150  145.1670 N   0  0  0  0  0  2  0  0  0  0  0  0
  187.2860  178.3200  147.4310 C   0  0  0  0  0  2  0  0  0  0  0  0
  186.1210  177.7650  145.2490 C   0  0  0  0  0  2  0  0  0  0  0  0
  193.5840  177.6160  139.7720 O   0  0  0  0  0  1  0  0  0  0  0  0
  192.8110  176.5680  139.2640 C   0  0  2  0  0  3  0  0  0  0  0  0
  193.2920  176.1840  137.8720 C   0  0  0  0  0  2  0  0  0  0  0  0
  192.3980  174.0600  137.1240 C   0  0  0  0  0  0  0  0  0  0  0  0
  191.4500  173.4200  136.5010 C   0  0  0  0  0  3  0  0  0  0  0  0
  190.0290  173.6460  136.8730 C   0  0  0  0  0  1  0  0  0  0  0  0
  193.3500  174.7010  137.7410 C   0  0  0  0  0  3  0  0  0  0  0  0
  1  7  2  0  0  0  0
  2  1  1  0  0  0  0
  2 15  1  0  0  0  0
  3 10  1  0  0  0  0
  4 11  1  0  0  0  0
  6  3  2  0  0  0  0
  6  1  1  0  0  0  0
  7 12  1  0  0  0  0
  7  5  1  0  0  0  0
  8  4  2  0  0  0  0
  9  6  1  0  0  0  0
 10 14  2  0  0  0  0
 10 12  1  0  0  0  0
 13  8  1  0  0  0  0
 13  2  2  0  0  0  0
 15 11  2  0  0  0  0
 15  5  1  0  0  0  0
 16 18  1  0  0  0  0
 17 21  1  1  0  0  0
 18 17  1  0  0  0  0
 19 11  1  6  0  0  0
 19 16  1  0  0  0  0
 19 20  1  0  0  0  0
 20 17  1  0  0  0  0
 21 24  1  0  0  0  0
 24 23  2  0  0  0  0
 24 22  2  0  0  0  0
 25 24  1  0  0  0  0
 26 25  1  0  0  0  0
 26 29  1  0  0  0  0
 27 29  1  0  0  0  0
 28 30  1  0  0  0  0
 28 26  1  0  0  0  0
 30 27  1  0  0  0  0
 32  4  1  0  0  0  0
 32 31  1  6  0  0  0
 33 32  1  0  0  0  0
 34 37  2  0  0  0  0
 35 36  1  0  0  0  0
 35 34  2  0  0  0  0
 37 33  1  0  0  0  0
M  END
>  <MODEL>
4

>  <REMARK>
 VINA RESULT:      -8.7      3.137      7.601
  Name = 
  8 active torsions:
  status: ('A' for Active; 'I' for Inactive)
    1  A    between atoms: C_6  and  C_31
    2  A    between atoms: C_6  and  C_34
    3  A    between atoms: C_7  and  N_21
    4  A    between atoms: C_9  and  C_31
    5  A    between atoms: N_11  and  C_27
    6  A    between atoms: C_20  and  C_25
    7  A    between atoms: N_21  and  S_36
    8  A    between atoms: C_27  and  S_36
                            x       y       z     vdW  Elec       q    Type
                         _______ _______ _______ _____ _____    ______ ____

>  <TORSDO>
F 8

$$$$
=
 OpenBabel10232412403D

 37 41  0  0  1  0  0  0  0  0999 V2000
  182.7010  178.8180  142.1920 C   0  0  0  0  0  0  0  0  0  0  0  0
  183.6410  178.6960  143.2280 C   0  0  0  0  0  0  0  0  0  0  0  0
  180.6030  179.0870  141.1070 N   0  0  0  0  0  0  0  0  0  0  0  0
  185.7670  178.3690  145.0270 C   0  0  0  0  0  0  0  0  0  0  0  0
  184.9350  178.4320  141.0630 S   0  0  0  0  0  0  0  0  0  0  0  0
  181.3190  179.0230  142.2670 C   0  0  0  0  0  0  0  0  0  0  0  0
  183.2760  178.6900  140.9400 C   0  0  0  0  0  0  0  0  0  0  0  0
  184.4500  178.5850  145.4900 C   0  0  0  0  0  3  0  0  0  0  0  0
  180.6510  179.1680  143.5170 N   0  0  0  0  0  1  0  0  0  0  0  0
  181.2020  178.9470  139.8880 C   0  0  0  0  0  0  0  0  0  0  0  0
  186.0270  178.3160  143.6360 C   0  0  0  0  0  0  0  0  0  0  0  0
  182.5470  178.7440  139.8020 N   0  0  0  0  0  2  0  0  0  0  0  0
  183.3860  178.7540  144.5970 C   0  0  0  0  0  3  0  0  0  0  0  0
  180.5080  178.9980  138.8410 O   0  0  0  0  0  0  0  0  0  0  0  0
  184.9400  178.4800  142.7590 C   0  0  0  0  0  0  0  0  0  0  0  0
  187.7490  176.6550  143.1350 N   0  0  0  0  0  2  0  0  0  0  0  0
  188.5780  177.2940  140.9770 C   0  0  1  0  0  3  0  0  0  0  0  0
  188.8750  176.5040  142.2320 C   0  0  0  0  0  2  0  0  0  0  0  0
  187.4300  178.0730  143.1410 C   0  0  1  0  0  3  0  0  0  0  0  0
  187.6980  178.7880  141.4870 S   0  0  0  0  0  0  0  0  0  0  0  0
  189.8240  177.6550  140.3220 N   0  0  0  0  0  2  0  0  0  0  0  0
  190.7450  177.2880  137.8740 O   0  0  0  0  0  0  0  0  0  0  0  0
  189.2800  179.2140  138.2270 O   0  0  0  0  0  0  0  0  0  0  0  0
  189.5360  177.7830  138.6160 S   0  0  0  0  0  0  0  0  0  0  0  0
  188.1190  176.7720  138.1480 C   0  0  0  0  0  2  0  0  0  0  0  0
  187.1880  177.4200  137.2130 N   0  0  0  0  0  0  0  0  0  0  0  0
  186.2130  177.3110  134.7470 S   0  0  0  0  0  0  0  0  0  0  0  0
  185.9140  176.8420  137.3460 N   0  0  0  0  0  2  0  0  0  0  0  0
  187.6420  177.2040  135.8470 C   0  0  0  0  0  2  0  0  0  0  0  0
  185.1320  177.2640  136.1970 C   0  0  0  0  0  2  0  0  0  0  0  0
  186.9600  176.7910  146.3420 O   0  0  0  0  0  1  0  0  0  0  0  0
  186.8750  178.1470  146.0150 C   0  0  2  0  0  3  0  0  0  0  0  0
  186.6860  178.9840  147.2720 C   0  0  0  0  0  2  0  0  0  0  0  0
  188.7330  178.0920  148.2110 C   0  0  0  0  0  0  0  0  0  0  0  0
  189.9850  177.7810  148.0330 C   0  0  0  0  0  3  0  0  0  0  0  0
  190.3820  176.9140  146.8930 C   0  0  0  0  0  1  0  0  0  0  0  0
  187.4830  178.4120  148.3930 C   0  0  0  0  0  3  0  0  0  0  0  0
  1  6  1  0  0  0  0
  1  2  1  0  0  0  0
  2 13  1  0  0  0  0
  3  6  2  0  0  0  0
  4  8  1  0  0  0  0
  4 32  1  0  0  0  0
  5 15  1  0  0  0  0
  6  9  1  0  0  0  0
  7  5  1  0  0  0  0
  7  1  2  0  0  0  0
 10  3  1  0  0  0  0
 11  4  2  0  0  0  0
 12 10  1  0  0  0  0
 12  7  1  0  0  0  0
 13  8  2  0  0  0  0
 14 10  2  0  0  0  0
 15  2  2  0  0  0  0
 15 11  1  0  0  0  0
 16 19  1  0  0  0  0
 17 21  1  1  0  0  0
 17 20  1  0  0  0  0
 17 18  1  0  0  0  0
 18 16  1  0  0  0  0
 19 11  1  6  0  0  0
 20 19  1  0  0  0  0
 22 24  2  0  0  0  0
 23 24  2  0  0  0  0
 24 21  1  0  0  0  0
 25 24  1  0  0  0  0
 26 28  1  0  0  0  0
 26 25  1  0  0  0  0
 27 29  1  0  0  0  0
 27 30  1  0  0  0  0
 29 26  1  0  0  0  0
 30 28  1  0  0  0  0
 32 31  1  1  0  0  0
 32 33  1  0  0  0  0
 33 37  1  0  0  0  0
 34 37  2  0  0  0  0
 35 34  2  0  0  0  0
 36 35  1  0  0  0  0
M  END
>  <MODEL>
5

>  <REMARK>
 VINA RESULT:      -8.4      2.381      3.522
  Name = 
  8 active torsions:
  status: ('A' for Active; 'I' for Inactive)
    1  A    between atoms: C_6  and  C_31
    2  A    between atoms: C_6  and  C_34
    3  A    between atoms: C_7  and  N_21
    4  A    between atoms: C_9  and  C_31
    5  A    between atoms: N_11  and  C_27
    6  A    between atoms: C_20  and  C_25
    7  A    between atoms: N_21  and  S_36
    8  A    between atoms: C_27  and  S_36
                            x       y       z     vdW  Elec       q    Type
                         _______ _______ _______ _____ _____    ______ ____

>  <TORSDO>
F 8

$$$$
=
 OpenBabel10232412403D

 37 41  0  0  1  0  0  0  0  0999 V2000
  188.3930  177.7680  143.5840 C   0  0  0  0  0  0  0  0  0  0  0  0
  187.4430  178.0080  142.5790 C   0  0  0  0  0  0  0  0  0  0  0  0
  189.3280  177.5340  145.7560 N   0  0  0  0  0  0  0  0  0  0  0  0
  185.8320  178.4680  140.3300 C   0  0  0  0  0  0  0  0  0  0  0  0
  189.6340  177.5550  141.3860 S   0  0  0  0  0  0  0  0  0  0  0  0
  188.2380  177.7790  144.9740 C   0  0  0  0  0  0  0  0  0  0  0  0
  189.6500  177.5060  143.0680 C   0  0  0  0  0  0  0  0  0  0  0  0
  185.3000  178.5550  141.6350 C   0  0  0  0  0  3  0  0  0  0  0  0
  186.9760  178.0380  145.5830 N   0  0  0  0  0  1  0  0  0  0  0  0
  190.5580  177.2880  145.2140 C   0  0  0  0  0  0  0  0  0  0  0  0
  187.1980  178.1430  140.1440 C   0  0  0  0  0  0  0  0  0  0  0  0
  190.7220  177.2770  143.8620 N   0  0  0  0  0  2  0  0  0  0  0  0
  186.0970  178.3220  142.7610 C   0  0  0  0  0  3  0  0  0  0  0  0
  191.5420  177.0790  145.9680 O   0  0  0  0  0  0  0  0  0  0  0  0
  187.9800  177.9220  141.2910 C   0  0  0  0  0  0  0  0  0  0  0  0
  188.8680  179.0000  138.5770 N   0  0  0  0  0  2  0  0  0  0  0  0
  189.8180  177.0310  137.5910 C   0  0  1  0  0  3  0  0  0  0  0  0
  189.6210  178.5220  137.4320 C   0  0  0  0  0  2  0  0  0  0  0  0
  187.7700  178.0630  138.7520 C   0  0  1  0  0  3  0  0  0  0  0  0
  188.3110  176.3730  138.3390 S   0  0  0  0  0  0  0  0  0  0  0  0
  190.0270  176.4250  136.2880 N   0  0  0  0  0  2  0  0  0  0  0  0
  191.0640  174.2510  135.2020 O   0  0  0  0  0  0  0  0  0  0  0  0
  190.5770  174.1670  137.5970 O   0  0  0  0  0  0  0  0  0  0  0  0
  191.0640  175.0460  136.4770 S   0  0  0  0  0  0  0  0  0  0  0  0
  192.7500  175.5800  136.8250 C   0  0  0  0  0  2  0  0  0  0  0  0
  193.4980  174.6940  137.7290 N   0  0  0  0  0  0  0  0  0  0  0  0
  195.4460  172.8950  137.8320 S   0  0  0  0  0  0  0  0  0  0  0  0
  194.6080  175.3830  138.2460 N   0  0  0  0  0  2  0  0  0  0  0  0
  193.9860  173.5420  136.9860 C   0  0  0  0  0  2  0  0  0  0  0  0
  195.4830  174.3920  138.8470 C   0  0  0  0  0  2  0  0  0  0  0  0
  184.4830  180.0820  139.2260 O   0  0  0  0  0  1  0  0  0  0  0  0
  184.9570  178.7700  139.1490 C   0  0  2  0  0  3  0  0  0  0  0  0
  183.7940  177.7930  139.0430 C   0  0  0  0  0  2  0  0  0  0  0  0
  184.1400  177.3120  136.6940 C   0  0  0  0  0  0  0  0  0  0  0  0
  184.9520  176.9110  135.7580 C   0  0  0  0  0  3  0  0  0  0  0  0
  186.2850  177.5500  135.6050 C   0  0  0  0  0  1  0  0  0  0  0  0
  183.3250  177.7050  137.6320 C   0  0  0  0  0  3  0  0  0  0  0  0
  1  6  1  0  0  0  0
  2 13  1  0  0  0  0
  2  1  1  0  0  0  0
  4  8  1  0  0  0  0
  5  7  1  0  0  0  0
  6  9  1  0  0  0  0
  6  3  2  0  0  0  0
  7  1  2  0  0  0  0
  7 12  1  0  0  0  0
  8 13  2  0  0  0  0
 10  3  1  0  0  0  0
 10 14  2  0  0  0  0
 11  4  2  0  0  0  0
 11 15  1  0  0  0  0
 12 10  1  0  0  0  0
 15  5  1  0  0  0  0
 15  2  2  0  0  0  0
 16 19  1  0  0  0  0
 17 21  1  6  0  0  0
 17 20  1  0  0  0  0
 18 17  1  0  0  0  0
 18 16  1  0  0  0  0
 19 11  1  1  0  0  0
 20 19  1  0  0  0  0
 21 24  1  0  0  0  0
 22 24  2  0  0  0  0
 24 25  1  0  0  0  0
 24 23  2  0  0  0  0
 25 26  1  0  0  0  0
 26 28  1  0  0  0  0
 27 30  1  0  0  0  0
 28 30  1  0  0  0  0
 29 26  1  0  0  0  0
 29 27  1  0  0  0  0
 32 31  1  1  0  0  0
 32  4  1  0  0  0  0
 33 32  1  0  0  0  0
 34 37  2  0  0  0  0
 35 34  2  0  0  0  0
 36 35  1  0  0  0  0
 37 33  1  0  0  0  0
M  END
>  <MODEL>
6

>  <REMARK>
 VINA RESULT:      -8.4      3.281      7.876
  Name = 
  8 active torsions:
  status: ('A' for Active; 'I' for Inactive)
    1  A    between atoms: C_6  and  C_31
    2  A    between atoms: C_6  and  C_34
    3  A    between atoms: C_7  and  N_21
    4  A    between atoms: C_9  and  C_31
    5  A    between atoms: N_11  and  C_27
    6  A    between atoms: C_20  and  C_25
    7  A    between atoms: N_21  and  S_36
    8  A    between atoms: C_27  and  S_36
                            x       y       z     vdW  Elec       q    Type
                         _______ _______ _______ _____ _____    ______ ____

>  <TORSDO>
F 8

$$$$
=
 OpenBabel10232412403D

 37 41  0  0  1  0  0  0  0  0999 V2000
  188.0970  177.7230  143.6830 C   0  0  0  0  0  0  0  0  0  0  0  0
  187.1560  178.0040  142.6790 C   0  0  0  0  0  0  0  0  0  0  0  0
  189.0090  177.3950  145.8530 N   0  0  0  0  0  0  0  0  0  0  0  0
  185.5680  178.5580  140.4360 C   0  0  0  0  0  0  0  0  0  0  0  0
  189.3630  177.6140  141.4920 S   0  0  0  0  0  0  0  0  0  0  0  0
  187.9270  177.6710  145.0700 C   0  0  0  0  0  0  0  0  0  0  0  0
  189.3610  177.4890  143.1700 C   0  0  0  0  0  0  0  0  0  0  0  0
  185.0210  178.5840  141.7370 C   0  0  0  0  0  3  0  0  0  0  0  0
  186.6570  177.8960  145.6760 N   0  0  0  0  0  1  0  0  0  0  0  0
  190.2460  177.1790  145.3140 C   0  0  0  0  0  0  0  0  0  0  0  0
  186.9380  178.2480  140.2510 C   0  0  0  0  0  0  0  0  0  0  0  0
  190.4250  177.2290  143.9640 N   0  0  0  0  0  2  0  0  0  0  0  0
  185.8080  178.3040  142.8600 C   0  0  0  0  0  3  0  0  0  0  0  0
  191.2220  176.9400  146.0680 O   0  0  0  0  0  0  0  0  0  0  0  0
  187.7080  177.9780  141.3950 C   0  0  0  0  0  0  0  0  0  0  0  0
  188.6480  179.1490  138.7550 N   0  0  0  0  0  2  0  0  0  0  0  0
  189.5620  177.2160  137.6680 C   0  0  1  0  0  3  0  0  0  0  0  0
  189.4040  178.7190  137.5930 C   0  0  0  0  0  2  0  0  0  0  0  0
  187.5250  178.2330  138.8630 C   0  0  1  0  0  3  0  0  0  0  0  0
  188.0280  176.5560  138.3590 S   0  0  0  0  0  0  0  0  0  0  0  0
  189.7720  176.6810  136.3340 N   0  0  0  0  0  2  0  0  0  0  0  0
  190.5870  174.4410  135.1950 O   0  0  0  0  0  0  0  0  0  0  0  0
  190.2720  174.3980  137.6200 O   0  0  0  0  0  0  0  0  0  0  0  0
  190.7300  175.2400  136.4600 S   0  0  0  0  0  0  0  0  0  0  0  0
  192.4670  175.6660  136.6780 C   0  0  0  0  0  2  0  0  0  0  0  0
  193.2160  174.7550  137.5560 N   0  0  0  0  0  0  0  0  0  0  0  0
  195.1330  172.9200  137.5990 S   0  0  0  0  0  0  0  0  0  0  0  0
  194.3470  175.4170  138.0620 N   0  0  0  0  0  2  0  0  0  0  0  0
  193.6700  173.6050  136.7890 C   0  0  0  0  0  2  0  0  0  0  0  0
  195.2150  174.4020  138.6340 C   0  0  0  0  0  2  0  0  0  0  0  0
  184.4830  180.2890  139.2220 O   0  0  0  0  0  1  0  0  0  0  0  0
  184.7040  178.9090  139.2590 C   0  0  2  0  0  3  0  0  0  0  0  0
  183.3790  178.1620  139.2890 C   0  0  0  0  0  2  0  0  0  0  0  0
  181.4450  179.1460  140.3670 C   0  0  0  0  0  0  0  0  0  0  0  0
  180.6490  179.1690  141.3970 C   0  0  0  0  0  3  0  0  0  0  0  0
  180.0100  177.9140  141.8730 C   0  0  0  0  0  1  0  0  0  0  0  0
  182.2470  179.1290  139.3390 C   0  0  0  0  0  3  0  0  0  0  0  0
  1  6  1  0  0  0  0
  2 13  1  0  0  0  0
  2  1  1  0  0  0  0
  4  8  1  0  0  0  0
  5  7  1  0  0  0  0
  6  9  1  0  0  0  0
  6  3  2  0  0  0  0
  7  1  2  0  0  0  0
  7 12  1  0  0  0  0
  8 13  2  0  0  0  0
 10  3  1  0  0  0  0
 10 14  2  0  0  0  0
 11  4  2  0  0  0  0
 11 15  1  0  0  0  0
 12 10  1  0  0  0  0
 15  5  1  0  0  0  0
 15  2  2  0  0  0  0
 16 19  1  0  0  0  0
 17 21  1  6  0  0  0
 17 20  1  0  0  0  0
 18 17  1  0  0  0  0
 18 16  1  0  0  0  0
 19 11  1  1  0  0  0
 20 19  1  0  0  0  0
 21 24  1  0  0  0  0
 22 24  2  0  0  0  0
 24 25  1  0  0  0  0
 24 23  2  0  0  0  0
 25 26  1  0  0  0  0
 26 28  1  0  0  0  0
 27 30  1  0  0  0  0
 28 30  1  0  0  0  0
 29 26  1  0  0  0  0
 29 27  1  0  0  0  0
 32 31  1  1  0  0  0
 32 33  1  0  0  0  0
 32  4  1  0  0  0  0
 33 37  1  0  0  0  0
 34 35  2  0  0  0  0
 35 36  1  0  0  0  0
 37 34  2  0  0  0  0
M  END
>  <MODEL>
7

>  <REMARK>
 VINA RESULT:      -8.4      3.286      7.720
  Name = 
  8 active torsions:
  status: ('A' for Active; 'I' for Inactive)
    1  A    between atoms: C_6  and  C_31
    2  A    between atoms: C_6  and  C_34
    3  A    between atoms: C_7  and  N_21
    4  A    between atoms: C_9  and  C_31
    5  A    between atoms: N_11  and  C_27
    6  A    between atoms: C_20  and  C_25
    7  A    between atoms: N_21  and  S_36
    8  A    between atoms: C_27  and  S_36
                            x       y       z     vdW  Elec       q    Type
                         _______ _______ _______ _____ _____    ______ ____

>  <TORSDO>
F 8

$$$$
=
 OpenBabel10232412403D

 37 41  0  0  1  0  0  0  0  0999 V2000
  182.5000  178.8060  141.8320 C   0  0  0  0  0  0  0  0  0  0  0  0
  183.3690  178.7190  142.9320 C   0  0  0  0  0  0  0  0  0  0  0  0
  180.4790  179.0280  140.6020 N   0  0  0  0  0  0  0  0  0  0  0  0
  185.3710  178.4580  144.8780 C   0  0  0  0  0  0  0  0  0  0  0  0
  184.8080  178.4110  140.8660 S   0  0  0  0  0  0  0  0  0  0  0  0
  181.1150  179.0010  141.8080 C   0  0  0  0  0  0  0  0  0  0  0  0
  183.1600  178.6510  140.6260 C   0  0  0  0  0  0  0  0  0  0  0  0
  184.0250  178.6740  145.2450 C   0  0  0  0  0  3  0  0  0  0  0  0
  180.3630  179.1710  143.0070 N   0  0  0  0  0  1  0  0  0  0  0  0
  181.1590  178.8620  139.4290 C   0  0  0  0  0  0  0  0  0  0  0  0
  185.7250  178.3710  143.5090 C   0  0  0  0  0  0  0  0  0  0  0  0
  182.5080  178.6690  139.4400 N   0  0  0  0  0  2  0  0  0  0  0  0
  183.0220  178.8100  144.2780 C   0  0  0  0  0  3  0  0  0  0  0  0
  180.5370  178.8810  138.3380 O   0  0  0  0  0  0  0  0  0  0  0  0
  184.6980  178.5030  142.5570 C   0  0  0  0  0  0  0  0  0  0  0  0
  187.4920  176.7140  143.1800 N   0  0  0  0  0  2  0  0  0  0  0  0
  188.4560  177.2900  141.0610 C   0  0  1  0  0  3  0  0  0  0  0  0
  188.6770  176.5460  142.3590 C   0  0  0  0  0  2  0  0  0  0  0  0
  187.1600  178.1280  143.1160 C   0  0  1  0  0  3  0  0  0  0  0  0
  187.5300  178.7890  141.4600 S   0  0  0  0  0  0  0  0  0  0  0  0
  189.7390  177.6430  140.4770 N   0  0  0  0  0  2  0  0  0  0  0  0
  189.3600  178.8590  138.1630 O   0  0  0  0  0  0  0  0  0  0  0  0
  188.4910  176.5830  138.3710 O   0  0  0  0  0  0  0  0  0  0  0  0
  189.6200  177.5020  138.7520 S   0  0  0  0  0  0  0  0  0  0  0  0
  191.1640  176.8660  138.0730 C   0  0  0  0  0  2  0  0  0  0  0  0
  191.0000  175.7970  137.0770 N   0  0  0  0  0  0  0  0  0  0  0  0
  192.3200  174.1890  135.4300 S   0  0  0  0  0  0  0  0  0  0  0  0
  191.0230  174.5490  137.7210 N   0  0  0  0  0  2  0  0  0  0  0  0
  192.1070  175.8390  136.1330 C   0  0  0  0  0  2  0  0  0  0  0  0
  191.1980  173.5400  136.6910 C   0  0  0  0  0  2  0  0  0  0  0  0
  186.4380  176.9370  146.3590 O   0  0  0  0  0  1  0  0  0  0  0  0
  186.4110  178.2710  145.9430 C   0  0  2  0  0  3  0  0  0  0  0  0
  186.1730  179.1910  147.1320 C   0  0  0  0  0  2  0  0  0  0  0  0
  188.1610  178.3560  148.2370 C   0  0  0  0  0  0  0  0  0  0  0  0
  189.4200  178.0370  148.1490 C   0  0  0  0  0  3  0  0  0  0  0  0
  189.8810  177.1090  147.0830 C   0  0  0  0  0  1  0  0  0  0  0  0
  186.9020  178.6820  148.3280 C   0  0  0  0  0  3  0  0  0  0  0  0
  1  2  1  0  0  0  0
  2 13  1  0  0  0  0
  3  6  2  0  0  0  0
  4  8  1  0  0  0  0
  4 32  1  0  0  0  0
  5 15  1  0  0  0  0
  6  1  1  0  0  0  0
  6  9  1  0  0  0  0
  7  5  1  0  0  0  0
  7  1  2  0  0  0  0
 10 12  1  0  0  0  0
 10  3  1  0  0  0  0
 11  4  2  0  0  0  0
 12  7  1  0  0  0  0
 13  8  2  0  0  0  0
 14 10  2  0  0  0  0
 15  2  2  0  0  0  0
 15 11  1  0  0  0  0
 17 21  1  1  0  0  0
 17 20  1  0  0  0  0
 17 18  1  0  0  0  0
 18 16  1  0  0  0  0
 19 16  1  0  0  0  0
 19 11  1  6  0  0  0
 20 19  1  0  0  0  0
 22 24  2  0  0  0  0
 23 24  2  0  0  0  0
 24 21  1  0  0  0  0
 25 24  1  0  0  0  0
 26 28  1  0  0  0  0
 26 25  1  0  0  0  0
 27 29  1  0  0  0  0
 27 30  1  0  0  0  0
 29 26  1  0  0  0  0
 30 28  1  0  0  0  0
 32 31  1  1  0  0  0
 32 33  1  0  0  0  0
 33 37  1  0  0  0  0
 34 37  2  0  0  0  0
 35 34  2  0  0  0  0
 36 35  1  0  0  0  0
M  END
>  <MODEL>
8

>  <REMARK>
 VINA RESULT:      -8.2      2.792      4.782
  Name = 
  8 active torsions:
  status: ('A' for Active; 'I' for Inactive)
    1  A    between atoms: C_6  and  C_31
    2  A    between atoms: C_6  and  C_34
    3  A    between atoms: C_7  and  N_21
    4  A    between atoms: C_9  and  C_31
    5  A    between atoms: N_11  and  C_27
    6  A    between atoms: C_20  and  C_25
    7  A    between atoms: N_21  and  S_36
    8  A    between atoms: C_27  and  S_36
                            x       y       z     vdW  Elec       q    Type
                         _______ _______ _______ _____ _____    ______ ____

>  <TORSDO>
F 8

$$$$
=
 OpenBabel10232412403D

 37 41  0  0  1  0  0  0  0  0999 V2000
  187.6310  177.7350  143.8340 C   0  0  0  0  0  0  0  0  0  0  0  0
  186.7650  178.0220  142.7670 C   0  0  0  0  0  0  0  0  0  0  0  0
  188.3840  177.3850  146.0610 N   0  0  0  0  0  0  0  0  0  0  0  0
  185.3410  178.5940  140.4200 C   0  0  0  0  0  0  0  0  0  0  0  0
  189.0560  177.6640  141.7410 S   0  0  0  0  0  0  0  0  0  0  0  0
  187.3590  177.6630  145.2050 C   0  0  0  0  0  0  0  0  0  0  0  0
  188.9310  177.5170  143.4130 C   0  0  0  0  0  0  0  0  0  0  0  0
  184.7000  178.5990  141.6780 C   0  0  0  0  0  3  0  0  0  0  0  0
  186.0460  177.8720  145.7180 N   0  0  0  0  0  1  0  0  0  0  0  0
  189.6580  177.1850  145.6130 C   0  0  0  0  0  0  0  0  0  0  0  0
  186.7230  178.2960  140.3330 C   0  0  0  0  0  0  0  0  0  0  0  0
  189.9360  177.2540  144.2800 N   0  0  0  0  0  2  0  0  0  0  0  0
  185.4040  178.3100  142.8520 C   0  0  0  0  0  3  0  0  0  0  0  0
  190.5780  176.9430  146.4330 O   0  0  0  0  0  0  0  0  0  0  0  0
  187.4100  178.0170  141.5270 C   0  0  0  0  0  0  0  0  0  0  0  0
  188.6950  178.9820  139.0610 N   0  0  0  0  0  2  0  0  0  0  0  0
  189.3070  177.0250  137.8170 C   0  0  1  0  0  3  0  0  0  0  0  0
  189.4490  178.5280  137.9060 C   0  0  0  0  0  2  0  0  0  0  0  0
  187.4110  178.3030  138.9920 C   0  0  1  0  0  3  0  0  0  0  0  0
  187.6230  176.6190  138.3300 S   0  0  0  0  0  0  0  0  0  0  0  0
  189.5230  176.5950  136.4470 N   0  0  0  0  0  2  0  0  0  0  0  0
  190.7590  174.7550  137.8820 O   0  0  0  0  0  0  0  0  0  0  0  0
  191.6420  175.1880  135.6430 O   0  0  0  0  0  0  0  0  0  0  0  0
  190.3860  175.0900  136.4660 S   0  0  0  0  0  0  0  0  0  0  0  0
  189.3460  173.7700  135.8160 C   0  0  0  0  0  2  0  0  0  0  0  0
  187.9190  173.8970  136.1440 N   0  0  0  0  0  0  0  0  0  0  0  0
  185.4870  173.0760  135.4670 S   0  0  0  0  0  0  0  0  0  0  0  0
  187.5730  172.9360  137.1090 N   0  0  0  0  0  2  0  0  0  0  0  0
  187.1220  173.6480  134.9520 C   0  0  0  0  0  2  0  0  0  0  0  0
  186.1220  172.8750  137.1490 C   0  0  0  0  0  2  0  0  0  0  0  0
  184.4820  180.3440  139.0620 O   0  0  0  0  0  1  0  0  0  0  0  0
  184.5640  178.9540  139.1880 C   0  0  2  0  0  3  0  0  0  0  0  0
  183.1710  178.3410  139.2000 C   0  0  0  0  0  2  0  0  0  0  0  0
  183.1330  177.6000  136.8940 C   0  0  0  0  0  0  0  0  0  0  0  0
  183.6610  176.8540  135.9660 C   0  0  0  0  0  3  0  0  0  0  0  0
  185.1210  176.9210  135.6970 C   0  0  0  0  0  1  0  0  0  0  0  0
  182.5990  178.3400  137.8240 C   0  0  0  0  0  3  0  0  0  0  0  0
  1  6  1  0  0  0  0
  2 13  1  0  0  0  0
  2  1  1  0  0  0  0
  4  8  1  0  0  0  0
  5  7  1  0  0  0  0
  6  9  1  0  0  0  0
  6  3  2  0  0  0  0
  7  1  2  0  0  0  0
  7 12  1  0  0  0  0
  8 13  2  0  0  0  0
 10  3  1  0  0  0  0
 10 14  2  0  0  0  0
 11  4  2  0  0  0  0
 11 15  1  0  0  0  0
 12 10  1  0  0  0  0
 15  5  1  0  0  0  0
 15  2  2  0  0  0  0
 17 21  1  6  0  0  0
 17 18  1  0  0  0  0
 17 20  1  0  0  0  0
 18 16  1  0  0  0  0
 19 16  1  0  0  0  0
 19 11  1  1  0  0  0
 20 19  1  0  0  0  0
 21 24  1  0  0  0  0
 23 24  2  0  0  0  0
 24 22  2  0  0  0  0
 25 26  1  0  0  0  0
 25 24  1  0  0  0  0
 26 28  1  0  0  0  0
 27 30  1  0  0  0  0
 28 30  1  0  0  0  0
 29 27  1  0  0  0  0
 29 26  1  0  0  0  0
 32 31  1  1  0  0  0
 32 33  1  0  0  0  0
 32  4  1  0  0  0  0
 34 37  2  0  0  0  0
 35 34  2  0  0  0  0
 36 35  1  0  0  0  0
 37 33  1  0  0  0  0
M  END
>  <MODEL>
9

>  <REMARK>
 VINA RESULT:      -8.1      2.877      7.098
  Name = 
  8 active torsions:
  status: ('A' for Active; 'I' for Inactive)
    1  A    between atoms: C_6  and  C_31
    2  A    between atoms: C_6  and  C_34
    3  A    between atoms: C_7  and  N_21
    4  A    between atoms: C_9  and  C_31
    5  A    between atoms: N_11  and  C_27
    6  A    between atoms: C_20  and  C_25
    7  A    between atoms: N_21  and  S_36
    8  A    between atoms: C_27  and  S_36
                            x       y       z     vdW  Elec       q    Type
                         _______ _______ _______ _____ _____    ______ ____

>  <TORSDO>
F 8

$$$$
