=
 OpenBabel10232412183D

 56 58  0  0  1  0  0  0  0  0999 V2000
  188.5550  173.2310  135.5800 C   0  0  1  0  0  3  0  0  0  0  0  0
  189.6150  171.3730  134.3510 N   0  0  0  0  0  2  0  0  0  0  0  0
  190.6880  174.4220  135.9360 C   0  0  0  0  0  0  0  0  0  0  0  0
  191.8500  172.0010  134.7580 O   0  0  0  0  0  0  0  0  0  0  0  0
  190.0440  173.3150  135.6700 C   0  0  0  0  0  0  0  0  0  0  0  0
  190.6150  172.2080  134.9110 C   0  0  0  0  0  0  0  0  0  0  0  0
  188.3910  171.9880  134.7480 C   0  0  0  0  0  0  0  0  0  0  0  0
  187.2690  171.5280  134.4040 O   0  0  0  0  0  0  0  0  0  0  0  0
  191.3390  175.5280  136.1990 C   0  0  0  0  0  3  0  0  0  0  0  0
  192.9970  177.0590  139.2980 C   0  0  0  0  0  1  0  0  0  0  0  0
  192.7760  176.5160  137.9150 C   0  0  0  0  0  0  0  0  0  0  0  0
  191.5700  176.0120  137.5760 C   0  0  0  0  0  0  0  0  0  0  0  0
  193.8110  176.6040  136.9200 N   0  0  0  0  0  0  0  0  0  0  0  0
  194.5850  175.6450  136.4930 C   0  0  0  0  0  3  0  0  0  0  0  0
  194.4800  174.2150  136.9260 C   0  0  0  0  0  2  0  0  0  0  0  0
  195.5770  173.8740  137.9230 C   0  0  0  0  0  2  0  0  0  0  0  0
  195.4540  172.4400  138.4090 C   0  0  0  0  0  2  0  0  0  0  0  0
  195.7700  171.5150  137.3350 N   0  0  0  0  0  2  0  0  0  0  0  0
  195.2110  170.2220  137.6930 C   0  0  0  0  0  2  0  0  0  0  0  0
  194.1350  169.8310  136.6970 C   0  0  0  0  0  1  0  0  0  0  0  0
  190.4390  175.9690  138.5710 C   0  0  0  0  0  2  0  0  0  0  0  0
  189.8720  177.3020  138.7290 N   0  0  0  0  0  2  0  0  0  0  0  0
  188.9470  177.2530  139.8510 C   0  0  0  0  0  2  0  0  0  0  0  0
  189.6620  177.6220  141.1470 C   0  0  2  0  0  3  0  0  0  0  0  0
  190.4430  176.4160  141.6440 C   0  0  0  0  0  1  0  0  0  0  0  0
  188.6520  178.0830  142.1900 C   0  0  1  0  0  3  0  0  0  0  0  0
  187.8290  179.0820  141.6540 O   0  0  0  0  0  1  0  0  0  0  0  0
  187.7900  176.9150  142.6430 C   0  0  0  0  0  2  0  0  0  0  0  0
  187.4220  177.0600  144.1120 C   0  0  0  0  0  2  0  0  0  0  0  0
  189.6080  176.6110  144.9820 O   0  0  0  0  0  1  0  0  0  0  0  0
  188.6090  177.5890  144.9060 C   0  0  2  0  0  3  0  0  0  0  0  0
  186.8740  177.5650  146.5780 O   0  0  0  0  0  1  0  0  0  0  0  0
  189.1310  177.4940  147.3480 C   0  0  0  0  0  1  0  0  0  0  0  0
  188.1670  178.0240  146.3000 C   0  0  1  0  0  3  0  0  0  0  0  0
  187.9980  173.0050  136.9090 N   0  0  0  0  0  2  0  0  0  0  0  0
  185.6210  173.1720  138.1020 O   0  0  0  0  0  0  0  0  0  0  0  0
  186.4480  173.7770  136.9970 S   0  0  0  0  0  0  0  0  0  0  0  0
  185.7280  173.6100  135.6910 O   0  0  0  0  0  0  0  0  0  0  0  0
  186.7100  175.5110  137.3150 C   0  0  0  0  0  2  0  0  0  0  0  0
  185.9620  176.3920  136.3060 C   0  0  1  0  0  3  0  0  0  0  0  0
  183.1470  178.3020  138.1590 C   0  0  2  0  0  3  0  0  0  0  0  0
  182.1490  176.6320  136.4460 C   0  0  0  0  0  3  0  0  0  0  0  0
  183.3720  176.1720  136.1850 C   0  0  0  0  0  3  0  0  0  0  0  0
  180.8430  178.3380  137.4250 O   0  0  0  0  0  0  0  0  0  0  0  0
  184.5830  176.8320  136.7310 C   0  0  0  0  0  0  0  0  0  0  0  0
  181.9750  177.7950  137.3260 C   0  0  0  0  0  0  0  0  0  0  0  0
  184.4760  177.8410  137.6110 C   0  0  0  0  0  3  0  0  0  0  0  0
  183.0360  177.9530  139.5880 N   0  0  0  0  0  0  0  0  0  0  0  0
  184.7510  178.8950  141.2230 C   0  0  0  0  0  2  0  0  0  0  0  0
  184.1570  178.4980  142.5690 C   0  0  0  0  0  2  0  0  0  0  0  0
  182.7200  178.9880  142.7070 C   0  0  0  0  0  2  0  0  0  0  0  0
  184.3940  177.8500  140.1600 C   0  0  0  0  0  2  0  0  0  0  0  0
  181.7940  178.3300  141.6910 C   0  0  0  0  0  2  0  0  0  0  0  0
  182.1080  178.8540  140.2950 C   0  0  0  0  0  2  0  0  0  0  0  0
  188.0770  176.9970  135.6520 C   0  0  0  0  0  1  0  0  0  0  0  0
  186.7560  177.4490  135.8030 O   0  0  0  0  0  0  0  0  0  0  0  0
  1  5  1  0  0  0  0
  1 35  1  1  0  0  0
  2  7  1  0  0  0  0
  2  6  1  0  0  0  0
  3  9  2  0  0  0  0
  4  6  2  0  0  0  0
  5  3  2  0  0  0  0
  6  5  1  0  0  0  0
  7  1  1  0  0  0  0
  8  7  2  0  0  0  0
  9 12  1  0  0  0  0
 11 10  1  0  0  0  0
 12 11  2  0  0  0  0
 12 21  1  0  0  0  0
 13 11  1  0  0  0  0
 14 13  2  0  0  0  0
 14 15  1  0  0  0  0
 15 16  1  0  0  0  0
 16 17  1  0  0  0  0
 18 19  1  0  0  0  0
 18 17  1  0  0  0  0
 20 19  1  0  0  0  0
 21 22  1  0  0  0  0
 22 23  1  0  0  0  0
 23 24  1  0  0  0  0
 24 25  1  1  0  0  0
 24 26  1  0  0  0  0
 26 27  1  6  0  0  0
 26 28  1  0  0  0  0
 28 29  1  0  0  0  0
 29 31  1  0  0  0  0
 31 30  1  1  0  0  0
 31 34  1  0  0  0  0
 34 32  1  0  0  0  0
 34 33  1  1  0  0  0
 35 37  1  0  0  0  0
 37 39  1  0  0  0  0
 37 36  2  0  0  0  0
 38 37  2  0  0  0  0
 40 45  1  0  0  0  0
 40 39  1  1  0  0  0
 41 47  1  6  0  0  0
 41 48  1  0  0  0  0
 42 46  1  0  0  0  0
 43 42  2  0  0  0  0
 43 45  1  0  0  0  0
 45 47  2  0  0  0  0
 46 44  2  0  0  0  0
 46 41  1  0  0  0  0
 48 52  1  0  0  0  0
 48 54  1  0  0  0  0
 49 50  1  0  0  0  0
 50 51  1  0  0  0  0
 52 49  1  0  0  0  0
 53 51  1  0  0  0  0
 54 53  1  0  0  0  0
 55 56  1  0  0  0  0
 56 40  1  0  0  0  0
M  END
>  <MODEL>
1

>  <REMARK>
 VINA RESULT:      -5.8      0.000      0.000
  Name = 
  23 active torsions:
  status: ('A' for Active; 'I' for Inactive)
    1  A    between atoms: C_1  and  C_8
    2  A    between atoms: C_1  and  C_31
    3  A    between atoms: C_2  and  N_46
    4  A    between atoms: C_4  and  C_7
    5  A    between atoms: C_4  and  C_36
    6  A    between atoms: N_6  and  C_43
    7  A    between atoms: C_7  and  C_20
    8  A    between atoms: C_8  and  C_42
    9  A    between atoms: C_9  and  N_14
   10  A    between atoms: C_11  and  N_21
   11  A    between atoms: C_20  and  C_23
   12  A    between atoms: N_21  and  C_31
   13  A    between atoms: C_22  and  C_26
   14  A    between atoms: C_22  and  O_28
   15  A    between atoms: C_22  and  C_38
   16  A    between atoms: C_23  and  N_51
   17  A    between atoms: C_26  and  S_39
   18  A    between atoms: C_32  and  N_51
   19  A    between atoms: C_32  and  C_54
   20  A    between atoms: C_36  and  C_56
   21  A    between atoms: S_39  and  N_46
   22  A    between atoms: C_41  and  C_54
   23  A    between atoms: C_53  and  C_56
                            x       y       z     vdW  Elec       q    Type
                         _______ _______ _______ _____ _____    ______ ____

>  <TORSDO>
F 23

$$$$
=
 OpenBabel10232412183D

 56 58  0  0  1  0  0  0  0  0999 V2000
  190.5900  176.2530  136.7960 C   0  0  1  0  0  3  0  0  0  0  0  0
  189.4550  176.3870  134.6100 N   0  0  0  0  0  2  0  0  0  0  0  0
  188.5500  176.8220  138.0670 C   0  0  0  0  0  0  0  0  0  0  0  0
  187.4180  177.2700  135.4000 O   0  0  0  0  0  0  0  0  0  0  0  0
  189.2200  176.8310  136.9430 C   0  0  0  0  0  0  0  0  0  0  0  0
  188.5910  176.8660  135.6260 C   0  0  0  0  0  0  0  0  0  0  0  0
  190.6410  176.0190  135.3110 C   0  0  0  0  0  0  0  0  0  0  0  0
  191.6380  175.5200  134.7230 O   0  0  0  0  0  0  0  0  0  0  0  0
  187.8750  176.8150  139.1890 C   0  0  0  0  0  3  0  0  0  0  0  0
  189.4060  178.9820  141.9570 C   0  0  0  0  0  1  0  0  0  0  0  0
  189.2050  177.9030  140.9310 C   0  0  0  0  0  0  0  0  0  0  0  0
  188.0500  177.8440  140.2350 C   0  0  0  0  0  0  0  0  0  0  0  0
  190.2650  176.9810  140.6210 N   0  0  0  0  0  0  0  0  0  0  0  0
  190.8940  176.1890  141.4460 C   0  0  0  0  0  3  0  0  0  0  0  0
  190.5610  176.0410  142.8980 C   0  0  0  0  0  2  0  0  0  0  0  0
  191.6530  176.6510  143.7640 C   0  0  0  0  0  2  0  0  0  0  0  0
  191.5960  176.1130  145.1840 C   0  0  0  0  0  2  0  0  0  0  0  0
  190.9080  177.0500  146.0520 N   0  0  0  0  0  2  0  0  0  0  0  0
  191.2270  176.6920  147.4240 C   0  0  0  0  0  2  0  0  0  0  0  0
  192.3880  175.7140  147.4460 C   0  0  0  0  0  1  0  0  0  0  0  0
  186.9440  178.8380  140.4810 C   0  0  0  0  0  2  0  0  0  0  0  0
  186.2280  178.4850  141.7000 N   0  0  0  0  0  2  0  0  0  0  0  0
  184.9640  179.2050  141.6870 C   0  0  0  0  0  2  0  0  0  0  0  0
  183.9150  178.4520  142.5000 C   0  0  2  0  0  3  0  0  0  0  0  0
  182.7850  178.0220  141.5770 C   0  0  0  0  0  1  0  0  0  0  0  0
  183.3900  179.3370  143.6250 C   0  0  1  0  0  3  0  0  0  0  0  0
  182.2370  178.7690  144.1830 O   0  0  0  0  0  1  0  0  0  0  0  0
  184.4440  179.4960  144.7080 C   0  0  0  0  0  2  0  0  0  0  0  0
  185.1230  178.1640  144.9930 C   0  0  0  0  0  2  0  0  0  0  0  0
  185.5870  179.4350  146.9700 O   0  0  0  0  0  1  0  0  0  0  0  0
  185.8090  178.1980  146.3520 C   0  0  2  0  0  3  0  0  0  0  0  0
  187.7620  177.0900  147.2260 O   0  0  0  0  0  1  0  0  0  0  0  0
  187.5910  177.2870  144.8550 C   0  0  0  0  0  1  0  0  0  0  0  0
  187.3030  177.9270  146.2020 C   0  0  1  0  0  3  0  0  0  0  0  0
  191.5830  177.2550  137.1670 N   0  0  0  0  0  2  0  0  0  0  0  0
  193.4480  176.8510  139.0270 O   0  0  0  0  0  0  0  0  0  0  0  0
  193.0400  176.4400  137.6360 S   0  0  0  0  0  0  0  0  0  0  0  0
  194.1400  176.7840  136.6750 O   0  0  0  0  0  0  0  0  0  0  0  0
  192.7350  174.6860  137.5870 C   0  0  0  0  0  2  0  0  0  0  0  0
  193.8190  173.9430  136.7970 C   0  0  1  0  0  3  0  0  0  0  0  0
  197.6660  174.3980  136.8360 C   0  0  2  0  0  3  0  0  0  0  0  0
  196.7200  174.3830  139.2490 C   0  0  0  0  0  3  0  0  0  0  0  0
  195.5090  174.1000  138.7700 C   0  0  0  0  0  3  0  0  0  0  0  0
  198.9110  175.1250  138.7780 O   0  0  0  0  0  0  0  0  0  0  0  0
  195.2270  174.1170  137.3140 C   0  0  0  0  0  0  0  0  0  0  0  0
  197.8230  174.6810  138.3260 C   0  0  0  0  0  0  0  0  0  0  0  0
  196.2170  174.2950  136.4260 C   0  0  0  0  0  3  0  0  0  0  0  0
  198.4080  173.2020  136.3920 N   0  0  0  0  0  0  0  0  0  0  0  0
  197.2530  170.9310  136.4830 C   0  0  0  0  0  2  0  0  0  0  0  0
  198.2460  170.0410  135.7460 C   0  0  0  0  0  2  0  0  0  0  0  0
  198.5750  170.6020  134.3670 C   0  0  0  0  0  2  0  0  0  0  0  0
  197.9950  172.0510  137.2210 C   0  0  0  0  0  2  0  0  0  0  0  0
  199.2850  171.9460  134.4530 C   0  0  0  0  0  2  0  0  0  0  0  0
  198.3090  173.0130  134.9340 C   0  0  0  0  0  2  0  0  0  0  0  0
  193.4400  172.3970  135.1440 C   0  0  0  0  0  1  0  0  0  0  0  0
  193.4840  172.5940  136.5340 O   0  0  0  0  0  0  0  0  0  0  0  0
  1  5  1  0  0  0  0
  1 35  1  6  0  0  0
  2  7  1  0  0  0  0
  2  6  1  0  0  0  0
  3  9  2  0  0  0  0
  4  6  2  0  0  0  0
  5  3  2  0  0  0  0
  6  5  1  0  0  0  0
  7  1  1  0  0  0  0
  8  7  2  0  0  0  0
  9 12  1  0  0  0  0
 11 10  1  0  0  0  0
 12 21  1  0  0  0  0
 12 11  2  0  0  0  0
 13 11  1  0  0  0  0
 13 14  2  0  0  0  0
 14 15  1  0  0  0  0
 15 16  1  0  0  0  0
 16 17  1  0  0  0  0
 17 18  1  0  0  0  0
 18 19  1  0  0  0  0
 19 20  1  0  0  0  0
 21 22  1  0  0  0  0
 23 22  1  0  0  0  0
 23 24  1  0  0  0  0
 24 25  1  6  0  0  0
 24 26  1  0  0  0  0
 26 27  1  1  0  0  0
 26 28  1  0  0  0  0
 28 29  1  0  0  0  0
 29 31  1  0  0  0  0
 31 30  1  6  0  0  0
 34 33  1  6  0  0  0
 34 31  1  0  0  0  0
 34 32  1  0  0  0  0
 35 37  1  0  0  0  0
 37 36  2  0  0  0  0
 38 37  2  0  0  0  0
 39 37  1  0  0  0  0
 40 45  1  0  0  0  0
 40 39  1  1  0  0  0
 41 48  1  1  0  0  0
 41 46  1  0  0  0  0
 43 42  2  0  0  0  0
 45 43  1  0  0  0  0
 46 44  2  0  0  0  0
 46 42  1  0  0  0  0
 47 41  1  0  0  0  0
 47 45  2  0  0  0  0
 48 52  1  0  0  0  0
 49 52  1  0  0  0  0
 50 49  1  0  0  0  0
 51 53  1  0  0  0  0
 51 50  1  0  0  0  0
 53 54  1  0  0  0  0
 54 48  1  0  0  0  0
 55 56  1  0  0  0  0
 56 40  1  0  0  0  0
M  END
>  <MODEL>
2

>  <REMARK>
 VINA RESULT:      -5.7      3.195      9.833
  Name = 
  23 active torsions:
  status: ('A' for Active; 'I' for Inactive)
    1  A    between atoms: C_1  and  C_8
    2  A    between atoms: C_1  and  C_31
    3  A    between atoms: C_2  and  N_46
    4  A    between atoms: C_4  and  C_7
    5  A    between atoms: C_4  and  C_36
    6  A    between atoms: N_6  and  C_43
    7  A    between atoms: C_7  and  C_20
    8  A    between atoms: C_8  and  C_42
    9  A    between atoms: C_9  and  N_14
   10  A    between atoms: C_11  and  N_21
   11  A    between atoms: C_20  and  C_23
   12  A    between atoms: N_21  and  C_31
   13  A    between atoms: C_22  and  C_26
   14  A    between atoms: C_22  and  O_28
   15  A    between atoms: C_22  and  C_38
   16  A    between atoms: C_23  and  N_51
   17  A    between atoms: C_26  and  S_39
   18  A    between atoms: C_32  and  N_51
   19  A    between atoms: C_32  and  C_54
   20  A    between atoms: C_36  and  C_56
   21  A    between atoms: S_39  and  N_46
   22  A    between atoms: C_41  and  C_54
   23  A    between atoms: C_53  and  C_56
                            x       y       z     vdW  Elec       q    Type
                         _______ _______ _______ _____ _____    ______ ____

>  <TORSDO>
F 23

$$$$
=
 OpenBabel10232412183D

 56 58  0  0  1  0  0  0  0  0999 V2000
  182.8390  178.5400  139.7590 C   0  0  1  0  0  3  0  0  0  0  0  0
  180.4050  178.3390  139.4110 N   0  0  0  0  0  2  0  0  0  0  0  0
  183.3950  177.2340  137.7380 C   0  0  0  0  0  0  0  0  0  0  0  0
  180.4970  176.7960  137.6330 O   0  0  0  0  0  0  0  0  0  0  0  0
  182.5360  177.5640  138.6690 C   0  0  0  0  0  0  0  0  0  0  0  0
  181.0890  177.5030  138.4940 C   0  0  0  0  0  0  0  0  0  0  0  0
  181.4500  178.9580  140.1590 C   0  0  0  0  0  0  0  0  0  0  0  0
  181.2150  179.8020  141.0650 O   0  0  0  0  0  0  0  0  0  0  0  0
  184.2490  176.9020  136.8030 C   0  0  0  0  0  3  0  0  0  0  0  0
  187.6140  175.1370  137.3190 C   0  0  0  0  0  1  0  0  0  0  0  0
  186.5760  176.1950  137.0740 C   0  0  0  0  0  0  0  0  0  0  0  0
  185.2730  175.8520  136.9910 C   0  0  0  0  0  0  0  0  0  0  0  0
  186.9470  177.5830  137.0100 N   0  0  0  0  0  0  0  0  0  0  0  0
  187.6220  178.2660  137.8940 C   0  0  0  0  0  3  0  0  0  0  0  0
  188.2140  177.6860  139.1410 C   0  0  0  0  0  2  0  0  0  0  0  0
  189.7140  177.9340  139.1890 C   0  0  0  0  0  2  0  0  0  0  0  0
  190.4920  176.6520  138.9440 C   0  0  0  0  0  2  0  0  0  0  0  0
  191.4300  176.8320  137.8500 N   0  0  0  0  0  2  0  0  0  0  0  0
  192.2260  175.6200  137.7530 C   0  0  0  0  0  2  0  0  0  0  0  0
  191.3290  174.4330  137.4500 C   0  0  0  0  0  1  0  0  0  0  0  0
  184.8380  174.4160  137.1250 C   0  0  0  0  0  2  0  0  0  0  0  0
  183.4760  174.3600  137.6390 N   0  0  0  0  0  2  0  0  0  0  0  0
  182.9380  173.0490  137.3060 C   0  0  0  0  0  2  0  0  0  0  0  0
  182.5860  172.9790  135.8240 C   0  0  2  0  0  3  0  0  0  0  0  0
  181.6140  174.1010  135.4900 C   0  0  0  0  0  1  0  0  0  0  0  0
  181.9800  171.6210  135.4920 C   0  0  1  0  0  3  0  0  0  0  0  0
  181.1810  171.7180  134.3460 O   0  0  0  0  0  1  0  0  0  0  0  0
  183.0790  170.5970  135.2500 C   0  0  0  0  0  2  0  0  0  0  0  0
  184.1780  171.1890  134.3790 C   0  0  0  0  0  2  0  0  0  0  0  0
  185.2320  169.2240  135.2540 O   0  0  0  0  0  1  0  0  0  0  0  0
  185.4790  170.4230  134.5740 C   0  0  2  0  0  3  0  0  0  0  0  0
  187.7000  170.5890  135.4930 O   0  0  0  0  0  1  0  0  0  0  0  0
  186.7440  172.5780  134.5880 C   0  0  0  0  0  1  0  0  0  0  0  0
  186.4920  171.2770  135.3300 C   0  0  1  0  0  3  0  0  0  0  0  0
  183.4780  177.8450  140.8700 N   0  0  0  0  0  2  0  0  0  0  0  0
  185.3240  179.6520  140.2140 O   0  0  0  0  0  0  0  0  0  0  0  0
  184.9050  178.7220  141.3230 S   0  0  0  0  0  0  0  0  0  0  0  0
  186.0190  177.7580  141.6080 O   0  0  0  0  0  0  0  0  0  0  0  0
  184.5370  179.6580  142.7940 C   0  0  0  0  0  2  0  0  0  0  0  0
  184.0790  178.7510  143.9430 C   0  0  1  0  0  3  0  0  0  0  0  0
  187.4880  178.4970  145.7660 C   0  0  2  0  0  3  0  0  0  0  0  0
  185.5350  178.0350  147.4050 C   0  0  0  0  0  3  0  0  0  0  0  0
  184.6720  178.1010  146.3920 C   0  0  0  0  0  3  0  0  0  0  0  0
  187.7240  178.4740  148.1730 O   0  0  0  0  0  0  0  0  0  0  0  0
  185.0950  178.5380  145.0390 C   0  0  0  0  0  0  0  0  0  0  0  0
  186.9500  178.3590  147.1850 C   0  0  0  0  0  0  0  0  0  0  0  0
  186.3900  178.7580  144.7640 C   0  0  0  0  0  3  0  0  0  0  0  0
  188.3020  177.3420  145.3400 N   0  0  0  0  0  0  0  0  0  0  0  0
  188.8450  177.0630  142.8650 C   0  0  0  0  0  2  0  0  0  0  0  0
  189.8590  175.9260  142.8890 C   0  0  0  0  0  2  0  0  0  0  0  0
  191.0200  176.2380  143.8270 C   0  0  0  0  0  2  0  0  0  0  0  0
  187.8400  176.8980  144.0090 C   0  0  0  0  0  2  0  0  0  0  0  0
  190.5670  176.3540  145.2760 C   0  0  0  0  0  2  0  0  0  0  0  0
  189.7450  177.6240  145.4580 C   0  0  0  0  0  2  0  0  0  0  0  0
  181.8490  178.2180  143.8560 C   0  0  0  0  0  1  0  0  0  0  0  0
  182.7940  179.0840  144.4300 O   0  0  0  0  0  0  0  0  0  0  0  0
  1  7  1  0  0  0  0
  1 35  1  1  0  0  0
  2  7  1  0  0  0  0
  3  5  2  0  0  0  0
  4  6  2  0  0  0  0
  5  1  1  0  0  0  0
  6  5  1  0  0  0  0
  6  2  1  0  0  0  0
  7  8  2  0  0  0  0
  9 12  1  0  0  0  0
  9  3  2  0  0  0  0
 11 10  1  0  0  0  0
 12 11  2  0  0  0  0
 12 21  1  0  0  0  0
 13 11  1  0  0  0  0
 13 14  2  0  0  0  0
 14 15  1  0  0  0  0
 15 16  1  0  0  0  0
 17 16  1  0  0  0  0
 18 17  1  0  0  0  0
 19 18  1  0  0  0  0
 20 19  1  0  0  0  0
 21 22  1  0  0  0  0
 23 22  1  0  0  0  0
 24 25  1  1  0  0  0
 24 23  1  0  0  0  0
 26 27  1  6  0  0  0
 26 24  1  0  0  0  0
 28 26  1  0  0  0  0
 29 31  1  0  0  0  0
 29 28  1  0  0  0  0
 31 30  1  1  0  0  0
 31 34  1  0  0  0  0
 34 33  1  6  0  0  0
 34 32  1  0  0  0  0
 35 37  1  0  0  0  0
 36 37  2  0  0  0  0
 37 38  2  0  0  0  0
 37 39  1  0  0  0  0
 40 39  1  6  0  0  0
 40 56  1  0  0  0  0
 40 45  1  0  0  0  0
 41 47  1  6  0  0  0
 41 46  1  0  0  0  0
 43 42  2  0  0  0  0
 45 43  1  0  0  0  0
 46 42  1  0  0  0  0
 46 44  2  0  0  0  0
 47 45  2  0  0  0  0
 48 54  1  0  0  0  0
 48 41  1  0  0  0  0
 49 50  1  0  0  0  0
 49 52  1  0  0  0  0
 50 51  1  0  0  0  0
 51 53  1  0  0  0  0
 52 48  1  0  0  0  0
 53 54  1  0  0  0  0
 55 56  1  0  0  0  0
M  END
>  <MODEL>
3

>  <REMARK>
 VINA RESULT:      -5.7      2.924      9.388
  Name = 
  23 active torsions:
  status: ('A' for Active; 'I' for Inactive)
    1  A    between atoms: C_1  and  C_8
    2  A    between atoms: C_1  and  C_31
    3  A    between atoms: C_2  and  N_46
    4  A    between atoms: C_4  and  C_7
    5  A    between atoms: C_4  and  C_36
    6  A    between atoms: N_6  and  C_43
    7  A    between atoms: C_7  and  C_20
    8  A    between atoms: C_8  and  C_42
    9  A    between atoms: C_9  and  N_14
   10  A    between atoms: C_11  and  N_21
   11  A    between atoms: C_20  and  C_23
   12  A    between atoms: N_21  and  C_31
   13  A    between atoms: C_22  and  C_26
   14  A    between atoms: C_22  and  O_28
   15  A    between atoms: C_22  and  C_38
   16  A    between atoms: C_23  and  N_51
   17  A    between atoms: C_26  and  S_39
   18  A    between atoms: C_32  and  N_51
   19  A    between atoms: C_32  and  C_54
   20  A    between atoms: C_36  and  C_56
   21  A    between atoms: S_39  and  N_46
   22  A    between atoms: C_41  and  C_54
   23  A    between atoms: C_53  and  C_56
                            x       y       z     vdW  Elec       q    Type
                         _______ _______ _______ _____ _____    ______ ____

>  <TORSDO>
F 23

$$$$
=
 OpenBabel10232412183D

 56 58  0  0  1  0  0  0  0  0999 V2000
  186.7400  177.9320  138.1430 C   0  0  1  0  0  3  0  0  0  0  0  0
  184.4400  178.0590  137.2590 N   0  0  0  0  0  2  0  0  0  0  0  0
  187.5330  176.4790  136.3100 C   0  0  0  0  0  0  0  0  0  0  0  0
  184.6980  176.4450  135.5610 O   0  0  0  0  0  0  0  0  0  0  0  0
  186.5470  176.9640  137.0210 C   0  0  0  0  0  0  0  0  0  0  0  0
  185.1810  177.0980  136.5260 C   0  0  0  0  0  0  0  0  0  0  0  0
  185.3730  178.5560  138.2170 C   0  0  0  0  0  0  0  0  0  0  0  0
  185.0690  179.4600  139.0400 O   0  0  0  0  0  0  0  0  0  0  0  0
  188.5150  175.9920  135.5940 C   0  0  0  0  0  3  0  0  0  0  0  0
  191.4540  173.6190  136.2480 C   0  0  0  0  0  1  0  0  0  0  0  0
  190.6360  174.7850  135.7720 C   0  0  0  0  0  0  0  0  0  0  0  0
  189.3080  174.8190  136.0160 C   0  0  0  0  0  0  0  0  0  0  0  0
  191.2660  175.9090  135.1320 N   0  0  0  0  0  0  0  0  0  0  0  0
  192.5380  176.0760  134.8930 C   0  0  0  0  0  3  0  0  0  0  0  0
  193.5960  175.0580  135.1870 C   0  0  0  0  0  2  0  0  0  0  0  0
  194.7360  175.6820  135.9790 C   0  0  0  0  0  2  0  0  0  0  0  0
  195.8670  174.6900  136.1910 C   0  0  0  0  0  2  0  0  0  0  0  0
  197.0920  175.3870  136.5360 N   0  0  0  0  0  2  0  0  0  0  0  0
  197.9960  175.2710  135.4030 C   0  0  0  0  0  2  0  0  0  0  0  0
  199.2500  174.5220  135.8160 C   0  0  0  0  0  1  0  0  0  0  0  0
  188.6250  173.6930  136.7480 C   0  0  0  0  0  2  0  0  0  0  0  0
  187.6230  173.0820  135.8840 N   0  0  0  0  0  2  0  0  0  0  0  0
  186.4020  172.9430  136.6630 C   0  0  0  0  0  2  0  0  0  0  0  0
  185.5420  171.8120  136.1070 C   0  0  2  0  0  3  0  0  0  0  0  0
  185.8440  171.6410  134.6260 C   0  0  0  0  0  1  0  0  0  0  0  0
  184.0660  172.1200  136.3280 C   0  0  1  0  0  3  0  0  0  0  0  0
  183.4750  171.1100  137.0990 O   0  0  0  0  0  1  0  0  0  0  0  0
  183.9040  173.4520  137.0410 C   0  0  0  0  0  2  0  0  0  0  0  0
  182.5350  174.0510  136.7510 C   0  0  0  0  0  2  0  0  0  0  0  0
  183.2210  175.2230  138.7250 O   0  0  0  0  0  1  0  0  0  0  0  0
  182.2150  175.1520  137.7530 C   0  0  2  0  0  3  0  0  0  0  0  0
  179.9820  175.9700  138.1390 O   0  0  0  0  0  1  0  0  0  0  0  0
  180.2480  173.6150  137.8770 C   0  0  0  0  0  1  0  0  0  0  0  0
  180.8540  174.9070  138.3980 C   0  0  1  0  0  3  0  0  0  0  0  0
  187.0100  177.2010  139.3760 N   0  0  0  0  0  2  0  0  0  0  0  0
  188.8310  179.1450  139.4640 O   0  0  0  0  0  0  0  0  0  0  0  0
  188.1460  178.1100  140.3190 S   0  0  0  0  0  0  0  0  0  0  0  0
  189.1760  177.1840  140.8970 O   0  0  0  0  0  0  0  0  0  0  0  0
  187.2560  178.9080  141.6410 C   0  0  0  0  0  2  0  0  0  0  0  0
  186.4630  177.8990  142.4800 C   0  0  1  0  0  3  0  0  0  0  0  0
  188.4810  178.0540  145.7830 C   0  0  2  0  0  3  0  0  0  0  0  0
  185.9490  177.7910  146.2670 C   0  0  0  0  0  3  0  0  0  0  0  0
  185.7150  177.6660  144.9620 C   0  0  0  0  0  3  0  0  0  0  0  0
  187.4780  178.4210  147.9520 O   0  0  0  0  0  0  0  0  0  0  0  0
  186.7800  177.8970  143.9550 C   0  0  0  0  0  0  0  0  0  0  0  0
  187.2980  178.1250  146.7410 C   0  0  0  0  0  0  0  0  0  0  0  0
  188.0480  178.1160  144.3380 C   0  0  0  0  0  3  0  0  0  0  0  0
  189.3400  176.8760  146.0080 N   0  0  0  0  0  0  0  0  0  0  0  0
  191.4560  176.6080  144.6100 C   0  0  0  0  0  2  0  0  0  0  0  0
  192.1420  175.4330  145.2970 C   0  0  0  0  0  2  0  0  0  0  0  0
  192.3200  175.6900  146.7890 C   0  0  0  0  0  2  0  0  0  0  0  0
  189.9340  176.4660  144.7190 C   0  0  0  0  0  2  0  0  0  0  0  0
  190.9840  175.8040  147.5110 C   0  0  0  0  0  2  0  0  0  0  0  0
  190.2920  177.1010  147.1100 C   0  0  0  0  0  2  0  0  0  0  0  0
  184.6540  179.2600  142.1040 C   0  0  0  0  0  1  0  0  0  0  0  0
  185.0750  177.9250  142.2070 O   0  0  0  0  0  0  0  0  0  0  0  0
  1  7  1  0  0  0  0
  1 35  1  1  0  0  0
  2  7  1  0  0  0  0
  3  5  2  0  0  0  0
  4  6  2  0  0  0  0
  5  1  1  0  0  0  0
  6  5  1  0  0  0  0
  6  2  1  0  0  0  0
  7  8  2  0  0  0  0
  9 12  1  0  0  0  0
  9  3  2  0  0  0  0
 11 12  2  0  0  0  0
 11 10  1  0  0  0  0
 12 21  1  0  0  0  0
 13 11  1  0  0  0  0
 14 13  2  0  0  0  0
 14 15  1  0  0  0  0
 15 16  1  0  0  0  0
 16 17  1  0  0  0  0
 17 18  1  0  0  0  0
 19 20  1  0  0  0  0
 19 18  1  0  0  0  0
 22 23  1  0  0  0  0
 22 21  1  0  0  0  0
 24 25  1  6  0  0  0
 24 26  1  0  0  0  0
 24 23  1  0  0  0  0
 26 28  1  0  0  0  0
 26 27  1  1  0  0  0
 29 28  1  0  0  0  0
 29 31  1  0  0  0  0
 31 34  1  0  0  0  0
 31 30  1  1  0  0  0
 32 34  1  0  0  0  0
 34 33  1  6  0  0  0
 35 37  1  0  0  0  0
 36 37  2  0  0  0  0
 37 38  2  0  0  0  0
 37 39  1  0  0  0  0
 40 39  1  6  0  0  0
 40 45  1  0  0  0  0
 41 47  1  6  0  0  0
 41 48  1  0  0  0  0
 41 46  1  0  0  0  0
 42 46  1  0  0  0  0
 43 42  2  0  0  0  0
 45 47  2  0  0  0  0
 45 43  1  0  0  0  0
 46 44  2  0  0  0  0
 48 54  1  0  0  0  0
 49 52  1  0  0  0  0
 49 50  1  0  0  0  0
 50 51  1  0  0  0  0
 51 53  1  0  0  0  0
 52 48  1  0  0  0  0
 54 53  1  0  0  0  0
 55 56  1  0  0  0  0
 56 40  1  0  0  0  0
M  END
>  <MODEL>
4

>  <REMARK>
 VINA RESULT:      -5.6      2.822      7.873
  Name = 
  23 active torsions:
  status: ('A' for Active; 'I' for Inactive)
    1  A    between atoms: C_1  and  C_8
    2  A    between atoms: C_1  and  C_31
    3  A    between atoms: C_2  and  N_46
    4  A    between atoms: C_4  and  C_7
    5  A    between atoms: C_4  and  C_36
    6  A    between atoms: N_6  and  C_43
    7  A    between atoms: C_7  and  C_20
    8  A    between atoms: C_8  and  C_42
    9  A    between atoms: C_9  and  N_14
   10  A    between atoms: C_11  and  N_21
   11  A    between atoms: C_20  and  C_23
   12  A    between atoms: N_21  and  C_31
   13  A    between atoms: C_22  and  C_26
   14  A    between atoms: C_22  and  O_28
   15  A    between atoms: C_22  and  C_38
   16  A    between atoms: C_23  and  N_51
   17  A    between atoms: C_26  and  S_39
   18  A    between atoms: C_32  and  N_51
   19  A    between atoms: C_32  and  C_54
   20  A    between atoms: C_36  and  C_56
   21  A    between atoms: S_39  and  N_46
   22  A    between atoms: C_41  and  C_54
   23  A    between atoms: C_53  and  C_56
                            x       y       z     vdW  Elec       q    Type
                         _______ _______ _______ _____ _____    ______ ____

>  <TORSDO>
F 23

$$$$
=
 OpenBabel10232412183D

 56 58  0  0  1  0  0  0  0  0999 V2000
  192.1220  176.3020  137.0220 C   0  0  1  0  0  3  0  0  0  0  0  0
  194.5170  175.7830  137.3070 N   0  0  0  0  0  2  0  0  0  0  0  0
  191.8380  177.0260  139.3660 C   0  0  0  0  0  0  0  0  0  0  0  0
  194.5920  176.0580  139.6460 O   0  0  0  0  0  0  0  0  0  0  0  0
  192.5110  176.3580  138.4640 C   0  0  0  0  0  0  0  0  0  0  0  0
  193.9360  176.0640  138.5690 C   0  0  0  0  0  0  0  0  0  0  0  0
  193.4350  175.9300  136.3890 C   0  0  0  0  0  0  0  0  0  0  0  0
  193.5860  175.7770  135.1470 O   0  0  0  0  0  0  0  0  0  0  0  0
  191.1710  177.6940  140.2730 C   0  0  0  0  0  3  0  0  0  0  0  0
  188.8990  176.1610  142.9540 C   0  0  0  0  0  1  0  0  0  0  0  0
  190.1090  176.6730  142.2270 C   0  0  0  0  0  0  0  0  0  0  0  0
  189.9890  177.1410  140.9660 C   0  0  0  0  0  0  0  0  0  0  0  0
  191.3840  176.7500  142.8900 N   0  0  0  0  0  0  0  0  0  0  0  0
  191.6290  177.2030  144.0890 C   0  0  0  0  0  3  0  0  0  0  0  0
  190.5800  177.6730  145.0480 C   0  0  0  0  0  2  0  0  0  0  0  0
  190.5860  176.8210  146.3090 C   0  0  0  0  0  2  0  0  0  0  0  0
  189.2830  176.9660  147.0770 C   0  0  0  0  0  2  0  0  0  0  0  0
  188.4850  178.0420  146.5200 N   0  0  0  0  0  2  0  0  0  0  0  0
  187.0870  177.6880  146.6980 C   0  0  0  0  0  2  0  0  0  0  0  0
  186.4770  177.2980  145.3640 C   0  0  0  0  0  1  0  0  0  0  0  0
  188.6560  177.1440  140.2640 C   0  0  0  0  0  2  0  0  0  0  0  0
  187.8430  178.2490  140.7570 N   0  0  0  0  0  2  0  0  0  0  0  0
  186.4920  178.0550  140.2520 C   0  0  0  0  0  2  0  0  0  0  0  0
  185.5370  179.0590  140.8910 C   0  0  2  0  0  3  0  0  0  0  0  0
  184.8550  178.4070  142.0840 C   0  0  0  0  0  1  0  0  0  0  0  0
  184.5090  179.5280  139.8680 C   0  0  1  0  0  3  0  0  0  0  0  0
  185.0480  179.4540  138.5770 O   0  0  0  0  0  1  0  0  0  0  0  0
  183.2600  178.6640  139.9390 C   0  0  0  0  0  2  0  0  0  0  0  0
  182.0100  179.5180  139.7830 C   0  0  0  0  0  2  0  0  0  0  0  0
  182.1730  178.5890  137.5810 O   0  0  0  0  0  1  0  0  0  0  0  0
  181.2790  179.1590  138.4970 C   0  0  2  0  0  3  0  0  0  0  0  0
  181.4600  181.5010  137.9620 O   0  0  0  0  0  1  0  0  0  0  0  0
  180.2100  180.1340  136.4590 C   0  0  0  0  0  1  0  0  0  0  0  0
  180.6070  180.3930  137.9030 C   0  0  1  0  0  3  0  0  0  0  0  0
  191.1600  175.2250  136.8190 N   0  0  0  0  0  2  0  0  0  0  0  0
  189.8910  174.6610  134.5440 O   0  0  0  0  0  0  0  0  0  0  0  0
  190.0230  175.7220  135.6070 S   0  0  0  0  0  0  0  0  0  0  0  0
  190.4880  177.0010  134.9750 O   0  0  0  0  0  0  0  0  0  0  0  0
  188.4490  175.9870  136.3980 C   0  0  0  0  0  2  0  0  0  0  0  0
  187.7710  174.6630  136.7700 C   0  0  1  0  0  3  0  0  0  0  0  0
  184.1340  173.5910  137.5650 C   0  0  2  0  0  3  0  0  0  0  0  0
  184.2740  176.1520  137.1870 C   0  0  0  0  0  3  0  0  0  0  0  0
  185.5580  176.0300  136.8530 C   0  0  0  0  0  3  0  0  0  0  0  0
  182.3810  175.1430  138.1740 O   0  0  0  0  0  0  0  0  0  0  0  0
  186.2830  174.7460  137.0110 C   0  0  0  0  0  0  0  0  0  0  0  0
  183.5330  174.9870  137.6880 C   0  0  0  0  0  0  0  0  0  0  0  0
  185.6310  173.6310  137.3790 C   0  0  0  0  0  3  0  0  0  0  0  0
  183.5090  172.7830  136.5010 N   0  0  0  0  0  0  0  0  0  0  0  0
  184.8190  170.8370  135.5020 C   0  0  0  0  0  2  0  0  0  0  0  0
  183.7630  170.1530  134.6420 C   0  0  0  0  0  2  0  0  0  0  0  0
  182.5200  169.8120  135.4570 C   0  0  0  0  0  2  0  0  0  0  0  0
  184.5580  172.3460  135.5570 C   0  0  0  0  0  2  0  0  0  0  0  0
  181.8170  171.0610  135.9730 C   0  0  0  0  0  2  0  0  0  0  0  0
  182.6610  171.7140  137.0600 C   0  0  0  0  0  2  0  0  0  0  0  0
  188.2260  172.4160  136.6760 C   0  0  0  0  0  1  0  0  0  0  0  0
  188.1400  173.5960  135.9190 O   0  0  0  0  0  0  0  0  0  0  0  0
  1 35  1  1  0  0  0
  1  5  1  0  0  0  0
  2  6  1  0  0  0  0
  3  9  2  0  0  0  0
  5  6  1  0  0  0  0
  5  3  2  0  0  0  0
  6  4  2  0  0  0  0
  7  1  1  0  0  0  0
  7  2  1  0  0  0  0
  8  7  2  0  0  0  0
  9 12  1  0  0  0  0
 11 13  1  0  0  0  0
 11 10  1  0  0  0  0
 12 11  2  0  0  0  0
 13 14  2  0  0  0  0
 14 15  1  0  0  0  0
 15 16  1  0  0  0  0
 16 17  1  0  0  0  0
 18 19  1  0  0  0  0
 18 17  1  0  0  0  0
 20 19  1  0  0  0  0
 21 22  1  0  0  0  0
 21 12  1  0  0  0  0
 23 22  1  0  0  0  0
 23 24  1  0  0  0  0
 24 25  1  1  0  0  0
 26 27  1  6  0  0  0
 26 28  1  0  0  0  0
 26 24  1  0  0  0  0
 29 28  1  0  0  0  0
 31 30  1  6  0  0  0
 31 29  1  0  0  0  0
 34 33  1  6  0  0  0
 34 32  1  0  0  0  0
 34 31  1  0  0  0  0
 36 37  2  0  0  0  0
 37 39  1  0  0  0  0
 37 35  1  0  0  0  0
 38 37  2  0  0  0  0
 40 39  1  6  0  0  0
 40 45  1  0  0  0  0
 41 48  1  6  0  0  0
 41 46  1  0  0  0  0
 42 46  1  0  0  0  0
 43 45  1  0  0  0  0
 43 42  2  0  0  0  0
 45 47  2  0  0  0  0
 46 44  2  0  0  0  0
 47 41  1  0  0  0  0
 48 54  1  0  0  0  0
 49 52  1  0  0  0  0
 50 51  1  0  0  0  0
 50 49  1  0  0  0  0
 51 53  1  0  0  0  0
 52 48  1  0  0  0  0
 53 54  1  0  0  0  0
 56 55  1  0  0  0  0
 56 40  1  0  0  0  0
M  END
>  <MODEL>
5

>  <REMARK>
 VINA RESULT:      -5.5      3.026      7.472
  Name = 
  23 active torsions:
  status: ('A' for Active; 'I' for Inactive)
    1  A    between atoms: C_1  and  C_8
    2  A    between atoms: C_1  and  C_31
    3  A    between atoms: C_2  and  N_46
    4  A    between atoms: C_4  and  C_7
    5  A    between atoms: C_4  and  C_36
    6  A    between atoms: N_6  and  C_43
    7  A    between atoms: C_7  and  C_20
    8  A    between atoms: C_8  and  C_42
    9  A    between atoms: C_9  and  N_14
   10  A    between atoms: C_11  and  N_21
   11  A    between atoms: C_20  and  C_23
   12  A    between atoms: N_21  and  C_31
   13  A    between atoms: C_22  and  C_26
   14  A    between atoms: C_22  and  O_28
   15  A    between atoms: C_22  and  C_38
   16  A    between atoms: C_23  and  N_51
   17  A    between atoms: C_26  and  S_39
   18  A    between atoms: C_32  and  N_51
   19  A    between atoms: C_32  and  C_54
   20  A    between atoms: C_36  and  C_56
   21  A    between atoms: S_39  and  N_46
   22  A    between atoms: C_41  and  C_54
   23  A    between atoms: C_53  and  C_56
                            x       y       z     vdW  Elec       q    Type
                         _______ _______ _______ _____ _____    ______ ____

>  <TORSDO>
F 23

$$$$
=
 OpenBabel10232412183D

 56 58  0  0  1  0  0  0  0  0999 V2000
  190.3440  175.7260  136.7040 C   0  0  1  0  0  3  0  0  0  0  0  0
  192.7860  176.0270  136.5220 N   0  0  0  0  0  2  0  0  0  0  0  0
  190.1350  177.2900  138.6040 C   0  0  0  0  0  0  0  0  0  0  0  0
  193.0650  177.2940  138.4880 O   0  0  0  0  0  0  0  0  0  0  0  0
  190.8730  176.4980  137.8680 C   0  0  0  0  0  0  0  0  0  0  0  0
  192.3130  176.6630  137.6970 C   0  0  0  0  0  0  0  0  0  0  0  0
  191.6110  175.4750  135.9320 C   0  0  0  0  0  0  0  0  0  0  0  0
  191.6420  174.8460  134.8400 O   0  0  0  0  0  0  0  0  0  0  0  0
  189.4010  178.0830  139.3430 C   0  0  0  0  0  3  0  0  0  0  0  0
  188.3660  176.6210  142.7320 C   0  0  0  0  0  1  0  0  0  0  0  0
  189.1900  177.0660  141.5580 C   0  0  0  0  0  0  0  0  0  0  0  0
  188.5850  177.5970  140.4740 C   0  0  0  0  0  0  0  0  0  0  0  0
  190.6270  177.0120  141.6100 N   0  0  0  0  0  0  0  0  0  0  0  0
  191.3700  176.5410  142.5730 C   0  0  0  0  0  3  0  0  0  0  0  0
  190.8370  175.8810  143.8080 C   0  0  0  0  0  2  0  0  0  0  0  0
  191.3590  176.5770  145.0560 C   0  0  0  0  0  2  0  0  0  0  0  0
  190.2640  176.7330  146.0980 C   0  0  0  0  0  2  0  0  0  0  0  0
  190.7780  176.4280  147.4200 N   0  0  0  0  0  2  0  0  0  0  0  0
  191.9620  175.6030  147.2490 C   0  0  0  0  0  2  0  0  0  0  0  0
  192.9060  175.8010  148.4220 C   0  0  0  0  0  1  0  0  0  0  0  0
  187.0860  177.7360  140.4130 C   0  0  0  0  0  2  0  0  0  0  0  0
  186.6930  179.0480  140.9100 N   0  0  0  0  0  2  0  0  0  0  0  0
  185.2400  179.1130  140.8700 C   0  0  0  0  0  2  0  0  0  0  0  0
  184.6460  178.5420  142.1540 C   0  0  2  0  0  3  0  0  0  0  0  0
  183.1340  178.6980  142.1130 C   0  0  0  0  0  1  0  0  0  0  0  0
  185.2330  179.2550  143.3660 C   0  0  1  0  0  3  0  0  0  0  0  0
  184.2970  180.1530  143.8940 O   0  0  0  0  0  1  0  0  0  0  0  0
  185.6180  178.2470  144.4370 C   0  0  0  0  0  2  0  0  0  0  0  0
  184.7370  178.4110  145.6670 C   0  0  0  0  0  2  0  0  0  0  0  0
  185.7130  179.9420  147.2290 O   0  0  0  0  0  1  0  0  0  0  0  0
  185.5930  178.5830  146.9140 C   0  0  2  0  0  3  0  0  0  0  0  0
  187.7400  178.7140  145.8280 O   0  0  0  0  0  1  0  0  0  0  0  0
  187.6900  177.8190  148.0380 C   0  0  0  0  0  1  0  0  0  0  0  0
  186.9660  177.9500  146.7090 C   0  0  1  0  0  3  0  0  0  0  0  0
  189.7960  174.4570  137.1700 N   0  0  0  0  0  2  0  0  0  0  0  0
  187.4580  175.6530  137.6200 O   0  0  0  0  0  0  0  0  0  0  0  0
  188.0800  174.4720  136.9220 S   0  0  0  0  0  0  0  0  0  0  0  0
  187.4830  173.2060  137.4610 O   0  0  0  0  0  0  0  0  0  0  0  0
  187.7750  174.5740  135.1690 C   0  0  0  0  0  2  0  0  0  0  0  0
  186.7400  175.6560  134.8350 C   0  0  1  0  0  3  0  0  0  0  0  0
  183.6930  173.7660  136.3000 C   0  0  2  0  0  3  0  0  0  0  0  0
  183.0320  176.1740  135.6060 C   0  0  0  0  0  3  0  0  0  0  0  0
  184.2480  176.3580  135.0950 C   0  0  0  0  0  3  0  0  0  0  0  0
  181.6430  174.8520  136.9840 O   0  0  0  0  0  0  0  0  0  0  0  0
  185.3320  175.3640  135.2900 C   0  0  0  0  0  0  0  0  0  0  0  0
  182.7270  174.9440  136.3490 C   0  0  0  0  0  0  0  0  0  0  0  0
  185.0810  174.1850  135.8820 C   0  0  0  0  0  3  0  0  0  0  0  0
  183.2160  172.6610  135.4470 N   0  0  0  0  0  0  0  0  0  0  0  0
  184.7440  170.6560  135.0590 C   0  0  0  0  0  2  0  0  0  0  0  0
  183.8130  169.6820  134.3470 C   0  0  0  0  0  2  0  0  0  0  0  0
  182.5390  169.4430  135.1500 C   0  0  0  0  0  2  0  0  0  0  0  0
  184.3650  172.0990  134.7080 C   0  0  0  0  0  2  0  0  0  0  0  0
  181.7060  170.7110  135.2870 C   0  0  0  0  0  2  0  0  0  0  0  0
  182.4110  171.6930  136.2140 C   0  0  0  0  0  2  0  0  0  0  0  0
  188.2800  177.2920  134.3690 C   0  0  0  0  0  1  0  0  0  0  0  0
  187.1770  176.9590  135.1710 O   0  0  0  0  0  0  0  0  0  0  0  0
  1 35  1  1  0  0  0
  1  5  1  0  0  0  0
  2  6  1  0  0  0  0
  3  9  2  0  0  0  0
  5  3  2  0  0  0  0
  6  5  1  0  0  0  0
  6  4  2  0  0  0  0
  7  2  1  0  0  0  0
  7  1  1  0  0  0  0
  8  7  2  0  0  0  0
  9 12  1  0  0  0  0
 11 13  1  0  0  0  0
 11 10  1  0  0  0  0
 12 11  2  0  0  0  0
 13 14  2  0  0  0  0
 14 15  1  0  0  0  0
 15 16  1  0  0  0  0
 16 17  1  0  0  0  0
 17 18  1  0  0  0  0
 19 18  1  0  0  0  0
 19 20  1  0  0  0  0
 21 12  1  0  0  0  0
 21 22  1  0  0  0  0
 23 22  1  0  0  0  0
 23 24  1  0  0  0  0
 24 25  1  6  0  0  0
 24 26  1  0  0  0  0
 26 27  1  1  0  0  0
 26 28  1  0  0  0  0
 28 29  1  0  0  0  0
 29 31  1  0  0  0  0
 31 30  1  6  0  0  0
 32 34  1  0  0  0  0
 34 31  1  0  0  0  0
 34 33  1  1  0  0  0
 37 35  1  0  0  0  0
 37 38  2  0  0  0  0
 37 36  2  0  0  0  0
 39 37  1  0  0  0  0
 40 39  1  1  0  0  0
 40 56  1  0  0  0  0
 40 45  1  0  0  0  0
 41 48  1  6  0  0  0
 41 46  1  0  0  0  0
 42 46  1  0  0  0  0
 43 45  1  0  0  0  0
 43 42  2  0  0  0  0
 45 47  2  0  0  0  0
 46 44  2  0  0  0  0
 47 41  1  0  0  0  0
 48 54  1  0  0  0  0
 50 49  1  0  0  0  0
 50 51  1  0  0  0  0
 51 53  1  0  0  0  0
 52 49  1  0  0  0  0
 52 48  1  0  0  0  0
 53 54  1  0  0  0  0
 55 56  1  0  0  0  0
M  END
>  <MODEL>
6

>  <REMARK>
 VINA RESULT:      -5.2      3.016      6.149
  Name = 
  23 active torsions:
  status: ('A' for Active; 'I' for Inactive)
    1  A    between atoms: C_1  and  C_8
    2  A    between atoms: C_1  and  C_31
    3  A    between atoms: C_2  and  N_46
    4  A    between atoms: C_4  and  C_7
    5  A    between atoms: C_4  and  C_36
    6  A    between atoms: N_6  and  C_43
    7  A    between atoms: C_7  and  C_20
    8  A    between atoms: C_8  and  C_42
    9  A    between atoms: C_9  and  N_14
   10  A    between atoms: C_11  and  N_21
   11  A    between atoms: C_20  and  C_23
   12  A    between atoms: N_21  and  C_31
   13  A    between atoms: C_22  and  C_26
   14  A    between atoms: C_22  and  O_28
   15  A    between atoms: C_22  and  C_38
   16  A    between atoms: C_23  and  N_51
   17  A    between atoms: C_26  and  S_39
   18  A    between atoms: C_32  and  N_51
   19  A    between atoms: C_32  and  C_54
   20  A    between atoms: C_36  and  C_56
   21  A    between atoms: S_39  and  N_46
   22  A    between atoms: C_41  and  C_54
   23  A    between atoms: C_53  and  C_56
                            x       y       z     vdW  Elec       q    Type
                         _______ _______ _______ _____ _____    ______ ____

>  <TORSDO>
F 23

$$$$
=
 OpenBabel10232412183D

 56 58  0  0  1  0  0  0  0  0999 V2000
  181.5400  177.4980  136.9150 C   0  0  1  0  0  3  0  0  0  0  0  0
  180.2910  179.3600  135.8840 N   0  0  0  0  0  2  0  0  0  0  0  0
  182.3530  178.8770  138.7950 C   0  0  0  0  0  0  0  0  0  0  0  0
  181.1080  181.0650  137.2900 O   0  0  0  0  0  0  0  0  0  0  0  0
  181.8690  178.7940  137.5820 C   0  0  0  0  0  0  0  0  0  0  0  0
  181.0900  179.8510  136.9470 C   0  0  0  0  0  0  0  0  0  0  0  0
  180.5590  177.9590  135.8710 C   0  0  0  0  0  0  0  0  0  0  0  0
  179.9950  177.1770  135.0580 O   0  0  0  0  0  0  0  0  0  0  0  0
  182.8360  178.9670  140.0080 C   0  0  0  0  0  3  0  0  0  0  0  0
  186.1510  178.5940  141.8980 C   0  0  0  0  0  1  0  0  0  0  0  0
  184.6930  178.7790  141.5920 C   0  0  0  0  0  0  0  0  0  0  0  0
  184.2780  178.8390  140.3080 C   0  0  0  0  0  0  0  0  0  0  0  0
  183.7200  178.8090  142.6510 N   0  0  0  0  0  0  0  0  0  0  0  0
  183.8820  178.4270  143.8880 C   0  0  0  0  0  3  0  0  0  0  0  0
  185.1770  177.9440  144.4630 C   0  0  0  0  0  2  0  0  0  0  0  0
  185.3880  178.5090  145.8600 C   0  0  0  0  0  2  0  0  0  0  0  0
  186.8560  178.4780  146.2500 C   0  0  0  0  0  2  0  0  0  0  0  0
  187.1420  177.3000  147.0480 N   0  0  0  0  0  2  0  0  0  0  0  0
  188.5650  177.0270  146.9300 C   0  0  0  0  0  2  0  0  0  0  0  0
  189.2950  177.5460  148.1560 C   0  0  0  0  0  1  0  0  0  0  0  0
  185.2600  178.7390  139.1700 C   0  0  0  0  0  2  0  0  0  0  0  0
  185.2160  177.3990  138.5990 N   0  0  0  0  0  2  0  0  0  0  0  0
  186.4270  177.2200  137.8130 C   0  0  0  0  0  2  0  0  0  0  0  0
  187.3440  178.4300  137.9650 C   0  0  2  0  0  3  0  0  0  0  0  0
  187.3660  179.2050  136.6560 C   0  0  0  0  0  1  0  0  0  0  0  0
  188.7470  177.9780  138.3520 C   0  0  1  0  0  3  0  0  0  0  0  0
  189.6940  178.8990  137.8850 O   0  0  0  0  0  1  0  0  0  0  0  0
  188.8670  177.8620  139.8630 C   0  0  0  0  0  2  0  0  0  0  0  0
  189.8750  176.7850  140.2380 C   0  0  0  0  0  2  0  0  0  0  0  0
  192.1690  177.3390  140.6500 O   0  0  0  0  0  1  0  0  0  0  0  0
  190.8940  177.3340  141.2280 C   0  0  2  0  0  3  0  0  0  0  0  0
  191.7700  177.0500  143.4550 O   0  0  0  0  0  1  0  0  0  0  0  0
  189.4840  176.4670  143.1010 C   0  0  0  0  0  1  0  0  0  0  0  0
  190.8840  176.5120  142.5140 C   0  0  1  0  0  3  0  0  0  0  0  0
  182.7320  176.9680  136.2640 N   0  0  0  0  0  2  0  0  0  0  0  0
  182.0520  174.9270  134.6920 O   0  0  0  0  0  0  0  0  0  0  0  0
  182.5440  175.2540  136.0780 S   0  0  0  0  0  0  0  0  0  0  0  0
  181.5580  174.7430  137.0880 O   0  0  0  0  0  0  0  0  0  0  0  0
  184.1290  174.4900  136.3560 C   0  0  0  0  0  2  0  0  0  0  0  0
  184.0650  172.9680  136.1770 C   0  0  1  0  0  3  0  0  0  0  0  0
  187.8380  172.0940  136.1000 C   0  0  2  0  0  3  0  0  0  0  0  0
  186.5210  170.6240  134.4200 C   0  0  0  0  0  3  0  0  0  0  0  0
  185.4120  171.3120  134.6900 C   0  0  0  0  0  3  0  0  0  0  0  0
  188.7310  170.1000  135.0620 O   0  0  0  0  0  0  0  0  0  0  0  0
  185.3640  172.3080  135.7880 C   0  0  0  0  0  0  0  0  0  0  0  0
  187.7450  170.8730  135.1920 C   0  0  0  0  0  0  0  0  0  0  0  0
  186.4770  172.6370  136.4640 C   0  0  0  0  0  3  0  0  0  0  0  0
  188.6830  173.1670  135.5420 N   0  0  0  0  0  0  0  0  0  0  0  0
  187.5930  175.3750  134.8800 C   0  0  0  0  0  2  0  0  0  0  0  0
  188.8050  176.2510  134.5860 C   0  0  0  0  0  2  0  0  0  0  0  0
  189.7700  176.2760  135.7650 C   0  0  0  0  0  2  0  0  0  0  0  0
  187.9010  173.9140  134.5350 C   0  0  0  0  0  2  0  0  0  0  0  0
  190.3700  174.9030  136.0390 C   0  0  0  0  0  2  0  0  0  0  0  0
  189.3010  173.9780  136.6070 C   0  0  0  0  0  2  0  0  0  0  0  0
  182.9970  171.0410  136.8190 C   0  0  0  0  0  1  0  0  0  0  0  0
  183.4050  172.3150  137.2450 O   0  0  0  0  0  0  0  0  0  0  0  0
  1 35  1  6  0  0  0
  1  5  1  0  0  0  0
  2  6  1  0  0  0  0
  3  9  2  0  0  0  0
  5  3  2  0  0  0  0
  6  4  2  0  0  0  0
  6  5  1  0  0  0  0
  7  2  1  0  0  0  0
  7  1  1  0  0  0  0
  8  7  2  0  0  0  0
  9 12  1  0  0  0  0
 11 10  1  0  0  0  0
 11 13  1  0  0  0  0
 12 11  2  0  0  0  0
 13 14  2  0  0  0  0
 14 15  1  0  0  0  0
 15 16  1  0  0  0  0
 16 17  1  0  0  0  0
 17 18  1  0  0  0  0
 19 18  1  0  0  0  0
 19 20  1  0  0  0  0
 21 12  1  0  0  0  0
 22 21  1  0  0  0  0
 23 24  1  0  0  0  0
 23 22  1  0  0  0  0
 24 25  1  6  0  0  0
 24 26  1  0  0  0  0
 26 27  1  1  0  0  0
 26 28  1  0  0  0  0
 28 29  1  0  0  0  0
 29 31  1  0  0  0  0
 31 30  1  6  0  0  0
 31 34  1  0  0  0  0
 34 33  1  1  0  0  0
 34 32  1  0  0  0  0
 36 37  2  0  0  0  0
 37 35  1  0  0  0  0
 37 39  1  0  0  0  0
 37 38  2  0  0  0  0
 40 39  1  1  0  0  0
 40 56  1  0  0  0  0
 41 48  1  6  0  0  0
 41 47  1  0  0  0  0
 42 43  2  0  0  0  0
 42 46  1  0  0  0  0
 43 45  1  0  0  0  0
 44 46  2  0  0  0  0
 45 40  1  0  0  0  0
 45 47  2  0  0  0  0
 46 41  1  0  0  0  0
 48 54  1  0  0  0  0
 50 49  1  0  0  0  0
 50 51  1  0  0  0  0
 51 53  1  0  0  0  0
 52 49  1  0  0  0  0
 52 48  1  0  0  0  0
 53 54  1  0  0  0  0
 55 56  1  0  0  0  0
M  END
>  <MODEL>
7

>  <REMARK>
 VINA RESULT:      -5.1      3.164      8.727
  Name = 
  23 active torsions:
  status: ('A' for Active; 'I' for Inactive)
    1  A    between atoms: C_1  and  C_8
    2  A    between atoms: C_1  and  C_31
    3  A    between atoms: C_2  and  N_46
    4  A    between atoms: C_4  and  C_7
    5  A    between atoms: C_4  and  C_36
    6  A    between atoms: N_6  and  C_43
    7  A    between atoms: C_7  and  C_20
    8  A    between atoms: C_8  and  C_42
    9  A    between atoms: C_9  and  N_14
   10  A    between atoms: C_11  and  N_21
   11  A    between atoms: C_20  and  C_23
   12  A    between atoms: N_21  and  C_31
   13  A    between atoms: C_22  and  C_26
   14  A    between atoms: C_22  and  O_28
   15  A    between atoms: C_22  and  C_38
   16  A    between atoms: C_23  and  N_51
   17  A    between atoms: C_26  and  S_39
   18  A    between atoms: C_32  and  N_51
   19  A    between atoms: C_32  and  C_54
   20  A    between atoms: C_36  and  C_56
   21  A    between atoms: S_39  and  N_46
   22  A    between atoms: C_41  and  C_54
   23  A    between atoms: C_53  and  C_56
                            x       y       z     vdW  Elec       q    Type
                         _______ _______ _______ _____ _____    ______ ____

>  <TORSDO>
F 23

$$$$
=
 OpenBabel10232412183D

 56 58  0  0  1  0  0  0  0  0999 V2000
  188.8530  176.8080  136.6240 C   0  0  1  0  0  3  0  0  0  0  0  0
  188.2960  177.5810  134.3480 N   0  0  0  0  0  2  0  0  0  0  0  0
  186.6980  177.5520  137.5740 C   0  0  0  0  0  0  0  0  0  0  0  0
  186.3090  178.7150  134.9110 O   0  0  0  0  0  0  0  0  0  0  0  0
  187.6030  177.6260  136.6310 C   0  0  0  0  0  0  0  0  0  0  0  0
  187.3130  178.0360  135.2610 C   0  0  0  0  0  0  0  0  0  0  0  0
  189.2090  176.8460  135.1630 C   0  0  0  0  0  0  0  0  0  0  0  0
  190.2170  176.2640  134.6800 O   0  0  0  0  0  0  0  0  0  0  0  0
  185.7900  177.4810  138.5140 C   0  0  0  0  0  3  0  0  0  0  0  0
  184.8950  179.1170  141.8640 C   0  0  0  0  0  1  0  0  0  0  0  0
  184.7890  178.3940  140.5510 C   0  0  0  0  0  0  0  0  0  0  0  0
  185.8850  178.2390  139.7790 C   0  0  0  0  0  0  0  0  0  0  0  0
  183.5470  177.7910  140.1460 N   0  0  0  0  0  0  0  0  0  0  0  0
  182.4200  178.3940  139.8840 C   0  0  0  0  0  3  0  0  0  0  0  0
  182.2320  179.8800  139.8880 C   0  0  0  0  0  2  0  0  0  0  0  0
  182.2700  180.4290  138.4700 C   0  0  0  0  0  2  0  0  0  0  0  0
  181.1020  179.9110  137.6480 C   0  0  0  0  0  2  0  0  0  0  0  0
  179.9860  180.8360  137.7160 N   0  0  0  0  0  2  0  0  0  0  0  0
  180.2170  181.8740  136.7250 C   0  0  0  0  0  2  0  0  0  0  0  0
  180.4650  181.2460  135.3660 C   0  0  0  0  0  1  0  0  0  0  0  0
  187.2190  178.7950  140.2050 C   0  0  0  0  0  2  0  0  0  0  0  0
  188.1110  177.7030  140.5750 N   0  0  0  0  0  2  0  0  0  0  0  0
  188.6100  177.9830  141.9130 C   0  0  0  0  0  2  0  0  0  0  0  0
  188.2700  176.8340  142.8580 C   0  0  2  0  0  3  0  0  0  0  0  0
  187.0940  177.2430  143.7320 C   0  0  0  0  0  1  0  0  0  0  0  0
  189.4820  176.4800  143.7110 C   0  0  1  0  0  3  0  0  0  0  0  0
  190.1850  175.4170  143.1280 O   0  0  0  0  0  1  0  0  0  0  0  0
  190.4070  177.6800  143.8380 C   0  0  0  0  0  2  0  0  0  0  0  0
  190.4100  178.2030  145.2670 C   0  0  0  0  0  2  0  0  0  0  0  0
  188.5110  177.9930  146.7120 O   0  0  0  0  0  1  0  0  0  0  0  0
  189.5920  177.2880  146.1680 C   0  0  2  0  0  3  0  0  0  0  0  0
  190.0530  175.4070  147.6010 O   0  0  0  0  0  1  0  0  0  0  0  0
  191.9220  176.6750  146.8320 C   0  0  0  0  0  1  0  0  0  0  0  0
  190.4680  176.7030  147.2710 C   0  0  1  0  0  3  0  0  0  0  0  0
  189.8850  177.4900  137.3960 N   0  0  0  0  0  2  0  0  0  0  0  0
  190.3420  174.9990  138.2270 O   0  0  0  0  0  0  0  0  0  0  0  0
  191.0300  176.3110  137.9500 S   0  0  0  0  0  0  0  0  0  0  0  0
  191.6880  176.8000  139.2070 O   0  0  0  0  0  0  0  0  0  0  0  0
  192.2610  176.0940  136.6800 C   0  0  0  0  0  2  0  0  0  0  0  0
  193.5460  175.4700  137.2370 C   0  0  1  0  0  3  0  0  0  0  0  0
  194.9920  171.8780  137.3480 C   0  0  2  0  0  3  0  0  0  0  0  0
  192.8950  171.9750  135.8280 C   0  0  0  0  0  3  0  0  0  0  0  0
  192.8430  173.2970  135.9890 C   0  0  0  0  0  3  0  0  0  0  0  0
  193.7920  169.9240  136.5770 O   0  0  0  0  0  0  0  0  0  0  0  0
  193.7210  173.9970  136.9580 C   0  0  0  0  0  0  0  0  0  0  0  0
  193.8670  171.1810  136.5910 C   0  0  0  0  0  0  0  0  0  0  0  0
  194.6850  173.3310  137.6140 C   0  0  0  0  0  3  0  0  0  0  0  0
  196.3040  171.7460  136.6840 N   0  0  0  0  0  0  0  0  0  0  0  0
  198.1570  173.3920  137.2820 C   0  0  0  0  0  2  0  0  0  0  0  0
  199.3620  172.7820  136.5770 C   0  0  0  0  0  2  0  0  0  0  0  0
  199.5640  171.3260  136.9840 C   0  0  0  0  0  2  0  0  0  0  0  0
  196.8780  173.0940  136.4930 C   0  0  0  0  0  2  0  0  0  0  0  0
  198.4010  170.4460  136.5460 C   0  0  0  0  0  2  0  0  0  0  0  0
  197.1670  170.7730  137.3780 C   0  0  0  0  0  2  0  0  0  0  0  0
  194.8250  176.3650  135.5540 C   0  0  0  0  0  1  0  0  0  0  0  0
  194.7010  176.2340  136.9470 O   0  0  0  0  0  0  0  0  0  0  0  0
  1  5  1  0  0  0  0
  1 35  1  1  0  0  0
  2  7  1  0  0  0  0
  2  6  1  0  0  0  0
  3  9  2  0  0  0  0
  4  6  2  0  0  0  0
  5  3  2  0  0  0  0
  6  5  1  0  0  0  0
  7  1  1  0  0  0  0
  8  7  2  0  0  0  0
  9 12  1  0  0  0  0
 11 10  1  0  0  0  0
 12 21  1  0  0  0  0
 12 11  2  0  0  0  0
 13 11  1  0  0  0  0
 14 15  1  0  0  0  0
 14 13  2  0  0  0  0
 16 15  1  0  0  0  0
 17 18  1  0  0  0  0
 17 16  1  0  0  0  0
 19 18  1  0  0  0  0
 20 19  1  0  0  0  0
 21 22  1  0  0  0  0
 22 23  1  0  0  0  0
 23 24  1  0  0  0  0
 24 26  1  0  0  0  0
 24 25  1  1  0  0  0
 26 27  1  6  0  0  0
 26 28  1  0  0  0  0
 28 29  1  0  0  0  0
 29 31  1  0  0  0  0
 31 30  1  1  0  0  0
 31 34  1  0  0  0  0
 34 33  1  6  0  0  0
 34 32  1  0  0  0  0
 35 37  1  0  0  0  0
 37 36  2  0  0  0  0
 37 38  2  0  0  0  0
 39 37  1  0  0  0  0
 40 39  1  6  0  0  0
 41 48  1  6  0  0  0
 41 47  1  0  0  0  0
 42 43  2  0  0  0  0
 42 46  1  0  0  0  0
 43 45  1  0  0  0  0
 44 46  2  0  0  0  0
 45 40  1  0  0  0  0
 45 47  2  0  0  0  0
 46 41  1  0  0  0  0
 48 54  1  0  0  0  0
 50 51  1  0  0  0  0
 50 49  1  0  0  0  0
 52 48  1  0  0  0  0
 52 49  1  0  0  0  0
 53 51  1  0  0  0  0
 53 54  1  0  0  0  0
 55 56  1  0  0  0  0
 56 40  1  0  0  0  0
M  END
>  <MODEL>
8

>  <REMARK>
 VINA RESULT:      -5.0      2.811     10.362
  Name = 
  23 active torsions:
  status: ('A' for Active; 'I' for Inactive)
    1  A    between atoms: C_1  and  C_8
    2  A    between atoms: C_1  and  C_31
    3  A    between atoms: C_2  and  N_46
    4  A    between atoms: C_4  and  C_7
    5  A    between atoms: C_4  and  C_36
    6  A    between atoms: N_6  and  C_43
    7  A    between atoms: C_7  and  C_20
    8  A    between atoms: C_8  and  C_42
    9  A    between atoms: C_9  and  N_14
   10  A    between atoms: C_11  and  N_21
   11  A    between atoms: C_20  and  C_23
   12  A    between atoms: N_21  and  C_31
   13  A    between atoms: C_22  and  C_26
   14  A    between atoms: C_22  and  O_28
   15  A    between atoms: C_22  and  C_38
   16  A    between atoms: C_23  and  N_51
   17  A    between atoms: C_26  and  S_39
   18  A    between atoms: C_32  and  N_51
   19  A    between atoms: C_32  and  C_54
   20  A    between atoms: C_36  and  C_56
   21  A    between atoms: S_39  and  N_46
   22  A    between atoms: C_41  and  C_54
   23  A    between atoms: C_53  and  C_56
                            x       y       z     vdW  Elec       q    Type
                         _______ _______ _______ _____ _____    ______ ____

>  <TORSDO>
F 23

$$$$
=
 OpenBabel10232412183D

 56 58  0  0  1  0  0  0  0  0999 V2000
  189.2600  177.6560  140.9750 C   0  0  1  0  0  3  0  0  0  0  0  0
  191.5050  177.7040  141.9960 N   0  0  0  0  0  2  0  0  0  0  0  0
  190.0460  176.5330  138.9210 C   0  0  0  0  0  0  0  0  0  0  0  0
  192.6950  176.9570  140.1050 O   0  0  0  0  0  0  0  0  0  0  0  0
  190.3030  177.2490  139.9860 C   0  0  0  0  0  0  0  0  0  0  0  0
  191.6030  177.2760  140.6490 C   0  0  0  0  0  0  0  0  0  0  0  0
  190.1090  177.9250  142.1880 C   0  0  0  0  0  0  0  0  0  0  0  0
  189.6360  178.2960  143.2960 O   0  0  0  0  0  0  0  0  0  0  0  0
  189.7950  175.8170  137.8550 C   0  0  0  0  0  3  0  0  0  0  0  0
  187.4910  177.0980  135.0700 C   0  0  0  0  0  1  0  0  0  0  0  0
  187.9880  176.4500  136.3310 C   0  0  0  0  0  0  0  0  0  0  0  0
  189.3130  176.4070  136.5880 C   0  0  0  0  0  0  0  0  0  0  0  0
  187.0610  175.9470  137.3090 N   0  0  0  0  0  0  0  0  0  0  0  0
  186.5250  174.7590  137.3590 C   0  0  0  0  0  3  0  0  0  0  0  0
  186.8490  173.6430  136.4130 C   0  0  0  0  0  2  0  0  0  0  0  0
  185.8380  173.5910  135.2780 C   0  0  0  0  0  2  0  0  0  0  0  0
  184.9880  172.3340  135.3540 C   0  0  0  0  0  2  0  0  0  0  0  0
  184.3660  172.2240  136.6610 N   0  0  0  0  0  2  0  0  0  0  0  0
  183.0030  172.7110  136.5380 C   0  0  0  0  0  2  0  0  0  0  0  0
  182.0280  171.6470  137.0100 C   0  0  0  0  0  1  0  0  0  0  0  0
  190.3100  176.9880  135.6200 C   0  0  0  0  0  2  0  0  0  0  0  0
  190.8610  175.9270  134.7870 N   0  0  0  0  0  2  0  0  0  0  0  0
  192.3070  176.0940  134.7680 C   0  0  0  0  0  2  0  0  0  0  0  0
  192.9220  175.5540  136.0560 C   0  0  2  0  0  3  0  0  0  0  0  0
  193.8360  176.6130  136.6520 C   0  0  0  0  0  1  0  0  0  0  0  0
  193.6910  174.2700  135.7710 C   0  0  1  0  0  3  0  0  0  0  0  0
  194.8430  174.5560  135.0260 O   0  0  0  0  0  1  0  0  0  0  0  0
  194.0940  173.5950  137.0730 C   0  0  0  0  0  2  0  0  0  0  0  0
  194.5390  174.6300  138.0970 C   0  0  0  0  0  2  0  0  0  0  0  0
  196.1410  175.0190  139.8350 O   0  0  0  0  0  1  0  0  0  0  0  0
  195.8740  174.2290  138.7090 C   0  0  2  0  0  3  0  0  0  0  0  0
  197.8480  175.4160  138.0030 O   0  0  0  0  0  1  0  0  0  0  0  0
  197.7890  173.0650  137.6040 C   0  0  0  0  0  1  0  0  0  0  0  0
  196.9920  174.3560  137.6800 C   0  0  1  0  0  3  0  0  0  0  0  0
  188.6290  178.8950  140.5360 N   0  0  0  0  0  2  0  0  0  0  0  0
  186.1980  178.4500  139.5400 O   0  0  0  0  0  0  0  0  0  0  0  0
  186.9230  178.7770  140.8200 S   0  0  0  0  0  0  0  0  0  0  0  0
  186.4110  180.0810  141.3600 O   0  0  0  0  0  0  0  0  0  0  0  0
  186.6480  177.4880  142.0190 C   0  0  0  0  0  2  0  0  0  0  0  0
  186.0700  178.0430  143.3270 C   0  0  1  0  0  3  0  0  0  0  0  0
  182.4200  178.3470  142.0640 C   0  0  2  0  0  3  0  0  0  0  0  0
  182.6640  179.3930  144.4220 C   0  0  0  0  0  3  0  0  0  0  0  0
  183.9800  179.1840  144.3760 C   0  0  0  0  0  3  0  0  0  0  0  0
  180.5500  178.9110  143.4900 O   0  0  0  0  0  0  0  0  0  0  0  0
  184.6030  178.3980  143.2840 C   0  0  0  0  0  0  0  0  0  0  0  0
  181.8020  178.8740  143.3530 C   0  0  0  0  0  0  0  0  0  0  0  0
  183.8730  177.9780  142.2390 C   0  0  0  0  0  3  0  0  0  0  0  0
  182.2630  179.2730  140.9260 N   0  0  0  0  0  0  0  0  0  0  0  0
  182.3410  178.3360  138.5550 C   0  0  0  0  0  2  0  0  0  0  0  0
  181.9180  179.5410  137.7240 C   0  0  0  0  0  2  0  0  0  0  0  0
  180.5880  180.1090  138.2070 C   0  0  0  0  0  2  0  0  0  0  0  0
  183.0990  178.7960  139.8050 C   0  0  0  0  0  2  0  0  0  0  0  0
  180.6830  180.6580  139.6240 C   0  0  0  0  0  2  0  0  0  0  0  0
  180.8420  179.5090  140.6120 C   0  0  0  0  0  2  0  0  0  0  0  0
  187.2450  178.0450  145.2980 C   0  0  0  0  0  1  0  0  0  0  0  0
  186.4260  177.2730  144.4580 O   0  0  0  0  0  0  0  0  0  0  0  0
  1 35  1  6  0  0  0
  1  7  1  0  0  0  0
  2  7  1  0  0  0  0
  3  5  2  0  0  0  0
  4  6  2  0  0  0  0
  5  6  1  0  0  0  0
  5  1  1  0  0  0  0
  6  2  1  0  0  0  0
  7  8  2  0  0  0  0
  9  3  2  0  0  0  0
 10 11  1  0  0  0  0
 11 12  2  0  0  0  0
 11 13  1  0  0  0  0
 12  9  1  0  0  0  0
 13 14  2  0  0  0  0
 15 14  1  0  0  0  0
 16 17  1  0  0  0  0
 16 15  1  0  0  0  0
 17 18  1  0  0  0  0
 19 18  1  0  0  0  0
 19 20  1  0  0  0  0
 21 12  1  0  0  0  0
 22 21  1  0  0  0  0
 23 22  1  0  0  0  0
 23 24  1  0  0  0  0
 24 25  1  6  0  0  0
 26 27  1  1  0  0  0
 26 24  1  0  0  0  0
 26 28  1  0  0  0  0
 28 29  1  0  0  0  0
 29 31  1  0  0  0  0
 31 30  1  1  0  0  0
 34 33  1  1  0  0  0
 34 32  1  0  0  0  0
 34 31  1  0  0  0  0
 35 37  1  0  0  0  0
 36 37  2  0  0  0  0
 37 38  2  0  0  0  0
 37 39  1  0  0  0  0
 40 39  1  6  0  0  0
 40 56  1  0  0  0  0
 41 48  1  6  0  0  0
 41 47  1  0  0  0  0
 41 46  1  0  0  0  0
 43 42  2  0  0  0  0
 45 40  1  0  0  0  0
 45 43  1  0  0  0  0
 46 44  2  0  0  0  0
 46 42  1  0  0  0  0
 47 45  2  0  0  0  0
 49 52  1  0  0  0  0
 50 51  1  0  0  0  0
 50 49  1  0  0  0  0
 51 53  1  0  0  0  0
 52 48  1  0  0  0  0
 53 54  1  0  0  0  0
 54 48  1  0  0  0  0
 56 55  1  0  0  0  0
M  END
>  <MODEL>
9

>  <REMARK>
 VINA RESULT:      -4.9      3.056      7.937
  Name = 
  23 active torsions:
  status: ('A' for Active; 'I' for Inactive)
    1  A    between atoms: C_1  and  C_8
    2  A    between atoms: C_1  and  C_31
    3  A    between atoms: C_2  and  N_46
    4  A    between atoms: C_4  and  C_7
    5  A    between atoms: C_4  and  C_36
    6  A    between atoms: N_6  and  C_43
    7  A    between atoms: C_7  and  C_20
    8  A    between atoms: C_8  and  C_42
    9  A    between atoms: C_9  and  N_14
   10  A    between atoms: C_11  and  N_21
   11  A    between atoms: C_20  and  C_23
   12  A    between atoms: N_21  and  C_31
   13  A    between atoms: C_22  and  C_26
   14  A    between atoms: C_22  and  O_28
   15  A    between atoms: C_22  and  C_38
   16  A    between atoms: C_23  and  N_51
   17  A    between atoms: C_26  and  S_39
   18  A    between atoms: C_32  and  N_51
   19  A    between atoms: C_32  and  C_54
   20  A    between atoms: C_36  and  C_56
   21  A    between atoms: S_39  and  N_46
   22  A    between atoms: C_41  and  C_54
   23  A    between atoms: C_53  and  C_56
                            x       y       z     vdW  Elec       q    Type
                         _______ _______ _______ _____ _____    ______ ____

>  <TORSDO>
F 23

$$$$
