=
 OpenBabel10232407423D

 36 39  0  0  1  0  0  0  0  0999 V2000
  186.1250  178.3420  143.1550 C   0  0  0  0  0  0  0  0  0  0  0  0
  187.1700  178.0420  142.2770 C   0  0  0  0  0  3  0  0  0  0  0  0
  185.8030  178.8310  140.4460 C   0  0  0  0  0  3  0  0  0  0  0  0
  184.9620  178.8630  142.6790 N   0  0  0  0  0  0  0  0  0  0  0  0
  184.7820  179.1140  141.3550 C   0  0  0  0  0  3  0  0  0  0  0  0
  187.0160  178.2910  140.9040 C   0  0  0  0  0  0  0  0  0  0  0  0
  187.7880  177.8280  138.5510 C   0  0  0  0  0  2  0  0  0  0  0  0
  188.0770  177.9820  139.9820 N   0  0  0  0  0  0  0  0  0  0  0  0
  190.1190  176.5970  139.9310 C   0  0  0  0  0  2  0  0  0  0  0  0
  189.0300  177.4070  137.7670 C   0  0  0  0  0  2  0  0  0  0  0  0
  189.7240  176.2530  138.4880 C   0  0  1  0  0  3  0  0  0  0  0  0
  189.4580  177.8730  140.4580 C   0  0  0  0  0  2  0  0  0  0  0  0
  192.0260  172.7110  135.8330 C   0  0  0  0  0  1  0  0  0  0  0  0
  192.0100  174.0660  136.4450 C   0  0  0  0  0  0  0  0  0  0  0  0
  190.9060  175.7710  137.7170 C   0  0  0  0  0  0  0  0  0  0  0  0
  193.0860  176.1310  136.8630 C   0  0  0  0  0  0  0  0  0  0  0  0
  193.0850  174.8880  136.3130 N   0  0  0  0  0  0  0  0  0  0  0  0
  194.2240  176.9690  136.7220 N   0  0  0  0  0  1  0  0  0  0  0  0
  190.8890  174.4940  137.1560 C   0  0  0  0  0  3  0  0  0  0  0  0
  192.0040  176.5640  137.5630 N   0  0  0  0  0  0  0  0  0  0  0  0
  186.2650  178.0300  144.6040 C   0  0  0  0  0  2  0  0  0  0  0  0
  185.8590  179.1090  146.8810 N   0  0  0  0  0  0  0  0  0  0  0  0
  184.6490  178.4220  146.4060 C   0  0  0  0  0  2  0  0  0  0  0  0
  185.5160  179.0790  145.4320 C   0  0  2  0  0  3  0  0  0  0  0  0
  186.7870  178.0570  147.3000 C   0  0  0  0  0  2  0  0  0  0  0  0
  187.6790  178.5620  148.4250 C   0  0  0  0  0  2  0  0  0  0  0  0
  189.0930  178.0150  148.2920 C   0  0  0  0  0  2  0  0  0  0  0  0
  189.0980  176.7660  147.4200 C   0  0  0  0  0  2  0  0  0  0  0  0
  190.1840  176.8060  146.3430 C   0  0  2  0  0  3  0  0  0  0  0  0
  192.2090  175.5500  146.3470 O   0  0  0  0  0  0  0  0  0  0  0  0
  191.5250  176.4500  146.9000 C   0  0  0  0  0  0  0  0  0  0  0  0
  192.0170  177.0920  148.0300 O   0  0  0  0  0  1  0  0  0  0  0  0
  190.2370  178.1380  145.5890 C   0  0  0  0  0  2  0  0  0  0  0  0
  190.1430  176.6290  143.7120 O   0  0  0  0  0  1  0  0  0  0  0  0
  190.2560  177.9720  144.0710 C   0  0  2  0  0  3  0  0  0  0  0  0
  191.5070  178.5750  143.4590 C   0  0  0  0  0  1  0  0  0  0  0  0
  1 21  1  0  0  0  0
  2  1  2  0  0  0  0
  3  6  2  0  0  0  0
  3  5  1  0  0  0  0
  4  1  1  0  0  0  0
  5  4  2  0  0  0  0
  6  2  1  0  0  0  0
  7  8  1  0  0  0  0
  8 12  1  0  0  0  0
  8  6  1  0  0  0  0
  9 12  1  0  0  0  0
 10 11  1  0  0  0  0
 10  7  1  0  0  0  0
 11 15  1  6  0  0  0
 11  9  1  0  0  0  0
 13 14  1  0  0  0  0
 14 19  2  0  0  0  0
 16 20  1  0  0  0  0
 17 14  1  0  0  0  0
 17 16  2  0  0  0  0
 18 16  1  0  0  0  0
 19 15  1  0  0  0  0
 20 15  2  0  0  0  0
 22 25  1  0  0  0  0
 23 22  1  0  0  0  0
 24 21  1  6  0  0  0
 24 23  1  0  0  0  0
 24 22  1  0  0  0  0
 25 26  1  0  0  0  0
 27 26  1  0  0  0  0
 28 27  1  0  0  0  0
 29 33  1  1  0  0  0
 29 31  1  0  0  0  0
 29 28  1  0  0  0  0
 30 31  2  0  0  0  0
 31 32  1  0  0  0  0
 34 35  1  0  0  0  0
 35 36  1  1  0  0  0
 35 33  1  0  0  0  0
M  END
>  <MODEL>
1

>  <REMARK>
 VINA RESULT:      -8.3      0.000      0.000
  Name = 
  12 active torsions:
  status: ('A' for Active; 'I' for Inactive)
    1  A    between atoms: C_4  and  C_27
    2  A    between atoms: N_5  and  C_25
    3  A    between atoms: C_6  and  C_17
    4  A    between atoms: C_6  and  C_30
    5  A    between atoms: C_9  and  N_10
    6  A    between atoms: C_9  and  C_30
    7  A    between atoms: C_11  and  C_29
    8  A    between atoms: C_17  and  C_36
    9  A    between atoms: C_18  and  C_22
   10  A    between atoms: C_19  and  C_36
   11  A    between atoms: C_22  and  C_36
   12  A    between atoms: C_27  and  C_31
                            x       y       z     vdW  Elec       q    Type
                         _______ _______ _______ _____ _____    ______ ____

>  <TORSDO>
F 12

$$$$
=
 OpenBabel10232407423D

 36 39  0  0  1  0  0  0  0  0999 V2000
  189.9230  177.5740  145.1900 C   0  0  0  0  0  0  0  0  0  0  0  0
  189.6710  177.8520  143.8440 C   0  0  0  0  0  3  0  0  0  0  0  0
  191.4710  176.3560  143.2390 C   0  0  0  0  0  3  0  0  0  0  0  0
  190.9230  176.7180  145.5340 N   0  0  0  0  0  0  0  0  0  0  0  0
  191.6930  176.1070  144.5950 C   0  0  0  0  0  3  0  0  0  0  0  0
  190.4480  177.2360  142.8500 C   0  0  0  0  0  0  0  0  0  0  0  0
  188.9140  178.0550  141.0270 C   0  0  0  0  0  2  0  0  0  0  0  0
  190.2090  177.5160  141.4580 N   0  0  0  0  0  0  0  0  0  0  0  0
  190.7610  176.5260  139.2670 C   0  0  0  0  0  2  0  0  0  0  0  0
  188.8360  178.1880  139.5080 C   0  0  0  0  0  2  0  0  0  0  0  0
  189.3290  176.8980  138.8560 C   0  0  1  0  0  3  0  0  0  0  0  0
  191.2750  177.3150  140.4740 C   0  0  0  0  0  2  0  0  0  0  0  0
  186.6860  177.9670  134.7610 C   0  0  0  0  0  1  0  0  0  0  0  0
  187.9320  177.4760  135.4070 C   0  0  0  0  0  0  0  0  0  0  0  0
  189.2060  176.9640  137.3710 C   0  0  0  0  0  0  0  0  0  0  0  0
  190.1310  176.6250  135.2170 C   0  0  0  0  0  0  0  0  0  0  0  0
  188.9830  177.0730  134.6440 N   0  0  0  0  0  0  0  0  0  0  0  0
  191.2130  176.1990  134.4010 N   0  0  0  0  0  1  0  0  0  0  0  0
  188.0230  177.4290  136.7980 C   0  0  0  0  0  3  0  0  0  0  0  0
  190.2360  176.5680  136.5710 N   0  0  0  0  0  0  0  0  0  0  0  0
  189.1350  178.2660  146.2470 C   0  0  0  0  0  2  0  0  0  0  0  0
  187.1140  177.4290  147.5620 N   0  0  0  0  0  0  0  0  0  0  0  0
  188.1800  177.8730  148.4710 C   0  0  0  0  0  2  0  0  0  0  0  0
  188.5490  177.2310  147.2130 C   0  0  2  0  0  3  0  0  0  0  0  0
  186.5220  178.6450  147.0020 C   0  0  0  0  0  2  0  0  0  0  0  0
  185.1340  178.3490  146.4540 C   0  0  0  0  0  2  0  0  0  0  0  0
  184.9120  179.0410  145.1170 C   0  0  0  0  0  2  0  0  0  0  0  0
  183.5400  178.6880  144.5570 C   0  0  0  0  0  2  0  0  0  0  0  0
  183.4350  178.9470  143.0540 C   0  0  2  0  0  3  0  0  0  0  0  0
  181.7120  178.4110  141.4960 O   0  0  0  0  0  0  0  0  0  0  0  0
  182.0130  178.9500  142.5930 C   0  0  0  0  0  0  0  0  0  0  0  0
  181.0220  179.5570  143.3560 O   0  0  0  0  0  1  0  0  0  0  0  0
  184.2830  177.9850  142.2160 C   0  0  0  0  0  2  0  0  0  0  0  0
  185.6640  179.9400  141.9320 O   0  0  0  0  0  1  0  0  0  0  0  0
  185.3610  178.6890  141.3940 C   0  0  2  0  0  3  0  0  0  0  0  0
  184.9520  178.8290  139.9390 C   0  0  0  0  0  1  0  0  0  0  0  0
  1  4  1  0  0  0  0
  1 21  1  0  0  0  0
  2  1  2  0  0  0  0
  3  5  1  0  0  0  0
  5  4  2  0  0  0  0
  6  3  2  0  0  0  0
  6  2  1  0  0  0  0
  7  8  1  0  0  0  0
  8  6  1  0  0  0  0
  9 12  1  0  0  0  0
 10  7  1  0  0  0  0
 11 15  1  6  0  0  0
 11  9  1  0  0  0  0
 11 10  1  0  0  0  0
 12  8  1  0  0  0  0
 13 14  1  0  0  0  0
 14 19  2  0  0  0  0
 16 20  1  0  0  0  0
 17 16  2  0  0  0  0
 17 14  1  0  0  0  0
 18 16  1  0  0  0  0
 19 15  1  0  0  0  0
 20 15  2  0  0  0  0
 22 23  1  0  0  0  0
 24 21  1  6  0  0  0
 24 22  1  0  0  0  0
 24 23  1  0  0  0  0
 25 22  1  0  0  0  0
 26 25  1  0  0  0  0
 27 26  1  0  0  0  0
 28 27  1  0  0  0  0
 29 33  1  6  0  0  0
 29 28  1  0  0  0  0
 30 31  2  0  0  0  0
 31 29  1  0  0  0  0
 31 32  1  0  0  0  0
 35 36  1  6  0  0  0
 35 34  1  0  0  0  0
 35 33  1  0  0  0  0
M  END
>  <MODEL>
2

>  <REMARK>
 VINA RESULT:      -7.9      3.169      5.674
  Name = 
  12 active torsions:
  status: ('A' for Active; 'I' for Inactive)
    1  A    between atoms: C_4  and  C_27
    2  A    between atoms: N_5  and  C_25
    3  A    between atoms: C_6  and  C_17
    4  A    between atoms: C_6  and  C_30
    5  A    between atoms: C_9  and  N_10
    6  A    between atoms: C_9  and  C_30
    7  A    between atoms: C_11  and  C_29
    8  A    between atoms: C_17  and  C_36
    9  A    between atoms: C_18  and  C_22
   10  A    between atoms: C_19  and  C_36
   11  A    between atoms: C_22  and  C_36
   12  A    between atoms: C_27  and  C_31
                            x       y       z     vdW  Elec       q    Type
                         _______ _______ _______ _____ _____    ______ ____

>  <TORSDO>
F 12

$$$$
=
 OpenBabel10232407423D

 36 39  0  0  1  0  0  0  0  0999 V2000
  187.8600  177.6290  146.4490 C   0  0  0  0  0  0  0  0  0  0  0  0
  187.0050  177.8720  145.3700 C   0  0  0  0  0  3  0  0  0  0  0  0
  185.5520  179.1130  146.8510 C   0  0  0  0  0  3  0  0  0  0  0  0
  187.5540  178.1140  147.6830 N   0  0  0  0  0  0  0  0  0  0  0  0
  186.4300  178.8470  147.9040 C   0  0  0  0  0  3  0  0  0  0  0  0
  185.8370  178.6250  145.5650 C   0  0  0  0  0  0  0  0  0  0  0  0
  183.4890  178.8490  144.6820 C   0  0  0  0  0  2  0  0  0  0  0  0
  184.9400  178.8790  144.4680 N   0  0  0  0  0  0  0  0  0  0  0  0
  184.8040  178.3800  142.0550 C   0  0  0  0  0  2  0  0  0  0  0  0
  182.7220  179.0470  143.3760 C   0  0  0  0  0  2  0  0  0  0  0  0
  183.3070  178.1390  142.2960 C   0  0  1  0  0  3  0  0  0  0  0  0
  185.4710  179.2210  143.1460 C   0  0  0  0  0  2  0  0  0  0  0  0
  182.2580  176.5170  137.6960 C   0  0  0  0  0  1  0  0  0  0  0  0
  182.0430  177.4760  138.8120 C   0  0  0  0  0  0  0  0  0  0  0  0
  182.5410  178.2570  141.0210 C   0  0  0  0  0  0  0  0  0  0  0  0
  180.9290  179.3690  139.6910 C   0  0  0  0  0  0  0  0  0  0  0  0
  181.1410  178.4850  138.6800 N   0  0  0  0  0  0  0  0  0  0  0  0
  179.9890  180.4220  139.5280 N   0  0  0  0  0  1  0  0  0  0  0  0
  182.7680  177.3400  139.9950 C   0  0  0  0  0  3  0  0  0  0  0  0
  181.6300  179.2550  140.8500 N   0  0  0  0  0  0  0  0  0  0  0  0
  189.0720  176.7860  146.2570 C   0  0  0  0  0  2  0  0  0  0  0  0
  191.4980  177.4410  146.6990 N   0  0  0  0  0  0  0  0  0  0  0  0
  191.1780  176.1600  147.3460 C   0  0  0  0  0  2  0  0  0  0  0  0
  190.1460  177.1900  147.2720 C   0  0  2  0  0  3  0  0  0  0  0  0
  191.6050  177.1590  145.2670 C   0  0  0  0  0  2  0  0  0  0  0  0
  191.8680  178.4460  144.4970 C   0  0  0  0  0  2  0  0  0  0  0  0
  191.3790  178.3360  143.0610 C   0  0  0  0  0  2  0  0  0  0  0  0
  189.8580  178.4010  143.0110 C   0  0  0  0  0  2  0  0  0  0  0  0
  189.2570  177.3640  142.0610 C   0  0  2  0  0  3  0  0  0  0  0  0
  188.0250  175.6520  143.1700 O   0  0  0  0  0  1  0  0  0  0  0  0
  189.1360  176.0230  142.7130 C   0  0  0  0  0  0  0  0  0  0  0  0
  190.2440  175.1920  142.8340 O   0  0  0  0  0  0  0  0  0  0  0  0
  190.0040  177.2620  140.7280 C   0  0  0  0  0  2  0  0  0  0  0  0
  189.8020  178.0450  138.4580 O   0  0  0  0  0  1  0  0  0  0  0  0
  189.1010  177.4610  139.5130 C   0  0  2  0  0  3  0  0  0  0  0  0
  187.8790  178.2950  139.8560 C   0  0  0  0  0  1  0  0  0  0  0  0
  1  4  1  0  0  0  0
  2  6  1  0  0  0  0
  2  1  2  0  0  0  0
  3  5  1  0  0  0  0
  4  5  2  0  0  0  0
  6  3  2  0  0  0  0
  8  7  1  0  0  0  0
  8  6  1  0  0  0  0
  9 11  1  0  0  0  0
  9 12  1  0  0  0  0
 10  7  1  0  0  0  0
 11 15  1  6  0  0  0
 11 10  1  0  0  0  0
 12  8  1  0  0  0  0
 13 14  1  0  0  0  0
 14 19  2  0  0  0  0
 16 20  1  0  0  0  0
 17 14  1  0  0  0  0
 17 16  2  0  0  0  0
 18 16  1  0  0  0  0
 19 15  1  0  0  0  0
 20 15  2  0  0  0  0
 21  1  1  0  0  0  0
 22 24  1  0  0  0  0
 22 23  1  0  0  0  0
 24 21  1  6  0  0  0
 24 23  1  0  0  0  0
 25 22  1  0  0  0  0
 26 25  1  0  0  0  0
 27 26  1  0  0  0  0
 28 27  1  0  0  0  0
 29 33  1  6  0  0  0
 29 31  1  0  0  0  0
 29 28  1  0  0  0  0
 31 32  2  0  0  0  0
 31 30  1  0  0  0  0
 34 35  1  0  0  0  0
 35 36  1  1  0  0  0
 35 33  1  0  0  0  0
M  END
>  <MODEL>
3

>  <REMARK>
 VINA RESULT:      -7.8      3.959      7.398
  Name = 
  12 active torsions:
  status: ('A' for Active; 'I' for Inactive)
    1  A    between atoms: C_4  and  C_27
    2  A    between atoms: N_5  and  C_25
    3  A    between atoms: C_6  and  C_17
    4  A    between atoms: C_6  and  C_30
    5  A    between atoms: C_9  and  N_10
    6  A    between atoms: C_9  and  C_30
    7  A    between atoms: C_11  and  C_29
    8  A    between atoms: C_17  and  C_36
    9  A    between atoms: C_18  and  C_22
   10  A    between atoms: C_19  and  C_36
   11  A    between atoms: C_22  and  C_36
   12  A    between atoms: C_27  and  C_31
                            x       y       z     vdW  Elec       q    Type
                         _______ _______ _______ _____ _____    ______ ____

>  <TORSDO>
F 12

$$$$
=
 OpenBabel10232407423D

 36 39  0  0  1  0  0  0  0  0999 V2000
  191.0210  175.9380  138.3280 C   0  0  0  0  0  0  0  0  0  0  0  0
  190.3680  176.3870  139.4790 C   0  0  0  0  0  3  0  0  0  0  0  0
  192.4290  177.4270  140.1960 C   0  0  0  0  0  3  0  0  0  0  0  0
  192.3370  176.2270  138.1340 N   0  0  0  0  0  0  0  0  0  0  0  0
  193.0470  176.9580  139.0340 C   0  0  0  0  0  3  0  0  0  0  0  0
  191.0730  177.1450  140.4270 C   0  0  0  0  0  0  0  0  0  0  0  0
  191.1670  177.6980  142.8830 C   0  0  0  0  0  2  0  0  0  0  0  0
  190.4200  177.6090  141.6230 N   0  0  0  0  0  0  0  0  0  0  0  0
  188.2120  177.4060  142.7060 C   0  0  0  0  0  2  0  0  0  0  0  0
  190.2680  178.1190  144.0440 C   0  0  0  0  0  2  0  0  0  0  0  0
  188.9870  177.2880  144.0260 C   0  0  1  0  0  3  0  0  0  0  0  0
  189.0230  178.0470  141.5770 C   0  0  0  0  0  2  0  0  0  0  0  0
  184.5380  178.5890  145.8730 C   0  0  0  0  0  1  0  0  0  0  0  0
  185.9740  178.2530  146.0680 C   0  0  0  0  0  0  0  0  0  0  0  0
  188.1110  177.6250  145.1850 C   0  0  0  0  0  0  0  0  0  0  0  0
  187.8210  177.9470  147.5130 C   0  0  0  0  0  0  0  0  0  0  0  0
  186.5110  178.2550  147.3160 N   0  0  0  0  0  0  0  0  0  0  0  0
  188.3650  177.9650  148.8250 N   0  0  0  0  0  1  0  0  0  0  0  0
  186.7690  177.9360  144.9670 C   0  0  0  0  0  3  0  0  0  0  0  0
  188.6130  177.6400  146.4520 N   0  0  0  0  0  0  0  0  0  0  0  0
  190.2900  175.0900  137.3470 C   0  0  0  0  0  2  0  0  0  0  0  0
  189.0110  175.5380  135.1840 N   0  0  0  0  0  0  0  0  0  0  0  0
  190.2650  174.8220  134.9100 C   0  0  0  0  0  2  0  0  0  0  0  0
  190.2350  175.8020  135.9920 C   0  0  2  0  0  3  0  0  0  0  0  0
  188.1010  174.5560  135.7770 C   0  0  0  0  0  2  0  0  0  0  0  0
  186.6760  175.0900  135.7700 C   0  0  0  0  0  2  0  0  0  0  0  0
  186.3470  175.7910  137.0800 C   0  0  0  0  0  2  0  0  0  0  0  0
  185.5960  177.0890  136.8130 C   0  0  0  0  0  2  0  0  0  0  0  0
  186.2360  178.2910  137.5100 C   0  0  2  0  0  3  0  0  0  0  0  0
  187.8370  178.4290  135.7510 O   0  0  0  0  0  0  0  0  0  0  0  0
  187.6050  178.5710  136.9790 C   0  0  0  0  0  0  0  0  0  0  0  0
  188.6280  178.9720  137.8310 O   0  0  0  0  0  1  0  0  0  0  0  0
  186.2530  178.1650  139.0360 C   0  0  0  0  0  2  0  0  0  0  0  0
  184.6310  179.9470  139.0690 O   0  0  0  0  0  1  0  0  0  0  0  0
  185.0200  178.7690  139.7060 C   0  0  2  0  0  3  0  0  0  0  0  0
  185.2560  179.0230  141.1840 C   0  0  0  0  0  1  0  0  0  0  0  0
  1  2  1  0  0  0  0
  2  6  2  0  0  0  0
  3  6  1  0  0  0  0
  4  1  2  0  0  0  0
  4  5  1  0  0  0  0
  5  3  2  0  0  0  0
  6  8  1  0  0  0  0
  7 10  1  0  0  0  0
  8  7  1  0  0  0  0
  9 11  1  0  0  0  0
 11 10  1  0  0  0  0
 11 15  1  1  0  0  0
 12  8  1  0  0  0  0
 12  9  1  0  0  0  0
 13 14  1  0  0  0  0
 14 17  1  0  0  0  0
 15 20  2  0  0  0  0
 16 18  1  0  0  0  0
 17 16  2  0  0  0  0
 19 15  1  0  0  0  0
 19 14  2  0  0  0  0
 20 16  1  0  0  0  0
 21  1  1  0  0  0  0
 22 25  1  0  0  0  0
 22 24  1  0  0  0  0
 23 22  1  0  0  0  0
 23 24  1  0  0  0  0
 24 21  1  1  0  0  0
 26 25  1  0  0  0  0
 26 27  1  0  0  0  0
 28 27  1  0  0  0  0
 29 28  1  6  0  0  0
 29 33  1  0  0  0  0
 30 31  2  0  0  0  0
 31 29  1  0  0  0  0
 31 32  1  0  0  0  0
 33 35  1  0  0  0  0
 34 35  1  0  0  0  0
 35 36  1  1  0  0  0
M  END
>  <MODEL>
4

>  <REMARK>
 VINA RESULT:      -7.8      3.236      9.599
  Name = 
  12 active torsions:
  status: ('A' for Active; 'I' for Inactive)
    1  A    between atoms: C_4  and  C_27
    2  A    between atoms: N_5  and  C_25
    3  A    between atoms: C_6  and  C_17
    4  A    between atoms: C_6  and  C_30
    5  A    between atoms: C_9  and  N_10
    6  A    between atoms: C_9  and  C_30
    7  A    between atoms: C_11  and  C_29
    8  A    between atoms: C_17  and  C_36
    9  A    between atoms: C_18  and  C_22
   10  A    between atoms: C_19  and  C_36
   11  A    between atoms: C_22  and  C_36
   12  A    between atoms: C_27  and  C_31
                            x       y       z     vdW  Elec       q    Type
                         _______ _______ _______ _____ _____    ______ ____

>  <TORSDO>
F 12

$$$$
=
 OpenBabel10232407423D

 36 39  0  0  1  0  0  0  0  0999 V2000
  189.3570  177.1800  137.4620 C   0  0  0  0  0  0  0  0  0  0  0  0
  188.9640  177.5740  138.7440 C   0  0  0  0  0  3  0  0  0  0  0  0
  190.9840  176.5810  139.6240 C   0  0  0  0  0  3  0  0  0  0  0  0
  190.5240  176.5040  137.2840 N   0  0  0  0  0  0  0  0  0  0  0  0
  191.3400  176.2010  138.3290 C   0  0  0  0  0  3  0  0  0  0  0  0
  189.7850  177.2780  139.8430 C   0  0  0  0  0  0  0  0  0  0  0  0
  190.1750  177.2190  142.3310 C   0  0  0  0  0  2  0  0  0  0  0  0
  189.3940  177.6690  141.1730 N   0  0  0  0  0  0  0  0  0  0  0  0
  187.3090  178.0110  142.4470 C   0  0  0  0  0  2  0  0  0  0  0  0
  189.5370  177.6620  143.6470 C   0  0  0  0  0  2  0  0  0  0  0  0
  188.0420  177.3490  143.6220 C   0  0  1  0  0  3  0  0  0  0  0  0
  188.2490  178.5610  141.3710 C   0  0  0  0  0  2  0  0  0  0  0  0
  188.2360  177.8300  148.5850 C   0  0  0  0  0  1  0  0  0  0  0  0
  187.4920  177.9350  147.3010 C   0  0  0  0  0  0  0  0  0  0  0  0
  187.3960  177.7090  144.9180 C   0  0  0  0  0  0  0  0  0  0  0  0
  185.5070  178.4640  146.1290 C   0  0  0  0  0  0  0  0  0  0  0  0
  186.2010  178.3580  147.2940 N   0  0  0  0  0  0  0  0  0  0  0  0
  184.1540  178.8980  146.1450 N   0  0  0  0  0  1  0  0  0  0  0  0
  188.1220  177.5980  146.1030 C   0  0  0  0  0  3  0  0  0  0  0  0
  186.1020  178.1350  144.9530 N   0  0  0  0  0  0  0  0  0  0  0  0
  188.4640  177.4460  136.3010 C   0  0  0  0  0  2  0  0  0  0  0  0
  186.6430  175.9640  135.2990 N   0  0  0  0  0  0  0  0  0  0  0  0
  187.2170  175.3440  136.5010 C   0  0  0  0  0  2  0  0  0  0  0  0
  188.0880  176.1230  135.6260 C   0  0  2  0  0  3  0  0  0  0  0  0
  185.7970  177.0620  135.7710 C   0  0  0  0  0  2  0  0  0  0  0  0
  184.3810  176.9000  135.2360 C   0  0  0  0  0  2  0  0  0  0  0  0
  183.3590  176.9620  136.3620 C   0  0  0  0  0  2  0  0  0  0  0  0
  184.0570  176.9070  137.7150 C   0  0  0  0  0  2  0  0  0  0  0  0
  183.5370  177.9670  138.6870 C   0  0  2  0  0  3  0  0  0  0  0  0
  184.1330  180.2250  139.1650 O   0  0  0  0  0  1  0  0  0  0  0  0
  184.5330  179.0630  138.8920 C   0  0  0  0  0  0  0  0  0  0  0  0
  185.8950  178.8150  138.7680 O   0  0  0  0  0  0  0  0  0  0  0  0
  183.0770  177.3840  140.0260 C   0  0  0  0  0  2  0  0  0  0  0  0
  181.0300  178.4810  139.3800 O   0  0  0  0  0  1  0  0  0  0  0  0
  181.6800  177.8440  140.4380 C   0  0  2  0  0  3  0  0  0  0  0  0
  181.7280  178.7570  141.6500 C   0  0  0  0  0  1  0  0  0  0  0  0
  1  2  1  0  0  0  0
  2  6  2  0  0  0  0
  3  6  1  0  0  0  0
  4  1  2  0  0  0  0
  4  5  1  0  0  0  0
  5  3  2  0  0  0  0
  6  8  1  0  0  0  0
  7 10  1  0  0  0  0
  8 12  1  0  0  0  0
  8  7  1  0  0  0  0
  9 11  1  0  0  0  0
 11 10  1  0  0  0  0
 11 15  1  1  0  0  0
 12  9  1  0  0  0  0
 14 13  1  0  0  0  0
 15 20  2  0  0  0  0
 15 19  1  0  0  0  0
 16 18  1  0  0  0  0
 16 17  2  0  0  0  0
 17 14  1  0  0  0  0
 19 14  2  0  0  0  0
 20 16  1  0  0  0  0
 21  1  1  0  0  0  0
 22 24  1  0  0  0  0
 22 25  1  0  0  0  0
 22 23  1  0  0  0  0
 24 21  1  1  0  0  0
 24 23  1  0  0  0  0
 26 25  1  0  0  0  0
 26 27  1  0  0  0  0
 27 28  1  0  0  0  0
 29 28  1  6  0  0  0
 29 31  1  0  0  0  0
 29 33  1  0  0  0  0
 31 30  1  0  0  0  0
 32 31  2  0  0  0  0
 33 35  1  0  0  0  0
 34 35  1  0  0  0  0
 35 36  1  1  0  0  0
M  END
>  <MODEL>
5

>  <REMARK>
 VINA RESULT:      -7.8      3.419      9.716
  Name = 
  12 active torsions:
  status: ('A' for Active; 'I' for Inactive)
    1  A    between atoms: C_4  and  C_27
    2  A    between atoms: N_5  and  C_25
    3  A    between atoms: C_6  and  C_17
    4  A    between atoms: C_6  and  C_30
    5  A    between atoms: C_9  and  N_10
    6  A    between atoms: C_9  and  C_30
    7  A    between atoms: C_11  and  C_29
    8  A    between atoms: C_17  and  C_36
    9  A    between atoms: C_18  and  C_22
   10  A    between atoms: C_19  and  C_36
   11  A    between atoms: C_22  and  C_36
   12  A    between atoms: C_27  and  C_31
                            x       y       z     vdW  Elec       q    Type
                         _______ _______ _______ _____ _____    ______ ____

>  <TORSDO>
F 12

$$$$
=
 OpenBabel10232407423D

 36 39  0  0  1  0  0  0  0  0999 V2000
  187.6160  177.7000  145.8450 C   0  0  0  0  0  0  0  0  0  0  0  0
  186.9120  177.9380  144.6610 C   0  0  0  0  0  3  0  0  0  0  0  0
  185.0980  178.8530  145.9700 C   0  0  0  0  0  3  0  0  0  0  0  0
  187.0640  178.0280  147.0440 N   0  0  0  0  0  0  0  0  0  0  0  0
  185.8320  178.5970  147.1300 C   0  0  0  0  0  3  0  0  0  0  0  0
  185.6380  178.5250  144.7160 C   0  0  0  0  0  0  0  0  0  0  0  0
  183.4570  178.4770  143.4570 C   0  0  0  0  0  2  0  0  0  0  0  0
  184.8940  178.7700  143.5080 N   0  0  0  0  0  0  0  0  0  0  0  0
  185.2330  178.5740  141.0720 C   0  0  0  0  0  2  0  0  0  0  0  0
  182.8820  178.7160  142.0620 C   0  0  0  0  0  2  0  0  0  0  0  0
  183.7860  178.0640  141.0180 C   0  0  1  0  0  3  0  0  0  0  0  0
  185.5550  179.3630  142.3430 C   0  0  0  0  0  2  0  0  0  0  0  0
  181.1350  180.6610  137.6830 C   0  0  0  0  0  1  0  0  0  0  0  0
  181.9450  179.4690  138.0480 C   0  0  0  0  0  0  0  0  0  0  0  0
  183.2210  178.2200  139.6460 C   0  0  0  0  0  0  0  0  0  0  0  0
  182.9200  177.4000  137.4450 C   0  0  0  0  0  0  0  0  0  0  0  0
  182.1780  178.4950  137.1290 N   0  0  0  0  0  0  0  0  0  0  0  0
  183.1430  176.3890  136.4720 N   0  0  0  0  0  1  0  0  0  0  0  0
  182.4650  179.3500  139.3370 C   0  0  0  0  0  3  0  0  0  0  0  0
  183.4320  177.2650  138.6970 N   0  0  0  0  0  0  0  0  0  0  0  0
  188.9440  177.0290  145.7930 C   0  0  0  0  0  2  0  0  0  0  0  0
  190.6620  177.6520  144.0120 N   0  0  0  0  0  0  0  0  0  0  0  0
  191.3190  177.3900  145.3010 C   0  0  0  0  0  2  0  0  0  0  0  0
  190.0020  178.0190  145.2950 C   0  0  2  0  0  3  0  0  0  0  0  0
  190.2640  176.3450  143.4840 C   0  0  0  0  0  2  0  0  0  0  0  0
  189.4270  176.5210  142.2250 C   0  0  0  0  0  2  0  0  0  0  0  0
  190.1500  177.3860  141.2030 C   0  0  0  0  0  2  0  0  0  0  0  0
  189.1460  178.1050  140.3110 C   0  0  0  0  0  2  0  0  0  0  0  0
  189.3730  177.8240  138.8250 C   0  0  2  0  0  3  0  0  0  0  0  0
  189.0180  179.6350  137.3160 O   0  0  0  0  0  0  0  0  0  0  0  0
  188.5060  178.6840  137.9620 C   0  0  0  0  0  0  0  0  0  0  0  0
  187.1370  178.4540  137.8800 O   0  0  0  0  0  1  0  0  0  0  0  0
  189.2170  176.3450  138.4600 C   0  0  0  0  0  2  0  0  0  0  0  0
  190.4890  174.4220  137.7590 O   0  0  0  0  0  1  0  0  0  0  0  0
  190.3730  175.8050  137.6210 C   0  0  2  0  0  3  0  0  0  0  0  0
  191.6860  176.4800  137.9780 C   0  0  0  0  0  1  0  0  0  0  0  0
  1  4  1  0  0  0  0
  2  6  1  0  0  0  0
  2  1  2  0  0  0  0
  3  5  1  0  0  0  0
  4  5  2  0  0  0  0
  6  3  2  0  0  0  0
  7  8  1  0  0  0  0
  8  6  1  0  0  0  0
  9 12  1  0  0  0  0
 10  7  1  0  0  0  0
 11 15  1  6  0  0  0
 11  9  1  0  0  0  0
 11 10  1  0  0  0  0
 12  8  1  0  0  0  0
 13 14  1  0  0  0  0
 14 19  2  0  0  0  0
 16 20  1  0  0  0  0
 17 16  2  0  0  0  0
 17 14  1  0  0  0  0
 18 16  1  0  0  0  0
 19 15  1  0  0  0  0
 20 15  2  0  0  0  0
 21  1  1  0  0  0  0
 22 24  1  0  0  0  0
 22 23  1  0  0  0  0
 24 23  1  0  0  0  0
 24 21  1  1  0  0  0
 25 22  1  0  0  0  0
 26 25  1  0  0  0  0
 27 26  1  0  0  0  0
 28 27  1  0  0  0  0
 29 33  1  1  0  0  0
 29 28  1  0  0  0  0
 30 31  2  0  0  0  0
 31 29  1  0  0  0  0
 32 31  1  0  0  0  0
 35 34  1  0  0  0  0
 35 36  1  1  0  0  0
 35 33  1  0  0  0  0
M  END
>  <MODEL>
6

>  <REMARK>
 VINA RESULT:      -7.7      3.794      7.674
  Name = 
  12 active torsions:
  status: ('A' for Active; 'I' for Inactive)
    1  A    between atoms: C_4  and  C_27
    2  A    between atoms: N_5  and  C_25
    3  A    between atoms: C_6  and  C_17
    4  A    between atoms: C_6  and  C_30
    5  A    between atoms: C_9  and  N_10
    6  A    between atoms: C_9  and  C_30
    7  A    between atoms: C_11  and  C_29
    8  A    between atoms: C_17  and  C_36
    9  A    between atoms: C_18  and  C_22
   10  A    between atoms: C_19  and  C_36
   11  A    between atoms: C_22  and  C_36
   12  A    between atoms: C_27  and  C_31
                            x       y       z     vdW  Elec       q    Type
                         _______ _______ _______ _____ _____    ______ ____

>  <TORSDO>
F 12

$$$$
=
 OpenBabel10232407423D

 36 39  0  0  1  0  0  0  0  0999 V2000
  187.3720  176.8380  137.1000 C   0  0  0  0  0  0  0  0  0  0  0  0
  187.7280  176.9110  138.4500 C   0  0  0  0  0  3  0  0  0  0  0  0
  189.2380  178.7200  137.9130 C   0  0  0  0  0  3  0  0  0  0  0  0
  187.9430  177.6820  136.1980 N   0  0  0  0  0  0  0  0  0  0  0  0
  188.8580  178.6150  136.5740 C   0  0  0  0  0  3  0  0  0  0  0  0
  188.6690  177.8630  138.8700 C   0  0  0  0  0  0  0  0  0  0  0  0
  190.3080  177.3350  140.7080 C   0  0  0  0  0  2  0  0  0  0  0  0
  189.0540  177.9480  140.2540 N   0  0  0  0  0  0  0  0  0  0  0  0
  187.9700  177.8690  142.4690 C   0  0  0  0  0  2  0  0  0  0  0  0
  190.4790  177.4550  142.2210 C   0  0  0  0  0  2  0  0  0  0  0  0
  189.1840  177.0420  142.9170 C   0  0  1  0  0  3  0  0  0  0  0  0
  188.2250  178.6930  141.2050 C   0  0  0  0  0  2  0  0  0  0  0  0
  187.2600  177.8180  147.4560 C   0  0  0  0  0  1  0  0  0  0  0  0
  188.4070  177.4600  146.5780 C   0  0  0  0  0  0  0  0  0  0  0  0
  189.3330  177.0830  144.4010 C   0  0  0  0  0  0  0  0  0  0  0  0
  190.6760  176.8380  146.3360 C   0  0  0  0  0  0  0  0  0  0  0  0
  189.6180  177.1700  147.1230 N   0  0  0  0  0  0  0  0  0  0  0  0
  191.9360  176.5480  146.9250 N   0  0  0  0  0  1  0  0  0  0  0  0
  188.2380  177.4230  145.1940 C   0  0  0  0  0  3  0  0  0  0  0  0
  190.5320  176.8010  144.9850 N   0  0  0  0  0  0  0  0  0  0  0  0
  186.4140  175.7940  136.6430 C   0  0  0  0  0  2  0  0  0  0  0  0
  183.9710  176.5140  136.4880 N   0  0  0  0  0  0  0  0  0  0  0  0
  184.2660  175.4590  135.5080 C   0  0  0  0  0  2  0  0  0  0  0  0
  185.2990  176.4440  135.8180 C   0  0  2  0  0  3  0  0  0  0  0  0
  183.9220  175.8560  137.7950 C   0  0  0  0  0  2  0  0  0  0  0  0
  182.5330  175.9950  138.4010 C   0  0  0  0  0  2  0  0  0  0  0  0
  182.6090  176.4830  139.8410 C   0  0  0  0  0  2  0  0  0  0  0  0
  182.1460  177.9310  139.9360 C   0  0  0  0  0  2  0  0  0  0  0  0
  183.1590  178.8250  140.6520 C   0  0  2  0  0  3  0  0  0  0  0  0
  185.2520  179.3600  139.6450 O   0  0  0  0  0  1  0  0  0  0  0  0
  184.0140  179.5770  139.6810 C   0  0  0  0  0  0  0  0  0  0  0  0
  183.4550  180.5240  138.8300 O   0  0  0  0  0  0  0  0  0  0  0  0
  184.0170  178.0700  141.6700 C   0  0  0  0  0  2  0  0  0  0  0  0
  182.4950  179.0620  143.2540 O   0  0  0  0  0  1  0  0  0  0  0  0
  183.7670  178.5060  143.1120 C   0  0  2  0  0  3  0  0  0  0  0  0
  184.8240  179.4830  143.5920 C   0  0  0  0  0  1  0  0  0  0  0  0
  1  2  1  0  0  0  0
  2  6  2  0  0  0  0
  3  6  1  0  0  0  0
  4  5  1  0  0  0  0
  4  1  2  0  0  0  0
  5  3  2  0  0  0  0
  6  8  1  0  0  0  0
  7 10  1  0  0  0  0
  8  7  1  0  0  0  0
  8 12  1  0  0  0  0
  9 11  1  0  0  0  0
 10 11  1  0  0  0  0
 11 15  1  1  0  0  0
 12  9  1  0  0  0  0
 14 17  1  0  0  0  0
 14 13  1  0  0  0  0
 15 20  2  0  0  0  0
 15 19  1  0  0  0  0
 16 18  1  0  0  0  0
 16 17  2  0  0  0  0
 19 14  2  0  0  0  0
 20 16  1  0  0  0  0
 21  1  1  0  0  0  0
 22 25  1  0  0  0  0
 23 24  1  0  0  0  0
 23 22  1  0  0  0  0
 24 22  1  0  0  0  0
 24 21  1  1  0  0  0
 25 26  1  0  0  0  0
 26 27  1  0  0  0  0
 27 28  1  0  0  0  0
 29 28  1  6  0  0  0
 29 33  1  0  0  0  0
 30 31  1  0  0  0  0
 31 29  1  0  0  0  0
 32 31  2  0  0  0  0
 33 35  1  0  0  0  0
 35 34  1  0  0  0  0
 35 36  1  6  0  0  0
M  END
>  <MODEL>
7

>  <REMARK>
 VINA RESULT:      -7.6      4.023      8.568
  Name = 
  12 active torsions:
  status: ('A' for Active; 'I' for Inactive)
    1  A    between atoms: C_4  and  C_27
    2  A    between atoms: N_5  and  C_25
    3  A    between atoms: C_6  and  C_17
    4  A    between atoms: C_6  and  C_30
    5  A    between atoms: C_9  and  N_10
    6  A    between atoms: C_9  and  C_30
    7  A    between atoms: C_11  and  C_29
    8  A    between atoms: C_17  and  C_36
    9  A    between atoms: C_18  and  C_22
   10  A    between atoms: C_19  and  C_36
   11  A    between atoms: C_22  and  C_36
   12  A    between atoms: C_27  and  C_31
                            x       y       z     vdW  Elec       q    Type
                         _______ _______ _______ _____ _____    ______ ____

>  <TORSDO>
F 12

$$$$
=
 OpenBabel10232407423D

 36 39  0  0  1  0  0  0  0  0999 V2000
  185.4820  178.8200  141.8340 C   0  0  0  0  0  0  0  0  0  0  0  0
  186.5960  178.4210  141.0910 C   0  0  0  0  0  3  0  0  0  0  0  0
  185.3490  178.8530  139.0650 C   0  0  0  0  0  3  0  0  0  0  0  0
  184.3440  179.2140  141.2000 N   0  0  0  0  0  0  0  0  0  0  0  0
  184.2570  179.2410  139.8430 C   0  0  0  0  0  3  0  0  0  0  0  0
  186.5380  178.4390  139.6890 C   0  0  0  0  0  0  0  0  0  0  0  0
  187.4740  177.4500  137.5700 C   0  0  0  0  0  2  0  0  0  0  0  0
  187.6730  178.0250  138.9050 N   0  0  0  0  0  0  0  0  0  0  0  0
  189.8610  176.9460  139.2730 C   0  0  0  0  0  2  0  0  0  0  0  0
  188.7940  176.9900  136.9520 C   0  0  0  0  0  2  0  0  0  0  0  0
  189.5800  176.1740  137.9760 C   0  0  1  0  0  3  0  0  0  0  0  0
  189.0320  178.2250  139.4140 C   0  0  0  0  0  2  0  0  0  0  0  0
  192.1760  172.4940  135.8260 C   0  0  0  0  0  1  0  0  0  0  0  0
  192.0910  173.8800  136.3580 C   0  0  0  0  0  0  0  0  0  0  0  0
  190.8480  175.6510  137.3870 C   0  0  0  0  0  0  0  0  0  0  0  0
  193.1200  175.9650  136.7980 C   0  0  0  0  0  0  0  0  0  0  0  0
  193.1800  174.6930  136.3200 N   0  0  0  0  0  0  0  0  0  0  0  0
  194.2720  176.7940  136.7580 N   0  0  0  0  0  1  0  0  0  0  0  0
  190.8920  174.3460  136.8980 C   0  0  0  0  0  3  0  0  0  0  0  0
  191.9610  176.4340  137.3320 N   0  0  0  0  0  0  0  0  0  0  0  0
  185.5220  178.7510  143.3210 C   0  0  0  0  0  2  0  0  0  0  0  0
  184.1620  179.4290  145.3710 N   0  0  0  0  0  0  0  0  0  0  0  0
  183.3200  178.7170  144.4000 C   0  0  0  0  0  2  0  0  0  0  0  0
  184.3810  179.5890  143.9060 C   0  0  2  0  0  3  0  0  0  0  0  0
  185.0110  178.4140  145.9980 C   0  0  0  0  0  2  0  0  0  0  0  0
  185.8600  179.0440  147.0930 C   0  0  0  0  0  2  0  0  0  0  0  0
  187.1210  178.2290  147.3460 C   0  0  0  0  0  2  0  0  0  0  0  0
  187.6570  177.6620  146.0380 C   0  0  0  0  0  2  0  0  0  0  0  0
  189.1780  177.7690  145.9310 C   0  0  2  0  0  3  0  0  0  0  0  0
  189.0860  177.4760  143.5670 O   0  0  0  0  0  0  0  0  0  0  0  0
  189.6120  178.0850  144.5340 C   0  0  0  0  0  0  0  0  0  0  0  0
  190.6010  179.0330  144.2970 O   0  0  0  0  0  1  0  0  0  0  0  0
  189.9100  176.5360  146.4680 C   0  0  0  0  0  2  0  0  0  0  0  0
  191.9520  176.0310  145.2920 O   0  0  0  0  0  1  0  0  0  0  0  0
  191.4310  176.6670  146.4180 C   0  0  2  0  0  3  0  0  0  0  0  0
  192.0800  176.1190  147.6770 C   0  0  0  0  0  1  0  0  0  0  0  0
  1 21  1  0  0  0  0
  2  1  2  0  0  0  0
  3  6  2  0  0  0  0
  3  5  1  0  0  0  0
  4  1  1  0  0  0  0
  5  4  2  0  0  0  0
  6  2  1  0  0  0  0
  7  8  1  0  0  0  0
  8 12  1  0  0  0  0
  8  6  1  0  0  0  0
  9 12  1  0  0  0  0
 10  7  1  0  0  0  0
 10 11  1  0  0  0  0
 11 15  1  6  0  0  0
 11  9  1  0  0  0  0
 13 14  1  0  0  0  0
 14 19  2  0  0  0  0
 16 20  1  0  0  0  0
 17 14  1  0  0  0  0
 17 16  2  0  0  0  0
 18 16  1  0  0  0  0
 19 15  1  0  0  0  0
 20 15  2  0  0  0  0
 22 25  1  0  0  0  0
 23 22  1  0  0  0  0
 24 21  1  1  0  0  0
 24 23  1  0  0  0  0
 24 22  1  0  0  0  0
 25 26  1  0  0  0  0
 26 27  1  0  0  0  0
 28 27  1  0  0  0  0
 29 28  1  6  0  0  0
 29 33  1  0  0  0  0
 30 31  2  0  0  0  0
 31 29  1  0  0  0  0
 32 31  1  0  0  0  0
 34 35  1  0  0  0  0
 35 33  1  0  0  0  0
 35 36  1  1  0  0  0
M  END
>  <MODEL>
8

>  <REMARK>
 VINA RESULT:      -7.6      1.184      2.072
  Name = 
  12 active torsions:
  status: ('A' for Active; 'I' for Inactive)
    1  A    between atoms: C_4  and  C_27
    2  A    between atoms: N_5  and  C_25
    3  A    between atoms: C_6  and  C_17
    4  A    between atoms: C_6  and  C_30
    5  A    between atoms: C_9  and  N_10
    6  A    between atoms: C_9  and  C_30
    7  A    between atoms: C_11  and  C_29
    8  A    between atoms: C_17  and  C_36
    9  A    between atoms: C_18  and  C_22
   10  A    between atoms: C_19  and  C_36
   11  A    between atoms: C_22  and  C_36
   12  A    between atoms: C_27  and  C_31
                            x       y       z     vdW  Elec       q    Type
                         _______ _______ _______ _____ _____    ______ ____

>  <TORSDO>
F 12

$$$$
=
 OpenBabel10232407423D

 36 39  0  0  1  0  0  0  0  0999 V2000
  190.0420  177.4850  145.4190 C   0  0  0  0  0  0  0  0  0  0  0  0
  189.7610  177.7840  144.0830 C   0  0  0  0  0  3  0  0  0  0  0  0
  191.4250  176.1650  143.4120 C   0  0  0  0  0  3  0  0  0  0  0  0
  190.9900  176.5590  145.7260 N   0  0  0  0  0  0  0  0  0  0  0  0
  191.6790  175.8960  144.7590 C   0  0  0  0  0  3  0  0  0  0  0  0
  190.4540  177.1170  143.0610 C   0  0  0  0  0  0  0  0  0  0  0  0
  188.8470  177.8630  141.2710 C   0  0  0  0  0  2  0  0  0  0  0  0
  190.1840  177.4170  141.6800 N   0  0  0  0  0  0  0  0  0  0  0  0
  190.7980  176.5380  139.4570 C   0  0  0  0  0  2  0  0  0  0  0  0
  188.7480  178.0330  139.7560 C   0  0  0  0  0  2  0  0  0  0  0  0
  189.3380  176.8050  139.0640 C   0  0  1  0  0  3  0  0  0  0  0  0
  191.2550  177.3300  140.6840 C   0  0  0  0  0  2  0  0  0  0  0  0
  191.1930  176.1630  134.4770 C   0  0  0  0  0  1  0  0  0  0  0  0
  190.0950  176.5980  135.3810 C   0  0  0  0  0  0  0  0  0  0  0  0
  189.2000  176.9050  137.5820 C   0  0  0  0  0  0  0  0  0  0  0  0
  187.9290  177.5020  135.6750 C   0  0  0  0  0  0  0  0  0  0  0  0
  188.9440  177.1020  134.8630 N   0  0  0  0  0  0  0  0  0  0  0  0
  186.7390  178.0350  135.1130 N   0  0  0  0  0  1  0  0  0  0  0  0
  190.2490  176.4890  136.7630 C   0  0  0  0  0  3  0  0  0  0  0  0
  188.0620  177.4070  137.0240 N   0  0  0  0  0  0  0  0  0  0  0  0
  189.3470  178.2290  146.5050 C   0  0  0  0  0  2  0  0  0  0  0  0
  187.2420  177.4690  147.7320 N   0  0  0  0  0  0  0  0  0  0  0  0
  188.2640  177.9260  148.6850 C   0  0  0  0  0  2  0  0  0  0  0  0
  188.6900  177.2370  147.4700 C   0  0  2  0  0  3  0  0  0  0  0  0
  186.7040  178.6760  147.1010 C   0  0  0  0  0  2  0  0  0  0  0  0
  185.3750  178.3670  146.4250 C   0  0  0  0  0  2  0  0  0  0  0  0
  185.5070  178.4130  144.9100 C   0  0  0  0  0  2  0  0  0  0  0  0
  184.5280  179.4220  144.3230 C   0  0  0  0  0  2  0  0  0  0  0  0
  183.5300  178.7790  143.3590 C   0  0  2  0  0  3  0  0  0  0  0  0
  183.7270  177.6890  141.2490 O   0  0  0  0  0  0  0  0  0  0  0  0
  184.1030  178.6370  141.9850 C   0  0  0  0  0  0  0  0  0  0  0  0
  185.0590  179.5330  141.5200 O   0  0  0  0  0  1  0  0  0  0  0  0
  182.1790  179.4990  143.3200 C   0  0  0  0  0  2  0  0  0  0  0  0
  180.3590  179.0640  141.8020 O   0  0  0  0  0  1  0  0  0  0  0  0
  181.0180  178.5850  142.9340 C   0  0  2  0  0  3  0  0  0  0  0  0
  180.0380  178.4140  144.0810 C   0  0  0  0  0  1  0  0  0  0  0  0
  1  4  1  0  0  0  0
  1 21  1  0  0  0  0
  2  1  2  0  0  0  0
  3  5  1  0  0  0  0
  5  4  2  0  0  0  0
  6  3  2  0  0  0  0
  6  2  1  0  0  0  0
  7  8  1  0  0  0  0
  8  6  1  0  0  0  0
  9 12  1  0  0  0  0
 10  7  1  0  0  0  0
 11 15  1  6  0  0  0
 11  9  1  0  0  0  0
 11 10  1  0  0  0  0
 12  8  1  0  0  0  0
 13 14  1  0  0  0  0
 14 19  2  0  0  0  0
 16 20  1  0  0  0  0
 17 14  1  0  0  0  0
 17 16  2  0  0  0  0
 18 16  1  0  0  0  0
 19 15  1  0  0  0  0
 20 15  2  0  0  0  0
 22 23  1  0  0  0  0
 24 21  1  6  0  0  0
 24 22  1  0  0  0  0
 24 23  1  0  0  0  0
 25 22  1  0  0  0  0
 26 25  1  0  0  0  0
 27 26  1  0  0  0  0
 28 27  1  0  0  0  0
 29 33  1  6  0  0  0
 29 28  1  0  0  0  0
 30 31  2  0  0  0  0
 31 29  1  0  0  0  0
 32 31  1  0  0  0  0
 34 35  1  0  0  0  0
 35 33  1  0  0  0  0
 35 36  1  1  0  0  0
M  END
>  <MODEL>
9

>  <REMARK>
 VINA RESULT:      -7.6      3.404      5.940
  Name = 
  12 active torsions:
  status: ('A' for Active; 'I' for Inactive)
    1  A    between atoms: C_4  and  C_27
    2  A    between atoms: N_5  and  C_25
    3  A    between atoms: C_6  and  C_17
    4  A    between atoms: C_6  and  C_30
    5  A    between atoms: C_9  and  N_10
    6  A    between atoms: C_9  and  C_30
    7  A    between atoms: C_11  and  C_29
    8  A    between atoms: C_17  and  C_36
    9  A    between atoms: C_18  and  C_22
   10  A    between atoms: C_19  and  C_36
   11  A    between atoms: C_22  and  C_36
   12  A    between atoms: C_27  and  C_31
                            x       y       z     vdW  Elec       q    Type
                         _______ _______ _______ _____ _____    ______ ____

>  <TORSDO>
F 12

$$$$
