=
 OpenBabel10232411553D

 63 68  0  0  1  0  0  0  0  0999 V2000
  188.9320  171.4840  135.9490 C   0  0  0  0  0  2  0  0  0  0  0  0
  187.5200  171.4380  135.6380 N   0  0  0  0  0  2  0  0  0  0  0  0
  185.6050  172.3690  134.7550 O   0  0  0  0  0  0  0  0  0  0  0  0
  188.7480  174.2370  134.6370 C   0  0  0  0  0  0  0  0  0  0  0  0
  186.7890  172.5590  135.1440 C   0  0  0  0  0  0  0  0  0  0  0  0
  186.6140  174.9660  135.4020 N   0  0  0  0  0  0  0  0  0  0  0  0
  189.7970  173.2640  134.5270 N   0  0  0  0  0  2  0  0  0  0  0  0
  187.3590  173.9400  135.0980 C   0  0  0  0  0  0  0  0  0  0  0  0
  189.6770  171.8250  134.6800 C   0  0  1  0  0  3  0  0  0  0  0  0
  189.0340  175.4300  134.3490 O   0  0  0  0  0  0  0  0  0  0  0  0
  191.0300  171.1830  134.6760 C   0  0  0  0  0  0  0  0  0  0  0  0
  192.1760  171.8390  134.5390 C   0  0  0  0  0  0  0  0  0  0  0  0
  192.6960  169.5120  134.3470 C   0  0  0  0  0  3  0  0  0  0  0  0
  191.2210  169.7080  134.6760 C   0  0  0  0  0  3  0  0  0  0  0  0
  193.3250  170.9060  134.3460 C   0  0  2  0  0  3  0  0  0  0  0  0
  195.5220  172.0210  135.0880 C   0  0  0  0  0  2  0  0  0  0  0  0
  194.4020  171.0140  135.4380 C   0  0  2  0  0  3  0  0  0  0  0  0
  195.0760  169.4170  138.5750 O   0  0  0  0  0  1  0  0  0  0  0  0
  194.9340  169.6430  135.8460 C   0  0  0  0  0  2  0  0  0  0  0  0
  196.7200  172.0350  136.0590 C   0  0  0  0  0  2  0  0  0  0  0  0
  197.2860  168.8500  137.2740 O   0  0  0  0  0  0  0  0  0  0  0  0
  196.3680  171.5670  137.4660 C   0  0  0  0  0  2  0  0  0  0  0  0
  195.8990  169.8140  137.3680 P   0  0  2  0  0  0  0  0  0  0  0  0
  192.5630  174.0910  135.4450 C   0  0  0  0  0  0  0  0  0  0  0  0
  192.8370  174.9100  136.4270 C   0  0  0  0  0  0  0  0  0  0  0  0
  192.3430  173.3020  134.4270 C   0  0  0  0  0  3  0  0  0  0  0  0
  195.0730  175.7640  137.1100 O   0  0  0  0  0  1  0  0  0  0  0  0
  193.8990  176.8030  135.4440 O   0  0  0  0  0  0  0  0  0  0  0  0
  193.9490  175.8760  136.2980 C   0  0  0  0  0  0  0  0  0  0  0  0
  192.1120  174.7710  137.7250 C   0  0  0  0  0  2  0  0  0  0  0  0
  191.7760  176.1320  138.3000 C   0  0  0  0  0  2  0  0  0  0  0  0
  190.2730  176.3170  138.3020 C   0  0  0  0  0  2  0  0  0  0  0  0
  189.8650  177.1060  139.5380 C   0  0  0  0  0  2  0  0  0  0  0  0
  189.0960  178.5280  137.6350 C   0  0  0  0  0  1  0  0  0  0  0  0
  187.9970  178.5610  139.7390 O   0  0  0  0  0  1  0  0  0  0  0  0
  189.2490  178.4400  139.1430 C   0  0  1  0  0  3  0  0  0  0  0  0
  185.2520  174.8870  135.9180 C   0  0  0  0  0  2  0  0  0  0  0  0
  184.6910  176.2790  136.1270 C   0  0  2  0  0  3  0  0  0  0  0  0
  185.7990  177.1900  136.6370 C   0  0  0  0  0  2  0  0  0  0  0  0
  184.0840  177.7040  138.0940 C   0  0  0  0  0  0  0  0  0  0  0  0
  185.2260  178.0760  137.6320 N   0  0  0  0  0  0  0  0  0  0  0  0
  183.4000  178.4850  139.0720 N   0  0  0  0  0  2  0  0  0  0  0  0
  183.3860  176.2210  137.3990 S   0  0  0  0  0  0  0  0  0  0  0  0
  182.1970  178.0370  139.6340 N   0  0  0  0  0  2  0  0  0  0  0  0
  182.5750  179.1700  141.6840 N   0  0  0  0  0  0  0  0  0  0  0  0
  179.9830  178.7690  142.5030 N   0  0  0  0  0  0  0  0  0  0  0  0
  182.2250  179.5250  143.0630 C   0  0  1  0  0  3  0  0  0  0  0  0
  180.5520  177.8330  141.5490 C   0  0  0  0  0  2  0  0  0  0  0  0
  181.8220  178.3860  140.9640 C   0  0  0  0  0  0  0  0  0  0  0  0
  180.7230  179.5480  143.2190 C   0  0  0  0  0  3  0  0  0  0  0  0
  182.8400  178.5150  144.0230 C   0  0  0  0  0  2  0  0  0  0  0  0
  185.0930  178.7050  146.8570 C   0  0  0  0  0  2  0  0  0  0  0  0
  183.8220  178.3380  146.1360 C   0  0  0  0  0  2  0  0  0  0  0  0
  185.3260  179.2400  144.2280 S   0  0  0  0  0  0  0  0  0  0  0  0
  183.7170  179.1890  144.9650 N   0  0  0  0  0  0  0  0  0  0  0  0
  186.1660  178.8480  145.7980 C   0  0  2  0  0  3  0  0  0  0  0  0
  186.9730  177.5490  145.6680 C   0  0  2  0  0  3  0  0  0  0  0  0
  187.5630  177.1700  146.9470 N   0  0  0  0  0  2  0  0  0  0  0  0
  188.8180  177.8940  147.0660 C   0  0  0  0  0  1  0  0  0  0  0  0
  188.0070  177.6360  144.6290 N   0  0  0  0  0  2  0  0  0  0  0  0
  187.9470  176.4740  143.7450 C   0  0  0  0  0  2  0  0  0  0  0  0
  189.1020  176.5100  142.7590 C   0  0  0  0  0  2  0  0  0  0  0  0
  189.9510  177.7470  142.9820 C   0  0  0  0  0  1  0  0  0  0  0  0
  2  1  1  0  0  0  0
  3  5  2  0  0  0  0
  4  8  1  0  0  0  0
  5  2  1  0  0  0  0
  6 37  1  0  0  0  0
  7  4  1  0  0  0  0
  7  9  1  0  0  0  0
  8  5  1  0  0  0  0
  8  6  2  0  0  0  0
  9 11  1  1  0  0  0
  9  1  1  0  0  0  0
 10  4  2  0  0  0  0
 11 14  1  0  0  0  0
 12 11  2  0  0  0  0
 13 14  2  0  0  0  0
 15 13  1  1  0  0  0
 15 12  1  0  0  0  0
 15 17  1  0  0  0  0
 16 20  1  0  0  0  0
 17 16  1  6  0  0  0
 17 19  1  0  0  0  0
 19 23  1  0  0  0  0
 20 22  1  0  0  0  0
 23 21  2  6  0  0  0
 23 22  1  0  0  0  0
 23 18  1  0  0  0  0
 24 25  2  0  0  0  0
 25 30  1  0  0  0  0
 26 12  1  0  0  0  0
 26 24  2  0  0  0  0
 28 29  2  0  0  0  0
 29 25  1  0  0  0  0
 29 27  1  0  0  0  0
 30 31  1  0  0  0  0
 31 32  1  0  0  0  0
 32 33  1  0  0  0  0
 36 34  1  6  0  0  0
 36 33  1  0  0  0  0
 36 35  1  0  0  0  0
 38 37  1  1  0  0  0
 38 39  1  0  0  0  0
 38 43  1  0  0  0  0
 39 41  1  0  0  0  0
 40 42  1  0  0  0  0
 41 40  2  0  0  0  0
 42 44  1  0  0  0  0
 43 40  1  0  0  0  0
 44 49  1  0  0  0  0
 45 47  1  0  0  0  0
 46 50  2  0  0  0  0
 47 50  1  0  0  0  0
 47 51  1  1  0  0  0
 48 46  1  0  0  0  0
 49 48  1  0  0  0  0
 49 45  2  0  0  0  0
 51 55  1  0  0  0  0
 53 52  1  0  0  0  0
 54 55  1  0  0  0  0
 54 56  1  0  0  0  0
 55 53  1  0  0  0  0
 56 57  1  6  0  0  0
 56 52  1  0  0  0  0
 57 60  1  6  0  0  0
 57 58  1  0  0  0  0
 58 59  1  0  0  0  0
 61 60  1  0  0  0  0
 62 63  1  0  0  0  0
 62 61  1  0  0  0  0
M  END
>  <MODEL>
1

>  <REMARK>
 VINA RESULT:      -5.9      0.000      0.000
  Name = 
  19 active torsions:
  status: ('A' for Active; 'I' for Inactive)
    1  A    between atoms: C_3  and  C_5
    2  A    between atoms: C_3  and  N_59
    3  A    between atoms: C_7  and  C_53
    4  A    between atoms: C_8  and  C_16
    5  A    between atoms: C_8  and  C_55
    6  A    between atoms: C_9  and  C_19
    7  A    between atoms: C_10  and  N_40
    8  A    between atoms: C_10  and  C_46
    9  A    between atoms: C_14  and  C_48
   10  A    between atoms: C_16  and  C_25
   11  A    between atoms: N_17  and  C_47
   12  A    between atoms: C_18  and  C_44
   13  A    between atoms: C_18  and  C_56
   14  A    between atoms: C_25  and  C_56
   15  A    between atoms: C_28  and  C_33
   16  A    between atoms: N_31  and  N_54
   17  A    between atoms: C_33  and  N_39
   18  A    between atoms: C_47  and  N_59
   19  A    between atoms: C_47  and  C_63
                            x       y       z     vdW  Elec       q    Type
                         _______ _______ _______ _____ _____    ______ ____

>  <TORSDO>
F 19

$$$$
=
 OpenBabel10232411553D

 63 68  0  0  1  0  0  0  0  0999 V2000
  188.5420  172.7770  136.4920 C   0  0  0  0  0  2  0  0  0  0  0  0
  187.0980  172.7380  136.4110 N   0  0  0  0  0  2  0  0  0  0  0  0
  185.0810  173.6050  135.7110 O   0  0  0  0  0  0  0  0  0  0  0  0
  188.1900  175.3300  134.8510 C   0  0  0  0  0  0  0  0  0  0  0  0
  186.3130  173.8050  135.8830 C   0  0  0  0  0  0  0  0  0  0  0  0
  186.2110  176.2300  135.8250 N   0  0  0  0  0  0  0  0  0  0  0  0
  189.1960  174.3160  134.7180 N   0  0  0  0  0  2  0  0  0  0  0  0
  186.8860  175.1460  135.5570 C   0  0  0  0  0  0  0  0  0  0  0  0
  189.0830  172.9160  135.0870 C   0  0  1  0  0  3  0  0  0  0  0  0
  188.4420  176.4620  134.3570 O   0  0  0  0  0  0  0  0  0  0  0  0
  190.4100  172.2340  134.9660 C   0  0  0  0  0  0  0  0  0  0  0  0
  191.5810  172.8600  134.9330 C   0  0  0  0  0  0  0  0  0  0  0  0
  192.0110  170.5810  134.3470 C   0  0  0  0  0  3  0  0  0  0  0  0
  190.5450  170.7740  134.7160 C   0  0  0  0  0  3  0  0  0  0  0  0
  192.6920  171.9290  134.5770 C   0  0  2  0  0  3  0  0  0  0  0  0
  194.8780  172.8870  135.5420 C   0  0  0  0  0  2  0  0  0  0  0  0
  193.7740  171.8110  135.6640 C   0  0  2  0  0  3  0  0  0  0  0  0
  194.4870  169.5740  138.3710 O   0  0  0  0  0  1  0  0  0  0  0  0
  194.3270  170.3920  135.7590 C   0  0  0  0  0  2  0  0  0  0  0  0
  196.0810  172.7040  136.4890 C   0  0  0  0  0  2  0  0  0  0  0  0
  196.6980  169.3390  136.9740 O   0  0  0  0  0  0  0  0  0  0  0  0
  195.7430  171.9340  137.7600 C   0  0  0  0  0  2  0  0  0  0  0  0
  195.2980  170.2380  137.2810 P   0  0  2  0  0  0  0  0  0  0  0  0
  191.7750  174.9520  136.2080 C   0  0  0  0  0  0  0  0  0  0  0  0
  191.8090  175.6230  137.3300 C   0  0  0  0  0  0  0  0  0  0  0  0
  191.8040  174.3130  135.0680 C   0  0  0  0  0  3  0  0  0  0  0  0
  194.0580  176.5420  136.7900 O   0  0  0  0  0  0  0  0  0  0  0  0
  192.8970  177.3190  138.6010 O   0  0  0  0  0  1  0  0  0  0  0  0
  192.9390  176.5330  137.6160 C   0  0  0  0  0  0  0  0  0  0  0  0
  190.7750  175.3600  138.3750 C   0  0  0  0  0  2  0  0  0  0  0  0
  189.4830  176.0790  138.0430 C   0  0  0  0  0  2  0  0  0  0  0  0
  189.2780  177.2180  139.0200 C   0  0  0  0  0  2  0  0  0  0  0  0
  189.7730  176.7960  140.3950 C   0  0  0  0  0  2  0  0  0  0  0  0
  188.9160  176.3030  142.6880 C   0  0  0  0  0  1  0  0  0  0  0  0
  189.0130  178.5200  141.8450 O   0  0  0  0  0  1  0  0  0  0  0  0
  188.7760  177.2000  141.4710 C   0  0  1  0  0  3  0  0  0  0  0  0
  184.9460  176.2690  136.5500 C   0  0  0  0  0  2  0  0  0  0  0  0
  184.7760  177.6110  137.2330 C   0  0  2  0  0  3  0  0  0  0  0  0
  186.1500  178.2260  137.4680 C   0  0  0  0  0  2  0  0  0  0  0  0
  185.1580  178.5270  139.5310 C   0  0  0  0  0  0  0  0  0  0  0  0
  186.1300  178.8770  138.7640 N   0  0  0  0  0  0  0  0  0  0  0  0
  185.0100  179.0970  140.8310 N   0  0  0  0  0  2  0  0  0  0  0  0
  183.9880  177.3680  138.8580 S   0  0  0  0  0  0  0  0  0  0  0  0
  184.0000  178.6540  141.6960 N   0  0  0  0  0  2  0  0  0  0  0  0
  185.2310  179.2220  143.6430 N   0  0  0  0  0  0  0  0  0  0  0  0
  183.0270  178.9070  145.2540 N   0  0  0  0  0  0  0  0  0  0  0  0
  185.4260  179.2720  145.0950 C   0  0  1  0  0  3  0  0  0  0  0  0
  183.0700  178.1720  144.0020 C   0  0  0  0  0  2  0  0  0  0  0  0
  184.1540  178.7140  143.1120 C   0  0  0  0  0  0  0  0  0  0  0  0
  184.0890  179.4130  145.7850 C   0  0  0  0  0  3  0  0  0  0  0  0
  186.1300  178.0040  145.5620 C   0  0  0  0  0  2  0  0  0  0  0  0
  188.0900  177.0740  148.4660 C   0  0  0  0  0  2  0  0  0  0  0  0
  186.9570  176.9570  147.4800 C   0  0  0  0  0  2  0  0  0  0  0  0
  188.4400  178.8080  146.4350 S   0  0  0  0  0  0  0  0  0  0  0  0
  186.8080  178.2430  146.8240 N   0  0  0  0  0  0  0  0  0  0  0  0
  189.2050  177.8140  147.7590 C   0  0  2  0  0  3  0  0  0  0  0  0
  190.2210  176.8260  147.1710 C   0  0  2  0  0  3  0  0  0  0  0  0
  191.5140  176.9480  147.8340 N   0  0  0  0  0  2  0  0  0  0  0  0
  192.0940  175.6170  147.8830 C   0  0  0  0  0  1  0  0  0  0  0  0
  190.3710  176.9770  145.7180 N   0  0  0  0  0  2  0  0  0  0  0  0
  191.7770  177.1610  145.3620 C   0  0  0  0  0  2  0  0  0  0  0  0
  191.9000  178.1640  144.2290 C   0  0  0  0  0  2  0  0  0  0  0  0
  190.7440  179.1460  144.2610 C   0  0  0  0  0  1  0  0  0  0  0  0
  2  1  1  0  0  0  0
  3  5  2  0  0  0  0
  4  8  1  0  0  0  0
  5  2  1  0  0  0  0
  6 37  1  0  0  0  0
  7  4  1  0  0  0  0
  7  9  1  0  0  0  0
  8  6  2  0  0  0  0
  8  5  1  0  0  0  0
  9 11  1  1  0  0  0
  9  1  1  0  0  0  0
 10  4  2  0  0  0  0
 12 11  2  0  0  0  0
 12 26  1  0  0  0  0
 13 14  2  0  0  0  0
 14 11  1  0  0  0  0
 15 13  1  1  0  0  0
 15 12  1  0  0  0  0
 15 17  1  0  0  0  0
 16 20  1  0  0  0  0
 17 16  1  6  0  0  0
 17 19  1  0  0  0  0
 19 23  1  0  0  0  0
 20 22  1  0  0  0  0
 23 21  2  6  0  0  0
 23 22  1  0  0  0  0
 23 18  1  0  0  0  0
 24 25  2  0  0  0  0
 25 29  1  0  0  0  0
 25 30  1  0  0  0  0
 26 24  2  0  0  0  0
 27 29  2  0  0  0  0
 29 28  1  0  0  0  0
 31 30  1  0  0  0  0
 31 32  1  0  0  0  0
 32 33  1  0  0  0  0
 33 36  1  0  0  0  0
 36 35  1  0  0  0  0
 36 34  1  1  0  0  0
 38 37  1  1  0  0  0
 38 39  1  0  0  0  0
 38 43  1  0  0  0  0
 39 41  1  0  0  0  0
 40 42  1  0  0  0  0
 41 40  2  0  0  0  0
 42 44  1  0  0  0  0
 43 40  1  0  0  0  0
 44 49  1  0  0  0  0
 45 47  1  0  0  0  0
 46 50  2  0  0  0  0
 47 51  1  1  0  0  0
 47 50  1  0  0  0  0
 48 46  1  0  0  0  0
 49 45  2  0  0  0  0
 49 48  1  0  0  0  0
 51 55  1  0  0  0  0
 53 52  1  0  0  0  0
 54 55  1  0  0  0  0
 54 56  1  0  0  0  0
 55 53  1  0  0  0  0
 56 57  1  6  0  0  0
 56 52  1  0  0  0  0
 57 60  1  6  0  0  0
 57 58  1  0  0  0  0
 58 59  1  0  0  0  0
 61 60  1  0  0  0  0
 62 63  1  0  0  0  0
 62 61  1  0  0  0  0
M  END
>  <MODEL>
2

>  <REMARK>
 VINA RESULT:      -5.6      1.670      2.511
  Name = 
  19 active torsions:
  status: ('A' for Active; 'I' for Inactive)
    1  A    between atoms: C_3  and  C_5
    2  A    between atoms: C_3  and  N_59
    3  A    between atoms: C_7  and  C_53
    4  A    between atoms: C_8  and  C_16
    5  A    between atoms: C_8  and  C_55
    6  A    between atoms: C_9  and  C_19
    7  A    between atoms: C_10  and  N_40
    8  A    between atoms: C_10  and  C_46
    9  A    between atoms: C_14  and  C_48
   10  A    between atoms: C_16  and  C_25
   11  A    between atoms: N_17  and  C_47
   12  A    between atoms: C_18  and  C_44
   13  A    between atoms: C_18  and  C_56
   14  A    between atoms: C_25  and  C_56
   15  A    between atoms: C_28  and  C_33
   16  A    between atoms: N_31  and  N_54
   17  A    between atoms: C_33  and  N_39
   18  A    between atoms: C_47  and  N_59
   19  A    between atoms: C_47  and  C_63
                            x       y       z     vdW  Elec       q    Type
                         _______ _______ _______ _____ _____    ______ ____

>  <TORSDO>
F 19

$$$$
=
 OpenBabel10232411553D

 63 68  0  0  1  0  0  0  0  0999 V2000
  188.9510  171.5300  135.7750 C   0  0  0  0  0  2  0  0  0  0  0  0
  187.5910  171.7390  135.3280 N   0  0  0  0  0  2  0  0  0  0  0  0
  185.9490  173.0380  134.3660 O   0  0  0  0  0  0  0  0  0  0  0  0
  189.3330  174.3780  134.7370 C   0  0  0  0  0  0  0  0  0  0  0  0
  187.0980  173.0010  134.8830 C   0  0  0  0  0  0  0  0  0  0  0  0
  187.2630  175.3740  135.3650 N   0  0  0  0  0  0  0  0  0  0  0  0
  190.2280  173.2610  134.6290 N   0  0  0  0  0  2  0  0  0  0  0  0
  187.8730  174.2700  135.0310 C   0  0  0  0  0  0  0  0  0  0  0  0
  189.8750  171.8520  134.6230 C   0  0  1  0  0  3  0  0  0  0  0  0
  189.8270  175.5290  134.5980 O   0  0  0  0  0  0  0  0  0  0  0  0
  191.1060  171.0040  134.6830 C   0  0  0  0  0  0  0  0  0  0  0  0
  192.3450  171.4590  134.5350 C   0  0  0  0  0  0  0  0  0  0  0  0
  192.4860  169.0710  134.4820 C   0  0  0  0  0  3  0  0  0  0  0  0
  191.0580  169.5190  134.7690 C   0  0  0  0  0  3  0  0  0  0  0  0
  193.3310  170.3440  134.4180 C   0  0  2  0  0  3  0  0  0  0  0  0
  195.8230  170.0660  134.9930 C   0  0  0  0  0  2  0  0  0  0  0  0
  194.3980  170.3410  135.5250 C   0  0  2  0  0  3  0  0  0  0  0  0
  194.4270  170.6810  139.0920 O   0  0  0  0  0  1  0  0  0  0  0  0
  194.0060  169.4330  136.6870 C   0  0  0  0  0  2  0  0  0  0  0  0
  196.9030  169.8690  136.0760 C   0  0  0  0  0  2  0  0  0  0  0  0
  195.5290  168.3110  138.8370 O   0  0  0  0  0  0  0  0  0  0  0  0
  196.5760  170.5640  137.3930 C   0  0  0  0  0  2  0  0  0  0  0  0
  195.1000  169.7670  138.0910 P   0  0  2  0  0  0  0  0  0  0  0  0
  193.4340  173.5530  135.2210 C   0  0  0  0  0  0  0  0  0  0  0  0
  194.1650  174.2600  136.0430 C   0  0  0  0  0  0  0  0  0  0  0  0
  192.7470  172.8670  134.3460 C   0  0  0  0  0  3  0  0  0  0  0  0
  195.6940  176.2230  136.1050 O   0  0  0  0  0  1  0  0  0  0  0  0
  196.0400  174.5350  134.6000 O   0  0  0  0  0  0  0  0  0  0  0  0
  195.3390  175.0030  135.5390 C   0  0  0  0  0  0  0  0  0  0  0  0
  193.8880  174.2010  137.5090 C   0  0  0  0  0  2  0  0  0  0  0  0
  193.6000  175.5850  138.0560 C   0  0  0  0  0  2  0  0  0  0  0  0
  192.4380  176.1910  137.2990 C   0  0  0  0  0  2  0  0  0  0  0  0
  191.6170  177.0560  138.2440 C   0  0  0  0  0  2  0  0  0  0  0  0
  189.9490  175.2170  137.9850 C   0  0  0  0  0  1  0  0  0  0  0  0
  189.4820  177.1480  139.2850 O   0  0  0  0  0  1  0  0  0  0  0  0
  190.1380  176.7160  138.1350 C   0  0  1  0  0  3  0  0  0  0  0  0
  185.8570  175.4720  135.7380 C   0  0  0  0  0  2  0  0  0  0  0  0
  185.4990  176.9110  136.0520 C   0  0  2  0  0  3  0  0  0  0  0  0
  186.7780  177.6940  136.3190 C   0  0  0  0  0  2  0  0  0  0  0  0
  185.4620  178.3550  138.0970 C   0  0  0  0  0  0  0  0  0  0  0  0
  186.5170  178.6160  137.4080 N   0  0  0  0  0  0  0  0  0  0  0  0
  185.0790  179.1860  139.1920 N   0  0  0  0  0  2  0  0  0  0  0  0
  184.4850  176.9650  137.5670 S   0  0  0  0  0  0  0  0  0  0  0  0
  183.9770  178.8540  139.9920 N   0  0  0  0  0  2  0  0  0  0  0  0
  185.1240  179.3410  142.0110 N   0  0  0  0  0  0  0  0  0  0  0  0
  182.7990  179.2600  143.4730 N   0  0  0  0  0  0  0  0  0  0  0  0
  185.2260  179.4000  143.4720 C   0  0  1  0  0  3  0  0  0  0  0  0
  182.8560  178.5020  142.2350 C   0  0  0  0  0  2  0  0  0  0  0  0
  184.0420  178.9250  141.4140 C   0  0  0  0  0  0  0  0  0  0  0  0
  183.8660  179.6750  144.0690 C   0  0  0  0  0  3  0  0  0  0  0  0
  185.7770  178.0810  144.0000 C   0  0  0  0  0  2  0  0  0  0  0  0
  187.6810  177.0740  146.9160 C   0  0  0  0  0  2  0  0  0  0  0  0
  186.5310  177.0260  145.9440 C   0  0  0  0  0  2  0  0  0  0  0  0
  188.1590  178.7060  144.8280 S   0  0  0  0  0  0  0  0  0  0  0  0
  186.4880  178.2990  145.2490 N   0  0  0  0  0  0  0  0  0  0  0  0
  188.8490  177.6910  146.1760 C   0  0  2  0  0  3  0  0  0  0  0  0
  189.7670  176.5990  145.6120 C   0  0  2  0  0  3  0  0  0  0  0  0
  191.1140  176.7140  146.1600 N   0  0  0  0  0  2  0  0  0  0  0  0
  190.9900  177.3530  147.4590 C   0  0  0  0  0  1  0  0  0  0  0  0
  189.8060  176.6060  144.1440 N   0  0  0  0  0  2  0  0  0  0  0  0
  190.8920  175.7580  143.6540 C   0  0  0  0  0  2  0  0  0  0  0  0
  191.8480  176.5760  142.8040 C   0  0  0  0  0  2  0  0  0  0  0  0
  191.4380  178.0360  142.8000 C   0  0  0  0  0  1  0  0  0  0  0  0
  2  1  1  0  0  0  0
  3  5  2  0  0  0  0
  4  8  1  0  0  0  0
  5  8  1  0  0  0  0
  5  2  1  0  0  0  0
  6 37  1  0  0  0  0
  7  4  1  0  0  0  0
  8  6  2  0  0  0  0
  9  7  1  0  0  0  0
  9 11  1  1  0  0  0
  9  1  1  0  0  0  0
 10  4  2  0  0  0  0
 11 14  1  0  0  0  0
 12 11  2  0  0  0  0
 13 14  2  0  0  0  0
 15 13  1  1  0  0  0
 15 12  1  0  0  0  0
 15 17  1  0  0  0  0
 16 20  1  0  0  0  0
 17 16  1  6  0  0  0
 17 19  1  0  0  0  0
 19 23  1  0  0  0  0
 20 22  1  0  0  0  0
 22 23  1  0  0  0  0
 23 21  2  1  0  0  0
 23 18  1  0  0  0  0
 24 25  2  0  0  0  0
 25 30  1  0  0  0  0
 26 12  1  0  0  0  0
 26 24  2  0  0  0  0
 28 29  2  0  0  0  0
 29 25  1  0  0  0  0
 29 27  1  0  0  0  0
 30 31  1  0  0  0  0
 32 31  1  0  0  0  0
 32 33  1  0  0  0  0
 36 34  1  1  0  0  0
 36 33  1  0  0  0  0
 36 35  1  0  0  0  0
 38 37  1  1  0  0  0
 38 39  1  0  0  0  0
 38 43  1  0  0  0  0
 39 41  1  0  0  0  0
 40 42  1  0  0  0  0
 41 40  2  0  0  0  0
 42 44  1  0  0  0  0
 43 40  1  0  0  0  0
 44 49  1  0  0  0  0
 45 47  1  0  0  0  0
 46 50  2  0  0  0  0
 47 51  1  1  0  0  0
 47 50  1  0  0  0  0
 48 46  1  0  0  0  0
 49 45  2  0  0  0  0
 49 48  1  0  0  0  0
 51 55  1  0  0  0  0
 53 52  1  0  0  0  0
 54 55  1  0  0  0  0
 54 56  1  0  0  0  0
 55 53  1  0  0  0  0
 56 57  1  6  0  0  0
 56 52  1  0  0  0  0
 57 60  1  6  0  0  0
 57 58  1  0  0  0  0
 58 59  1  0  0  0  0
 61 60  1  0  0  0  0
 62 61  1  0  0  0  0
 63 62  1  0  0  0  0
M  END
>  <MODEL>
3

>  <REMARK>
 VINA RESULT:      -4.9      1.550      1.996
  Name = 
  19 active torsions:
  status: ('A' for Active; 'I' for Inactive)
    1  A    between atoms: C_3  and  C_5
    2  A    between atoms: C_3  and  N_59
    3  A    between atoms: C_7  and  C_53
    4  A    between atoms: C_8  and  C_16
    5  A    between atoms: C_8  and  C_55
    6  A    between atoms: C_9  and  C_19
    7  A    between atoms: C_10  and  N_40
    8  A    between atoms: C_10  and  C_46
    9  A    between atoms: C_14  and  C_48
   10  A    between atoms: C_16  and  C_25
   11  A    between atoms: N_17  and  C_47
   12  A    between atoms: C_18  and  C_44
   13  A    between atoms: C_18  and  C_56
   14  A    between atoms: C_25  and  C_56
   15  A    between atoms: C_28  and  C_33
   16  A    between atoms: N_31  and  N_54
   17  A    between atoms: C_33  and  N_39
   18  A    between atoms: C_47  and  N_59
   19  A    between atoms: C_47  and  C_63
                            x       y       z     vdW  Elec       q    Type
                         _______ _______ _______ _____ _____    ______ ____

>  <TORSDO>
F 19

$$$$
=
 OpenBabel10232411553D

 63 68  0  0  1  0  0  0  0  0999 V2000
  189.1430  174.3980  134.3500 C   0  0  0  0  0  2  0  0  0  0  0  0
  188.8600  175.7430  134.8010 N   0  0  0  0  0  2  0  0  0  0  0  0
  187.7420  177.2360  136.1550 O   0  0  0  0  0  0  0  0  0  0  0  0
  187.0620  173.6540  136.4600 C   0  0  0  0  0  0  0  0  0  0  0  0
  187.8010  176.0610  135.7020 C   0  0  0  0  0  0  0  0  0  0  0  0
  185.5120  175.4460  136.2240 N   0  0  0  0  0  0  0  0  0  0  0  0
  188.2860  172.9780  136.1360 N   0  0  0  0  0  2  0  0  0  0  0  0
  186.7550  175.0710  136.1030 C   0  0  0  0  0  0  0  0  0  0  0  0
  189.4850  173.5620  135.5620 C   0  0  1  0  0  3  0  0  0  0  0  0
  186.1790  172.9910  137.0660 O   0  0  0  0  0  0  0  0  0  0  0  0
  190.4680  172.4930  135.2020 C   0  0  0  0  0  0  0  0  0  0  0  0
  191.7340  172.7130  134.8670 C   0  0  0  0  0  0  0  0  0  0  0  0
  191.2890  170.4150  134.3720 C   0  0  0  0  0  3  0  0  0  0  0  0
  190.0820  171.0660  135.0380 C   0  0  0  0  0  3  0  0  0  0  0  0
  192.3890  171.4770  134.3460 C   0  0  2  0  0  3  0  0  0  0  0  0
  193.8360  169.4930  135.1160 C   0  0  0  0  0  2  0  0  0  0  0  0
  193.6010  171.0200  135.1740 C   0  0  2  0  0  3  0  0  0  0  0  0
  195.9860  172.5810  137.3470 O   0  0  0  0  0  0  0  0  0  0  0  0
  193.5510  171.5650  136.5990 C   0  0  0  0  0  2  0  0  0  0  0  0
  194.9220  168.9580  136.0710 C   0  0  0  0  0  2  0  0  0  0  0  0
  194.9440  170.8130  138.9860 O   0  0  0  0  0  1  0  0  0  0  0  0
  195.9790  169.9960  136.4320 C   0  0  0  0  0  2  0  0  0  0  0  0
  195.1630  171.3110  137.3840 P   0  0  2  0  0  0  0  0  0  0  0  0
  192.7110  174.7120  135.9120 C   0  0  0  0  0  0  0  0  0  0  0  0
  193.0680  175.4120  136.9570 C   0  0  0  0  0  0  0  0  0  0  0  0
  192.4220  174.0200  134.8420 C   0  0  0  0  0  3  0  0  0  0  0  0
  195.2630  175.5190  138.1270 O   0  0  0  0  0  1  0  0  0  0  0  0
  194.9180  176.7140  136.2070 O   0  0  0  0  0  0  0  0  0  0  0  0
  194.4520  175.9210  137.0710 C   0  0  0  0  0  0  0  0  0  0  0  0
  192.1130  175.5760  138.0930 C   0  0  0  0  0  2  0  0  0  0  0  0
  192.4960  176.7680  138.9470 C   0  0  0  0  0  2  0  0  0  0  0  0
  191.3070  177.1850  139.7870 C   0  0  0  0  0  2  0  0  0  0  0  0
  190.0250  176.9180  139.0120 C   0  0  0  0  0  2  0  0  0  0  0  0
  189.1350  179.1530  138.3420 C   0  0  0  0  0  1  0  0  0  0  0  0
  187.7130  177.4450  139.1750 O   0  0  0  0  0  1  0  0  0  0  0  0
  188.9870  177.9900  139.3070 C   0  0  1  0  0  3  0  0  0  0  0  0
  184.9990  176.7680  135.8790 C   0  0  0  0  0  2  0  0  0  0  0  0
  183.5000  176.7080  135.6690 C   0  0  2  0  0  3  0  0  0  0  0  0
  183.0080  178.0750  135.2120 C   0  0  0  0  0  2  0  0  0  0  0  0
  181.4750  177.5700  136.8640 C   0  0  0  0  0  0  0  0  0  0  0  0
  181.7320  178.3270  135.8560 N   0  0  0  0  0  0  0  0  0  0  0  0
  180.2510  177.7020  137.5840 N   0  0  0  0  0  2  0  0  0  0  0  0
  182.6820  176.3210  137.2520 S   0  0  0  0  0  0  0  0  0  0  0  0
  180.0090  176.9330  138.7320 N   0  0  0  0  0  2  0  0  0  0  0  0
  181.0000  178.5320  140.1780 N   0  0  0  0  0  0  0  0  0  0  0  0
  179.9860  177.2930  142.4110 N   0  0  0  0  0  0  0  0  0  0  0  0
  181.4540  178.9990  141.4910 C   0  0  1  0  0  3  0  0  0  0  0  0
  180.1930  176.4900  141.2180 C   0  0  0  0  0  2  0  0  0  0  0  0
  180.4190  177.3740  140.0230 C   0  0  0  0  0  0  0  0  0  0  0  0
  180.5570  178.4390  142.5700 C   0  0  0  0  0  3  0  0  0  0  0  0
  182.8940  178.5580  141.7210 C   0  0  0  0  0  2  0  0  0  0  0  0
  184.2180  179.2730  145.0190 C   0  0  0  0  0  2  0  0  0  0  0  0
  183.1880  178.8030  144.0260 C   0  0  0  0  0  2  0  0  0  0  0  0
  185.2670  179.2300  142.5390 S   0  0  0  0  0  0  0  0  0  0  0  0
  183.5150  179.3880  142.7390 N   0  0  0  0  0  0  0  0  0  0  0  0
  185.5640  179.1540  144.3360 C   0  0  2  0  0  3  0  0  0  0  0  0
  186.2460  177.8320  144.7140 C   0  0  2  0  0  3  0  0  0  0  0  0
  186.8000  177.8960  146.0610 N   0  0  0  0  0  2  0  0  0  0  0  0
  185.8430  178.6200  146.8800 C   0  0  0  0  0  1  0  0  0  0  0  0
  187.2820  177.4420  143.7490 N   0  0  0  0  0  2  0  0  0  0  0  0
  188.2680  176.5660  144.3780 C   0  0  0  0  0  2  0  0  0  0  0  0
  189.6400  177.2140  144.3420 C   0  0  0  0  0  2  0  0  0  0  0  0
  189.8140  178.0160  143.0650 C   0  0  0  0  0  1  0  0  0  0  0  0
  1  2  1  0  0  0  0
  1  9  1  0  0  0  0
  2  5  1  0  0  0  0
  4 10  2  0  0  0  0
  5  8  1  0  0  0  0
  5  3  2  0  0  0  0
  7  4  1  0  0  0  0
  8  6  2  0  0  0  0
  8  4  1  0  0  0  0
  9 11  1  6  0  0  0
  9  7  1  0  0  0  0
 12 11  2  0  0  0  0
 13 14  2  0  0  0  0
 14 11  1  0  0  0  0
 15 13  1  1  0  0  0
 15 12  1  0  0  0  0
 15 17  1  0  0  0  0
 16 20  1  0  0  0  0
 17 16  1  1  0  0  0
 17 19  1  0  0  0  0
 19 23  1  0  0  0  0
 20 22  1  0  0  0  0
 22 23  1  0  0  0  0
 23 18  2  6  0  0  0
 23 21  1  0  0  0  0
 24 25  2  0  0  0  0
 25 29  1  0  0  0  0
 25 30  1  0  0  0  0
 26 12  1  0  0  0  0
 26 24  2  0  0  0  0
 28 29  2  0  0  0  0
 29 27  1  0  0  0  0
 30 31  1  0  0  0  0
 31 32  1  0  0  0  0
 33 36  1  0  0  0  0
 33 32  1  0  0  0  0
 35 36  1  0  0  0  0
 36 34  1  6  0  0  0
 37  6  1  0  0  0  0
 38 37  1  1  0  0  0
 38 43  1  0  0  0  0
 39 38  1  0  0  0  0
 39 41  1  0  0  0  0
 40 43  1  0  0  0  0
 40 42  1  0  0  0  0
 41 40  2  0  0  0  0
 42 44  1  0  0  0  0
 44 49  1  0  0  0  0
 45 47  1  0  0  0  0
 46 50  2  0  0  0  0
 47 51  1  1  0  0  0
 47 50  1  0  0  0  0
 48 46  1  0  0  0  0
 49 45  2  0  0  0  0
 49 48  1  0  0  0  0
 51 55  1  0  0  0  0
 53 52  1  0  0  0  0
 54 55  1  0  0  0  0
 54 56  1  0  0  0  0
 55 53  1  0  0  0  0
 56 57  1  6  0  0  0
 56 52  1  0  0  0  0
 57 60  1  6  0  0  0
 57 58  1  0  0  0  0
 58 59  1  0  0  0  0
 60 61  1  0  0  0  0
 62 61  1  0  0  0  0
 63 62  1  0  0  0  0
M  END
>  <MODEL>
4

>  <REMARK>
 VINA RESULT:      -4.7      1.558      2.269
  Name = 
  19 active torsions:
  status: ('A' for Active; 'I' for Inactive)
    1  A    between atoms: C_3  and  C_5
    2  A    between atoms: C_3  and  N_59
    3  A    between atoms: C_7  and  C_53
    4  A    between atoms: C_8  and  C_16
    5  A    between atoms: C_8  and  C_55
    6  A    between atoms: C_9  and  C_19
    7  A    between atoms: C_10  and  N_40
    8  A    between atoms: C_10  and  C_46
    9  A    between atoms: C_14  and  C_48
   10  A    between atoms: C_16  and  C_25
   11  A    between atoms: N_17  and  C_47
   12  A    between atoms: C_18  and  C_44
   13  A    between atoms: C_18  and  C_56
   14  A    between atoms: C_25  and  C_56
   15  A    between atoms: C_28  and  C_33
   16  A    between atoms: N_31  and  N_54
   17  A    between atoms: C_33  and  N_39
   18  A    between atoms: C_47  and  N_59
   19  A    between atoms: C_47  and  C_63
                            x       y       z     vdW  Elec       q    Type
                         _______ _______ _______ _____ _____    ______ ____

>  <TORSDO>
F 19

$$$$
=
 OpenBabel10232411553D

 63 68  0  0  1  0  0  0  0  0999 V2000
  181.6930  177.4090  141.7540 C   0  0  0  0  0  2  0  0  0  0  0  0
  181.6560  178.5730  142.6130 N   0  0  0  0  0  2  0  0  0  0  0  0
  182.6580  180.3990  143.6010 O   0  0  0  0  0  0  0  0  0  0  0  0
  184.6080  178.2440  141.3790 C   0  0  0  0  0  0  0  0  0  0  0  0
  182.8180  179.3130  142.9820 C   0  0  0  0  0  0  0  0  0  0  0  0
  185.1520  179.0000  143.5710 N   0  0  0  0  0  0  0  0  0  0  0  0
  183.6930  177.7330  140.3990 N   0  0  0  0  0  2  0  0  0  0  0  0
  184.2050  178.8390  142.6880 C   0  0  0  0  0  0  0  0  0  0  0  0
  182.2440  177.8370  140.4140 C   0  0  1  0  0  3  0  0  0  0  0  0
  185.8390  178.1560  141.1210 O   0  0  0  0  0  0  0  0  0  0  0  0
  181.6480  177.0160  139.3140 C   0  0  0  0  0  0  0  0  0  0  0  0
  182.1250  176.9520  138.0760 C   0  0  0  0  0  0  0  0  0  0  0  0
  179.9880  175.8790  138.0380 C   0  0  0  0  0  3  0  0  0  0  0  0
  180.3560  176.2930  139.4580 C   0  0  0  0  0  3  0  0  0  0  0  0
  181.1880  176.2360  137.1610 C   0  0  2  0  0  3  0  0  0  0  0  0
  181.5230  174.8760  135.0030 C   0  0  0  0  0  2  0  0  0  0  0  0
  181.7880  174.9720  136.5230 C   0  0  2  0  0  3  0  0  0  0  0  0
  183.5550  172.0780  137.6820 O   0  0  0  0  0  1  0  0  0  0  0  0
  181.3880  173.7110  137.2830 C   0  0  0  0  0  2  0  0  0  0  0  0
  181.9400  173.5450  134.3470 C   0  0  0  0  0  2  0  0  0  0  0  0
  181.4680  170.9390  136.5660 O   0  0  0  0  0  0  0  0  0  0  0  0
  183.0580  172.8240  135.0900 C   0  0  0  0  0  2  0  0  0  0  0  0
  182.4170  172.3320  136.7170 P   0  0  2  0  0  0  0  0  0  0  0  0
  184.3030  176.9930  136.9360 C   0  0  0  0  0  0  0  0  0  0  0  0
  185.2600  176.4220  136.2530 C   0  0  0  0  0  0  0  0  0  0  0  0
  183.3430  177.6160  137.5690 C   0  0  0  0  0  3  0  0  0  0  0  0
  186.8570  176.5220  134.3460 O   0  0  0  0  0  0  0  0  0  0  0  0
  185.1070  177.9910  134.4670 O   0  0  0  0  0  1  0  0  0  0  0  0
  185.7290  177.0250  134.9870 C   0  0  0  0  0  0  0  0  0  0  0  0
  185.7800  175.0910  136.6870 C   0  0  0  0  0  2  0  0  0  0  0  0
  187.2650  175.1640  136.9770 C   0  0  0  0  0  2  0  0  0  0  0  0
  187.7770  173.7820  137.3220 C   0  0  0  0  0  2  0  0  0  0  0  0
  186.9950  172.7440  136.5320 C   0  0  0  0  0  2  0  0  0  0  0  0
  187.0160  171.2270  134.5490 C   0  0  0  0  0  1  0  0  0  0  0  0
  188.1590  173.3070  134.5380 O   0  0  0  0  0  1  0  0  0  0  0  0
  187.8150  172.2350  135.3560 C   0  0  1  0  0  3  0  0  0  0  0  0
  184.9580  179.5150  144.9220 C   0  0  0  0  0  2  0  0  0  0  0  0
  185.3840  178.4790  145.9420 C   0  0  2  0  0  3  0  0  0  0  0  0
  185.7370  179.1830  147.2460 C   0  0  0  0  0  2  0  0  0  0  0  0
  187.5410  177.7630  146.9930 C   0  0  0  0  0  0  0  0  0  0  0  0
  186.8950  178.5160  147.8130 N   0  0  0  0  0  0  0  0  0  0  0  0
  188.6940  177.0390  147.4190 N   0  0  0  0  0  2  0  0  0  0  0  0
  186.8800  177.6230  145.3470 S   0  0  0  0  0  0  0  0  0  0  0  0
  189.4440  176.2860  146.5050 N   0  0  0  0  0  2  0  0  0  0  0  0
  190.0890  178.1950  145.2530 N   0  0  0  0  0  0  0  0  0  0  0  0
  191.9950  176.7740  143.8750 N   0  0  0  0  0  0  0  0  0  0  0  0
  190.7530  178.8500  144.1220 C   0  0  1  0  0  3  0  0  0  0  0  0
  190.8620  176.0480  144.4210 C   0  0  0  0  0  2  0  0  0  0  0  0
  190.1190  176.9010  145.4110 C   0  0  0  0  0  0  0  0  0  0  0  0
  191.9720  178.0550  143.7150 C   0  0  0  0  0  3  0  0  0  0  0  0
  189.7830  178.9640  142.9530 C   0  0  0  0  0  2  0  0  0  0  0  0
  188.7500  176.7820  140.2480 C   0  0  0  0  0  2  0  0  0  0  0  0
  188.5460  177.7170  141.4120 C   0  0  0  0  0  2  0  0  0  0  0  0
  191.1080  177.8210  141.0340 S   0  0  0  0  0  0  0  0  0  0  0  0
  189.7710  177.7280  142.1900 N   0  0  0  0  0  0  0  0  0  0  0  0
  190.1240  177.0820  139.6870 C   0  0  2  0  0  3  0  0  0  0  0  0
  190.0230  178.0500  138.5010 C   0  0  2  0  0  3  0  0  0  0  0  0
  188.6860  178.6250  138.4080 N   0  0  0  0  0  2  0  0  0  0  0  0
  188.3610  178.7140  136.9940 C   0  0  0  0  0  1  0  0  0  0  0  0
  190.4020  177.4180  137.2310 N   0  0  0  0  0  2  0  0  0  0  0  0
  191.5470  176.5310  137.4180 C   0  0  0  0  0  2  0  0  0  0  0  0
  191.1080  175.0810  137.3040 C   0  0  0  0  0  2  0  0  0  0  0  0
  191.0930  174.6450  135.8510 C   0  0  0  0  0  1  0  0  0  0  0  0
  1  2  1  0  0  0  0
  2  5  1  0  0  0  0
  4  8  1  0  0  0  0
  5  3  2  0  0  0  0
  6 37  1  0  0  0  0
  7  9  1  0  0  0  0
  7  4  1  0  0  0  0
  8  5  1  0  0  0  0
  8  6  2  0  0  0  0
  9 11  1  6  0  0  0
  9  1  1  0  0  0  0
 10  4  2  0  0  0  0
 11 14  1  0  0  0  0
 12 11  2  0  0  0  0
 13 14  2  0  0  0  0
 15 13  1  1  0  0  0
 15 12  1  0  0  0  0
 17 16  1  6  0  0  0
 17 15  1  0  0  0  0
 17 19  1  0  0  0  0
 20 16  1  0  0  0  0
 20 22  1  0  0  0  0
 22 23  1  0  0  0  0
 23 21  2  6  0  0  0
 23 19  1  0  0  0  0
 23 18  1  0  0  0  0
 24 26  2  0  0  0  0
 25 30  1  0  0  0  0
 25 24  2  0  0  0  0
 26 12  1  0  0  0  0
 27 29  2  0  0  0  0
 28 29  1  0  0  0  0
 29 25  1  0  0  0  0
 30 31  1  0  0  0  0
 31 32  1  0  0  0  0
 33 32  1  0  0  0  0
 35 36  1  0  0  0  0
 36 34  1  6  0  0  0
 36 33  1  0  0  0  0
 38 37  1  6  0  0  0
 38 39  1  0  0  0  0
 39 41  1  0  0  0  0
 40 42  1  0  0  0  0
 40 41  2  0  0  0  0
 43 38  1  0  0  0  0
 43 40  1  0  0  0  0
 44 42  1  0  0  0  0
 45 49  2  0  0  0  0
 46 48  1  0  0  0  0
 47 51  1  6  0  0  0
 47 45  1  0  0  0  0
 48 49  1  0  0  0  0
 49 44  1  0  0  0  0
 50 46  2  0  0  0  0
 50 47  1  0  0  0  0
 52 53  1  0  0  0  0
 53 55  1  0  0  0  0
 54 55  1  0  0  0  0
 55 51  1  0  0  0  0
 56 57  1  6  0  0  0
 56 52  1  0  0  0  0
 56 54  1  0  0  0  0
 57 60  1  6  0  0  0
 58 57  1  0  0  0  0
 59 58  1  0  0  0  0
 60 61  1  0  0  0  0
 62 61  1  0  0  0  0
 63 62  1  0  0  0  0
M  END
>  <MODEL>
5

>  <REMARK>
 VINA RESULT:      -3.7      4.082     10.123
  Name = 
  19 active torsions:
  status: ('A' for Active; 'I' for Inactive)
    1  A    between atoms: C_3  and  C_5
    2  A    between atoms: C_3  and  N_59
    3  A    between atoms: C_7  and  C_53
    4  A    between atoms: C_8  and  C_16
    5  A    between atoms: C_8  and  C_55
    6  A    between atoms: C_9  and  C_19
    7  A    between atoms: C_10  and  N_40
    8  A    between atoms: C_10  and  C_46
    9  A    between atoms: C_14  and  C_48
   10  A    between atoms: C_16  and  C_25
   11  A    between atoms: N_17  and  C_47
   12  A    between atoms: C_18  and  C_44
   13  A    between atoms: C_18  and  C_56
   14  A    between atoms: C_25  and  C_56
   15  A    between atoms: C_28  and  C_33
   16  A    between atoms: N_31  and  N_54
   17  A    between atoms: C_33  and  N_39
   18  A    between atoms: C_47  and  N_59
   19  A    between atoms: C_47  and  C_63
                            x       y       z     vdW  Elec       q    Type
                         _______ _______ _______ _____ _____    ______ ____

>  <TORSDO>
F 19

$$$$
=
 OpenBabel10232411553D

 63 68  0  0  1  0  0  0  0  0999 V2000
  185.1920  177.8820  142.7230 C   0  0  0  0  0  2  0  0  0  0  0  0
  185.0720  178.7100  141.5420 N   0  0  0  0  0  2  0  0  0  0  0  0
  183.8980  180.1680  140.1980 O   0  0  0  0  0  0  0  0  0  0  0  0
  182.3710  178.9160  143.2770 C   0  0  0  0  0  0  0  0  0  0  0  0
  183.8560  179.3430  141.1490 C   0  0  0  0  0  0  0  0  0  0  0  0
  181.4600  178.9580  141.0770 N   0  0  0  0  0  0  0  0  0  0  0  0
  183.4430  178.7040  144.2070 N   0  0  0  0  0  2  0  0  0  0  0  0
  182.5430  179.0460  141.7990 C   0  0  0  0  0  0  0  0  0  0  0  0
  184.8670  178.7370  143.9260 C   0  0  1  0  0  3  0  0  0  0  0  0
  181.2010  178.9660  143.7440 O   0  0  0  0  0  0  0  0  0  0  0  0
  185.6470  178.2840  145.1200 C   0  0  0  0  0  0  0  0  0  0  0  0
  186.5680  177.3270  145.1010 C   0  0  0  0  0  0  0  0  0  0  0  0
  186.1500  177.8230  147.4030 C   0  0  0  0  0  3  0  0  0  0  0  0
  185.3620  178.7630  146.4990 C   0  0  0  0  0  3  0  0  0  0  0  0
  186.9990  176.9500  146.4790 C   0  0  2  0  0  3  0  0  0  0  0  0
  188.7660  178.0260  148.0090 C   0  0  0  0  0  2  0  0  0  0  0  0
  188.4960  177.1770  146.7450 C   0  0  2  0  0  3  0  0  0  0  0  0
  191.5700  176.3490  145.1000 O   0  0  0  0  0  0  0  0  0  0  0  0
  189.2180  177.6990  145.5060 C   0  0  0  0  0  2  0  0  0  0  0  0
  190.2370  178.4380  148.2210 C   0  0  0  0  0  2  0  0  0  0  0  0
  191.7630  178.9670  145.1670 O   0  0  0  0  0  1  0  0  0  0  0  0
  191.2350  177.4860  147.5730 C   0  0  0  0  0  2  0  0  0  0  0  0
  191.0060  177.5810  145.7730 P   0  0  2  0  0  0  0  0  0  0  0  0
  187.8780  177.0600  143.0380 C   0  0  0  0  0  0  0  0  0  0  0  0
  188.7580  177.4780  142.1660 C   0  0  0  0  0  0  0  0  0  0  0  0
  187.0360  176.5810  143.9150 C   0  0  0  0  0  3  0  0  0  0  0  0
  190.2920  175.5740  142.6310 O   0  0  0  0  0  1  0  0  0  0  0  0
  190.5310  176.8110  140.7210 O   0  0  0  0  0  0  0  0  0  0  0  0
  189.9030  176.6180  141.7980 C   0  0  0  0  0  0  0  0  0  0  0  0
  188.6750  178.8770  141.6500 C   0  0  0  0  0  2  0  0  0  0  0  0
  188.4120  178.8830  140.1580 C   0  0  0  0  0  2  0  0  0  0  0  0
  187.2310  177.9860  139.8540 C   0  0  0  0  0  2  0  0  0  0  0  0
  186.6240  178.3880  138.5180 C   0  0  0  0  0  2  0  0  0  0  0  0
  186.9970  178.3260  136.0500 C   0  0  0  0  0  1  0  0  0  0  0  0
  188.5160  179.4170  137.5120 O   0  0  0  0  0  1  0  0  0  0  0  0
  187.6670  178.3190  137.4130 C   0  0  1  0  0  3  0  0  0  0  0  0
  181.4200  179.0080  139.6190 C   0  0  0  0  0  2  0  0  0  0  0  0
  182.4400  178.0510  139.0360 C   0  0  2  0  0  3  0  0  0  0  0  0
  183.1410  178.7260  137.8650 C   0  0  0  0  0  2  0  0  0  0  0  0
  182.6300  176.6640  136.9600 C   0  0  0  0  0  0  0  0  0  0  0  0
  183.3410  177.7290  136.8300 N   0  0  0  0  0  0  0  0  0  0  0  0
  182.7340  175.5970  136.0190 N   0  0  0  0  0  2  0  0  0  0  0  0
  181.5850  176.5730  138.3970 S   0  0  0  0  0  0  0  0  0  0  0  0
  181.8990  174.4740  136.1150 N   0  0  0  0  0  2  0  0  0  0  0  0
  183.7220  172.9570  136.1840 N   0  0  0  0  0  0  0  0  0  0  0  0
  182.0980  170.8810  136.9620 N   0  0  0  0  0  0  0  0  0  0  0  0
  184.2970  171.6090  136.2210 C   0  0  1  0  0  3  0  0  0  0  0  0
  181.5000  171.9760  136.2170 C   0  0  0  0  0  2  0  0  0  0  0  0
  182.4330  173.1540  136.1760 C   0  0  0  0  0  0  0  0  0  0  0  0
  183.3730  170.6810  136.9740 C   0  0  0  0  0  3  0  0  0  0  0  0
  184.5090  171.1040  134.7990 C   0  0  0  0  0  2  0  0  0  0  0  0
  187.4680  173.1770  134.5010 C   0  0  0  0  0  2  0  0  0  0  0  0
  185.9960  172.8660  134.4200 C   0  0  0  0  0  2  0  0  0  0  0  0
  186.9720  170.7420  135.5400 S   0  0  0  0  0  0  0  0  0  0  0  0
  185.8530  171.4230  134.3500 N   0  0  0  0  0  0  0  0  0  0  0  0
  188.0630  172.2030  135.4960 C   0  0  2  0  0  3  0  0  0  0  0  0
  188.1600  172.8440  136.8870 C   0  0  2  0  0  3  0  0  0  0  0  0
  186.8430  173.2420  137.3720 N   0  0  0  0  0  2  0  0  0  0  0  0
  186.7790  174.6910  137.2820 C   0  0  0  0  0  1  0  0  0  0  0  0
  189.0850  173.9840  136.9130 N   0  0  0  0  0  2  0  0  0  0  0  0
  190.3300  173.6530  136.2240 C   0  0  0  0  0  2  0  0  0  0  0  0
  191.4120  174.6530  136.5910 C   0  0  0  0  0  2  0  0  0  0  0  0
  190.8030  176.0170  136.8610 C   0  0  0  0  0  1  0  0  0  0  0  0
  1  9  1  0  0  0  0
  2  1  1  0  0  0  0
  3  5  2  0  0  0  0
  4 10  2  0  0  0  0
  4  7  1  0  0  0  0
  5  2  1  0  0  0  0
  5  8  1  0  0  0  0
  6  8  2  0  0  0  0
  8  4  1  0  0  0  0
  9  7  1  0  0  0  0
  9 11  1  1  0  0  0
 11 14  1  0  0  0  0
 12 11  2  0  0  0  0
 12 15  1  0  0  0  0
 14 13  2  0  0  0  0
 15 17  1  0  0  0  0
 15 13  1  1  0  0  0
 16 20  1  0  0  0  0
 17 19  1  6  0  0  0
 17 16  1  0  0  0  0
 19 23  1  0  0  0  0
 21 23  1  0  0  0  0
 22 20  1  0  0  0  0
 23 18  2  6  0  0  0
 23 22  1  0  0  0  0
 24 26  2  0  0  0  0
 25 24  2  0  0  0  0
 26 12  1  0  0  0  0
 28 29  2  0  0  0  0
 29 25  1  0  0  0  0
 29 27  1  0  0  0  0
 30 25  1  0  0  0  0
 31 30  1  0  0  0  0
 32 31  1  0  0  0  0
 33 32  1  0  0  0  0
 36 34  1  6  0  0  0
 36 35  1  0  0  0  0
 36 33  1  0  0  0  0
 37  6  1  0  0  0  0
 38 37  1  6  0  0  0
 39 38  1  0  0  0  0
 40 43  1  0  0  0  0
 41 40  2  0  0  0  0
 41 39  1  0  0  0  0
 42 44  1  0  0  0  0
 42 40  1  0  0  0  0
 43 38  1  0  0  0  0
 44 49  1  0  0  0  0
 45 47  1  0  0  0  0
 46 50  2  0  0  0  0
 47 51  1  6  0  0  0
 47 50  1  0  0  0  0
 48 46  1  0  0  0  0
 49 45  2  0  0  0  0
 49 48  1  0  0  0  0
 52 56  1  0  0  0  0
 53 52  1  0  0  0  0
 55 53  1  0  0  0  0
 55 51  1  0  0  0  0
 55 54  1  0  0  0  0
 56 54  1  0  0  0  0
 56 57  1  1  0  0  0
 57 60  1  6  0  0  0
 57 58  1  0  0  0  0
 59 58  1  0  0  0  0
 61 62  1  0  0  0  0
 61 60  1  0  0  0  0
 62 63  1  0  0  0  0
M  END
>  <MODEL>
6

>  <REMARK>
 VINA RESULT:      -3.3      3.965     10.150
  Name = 
  19 active torsions:
  status: ('A' for Active; 'I' for Inactive)
    1  A    between atoms: C_3  and  C_5
    2  A    between atoms: C_3  and  N_59
    3  A    between atoms: C_7  and  C_53
    4  A    between atoms: C_8  and  C_16
    5  A    between atoms: C_8  and  C_55
    6  A    between atoms: C_9  and  C_19
    7  A    between atoms: C_10  and  N_40
    8  A    between atoms: C_10  and  C_46
    9  A    between atoms: C_14  and  C_48
   10  A    between atoms: C_16  and  C_25
   11  A    between atoms: N_17  and  C_47
   12  A    between atoms: C_18  and  C_44
   13  A    between atoms: C_18  and  C_56
   14  A    between atoms: C_25  and  C_56
   15  A    between atoms: C_28  and  C_33
   16  A    between atoms: N_31  and  N_54
   17  A    between atoms: C_33  and  N_39
   18  A    between atoms: C_47  and  N_59
   19  A    between atoms: C_47  and  C_63
                            x       y       z     vdW  Elec       q    Type
                         _______ _______ _______ _____ _____    ______ ____

>  <TORSDO>
F 19

$$$$
=
 OpenBabel10232411553D

 63 68  0  0  1  0  0  0  0  0999 V2000
  188.2690  176.6650  135.5430 C   0  0  0  0  0  2  0  0  0  0  0  0
  187.1080  176.7250  136.4040 N   0  0  0  0  0  2  0  0  0  0  0  0
  185.2120  175.7900  137.3220 O   0  0  0  0  0  0  0  0  0  0  0  0
  187.2210  173.8560  134.9550 C   0  0  0  0  0  0  0  0  0  0  0  0
  186.0940  175.7220  136.4250 C   0  0  0  0  0  0  0  0  0  0  0  0
  184.8710  174.2380  134.9440 N   0  0  0  0  0  0  0  0  0  0  0  0
  188.5800  174.2830  135.1290 N   0  0  0  0  0  2  0  0  0  0  0  0
  186.0250  174.6220  135.4160 C   0  0  0  0  0  0  0  0  0  0  0  0
  189.0500  175.4200  135.9000 C   0  0  1  0  0  3  0  0  0  0  0  0
  187.0310  172.7680  134.3460 O   0  0  0  0  0  0  0  0  0  0  0  0
  190.5140  175.6360  135.6770 C   0  0  0  0  0  0  0  0  0  0  0  0
  191.4270  175.6730  136.6410 C   0  0  0  0  0  0  0  0  0  0  0  0
  192.5130  176.4190  134.6450 C   0  0  0  0  0  3  0  0  0  0  0  0
  191.0840  175.9830  134.3480 C   0  0  0  0  0  3  0  0  0  0  0  0
  192.7510  176.1300  136.1260 C   0  0  2  0  0  3  0  0  0  0  0  0
  194.7980  174.9850  135.0670 C   0  0  0  0  0  2  0  0  0  0  0  0
  193.8750  175.0950  136.3020 C   0  0  2  0  0  3  0  0  0  0  0  0
  194.8510  172.7370  138.8190 O   0  0  0  0  0  1  0  0  0  0  0  0
  193.3350  173.7460  136.7690 C   0  0  0  0  0  2  0  0  0  0  0  0
  195.8270  173.8380  135.1150 C   0  0  0  0  0  2  0  0  0  0  0  0
  194.4850  171.1230  136.7790 O   0  0  0  0  0  0  0  0  0  0  0  0
  196.2010  173.4150  136.5310 C   0  0  0  0  0  2  0  0  0  0  0  0
  194.7190  172.7120  137.3110 P   0  0  2  0  0  0  0  0  0  0  0  0
  191.7480  176.1660  139.0270 C   0  0  0  0  0  0  0  0  0  0  0  0
  192.2390  176.8850  140.0030 C   0  0  0  0  0  0  0  0  0  0  0  0
  191.1920  175.4540  138.0820 C   0  0  0  0  0  3  0  0  0  0  0  0
  191.7810  178.4300  141.9000 O   0  0  0  0  0  1  0  0  0  0  0  0
  190.1780  176.9580  141.1960 O   0  0  0  0  0  0  0  0  0  0  0  0
  191.3460  177.4130  141.0570 C   0  0  0  0  0  0  0  0  0  0  0  0
  193.6780  177.2820  139.9710 C   0  0  0  0  0  2  0  0  0  0  0  0
  194.5550  176.0920  139.6420 C   0  0  0  0  0  2  0  0  0  0  0  0
  195.7060  176.0300  140.6240 C   0  0  0  0  0  2  0  0  0  0  0  0
  196.8870  175.3280  139.9720 C   0  0  0  0  0  2  0  0  0  0  0  0
  198.0690  175.4140  142.1700 C   0  0  0  0  0  1  0  0  0  0  0  0
  199.2230  174.9280  140.1530 O   0  0  0  0  0  1  0  0  0  0  0  0
  198.1840  175.6890  140.6810 C   0  0  1  0  0  3  0  0  0  0  0  0
  183.5940  174.8840  135.2290 C   0  0  0  0  0  2  0  0  0  0  0  0
  183.2460  174.7280  136.6960 C   0  0  2  0  0  3  0  0  0  0  0  0
  182.3940  173.4780  136.8730 C   0  0  0  0  0  2  0  0  0  0  0  0
  181.1970  175.0220  138.1050 C   0  0  0  0  0  0  0  0  0  0  0  0
  181.3760  173.7700  137.8640 N   0  0  0  0  0  0  0  0  0  0  0  0
  180.2340  175.4520  139.0640 N   0  0  0  0  0  2  0  0  0  0  0  0
  182.2560  176.1600  137.2380 S   0  0  0  0  0  0  0  0  0  0  0  0
  179.9830  176.8170  139.2650 N   0  0  0  0  0  2  0  0  0  0  0  0
  182.2150  177.2690  139.9280 N   0  0  0  0  0  0  0  0  0  0  0  0
  181.8340  179.9830  139.7300 N   0  0  0  0  0  0  0  0  0  0  0  0
  183.2770  178.1520  140.4210 C   0  0  1  0  0  3  0  0  0  0  0  0
  180.6740  179.1450  139.9810 C   0  0  0  0  0  2  0  0  0  0  0  0
  181.0030  177.7020  139.7220 C   0  0  0  0  0  0  0  0  0  0  0  0
  183.0370  179.5610  139.9330 C   0  0  0  0  0  3  0  0  0  0  0  0
  183.3040  178.1190  141.9440 C   0  0  0  0  0  2  0  0  0  0  0  0
  185.2220  179.8100  144.5140 C   0  0  0  0  0  2  0  0  0  0  0  0
  183.9710  179.3940  143.7860 C   0  0  0  0  0  2  0  0  0  0  0  0
  185.8120  177.9990  142.6100 S   0  0  0  0  0  0  0  0  0  0  0  0
  184.3540  178.9890  142.4460 N   0  0  0  0  0  0  0  0  0  0  0  0
  186.2750  178.7700  144.1970 C   0  0  2  0  0  3  0  0  0  0  0  0
  186.3430  177.7140  145.3080 C   0  0  2  0  0  3  0  0  0  0  0  0
  185.4430  178.0510  146.4050 N   0  0  0  0  0  2  0  0  0  0  0  0
  186.2750  178.3730  147.5530 C   0  0  0  0  0  1  0  0  0  0  0  0
  187.7100  177.5150  145.8060 N   0  0  0  0  0  2  0  0  0  0  0  0
  188.5790  177.0190  144.7410 C   0  0  0  0  0  2  0  0  0  0  0  0
  189.7880  177.9250  144.5900 C   0  0  0  0  0  2  0  0  0  0  0  0
  191.0550  177.1890  144.9870 C   0  0  0  0  0  1  0  0  0  0  0  0
  1  9  1  0  0  0  0
  1  2  1  0  0  0  0
  2  5  1  0  0  0  0
  4  7  1  0  0  0  0
  4  8  1  0  0  0  0
  5  3  2  0  0  0  0
  6 37  1  0  0  0  0
  6  8  2  0  0  0  0
  7  9  1  0  0  0  0
  8  5  1  0  0  0  0
  9 11  1  6  0  0  0
 10  4  2  0  0  0  0
 11 12  2  0  0  0  0
 12 26  1  0  0  0  0
 14 13  2  0  0  0  0
 14 11  1  0  0  0  0
 15 13  1  6  0  0  0
 15 17  1  0  0  0  0
 15 12  1  0  0  0  0
 16 20  1  0  0  0  0
 17 16  1  6  0  0  0
 17 19  1  0  0  0  0
 19 23  1  0  0  0  0
 20 22  1  0  0  0  0
 22 23  1  0  0  0  0
 23 21  2  6  0  0  0
 23 18  1  0  0  0  0
 24 25  2  0  0  0  0
 25 29  1  0  0  0  0
 26 24  2  0  0  0  0
 29 28  2  0  0  0  0
 29 27  1  0  0  0  0
 30 25  1  0  0  0  0
 31 30  1  0  0  0  0
 31 32  1  0  0  0  0
 33 32  1  0  0  0  0
 33 36  1  0  0  0  0
 35 36  1  0  0  0  0
 36 34  1  1  0  0  0
 38 37  1  6  0  0  0
 38 39  1  0  0  0  0
 38 43  1  0  0  0  0
 39 41  1  0  0  0  0
 40 42  1  0  0  0  0
 41 40  2  0  0  0  0
 42 44  1  0  0  0  0
 43 40  1  0  0  0  0
 44 49  1  0  0  0  0
 45 47  1  0  0  0  0
 46 50  2  0  0  0  0
 46 48  1  0  0  0  0
 47 51  1  1  0  0  0
 49 45  2  0  0  0  0
 49 48  1  0  0  0  0
 50 47  1  0  0  0  0
 51 55  1  0  0  0  0
 53 52  1  0  0  0  0
 54 56  1  0  0  0  0
 55 54  1  0  0  0  0
 55 53  1  0  0  0  0
 56 52  1  0  0  0  0
 56 57  1  1  0  0  0
 57 60  1  1  0  0  0
 57 58  1  0  0  0  0
 58 59  1  0  0  0  0
 61 60  1  0  0  0  0
 62 61  1  0  0  0  0
 62 63  1  0  0  0  0
M  END
>  <MODEL>
7

>  <REMARK>
 VINA RESULT:      -3.3      2.614      4.400
  Name = 
  19 active torsions:
  status: ('A' for Active; 'I' for Inactive)
    1  A    between atoms: C_3  and  C_5
    2  A    between atoms: C_3  and  N_59
    3  A    between atoms: C_7  and  C_53
    4  A    between atoms: C_8  and  C_16
    5  A    between atoms: C_8  and  C_55
    6  A    between atoms: C_9  and  C_19
    7  A    between atoms: C_10  and  N_40
    8  A    between atoms: C_10  and  C_46
    9  A    between atoms: C_14  and  C_48
   10  A    between atoms: C_16  and  C_25
   11  A    between atoms: N_17  and  C_47
   12  A    between atoms: C_18  and  C_44
   13  A    between atoms: C_18  and  C_56
   14  A    between atoms: C_25  and  C_56
   15  A    between atoms: C_28  and  C_33
   16  A    between atoms: N_31  and  N_54
   17  A    between atoms: C_33  and  N_39
   18  A    between atoms: C_47  and  N_59
   19  A    between atoms: C_47  and  C_63
                            x       y       z     vdW  Elec       q    Type
                         _______ _______ _______ _____ _____    ______ ____

>  <TORSDO>
F 19

$$$$
=
 OpenBabel10232411553D

 63 68  0  0  1  0  0  0  0  0999 V2000
  184.5430  177.3500  142.0180 C   0  0  0  0  0  2  0  0  0  0  0  0
  185.1800  177.4840  143.3100 N   0  0  0  0  0  2  0  0  0  0  0  0
  186.8640  178.2760  144.6690 O   0  0  0  0  0  0  0  0  0  0  0  0
  186.9040  179.0550  141.0950 C   0  0  0  0  0  0  0  0  0  0  0  0
  186.4710  178.0620  143.4910 C   0  0  0  0  0  0  0  0  0  0  0  0
  188.6580  178.1740  142.4440 N   0  0  0  0  0  0  0  0  0  0  0  0
  185.5330  179.1290  140.6780 N   0  0  0  0  0  2  0  0  0  0  0  0
  187.3760  178.3950  142.3490 C   0  0  0  0  0  0  0  0  0  0  0  0
  184.3620  178.7350  141.4420 C   0  0  1  0  0  3  0  0  0  0  0  0
  187.7680  179.5620  140.3310 O   0  0  0  0  0  0  0  0  0  0  0  0
  183.1350  178.7930  140.5870 C   0  0  0  0  0  0  0  0  0  0  0  0
  183.1400  178.8200  139.2590 C   0  0  0  0  0  0  0  0  0  0  0  0
  180.8980  179.3000  139.9400 C   0  0  0  0  0  3  0  0  0  0  0  0
  181.7700  178.9790  141.1480 C   0  0  0  0  0  3  0  0  0  0  0  0
  181.7830  179.1080  138.7090 C   0  0  2  0  0  3  0  0  0  0  0  0
  181.2580  176.5980  138.4880 C   0  0  0  0  0  2  0  0  0  0  0  0
  181.2280  177.9880  137.8120 C   0  0  2  0  0  3  0  0  0  0  0  0
  179.9820  177.7370  134.4620 O   0  0  0  0  0  1  0  0  0  0  0  0
  181.8730  177.9990  136.4290 C   0  0  0  0  0  2  0  0  0  0  0  0
  180.8860  175.4150  137.5720 C   0  0  0  0  0  2  0  0  0  0  0  0
  181.9750  176.0310  134.3510 O   0  0  0  0  0  0  0  0  0  0  0  0
  179.9820  175.8060  136.4090 C   0  0  0  0  0  2  0  0  0  0  0  0
  180.9200  176.9240  135.3270 P   0  0  2  0  0  0  0  0  0  0  0  0
  184.6460  177.6830  137.6840 C   0  0  0  0  0  0  0  0  0  0  0  0
  184.9740  176.6690  136.9270 C   0  0  0  0  0  0  0  0  0  0  0  0
  184.3270  178.7400  138.3840 C   0  0  0  0  0  3  0  0  0  0  0  0
  186.4820  176.3900  134.9650 O   0  0  0  0  0  1  0  0  0  0  0  0
  184.4950  177.5030  134.7470 O   0  0  0  0  0  0  0  0  0  0  0  0
  185.2960  176.8830  135.4990 C   0  0  0  0  0  0  0  0  0  0  0  0
  184.8890  175.2830  137.4760 C   0  0  0  0  0  2  0  0  0  0  0  0
  185.0120  174.2590  136.3660 C   0  0  0  0  0  2  0  0  0  0  0  0
  185.3980  172.9200  136.9610 C   0  0  0  0  0  2  0  0  0  0  0  0
  186.9130  172.7830  136.9510 C   0  0  0  0  0  2  0  0  0  0  0  0
  186.6870  170.9140  135.3100 C   0  0  0  0  0  1  0  0  0  0  0  0
  187.1180  173.1400  134.6100 O   0  0  0  0  0  1  0  0  0  0  0  0
  187.3920  172.2230  135.6200 C   0  0  1  0  0  3  0  0  0  0  0  0
  189.3100  177.4980  143.5600 C   0  0  0  0  0  2  0  0  0  0  0  0
  190.5830  176.8240  143.0910 C   0  0  2  0  0  3  0  0  0  0  0  0
  191.7680  177.7280  143.4060 C   0  0  0  0  0  2  0  0  0  0  0  0
  192.2100  177.1480  141.2150 C   0  0  0  0  0  0  0  0  0  0  0  0
  192.6990  177.6450  142.2970 N   0  0  0  0  0  0  0  0  0  0  0  0
  193.0170  176.9980  140.0490 N   0  0  0  0  0  2  0  0  0  0  0  0
  190.5180  176.6000  141.2830 S   0  0  0  0  0  0  0  0  0  0  0  0
  192.4620  176.5340  138.8480 N   0  0  0  0  0  2  0  0  0  0  0  0
  194.4210  175.3400  138.2450 N   0  0  0  0  0  0  0  0  0  0  0  0
  193.1100  173.9940  136.2420 N   0  0  0  0  0  0  0  0  0  0  0  0
  195.2190  174.5190  137.3300 C   0  0  1  0  0  3  0  0  0  0  0  0
  192.5940  175.2900  136.6470 C   0  0  0  0  0  2  0  0  0  0  0  0
  193.2080  175.7150  137.9510 C   0  0  0  0  0  0  0  0  0  0  0  0
  194.3100  173.6170  136.5290 C   0  0  0  0  0  3  0  0  0  0  0  0
  196.0210  175.4210  136.3990 C   0  0  0  0  0  2  0  0  0  0  0  0
  199.0310  173.5650  137.1950 C   0  0  0  0  0  2  0  0  0  0  0  0
  197.9900  174.6370  137.3830 C   0  0  0  0  0  2  0  0  0  0  0  0
  197.0020  173.2060  135.4610 S   0  0  0  0  0  0  0  0  0  0  0  0
  197.3130  174.8230  136.1120 N   0  0  0  0  0  0  0  0  0  0  0  0
  198.3740  172.4570  136.4000 C   0  0  2  0  0  3  0  0  0  0  0  0
  197.8490  171.3590  137.3350 C   0  0  2  0  0  3  0  0  0  0  0  0
  198.3380  170.0470  136.9280 N   0  0  0  0  0  2  0  0  0  0  0  0
  199.4230  169.7000  137.8310 C   0  0  0  0  0  1  0  0  0  0  0  0
  196.3830  171.3560  137.4260 N   0  0  0  0  0  2  0  0  0  0  0  0
  195.8600  170.0000  137.2720 C   0  0  0  0  0  2  0  0  0  0  0  0
  195.1790  169.8540  135.9230 C   0  0  0  0  0  2  0  0  0  0  0  0
  193.6750  169.9780  136.0730 C   0  0  0  0  0  1  0  0  0  0  0  0
  1  2  1  0  0  0  0
  2  5  1  0  0  0  0
  4  8  1  0  0  0  0
  5  3  2  0  0  0  0
  6 37  1  0  0  0  0
  7  4  1  0  0  0  0
  7  9  1  0  0  0  0
  8  6  2  0  0  0  0
  8  5  1  0  0  0  0
  9 11  1  6  0  0  0
  9  1  1  0  0  0  0
 10  4  2  0  0  0  0
 11 14  1  0  0  0  0
 12 11  2  0  0  0  0
 13 14  2  0  0  0  0
 15 12  1  0  0  0  0
 15 13  1  1  0  0  0
 17 19  1  6  0  0  0
 17 16  1  0  0  0  0
 17 15  1  0  0  0  0
 18 23  1  0  0  0  0
 20 16  1  0  0  0  0
 22 20  1  0  0  0  0
 23 21  2  6  0  0  0
 23 22  1  0  0  0  0
 23 19  1  0  0  0  0
 24 26  2  0  0  0  0
 25 30  1  0  0  0  0
 25 24  2  0  0  0  0
 26 12  1  0  0  0  0
 27 29  1  0  0  0  0
 28 29  2  0  0  0  0
 29 25  1  0  0  0  0
 31 32  1  0  0  0  0
 31 30  1  0  0  0  0
 33 32  1  0  0  0  0
 35 36  1  0  0  0  0
 36 34  1  6  0  0  0
 36 33  1  0  0  0  0
 38 39  1  0  0  0  0
 38 37  1  6  0  0  0
 40 43  1  0  0  0  0
 40 41  2  0  0  0  0
 41 39  1  0  0  0  0
 42 40  1  0  0  0  0
 43 38  1  0  0  0  0
 44 42  1  0  0  0  0
 46 50  2  0  0  0  0
 46 48  1  0  0  0  0
 47 51  1  6  0  0  0
 47 45  1  0  0  0  0
 48 49  1  0  0  0  0
 49 45  2  0  0  0  0
 49 44  1  0  0  0  0
 50 47  1  0  0  0  0
 52 53  1  0  0  0  0
 54 55  1  0  0  0  0
 54 56  1  0  0  0  0
 55 51  1  0  0  0  0
 55 53  1  0  0  0  0
 56 52  1  0  0  0  0
 56 57  1  1  0  0  0
 57 58  1  6  0  0  0
 57 60  1  0  0  0  0
 58 59  1  0  0  0  0
 61 60  1  0  0  0  0
 62 63  1  0  0  0  0
 62 61  1  0  0  0  0
M  END
>  <MODEL>
8

>  <REMARK>
 VINA RESULT:      -2.9      4.480     12.451
  Name = 
  19 active torsions:
  status: ('A' for Active; 'I' for Inactive)
    1  A    between atoms: C_3  and  C_5
    2  A    between atoms: C_3  and  N_59
    3  A    between atoms: C_7  and  C_53
    4  A    between atoms: C_8  and  C_16
    5  A    between atoms: C_8  and  C_55
    6  A    between atoms: C_9  and  C_19
    7  A    between atoms: C_10  and  N_40
    8  A    between atoms: C_10  and  C_46
    9  A    between atoms: C_14  and  C_48
   10  A    between atoms: C_16  and  C_25
   11  A    between atoms: N_17  and  C_47
   12  A    between atoms: C_18  and  C_44
   13  A    between atoms: C_18  and  C_56
   14  A    between atoms: C_25  and  C_56
   15  A    between atoms: C_28  and  C_33
   16  A    between atoms: N_31  and  N_54
   17  A    between atoms: C_33  and  N_39
   18  A    between atoms: C_47  and  N_59
   19  A    between atoms: C_47  and  C_63
                            x       y       z     vdW  Elec       q    Type
                         _______ _______ _______ _____ _____    ______ ____

>  <TORSDO>
F 19

$$$$
=
 OpenBabel10232411553D

 63 68  0  0  1  0  0  0  0  0999 V2000
  191.3740  175.4950  138.0500 C   0  0  0  0  0  2  0  0  0  0  0  0
  191.2790  175.7770  139.4660 N   0  0  0  0  0  2  0  0  0  0  0  0
  190.0810  176.3980  141.3350 O   0  0  0  0  0  0  0  0  0  0  0  0
  188.4010  176.1980  138.0910 C   0  0  0  0  0  0  0  0  0  0  0  0
  190.1190  176.3410  140.0760 C   0  0  0  0  0  0  0  0  0  0  0  0
  188.3750  177.9800  139.6710 N   0  0  0  0  0  0  0  0  0  0  0  0
  189.0630  175.1610  137.3520 N   0  0  0  0  0  2  0  0  0  0  0  0
  188.9730  176.8860  139.2860 C   0  0  0  0  0  0  0  0  0  0  0  0
  190.3020  174.4880  137.7030 C   0  0  1  0  0  3  0  0  0  0  0  0
  187.2680  176.5670  137.6800 O   0  0  0  0  0  0  0  0  0  0  0  0
  190.7530  173.6050  136.5830 C   0  0  0  0  0  0  0  0  0  0  0  0
  192.0200  173.3110  136.3160 C   0  0  0  0  0  0  0  0  0  0  0  0
  190.7350  172.5210  134.4610 C   0  0  0  0  0  3  0  0  0  0  0  0
  189.8240  173.0770  135.5480 C   0  0  0  0  0  3  0  0  0  0  0  0
  192.1580  172.6000  135.0110 C   0  0  2  0  0  3  0  0  0  0  0  0
  191.8350  170.0780  134.6140 C   0  0  0  0  0  2  0  0  0  0  0  0
  192.7710  171.1940  135.1320 C   0  0  2  0  0  3  0  0  0  0  0  0
  195.7970  169.7960  136.4460 O   0  0  0  0  0  0  0  0  0  0  0  0
  193.3010  170.9270  136.5380 C   0  0  0  0  0  2  0  0  0  0  0  0
  192.3210  168.6380  134.8790 C   0  0  0  0  0  2  0  0  0  0  0  0
  194.0200  168.5040  137.8840 O   0  0  0  0  0  1  0  0  0  0  0  0
  193.8340  168.5220  135.0160 C   0  0  0  0  0  2  0  0  0  0  0  0
  194.3290  169.4360  136.5070 P   0  0  2  0  0  0  0  0  0  0  0  0
  194.4210  173.7480  136.6160 C   0  0  0  0  0  0  0  0  0  0  0  0
  195.6460  173.8250  136.1670 C   0  0  0  0  0  0  0  0  0  0  0  0
  193.2030  173.7390  137.0910 C   0  0  0  0  0  3  0  0  0  0  0  0
  196.5720  175.9780  135.3290 O   0  0  0  0  0  0  0  0  0  0  0  0
  196.9750  175.3060  137.4780 O   0  0  0  0  0  1  0  0  0  0  0  0
  196.4330  175.0610  136.3660 C   0  0  0  0  0  0  0  0  0  0  0  0
  196.1950  172.7120  135.3360 C   0  0  0  0  0  2  0  0  0  0  0  0
  197.7050  172.8050  135.2470 C   0  0  0  0  0  2  0  0  0  0  0  0
  198.3120  171.4690  135.6200 C   0  0  0  0  0  2  0  0  0  0  0  0
  198.6820  171.4790  137.0960 C   0  0  0  0  0  2  0  0  0  0  0  0
  200.0020  169.4950  136.3510 C   0  0  0  0  0  1  0  0  0  0  0  0
  200.1480  170.3270  138.5690 O   0  0  0  0  0  1  0  0  0  0  0  0
  199.2630  170.1360  137.5120 C   0  0  1  0  0  3  0  0  0  0  0  0
  188.8060  178.8240  140.7790 C   0  0  0  0  0  2  0  0  0  0  0  0
  187.7410  178.8570  141.8560 C   0  0  2  0  0  3  0  0  0  0  0  0
  187.5880  177.4610  142.4460 C   0  0  0  0  0  2  0  0  0  0  0  0
  185.3830  178.0460  142.0870 C   0  0  0  0  0  0  0  0  0  0  0  0
  186.1770  177.2340  142.6930 N   0  0  0  0  0  0  0  0  0  0  0  0
  183.9700  177.9440  142.2480 N   0  0  0  0  0  2  0  0  0  0  0  0
  186.1440  179.3260  141.1130 S   0  0  0  0  0  0  0  0  0  0  0  0
  183.1040  178.7750  141.5230 N   0  0  0  0  0  2  0  0  0  0  0  0
  182.2880  176.9910  140.1900 N   0  0  0  0  0  0  0  0  0  0  0  0
  180.2170  178.5200  139.2290 N   0  0  0  0  0  0  0  0  0  0  0  0
  181.4730  176.4420  139.1010 C   0  0  1  0  0  3  0  0  0  0  0  0
  181.4160  179.2010  139.6840 C   0  0  0  0  0  2  0  0  0  0  0  0
  182.2840  178.2630  140.4760 C   0  0  0  0  0  0  0  0  0  0  0  0
  180.2140  177.2610  138.9440 C   0  0  0  0  0  3  0  0  0  0  0  0
  182.2750  176.4510  137.8060 C   0  0  0  0  0  2  0  0  0  0  0  0
  181.3690  175.4310  134.4480 C   0  0  0  0  0  2  0  0  0  0  0  0
  182.2170  176.1010  135.4960 C   0  0  0  0  0  2  0  0  0  0  0  0
  180.4510  174.8340  136.9080 S   0  0  0  0  0  0  0  0  0  0  0  0
  181.3850  176.3180  136.6650 N   0  0  0  0  0  0  0  0  0  0  0  0
  180.5780  174.3500  135.1540 C   0  0  2  0  0  3  0  0  0  0  0  0
  181.2800  172.9920  135.0200 C   0  0  2  0  0  3  0  0  0  0  0  0
  180.3130  171.9260  134.7840 N   0  0  0  0  0  2  0  0  0  0  0  0
  180.4150  171.0060  135.9050 C   0  0  0  0  0  1  0  0  0  0  0  0
  182.1180  172.6790  136.1840 N   0  0  0  0  0  2  0  0  0  0  0  0
  183.5060  173.0660  135.9380 C   0  0  0  0  0  2  0  0  0  0  0  0
  184.4390  172.2440  136.8100 C   0  0  0  0  0  2  0  0  0  0  0  0
  185.4610  173.1400  137.4840 C   0  0  0  0  0  1  0  0  0  0  0  0
  1  2  1  0  0  0  0
  2  5  1  0  0  0  0
  4  8  1  0  0  0  0
  5  3  2  0  0  0  0
  6 37  1  0  0  0  0
  7  9  1  0  0  0  0
  7  4  1  0  0  0  0
  8  6  2  0  0  0  0
  8  5  1  0  0  0  0
  9 11  1  6  0  0  0
  9  1  1  0  0  0  0
 10  4  2  0  0  0  0
 12 11  2  0  0  0  0
 12 26  1  0  0  0  0
 13 14  2  0  0  0  0
 14 11  1  0  0  0  0
 15 13  1  1  0  0  0
 15 17  1  0  0  0  0
 15 12  1  0  0  0  0
 16 20  1  0  0  0  0
 17 16  1  1  0  0  0
 17 19  1  0  0  0  0
 20 22  1  0  0  0  0
 22 23  1  0  0  0  0
 23 18  2  6  0  0  0
 23 19  1  0  0  0  0
 23 21  1  0  0  0  0
 24 26  2  0  0  0  0
 25 29  1  0  0  0  0
 25 24  2  0  0  0  0
 27 29  2  0  0  0  0
 29 28  1  0  0  0  0
 30 25  1  0  0  0  0
 31 30  1  0  0  0  0
 31 32  1  0  0  0  0
 32 33  1  0  0  0  0
 33 36  1  0  0  0  0
 36 34  1  6  0  0  0
 36 35  1  0  0  0  0
 38 37  1  6  0  0  0
 38 39  1  0  0  0  0
 39 41  1  0  0  0  0
 40 42  1  0  0  0  0
 40 41  2  0  0  0  0
 43 38  1  0  0  0  0
 43 40  1  0  0  0  0
 44 42  1  0  0  0  0
 45 49  2  0  0  0  0
 46 48  1  0  0  0  0
 47 51  1  6  0  0  0
 47 45  1  0  0  0  0
 48 49  1  0  0  0  0
 49 44  1  0  0  0  0
 50 47  1  0  0  0  0
 50 46  2  0  0  0  0
 52 56  1  0  0  0  0
 52 53  1  0  0  0  0
 53 55  1  0  0  0  0
 55 54  1  0  0  0  0
 55 51  1  0  0  0  0
 56 57  1  1  0  0  0
 56 54  1  0  0  0  0
 57 58  1  1  0  0  0
 57 60  1  0  0  0  0
 58 59  1  0  0  0  0
 61 60  1  0  0  0  0
 61 62  1  0  0  0  0
 62 63  1  0  0  0  0
M  END
>  <MODEL>
9

>  <REMARK>
 VINA RESULT:      -2.9      2.779      7.345
  Name = 
  19 active torsions:
  status: ('A' for Active; 'I' for Inactive)
    1  A    between atoms: C_3  and  C_5
    2  A    between atoms: C_3  and  N_59
    3  A    between atoms: C_7  and  C_53
    4  A    between atoms: C_8  and  C_16
    5  A    between atoms: C_8  and  C_55
    6  A    between atoms: C_9  and  C_19
    7  A    between atoms: C_10  and  N_40
    8  A    between atoms: C_10  and  C_46
    9  A    between atoms: C_14  and  C_48
   10  A    between atoms: C_16  and  C_25
   11  A    between atoms: N_17  and  C_47
   12  A    between atoms: C_18  and  C_44
   13  A    between atoms: C_18  and  C_56
   14  A    between atoms: C_25  and  C_56
   15  A    between atoms: C_28  and  C_33
   16  A    between atoms: N_31  and  N_54
   17  A    between atoms: C_33  and  N_39
   18  A    between atoms: C_47  and  N_59
   19  A    between atoms: C_47  and  C_63
                            x       y       z     vdW  Elec       q    Type
                         _______ _______ _______ _____ _____    ______ ____

>  <TORSDO>
F 19

$$$$
