=
 OpenBabel10232411343D

 48 48  0  0  1  0  0  0  0  0999 V2000
  189.2780  177.9690  142.4730 C   0  0  2  0  0  3  0  0  0  0  0  0
  190.8010  179.4350  143.8350 C   0  0  0  0  0  1  0  0  0  0  0  0
  190.4990  178.0060  143.4040 C   0  0  1  0  0  3  0  0  0  0  0  0
  190.3140  177.1900  144.5290 O   0  0  0  0  0  0  0  0  0  0  0  0
  191.5070  177.3040  145.2450 C   0  0  0  0  0  2  0  0  0  0  0  0
  191.2650  177.0220  146.7200 C   0  0  1  0  0  3  0  0  0  0  0  0
  189.8210  176.6050  146.9180 C   0  0  0  0  0  1  0  0  0  0  0  0
  192.7560  176.0900  148.3300 O   0  0  0  0  0  1  0  0  0  0  0  0
  192.3640  174.7830  146.4890 O   0  0  0  0  0  0  0  0  0  0  0  0
  192.1820  175.9520  147.2180 C   0  0  0  0  0  0  0  0  0  0  0  0
  188.2420  176.9450  142.9260 C   0  0  0  0  0  2  0  0  0  0  0  0
  186.8750  177.5970  143.0480 C   0  0  0  0  0  2  0  0  0  0  0  0
  186.3120  177.3990  144.4480 C   0  0  0  0  0  2  0  0  0  0  0  0
  185.8820  178.7270  145.0680 C   0  0  2  0  0  3  0  0  0  0  0  0
  186.7220  178.4490  147.4910 C   0  0  0  0  0  1  0  0  0  0  0  0
  184.4390  178.5480  146.9420 O   0  0  0  0  0  0  0  0  0  0  0  0
  185.5890  178.5740  146.5300 C   0  0  0  0  0  0  0  0  0  0  0  0
  184.7030  180.5900  144.1230 O   0  0  0  0  0  0  0  0  0  0  0  0
  184.7340  179.3450  144.3330 C   0  0  0  0  0  0  0  0  0  0  0  0
  183.6510  178.5110  143.9200 N   0  0  0  0  0  2  0  0  0  0  0  0
  182.4650  179.0220  143.2480 C   0  0  2  0  0  3  0  0  0  0  0  0
  181.2110  178.6320  144.0180 C   0  0  0  0  0  1  0  0  0  0  0  0
  182.4030  178.4920  141.8520 C   0  0  0  0  0  0  0  0  0  0  0  0
  181.3250  178.3090  141.3060 O   0  0  0  0  0  0  0  0  0  0  0  0
  183.6790  178.1350  141.1500 C   0  0  0  0  0  2  0  0  0  0  0  0
  185.5410  179.3850  140.2800 O   0  0  0  0  0  1  0  0  0  0  0  0
  184.1600  179.2100  140.1770 C   0  0  1  0  0  3  0  0  0  0  0  0
  183.7740  178.9050  138.7660 C   0  0  0  0  0  3  0  0  0  0  0  0
  184.4570  178.1440  138.0990 O   0  0  0  0  0  0  0  0  0  0  0  0
  189.6370  177.7910  140.9850 C   0  0  1  0  0  3  0  0  0  0  0  0
  190.8250  176.8590  140.7790 C   0  0  0  0  0  2  0  0  0  0  0  0
  191.9250  177.5570  140.2790 O   0  0  0  0  0  1  0  0  0  0  0  0
  188.5420  177.3820  140.2110 O   0  0  0  0  0  0  0  0  0  0  0  0
  188.4870  178.2810  139.1450 C   0  0  0  0  0  2  0  0  0  0  0  0
  187.9670  177.5630  137.9160 C   0  0  0  0  0  2  0  0  0  0  0  0
  195.8740  174.3110  138.4970 C   0  0  0  0  0  0  0  0  0  0  0  0
  190.9900  174.5130  136.8690 N   0  0  0  0  0  0  0  0  0  0  0  0
  196.9260  174.7110  139.0550 O   0  0  0  0  0  0  0  0  0  0  0  0
  190.3080  176.7100  137.4920 N   0  0  0  0  0  2  0  0  0  0  0  0
  191.3110  175.7450  137.1450 C   0  0  0  0  0  0  0  0  0  0  0  0
  195.6810  172.8450  138.3030 C   0  0  0  0  0  1  0  0  0  0  0  0
  188.8960  176.4620  137.5440 C   0  0  0  0  0  0  0  0  0  0  0  0
  192.7500  176.1770  137.0930 C   0  0  0  0  0  2  0  0  0  0  0  0
  192.0010  173.5400  136.4610 C   0  0  0  0  0  2  0  0  0  0  0  0
  188.4250  175.3270  137.2630 O   0  0  0  0  0  0  0  0  0  0  0  0
  193.6440  175.0150  137.4310 C   0  0  0  0  0  0  0  0  0  0  0  0
  193.2650  173.8010  137.1500 N   0  0  0  0  0  0  0  0  0  0  0  0
  194.8990  175.2730  138.0740 N   0  0  0  0  0  2  0  0  0  0  0  0
  1 11  1  1  0  0  0
  1  3  1  0  0  0  0
  3  2  1  1  0  0  0
  3  4  1  0  0  0  0
  4  5  1  0  0  0  0
  5  6  1  0  0  0  0
  6  7  1  6  0  0  0
  6 10  1  0  0  0  0
  9 10  2  0  0  0  0
 10  8  1  0  0  0  0
 11 12  1  0  0  0  0
 12 13  1  0  0  0  0
 14 13  1  6  0  0  0
 14 17  1  0  0  0  0
 17 16  2  0  0  0  0
 17 15  1  0  0  0  0
 18 19  2  0  0  0  0
 19 14  1  0  0  0  0
 20 19  1  0  0  0  0
 21 20  1  0  0  0  0
 21 22  1  1  0  0  0
 23 21  1  0  0  0  0
 24 23  2  0  0  0  0
 25 23  1  0  0  0  0
 27 26  1  6  0  0  0
 27 25  1  0  0  0  0
 28 27  1  0  0  0  0
 29 28  2  0  0  0  0
 30 31  1  1  0  0  0
 30  1  1  0  0  0  0
 32 31  1  0  0  0  0
 33 30  1  0  0  0  0
 34 33  1  0  0  0  0
 35 34  1  0  0  0  0
 36 38  2  0  0  0  0
 37 40  2  0  0  0  0
 39 42  1  0  0  0  0
 40 39  1  0  0  0  0
 41 36  1  0  0  0  0
 42 35  1  0  0  0  0
 43 40  1  0  0  0  0
 43 46  1  0  0  0  0
 44 37  1  0  0  0  0
 44 47  1  0  0  0  0
 45 42  2  0  0  0  0
 46 48  1  0  0  0  0
 47 46  2  0  0  0  0
 48 36  1  0  0  0  0
M  END
>  <MODEL>
1

>  <REMARK>
 VINA RESULT:      -7.7      0.000      0.000
  Name = 
  22 active torsions:
  status: ('A' for Active; 'I' for Inactive)
    1  A    between atoms: C_2  and  C_31
    2  A    between atoms: C_2  and  C_32
    3  A    between atoms: C_4  and  C_41
    4  A    between atoms: C_4  and  C_44
    5  A    between atoms: O_6  and  C_19
    6  A    between atoms: O_6  and  C_44
    7  A    between atoms: C_8  and  C_15
    8  A    between atoms: C_8  and  C_19
    9  A    between atoms: C_8  and  C_32
   10  A    between atoms: C_9  and  C_17
   11  A    between atoms: C_9  and  C_30
   12  A    between atoms: C_11  and  C_34
   13  A    between atoms: C_15  and  C_16
   14  A    between atoms: C_15  and  O_18
   15  A    between atoms: C_17  and  N_47
   16  A    between atoms: O_18  and  C_37
   17  A    between atoms: C_21  and  C_38
   18  A    between atoms: C_30  and  C_34
   19  A    between atoms: C_31  and  C_38
   20  A    between atoms: C_35  and  C_40
   21  A    between atoms: C_37  and  C_40
   22  A    between atoms: C_38  and  C_46
                            x       y       z     vdW  Elec       q    Type
                         _______ _______ _______ _____ _____    ______ ____

>  <TORSDO>
F 22

$$$$
=
 OpenBabel10232411343D

 48 48  0  0  1  0  0  0  0  0999 V2000
  189.3030  178.0030  142.5960 C   0  0  2  0  0  3  0  0  0  0  0  0
  190.9430  179.3390  143.9570 C   0  0  0  0  0  1  0  0  0  0  0  0
  190.5040  177.9380  143.5500 C   0  0  1  0  0  3  0  0  0  0  0  0
  190.2180  177.1710  144.6890 O   0  0  0  0  0  0  0  0  0  0  0  0
  191.4660  176.8910  145.2460 C   0  0  0  0  0  2  0  0  0  0  0  0
  191.3770  176.8900  146.7640 C   0  0  1  0  0  3  0  0  0  0  0  0
  189.9600  176.5440  147.1810 C   0  0  0  0  0  1  0  0  0  0  0  0
  192.6100  174.8490  146.7390 O   0  0  0  0  0  0  0  0  0  0  0  0
  192.9760  176.1890  148.5610 O   0  0  0  0  0  1  0  0  0  0  0  0
  192.3390  175.9120  147.3580 C   0  0  0  0  0  0  0  0  0  0  0  0
  188.1670  177.0880  143.0410 C   0  0  0  0  0  2  0  0  0  0  0  0
  187.1950  177.8490  143.9280 C   0  0  0  0  0  2  0  0  0  0  0  0
  185.7660  177.6540  143.4440 C   0  0  0  0  0  2  0  0  0  0  0  0
  185.1100  178.9880  143.0930 C   0  0  2  0  0  3  0  0  0  0  0  0
  184.1320  178.7830  145.4710 C   0  0  0  0  0  1  0  0  0  0  0  0
  183.1530  180.1220  143.8070 O   0  0  0  0  0  0  0  0  0  0  0  0
  184.0610  179.3590  144.0990 C   0  0  0  0  0  0  0  0  0  0  0  0
  185.1590  179.6460  140.7860 O   0  0  0  0  0  0  0  0  0  0  0  0
  184.5690  178.9990  141.6970 C   0  0  0  0  0  0  0  0  0  0  0  0
  183.3490  178.3090  141.4250 N   0  0  0  0  0  2  0  0  0  0  0  0
  182.7130  178.3040  140.1160 C   0  0  2  0  0  3  0  0  0  0  0  0
  181.1980  178.3340  140.2630 C   0  0  0  0  0  1  0  0  0  0  0  0
  183.1370  177.0930  139.3490 C   0  0  0  0  0  0  0  0  0  0  0  0
  182.6590  175.9980  139.6060 O   0  0  0  0  0  0  0  0  0  0  0  0
  184.1980  177.2290  138.2980 C   0  0  0  0  0  2  0  0  0  0  0  0
  182.5470  177.5250  136.5750 O   0  0  0  0  0  1  0  0  0  0  0  0
  183.7220  176.8430  136.8990 C   0  0  1  0  0  3  0  0  0  0  0  0
  184.7710  177.0840  135.8620 C   0  0  0  0  0  3  0  0  0  0  0  0
  185.0030  176.2300  135.0210 O   0  0  0  0  0  0  0  0  0  0  0  0
  189.6710  177.7700  141.1180 C   0  0  1  0  0  3  0  0  0  0  0  0
  190.8650  176.8370  140.9540 C   0  0  0  0  0  2  0  0  0  0  0  0
  191.9900  177.5380  140.5200 O   0  0  0  0  0  1  0  0  0  0  0  0
  188.5830  177.3260  140.3540 O   0  0  0  0  0  0  0  0  0  0  0  0
  188.2200  178.4150  139.5600 C   0  0  0  0  0  2  0  0  0  0  0  0
  187.8490  177.9200  138.1770 C   0  0  0  0  0  2  0  0  0  0  0  0
  195.6440  174.3820  138.5700 C   0  0  0  0  0  0  0  0  0  0  0  0
  190.7190  174.7370  137.0970 N   0  0  0  0  0  0  0  0  0  0  0  0
  196.7270  174.7530  139.0860 O   0  0  0  0  0  0  0  0  0  0  0  0
  190.1400  176.9700  137.6960 N   0  0  0  0  0  2  0  0  0  0  0  0
  191.0940  175.9610  137.3360 C   0  0  0  0  0  0  0  0  0  0  0  0
  195.3890  172.9210  138.4140 C   0  0  0  0  0  1  0  0  0  0  0  0
  188.7220  176.7770  137.7980 C   0  0  0  0  0  0  0  0  0  0  0  0
  192.5470  176.3370  137.2290 C   0  0  0  0  0  2  0  0  0  0  0  0
  191.6790  173.7180  136.6770 C   0  0  0  0  0  2  0  0  0  0  0  0
  188.2010  175.6550  137.5570 O   0  0  0  0  0  0  0  0  0  0  0  0
  193.4070  175.1490  137.5620 C   0  0  0  0  0  0  0  0  0  0  0  0
  192.9740  173.9450  137.3200 N   0  0  0  0  0  0  0  0  0  0  0  0
  194.6910  175.3720  138.1590 N   0  0  0  0  0  2  0  0  0  0  0  0
  1 11  1  1  0  0  0
  1  3  1  0  0  0  0
  3  2  1  1  0  0  0
  3  4  1  0  0  0  0
  4  5  1  0  0  0  0
  5  6  1  0  0  0  0
  6  7  1  6  0  0  0
  6 10  1  0  0  0  0
  8 10  2  0  0  0  0
 10  9  1  0  0  0  0
 11 12  1  0  0  0  0
 13 12  1  0  0  0  0
 14 13  1  1  0  0  0
 14 17  1  0  0  0  0
 16 17  2  0  0  0  0
 17 15  1  0  0  0  0
 18 19  2  0  0  0  0
 19 14  1  0  0  0  0
 20 19  1  0  0  0  0
 21 22  1  1  0  0  0
 21 20  1  0  0  0  0
 23 24  2  0  0  0  0
 23 21  1  0  0  0  0
 25 23  1  0  0  0  0
 27 26  1  6  0  0  0
 27 25  1  0  0  0  0
 28 27  1  0  0  0  0
 29 28  2  0  0  0  0
 30 31  1  1  0  0  0
 30  1  1  0  0  0  0
 32 31  1  0  0  0  0
 33 30  1  0  0  0  0
 34 33  1  0  0  0  0
 35 34  1  0  0  0  0
 36 38  2  0  0  0  0
 37 40  2  0  0  0  0
 39 42  1  0  0  0  0
 40 39  1  0  0  0  0
 41 36  1  0  0  0  0
 42 35  1  0  0  0  0
 43 40  1  0  0  0  0
 43 46  1  0  0  0  0
 44 37  1  0  0  0  0
 44 47  1  0  0  0  0
 45 42  2  0  0  0  0
 46 48  1  0  0  0  0
 47 46  2  0  0  0  0
 48 36  1  0  0  0  0
M  END
>  <MODEL>
2

>  <REMARK>
 VINA RESULT:      -7.1      1.336      2.047
  Name = 
  22 active torsions:
  status: ('A' for Active; 'I' for Inactive)
    1  A    between atoms: C_2  and  C_31
    2  A    between atoms: C_2  and  C_32
    3  A    between atoms: C_4  and  C_41
    4  A    between atoms: C_4  and  C_44
    5  A    between atoms: O_6  and  C_19
    6  A    between atoms: O_6  and  C_44
    7  A    between atoms: C_8  and  C_15
    8  A    between atoms: C_8  and  C_19
    9  A    between atoms: C_8  and  C_32
   10  A    between atoms: C_9  and  C_17
   11  A    between atoms: C_9  and  C_30
   12  A    between atoms: C_11  and  C_34
   13  A    between atoms: C_15  and  C_16
   14  A    between atoms: C_15  and  O_18
   15  A    between atoms: C_17  and  N_47
   16  A    between atoms: O_18  and  C_37
   17  A    between atoms: C_21  and  C_38
   18  A    between atoms: C_30  and  C_34
   19  A    between atoms: C_31  and  C_38
   20  A    between atoms: C_35  and  C_40
   21  A    between atoms: C_37  and  C_40
   22  A    between atoms: C_38  and  C_46
                            x       y       z     vdW  Elec       q    Type
                         _______ _______ _______ _____ _____    ______ ____

>  <TORSDO>
F 22

$$$$
=
 OpenBabel10232411343D

 48 48  0  0  1  0  0  0  0  0999 V2000
  187.5080  177.5780  138.6270 C   0  0  2  0  0  3  0  0  0  0  0  0
  185.6020  177.3290  137.0050 C   0  0  0  0  0  1  0  0  0  0  0  0
  186.3700  178.3000  137.8930 C   0  0  1  0  0  3  0  0  0  0  0  0
  185.4960  178.9300  138.7900 O   0  0  0  0  0  0  0  0  0  0  0  0
  184.2810  178.2640  138.6230 C   0  0  0  0  0  2  0  0  0  0  0  0
  183.1250  179.1670  139.0220 C   0  0  1  0  0  3  0  0  0  0  0  0
  182.0330  179.0740  137.9740 C   0  0  0  0  0  1  0  0  0  0  0  0
  181.4890  179.2690  140.7540 O   0  0  0  0  0  0  0  0  0  0  0  0
  183.2510  177.8590  141.1550 O   0  0  0  0  0  1  0  0  0  0  0  0
  182.5840  178.7850  140.3620 C   0  0  0  0  0  0  0  0  0  0  0  0
  188.2080  178.4840  139.6340 C   0  0  0  0  0  2  0  0  0  0  0  0
  187.8160  178.0980  141.0510 C   0  0  0  0  0  2  0  0  0  0  0  0
  188.8910  177.2250  141.6820 C   0  0  0  0  0  2  0  0  0  0  0  0
  190.1040  178.0520  142.1030 C   0  0  2  0  0  3  0  0  0  0  0  0
  191.8970  177.4250  140.3580 C   0  0  0  0  0  1  0  0  0  0  0  0
  192.0090  176.7280  142.5990 O   0  0  0  0  0  0  0  0  0  0  0  0
  191.3850  177.3530  141.7550 C   0  0  0  0  0  0  0  0  0  0  0  0
  190.7740  179.3670  143.9940 O   0  0  0  0  0  0  0  0  0  0  0  0
  190.0530  178.4300  143.5500 C   0  0  0  0  0  0  0  0  0  0  0  0
  189.2150  177.6790  144.4300 N   0  0  0  0  0  2  0  0  0  0  0  0
  189.1360  177.9310  145.8610 C   0  0  2  0  0  3  0  0  0  0  0  0
  190.1880  177.1180  146.6010 C   0  0  0  0  0  1  0  0  0  0  0  0
  187.7690  177.5910  146.3620 C   0  0  0  0  0  0  0  0  0  0  0  0
  187.5580  177.4830  147.5610 O   0  0  0  0  0  0  0  0  0  0  0  0
  186.6730  177.3280  145.3730 C   0  0  0  0  0  2  0  0  0  0  0  0
  185.7040  178.6100  143.5840 O   0  0  0  0  0  1  0  0  0  0  0  0
  185.9080  178.5850  144.9650 C   0  0  1  0  0  3  0  0  0  0  0  0
  184.6060  178.7100  145.6890 C   0  0  0  0  0  3  0  0  0  0  0  0
  184.5350  178.4130  146.8700 O   0  0  0  0  0  0  0  0  0  0  0  0
  188.5180  176.8920  137.6860 C   0  0  1  0  0  3  0  0  0  0  0  0
  189.7250  177.7730  137.3850 C   0  0  0  0  0  2  0  0  0  0  0  0
  189.3760  178.8240  136.5360 O   0  0  0  0  0  1  0  0  0  0  0  0
  188.9230  175.6330  138.1520 O   0  0  0  0  0  0  0  0  0  0  0  0
  188.6570  174.7490  137.1060 C   0  0  0  0  0  2  0  0  0  0  0  0
  189.7810  173.7370  137.0130 C   0  0  0  0  0  2  0  0  0  0  0  0
  198.3490  173.8440  137.1330 C   0  0  0  0  0  0  0  0  0  0  0  0
  193.6500  175.5870  135.9400 N   0  0  0  0  0  0  0  0  0  0  0  0
  199.2060  173.1210  137.7000 O   0  0  0  0  0  0  0  0  0  0  0  0
  192.2250  174.2890  137.3430 N   0  0  0  0  0  2  0  0  0  0  0  0
  193.4900  174.8870  137.0280 C   0  0  0  0  0  0  0  0  0  0  0  0
  198.7230  174.5380  135.8680 C   0  0  0  0  0  1  0  0  0  0  0  0
  191.0290  174.4090  136.5600 C   0  0  0  0  0  0  0  0  0  0  0  0
  194.6400  174.7030  137.9790 C   0  0  0  0  0  2  0  0  0  0  0  0
  194.9200  176.2440  135.6420 C   0  0  0  0  0  2  0  0  0  0  0  0
  191.0130  175.0890  135.4990 O   0  0  0  0  0  0  0  0  0  0  0  0
  195.9390  174.7320  137.2220 C   0  0  0  0  0  0  0  0  0  0  0  0
  196.0370  175.4340  136.1280 N   0  0  0  0  0  0  0  0  0  0  0  0
  197.0450  173.9670  137.7170 N   0  0  0  0  0  2  0  0  0  0  0  0
  1 11  1  6  0  0  0
  3  2  1  1  0  0  0
  3  1  1  0  0  0  0
  3  4  1  0  0  0  0
  5  4  1  0  0  0  0
  5  6  1  0  0  0  0
  6  7  1  6  0  0  0
  6 10  1  0  0  0  0
 10  8  2  0  0  0  0
 10  9  1  0  0  0  0
 11 12  1  0  0  0  0
 12 13  1  0  0  0  0
 14 13  1  1  0  0  0
 14 19  1  0  0  0  0
 15 17  1  0  0  0  0
 17 14  1  0  0  0  0
 17 16  2  0  0  0  0
 19 18  2  0  0  0  0
 19 20  1  0  0  0  0
 20 21  1  0  0  0  0
 21 23  1  0  0  0  0
 21 22  1  1  0  0  0
 23 24  2  0  0  0  0
 25 23  1  0  0  0  0
 27 26  1  6  0  0  0
 27 25  1  0  0  0  0
 27 28  1  0  0  0  0
 28 29  2  0  0  0  0
 30 31  1  1  0  0  0
 30 33  1  0  0  0  0
 30  1  1  0  0  0  0
 32 31  1  0  0  0  0
 34 33  1  0  0  0  0
 35 34  1  0  0  0  0
 36 38  2  0  0  0  0
 36 48  1  0  0  0  0
 37 40  2  0  0  0  0
 40 39  1  0  0  0  0
 40 43  1  0  0  0  0
 41 36  1  0  0  0  0
 42 35  1  0  0  0  0
 42 39  1  0  0  0  0
 44 37  1  0  0  0  0
 44 47  1  0  0  0  0
 45 42  2  0  0  0  0
 46 48  1  0  0  0  0
 46 43  1  0  0  0  0
 47 46  2  0  0  0  0
M  END
>  <MODEL>
3

>  <REMARK>
 VINA RESULT:      -6.4      2.118      6.605
  Name = 
  22 active torsions:
  status: ('A' for Active; 'I' for Inactive)
    1  A    between atoms: C_2  and  C_31
    2  A    between atoms: C_2  and  C_32
    3  A    between atoms: C_4  and  C_41
    4  A    between atoms: C_4  and  C_44
    5  A    between atoms: O_6  and  C_19
    6  A    between atoms: O_6  and  C_44
    7  A    between atoms: C_8  and  C_15
    8  A    between atoms: C_8  and  C_19
    9  A    between atoms: C_8  and  C_32
   10  A    between atoms: C_9  and  C_17
   11  A    between atoms: C_9  and  C_30
   12  A    between atoms: C_11  and  C_34
   13  A    between atoms: C_15  and  C_16
   14  A    between atoms: C_15  and  O_18
   15  A    between atoms: C_17  and  N_47
   16  A    between atoms: O_18  and  C_37
   17  A    between atoms: C_21  and  C_38
   18  A    between atoms: C_30  and  C_34
   19  A    between atoms: C_31  and  C_38
   20  A    between atoms: C_35  and  C_40
   21  A    between atoms: C_37  and  C_40
   22  A    between atoms: C_38  and  C_46
                            x       y       z     vdW  Elec       q    Type
                         _______ _______ _______ _____ _____    ______ ____

>  <TORSDO>
F 22

$$$$
=
 OpenBabel10232411343D

 48 48  0  0  1  0  0  0  0  0999 V2000
  187.5730  177.6350  138.8200 C   0  0  2  0  0  3  0  0  0  0  0  0
  185.3220  177.2430  137.7690 C   0  0  0  0  0  1  0  0  0  0  0  0
  186.2880  178.2950  138.2990 C   0  0  1  0  0  3  0  0  0  0  0  0
  185.6660  179.0670  139.2900 O   0  0  0  0  0  0  0  0  0  0  0  0
  184.4270  178.4550  139.4850 C   0  0  0  0  0  2  0  0  0  0  0  0
  184.1860  178.2130  140.9670 C   0  0  1  0  0  3  0  0  0  0  0  0
  185.0250  179.1840  141.7740 C   0  0  0  0  0  1  0  0  0  0  0  0
  182.4150  178.9170  142.3990 O   0  0  0  0  0  1  0  0  0  0  0  0
  181.7540  177.9850  140.4130 O   0  0  0  0  0  0  0  0  0  0  0  0
  182.7410  178.3760  141.3090 C   0  0  0  0  0  0  0  0  0  0  0  0
  188.1200  178.3420  140.0560 C   0  0  0  0  0  2  0  0  0  0  0  0
  188.4520  177.3280  141.1380 C   0  0  0  0  0  2  0  0  0  0  0  0
  188.5750  178.0130  142.4910 C   0  0  0  0  0  2  0  0  0  0  0  0
  190.0360  178.1480  142.9160 C   0  0  2  0  0  3  0  0  0  0  0  0
  190.7450  175.6690  142.9840 C   0  0  0  0  0  1  0  0  0  0  0  0
  191.6380  177.2030  141.4440 O   0  0  0  0  0  0  0  0  0  0  0  0
  190.8660  177.0230  142.3740 C   0  0  0  0  0  0  0  0  0  0  0  0
  191.2600  178.6970  144.9060 O   0  0  0  0  0  0  0  0  0  0  0  0
  190.1800  178.2790  144.4000 C   0  0  0  0  0  0  0  0  0  0  0  0
  189.0960  177.8740  145.2370 N   0  0  0  0  0  2  0  0  0  0  0  0
  189.1560  177.9110  146.6900 C   0  0  2  0  0  3  0  0  0  0  0  0
  190.0780  176.8170  147.2100 C   0  0  0  0  0  1  0  0  0  0  0  0
  187.7840  177.7470  147.2610 C   0  0  0  0  0  0  0  0  0  0  0  0
  187.6150  177.7140  148.4710 O   0  0  0  0  0  0  0  0  0  0  0  0
  186.6230  177.5660  146.3280 C   0  0  0  0  0  2  0  0  0  0  0  0
  185.7560  179.6840  147.0680 O   0  0  0  0  0  1  0  0  0  0  0  0
  185.3930  178.3800  146.7240 C   0  0  1  0  0  3  0  0  0  0  0  0
  184.3560  178.3910  145.6480 C   0  0  0  0  0  3  0  0  0  0  0  0
  183.7430  179.4180  145.4030 O   0  0  0  0  0  0  0  0  0  0  0  0
  188.6600  177.4570  137.7430 C   0  0  1  0  0  3  0  0  0  0  0  0
  189.6550  176.3560  138.0950 C   0  0  0  0  0  2  0  0  0  0  0  0
  190.9490  176.8680  138.1930 O   0  0  0  0  0  1  0  0  0  0  0  0
  188.1250  177.2540  136.4630 O   0  0  0  0  0  0  0  0  0  0  0  0
  189.0540  177.8090  135.5820 C   0  0  0  0  0  2  0  0  0  0  0  0
  189.1910  176.9070  134.3720 C   0  0  0  0  0  2  0  0  0  0  0  0
  196.8940  174.6950  137.4060 C   0  0  0  0  0  0  0  0  0  0  0  0
  192.2940  173.8790  135.2350 N   0  0  0  0  0  0  0  0  0  0  0  0
  197.8610  175.3610  137.8550 O   0  0  0  0  0  0  0  0  0  0  0  0
  191.5570  176.0810  134.6960 N   0  0  0  0  0  2  0  0  0  0  0  0
  192.5870  175.1190  134.9600 C   0  0  0  0  0  0  0  0  0  0  0  0
  196.7120  173.2920  137.8760 C   0  0  0  0  0  1  0  0  0  0  0  0
  190.1490  175.8080  134.6670 C   0  0  0  0  0  0  0  0  0  0  0  0
  194.0250  175.5570  134.9090 C   0  0  0  0  0  2  0  0  0  0  0  0
  193.3400  172.8830  135.4510 C   0  0  0  0  0  2  0  0  0  0  0  0
  189.7090  174.6450  134.8730 O   0  0  0  0  0  0  0  0  0  0  0  0
  194.8470  174.7230  135.8520 C   0  0  0  0  0  0  0  0  0  0  0  0
  194.4960  173.4940  136.1060 N   0  0  0  0  0  0  0  0  0  0  0  0
  196.0010  175.3100  136.4680 N   0  0  0  0  0  2  0  0  0  0  0  0
  1 11  1  1  0  0  0
  3  2  1  1  0  0  0
  3  1  1  0  0  0  0
  3  4  1  0  0  0  0
  4  5  1  0  0  0  0
  5  6  1  0  0  0  0
  6 10  1  0  0  0  0
  6  7  1  1  0  0  0
  9 10  2  0  0  0  0
 10  8  1  0  0  0  0
 11 12  1  0  0  0  0
 12 13  1  0  0  0  0
 14 13  1  1  0  0  0
 14 19  1  0  0  0  0
 16 17  2  0  0  0  0
 17 14  1  0  0  0  0
 17 15  1  0  0  0  0
 19 18  2  0  0  0  0
 19 20  1  0  0  0  0
 20 21  1  0  0  0  0
 21 22  1  1  0  0  0
 21 23  1  0  0  0  0
 23 24  2  0  0  0  0
 25 27  1  0  0  0  0
 25 23  1  0  0  0  0
 27 26  1  6  0  0  0
 28 27  1  0  0  0  0
 29 28  2  0  0  0  0
 30 31  1  1  0  0  0
 30  1  1  0  0  0  0
 31 32  1  0  0  0  0
 33 30  1  0  0  0  0
 34 33  1  0  0  0  0
 35 42  1  0  0  0  0
 35 34  1  0  0  0  0
 36 38  2  0  0  0  0
 36 41  1  0  0  0  0
 37 44  1  0  0  0  0
 39 40  1  0  0  0  0
 40 37  2  0  0  0  0
 42 39  1  0  0  0  0
 42 45  2  0  0  0  0
 43 40  1  0  0  0  0
 43 46  1  0  0  0  0
 44 47  1  0  0  0  0
 46 47  2  0  0  0  0
 46 48  1  0  0  0  0
 48 36  1  0  0  0  0
M  END
>  <MODEL>
4

>  <REMARK>
 VINA RESULT:      -6.3      2.047      6.205
  Name = 
  22 active torsions:
  status: ('A' for Active; 'I' for Inactive)
    1  A    between atoms: C_2  and  C_31
    2  A    between atoms: C_2  and  C_32
    3  A    between atoms: C_4  and  C_41
    4  A    between atoms: C_4  and  C_44
    5  A    between atoms: O_6  and  C_19
    6  A    between atoms: O_6  and  C_44
    7  A    between atoms: C_8  and  C_15
    8  A    between atoms: C_8  and  C_19
    9  A    between atoms: C_8  and  C_32
   10  A    between atoms: C_9  and  C_17
   11  A    between atoms: C_9  and  C_30
   12  A    between atoms: C_11  and  C_34
   13  A    between atoms: C_15  and  C_16
   14  A    between atoms: C_15  and  O_18
   15  A    between atoms: C_17  and  N_47
   16  A    between atoms: O_18  and  C_37
   17  A    between atoms: C_21  and  C_38
   18  A    between atoms: C_30  and  C_34
   19  A    between atoms: C_31  and  C_38
   20  A    between atoms: C_35  and  C_40
   21  A    between atoms: C_37  and  C_40
   22  A    between atoms: C_38  and  C_46
                            x       y       z     vdW  Elec       q    Type
                         _______ _______ _______ _____ _____    ______ ____

>  <TORSDO>
F 22

$$$$
=
 OpenBabel10232411343D

 48 48  0  0  1  0  0  0  0  0999 V2000
  189.3380  177.9100  142.0000 C   0  0  2  0  0  3  0  0  0  0  0  0
  190.2690  175.7040  142.7690 C   0  0  0  0  0  1  0  0  0  0  0  0
  189.8190  177.0920  143.2060 C   0  0  1  0  0  3  0  0  0  0  0  0
  190.8550  177.7430  143.8900 O   0  0  0  0  0  0  0  0  0  0  0  0
  190.2470  178.2710  145.0300 C   0  0  0  0  0  2  0  0  0  0  0  0
  189.9310  177.1610  146.0210 C   0  0  1  0  0  3  0  0  0  0  0  0
  191.2150  176.7080  146.6880 C   0  0  0  0  0  1  0  0  0  0  0  0
  187.7200  177.6000  146.7980 O   0  0  0  0  0  0  0  0  0  0  0  0
  189.3900  178.0340  148.3060 O   0  0  0  0  0  1  0  0  0  0  0  0
  188.9530  177.6250  147.0520 C   0  0  0  0  0  0  0  0  0  0  0  0
  187.8410  178.1990  142.0630 C   0  0  0  0  0  2  0  0  0  0  0  0
  187.2300  177.5420  143.2890 C   0  0  0  0  0  2  0  0  0  0  0  0
  185.7100  177.5470  143.1950 C   0  0  0  0  0  2  0  0  0  0  0  0
  185.1740  178.9520  142.9290 C   0  0  2  0  0  3  0  0  0  0  0  0
  184.4880  178.7870  145.4090 C   0  0  0  0  0  1  0  0  0  0  0  0
  183.5700  180.3760  143.9410 O   0  0  0  0  0  0  0  0  0  0  0  0
  184.3500  179.4460  144.0800 C   0  0  0  0  0  0  0  0  0  0  0  0
  184.9460  179.5810  140.6240 O   0  0  0  0  0  0  0  0  0  0  0  0
  184.4240  179.0320  141.6350 C   0  0  0  0  0  0  0  0  0  0  0  0
  183.0910  178.5230  141.5780 N   0  0  0  0  0  2  0  0  0  0  0  0
  182.2600  178.6020  140.3860 C   0  0  2  0  0  3  0  0  0  0  0  0
  180.9440  179.2990  140.7020 C   0  0  0  0  0  1  0  0  0  0  0  0
  182.0050  177.2290  139.8520 C   0  0  0  0  0  0  0  0  0  0  0  0
  180.9480  176.6610  140.0820 O   0  0  0  0  0  0  0  0  0  0  0  0
  183.0860  176.5340  139.0780 C   0  0  0  0  0  2  0  0  0  0  0  0
  184.9480  176.8890  137.5980 O   0  0  0  0  0  1  0  0  0  0  0  0
  183.7130  177.4080  137.9930 C   0  0  1  0  0  3  0  0  0  0  0  0
  182.8120  177.5720  136.8120 C   0  0  0  0  0  3  0  0  0  0  0  0
  183.1630  177.1650  135.7170 O   0  0  0  0  0  0  0  0  0  0  0  0
  189.7400  177.3070  140.6400 C   0  0  1  0  0  3  0  0  0  0  0  0
  188.7030  177.5710  139.5550 C   0  0  0  0  0  2  0  0  0  0  0  0
  188.8230  178.8680  139.0550 O   0  0  0  0  0  1  0  0  0  0  0  0
  191.0140  177.7170  140.2220 O   0  0  0  0  0  0  0  0  0  0  0  0
  191.4540  176.7240  139.3460 C   0  0  0  0  0  2  0  0  0  0  0  0
  192.8940  177.0000  138.9650 C   0  0  0  0  0  2  0  0  0  0  0  0
  197.3380  169.9160  137.0940 C   0  0  0  0  0  0  0  0  0  0  0  0
  194.4600  174.0620  136.0580 N   0  0  0  0  0  0  0  0  0  0  0  0
  198.0410  169.1390  137.7870 O   0  0  0  0  0  0  0  0  0  0  0  0
  194.5450  175.2960  138.0950 N   0  0  0  0  0  2  0  0  0  0  0  0
  195.0840  174.3460  137.1660 C   0  0  0  0  0  0  0  0  0  0  0  0
  196.6740  169.3820  135.8710 C   0  0  0  0  0  1  0  0  0  0  0  0
  193.3310  176.0410  137.9160 C   0  0  0  0  0  0  0  0  0  0  0  0
  196.3950  173.6810  137.4820 C   0  0  0  0  0  2  0  0  0  0  0  0
  195.0310  173.1370  135.0820 C   0  0  0  0  0  2  0  0  0  0  0  0
  192.6350  175.9060  136.8740 O   0  0  0  0  0  0  0  0  0  0  0  0
  196.4350  172.3110  136.8610 C   0  0  0  0  0  0  0  0  0  0  0  0
  195.7760  172.0770  135.7630 N   0  0  0  0  0  0  0  0  0  0  0  0
  197.1930  171.2820  137.5090 N   0  0  0  0  0  2  0  0  0  0  0  0
  1 11  1  6  0  0  0
  1  3  1  0  0  0  0
  3  2  1  6  0  0  0
  3  4  1  0  0  0  0
  4  5  1  0  0  0  0
  5  6  1  0  0  0  0
  6  7  1  1  0  0  0
  6 10  1  0  0  0  0
  8 10  2  0  0  0  0
 10  9  1  0  0  0  0
 11 12  1  0  0  0  0
 13 12  1  0  0  0  0
 14 13  1  1  0  0  0
 14 17  1  0  0  0  0
 16 17  2  0  0  0  0
 17 15  1  0  0  0  0
 18 19  2  0  0  0  0
 19 14  1  0  0  0  0
 20 19  1  0  0  0  0
 21 22  1  1  0  0  0
 21 20  1  0  0  0  0
 23 24  2  0  0  0  0
 23 21  1  0  0  0  0
 25 23  1  0  0  0  0
 27 26  1  6  0  0  0
 27 25  1  0  0  0  0
 28 27  1  0  0  0  0
 29 28  2  0  0  0  0
 30 31  1  6  0  0  0
 30  1  1  0  0  0  0
 32 31  1  0  0  0  0
 33 30  1  0  0  0  0
 34 33  1  0  0  0  0
 35 34  1  0  0  0  0
 36 48  1  0  0  0  0
 36 38  2  0  0  0  0
 37 40  2  0  0  0  0
 40 43  1  0  0  0  0
 40 39  1  0  0  0  0
 41 36  1  0  0  0  0
 42 39  1  0  0  0  0
 42 35  1  0  0  0  0
 44 47  1  0  0  0  0
 44 37  1  0  0  0  0
 45 42  2  0  0  0  0
 46 43  1  0  0  0  0
 46 48  1  0  0  0  0
 47 46  2  0  0  0  0
M  END
>  <MODEL>
5

>  <REMARK>
 VINA RESULT:      -6.2      2.267      3.347
  Name = 
  22 active torsions:
  status: ('A' for Active; 'I' for Inactive)
    1  A    between atoms: C_2  and  C_31
    2  A    between atoms: C_2  and  C_32
    3  A    between atoms: C_4  and  C_41
    4  A    between atoms: C_4  and  C_44
    5  A    between atoms: O_6  and  C_19
    6  A    between atoms: O_6  and  C_44
    7  A    between atoms: C_8  and  C_15
    8  A    between atoms: C_8  and  C_19
    9  A    between atoms: C_8  and  C_32
   10  A    between atoms: C_9  and  C_17
   11  A    between atoms: C_9  and  C_30
   12  A    between atoms: C_11  and  C_34
   13  A    between atoms: C_15  and  C_16
   14  A    between atoms: C_15  and  O_18
   15  A    between atoms: C_17  and  N_47
   16  A    between atoms: O_18  and  C_37
   17  A    between atoms: C_21  and  C_38
   18  A    between atoms: C_30  and  C_34
   19  A    between atoms: C_31  and  C_38
   20  A    between atoms: C_35  and  C_40
   21  A    between atoms: C_37  and  C_40
   22  A    between atoms: C_38  and  C_46
                            x       y       z     vdW  Elec       q    Type
                         _______ _______ _______ _____ _____    ______ ____

>  <TORSDO>
F 22

$$$$
=
 OpenBabel10232411343D

 48 48  0  0  1  0  0  0  0  0999 V2000
  189.4680  177.7740  142.3700 C   0  0  2  0  0  3  0  0  0  0  0  0
  191.3440  178.7220  143.7510 C   0  0  0  0  0  1  0  0  0  0  0  0
  190.6460  177.4460  143.2980 C   0  0  1  0  0  3  0  0  0  0  0  0
  190.2330  176.6990  144.4100 O   0  0  0  0  0  0  0  0  0  0  0  0
  190.2590  177.6050  145.4710 C   0  0  0  0  0  2  0  0  0  0  0  0
  189.9710  176.8900  146.7820 C   0  0  1  0  0  3  0  0  0  0  0  0
  191.2620  176.7350  147.5600 C   0  0  0  0  0  1  0  0  0  0  0  0
  189.3470  178.2900  148.6090 O   0  0  0  0  0  1  0  0  0  0  0  0
  187.6340  177.6850  147.2120 O   0  0  0  0  0  0  0  0  0  0  0  0
  188.9700  177.6450  147.5950 C   0  0  0  0  0  0  0  0  0  0  0  0
  188.2140  176.9870  142.7340 C   0  0  0  0  0  2  0  0  0  0  0  0
  187.2300  177.8770  143.4750 C   0  0  0  0  0  2  0  0  0  0  0  0
  185.8130  177.6400  142.9730 C   0  0  0  0  0  2  0  0  0  0  0  0
  185.0790  178.9580  142.7320 C   0  0  2  0  0  3  0  0  0  0  0  0
  184.5250  178.6830  145.2350 C   0  0  0  0  0  1  0  0  0  0  0  0
  183.4170  180.2260  143.8520 O   0  0  0  0  0  0  0  0  0  0  0  0
  184.2740  179.3590  143.9310 C   0  0  0  0  0  0  0  0  0  0  0  0
  183.1560  178.2740  141.4690 O   0  0  0  0  0  0  0  0  0  0  0  0
  184.2440  178.9170  141.4900 C   0  0  0  0  0  0  0  0  0  0  0  0
  184.7220  179.5730  140.3160 N   0  0  0  0  0  2  0  0  0  0  0  0
  184.0130  179.5470  139.0450 C   0  0  2  0  0  3  0  0  0  0  0  0
  182.5120  179.6460  139.2750 C   0  0  0  0  0  1  0  0  0  0  0  0
  184.3430  178.2900  138.3050 C   0  0  0  0  0  0  0  0  0  0  0  0
  185.4540  177.7900  138.3970 O   0  0  0  0  0  0  0  0  0  0  0  0
  183.3100  177.6830  137.4020 C   0  0  0  0  0  2  0  0  0  0  0  0
  184.2190  175.4690  137.1660 O   0  0  0  0  0  1  0  0  0  0  0  0
  183.1120  176.1850  137.6270 C   0  0  1  0  0  3  0  0  0  0  0  0
  182.8390  175.8630  139.0610 C   0  0  0  0  0  3  0  0  0  0  0  0
  181.6980  175.9120  139.4900 O   0  0  0  0  0  0  0  0  0  0  0  0
  189.8030  177.6440  140.8710 C   0  0  1  0  0  3  0  0  0  0  0  0
  191.0110  176.7500  140.6190 C   0  0  0  0  0  2  0  0  0  0  0  0
  192.1320  177.5100  140.2820 O   0  0  0  0  0  1  0  0  0  0  0  0
  188.7050  177.2270  140.1060 O   0  0  0  0  0  0  0  0  0  0  0  0
  189.0490  177.5030  138.7830 C   0  0  0  0  0  2  0  0  0  0  0  0
  188.4450  176.4460  137.8810 C   0  0  0  0  0  2  0  0  0  0  0  0
  196.7230  174.2830  137.4070 C   0  0  0  0  0  0  0  0  0  0  0  0
  191.8650  174.6530  135.7310 N   0  0  0  0  0  0  0  0  0  0  0  0
  197.7060  174.4910  138.1600 O   0  0  0  0  0  0  0  0  0  0  0  0
  190.8830  176.1860  137.2690 N   0  0  0  0  0  2  0  0  0  0  0  0
  192.0110  175.6320  136.5780 C   0  0  0  0  0  0  0  0  0  0  0  0
  196.7350  173.0770  136.5310 C   0  0  0  0  0  1  0  0  0  0  0  0
  189.5180  175.7770  137.0990 C   0  0  0  0  0  0  0  0  0  0  0  0
  193.3770  176.2040  136.8370 C   0  0  0  0  0  2  0  0  0  0  0  0
  193.0020  174.1220  134.9830 C   0  0  0  0  0  2  0  0  0  0  0  0
  189.2100  174.8670  136.2830 O   0  0  0  0  0  0  0  0  0  0  0  0
  194.4220  175.1390  136.6480 C   0  0  0  0  0  0  0  0  0  0  0  0
  194.2150  174.1710  135.8010 N   0  0  0  0  0  0  0  0  0  0  0  0
  195.6260  175.2060  137.4230 N   0  0  0  0  0  2  0  0  0  0  0  0
  1 11  1  1  0  0  0
  1  3  1  0  0  0  0
  3  2  1  1  0  0  0
  3  4  1  0  0  0  0
  4  5  1  0  0  0  0
  5  6  1  0  0  0  0
  6  7  1  1  0  0  0
  6 10  1  0  0  0  0
  9 10  2  0  0  0  0
 10  8  1  0  0  0  0
 11 12  1  0  0  0  0
 13 12  1  0  0  0  0
 14 13  1  1  0  0  0
 14 17  1  0  0  0  0
 16 17  2  0  0  0  0
 17 15  1  0  0  0  0
 18 19  2  0  0  0  0
 19 14  1  0  0  0  0
 20 19  1  0  0  0  0
 21 22  1  1  0  0  0
 21 20  1  0  0  0  0
 23 24  2  0  0  0  0
 23 21  1  0  0  0  0
 25 27  1  0  0  0  0
 25 23  1  0  0  0  0
 27 26  1  1  0  0  0
 27 28  1  0  0  0  0
 28 29  2  0  0  0  0
 30 31  1  1  0  0  0
 30  1  1  0  0  0  0
 32 31  1  0  0  0  0
 33 30  1  0  0  0  0
 34 33  1  0  0  0  0
 35 34  1  0  0  0  0
 36 48  1  0  0  0  0
 36 38  2  0  0  0  0
 37 40  2  0  0  0  0
 40 43  1  0  0  0  0
 40 39  1  0  0  0  0
 41 36  1  0  0  0  0
 42 39  1  0  0  0  0
 42 35  1  0  0  0  0
 44 37  1  0  0  0  0
 44 47  1  0  0  0  0
 45 42  2  0  0  0  0
 46 43  1  0  0  0  0
 46 48  1  0  0  0  0
 47 46  2  0  0  0  0
M  END
>  <MODEL>
6

>  <REMARK>
 VINA RESULT:      -6.1      1.659      2.681
  Name = 
  22 active torsions:
  status: ('A' for Active; 'I' for Inactive)
    1  A    between atoms: C_2  and  C_31
    2  A    between atoms: C_2  and  C_32
    3  A    between atoms: C_4  and  C_41
    4  A    between atoms: C_4  and  C_44
    5  A    between atoms: O_6  and  C_19
    6  A    between atoms: O_6  and  C_44
    7  A    between atoms: C_8  and  C_15
    8  A    between atoms: C_8  and  C_19
    9  A    between atoms: C_8  and  C_32
   10  A    between atoms: C_9  and  C_17
   11  A    between atoms: C_9  and  C_30
   12  A    between atoms: C_11  and  C_34
   13  A    between atoms: C_15  and  C_16
   14  A    between atoms: C_15  and  O_18
   15  A    between atoms: C_17  and  N_47
   16  A    between atoms: O_18  and  C_37
   17  A    between atoms: C_21  and  C_38
   18  A    between atoms: C_30  and  C_34
   19  A    between atoms: C_31  and  C_38
   20  A    between atoms: C_35  and  C_40
   21  A    between atoms: C_37  and  C_40
   22  A    between atoms: C_38  and  C_46
                            x       y       z     vdW  Elec       q    Type
                         _______ _______ _______ _____ _____    ______ ____

>  <TORSDO>
F 22

$$$$
=
 OpenBabel10232411343D

 48 48  0  0  1  0  0  0  0  0999 V2000
  183.3440  177.2260  138.7210 C   0  0  2  0  0  3  0  0  0  0  0  0
  183.0480  176.7390  136.2720 C   0  0  0  0  0  1  0  0  0  0  0  0
  182.5050  176.4820  137.6720 C   0  0  1  0  0  3  0  0  0  0  0  0
  182.4620  175.1050  137.9290 O   0  0  0  0  0  0  0  0  0  0  0  0
  183.8000  174.7080  137.9430 C   0  0  0  0  0  2  0  0  0  0  0  0
  183.9320  173.2790  137.4400 C   0  0  1  0  0  3  0  0  0  0  0  0
  182.9210  173.0450  136.3330 C   0  0  0  0  0  1  0  0  0  0  0  0
  186.2430  172.7840  137.7560 O   0  0  0  0  0  1  0  0  0  0  0  0
  185.5710  172.9630  135.5720 O   0  0  0  0  0  0  0  0  0  0  0  0
  185.3140  173.0130  136.9370 C   0  0  0  0  0  0  0  0  0  0  0  0
  182.5290  177.5790  139.9620 C   0  0  0  0  0  2  0  0  0  0  0  0
  183.3230  177.2690  141.2190 C   0  0  0  0  0  2  0  0  0  0  0  0
  183.9650  178.5350  141.7700 C   0  0  0  0  0  2  0  0  0  0  0  0
  184.8230  178.2350  142.9980 C   0  0  2  0  0  3  0  0  0  0  0  0
  184.0330  178.5600  145.4310 C   0  0  0  0  0  1  0  0  0  0  0  0
  184.5600  180.3600  144.0170 O   0  0  0  0  0  0  0  0  0  0  0  0
  184.4800  179.1470  144.1370 C   0  0  0  0  0  0  0  0  0  0  0  0
  186.7450  179.0980  141.8510 O   0  0  0  0  0  0  0  0  0  0  0  0
  186.2860  178.2650  142.6830 C   0  0  0  0  0  0  0  0  0  0  0  0
  187.1440  177.3040  143.2980 N   0  0  0  0  0  2  0  0  0  0  0  0
  188.5700  177.2160  143.0170 C   0  0  2  0  0  3  0  0  0  0  0  0
  189.0130  175.7600  142.9840 C   0  0  0  0  0  1  0  0  0  0  0  0
  189.3400  177.9700  144.0520 C   0  0  0  0  0  0  0  0  0  0  0  0
  189.8490  179.0480  143.7840 O   0  0  0  0  0  0  0  0  0  0  0  0
  189.5300  177.3590  145.4090 C   0  0  0  0  0  2  0  0  0  0  0  0
  187.3680  177.8950  146.3150 O   0  0  0  0  0  1  0  0  0  0  0  0
  188.7400  178.0650  146.5090 C   0  0  1  0  0  3  0  0  0  0  0  0
  189.1380  177.6000  147.8730 C   0  0  0  0  0  3  0  0  0  0  0  0
  188.3910  177.7840  148.8210 O   0  0  0  0  0  0  0  0  0  0  0  0
  184.0880  178.4550  138.1640 C   0  0  1  0  0  3  0  0  0  0  0  0
  183.3230  179.7530  138.3930 C   0  0  0  0  0  2  0  0  0  0  0  0
  184.1120  180.6840  139.0690 O   0  0  0  0  0  1  0  0  0  0  0  0
  185.4000  178.5580  138.6480 O   0  0  0  0  0  0  0  0  0  0  0  0
  186.2040  177.9920  137.6580 C   0  0  0  0  0  2  0  0  0  0  0  0
  187.6580  178.2750  137.9780 C   0  0  0  0  0  2  0  0  0  0  0  0
  195.3800  174.5820  138.3800 C   0  0  0  0  0  0  0  0  0  0  0  0
  190.3760  174.8790  137.1930 N   0  0  0  0  0  0  0  0  0  0  0  0
  196.5050  174.9890  138.7650 O   0  0  0  0  0  0  0  0  0  0  0  0
  189.8900  177.1930  137.4940 N   0  0  0  0  0  2  0  0  0  0  0  0
  190.7940  176.1130  137.2250 C   0  0  0  0  0  0  0  0  0  0  0  0
  195.0830  173.1230  138.4560 C   0  0  0  0  0  1  0  0  0  0  0  0
  188.4780  177.0630  137.7150 C   0  0  0  0  0  0  0  0  0  0  0  0
  192.2430  176.4220  136.9710 C   0  0  0  0  0  2  0  0  0  0  0  0
  191.2810  173.7800  136.8650 C   0  0  0  0  0  2  0  0  0  0  0  0
  187.9160  175.9350  137.6740 O   0  0  0  0  0  0  0  0  0  0  0  0
  193.0980  175.2680  137.4170 C   0  0  0  0  0  0  0  0  0  0  0  0
  192.6220  174.0550  137.3820 N   0  0  0  0  0  0  0  0  0  0  0  0
  194.4240  175.5330  137.8910 N   0  0  0  0  0  2  0  0  0  0  0  0
  1 11  1  1  0  0  0
  3  2  1  6  0  0  0
  3  4  1  0  0  0  0
  3  1  1  0  0  0  0
  4  5  1  0  0  0  0
  6  7  1  6  0  0  0
  6  5  1  0  0  0  0
  9 10  2  0  0  0  0
 10  6  1  0  0  0  0
 10  8  1  0  0  0  0
 11 12  1  0  0  0  0
 12 13  1  0  0  0  0
 14 13  1  6  0  0  0
 14 17  1  0  0  0  0
 16 17  2  0  0  0  0
 17 15  1  0  0  0  0
 18 19  2  0  0  0  0
 19 14  1  0  0  0  0
 19 20  1  0  0  0  0
 21 22  1  1  0  0  0
 21 20  1  0  0  0  0
 21 23  1  0  0  0  0
 23 25  1  0  0  0  0
 24 23  2  0  0  0  0
 25 27  1  0  0  0  0
 27 26  1  6  0  0  0
 27 28  1  0  0  0  0
 28 29  2  0  0  0  0
 30 31  1  1  0  0  0
 30 33  1  0  0  0  0
 30  1  1  0  0  0  0
 31 32  1  0  0  0  0
 34 35  1  0  0  0  0
 34 33  1  0  0  0  0
 36 41  1  0  0  0  0
 36 38  2  0  0  0  0
 37 40  2  0  0  0  0
 39 42  1  0  0  0  0
 40 39  1  0  0  0  0
 42 35  1  0  0  0  0
 43 40  1  0  0  0  0
 43 46  1  0  0  0  0
 44 37  1  0  0  0  0
 44 47  1  0  0  0  0
 45 42  2  0  0  0  0
 46 48  1  0  0  0  0
 47 46  2  0  0  0  0
 48 36  1  0  0  0  0
M  END
>  <MODEL>
7

>  <REMARK>
 VINA RESULT:      -6.0      2.397      6.950
  Name = 
  22 active torsions:
  status: ('A' for Active; 'I' for Inactive)
    1  A    between atoms: C_2  and  C_31
    2  A    between atoms: C_2  and  C_32
    3  A    between atoms: C_4  and  C_41
    4  A    between atoms: C_4  and  C_44
    5  A    between atoms: O_6  and  C_19
    6  A    between atoms: O_6  and  C_44
    7  A    between atoms: C_8  and  C_15
    8  A    between atoms: C_8  and  C_19
    9  A    between atoms: C_8  and  C_32
   10  A    between atoms: C_9  and  C_17
   11  A    between atoms: C_9  and  C_30
   12  A    between atoms: C_11  and  C_34
   13  A    between atoms: C_15  and  C_16
   14  A    between atoms: C_15  and  O_18
   15  A    between atoms: C_17  and  N_47
   16  A    between atoms: O_18  and  C_37
   17  A    between atoms: C_21  and  C_38
   18  A    between atoms: C_30  and  C_34
   19  A    between atoms: C_31  and  C_38
   20  A    between atoms: C_35  and  C_40
   21  A    between atoms: C_37  and  C_40
   22  A    between atoms: C_38  and  C_46
                            x       y       z     vdW  Elec       q    Type
                         _______ _______ _______ _____ _____    ______ ____

>  <TORSDO>
F 22

$$$$
=
 OpenBabel10232411343D

 48 48  0  0  1  0  0  0  0  0999 V2000
  185.2380  177.9880  139.0640 C   0  0  2  0  0  3  0  0  0  0  0  0
  183.2370  176.5490  138.5640 C   0  0  0  0  0  1  0  0  0  0  0  0
  183.9840  177.8250  138.1940 C   0  0  1  0  0  3  0  0  0  0  0  0
  183.1320  178.9330  138.3030 O   0  0  0  0  0  0  0  0  0  0  0  0
  181.8510  178.4120  138.1140 C   0  0  0  0  0  2  0  0  0  0  0  0
  180.8320  179.2180  138.9030 C   0  0  1  0  0  3  0  0  0  0  0  0
  181.2930  179.3330  140.3430 C   0  0  0  0  0  1  0  0  0  0  0  0
  180.1410  181.4980  139.0060 O   0  0  0  0  0  1  0  0  0  0  0  0
  181.0910  180.8530  137.0230 O   0  0  0  0  0  0  0  0  0  0  0  0
  180.6520  180.5790  138.3130 C   0  0  0  0  0  0  0  0  0  0  0  0
  185.0040  178.9350  140.2360 C   0  0  0  0  0  2  0  0  0  0  0  0
  184.8310  178.1470  141.5230 C   0  0  0  0  0  2  0  0  0  0  0  0
  185.7600  178.6800  142.6050 C   0  0  0  0  0  2  0  0  0  0  0  0
  186.1920  177.5720  143.5630 C   0  0  2  0  0  3  0  0  0  0  0  0
  185.1730  179.1660  145.3150 C   0  0  0  0  0  1  0  0  0  0  0  0
  186.6250  177.4110  145.8900 O   0  0  0  0  0  0  0  0  0  0  0  0
  186.0430  178.0010  144.9920 C   0  0  0  0  0  0  0  0  0  0  0  0
  187.8580  175.8560  143.3620 O   0  0  0  0  0  0  0  0  0  0  0  0
  187.5770  177.0850  143.2710 C   0  0  0  0  0  0  0  0  0  0  0  0
  188.5880  178.0380  142.9400 N   0  0  0  0  0  2  0  0  0  0  0  0
  189.9750  177.6730  142.6920 C   0  0  2  0  0  3  0  0  0  0  0  0
  190.0990  176.1690  142.4920 C   0  0  0  0  0  1  0  0  0  0  0  0
  190.8290  178.1160  143.8360 C   0  0  0  0  0  0  0  0  0  0  0  0
  192.0040  178.4000  143.6580 O   0  0  0  0  0  0  0  0  0  0  0  0
  190.2400  178.1540  145.2150 C   0  0  0  0  0  2  0  0  0  0  0  0
  191.9610  176.9040  146.3360 O   0  0  0  0  0  1  0  0  0  0  0  0
  190.5930  176.9320  146.0600 C   0  0  1  0  0  3  0  0  0  0  0  0
  189.8010  176.8770  147.3270 C   0  0  0  0  0  3  0  0  0  0  0  0
  189.3570  177.9050  147.8130 O   0  0  0  0  0  0  0  0  0  0  0  0
  186.5000  178.3740  138.2680 C   0  0  1  0  0  3  0  0  0  0  0  0
  187.7730  177.8020  138.8800 C   0  0  0  0  0  2  0  0  0  0  0  0
  188.4850  178.7890  139.5620 O   0  0  0  0  0  1  0  0  0  0  0  0
  186.4060  178.0400  136.9100 O   0  0  0  0  0  0  0  0  0  0  0  0
  187.5990  177.3850  136.6060 C   0  0  0  0  0  2  0  0  0  0  0  0
  187.2830  176.0420  135.9780 C   0  0  0  0  0  2  0  0  0  0  0  0
  195.2610  174.6510  138.7810 C   0  0  0  0  0  0  0  0  0  0  0  0
  191.1520  173.9160  135.7600 N   0  0  0  0  0  0  0  0  0  0  0  0
  195.9730  175.2140  139.6490 O   0  0  0  0  0  0  0  0  0  0  0  0
  189.7850  175.8070  136.2460 N   0  0  0  0  0  2  0  0  0  0  0  0
  191.0560  175.1470  136.1750 C   0  0  0  0  0  0  0  0  0  0  0  0
  195.5100  173.2140  138.4720 C   0  0  0  0  0  1  0  0  0  0  0  0
  188.5280  175.2370  135.8560 C   0  0  0  0  0  0  0  0  0  0  0  0
  192.2920  175.9020  136.5820 C   0  0  0  0  0  2  0  0  0  0  0  0
  192.4500  173.2580  135.6340 C   0  0  0  0  0  2  0  0  0  0  0  0
  188.4610  174.0660  135.3940 O   0  0  0  0  0  0  0  0  0  0  0  0
  193.3200  174.9460  137.1220 C   0  0  0  0  0  0  0  0  0  0  0  0
  193.3580  173.7190  136.6850 N   0  0  0  0  0  0  0  0  0  0  0  0
  194.2320  175.4070  138.1260 N   0  0  0  0  0  2  0  0  0  0  0  0
  1 11  1  1  0  0  0
  3  4  1  0  0  0  0
  3  2  1  1  0  0  0
  3  1  1  0  0  0  0
  5  4  1  0  0  0  0
  5  6  1  0  0  0  0
  6  7  1  1  0  0  0
  9 10  2  0  0  0  0
 10  6  1  0  0  0  0
 10  8  1  0  0  0  0
 11 12  1  0  0  0  0
 12 13  1  0  0  0  0
 14 13  1  6  0  0  0
 14 17  1  0  0  0  0
 17 15  1  0  0  0  0
 17 16  2  0  0  0  0
 19 18  2  0  0  0  0
 19 14  1  0  0  0  0
 20 19  1  0  0  0  0
 21 22  1  1  0  0  0
 21 20  1  0  0  0  0
 21 23  1  0  0  0  0
 23 25  1  0  0  0  0
 24 23  2  0  0  0  0
 25 27  1  0  0  0  0
 27 26  1  1  0  0  0
 27 28  1  0  0  0  0
 28 29  2  0  0  0  0
 30 31  1  1  0  0  0
 30  1  1  0  0  0  0
 31 32  1  0  0  0  0
 33 30  1  0  0  0  0
 34 33  1  0  0  0  0
 35 34  1  0  0  0  0
 36 38  2  0  0  0  0
 37 40  2  0  0  0  0
 40 39  1  0  0  0  0
 40 43  1  0  0  0  0
 41 36  1  0  0  0  0
 42 35  1  0  0  0  0
 42 39  1  0  0  0  0
 43 46  1  0  0  0  0
 44 37  1  0  0  0  0
 44 47  1  0  0  0  0
 45 42  2  0  0  0  0
 46 48  1  0  0  0  0
 47 46  2  0  0  0  0
 48 36  1  0  0  0  0
M  END
>  <MODEL>
8

>  <REMARK>
 VINA RESULT:      -5.8      2.030      7.233
  Name = 
  22 active torsions:
  status: ('A' for Active; 'I' for Inactive)
    1  A    between atoms: C_2  and  C_31
    2  A    between atoms: C_2  and  C_32
    3  A    between atoms: C_4  and  C_41
    4  A    between atoms: C_4  and  C_44
    5  A    between atoms: O_6  and  C_19
    6  A    between atoms: O_6  and  C_44
    7  A    between atoms: C_8  and  C_15
    8  A    between atoms: C_8  and  C_19
    9  A    between atoms: C_8  and  C_32
   10  A    between atoms: C_9  and  C_17
   11  A    between atoms: C_9  and  C_30
   12  A    between atoms: C_11  and  C_34
   13  A    between atoms: C_15  and  C_16
   14  A    between atoms: C_15  and  O_18
   15  A    between atoms: C_17  and  N_47
   16  A    between atoms: O_18  and  C_37
   17  A    between atoms: C_21  and  C_38
   18  A    between atoms: C_30  and  C_34
   19  A    between atoms: C_31  and  C_38
   20  A    between atoms: C_35  and  C_40
   21  A    between atoms: C_37  and  C_40
   22  A    between atoms: C_38  and  C_46
                            x       y       z     vdW  Elec       q    Type
                         _______ _______ _______ _____ _____    ______ ____

>  <TORSDO>
F 22

$$$$
=
 OpenBabel10232411343D

 48 48  0  0  1  0  0  0  0  0999 V2000
  188.0480  177.2360  143.0360 C   0  0  2  0  0  3  0  0  0  0  0  0
  190.1490  175.8600  143.1720 C   0  0  0  0  0  1  0  0  0  0  0  0
  189.0660  176.5720  143.9740 C   0  0  1  0  0  3  0  0  0  0  0  0
  189.6450  177.5020  144.8480 O   0  0  0  0  0  0  0  0  0  0  0  0
  190.9400  177.0260  145.0600 C   0  0  0  0  0  2  0  0  0  0  0  0
  191.2580  177.0080  146.5470 C   0  0  1  0  0  3  0  0  0  0  0  0
  189.9640  177.0680  147.3350 C   0  0  0  0  0  1  0  0  0  0  0  0
  192.3930  174.9790  146.0170 O   0  0  0  0  0  0  0  0  0  0  0  0
  192.3870  175.5440  148.2380 O   0  0  0  0  0  1  0  0  0  0  0  0
  192.0270  175.7810  146.9170 C   0  0  0  0  0  0  0  0  0  0  0  0
  188.6300  178.4550  142.3270 C   0  0  0  0  0  2  0  0  0  0  0  0
  188.3770  178.3650  140.8320 C   0  0  0  0  0  2  0  0  0  0  0  0
  189.2580  177.2950  140.2040 C   0  0  0  0  0  2  0  0  0  0  0  0
  189.6890  177.6860  138.7920 C   0  0  2  0  0  3  0  0  0  0  0  0
  187.2670  177.7690  137.9120 C   0  0  0  0  0  1  0  0  0  0  0  0
  188.7840  179.5400  137.6210 O   0  0  0  0  0  0  0  0  0  0  0  0
  188.5970  178.4200  138.0740 C   0  0  0  0  0  0  0  0  0  0  0  0
  190.4650  175.4240  138.5870 O   0  0  0  0  0  0  0  0  0  0  0  0
  190.1750  176.5080  138.0060 C   0  0  0  0  0  0  0  0  0  0  0  0
  190.3560  176.6470  136.5960 N   0  0  0  0  0  2  0  0  0  0  0  0
  190.8750  175.5810  135.7520 C   0  0  2  0  0  3  0  0  0  0  0  0
  191.5320  176.1620  134.5090 C   0  0  0  0  0  1  0  0  0  0  0  0
  189.7680  174.6510  135.3680 C   0  0  0  0  0  0  0  0  0  0  0  0
  189.9850  173.4590  135.2120 O   0  0  0  0  0  0  0  0  0  0  0  0
  188.3980  175.2110  135.1220 C   0  0  0  0  0  2  0  0  0  0  0  0
  187.2510  174.4020  137.0740 O   0  0  0  0  0  1  0  0  0  0  0  0
  187.2760  174.3390  135.6800 C   0  0  1  0  0  3  0  0  0  0  0  0
  185.9420  174.7080  135.1140 C   0  0  0  0  0  3  0  0  0  0  0  0
  185.4130  175.7590  135.4400 O   0  0  0  0  0  0  0  0  0  0  0  0
  186.7030  177.5640  143.7120 C   0  0  1  0  0  3  0  0  0  0  0  0
  186.8500  177.8320  145.2050 C   0  0  0  0  0  2  0  0  0  0  0  0
  185.9760  178.8370  145.6200 O   0  0  0  0  0  1  0  0  0  0  0  0
  186.0230  178.6150  143.0810 O   0  0  0  0  0  0  0  0  0  0  0  0
  184.8420  178.0540  142.5960 C   0  0  0  0  0  2  0  0  0  0  0  0
  184.3620  178.8580  141.4040 C   0  0  0  0  0  2  0  0  0  0  0  0
  181.4190  172.1280  136.9900 C   0  0  0  0  0  0  0  0  0  0  0  0
  181.0990  176.6960  139.3510 N   0  0  0  0  0  0  0  0  0  0  0  0
  181.9770  171.1130  136.5040 O   0  0  0  0  0  0  0  0  0  0  0  0
  183.3830  177.2910  139.6800 N   0  0  0  0  0  2  0  0  0  0  0  0
  182.3450  176.5850  138.9870 C   0  0  0  0  0  0  0  0  0  0  0  0
  179.9820  172.0380  137.3780 C   0  0  0  0  0  1  0  0  0  0  0  0
  183.1890  178.1880  140.7830 C   0  0  0  0  0  0  0  0  0  0  0  0
  182.7110  175.7140  137.8170 C   0  0  0  0  0  2  0  0  0  0  0  0
  180.0310  176.0240  138.6150 C   0  0  0  0  0  2  0  0  0  0  0  0
  182.0340  178.4310  141.2260 O   0  0  0  0  0  0  0  0  0  0  0  0
  181.7320  174.5780  137.7000 C   0  0  0  0  0  0  0  0  0  0  0  0
  180.5020  174.7380  138.0980 N   0  0  0  0  0  0  0  0  0  0  0  0
  182.1840  173.3290  137.1610 N   0  0  0  0  0  2  0  0  0  0  0  0
  1 11  1  1  0  0  0
  1 30  1  0  0  0  0
  1  3  1  0  0  0  0
  3  2  1  6  0  0  0
  3  4  1  0  0  0  0
  4  5  1  0  0  0  0
  5  6  1  0  0  0  0
  6 10  1  0  0  0  0
  6  7  1  1  0  0  0
  8 10  2  0  0  0  0
 10  9  1  0  0  0  0
 12 11  1  0  0  0  0
 13 12  1  0  0  0  0
 14 13  1  1  0  0  0
 15 17  1  0  0  0  0
 16 17  2  0  0  0  0
 17 14  1  0  0  0  0
 19 18  2  0  0  0  0
 19 14  1  0  0  0  0
 20 19  1  0  0  0  0
 21 22  1  6  0  0  0
 21 20  1  0  0  0  0
 23 21  1  0  0  0  0
 24 23  2  0  0  0  0
 25 23  1  0  0  0  0
 25 27  1  0  0  0  0
 27 26  1  1  0  0  0
 28 29  2  0  0  0  0
 28 27  1  0  0  0  0
 30 31  1  1  0  0  0
 31 32  1  0  0  0  0
 33 30  1  0  0  0  0
 34 33  1  0  0  0  0
 35 34  1  0  0  0  0
 36 48  1  0  0  0  0
 36 41  1  0  0  0  0
 38 36  2  0  0  0  0
 39 42  1  0  0  0  0
 40 37  2  0  0  0  0
 40 39  1  0  0  0  0
 42 45  2  0  0  0  0
 42 35  1  0  0  0  0
 43 40  1  0  0  0  0
 44 37  1  0  0  0  0
 46 43  1  0  0  0  0
 46 47  2  0  0  0  0
 47 44  1  0  0  0  0
 48 46  1  0  0  0  0
M  END
>  <MODEL>
9

>  <REMARK>
 VINA RESULT:      -5.8      3.405      8.480
  Name = 
  22 active torsions:
  status: ('A' for Active; 'I' for Inactive)
    1  A    between atoms: C_2  and  C_31
    2  A    between atoms: C_2  and  C_32
    3  A    between atoms: C_4  and  C_41
    4  A    between atoms: C_4  and  C_44
    5  A    between atoms: O_6  and  C_19
    6  A    between atoms: O_6  and  C_44
    7  A    between atoms: C_8  and  C_15
    8  A    between atoms: C_8  and  C_19
    9  A    between atoms: C_8  and  C_32
   10  A    between atoms: C_9  and  C_17
   11  A    between atoms: C_9  and  C_30
   12  A    between atoms: C_11  and  C_34
   13  A    between atoms: C_15  and  C_16
   14  A    between atoms: C_15  and  O_18
   15  A    between atoms: C_17  and  N_47
   16  A    between atoms: O_18  and  C_37
   17  A    between atoms: C_21  and  C_38
   18  A    between atoms: C_30  and  C_34
   19  A    between atoms: C_31  and  C_38
   20  A    between atoms: C_35  and  C_40
   21  A    between atoms: C_37  and  C_40
   22  A    between atoms: C_38  and  C_46
                            x       y       z     vdW  Elec       q    Type
                         _______ _______ _______ _____ _____    ______ ____

>  <TORSDO>
F 22

$$$$
