=
 OpenBabel10232410263D

 70 80  0  0  1  0  0  0  0  0999 V2000
  188.5370  176.3940  136.2600 C   0  0  1  0  0  3  0  0  0  0  0  0
  188.8400  178.0700  137.8670 C   0  0  2  0  0  3  0  0  0  0  0  0
  189.9150  174.8060  134.7380 C   0  0  0  0  0  2  0  0  0  0  0  0
  187.3350  177.9520  137.6180 C   0  0  0  0  0  2  0  0  0  0  0  0
  188.7120  174.9700  135.6900 C   0  0  0  0  0  0  0  0  0  0  0  0
  191.6140  176.0330  136.1030 C   0  0  0  0  0  0  0  0  0  0  0  0
  188.8170  174.0710  136.7690 O   0  0  0  0  0  1  0  0  0  0  0  0
  187.2680  177.1910  136.2830 C   0  0  2  0  0  3  0  0  0  0  0  0
  190.9390  175.9400  134.7710 C   0  0  0  0  0  2  0  0  0  0  0  0
  192.8940  175.6470  136.2450 C   0  0  0  0  0  3  0  0  0  0  0  0
  189.4400  176.9550  137.0740 C   0  0  1  0  0  3  0  0  0  0  0  0
  190.8310  176.4140  137.3490 C   0  0  0  0  0  2  0  0  0  0  0  0
  187.5970  174.5910  134.9430 O   0  0  0  0  0  1  0  0  0  0  0  0
  187.3680  178.0060  142.9570 C   0  0  0  0  0  0  0  0  0  0  0  0
  186.6460  178.0190  144.0810 N   0  0  0  0  0  0  0  0  0  0  0  0
  191.6650  177.3960  141.7710 N   0  0  0  0  0  2  0  0  0  0  0  0
  189.2290  177.8260  141.5160 C   0  0  0  0  0  0  0  0  0  0  0  0
  188.4290  178.0500  140.4060 C   0  0  0  0  0  0  0  0  0  0  0  0
  190.4880  177.6610  141.0090 C   0  0  0  0  0  0  0  0  0  0  0  0
  186.5440  178.2300  141.8700 C   0  0  0  0  0  0  0  0  0  0  0  0
  187.0440  178.2630  140.5500 C   0  0  0  0  0  3  0  0  0  0  0  0
  188.7410  177.7890  142.8210 C   0  0  0  0  0  3  0  0  0  0  0  0
  190.4600  177.7660  139.6620 N   0  0  0  0  0  0  0  0  0  0  0  0
  185.2800  178.4310  142.2870 N   0  0  0  0  0  2  0  0  0  0  0  0
  185.3770  178.2720  143.6340 C   0  0  0  0  0  0  0  0  0  0  0  0
  192.9300  177.1570  141.0910 C   0  0  0  0  0  1  0  0  0  0  0  0
  189.2100  177.9940  139.2890 N   0  0  0  0  0  0  0  0  0  0  0  0
  183.2240  179.3210  143.9030 N   0  0  0  0  0  1  0  0  0  0  0  0
  184.2200  178.5140  144.5650 C   0  0  2  0  0  3  0  0  0  0  0  0
  184.6390  179.1880  145.8730 C   0  0  0  0  0  2  0  0  0  0  0  0
  184.5990  178.2870  146.9480 O   0  0  0  0  0  1  0  0  0  0  0  0
  193.7100  174.9280  135.1760 C   0  0  0  0  0  2  0  0  0  0  0  0
  196.2820  173.9150  137.7820 C   0  0  0  0  0  2  0  0  0  0  0  0
  197.5280  175.5830  135.2560 C   0  0  1  0  0  3  0  0  0  0  0  0
  197.4110  174.2380  134.5060 C   0  0  2  0  0  3  0  0  0  0  0  0
  196.1560  175.0960  134.7200 C   0  0  1  0  0  3  0  0  0  0  0  0
  197.4870  175.7890  136.7140 N   0  0  0  0  0  2  0  0  0  0  0  0
  195.0730  174.4090  135.6020 C   0  0  1  0  0  3  0  0  0  0  0  0
  195.1340  174.6580  137.1090 C   0  0  0  0  0  2  0  0  0  0  0  0
  197.6430  174.6070  137.5560 C   0  0  0  0  0  2  0  0  0  0  0  0
  197.6930  172.9710  135.3270 C   0  0  0  0  0  2  0  0  0  0  0  0
  197.2100  171.7630  134.6580 N   0  0  0  0  0  2  0  0  0  0  0  0
  198.5810  170.7530  136.6470 O   0  0  0  0  0  0  0  0  0  0  0  0
  197.7160  170.3360  135.4910 S   0  0  0  0  0  0  0  0  0  0  0  0
  198.5250  169.4660  134.5750 O   0  0  0  0  0  0  0  0  0  0  0  0
  196.3600  169.3300  136.1340 C   0  0  2  0  0  3  0  0  0  0  0  0
  195.0730  170.1650  136.1190 C   0  0  0  0  0  2  0  0  0  0  0  0
  195.7370  168.6640  138.4460 C   0  0  0  0  0  3  0  0  0  0  0  0
  196.6810  168.8230  137.5230 C   0  0  0  0  0  3  0  0  0  0  0  0
  193.9630  169.3730  136.8110 C   0  0  0  0  0  2  0  0  0  0  0  0
  194.3850  169.0210  138.1800 N   0  0  0  0  0  2  0  0  0  0  0  0
  186.1180  176.3850  136.2220 O   0  0  0  0  0  0  0  0  0  0  0  0
  185.1820  177.1750  135.5580 C   0  0  0  0  0  2  0  0  0  0  0  0
  183.8820  176.6490  135.6380 O   0  0  0  0  0  0  0  0  0  0  0  0
  184.2890  173.8530  134.8010 O   0  0  0  0  0  0  0  0  0  0  0  0
  181.3520  172.4950  136.2650 C   0  0  0  0  0  0  0  0  0  0  0  0
  183.7860  175.8750  136.8040 C   0  0  2  0  0  3  0  0  0  0  0  0
  181.9830  174.5320  137.3550 C   0  0  0  0  0  0  0  0  0  0  0  0
  181.8610  175.6310  138.3190 C   0  0  0  0  0  2  0  0  0  0  0  0
  183.3030  173.7230  135.5630 C   0  0  0  0  0  0  0  0  0  0  0  0
  182.4560  172.6350  135.4050 C   0  0  0  0  0  3  0  0  0  0  0  0
  183.0350  174.6520  136.5290 N   0  0  0  0  0  0  0  0  0  0  0  0
  180.4300  171.3670  136.0950 C   0  0  0  0  0  1  0  0  0  0  0  0
  182.8880  176.6510  137.7960 C   0  0  1  0  0  3  0  0  0  0  0  0
  181.1090  173.4530  137.2530 C   0  0  0  0  0  3  0  0  0  0  0  0
  182.2720  178.5870  140.3850 C   0  0  0  0  0  2  0  0  0  0  0  0
  182.5430  179.3940  139.1510 C   0  0  0  0  0  2  0  0  0  0  0  0
  182.8470  177.2140  140.0980 C   0  0  0  0  0  2  0  0  0  0  0  0
  183.7690  178.7200  138.5900 C   0  0  0  0  0  2  0  0  0  0  0  0
  183.6640  177.2840  138.8870 N   0  0  0  0  0  0  0  0  0  0  0  0
  1  5  1  1  0  0  0
  1  8  1  0  0  0  0
  1 11  1  0  0  0  0
  2  4  1  1  0  0  0
  2 27  1  0  0  0  0
  3  9  1  0  0  0  0
  3  5  1  0  0  0  0
  5  7  1  0  0  0  0
  6 10  2  0  0  0  0
  6 12  1  0  0  0  0
  8 52  1  1  0  0  0
  8  4  1  0  0  0  0
  9  6  1  0  0  0  0
 11 12  1  1  0  0  0
 11  2  1  0  0  0  0
 13  5  1  0  0  0  0
 14 15  1  0  0  0  0
 17 22  2  0  0  0  0
 18 21  2  0  0  0  0
 18 17  1  0  0  0  0
 19 17  1  0  0  0  0
 19 16  1  0  0  0  0
 20 24  1  0  0  0  0
 20 14  2  0  0  0  0
 21 20  1  0  0  0  0
 22 14  1  0  0  0  0
 23 19  2  0  0  0  0
 24 25  1  0  0  0  0
 25 15  2  0  0  0  0
 25 29  1  0  0  0  0
 26 16  1  0  0  0  0
 27 23  1  0  0  0  0
 27 18  1  0  0  0  0
 29 28  1  6  0  0  0
 29 30  1  0  0  0  0
 30 31  1  0  0  0  0
 32 38  1  0  0  0  0
 32 10  1  0  0  0  0
 34 37  1  1  0  0  0
 35 36  1  0  0  0  0
 35 34  1  0  0  0  0
 35 41  1  1  0  0  0
 36 34  1  0  0  0  0
 36 38  1  0  0  0  0
 37 40  1  0  0  0  0
 38 39  1  0  0  0  0
 39 33  1  0  0  0  0
 40 33  1  0  0  0  0
 42 41  1  0  0  0  0
 42 44  1  0  0  0  0
 44 46  1  0  0  0  0
 44 43  2  0  0  0  0
 45 44  2  0  0  0  0
 46 49  1  0  0  0  0
 47 46  1  0  0  0  0
 47 50  1  0  0  0  0
 49 48  2  0  0  0  0
 50 51  1  0  0  0  0
 51 48  1  0  0  0  0
 53 54  1  0  0  0  0
 53 52  1  0  0  0  0
 54 57  1  0  0  0  0
 55 60  2  0  0  0  0
 56 65  1  0  0  0  0
 57 64  1  0  0  0  0
 58 59  1  0  0  0  0
 60 62  1  0  0  0  0
 61 60  1  0  0  0  0
 61 56  2  0  0  0  0
 62 57  1  0  0  0  0
 62 58  1  0  0  0  0
 63 56  1  0  0  0  0
 64 59  1  0  0  0  0
 64 70  1  0  0  0  0
 65 58  2  0  0  0  0
 67 66  1  0  0  0  0
 68 66  1  0  0  0  0
 69 70  1  0  0  0  0
 69 67  1  0  0  0  0
 70 68  1  0  0  0  0
M  END
>  <MODEL>
1

>  <REMARK>
 VINA RESULT:      -7.7      0.000      0.000
  Name = 
  14 active torsions:
  status: ('A' for Active; 'I' for Inactive)
    1  A    between atoms: C_1  and  CA_43
    2  A    between atoms: O_4  and  C_25
    3  A    between atoms: O_4  and  C_65
    4  A    between atoms: C_5  and  S_42
    5  A    between atoms: C_17  and  N_68
    6  A    between atoms: C_26  and  C_69
    7  A    between atoms: C_30  and  C_36
    8  A    between atoms: C_30  and  C_51
    9  A    between atoms: N_32  and  S_42
   10  A    between atoms: N_32  and  C_69
   11  A    between atoms: C_40  and  O_44
   12  A    between atoms: CA_43  and  C_60
   13  A    between atoms: O_44  and  C_65
   14  A    between atoms: N_61  and  C_62
                            x       y       z     vdW  Elec       q    Type
                         _______ _______ _______ _____ _____    ______ ____

>  <TORSDO>
F 14

$$$$
=
 OpenBabel10232410263D

 70 80  0  0  1  0  0  0  0  0999 V2000
  189.3160  176.6270  136.5750 C   0  0  1  0  0  3  0  0  0  0  0  0
  189.0610  178.1210  138.3610 C   0  0  2  0  0  3  0  0  0  0  0  0
  191.1690  175.3550  135.2760 C   0  0  0  0  0  2  0  0  0  0  0  0
  187.6730  177.9030  137.7530 C   0  0  0  0  0  2  0  0  0  0  0  0
  189.7720  175.3010  135.9290 C   0  0  0  0  0  0  0  0  0  0  0  0
  192.3700  176.5530  137.1150 C   0  0  0  0  0  0  0  0  0  0  0  0
  189.7310  174.2940  136.9110 O   0  0  0  0  0  1  0  0  0  0  0  0
  187.9950  177.3040  136.3730 C   0  0  2  0  0  3  0  0  0  0  0  0
  192.0270  176.5620  135.6590 C   0  0  0  0  0  2  0  0  0  0  0  0
  193.6200  176.2640  137.5180 C   0  0  0  0  0  3  0  0  0  0  0  0
  189.9440  177.1630  137.6290 C   0  0  1  0  0  3  0  0  0  0  0  0
  191.2890  176.7150  138.1710 C   0  0  0  0  0  2  0  0  0  0  0  0
  188.9040  174.9200  134.9070 O   0  0  0  0  0  1  0  0  0  0  0  0
  186.5920  178.1690  143.0490 C   0  0  0  0  0  0  0  0  0  0  0  0
  185.6730  178.2910  144.0100 N   0  0  0  0  0  0  0  0  0  0  0  0
  190.8250  176.6920  142.6650 N   0  0  0  0  0  2  0  0  0  0  0  0
  188.6330  177.6490  141.9830 C   0  0  0  0  0  0  0  0  0  0  0  0
  188.1420  178.0860  140.7620 C   0  0  0  0  0  0  0  0  0  0  0  0
  189.9090  177.2360  141.7160 C   0  0  0  0  0  0  0  0  0  0  0  0
  186.0730  178.6100  141.8460 C   0  0  0  0  0  0  0  0  0  0  0  0
  186.8290  178.5870  140.6550 C   0  0  0  0  0  3  0  0  0  0  0  0
  187.8900  177.6650  143.1620 C   0  0  0  0  0  3  0  0  0  0  0  0
  190.1800  177.4000  140.4020 N   0  0  0  0  0  0  0  0  0  0  0  0
  184.8180  179.0620  142.0280 N   0  0  0  0  0  2  0  0  0  0  0  0
  184.6010  178.8310  143.3510 C   0  0  0  0  0  0  0  0  0  0  0  0
  192.1270  176.2130  142.2230 C   0  0  0  0  0  1  0  0  0  0  0  0
  189.1070  177.9080  139.8150 N   0  0  0  0  0  0  0  0  0  0  0  0
  183.5130  179.1170  145.4830 N   0  0  0  0  0  1  0  0  0  0  0  0
  183.3520  179.2800  144.0580 C   0  0  2  0  0  3  0  0  0  0  0  0
  182.1030  178.5260  143.5960 C   0  0  0  0  0  2  0  0  0  0  0  0
  181.4620  179.1960  142.5430 O   0  0  0  0  0  1  0  0  0  0  0  0
  194.7300  175.7500  136.6080 C   0  0  0  0  0  2  0  0  0  0  0  0
  195.0820  172.7180  134.3470 C   0  0  0  0  0  2  0  0  0  0  0  0
  192.6840  172.4600  136.5600 C   0  0  1  0  0  3  0  0  0  0  0  0
  193.8320  172.1530  137.5450 C   0  0  2  0  0  3  0  0  0  0  0  0
  193.5670  173.6040  137.1230 C   0  0  1  0  0  3  0  0  0  0  0  0
  192.7450  172.4140  135.0890 N   0  0  0  0  0  2  0  0  0  0  0  0
  194.7480  174.2540  136.3440 C   0  0  1  0  0  3  0  0  0  0  0  0
  194.7380  174.1250  134.8200 C   0  0  0  0  0  2  0  0  0  0  0  0
  193.8950  171.7420  134.4930 C   0  0  0  0  0  2  0  0  0  0  0  0
  195.0090  171.3350  136.9910 C   0  0  0  0  0  2  0  0  0  0  0  0
  196.1300  171.2800  137.9280 N   0  0  0  0  0  2  0  0  0  0  0  0
  197.2600  170.2890  135.7830 O   0  0  0  0  0  0  0  0  0  0  0  0
  197.6060  170.8770  137.1220 S   0  0  0  0  0  0  0  0  0  0  0  0
  198.3610  169.8530  137.9160 O   0  0  0  0  0  0  0  0  0  0  0  0
  198.7130  172.2790  136.8550 C   0  0  2  0  0  3  0  0  0  0  0  0
  198.2190  173.4670  137.6900 C   0  0  0  0  0  2  0  0  0  0  0  0
  198.9430  173.8770  134.9660 C   0  0  0  0  0  3  0  0  0  0  0  0
  198.7950  172.6230  135.3840 C   0  0  0  0  0  3  0  0  0  0  0  0
  199.0570  174.6980  137.3400 C   0  0  0  0  0  2  0  0  0  0  0  0
  198.9740  174.9590  135.8910 N   0  0  0  0  0  2  0  0  0  0  0  0
  186.9850  176.4160  135.9660 O   0  0  0  0  0  0  0  0  0  0  0  0
  185.9440  176.6470  136.8640 C   0  0  0  0  0  2  0  0  0  0  0  0
  184.7280  176.0920  136.4310 O   0  0  0  0  0  0  0  0  0  0  0  0
  186.0260  173.4630  136.1340 O   0  0  0  0  0  0  0  0  0  0  0  0
  183.0750  171.4890  136.0730 C   0  0  0  0  0  0  0  0  0  0  0  0
  184.2150  175.2860  137.4590 C   0  0  2  0  0  3  0  0  0  0  0  0
  182.6750  173.5840  137.1610 C   0  0  0  0  0  0  0  0  0  0  0  0
  181.8810  174.6090  137.8470 C   0  0  0  0  0  2  0  0  0  0  0  0
  184.8380  173.1120  136.3210 C   0  0  0  0  0  0  0  0  0  0  0  0
  184.4100  171.8760  135.8570 C   0  0  0  0  0  3  0  0  0  0  0  0
  183.9520  173.9410  136.9510 N   0  0  0  0  0  0  0  0  0  0  0  0
  182.5970  170.1990  135.5650 C   0  0  0  0  0  1  0  0  0  0  0  0
  182.8140  175.8330  137.8150 C   0  0  1  0  0  3  0  0  0  0  0  0
  182.1940  172.3500  136.7320 C   0  0  0  0  0  3  0  0  0  0  0  0
  181.0940  178.3020  139.1470 C   0  0  0  0  0  2  0  0  0  0  0  0
  182.2660  178.8130  138.3640 C   0  0  0  0  0  2  0  0  0  0  0  0
  181.4080  176.8460  139.4310 C   0  0  0  0  0  2  0  0  0  0  0  0
  183.3810  177.9140  138.8330 C   0  0  0  0  0  2  0  0  0  0  0  0
  182.8060  176.5860  139.0900 N   0  0  0  0  0  0  0  0  0  0  0  0
  1  5  1  1  0  0  0
  1 11  1  0  0  0  0
  2  4  1  6  0  0  0
  2 27  1  0  0  0  0
  3  9  1  0  0  0  0
  3  5  1  0  0  0  0
  5  7  1  0  0  0  0
  6 10  2  0  0  0  0
  6 12  1  0  0  0  0
  8 52  1  1  0  0  0
  8  1  1  0  0  0  0
  8  4  1  0  0  0  0
  9  6  1  0  0  0  0
 11 12  1  1  0  0  0
 11  2  1  0  0  0  0
 13  5  1  0  0  0  0
 14 22  1  0  0  0  0
 14 15  1  0  0  0  0
 17 22  2  0  0  0  0
 18 17  1  0  0  0  0
 19 17  1  0  0  0  0
 19 16  1  0  0  0  0
 20 24  1  0  0  0  0
 20 14  2  0  0  0  0
 21 18  2  0  0  0  0
 21 20  1  0  0  0  0
 23 19  2  0  0  0  0
 24 25  1  0  0  0  0
 25 15  2  0  0  0  0
 25 29  1  0  0  0  0
 26 16  1  0  0  0  0
 27 23  1  0  0  0  0
 27 18  1  0  0  0  0
 29 28  1  1  0  0  0
 30 29  1  0  0  0  0
 31 30  1  0  0  0  0
 32 10  1  0  0  0  0
 33 40  1  0  0  0  0
 33 39  1  0  0  0  0
 34 37  1  6  0  0  0
 34 36  1  0  0  0  0
 34 35  1  0  0  0  0
 35 41  1  6  0  0  0
 36 35  1  0  0  0  0
 38 32  1  0  0  0  0
 38 36  1  0  0  0  0
 39 38  1  0  0  0  0
 40 37  1  0  0  0  0
 41 42  1  0  0  0  0
 43 44  2  0  0  0  0
 44 45  2  0  0  0  0
 44 42  1  0  0  0  0
 46 44  1  0  0  0  0
 46 47  1  0  0  0  0
 48 49  2  0  0  0  0
 48 51  1  0  0  0  0
 49 46  1  0  0  0  0
 50 47  1  0  0  0  0
 51 50  1  0  0  0  0
 52 53  1  0  0  0  0
 54 53  1  0  0  0  0
 54 57  1  0  0  0  0
 55 60  2  0  0  0  0
 56 65  1  0  0  0  0
 57 64  1  0  0  0  0
 58 59  1  0  0  0  0
 60 62  1  0  0  0  0
 61 56  2  0  0  0  0
 61 60  1  0  0  0  0
 62 58  1  0  0  0  0
 62 57  1  0  0  0  0
 63 56  1  0  0  0  0
 64 59  1  0  0  0  0
 64 70  1  0  0  0  0
 65 58  2  0  0  0  0
 66 68  1  0  0  0  0
 67 69  1  0  0  0  0
 67 66  1  0  0  0  0
 69 70  1  0  0  0  0
 70 68  1  0  0  0  0
M  END
>  <MODEL>
2

>  <REMARK>
 VINA RESULT:      -6.6      1.660      2.825
  Name = 
  14 active torsions:
  status: ('A' for Active; 'I' for Inactive)
    1  A    between atoms: C_1  and  CA_43
    2  A    between atoms: O_4  and  C_25
    3  A    between atoms: O_4  and  C_65
    4  A    between atoms: C_5  and  S_42
    5  A    between atoms: C_17  and  N_68
    6  A    between atoms: C_26  and  C_69
    7  A    between atoms: C_30  and  C_36
    8  A    between atoms: C_30  and  C_51
    9  A    between atoms: N_32  and  S_42
   10  A    between atoms: N_32  and  C_69
   11  A    between atoms: C_40  and  O_44
   12  A    between atoms: CA_43  and  C_60
   13  A    between atoms: O_44  and  C_65
   14  A    between atoms: N_61  and  C_62
                            x       y       z     vdW  Elec       q    Type
                         _______ _______ _______ _____ _____    ______ ____

>  <TORSDO>
F 14

$$$$
=
 OpenBabel10232410263D

 70 80  0  0  1  0  0  0  0  0999 V2000
  188.7120  176.2120  136.7870 C   0  0  1  0  0  3  0  0  0  0  0  0
  188.7710  177.8950  138.4150 C   0  0  2  0  0  3  0  0  0  0  0  0
  190.3090  174.7930  135.3130 C   0  0  0  0  0  2  0  0  0  0  0  0
  187.2980  177.6210  138.1040 C   0  0  0  0  0  2  0  0  0  0  0  0
  189.0580  174.8200  136.2170 C   0  0  0  0  0  0  0  0  0  0  0  0
  191.8140  176.1790  136.7540 C   0  0  0  0  0  0  0  0  0  0  0  0
  189.2150  173.9270  137.2930 O   0  0  0  0  0  1  0  0  0  0  0  0
  187.3660  176.8710  136.7620 C   0  0  2  0  0  3  0  0  0  0  0  0
  191.2050  176.0290  135.3950 C   0  0  0  0  0  2  0  0  0  0  0  0
  193.1200  175.9280  136.9460 C   0  0  0  0  0  3  0  0  0  0  0  0
  189.5170  176.8570  137.6400 C   0  0  1  0  0  3  0  0  0  0  0  0
  190.9450  176.4630  137.9690 C   0  0  0  0  0  2  0  0  0  0  0  0
  188.0210  174.3340  135.4220 O   0  0  0  0  0  1  0  0  0  0  0  0
  187.1560  178.2170  143.4510 C   0  0  0  0  0  0  0  0  0  0  0  0
  186.4080  178.3570  144.5480 N   0  0  0  0  0  0  0  0  0  0  0  0
  191.3940  177.1000  142.4350 N   0  0  0  0  0  2  0  0  0  0  0  0
  189.0270  177.7750  142.0810 C   0  0  0  0  0  0  0  0  0  0  0  0
  188.2880  178.0320  140.9370 C   0  0  0  0  0  0  0  0  0  0  0  0
  190.2750  177.4540  141.6240 C   0  0  0  0  0  0  0  0  0  0  0  0
  186.3930  178.4770  142.3280 C   0  0  0  0  0  0  0  0  0  0  0  0
  186.9310  178.3980  141.0260 C   0  0  0  0  0  3  0  0  0  0  0  0
  188.5010  177.8490  143.3690 C   0  0  0  0  0  3  0  0  0  0  0  0
  190.2970  177.5010  140.2740 N   0  0  0  0  0  0  0  0  0  0  0  0
  185.1460  178.8300  142.6950 N   0  0  0  0  0  2  0  0  0  0  0  0
  185.1860  178.7220  144.0500 C   0  0  0  0  0  0  0  0  0  0  0  0
  192.6450  176.6970  141.8080 C   0  0  0  0  0  1  0  0  0  0  0  0
  189.0900  177.8440  139.8490 N   0  0  0  0  0  0  0  0  0  0  0  0
  184.2070  178.5620  146.2470 N   0  0  0  0  0  1  0  0  0  0  0  0
  184.0360  179.1280  144.9300 C   0  0  2  0  0  3  0  0  0  0  0  0
  182.6780  178.7080  144.3650 C   0  0  0  0  0  2  0  0  0  0  0  0
  182.3820  179.3970  143.1800 O   0  0  0  0  0  1  0  0  0  0  0  0
  194.0490  175.3090  135.9070 C   0  0  0  0  0  2  0  0  0  0  0  0
  196.0610  173.7210  138.7110 C   0  0  0  0  0  2  0  0  0  0  0  0
  197.8900  175.0840  136.3630 C   0  0  1  0  0  3  0  0  0  0  0  0
  197.5490  173.8070  135.5660 C   0  0  2  0  0  3  0  0  0  0  0  0
  196.5030  174.9240  135.6870 C   0  0  1  0  0  3  0  0  0  0  0  0
  197.7540  175.2820  137.8170 N   0  0  0  0  0  2  0  0  0  0  0  0
  195.2130  174.4930  136.4430 C   0  0  1  0  0  3  0  0  0  0  0  0
  195.1810  174.7090  137.9560 C   0  0  0  0  0  2  0  0  0  0  0  0
  197.5580  174.0890  138.6330 C   0  0  0  0  0  2  0  0  0  0  0  0
  197.4580  172.5020  136.3720 C   0  0  0  0  0  2  0  0  0  0  0  0
  197.3230  171.3300  135.5070 N   0  0  0  0  0  2  0  0  0  0  0  0
  198.5130  170.2790  137.5900 O   0  0  0  0  0  0  0  0  0  0  0  0
  197.8020  169.8840  136.3260 S   0  0  0  0  0  0  0  0  0  0  0  0
  198.7470  169.0980  135.4680 O   0  0  0  0  0  0  0  0  0  0  0  0
  196.4330  168.7910  136.7650 C   0  0  2  0  0  3  0  0  0  0  0  0
  195.2040  169.1740  135.9300 C   0  0  0  0  0  2  0  0  0  0  0  0
  194.9110  168.7420  138.7300 C   0  0  0  0  0  3  0  0  0  0  0  0
  196.1460  168.8620  138.2490 C   0  0  0  0  0  3  0  0  0  0  0  0
  194.0050  168.3590  136.4150 C   0  0  0  0  0  2  0  0  0  0  0  0
  193.7960  168.5940  137.8570 N   0  0  0  0  0  2  0  0  0  0  0  0
  186.3110  175.9490  136.6500 O   0  0  0  0  0  0  0  0  0  0  0  0
  185.2620  176.6930  136.1120 C   0  0  0  0  0  2  0  0  0  0  0  0
  184.4350  177.2500  137.1010 O   0  0  0  0  0  0  0  0  0  0  0  0
  182.4920  179.3350  137.8480 O   0  0  0  0  0  0  0  0  0  0  0  0
  180.7770  177.4990  140.3580 C   0  0  0  0  0  0  0  0  0  0  0  0
  183.1690  176.6520  137.0110 C   0  0  2  0  0  3  0  0  0  0  0  0
  181.8710  176.0230  138.8210 C   0  0  0  0  0  0  0  0  0  0  0  0
  182.2940  174.7300  138.2740 C   0  0  0  0  0  2  0  0  0  0  0  0
  182.0480  178.3630  138.5020 C   0  0  0  0  0  0  0  0  0  0  0  0
  181.2740  178.5950  139.6310 C   0  0  0  0  0  3  0  0  0  0  0  0
  182.3370  177.0790  138.1340 N   0  0  0  0  0  0  0  0  0  0  0  0
  179.9820  177.7250  141.5690 C   0  0  0  0  0  1  0  0  0  0  0  0
  183.3600  175.1350  137.2400 C   0  0  1  0  0  3  0  0  0  0  0  0
  181.0770  176.1960  139.9520 C   0  0  0  0  0  3  0  0  0  0  0  0
  182.2080  172.1950  136.3160 C   0  0  0  0  0  2  0  0  0  0  0  0
  183.6400  172.1080  136.7510 C   0  0  0  0  0  2  0  0  0  0  0  0
  181.9720  173.6610  136.0090 C   0  0  0  0  0  2  0  0  0  0  0  0
  184.2620  173.2830  136.0400 C   0  0  0  0  0  2  0  0  0  0  0  0
  183.2580  174.3550  135.9860 N   0  0  0  0  0  0  0  0  0  0  0  0
  1  5  1  1  0  0  0
  1 11  1  0  0  0  0
  2  4  1  1  0  0  0
  2 27  1  0  0  0  0
  3  9  1  0  0  0  0
  3  5  1  0  0  0  0
  5  7  1  0  0  0  0
  6 10  2  0  0  0  0
  6 12  1  0  0  0  0
  8 52  1  1  0  0  0
  8  1  1  0  0  0  0
  8  4  1  0  0  0  0
  9  6  1  0  0  0  0
 11 12  1  1  0  0  0
 11  2  1  0  0  0  0
 13  5  1  0  0  0  0
 14 15  1  0  0  0  0
 17 22  2  0  0  0  0
 18 21  2  0  0  0  0
 18 17  1  0  0  0  0
 19 17  1  0  0  0  0
 19 16  1  0  0  0  0
 20 24  1  0  0  0  0
 20 14  2  0  0  0  0
 21 20  1  0  0  0  0
 22 14  1  0  0  0  0
 23 19  2  0  0  0  0
 24 25  1  0  0  0  0
 25 15  2  0  0  0  0
 25 29  1  0  0  0  0
 26 16  1  0  0  0  0
 27 23  1  0  0  0  0
 27 18  1  0  0  0  0
 29 28  1  1  0  0  0
 30 29  1  0  0  0  0
 31 30  1  0  0  0  0
 32 38  1  0  0  0  0
 32 10  1  0  0  0  0
 34 37  1  1  0  0  0
 35 36  1  0  0  0  0
 35 34  1  0  0  0  0
 35 41  1  1  0  0  0
 36 34  1  0  0  0  0
 36 38  1  0  0  0  0
 37 40  1  0  0  0  0
 38 39  1  0  0  0  0
 39 33  1  0  0  0  0
 40 33  1  0  0  0  0
 42 44  1  0  0  0  0
 42 41  1  0  0  0  0
 44 46  1  0  0  0  0
 44 43  2  0  0  0  0
 45 44  2  0  0  0  0
 46 49  1  0  0  0  0
 47 50  1  0  0  0  0
 47 46  1  0  0  0  0
 49 48  2  0  0  0  0
 50 51  1  0  0  0  0
 51 48  1  0  0  0  0
 53 52  1  0  0  0  0
 53 54  1  0  0  0  0
 55 60  2  0  0  0  0
 56 63  1  0  0  0  0
 57 54  1  0  0  0  0
 57 64  1  0  0  0  0
 57 62  1  0  0  0  0
 58 65  2  0  0  0  0
 59 58  1  0  0  0  0
 60 61  1  0  0  0  0
 61 56  2  0  0  0  0
 62 60  1  0  0  0  0
 62 58  1  0  0  0  0
 64 59  1  0  0  0  0
 65 56  1  0  0  0  0
 66 67  1  0  0  0  0
 68 66  1  0  0  0  0
 69 67  1  0  0  0  0
 70 68  1  0  0  0  0
 70 69  1  0  0  0  0
 70 64  1  0  0  0  0
M  END
>  <MODEL>
3

>  <REMARK>
 VINA RESULT:      -6.6      1.250      2.792
  Name = 
  14 active torsions:
  status: ('A' for Active; 'I' for Inactive)
    1  A    between atoms: C_1  and  CA_43
    2  A    between atoms: O_4  and  C_25
    3  A    between atoms: O_4  and  C_65
    4  A    between atoms: C_5  and  S_42
    5  A    between atoms: C_17  and  N_68
    6  A    between atoms: C_26  and  C_69
    7  A    between atoms: C_30  and  C_36
    8  A    between atoms: C_30  and  C_51
    9  A    between atoms: N_32  and  S_42
   10  A    between atoms: N_32  and  C_69
   11  A    between atoms: C_40  and  O_44
   12  A    between atoms: CA_43  and  C_60
   13  A    between atoms: O_44  and  C_65
   14  A    between atoms: N_61  and  C_62
                            x       y       z     vdW  Elec       q    Type
                         _______ _______ _______ _____ _____    ______ ____

>  <TORSDO>
F 14

$$$$
=
 OpenBabel10232410263D

 70 80  0  0  1  0  0  0  0  0999 V2000
  190.2890  176.1060  136.3550 C   0  0  1  0  0  3  0  0  0  0  0  0
  189.5670  174.6300  134.6850 C   0  0  2  0  0  3  0  0  0  0  0  0
  189.3530  177.8790  138.0020 C   0  0  0  0  0  2  0  0  0  0  0  0
  191.0930  174.5310  134.7450 C   0  0  0  0  0  2  0  0  0  0  0  0
  190.3020  176.6820  137.7870 C   0  0  0  0  0  0  0  0  0  0  0  0
  187.3430  176.9490  136.8390 C   0  0  0  0  0  0  0  0  0  0  0  0
  189.9900  175.6440  138.6840 O   0  0  0  0  0  1  0  0  0  0  0  0
  191.4880  175.8070  135.5070 C   0  0  2  0  0  3  0  0  0  0  0  0
  188.3060  178.0930  136.9090 C   0  0  0  0  0  2  0  0  0  0  0  0
  186.0800  177.0950  137.2760 C   0  0  0  0  0  3  0  0  0  0  0  0
  189.2050  175.5240  135.8270 C   0  0  1  0  0  3  0  0  0  0  0  0
  187.8100  175.5630  136.4220 C   0  0  0  0  0  2  0  0  0  0  0  0
  191.5710  177.1530  138.1230 O   0  0  0  0  0  1  0  0  0  0  0  0
  185.0640  171.8380  134.7050 C   0  0  0  0  0  0  0  0  0  0  0  0
  183.7760  171.4860  134.6660 N   0  0  0  0  0  0  0  0  0  0  0  0
  189.0700  169.7910  134.7820 N   0  0  0  0  0  2  0  0  0  0  0  0
  187.4170  171.6480  134.7590 C   0  0  0  0  0  0  0  0  0  0  0  0
  187.5580  173.0270  134.7630 C   0  0  0  0  0  0  0  0  0  0  0  0
  188.6960  171.1680  134.7840 C   0  0  0  0  0  0  0  0  0  0  0  0
  185.1720  173.2160  134.7070 C   0  0  0  0  0  0  0  0  0  0  0  0
  186.4250  173.8650  134.7390 C   0  0  0  0  0  3  0  0  0  0  0  0
  186.1820  171.0020  134.7240 C   0  0  0  0  0  3  0  0  0  0  0  0
  189.5740  172.1950  134.7920 N   0  0  0  0  0  0  0  0  0  0  0  0
  183.9460  173.7720  134.7100 N   0  0  0  0  0  2  0  0  0  0  0  0
  183.1230  172.6900  134.6610 C   0  0  0  0  0  0  0  0  0  0  0  0
  190.4770  169.4220  134.7240 C   0  0  0  0  0  1  0  0  0  0  0  0
  188.8880  173.3280  134.7710 N   0  0  0  0  0  0  0  0  0  0  0  0
  181.2240  174.1660  134.5010 N   0  0  0  0  0  1  0  0  0  0  0  0
  181.6260  172.8040  134.7580 C   0  0  2  0  0  3  0  0  0  0  0  0
  181.0820  172.3580  136.1170 C   0  0  0  0  0  2  0  0  0  0  0  0
  181.7530  172.9960  137.1710 O   0  0  0  0  0  1  0  0  0  0  0  0
  185.5560  178.3110  138.0310 C   0  0  0  0  0  2  0  0  0  0  0  0
  182.7170  176.2160  139.4400 C   0  0  0  0  0  2  0  0  0  0  0  0
  182.0040  179.3960  139.1370 C   0  0  1  0  0  3  0  0  0  0  0  0
  182.8430  179.5510  140.4240 C   0  0  2  0  0  3  0  0  0  0  0  0
  183.5540  179.3700  139.0760 C   0  0  1  0  0  3  0  0  0  0  0  0
  181.4290  178.1500  138.6010 N   0  0  0  0  0  2  0  0  0  0  0  0
  184.3990  178.0660  138.9850 C   0  0  1  0  0  3  0  0  0  0  0  0
  183.7030  176.8160  138.4450 C   0  0  0  0  0  2  0  0  0  0  0  0
  181.3890  176.9990  139.4970 C   0  0  0  0  0  2  0  0  0  0  0  0
  182.7300  178.4180  141.4550 C   0  0  0  0  0  2  0  0  0  0  0  0
  183.1070  178.8560  142.7980 N   0  0  0  0  0  2  0  0  0  0  0  0
  185.3420  180.2110  142.9710 O   0  0  0  0  0  0  0  0  0  0  0  0
  184.8210  178.8020  143.0210 S   0  0  0  0  0  0  0  0  0  0  0  0
  185.4580  178.0140  141.9150 O   0  0  0  0  0  0  0  0  0  0  0  0
  185.3430  178.0610  144.5830 C   0  0  2  0  0  3  0  0  0  0  0  0
  185.1720  179.0930  145.7040 C   0  0  0  0  0  2  0  0  0  0  0  0
  187.5940  177.6050  145.5340 C   0  0  0  0  0  3  0  0  0  0  0  0
  186.7710  177.5670  144.4900 C   0  0  0  0  0  3  0  0  0  0  0  0
  185.7650  178.5240  146.9940 C   0  0  0  0  0  2  0  0  0  0  0  0
  187.1790  178.1670  146.7750 N   0  0  0  0  0  2  0  0  0  0  0  0
  192.6520  175.5960  136.2660 O   0  0  0  0  0  0  0  0  0  0  0  0
  193.0510  174.3040  135.9290 C   0  0  0  0  0  2  0  0  0  0  0  0
  194.3820  174.2510  135.4850 O   0  0  0  0  0  0  0  0  0  0  0  0
  195.5650  175.0240  138.0710 O   0  0  0  0  0  0  0  0  0  0  0  0
  198.8490  173.8180  137.4630 C   0  0  0  0  0  0  0  0  0  0  0  0
  194.9790  173.0910  136.0030 C   0  0  2  0  0  3  0  0  0  0  0  0
  197.2580  172.6930  136.0700 C   0  0  0  0  0  0  0  0  0  0  0  0
  196.8060  171.7540  135.0390 C   0  0  0  0  0  2  0  0  0  0  0  0
  196.5030  174.3530  137.5820 C   0  0  0  0  0  0  0  0  0  0  0  0
  197.8020  174.5770  138.0150 C   0  0  0  0  0  3  0  0  0  0  0  0
  196.2670  173.4230  136.6080 N   0  0  0  0  0  0  0  0  0  0  0  0
  200.2320  174.0610  137.8870 C   0  0  0  0  0  1  0  0  0  0  0  0
  195.3490  172.1900  134.8020 C   0  0  1  0  0  3  0  0  0  0  0  0
  198.5790  172.8640  136.4780 C   0  0  0  0  0  3  0  0  0  0  0  0
  194.2780  169.6990  136.6660 C   0  0  0  0  0  2  0  0  0  0  0  0
  195.5340  169.3320  135.9330 C   0  0  0  0  0  2  0  0  0  0  0  0
  193.7120  170.8890  135.9160 C   0  0  0  0  0  2  0  0  0  0  0  0
  195.2460  169.8230  134.5370 C   0  0  0  0  0  2  0  0  0  0  0  0
  194.4300  171.0400  134.6510 N   0  0  0  0  0  0  0  0  0  0  0  0
  1  5  1  1  0  0  0
  2  4  1  1  0  0  0
  2 27  1  0  0  0  0
  2 11  1  0  0  0  0
  4  8  1  0  0  0  0
  5  3  1  0  0  0  0
  5 13  1  0  0  0  0
  5  7  1  0  0  0  0
  6  9  1  0  0  0  0
  6 10  2  0  0  0  0
  8 52  1  1  0  0  0
  8  1  1  0  0  0  0
  9  3  1  0  0  0  0
 10 32  1  0  0  0  0
 11  1  1  0  0  0  0
 11 12  1  1  0  0  0
 12  6  1  0  0  0  0
 14 20  2  0  0  0  0
 14 22  1  0  0  0  0
 15 14  1  0  0  0  0
 16 19  1  0  0  0  0
 17 18  1  0  0  0  0
 17 19  1  0  0  0  0
 18 27  1  0  0  0  0
 19 23  2  0  0  0  0
 20 24  1  0  0  0  0
 20 21  1  0  0  0  0
 21 18  2  0  0  0  0
 22 17  2  0  0  0  0
 25 15  2  0  0  0  0
 25 24  1  0  0  0  0
 25 29  1  0  0  0  0
 26 16  1  0  0  0  0
 27 23  1  0  0  0  0
 29 28  1  1  0  0  0
 29 30  1  0  0  0  0
 30 31  1  0  0  0  0
 32 38  1  0  0  0  0
 33 40  1  0  0  0  0
 34 37  1  1  0  0  0
 34 35  1  0  0  0  0
 35 41  1  1  0  0  0
 36 34  1  0  0  0  0
 36 35  1  0  0  0  0
 37 40  1  0  0  0  0
 38 36  1  0  0  0  0
 39 38  1  0  0  0  0
 39 33  1  0  0  0  0
 41 42  1  0  0  0  0
 42 44  1  0  0  0  0
 43 44  2  0  0  0  0
 44 46  1  0  0  0  0
 45 44  2  0  0  0  0
 46 47  1  0  0  0  0
 47 50  1  0  0  0  0
 48 51  1  0  0  0  0
 49 46  1  0  0  0  0
 49 48  2  0  0  0  0
 51 50  1  0  0  0  0
 53 52  1  0  0  0  0
 54 53  1  0  0  0  0
 54 57  1  0  0  0  0
 56 63  1  0  0  0  0
 56 61  2  0  0  0  0
 57 62  1  0  0  0  0
 58 65  2  0  0  0  0
 58 62  1  0  0  0  0
 59 58  1  0  0  0  0
 60 61  1  0  0  0  0
 60 55  2  0  0  0  0
 62 60  1  0  0  0  0
 64 59  1  0  0  0  0
 64 57  1  0  0  0  0
 65 56  1  0  0  0  0
 67 66  1  0  0  0  0
 68 66  1  0  0  0  0
 69 70  1  0  0  0  0
 69 67  1  0  0  0  0
 70 64  1  0  0  0  0
 70 68  1  0  0  0  0
M  END
>  <MODEL>
4

>  <REMARK>
 VINA RESULT:      -6.4      3.403     12.355
  Name = 
  14 active torsions:
  status: ('A' for Active; 'I' for Inactive)
    1  A    between atoms: C_1  and  CA_43
    2  A    between atoms: O_4  and  C_25
    3  A    between atoms: O_4  and  C_65
    4  A    between atoms: C_5  and  S_42
    5  A    between atoms: C_17  and  N_68
    6  A    between atoms: C_26  and  C_69
    7  A    between atoms: C_30  and  C_36
    8  A    between atoms: C_30  and  C_51
    9  A    between atoms: N_32  and  S_42
   10  A    between atoms: N_32  and  C_69
   11  A    between atoms: C_40  and  O_44
   12  A    between atoms: CA_43  and  C_60
   13  A    between atoms: O_44  and  C_65
   14  A    between atoms: N_61  and  C_62
                            x       y       z     vdW  Elec       q    Type
                         _______ _______ _______ _____ _____    ______ ____

>  <TORSDO>
F 14

$$$$
=
 OpenBabel10232410263D

 70 80  0  0  1  0  0  0  0  0999 V2000
  189.4870  176.7550  136.3910 C   0  0  1  0  0  3  0  0  0  0  0  0
  189.2990  178.2600  138.1760 C   0  0  2  0  0  3  0  0  0  0  0  0
  191.2790  175.3930  135.0990 C   0  0  0  0  0  2  0  0  0  0  0  0
  187.9050  178.1110  137.5630 C   0  0  0  0  0  2  0  0  0  0  0  0
  189.8790  175.4080  135.7470 C   0  0  0  0  0  0  0  0  0  0  0  0
  192.5320  176.5310  136.9420 C   0  0  0  0  0  0  0  0  0  0  0  0
  189.7850  174.4040  136.7290 O   0  0  0  0  0  1  0  0  0  0  0  0
  188.2010  177.4970  136.1850 C   0  0  2  0  0  3  0  0  0  0  0  0
  192.1940  176.5560  135.4840 C   0  0  0  0  0  2  0  0  0  0  0  0
  193.7640  176.1800  137.3490 C   0  0  0  0  0  3  0  0  0  0  0  0
  190.1370  177.2600  137.4470 C   0  0  1  0  0  3  0  0  0  0  0  0
  191.4560  176.7460  137.9940 C   0  0  0  0  0  2  0  0  0  0  0  0
  188.9960  175.0690  134.7220 O   0  0  0  0  0  1  0  0  0  0  0  0
  186.7460  178.1650  142.8180 C   0  0  0  0  0  0  0  0  0  0  0  0
  185.8040  178.2370  143.7620 N   0  0  0  0  0  0  0  0  0  0  0  0
  191.0570  176.9130  142.5080 N   0  0  0  0  0  2  0  0  0  0  0  0
  188.8310  177.7560  141.7880 C   0  0  0  0  0  0  0  0  0  0  0  0
  188.3390  178.1700  140.5600 C   0  0  0  0  0  0  0  0  0  0  0  0
  190.1310  177.4110  141.5440 C   0  0  0  0  0  0  0  0  0  0  0  0
  186.2270  178.5820  141.6060 C   0  0  0  0  0  0  0  0  0  0  0  0
  187.0050  178.6030  140.4290 C   0  0  0  0  0  3  0  0  0  0  0  0
  188.0660  177.7300  142.9530 C   0  0  0  0  0  3  0  0  0  0  0  0
  190.4170  177.5930  140.2360 N   0  0  0  0  0  0  0  0  0  0  0  0
  184.9470  178.9680  141.7660 N   0  0  0  0  0  2  0  0  0  0  0  0
  184.7180  178.7210  143.0840 C   0  0  0  0  0  0  0  0  0  0  0  0
  192.3900  176.5040  142.0900 C   0  0  0  0  0  1  0  0  0  0  0  0
  189.3300  178.0460  139.6300 N   0  0  0  0  0  0  0  0  0  0  0  0
  183.3320  178.4110  145.0310 N   0  0  0  0  0  1  0  0  0  0  0  0
  183.4340  179.1020  143.7690 C   0  0  2  0  0  3  0  0  0  0  0  0
  182.1960  178.8040  142.9200 C   0  0  0  0  0  2  0  0  0  0  0  0
  181.0210  179.2160  143.5680 O   0  0  0  0  0  1  0  0  0  0  0  0
  194.8510  175.6120  136.4430 C   0  0  0  0  0  2  0  0  0  0  0  0
  195.2080  172.4620  134.3490 C   0  0  0  0  0  2  0  0  0  0  0  0
  192.7620  172.3490  136.5210 C   0  0  1  0  0  3  0  0  0  0  0  0
  193.8850  172.0790  137.5450 C   0  0  2  0  0  3  0  0  0  0  0  0
  193.6480  173.5100  137.0430 C   0  0  1  0  0  3  0  0  0  0  0  0
  192.8520  172.2270  135.0550 N   0  0  0  0  0  2  0  0  0  0  0  0
  194.8530  174.1040  136.2570 C   0  0  1  0  0  3  0  0  0  0  0  0
  194.8740  173.8950  134.7420 C   0  0  0  0  0  2  0  0  0  0  0  0
  194.0050  171.5100  134.5200 C   0  0  0  0  0  2  0  0  0  0  0  0
  195.0610  171.2190  137.0590 C   0  0  0  0  0  2  0  0  0  0  0  0
  196.2550  171.4050  137.8830 N   0  0  0  0  0  2  0  0  0  0  0  0
  197.2840  170.4190  135.6850 O   0  0  0  0  0  0  0  0  0  0  0  0
  197.6710  170.8200  137.0810 S   0  0  0  0  0  0  0  0  0  0  0  0
  198.2050  169.6150  137.7960 O   0  0  0  0  0  0  0  0  0  0  0  0
  199.0140  172.0230  136.9720 C   0  0  2  0  0  3  0  0  0  0  0  0
  198.4970  173.3880  137.4470 C   0  0  0  0  0  2  0  0  0  0  0  0
  200.0120  173.2270  135.0400 C   0  0  0  0  0  3  0  0  0  0  0  0
  199.5590  172.0910  135.5620 C   0  0  0  0  0  3  0  0  0  0  0  0
  199.5810  174.4380  137.2020 C   0  0  0  0  0  2  0  0  0  0  0  0
  199.9510  174.4460  135.7740 N   0  0  0  0  0  2  0  0  0  0  0  0
  187.1500  176.6590  135.7740 O   0  0  0  0  0  0  0  0  0  0  0  0
  186.0160  177.2220  136.3570 C   0  0  0  0  0  2  0  0  0  0  0  0
  185.4300  176.3800  137.3160 O   0  0  0  0  0  0  0  0  0  0  0  0
  183.5850  178.5860  137.9570 O   0  0  0  0  0  0  0  0  0  0  0  0
  181.1410  176.6670  139.6770 C   0  0  0  0  0  0  0  0  0  0  0  0
  184.1690  175.9810  136.8480 C   0  0  2  0  0  3  0  0  0  0  0  0
  182.4180  175.2860  138.1930 C   0  0  0  0  0  0  0  0  0  0  0  0
  182.8280  174.0380  137.5430 C   0  0  0  0  0  2  0  0  0  0  0  0
  182.9010  177.6020  138.3220 C   0  0  0  0  0  0  0  0  0  0  0  0
  181.9060  177.7760  139.2740 C   0  0  0  0  0  3  0  0  0  0  0  0
  183.1390  176.3550  137.8160 N   0  0  0  0  0  0  0  0  0  0  0  0
  180.1060  176.8270  140.7030 C   0  0  0  0  0  1  0  0  0  0  0  0
  184.1450  174.4350  136.8540 C   0  0  1  0  0  3  0  0  0  0  0  0
  181.3970  175.4050  139.1330 C   0  0  0  0  0  3  0  0  0  0  0  0
  184.3190  171.4370  135.5090 C   0  0  0  0  0  2  0  0  0  0  0  0
  185.6790  171.9500  135.8750 C   0  0  0  0  0  2  0  0  0  0  0  0
  183.4310  172.6640  135.4500 C   0  0  0  0  0  2  0  0  0  0  0  0
  185.6430  173.3600  135.3420 C   0  0  0  0  0  2  0  0  0  0  0  0
  184.2700  173.8610  135.4950 N   0  0  0  0  0  0  0  0  0  0  0  0
  1  5  1  1  0  0  0
  1 11  1  0  0  0  0
  2  4  1  6  0  0  0
  2 27  1  0  0  0  0
  3  9  1  0  0  0  0
  3  5  1  0  0  0  0
  5  7  1  0  0  0  0
  6 10  2  0  0  0  0
  6 12  1  0  0  0  0
  8 52  1  1  0  0  0
  8  1  1  0  0  0  0
  8  4  1  0  0  0  0
  9  6  1  0  0  0  0
 11 12  1  1  0  0  0
 11  2  1  0  0  0  0
 13  5  1  0  0  0  0
 14 22  1  0  0  0  0
 14 15  1  0  0  0  0
 17 22  2  0  0  0  0
 18 17  1  0  0  0  0
 19 17  1  0  0  0  0
 19 16  1  0  0  0  0
 20 24  1  0  0  0  0
 20 14  2  0  0  0  0
 21 18  2  0  0  0  0
 21 20  1  0  0  0  0
 23 19  2  0  0  0  0
 24 25  1  0  0  0  0
 25 15  2  0  0  0  0
 25 29  1  0  0  0  0
 26 16  1  0  0  0  0
 27 23  1  0  0  0  0
 27 18  1  0  0  0  0
 29 28  1  1  0  0  0
 30 31  1  0  0  0  0
 30 29  1  0  0  0  0
 32 10  1  0  0  0  0
 33 40  1  0  0  0  0
 33 39  1  0  0  0  0
 34 37  1  6  0  0  0
 34 36  1  0  0  0  0
 34 35  1  0  0  0  0
 35 41  1  6  0  0  0
 36 35  1  0  0  0  0
 38 32  1  0  0  0  0
 38 36  1  0  0  0  0
 39 38  1  0  0  0  0
 40 37  1  0  0  0  0
 41 42  1  0  0  0  0
 43 44  2  0  0  0  0
 44 45  2  0  0  0  0
 44 42  1  0  0  0  0
 46 44  1  0  0  0  0
 46 47  1  0  0  0  0
 48 49  2  0  0  0  0
 48 51  1  0  0  0  0
 49 46  1  0  0  0  0
 50 47  1  0  0  0  0
 51 50  1  0  0  0  0
 52 53  1  0  0  0  0
 53 54  1  0  0  0  0
 55 60  2  0  0  0  0
 56 63  1  0  0  0  0
 57 64  1  0  0  0  0
 57 54  1  0  0  0  0
 57 62  1  0  0  0  0
 58 65  2  0  0  0  0
 59 58  1  0  0  0  0
 60 61  1  0  0  0  0
 61 56  2  0  0  0  0
 62 58  1  0  0  0  0
 62 60  1  0  0  0  0
 64 59  1  0  0  0  0
 65 56  1  0  0  0  0
 66 67  1  0  0  0  0
 68 70  1  0  0  0  0
 68 66  1  0  0  0  0
 69 70  1  0  0  0  0
 69 67  1  0  0  0  0
 70 64  1  0  0  0  0
M  END
>  <MODEL>
5

>  <REMARK>
 VINA RESULT:      -6.1      1.769      3.761
  Name = 
  14 active torsions:
  status: ('A' for Active; 'I' for Inactive)
    1  A    between atoms: C_1  and  CA_43
    2  A    between atoms: O_4  and  C_25
    3  A    between atoms: O_4  and  C_65
    4  A    between atoms: C_5  and  S_42
    5  A    between atoms: C_17  and  N_68
    6  A    between atoms: C_26  and  C_69
    7  A    between atoms: C_30  and  C_36
    8  A    between atoms: C_30  and  C_51
    9  A    between atoms: N_32  and  S_42
   10  A    between atoms: N_32  and  C_69
   11  A    between atoms: C_40  and  O_44
   12  A    between atoms: CA_43  and  C_60
   13  A    between atoms: O_44  and  C_65
   14  A    between atoms: N_61  and  C_62
                            x       y       z     vdW  Elec       q    Type
                         _______ _______ _______ _____ _____    ______ ____

>  <TORSDO>
F 14

$$$$
=
 OpenBabel10232410263D

 70 80  0  0  1  0  0  0  0  0999 V2000
  190.7250  175.6560  136.0220 C   0  0  1  0  0  3  0  0  0  0  0  0
  189.7230  174.1750  134.5100 C   0  0  2  0  0  3  0  0  0  0  0  0
  190.0940  177.4880  137.7500 C   0  0  0  0  0  2  0  0  0  0  0  0
  191.2380  174.0290  134.3480 C   0  0  0  0  0  2  0  0  0  0  0  0
  190.9660  176.2570  137.4240 C   0  0  0  0  0  0  0  0  0  0  0  0
  187.9080  176.6020  136.9130 C   0  0  0  0  0  0  0  0  0  0  0  0
  190.7590  175.2460  138.3800 O   0  0  0  0  0  1  0  0  0  0  0  0
  191.7780  175.3050  135.0150 C   0  0  2  0  0  3  0  0  0  0  0  0
  188.9040  177.7160  136.8170 C   0  0  0  0  0  2  0  0  0  0  0  0
  186.7280  176.7960  137.5270 C   0  0  0  0  0  3  0  0  0  0  0  0
  189.5590  175.1000  135.6720 C   0  0  1  0  0  3  0  0  0  0  0  0
  188.2680  175.1950  136.4640 C   0  0  0  0  0  2  0  0  0  0  0  0
  192.2830  176.6940  137.5610 O   0  0  0  0  0  1  0  0  0  0  0  0
  185.1790  171.4780  134.8970 C   0  0  0  0  0  0  0  0  0  0  0  0
  183.8850  171.1490  134.9260 N   0  0  0  0  0  0  0  0  0  0  0  0
  189.1520  169.3700  135.0170 N   0  0  0  0  0  2  0  0  0  0  0  0
  187.5290  171.2500  134.8930 C   0  0  0  0  0  0  0  0  0  0  0  0
  187.6920  172.6220  134.7800 C   0  0  0  0  0  0  0  0  0  0  0  0
  188.8000  170.7490  134.9180 C   0  0  0  0  0  0  0  0  0  0  0  0
  185.3100  172.8500  134.7820 C   0  0  0  0  0  0  0  0  0  0  0  0
  186.5730  173.4760  134.7220 C   0  0  0  0  0  3  0  0  0  0  0  0
  186.2840  170.6260  134.9500 C   0  0  0  0  0  3  0  0  0  0  0  0
  189.6940  171.7580  134.8150 N   0  0  0  0  0  0  0  0  0  0  0  0
  184.0930  173.4270  134.7770 N   0  0  0  0  0  2  0  0  0  0  0  0
  183.2520  172.3600  134.8430 C   0  0  0  0  0  0  0  0  0  0  0  0
  190.5510  168.9710  134.9470 C   0  0  0  0  0  1  0  0  0  0  0  0
  189.0270  172.8980  134.7230 N   0  0  0  0  0  0  0  0  0  0  0  0
  181.4280  173.8980  135.1870 N   0  0  0  0  0  1  0  0  0  0  0  0
  181.7610  172.5100  134.9760 C   0  0  2  0  0  3  0  0  0  0  0  0
  181.1770  171.6650  136.1100 C   0  0  0  0  0  2  0  0  0  0  0  0
  181.2570  172.3360  137.3400 O   0  0  0  0  0  1  0  0  0  0  0  0
  186.3560  178.0410  138.3230 C   0  0  0  0  0  2  0  0  0  0  0  0
  184.7960  178.0340  141.7870 C   0  0  0  0  0  2  0  0  0  0  0  0
  187.6810  179.5720  141.6270 C   0  0  1  0  0  3  0  0  0  0  0  0
  188.2700  178.1450  141.6320 C   0  0  2  0  0  3  0  0  0  0  0  0
  187.6650  178.7080  140.3390 C   0  0  1  0  0  3  0  0  0  0  0  0
  186.3170  179.9670  142.0200 N   0  0  0  0  0  2  0  0  0  0  0  0
  186.4210  177.9200  139.8360 C   0  0  1  0  0  3  0  0  0  0  0  0
  185.0500  178.3870  140.3270 C   0  0  0  0  0  2  0  0  0  0  0  0
  185.5290  178.9850  142.7570 C   0  0  0  0  0  2  0  0  0  0  0  0
  187.5420  177.1070  142.4990 C   0  0  0  0  0  2  0  0  0  0  0  0
  188.4690  176.1650  143.1250 N   0  0  0  0  0  2  0  0  0  0  0  0
  189.6270  178.3580  143.9670 O   0  0  0  0  0  0  0  0  0  0  0  0
  189.3980  176.9270  144.3680 S   0  0  0  0  0  0  0  0  0  0  0  0
  190.7280  176.2480  144.5040 O   0  0  0  0  0  0  0  0  0  0  0  0
  188.6150  176.9150  145.9950 C   0  0  2  0  0  3  0  0  0  0  0  0
  187.4670  177.9320  146.0020 C   0  0  0  0  0  2  0  0  0  0  0  0
  189.3040  177.8850  148.1780 C   0  0  0  0  0  3  0  0  0  0  0  0
  189.6290  177.2080  147.0800 C   0  0  0  0  0  3  0  0  0  0  0  0
  186.9100  178.0390  147.4220 C   0  0  0  0  0  2  0  0  0  0  0  0
  187.9930  178.4120  148.3520 N   0  0  0  0  0  2  0  0  0  0  0  0
  193.0340  175.0700  135.6000 O   0  0  0  0  0  0  0  0  0  0  0  0
  192.9820  173.7350  135.9980 C   0  0  0  0  0  2  0  0  0  0  0  0
  193.6330  173.5140  137.2230 O   0  0  0  0  0  0  0  0  0  0  0  0
  196.0680  174.8280  138.2360 O   0  0  0  0  0  0  0  0  0  0  0  0
  198.0540  174.4470  135.3160 C   0  0  0  0  0  0  0  0  0  0  0  0
  194.6820  172.6050  137.0120 C   0  0  2  0  0  3  0  0  0  0  0  0
  196.3030  172.8140  135.3730 C   0  0  0  0  0  0  0  0  0  0  0  0
  195.5020  171.6890  134.8810 C   0  0  0  0  0  2  0  0  0  0  0  0
  196.4890  174.3720  137.1470 C   0  0  0  0  0  0  0  0  0  0  0  0
  197.5850  174.9650  136.5360 C   0  0  0  0  0  3  0  0  0  0  0  0
  195.8680  173.3170  136.5400 N   0  0  0  0  0  0  0  0  0  0  0  0
  199.1920  175.0790  134.6420 C   0  0  0  0  0  1  0  0  0  0  0  0
  194.2810  171.7100  135.8170 C   0  0  1  0  0  3  0  0  0  0  0  0
  197.4080  173.3590  134.7230 C   0  0  0  0  0  3  0  0  0  0  0  0
  195.6840  169.0860  137.2210 C   0  0  0  0  0  2  0  0  0  0  0  0
  195.8140  169.0410  135.7280 C   0  0  0  0  0  2  0  0  0  0  0  0
  194.5540  170.0590  137.4940 C   0  0  0  0  0  2  0  0  0  0  0  0
  194.4200  169.3920  135.2740 C   0  0  0  0  0  2  0  0  0  0  0  0
  193.8650  170.3530  136.2380 N   0  0  0  0  0  0  0  0  0  0  0  0
  1  5  1  1  0  0  0
  2  4  1  1  0  0  0
  2 27  1  0  0  0  0
  2 11  1  0  0  0  0
  4  8  1  0  0  0  0
  5 13  1  0  0  0  0
  5  3  1  0  0  0  0
  5  7  1  0  0  0  0
  6 10  2  0  0  0  0
  8 52  1  1  0  0  0
  8  1  1  0  0  0  0
  9  6  1  0  0  0  0
  9  3  1  0  0  0  0
 10 32  1  0  0  0  0
 11  1  1  0  0  0  0
 11 12  1  1  0  0  0
 12  6  1  0  0  0  0
 14 15  1  0  0  0  0
 14 22  1  0  0  0  0
 17 19  1  0  0  0  0
 17 22  2  0  0  0  0
 18 17  1  0  0  0  0
 19 16  1  0  0  0  0
 20 14  2  0  0  0  0
 21 18  2  0  0  0  0
 21 20  1  0  0  0  0
 23 19  2  0  0  0  0
 24 20  1  0  0  0  0
 24 25  1  0  0  0  0
 25 15  2  0  0  0  0
 25 29  1  0  0  0  0
 26 16  1  0  0  0  0
 27 18  1  0  0  0  0
 27 23  1  0  0  0  0
 29 28  1  1  0  0  0
 29 30  1  0  0  0  0
 30 31  1  0  0  0  0
 32 38  1  0  0  0  0
 33 40  1  0  0  0  0
 34 35  1  0  0  0  0
 34 37  1  1  0  0  0
 35 41  1  1  0  0  0
 36 34  1  0  0  0  0
 36 35  1  0  0  0  0
 37 40  1  0  0  0  0
 38 39  1  0  0  0  0
 38 36  1  0  0  0  0
 39 33  1  0  0  0  0
 41 42  1  0  0  0  0
 42 44  1  0  0  0  0
 43 44  2  0  0  0  0
 44 45  2  0  0  0  0
 44 46  1  0  0  0  0
 46 47  1  0  0  0  0
 46 49  1  0  0  0  0
 47 50  1  0  0  0  0
 48 51  1  0  0  0  0
 49 48  2  0  0  0  0
 50 51  1  0  0  0  0
 52 53  1  0  0  0  0
 53 54  1  0  0  0  0
 56 61  2  0  0  0  0
 57 54  1  0  0  0  0
 58 62  1  0  0  0  0
 59 58  1  0  0  0  0
 59 64  1  0  0  0  0
 60 55  2  0  0  0  0
 61 60  1  0  0  0  0
 62 57  1  0  0  0  0
 62 60  1  0  0  0  0
 63 56  1  0  0  0  0
 64 70  1  0  0  0  0
 64 57  1  0  0  0  0
 65 56  1  0  0  0  0
 65 58  2  0  0  0  0
 66 68  1  0  0  0  0
 67 66  1  0  0  0  0
 69 67  1  0  0  0  0
 69 70  1  0  0  0  0
 70 68  1  0  0  0  0
M  END
>  <MODEL>
6

>  <REMARK>
 VINA RESULT:      -5.8      3.406     11.542
  Name = 
  14 active torsions:
  status: ('A' for Active; 'I' for Inactive)
    1  A    between atoms: C_1  and  CA_43
    2  A    between atoms: O_4  and  C_25
    3  A    between atoms: O_4  and  C_65
    4  A    between atoms: C_5  and  S_42
    5  A    between atoms: C_17  and  N_68
    6  A    between atoms: C_26  and  C_69
    7  A    between atoms: C_30  and  C_36
    8  A    between atoms: C_30  and  C_51
    9  A    between atoms: N_32  and  S_42
   10  A    between atoms: N_32  and  C_69
   11  A    between atoms: C_40  and  O_44
   12  A    between atoms: CA_43  and  C_60
   13  A    between atoms: O_44  and  C_65
   14  A    between atoms: N_61  and  C_62
                            x       y       z     vdW  Elec       q    Type
                         _______ _______ _______ _____ _____    ______ ____

>  <TORSDO>
F 14

$$$$
=
 OpenBabel10232410263D

 70 80  0  0  1  0  0  0  0  0999 V2000
  190.7080  175.4570  135.8730 C   0  0  1  0  0  3  0  0  0  0  0  0
  189.8710  173.8480  134.3910 C   0  0  2  0  0  3  0  0  0  0  0  0
  189.8900  177.3650  137.4300 C   0  0  0  0  0  2  0  0  0  0  0  0
  191.3980  173.7510  134.3460 C   0  0  0  0  0  2  0  0  0  0  0  0
  190.8250  176.1520  137.2460 C   0  0  0  0  0  0  0  0  0  0  0  0
  187.8030  176.3460  136.4990 C   0  0  0  0  0  0  0  0  0  0  0  0
  190.5830  175.1940  138.2490 O   0  0  0  0  0  1  0  0  0  0  0  0
  191.8430  175.0860  134.9670 C   0  0  2  0  0  3  0  0  0  0  0  0
  188.7640  177.4890  136.4030 C   0  0  0  0  0  2  0  0  0  0  0  0
  186.5750  176.5310  137.0140 C   0  0  0  0  0  3  0  0  0  0  0  0
  189.5910  174.8360  135.4770 C   0  0  1  0  0  3  0  0  0  0  0  0
  188.2420  174.9290  136.1670 C   0  0  0  0  0  2  0  0  0  0  0  0
  192.1130  176.6470  137.4480 O   0  0  0  0  0  1  0  0  0  0  0  0
  185.3970  171.0290  134.7270 C   0  0  0  0  0  0  0  0  0  0  0  0
  184.1140  170.6600  134.7220 N   0  0  0  0  0  0  0  0  0  0  0  0
  189.4240  169.0550  135.0960 N   0  0  0  0  0  2  0  0  0  0  0  0
  187.7520  170.8750  134.8240 C   0  0  0  0  0  0  0  0  0  0  0  0
  187.8780  172.2450  134.6550 C   0  0  0  0  0  0  0  0  0  0  0  0
  189.0350  170.4160  134.9200 C   0  0  0  0  0  0  0  0  0  0  0  0
  185.4920  172.3980  134.5550 C   0  0  0  0  0  0  0  0  0  0  0  0
  186.7370  173.0600  134.5150 C   0  0  0  0  0  3  0  0  0  0  0  0
  186.5240  170.2150  134.8610 C   0  0  0  0  0  3  0  0  0  0  0  0
  189.9020  171.4470  134.8050 N   0  0  0  0  0  0  0  0  0  0  0  0
  184.2600  172.9350  134.4780 N   0  0  0  0  0  2  0  0  0  0  0  0
  183.4480  171.8460  134.5590 C   0  0  0  0  0  0  0  0  0  0  0  0
  190.8350  168.6980  135.0970 C   0  0  0  0  0  1  0  0  0  0  0  0
  189.2050  172.5600  134.6350 N   0  0  0  0  0  0  0  0  0  0  0  0
  181.5780  173.2660  135.1020 N   0  0  0  0  0  1  0  0  0  0  0  0
  181.9500  171.9540  134.6280 C   0  0  2  0  0  3  0  0  0  0  0  0
  181.3170  170.8880  135.5250 C   0  0  0  0  0  2  0  0  0  0  0  0
  181.0160  171.4010  136.7950 O   0  0  0  0  0  1  0  0  0  0  0  0
  186.1030  177.8080  137.7010 C   0  0  0  0  0  2  0  0  0  0  0  0
  182.7920  176.3140  138.8150 C   0  0  0  0  0  2  0  0  0  0  0  0
  183.0540  179.5310  139.3570 C   0  0  1  0  0  3  0  0  0  0  0  0
  183.9210  179.1050  140.5610 C   0  0  2  0  0  3  0  0  0  0  0  0
  184.5240  179.0840  139.1500 C   0  0  1  0  0  3  0  0  0  0  0  0
  182.1250  178.6820  138.5910 N   0  0  0  0  0  2  0  0  0  0  0  0
  184.9410  177.6630  138.6690 C   0  0  1  0  0  3  0  0  0  0  0  0
  183.8960  176.8460  137.9100 C   0  0  0  0  0  2  0  0  0  0  0  0
  181.7580  177.4000  139.1820 C   0  0  0  0  0  2  0  0  0  0  0  0
  183.4920  177.8240  141.2930 C   0  0  0  0  0  2  0  0  0  0  0  0
  183.7170  177.9130  142.7350 N   0  0  0  0  0  2  0  0  0  0  0  0
  185.0760  180.0430  143.4240 O   0  0  0  0  0  0  0  0  0  0  0  0
  185.2680  178.5900  143.0910 S   0  0  0  0  0  0  0  0  0  0  0  0
  186.1610  178.4860  141.8910 O   0  0  0  0  0  0  0  0  0  0  0  0
  186.1240  177.8010  144.4720 C   0  0  2  0  0  3  0  0  0  0  0  0
  186.0630  178.7330  145.6900 C   0  0  0  0  0  2  0  0  0  0  0  0
  188.5390  177.5150  144.9830 C   0  0  0  0  0  3  0  0  0  0  0  0
  187.5500  177.4640  144.0950 C   0  0  0  0  0  3  0  0  0  0  0  0
  186.9240  178.1410  146.8060 C   0  0  0  0  0  2  0  0  0  0  0  0
  188.3030  177.9460  146.3190 N   0  0  0  0  0  2  0  0  0  0  0  0
  193.0610  174.9360  135.6540 O   0  0  0  0  0  0  0  0  0  0  0  0
  193.2760  173.5600  135.6720 C   0  0  0  0  0  2  0  0  0  0  0  0
  194.4810  173.1970  135.0480 O   0  0  0  0  0  0  0  0  0  0  0  0
  195.3640  170.4260  134.5710 O   0  0  0  0  0  0  0  0  0  0  0  0
  194.7740  169.1780  137.8430 C   0  0  0  0  0  0  0  0  0  0  0  0
  195.4310  172.9140  136.0410 C   0  0  2  0  0  3  0  0  0  0  0  0
  195.0590  171.5560  137.8780 C   0  0  0  0  0  0  0  0  0  0  0  0
  195.1240  172.8900  138.4830 C   0  0  0  0  0  2  0  0  0  0  0  0
  195.2000  170.4040  135.8130 C   0  0  0  0  0  0  0  0  0  0  0  0
  194.9540  169.1950  136.4490 C   0  0  0  0  0  3  0  0  0  0  0  0
  195.2330  171.5570  136.5460 N   0  0  0  0  0  0  0  0  0  0  0  0
  194.4840  167.9140  138.5270 C   0  0  0  0  0  1  0  0  0  0  0  0
  195.1070  173.8170  137.2550 C   0  0  1  0  0  3  0  0  0  0  0  0
  194.8250  170.3700  138.5700 C   0  0  0  0  0  3  0  0  0  0  0  0
  198.3310  174.3300  136.8390 C   0  0  0  0  0  2  0  0  0  0  0  0
  198.0260  173.8720  138.2340 C   0  0  0  0  0  2  0  0  0  0  0  0
  197.0130  174.8420  136.2900 C   0  0  0  0  0  2  0  0  0  0  0  0
  196.8460  174.7340  138.6040 C   0  0  0  0  0  2  0  0  0  0  0  0
  196.0510  174.9490  137.3860 N   0  0  0  0  0  0  0  0  0  0  0  0
  1  5  1  1  0  0  0
  2  4  1  1  0  0  0
  2 27  1  0  0  0  0
  2 11  1  0  0  0  0
  4  8  1  0  0  0  0
  5  3  1  0  0  0  0
  5 13  1  0  0  0  0
  5  7  1  0  0  0  0
  6 10  2  0  0  0  0
  8 52  1  1  0  0  0
  8  1  1  0  0  0  0
  9  6  1  0  0  0  0
  9  3  1  0  0  0  0
 10 32  1  0  0  0  0
 11  1  1  0  0  0  0
 11 12  1  1  0  0  0
 12  6  1  0  0  0  0
 14 22  1  0  0  0  0
 15 14  1  0  0  0  0
 16 26  1  0  0  0  0
 17 22  2  0  0  0  0
 17 19  1  0  0  0  0
 18 17  1  0  0  0  0
 19 16  1  0  0  0  0
 20 14  2  0  0  0  0
 21 20  1  0  0  0  0
 21 18  2  0  0  0  0
 23 19  2  0  0  0  0
 24 20  1  0  0  0  0
 24 25  1  0  0  0  0
 25 29  1  0  0  0  0
 25 15  2  0  0  0  0
 27 18  1  0  0  0  0
 27 23  1  0  0  0  0
 29 28  1  1  0  0  0
 29 30  1  0  0  0  0
 30 31  1  0  0  0  0
 32 38  1  0  0  0  0
 33 40  1  0  0  0  0
 34 37  1  6  0  0  0
 34 35  1  0  0  0  0
 35 41  1  6  0  0  0
 36 34  1  0  0  0  0
 36 35  1  0  0  0  0
 37 40  1  0  0  0  0
 38 36  1  0  0  0  0
 39 38  1  0  0  0  0
 39 33  1  0  0  0  0
 41 42  1  0  0  0  0
 42 44  1  0  0  0  0
 44 43  2  0  0  0  0
 44 46  1  0  0  0  0
 45 44  2  0  0  0  0
 46 47  1  0  0  0  0
 47 50  1  0  0  0  0
 48 51  1  0  0  0  0
 49 46  1  0  0  0  0
 49 48  2  0  0  0  0
 51 50  1  0  0  0  0
 52 53  1  0  0  0  0
 54 53  1  0  0  0  0
 54 57  1  0  0  0  0
 55 60  2  0  0  0  0
 56 63  1  0  0  0  0
 56 65  1  0  0  0  0
 57 62  1  0  0  0  0
 57 64  1  0  0  0  0
 58 59  1  0  0  0  0
 58 65  2  0  0  0  0
 60 61  1  0  0  0  0
 60 62  1  0  0  0  0
 61 56  2  0  0  0  0
 62 58  1  0  0  0  0
 64 70  1  0  0  0  0
 64 59  1  0  0  0  0
 66 67  1  0  0  0  0
 67 69  1  0  0  0  0
 68 66  1  0  0  0  0
 68 70  1  0  0  0  0
 70 69  1  0  0  0  0
M  END
>  <MODEL>
7

>  <REMARK>
 VINA RESULT:      -5.7      3.367     11.886
  Name = 
  14 active torsions:
  status: ('A' for Active; 'I' for Inactive)
    1  A    between atoms: C_1  and  CA_43
    2  A    between atoms: O_4  and  C_25
    3  A    between atoms: O_4  and  C_65
    4  A    between atoms: C_5  and  S_42
    5  A    between atoms: C_17  and  N_68
    6  A    between atoms: C_26  and  C_69
    7  A    between atoms: C_30  and  C_36
    8  A    between atoms: C_30  and  C_51
    9  A    between atoms: N_32  and  S_42
   10  A    between atoms: N_32  and  C_69
   11  A    between atoms: C_40  and  O_44
   12  A    between atoms: CA_43  and  C_60
   13  A    between atoms: O_44  and  C_65
   14  A    between atoms: N_61  and  C_62
                            x       y       z     vdW  Elec       q    Type
                         _______ _______ _______ _____ _____    ______ ____

>  <TORSDO>
F 14

$$$$
=
 OpenBabel10232410263D

 70 80  0  0  1  0  0  0  0  0999 V2000
  188.4950  176.8990  137.0900 C   0  0  1  0  0  3  0  0  0  0  0  0
  189.5640  175.9550  138.9470 C   0  0  2  0  0  3  0  0  0  0  0  0
  186.3960  178.3000  136.4830 C   0  0  0  0  0  2  0  0  0  0  0  0
  190.3550  175.5310  137.7080 C   0  0  0  0  0  2  0  0  0  0  0  0
  187.9070  178.0700  136.2730 C   0  0  0  0  0  0  0  0  0  0  0  0
  186.3550  178.1140  138.9780 C   0  0  0  0  0  0  0  0  0  0  0  0
  188.6260  179.2370  136.5920 O   0  0  0  0  0  1  0  0  0  0  0  0
  189.3650  175.7990  136.5620 C   0  0  2  0  0  3  0  0  0  0  0  0
  185.7860  177.5940  137.6950 C   0  0  0  0  0  2  0  0  0  0  0  0
  185.6140  178.8950  139.7840 C   0  0  0  0  0  3  0  0  0  0  0  0
  188.5380  176.9090  138.4270 C   0  0  1  0  0  3  0  0  0  0  0  0
  187.8210  177.9040  139.3220 C   0  0  0  0  0  2  0  0  0  0  0  0
  188.0590  177.8510  134.9050 O   0  0  0  0  0  1  0  0  0  0  0  0
  190.0540  177.6760  143.9350 C   0  0  0  0  0  0  0  0  0  0  0  0
  189.8110  177.9900  145.2100 N   0  0  0  0  0  0  0  0  0  0  0  0
  193.5780  177.6200  141.1370 N   0  0  0  0  0  2  0  0  0  0  0  0
  191.2330  177.3410  141.9160 C   0  0  0  0  0  0  0  0  0  0  0  0
  190.0820  176.8970  141.2830 C   0  0  0  0  0  0  0  0  0  0  0  0
  192.2060  177.2710  140.9590 C   0  0  0  0  0  0  0  0  0  0  0  0
  188.8910  177.2360  143.3310 C   0  0  0  0  0  0  0  0  0  0  0  0
  188.8590  176.8300  141.9800 C   0  0  0  0  0  3  0  0  0  0  0  0
  191.2710  177.7390  143.2520 C   0  0  0  0  0  3  0  0  0  0  0  0
  191.6830  176.7990  139.8050 N   0  0  0  0  0  0  0  0  0  0  0  0
  187.8700  177.2990  144.2060 N   0  0  0  0  0  2  0  0  0  0  0  0
  188.4720  177.7400  145.3440 C   0  0  0  0  0  0  0  0  0  0  0  0
  194.5250  177.4140  140.0500 C   0  0  0  0  0  1  0  0  0  0  0  0
  190.3950  176.5610  139.9980 N   0  0  0  0  0  0  0  0  0  0  0  0
  188.1740  177.2680  147.6890 N   0  0  0  0  0  1  0  0  0  0  0  0
  187.7010  178.0770  146.5910 C   0  0  2  0  0  3  0  0  0  0  0  0
  186.1920  177.8860  146.4270 C   0  0  0  0  0  2  0  0  0  0  0  0
  185.5000  178.2720  147.5850 O   0  0  0  0  0  1  0  0  0  0  0  0
  184.2510  179.4740  139.4220 C   0  0  0  0  0  2  0  0  0  0  0  0
  181.3230  178.4820  137.2130 C   0  0  0  0  0  2  0  0  0  0  0  0
  181.1190  177.3620  140.2820 C   0  0  1  0  0  3  0  0  0  0  0  0
  182.1410  176.3080  139.8050 C   0  0  2  0  0  3  0  0  0  0  0  0
  182.6190  177.7280  140.1350 C   0  0  1  0  0  3  0  0  0  0  0  0
  180.2750  178.2230  139.4350 N   0  0  0  0  0  2  0  0  0  0  0  0
  183.2120  178.4880  138.9140 C   0  0  1  0  0  3  0  0  0  0  0  0
  182.2490  179.3300  138.0760 C   0  0  0  0  0  2  0  0  0  0  0  0
  180.1660  177.8640  138.0260 C   0  0  0  0  0  2  0  0  0  0  0  0
  181.9830  175.8070  138.3610 C   0  0  0  0  0  2  0  0  0  0  0  0
  181.5430  174.4130  138.3080 N   0  0  0  0  0  2  0  0  0  0  0  0
  181.6860  174.3950  135.6930 O   0  0  0  0  0  0  0  0  0  0  0  0
  182.1420  173.6170  136.8950 S   0  0  0  0  0  0  0  0  0  0  0  0
  181.5810  172.2290  136.8110 O   0  0  0  0  0  0  0  0  0  0  0  0
  183.9420  173.4770  136.8280 C   0  0  2  0  0  3  0  0  0  0  0  0
  184.4620  174.3240  135.6600 C   0  0  0  0  0  2  0  0  0  0  0  0
  185.4370  171.6700  136.0040 C   0  0  0  0  0  3  0  0  0  0  0  0
  184.3620  172.0290  136.7000 C   0  0  0  0  0  3  0  0  0  0  0  0
  185.9630  174.0780  135.5030 C   0  0  0  0  0  2  0  0  0  0  0  0
  186.2110  172.6380  135.3020 N   0  0  0  0  0  2  0  0  0  0  0  0
  190.0470  176.1600  135.3870 O   0  0  0  0  0  0  0  0  0  0  0  0
  190.3240  174.9450  134.7650 C   0  0  0  0  0  2  0  0  0  0  0  0
  191.1930  174.1410  135.5200 O   0  0  0  0  0  0  0  0  0  0  0  0
  189.7830  171.8350  134.3460 O   0  0  0  0  0  0  0  0  0  0  0  0
  192.2050  169.3580  135.1280 C   0  0  0  0  0  0  0  0  0  0  0  0
  192.1060  173.5290  134.6480 C   0  0  2  0  0  3  0  0  0  0  0  0
  193.2030  171.5340  135.0660 C   0  0  0  0  0  0  0  0  0  0  0  0
  194.2850  172.5170  135.1820 C   0  0  0  0  0  2  0  0  0  0  0  0
  190.8870  171.3110  134.6250 C   0  0  0  0  0  0  0  0  0  0  0  0
  190.9620  169.9390  134.8180 C   0  0  0  0  0  3  0  0  0  0  0  0
  192.0110  172.0760  134.7670 N   0  0  0  0  0  0  0  0  0  0  0  0
  192.2980  167.9140  135.3640 C   0  0  0  0  0  1  0  0  0  0  0  0
  193.5260  173.8560  135.1660 C   0  0  1  0  0  3  0  0  0  0  0  0
  193.3410  170.1610  135.2550 C   0  0  0  0  0  3  0  0  0  0  0  0
  195.5560  176.3940  135.6800 C   0  0  0  0  0  2  0  0  0  0  0  0
  194.1200  176.8150  135.7760 C   0  0  0  0  0  2  0  0  0  0  0  0
  195.5370  175.0830  134.9180 C   0  0  0  0  0  2  0  0  0  0  0  0
  193.5130  176.1620  134.5600 C   0  0  0  0  0  2  0  0  0  0  0  0
  194.2060  174.8840  134.3460 N   0  0  0  0  0  0  0  0  0  0  0  0
  1  5  1  6  0  0  0
  1 11  1  0  0  0  0
  2  4  1  6  0  0  0
  2 27  1  0  0  0  0
  3  9  1  0  0  0  0
  5  3  1  0  0  0  0
  5  7  1  0  0  0  0
  6 12  1  0  0  0  0
  6 10  2  0  0  0  0
  8 52  1  6  0  0  0
  8  1  1  0  0  0  0
  8  4  1  0  0  0  0
  9  6  1  0  0  0  0
 11  2  1  0  0  0  0
 11 12  1  6  0  0  0
 13  5  1  0  0  0  0
 14 15  1  0  0  0  0
 15 25  2  0  0  0  0
 17 22  1  0  0  0  0
 18 17  2  0  0  0  0
 18 21  1  0  0  0  0
 19 16  1  0  0  0  0
 19 17  1  0  0  0  0
 20 14  1  0  0  0  0
 20 24  1  0  0  0  0
 21 20  2  0  0  0  0
 22 14  2  0  0  0  0
 23 27  1  0  0  0  0
 23 19  2  0  0  0  0
 24 25  1  0  0  0  0
 25 29  1  0  0  0  0
 26 16  1  0  0  0  0
 27 18  1  0  0  0  0
 29 28  1  1  0  0  0
 30 29  1  0  0  0  0
 30 31  1  0  0  0  0
 32 10  1  0  0  0  0
 33 40  1  0  0  0  0
 33 39  1  0  0  0  0
 34 37  1  6  0  0  0
 35 41  1  6  0  0  0
 35 36  1  0  0  0  0
 35 34  1  0  0  0  0
 36 34  1  0  0  0  0
 38 32  1  0  0  0  0
 38 36  1  0  0  0  0
 39 38  1  0  0  0  0
 40 37  1  0  0  0  0
 42 41  1  0  0  0  0
 43 44  2  0  0  0  0
 44 42  1  0  0  0  0
 45 44  2  0  0  0  0
 46 44  1  0  0  0  0
 47 46  1  0  0  0  0
 48 49  2  0  0  0  0
 49 46  1  0  0  0  0
 50 47  1  0  0  0  0
 51 50  1  0  0  0  0
 51 48  1  0  0  0  0
 53 52  1  0  0  0  0
 53 54  1  0  0  0  0
 55 60  2  0  0  0  0
 56 65  1  0  0  0  0
 56 63  1  0  0  0  0
 57 62  1  0  0  0  0
 57 64  1  0  0  0  0
 57 54  1  0  0  0  0
 58 59  1  0  0  0  0
 58 65  2  0  0  0  0
 60 62  1  0  0  0  0
 60 61  1  0  0  0  0
 61 56  2  0  0  0  0
 62 58  1  0  0  0  0
 64 59  1  0  0  0  0
 66 67  1  0  0  0  0
 68 66  1  0  0  0  0
 69 67  1  0  0  0  0
 70 69  1  0  0  0  0
 70 68  1  0  0  0  0
 70 64  1  0  0  0  0
M  END
>  <MODEL>
8

>  <REMARK>
 VINA RESULT:      -5.5      3.342      9.905
  Name = 
  14 active torsions:
  status: ('A' for Active; 'I' for Inactive)
    1  A    between atoms: C_1  and  CA_43
    2  A    between atoms: O_4  and  C_25
    3  A    between atoms: O_4  and  C_65
    4  A    between atoms: C_5  and  S_42
    5  A    between atoms: C_17  and  N_68
    6  A    between atoms: C_26  and  C_69
    7  A    between atoms: C_30  and  C_36
    8  A    between atoms: C_30  and  C_51
    9  A    between atoms: N_32  and  S_42
   10  A    between atoms: N_32  and  C_69
   11  A    between atoms: C_40  and  O_44
   12  A    between atoms: CA_43  and  C_60
   13  A    between atoms: O_44  and  C_65
   14  A    between atoms: N_61  and  C_62
                            x       y       z     vdW  Elec       q    Type
                         _______ _______ _______ _____ _____    ______ ____

>  <TORSDO>
F 14

$$$$
=
 OpenBabel10232410263D

 70 80  0  0  1  0  0  0  0  0999 V2000
  187.8940  177.1270  137.3230 C   0  0  1  0  0  3  0  0  0  0  0  0
  189.1150  176.1150  139.0460 C   0  0  2  0  0  3  0  0  0  0  0  0
  185.7730  178.5780  136.9550 C   0  0  0  0  0  2  0  0  0  0  0  0
  189.7780  175.7120  137.7270 C   0  0  0  0  0  2  0  0  0  0  0  0
  187.2530  178.3300  136.5970 C   0  0  0  0  0  0  0  0  0  0  0  0
  185.9640  178.3240  139.4370 C   0  0  0  0  0  0  0  0  0  0  0  0
  188.0210  179.4760  136.8760 O   0  0  0  0  0  1  0  0  0  0  0  0
  188.6890  176.0280  136.6870 C   0  0  2  0  0  3  0  0  0  0  0  0
  185.2670  177.8490  138.2010 C   0  0  0  0  0  2  0  0  0  0  0  0
  185.3180  179.0940  140.3290 C   0  0  0  0  0  3  0  0  0  0  0  0
  188.0630  177.1000  138.6510 C   0  0  1  0  0  3  0  0  0  0  0  0
  187.4520  178.0810  139.6340 C   0  0  0  0  0  2  0  0  0  0  0  0
  187.2700  178.1450  135.2150 O   0  0  0  0  0  1  0  0  0  0  0  0
  190.1050  177.6920  144.0070 C   0  0  0  0  0  0  0  0  0  0  0  0
  189.9900  177.9750  145.3060 N   0  0  0  0  0  0  0  0  0  0  0  0
  193.3480  177.6530  140.8880 N   0  0  0  0  0  2  0  0  0  0  0  0
  191.0820  177.3920  141.8780 C   0  0  0  0  0  0  0  0  0  0  0  0
  189.8690  176.9840  141.3460 C   0  0  0  0  0  0  0  0  0  0  0  0
  191.9590  177.3320  140.8310 C   0  0  0  0  0  0  0  0  0  0  0  0
  188.8820  177.2870  143.5050 C   0  0  0  0  0  0  0  0  0  0  0  0
  188.7160  176.9200  142.1530 C   0  0  0  0  0  3  0  0  0  0  0  0
  191.2530  177.7530  143.2130 C   0  0  0  0  0  3  0  0  0  0  0  0
  191.3210  176.9000  139.7210 N   0  0  0  0  0  0  0  0  0  0  0  0
  187.9490  177.3440  144.4740 N   0  0  0  0  0  2  0  0  0  0  0  0
  188.6640  177.7440  145.5600 C   0  0  0  0  0  0  0  0  0  0  0  0
  194.1850  177.4610  139.7110 C   0  0  0  0  0  1  0  0  0  0  0  0
  190.0520  176.6790  140.0290 N   0  0  0  0  0  0  0  0  0  0  0  0
  188.5680  177.2030  147.9070 N   0  0  0  0  0  1  0  0  0  0  0  0
  188.0210  178.0600  146.8830 C   0  0  2  0  0  3  0  0  0  0  0  0
  186.4980  177.9150  146.8530 C   0  0  0  0  0  2  0  0  0  0  0  0
  185.8630  179.1320  147.1440 O   0  0  0  0  0  1  0  0  0  0  0  0
  183.9370  179.7050  140.1130 C   0  0  0  0  0  2  0  0  0  0  0  0
  181.1890  179.2830  137.5240 C   0  0  0  0  0  2  0  0  0  0  0  0
  180.7760  177.4670  140.2170 C   0  0  1  0  0  3  0  0  0  0  0  0
  181.8420  176.5510  139.5790 C   0  0  2  0  0  3  0  0  0  0  0  0
  182.2780  177.8490  140.2710 C   0  0  1  0  0  3  0  0  0  0  0  0
  179.9850  178.5100  139.5390 N   0  0  0  0  0  2  0  0  0  0  0  0
  182.9500  178.8740  139.3110 C   0  0  1  0  0  3  0  0  0  0  0  0
  182.0400  179.8970  138.6290 C   0  0  0  0  0  2  0  0  0  0  0  0
  179.9830  178.4960  138.0800 C   0  0  0  0  0  2  0  0  0  0  0  0
  181.7950  176.4080  138.0500 C   0  0  0  0  0  2  0  0  0  0  0  0
  182.5820  175.2690  137.5790 N   0  0  0  0  0  2  0  0  0  0  0  0
  183.0800  176.0980  135.1450 O   0  0  0  0  0  0  0  0  0  0  0  0
  182.3590  175.0060  135.8850 S   0  0  0  0  0  0  0  0  0  0  0  0
  180.9010  175.0740  135.5420 O   0  0  0  0  0  0  0  0  0  0  0  0
  182.9800  173.4160  135.2930 C   0  0  2  0  0  3  0  0  0  0  0  0
  181.8000  172.4470  135.1460 C   0  0  0  0  0  2  0  0  0  0  0  0
  184.1780  171.5680  136.4430 C   0  0  0  0  0  3  0  0  0  0  0  0
  184.0380  172.8730  136.2270 C   0  0  0  0  0  3  0  0  0  0  0  0
  182.3420  171.0590  134.8020 C   0  0  0  0  0  2  0  0  0  0  0  0
  183.2950  170.6270  135.8420 N   0  0  0  0  0  2  0  0  0  0  0  0
  189.2630  176.4100  135.4620 O   0  0  0  0  0  0  0  0  0  0  0  0
  189.2410  175.2470  134.6960 C   0  0  0  0  0  2  0  0  0  0  0  0
  190.4680  174.5620  134.7230 O   0  0  0  0  0  0  0  0  0  0  0  0
  192.6190  174.3310  136.7240 O   0  0  0  0  0  0  0  0  0  0  0  0
  193.8520  171.1560  135.7190 C   0  0  0  0  0  0  0  0  0  0  0  0
  190.2750  173.3270  135.3610 C   0  0  2  0  0  3  0  0  0  0  0  0
  191.5790  171.4460  135.0210 C   0  0  0  0  0  0  0  0  0  0  0  0
  190.3190  171.0750  134.3700 C   0  0  0  0  0  2  0  0  0  0  0  0
  192.6530  173.1860  136.2170 C   0  0  0  0  0  0  0  0  0  0  0  0
  193.8220  172.4410  136.2890 C   0  0  0  0  0  3  0  0  0  0  0  0
  191.5640  172.6710  135.5710 N   0  0  0  0  0  0  0  0  0  0  0  0
  195.0880  170.3670  135.7600 C   0  0  0  0  0  1  0  0  0  0  0  0
  189.5420  172.4040  134.3600 C   0  0  1  0  0  3  0  0  0  0  0  0
  192.7200  170.6480  135.0760 C   0  0  0  0  0  3  0  0  0  0  0  0
  187.7590  171.7230  137.0400 C   0  0  0  0  0  2  0  0  0  0  0  0
  188.1840  170.4700  136.3340 C   0  0  0  0  0  2  0  0  0  0  0  0
  187.8960  172.8270  136.0110 C   0  0  0  0  0  2  0  0  0  0  0  0
  187.8690  170.7910  134.8950 C   0  0  0  0  0  2  0  0  0  0  0  0
  188.1110  172.2270  134.6950 N   0  0  0  0  0  0  0  0  0  0  0  0
  1  5  1  6  0  0  0
  1 11  1  0  0  0  0
  2  4  1  6  0  0  0
  2 27  1  0  0  0  0
  3  9  1  0  0  0  0
  5  7  1  0  0  0  0
  5  3  1  0  0  0  0
  6 12  1  0  0  0  0
  6 10  2  0  0  0  0
  8 52  1  6  0  0  0
  8  1  1  0  0  0  0
  8  4  1  0  0  0  0
  9  6  1  0  0  0  0
 11  2  1  0  0  0  0
 11 12  1  6  0  0  0
 13  5  1  0  0  0  0
 14 15  1  0  0  0  0
 15 25  2  0  0  0  0
 17 22  1  0  0  0  0
 18 17  2  0  0  0  0
 18 21  1  0  0  0  0
 19 16  1  0  0  0  0
 19 17  1  0  0  0  0
 20 14  1  0  0  0  0
 20 24  1  0  0  0  0
 21 20  2  0  0  0  0
 22 14  2  0  0  0  0
 23 27  1  0  0  0  0
 23 19  2  0  0  0  0
 24 25  1  0  0  0  0
 25 29  1  0  0  0  0
 26 16  1  0  0  0  0
 27 18  1  0  0  0  0
 29 28  1  1  0  0  0
 30 29  1  0  0  0  0
 30 31  1  0  0  0  0
 32 10  1  0  0  0  0
 33 40  1  0  0  0  0
 33 39  1  0  0  0  0
 34 37  1  6  0  0  0
 34 36  1  0  0  0  0
 35 41  1  6  0  0  0
 35 34  1  0  0  0  0
 35 36  1  0  0  0  0
 38 32  1  0  0  0  0
 38 36  1  0  0  0  0
 39 38  1  0  0  0  0
 40 37  1  0  0  0  0
 42 41  1  0  0  0  0
 43 44  2  0  0  0  0
 44 42  1  0  0  0  0
 45 44  2  0  0  0  0
 46 44  1  0  0  0  0
 46 49  1  0  0  0  0
 47 46  1  0  0  0  0
 49 48  2  0  0  0  0
 50 47  1  0  0  0  0
 50 51  1  0  0  0  0
 51 48  1  0  0  0  0
 53 54  1  0  0  0  0
 53 52  1  0  0  0  0
 54 57  1  0  0  0  0
 56 63  1  0  0  0  0
 56 61  2  0  0  0  0
 57 62  1  0  0  0  0
 58 65  2  0  0  0  0
 58 62  1  0  0  0  0
 59 58  1  0  0  0  0
 60 61  1  0  0  0  0
 60 55  2  0  0  0  0
 62 60  1  0  0  0  0
 64 59  1  0  0  0  0
 64 70  1  0  0  0  0
 64 57  1  0  0  0  0
 65 56  1  0  0  0  0
 67 66  1  0  0  0  0
 68 66  1  0  0  0  0
 69 67  1  0  0  0  0
 70 69  1  0  0  0  0
 70 68  1  0  0  0  0
M  END
>  <MODEL>
9

>  <REMARK>
 VINA RESULT:      -5.4      3.389      9.875
  Name = 
  14 active torsions:
  status: ('A' for Active; 'I' for Inactive)
    1  A    between atoms: C_1  and  CA_43
    2  A    between atoms: O_4  and  C_25
    3  A    between atoms: O_4  and  C_65
    4  A    between atoms: C_5  and  S_42
    5  A    between atoms: C_17  and  N_68
    6  A    between atoms: C_26  and  C_69
    7  A    between atoms: C_30  and  C_36
    8  A    between atoms: C_30  and  C_51
    9  A    between atoms: N_32  and  S_42
   10  A    between atoms: N_32  and  C_69
   11  A    between atoms: C_40  and  O_44
   12  A    between atoms: CA_43  and  C_60
   13  A    between atoms: O_44  and  C_65
   14  A    between atoms: N_61  and  C_62
                            x       y       z     vdW  Elec       q    Type
                         _______ _______ _______ _____ _____    ______ ____

>  <TORSDO>
F 14

$$$$
