=
 OpenBabel10222421383D

 60 67  0  0  1  0  0  0  0  0999 V2000
  189.3050  176.0610  138.1030 C   0  0  0  0  0  3  0  0  0  0  0  0
  189.9520  175.6360  135.7780 O   0  0  0  0  0  0  0  0  0  0  0  0
  190.5700  176.3910  138.3970 C   0  0  0  0  0  0  0  0  0  0  0  0
  188.9270  175.4520  136.7670 C   0  0  1  0  0  3  0  0  0  0  0  0
  193.5890  176.3820  136.0750 C   0  0  2  0  0  3  0  0  0  0  0  0
  191.6060  176.2330  137.3580 C   0  0  0  0  0  0  0  0  0  0  0  0
  193.0640  176.4600  137.5100 C   0  0  0  0  0  2  0  0  0  0  0  0
  192.4290  175.8760  135.2080 C   0  0  0  0  0  2  0  0  0  0  0  0
  191.2790  175.9050  136.1330 C   0  0  0  0  0  0  0  0  0  0  0  0
  187.2710  177.3250  139.9300 O   0  0  0  0  0  0  0  0  0  0  0  0
  192.2890  176.8420  140.1260 C   0  0  0  0  0  2  0  0  0  0  0  0
  187.3580  178.6010  140.1370 C   0  0  2  0  0  3  0  0  0  0  0  0
  190.2190  178.0590  141.6590 N   0  0  0  0  0  0  0  0  0  0  0  0
  191.4980  177.8280  142.2590 C   0  0  0  0  0  0  0  0  0  0  0  0
  188.5860  177.8140  139.9860 N   0  0  0  0  0  0  0  0  0  0  0  0
  192.4620  177.2000  141.5750 C   0  0  0  0  0  3  0  0  0  0  0  0
  189.9190  177.6420  140.4680 C   0  0  0  0  0  0  0  0  0  0  0  0
  190.8890  176.9050  139.6960 N   0  0  0  0  0  0  0  0  0  0  0  0
  190.7470  179.2320  144.1130 N   0  0  0  0  0  2  0  0  0  0  0  0
  189.8590  176.7020  146.4720 C   0  0  0  0  0  3  0  0  0  0  0  0
  190.4050  177.4170  145.4930 C   0  0  0  0  0  0  0  0  0  0  0  0
  191.4760  176.9460  144.6130 C   0  0  0  0  0  2  0  0  0  0  0  0
  190.0350  178.6990  145.1650 O   0  0  0  0  0  0  0  0  0  0  0  0
  191.6830  178.1690  143.7070 C   0  0  1  0  0  3  0  0  0  0  0  0
  188.8030  177.2310  147.2930 C   0  0  0  0  0  0  0  0  0  0  0  0
  187.9160  177.6730  147.9830 C   0  0  0  0  0  3  0  0  0  0  0  0
  187.1170  178.9050  141.6060 C   0  0  0  0  0  2  0  0  0  0  0  0
  185.7560  178.3620  142.0320 C   0  0  0  0  0  2  0  0  0  0  0  0
  185.6820  177.9990  143.5220 C   0  0  2  0  0  3  0  0  0  0  0  0
  184.0050  178.6920  145.2160 C   0  0  0  0  0  2  0  0  0  0  0  0
  185.1630  179.1640  144.3540 C   0  0  0  0  0  3  0  0  0  0  0  0
  183.7340  179.4900  143.9590 C   0  0  0  0  0  2  0  0  0  0  0  0
  186.9950  177.5130  144.0590 C   0  0  0  0  0  3  0  0  0  0  0  0
  187.5600  176.4020  143.5890 C   0  0  0  0  0  2  0  0  0  0  0  0
  188.6600  173.9640  136.9450 C   0  0  0  0  0  2  0  0  0  0  0  0
  187.3780  173.5610  136.2330 C   0  0  0  0  0  2  0  0  0  0  0  0
  186.1690  174.0000  137.0390 C   0  0  0  0  0  2  0  0  0  0  0  0
  182.4500  177.5510  134.9770 C   0  0  0  0  0  1  0  0  0  0  0  0
  183.7460  174.3440  136.1220 S   0  0  0  0  0  0  0  0  0  0  0  0
  183.0620  177.0710  136.2800 C   0  0  1  0  0  0  0  0  0  0  0  0
  181.6040  177.0320  138.2330 C   0  0  1  0  0  3  0  0  0  0  0  0
  183.1470  175.3050  138.8770 O   0  0  0  0  0  1  0  0  0  0  0  0
  184.5870  177.2510  136.2030 C   0  0  0  0  0  2  0  0  0  0  0  0
  182.5200  177.9260  137.4200 C   0  0  0  0  0  2  0  0  0  0  0  0
  183.5030  173.9530  134.6930 O   0  0  0  0  0  0  0  0  0  0  0  0
  185.3790  174.9440  136.2630 N   0  0  0  0  0  0  0  0  0  0  0  0
  182.0910  175.6070  138.0070 C   0  0  2  0  0  3  0  0  0  0  0  0
  183.5260  173.1410  136.9980 O   0  0  0  0  0  0  0  0  0  0  0  0
  181.5950  177.4440  139.6950 C   0  0  0  0  0  1  0  0  0  0  0  0
  185.3580  176.2020  136.9970 C   0  0  0  0  0  2  0  0  0  0  0  0
  182.5740  175.6380  136.5600 C   0  0  2  0  0  3  0  0  0  0  0  0
  194.7740  175.4350  136.0020 C   0  0  0  0  0  2  0  0  0  0  0  0
  194.5940  174.2500  136.9510 C   0  0  2  0  0  3  0  0  0  0  0  0
  196.0830  174.1420  138.0030 P   0  0  0  0  0  0  0  0  0  0  0  0
  196.6640  172.5530  138.0010 O   0  0  0  0  0  1  0  0  0  0  0  0
  197.1520  175.0650  137.4650 O   0  0  0  0  0  0  0  0  0  0  0  0
  195.7150  174.5960  139.5900 O   0  0  0  0  0  1  0  0  0  0  0  0
  194.8170  173.0270  134.7350 C   0  0  0  0  0  1  0  0  0  0  0  0
  192.9040  172.5410  136.1950 C   0  0  0  0  0  1  0  0  0  0  0  0
  194.3710  172.9330  136.1860 C   0  0  0  0  0  3  0  0  0  0  0  0
  1  3  2  0  0  0  0
  2  9  1  0  0  0  0
  2  4  1  0  0  0  0
  3 18  1  0  0  0  0
  4 35  1  1  0  0  0
  4  1  1  0  0  0  0
  5 52  1  1  0  0  0
  5  7  1  0  0  0  0
  6  7  1  0  0  0  0
  6  3  1  0  0  0  0
  8  5  1  0  0  0  0
  8  9  1  0  0  0  0
  9  6  2  0  0  0  0
 10 15  1  0  0  0  0
 10 12  1  0  0  0  0
 11 16  1  0  0  0  0
 12 27  1  1  0  0  0
 13 14  1  0  0  0  0
 15 12  1  0  0  0  0
 15 17  1  0  0  0  0
 16 14  2  0  0  0  0
 17 13  2  0  0  0  0
 18 11  1  0  0  0  0
 18 17  1  0  0  0  0
 19 23  1  0  0  0  0
 20 25  1  0  0  0  0
 21 20  2  0  0  0  0
 22 21  1  0  0  0  0
 23 21  1  0  0  0  0
 24 14  1  6  0  0  0
 24 19  1  0  0  0  0
 24 22  1  0  0  0  0
 25 26  3  0  0  0  0
 27 28  1  0  0  0  0
 29 28  1  6  0  0  0
 29 33  1  0  0  0  0
 29 31  1  0  0  0  0
 31 30  1  0  0  0  0
 32 31  1  0  0  0  0
 32 30  1  0  0  0  0
 34 33  2  0  0  0  0
 36 35  1  0  0  0  0
 36 37  1  0  0  0  0
 39 46  1  0  0  0  0
 39 48  2  0  0  0  0
 40 38  1  6  0  0  0
 40 51  1  0  0  0  0
 40 44  1  0  0  0  0
 41 49  1  1  0  0  0
 43 40  1  0  0  0  0
 43 50  1  0  0  0  0
 44 41  1  0  0  0  0
 45 39  2  0  0  0  0
 46 50  1  0  0  0  0
 46 37  1  0  0  0  0
 47 41  1  0  0  0  0
 47 42  1  1  0  0  0
 51 39  1  1  0  0  0
 51 47  1  0  0  0  0
 53 52  1  6  0  0  0
 53 54  1  0  0  0  0
 54 57  1  0  0  0  0
 55 54  1  0  0  0  0
 56 54  2  0  0  0  0
 58 60  1  0  0  0  0
 60 59  1  0  0  0  0
 60 53  1  0  0  0  0
M  END
>  <MODEL>
1

>  <REMARK>
 VINA RESULT:      -8.1      0.000      0.000
  Name = 
  16 active torsions:
  status: ('A' for Active; 'I' for Inactive)
    1  A    between atoms: P_3  and  C_59
    2  A    between atoms: C_5  and  C_49
    3  A    between atoms: C_6  and  C_15
    4  A    between atoms: C_6  and  C_49
    5  A    between atoms: C_9  and  N_45
    6  A    between atoms: C_13  and  N_36
    7  A    between atoms: C_13  and  C_38
    8  A    between atoms: C_15  and  C_27
    9  A    between atoms: C_17  and  C_33
   10  A    between atoms: C_17  and  C_38
   11  A    between atoms: C_21  and  C_34
   12  A    between atoms: C_30  and  C_49
   13  A    between atoms: C_31  and  C_51
   14  A    between atoms: C_35  and  C_57
   15  A    between atoms: C_46  and  C_59
   16  A    between atoms: C_57  and  C_59
                            x       y       z     vdW  Elec       q    Type
                         _______ _______ _______ _____ _____    ______ ____

>  <TORSDO>
F 16

$$$$
=
 OpenBabel10222421383D

 60 67  0  0  1  0  0  0  0  0999 V2000
  187.4570  177.5840  138.1110 C   0  0  0  0  0  3  0  0  0  0  0  0
  187.5380  177.3300  135.6740 O   0  0  0  0  0  0  0  0  0  0  0  0
  188.7770  177.3640  138.1800 C   0  0  0  0  0  0  0  0  0  0  0  0
  186.6790  177.3860  136.8240 C   0  0  1  0  0  3  0  0  0  0  0  0
  191.1730  176.6020  135.3200 C   0  0  2  0  0  3  0  0  0  0  0  0
  189.5030  177.0000  136.9480 C   0  0  0  0  0  0  0  0  0  0  0  0
  190.9360  176.6370  136.8310 C   0  0  0  0  0  2  0  0  0  0  0  0
  189.7960  176.7150  134.6540 C   0  0  0  0  0  2  0  0  0  0  0  0
  188.8990  177.0220  135.7860 C   0  0  0  0  0  0  0  0  0  0  0  0
  186.0690  177.9070  140.7240 O   0  0  0  0  0  0  0  0  0  0  0  0
  190.9110  177.3030  139.4420 C   0  0  0  0  0  2  0  0  0  0  0  0
  186.3180  179.0790  141.2200 C   0  0  2  0  0  3  0  0  0  0  0  0
  189.4120  178.0970  141.7300 N   0  0  0  0  0  0  0  0  0  0  0  0
  190.7750  177.6900  141.8870 C   0  0  0  0  0  0  0  0  0  0  0  0
  187.3930  178.3410  140.5500 N   0  0  0  0  0  0  0  0  0  0  0  0
  191.4750  177.2540  140.8330 C   0  0  0  0  0  3  0  0  0  0  0  0
  188.7840  178.0220  140.5970 C   0  0  0  0  0  0  0  0  0  0  0  0
  189.4580  177.5030  139.4330 N   0  0  0  0  0  0  0  0  0  0  0  0
  191.2320  178.9310  143.9430 N   0  0  0  0  0  2  0  0  0  0  0  0
  189.4990  176.8740  146.2920 C   0  0  0  0  0  3  0  0  0  0  0  0
  190.1790  177.3560  145.2560 C   0  0  0  0  0  0  0  0  0  0  0  0
  190.6560  176.5560  144.1270 C   0  0  0  0  0  2  0  0  0  0  0  0
  190.5260  178.6760  145.0980 O   0  0  0  0  0  0  0  0  0  0  0  0
  191.3490  177.6260  143.2700 C   0  0  1  0  0  3  0  0  0  0  0  0
  189.0560  177.7260  147.3650 C   0  0  0  0  0  0  0  0  0  0  0  0
  188.6860  178.4380  148.2660 C   0  0  0  0  0  3  0  0  0  0  0  0
  186.4840  178.9790  142.7260 C   0  0  0  0  0  2  0  0  0  0  0  0
  185.3020  178.2270  143.3310 C   0  0  0  0  0  2  0  0  0  0  0  0
  184.4240  179.0980  144.2410 C   0  0  2  0  0  3  0  0  0  0  0  0
  185.5720  179.2130  146.4390 C   0  0  0  0  0  2  0  0  0  0  0  0
  184.4220  178.5810  145.6740 C   0  0  0  0  0  3  0  0  0  0  0  0
  185.6880  177.7880  145.9430 C   0  0  0  0  0  2  0  0  0  0  0  0
  183.0220  179.2310  143.7280 C   0  0  0  0  0  3  0  0  0  0  0  0
  181.9910  178.7360  144.4120 C   0  0  0  0  0  2  0  0  0  0  0  0
  185.8720  176.0990  136.9130 C   0  0  0  0  0  2  0  0  0  0  0  0
  184.5030  176.3660  137.5180 C   0  0  0  0  0  2  0  0  0  0  0  0
  183.5810  176.9820  136.4810 C   0  0  0  0  0  2  0  0  0  0  0  0
  181.1210  181.3440  138.8520 C   0  0  0  0  0  1  0  0  0  0  0  0
  181.4050  178.4130  136.7060 S   0  0  0  0  0  0  0  0  0  0  0  0
  181.5000  179.8950  139.0970 C   0  0  1  0  0  0  0  0  0  0  0  0
  179.9820  178.5770  140.4760 C   0  0  1  0  0  3  0  0  0  0  0  0
  180.9440  176.8040  139.1690 O   0  0  0  0  0  1  0  0  0  0  0  0
  183.0170  179.7430  138.8960 C   0  0  0  0  0  2  0  0  0  0  0  0
  181.1550  179.5370  140.5380 C   0  0  0  0  0  2  0  0  0  0  0  0
  181.1440  179.4180  135.6210 O   0  0  0  0  0  0  0  0  0  0  0  0
  183.1300  178.2870  136.9410 N   0  0  0  0  0  0  0  0  0  0  0  0
  180.0650  177.8940  139.1180 C   0  0  2  0  0  3  0  0  0  0  0  0
  180.8100  177.0930  136.2960 O   0  0  0  0  0  0  0  0  0  0  0  0
  180.0050  177.6080  141.6450 C   0  0  0  0  0  1  0  0  0  0  0  0
  183.4190  178.3700  138.3660 C   0  0  0  0  0  2  0  0  0  0  0  0
  180.6180  178.9930  138.2170 C   0  0  2  0  0  3  0  0  0  0  0  0
  191.8610  175.3050  134.9270 C   0  0  0  0  0  2  0  0  0  0  0  0
  192.0440  174.3890  136.1370 C   0  0  2  0  0  3  0  0  0  0  0  0
  193.8330  174.2620  136.4790 P   0  0  0  0  0  0  0  0  0  0  0  0
  194.7070  174.7720  135.1240 O   0  0  0  0  0  0  0  0  0  0  0  0
  194.1870  175.1370  137.6590 O   0  0  0  0  0  1  0  0  0  0  0  0
  194.2490  172.6630  136.8390 O   0  0  0  0  0  1  0  0  0  0  0  0
  191.7790  172.4460  134.5220 C   0  0  0  0  0  1  0  0  0  0  0  0
  189.9220  173.0360  136.0150 C   0  0  0  0  0  1  0  0  0  0  0  0
  191.4350  172.9960  135.8980 C   0  0  0  0  0  3  0  0  0  0  0  0
  1  3  2  0  0  0  0
  2  9  1  0  0  0  0
  2  4  1  0  0  0  0
  3 18  1  0  0  0  0
  4 35  1  1  0  0  0
  4  1  1  0  0  0  0
  5 52  1  1  0  0  0
  5  7  1  0  0  0  0
  6  3  1  0  0  0  0
  7  6  1  0  0  0  0
  8  5  1  0  0  0  0
  8  9  1  0  0  0  0
  9  6  2  0  0  0  0
 10 12  1  0  0  0  0
 11 16  1  0  0  0  0
 12 27  1  1  0  0  0
 13 14  1  0  0  0  0
 15 17  1  0  0  0  0
 15 10  1  0  0  0  0
 15 12  1  0  0  0  0
 16 14  2  0  0  0  0
 17 13  2  0  0  0  0
 18 11  1  0  0  0  0
 18 17  1  0  0  0  0
 19 23  1  0  0  0  0
 20 25  1  0  0  0  0
 21 20  2  0  0  0  0
 22 21  1  0  0  0  0
 23 21  1  0  0  0  0
 24 14  1  6  0  0  0
 24 19  1  0  0  0  0
 24 22  1  0  0  0  0
 25 26  3  0  0  0  0
 27 28  1  0  0  0  0
 29 28  1  6  0  0  0
 29 31  1  0  0  0  0
 31 32  1  0  0  0  0
 31 30  1  0  0  0  0
 32 30  1  0  0  0  0
 33 29  1  0  0  0  0
 33 34  2  0  0  0  0
 35 36  1  0  0  0  0
 37 46  1  0  0  0  0
 37 36  1  0  0  0  0
 39 46  1  0  0  0  0
 40 38  1  6  0  0  0
 40 44  1  0  0  0  0
 41 44  1  0  0  0  0
 41 49  1  1  0  0  0
 43 40  1  0  0  0  0
 45 39  2  0  0  0  0
 46 50  1  0  0  0  0
 47 42  1  1  0  0  0
 47 41  1  0  0  0  0
 48 39  2  0  0  0  0
 50 43  1  0  0  0  0
 51 39  1  6  0  0  0
 51 40  1  0  0  0  0
 51 47  1  0  0  0  0
 53 52  1  6  0  0  0
 53 54  1  0  0  0  0
 54 57  1  0  0  0  0
 54 56  1  0  0  0  0
 55 54  2  0  0  0  0
 58 60  1  0  0  0  0
 60 59  1  0  0  0  0
 60 53  1  0  0  0  0
M  END
>  <MODEL>
2

>  <REMARK>
 VINA RESULT:      -8.1      2.074      2.994
  Name = 
  16 active torsions:
  status: ('A' for Active; 'I' for Inactive)
    1  A    between atoms: P_3  and  C_59
    2  A    between atoms: C_5  and  C_49
    3  A    between atoms: C_6  and  C_15
    4  A    between atoms: C_6  and  C_49
    5  A    between atoms: C_9  and  N_45
    6  A    between atoms: C_13  and  N_36
    7  A    between atoms: C_13  and  C_38
    8  A    between atoms: C_15  and  C_27
    9  A    between atoms: C_17  and  C_33
   10  A    between atoms: C_17  and  C_38
   11  A    between atoms: C_21  and  C_34
   12  A    between atoms: C_30  and  C_49
   13  A    between atoms: C_31  and  C_51
   14  A    between atoms: C_35  and  C_57
   15  A    between atoms: C_46  and  C_59
   16  A    between atoms: C_57  and  C_59
                            x       y       z     vdW  Elec       q    Type
                         _______ _______ _______ _____ _____    ______ ____

>  <TORSDO>
F 16

$$$$
=
 OpenBabel10222421383D

 60 67  0  0  1  0  0  0  0  0999 V2000
  191.1580  176.2700  138.5070 C   0  0  0  0  0  3  0  0  0  0  0  0
  191.7580  174.3080  137.1670 O   0  0  0  0  0  0  0  0  0  0  0  0
  189.8600  176.0350  138.2750 C   0  0  0  0  0  0  0  0  0  0  0  0
  192.2520  175.5070  137.7850 C   0  0  1  0  0  3  0  0  0  0  0  0
  188.3280  173.2550  136.1700 C   0  0  2  0  0  3  0  0  0  0  0  0
  189.4890  174.9450  137.3520 C   0  0  0  0  0  0  0  0  0  0  0  0
  188.1230  174.5830  136.9030 C   0  0  0  0  0  2  0  0  0  0  0  0
  189.8420  173.0530  136.0390 C   0  0  0  0  0  2  0  0  0  0  0  0
  190.4010  174.1360  136.8740 C   0  0  0  0  0  0  0  0  0  0  0  0
  191.3760  176.9870  141.5760 O   0  0  0  0  0  0  0  0  0  0  0  0
  187.6430  177.1440  138.1850 C   0  0  0  0  0  2  0  0  0  0  0  0
  190.5880  176.4610  142.4600 C   0  0  2  0  0  3  0  0  0  0  0  0
  188.0620  177.8760  140.9060 N   0  0  0  0  0  0  0  0  0  0  0  0
  186.9580  178.4360  140.1870 C   0  0  0  0  0  0  0  0  0  0  0  0
  190.0860  176.6970  141.1020 N   0  0  0  0  0  0  0  0  0  0  0  0
  186.7830  178.1530  138.8900 C   0  0  0  0  0  3  0  0  0  0  0  0
  188.9550  177.1230  140.3420 C   0  0  0  0  0  0  0  0  0  0  0  0
  188.8630  176.8260  138.9350 N   0  0  0  0  0  0  0  0  0  0  0  0
  184.7550  179.4910  140.2670 N   0  0  0  0  0  2  0  0  0  0  0  0
  183.8720  178.7980  143.6580 C   0  0  0  0  0  3  0  0  0  0  0  0
  184.5060  179.0520  142.5160 C   0  0  0  0  0  0  0  0  0  0  0  0
  185.9590  179.1620  142.3760 C   0  0  0  0  0  2  0  0  0  0  0  0
  183.8850  179.2410  141.3050 O   0  0  0  0  0  0  0  0  0  0  0  0
  186.0960  179.4520  140.8740 C   0  0  1  0  0  3  0  0  0  0  0  0
  182.4380  178.6980  143.7170 C   0  0  0  0  0  0  0  0  0  0  0  0
  181.2350  178.6170  143.7670 C   0  0  0  0  0  3  0  0  0  0  0  0
  190.0690  177.5390  143.3960 C   0  0  0  0  0  2  0  0  0  0  0  0
  189.9810  176.9930  144.8190 C   0  0  0  0  0  2  0  0  0  0  0  0
  188.9790  177.7490  145.7030 C   0  0  2  0  0  3  0  0  0  0  0  0
  189.2530  178.1580  148.1360 C   0  0  0  0  0  2  0  0  0  0  0  0
  188.8760  177.1250  147.0880 C   0  0  0  0  0  3  0  0  0  0  0  0
  190.2440  177.0840  147.7440 C   0  0  0  0  0  2  0  0  0  0  0  0
  187.6230  177.8530  145.0710 C   0  0  0  0  0  3  0  0  0  0  0  0
  186.9700  176.7660  144.6630 C   0  0  0  0  0  2  0  0  0  0  0  0
  192.8780  176.4000  136.7230 C   0  0  0  0  0  2  0  0  0  0  0  0
  194.1160  175.7430  136.1340 C   0  0  0  0  0  2  0  0  0  0  0  0
  194.9910  175.1820  137.2400 C   0  0  0  0  0  2  0  0  0  0  0  0
  200.2280  174.1080  135.7870 C   0  0  0  0  0  1  0  0  0  0  0  0
  197.3510  174.3640  138.0080 S   0  0  0  0  0  0  0  0  0  0  0  0
  198.8280  173.5230  135.7640 C   0  0  1  0  0  0  0  0  0  0  0  0
  198.6410  171.1050  136.0130 C   0  0  1  0  0  3  0  0  0  0  0  0
  196.4930  171.7430  136.8830 O   0  0  0  0  0  1  0  0  0  0  0  0
  197.8960  174.5040  135.0340 C   0  0  0  0  0  2  0  0  0  0  0  0
  198.8610  172.2080  134.9950 C   0  0  0  0  0  2  0  0  0  0  0  0
  198.2200  175.3710  138.7060 O   0  0  0  0  0  0  0  0  0  0  0  0
  196.3830  175.1970  136.8190 N   0  0  0  0  0  0  0  0  0  0  0  0
  197.8670  171.7370  137.1610 C   0  0  2  0  0  3  0  0  0  0  0  0
  196.4890  173.6760  139.0320 O   0  0  0  0  0  0  0  0  0  0  0  0
  197.9350  169.9150  135.3870 C   0  0  0  0  0  1  0  0  0  0  0  0
  196.4640  174.4750  135.5560 C   0  0  0  0  0  2  0  0  0  0  0  0
  198.4170  173.1590  137.2020 C   0  0  2  0  0  3  0  0  0  0  0  0
  187.6660  173.3030  134.8040 C   0  0  0  0  0  2  0  0  0  0  0  0
  186.5720  172.2420  134.6830 C   0  0  2  0  0  3  0  0  0  0  0  0
  185.0990  172.8510  135.5730 P   0  0  0  0  0  0  0  0  0  0  0  0
  185.1940  172.4030  137.2010 O   0  0  0  0  0  1  0  0  0  0  0  0
  185.0320  174.3570  135.4740 O   0  0  0  0  0  1  0  0  0  0  0  0
  183.6930  172.1950  134.8990 O   0  0  0  0  0  0  0  0  0  0  0  0
  188.2300  170.3250  134.5030 C   0  0  0  0  0  1  0  0  0  0  0  0
  185.9120  169.8580  135.1620 C   0  0  0  0  0  1  0  0  0  0  0  0
  187.0270  170.8840  135.2480 C   0  0  0  0  0  3  0  0  0  0  0  0
  2  4  1  0  0  0  0
  3  1  2  0  0  0  0
  3 18  1  0  0  0  0
  4 35  1  6  0  0  0
  4  1  1  0  0  0  0
  5 52  1  6  0  0  0
  5  7  1  0  0  0  0
  6  3  1  0  0  0  0
  7  6  1  0  0  0  0
  8  5  1  0  0  0  0
  8  9  1  0  0  0  0
  9  2  1  0  0  0  0
  9  6  2  0  0  0  0
 10 12  1  0  0  0  0
 11 16  1  0  0  0  0
 11 18  1  0  0  0  0
 12 27  1  1  0  0  0
 14 13  1  0  0  0  0
 15 10  1  0  0  0  0
 15 12  1  0  0  0  0
 16 14  2  0  0  0  0
 17 13  2  0  0  0  0
 17 15  1  0  0  0  0
 18 17  1  0  0  0  0
 19 24  1  0  0  0  0
 19 23  1  0  0  0  0
 20 25  1  0  0  0  0
 21 20  2  0  0  0  0
 22 21  1  0  0  0  0
 23 21  1  0  0  0  0
 24 14  1  6  0  0  0
 24 22  1  0  0  0  0
 25 26  3  0  0  0  0
 27 28  1  0  0  0  0
 29 28  1  6  0  0  0
 29 31  1  0  0  0  0
 31 32  1  0  0  0  0
 31 30  1  0  0  0  0
 32 30  1  0  0  0  0
 33 29  1  0  0  0  0
 34 33  2  0  0  0  0
 36 35  1  0  0  0  0
 36 37  1  0  0  0  0
 39 45  2  0  0  0  0
 39 48  2  0  0  0  0
 40 38  1  1  0  0  0
 40 51  1  0  0  0  0
 41 49  1  6  0  0  0
 41 47  1  0  0  0  0
 43 50  1  0  0  0  0
 43 40  1  0  0  0  0
 44 40  1  0  0  0  0
 44 41  1  0  0  0  0
 46 37  1  0  0  0  0
 46 39  1  0  0  0  0
 47 42  1  6  0  0  0
 47 51  1  0  0  0  0
 50 46  1  0  0  0  0
 51 39  1  6  0  0  0
 53 52  1  1  0  0  0
 53 60  1  0  0  0  0
 53 54  1  0  0  0  0
 54 55  1  0  0  0  0
 56 54  1  0  0  0  0
 57 54  2  0  0  0  0
 58 60  1  0  0  0  0
 59 60  1  0  0  0  0
M  END
>  <MODEL>
3

>  <REMARK>
 VINA RESULT:      -7.6      3.438      9.306
  Name = 
  16 active torsions:
  status: ('A' for Active; 'I' for Inactive)
    1  A    between atoms: P_3  and  C_59
    2  A    between atoms: C_5  and  C_49
    3  A    between atoms: C_6  and  C_15
    4  A    between atoms: C_6  and  C_49
    5  A    between atoms: C_9  and  N_45
    6  A    between atoms: C_13  and  N_36
    7  A    between atoms: C_13  and  C_38
    8  A    between atoms: C_15  and  C_27
    9  A    between atoms: C_17  and  C_33
   10  A    between atoms: C_17  and  C_38
   11  A    between atoms: C_21  and  C_34
   12  A    between atoms: C_30  and  C_49
   13  A    between atoms: C_31  and  C_51
   14  A    between atoms: C_35  and  C_57
   15  A    between atoms: C_46  and  C_59
   16  A    between atoms: C_57  and  C_59
                            x       y       z     vdW  Elec       q    Type
                         _______ _______ _______ _____ _____    ______ ____

>  <TORSDO>
F 16

$$$$
=
 OpenBabel10222421383D

 60 67  0  0  1  0  0  0  0  0999 V2000
  189.0550  176.6350  138.0700 C   0  0  0  0  0  3  0  0  0  0  0  0
  189.7060  176.0440  135.7820 O   0  0  0  0  0  0  0  0  0  0  0  0
  190.3440  176.6440  138.4360 C   0  0  0  0  0  0  0  0  0  0  0  0
  188.6130  176.1280  136.7100 C   0  0  1  0  0  3  0  0  0  0  0  0
  193.3910  175.8680  136.2880 C   0  0  2  0  0  3  0  0  0  0  0  0
  191.3650  176.2250  137.4560 C   0  0  0  0  0  0  0  0  0  0  0  0
  192.8220  176.0850  137.6910 C   0  0  0  0  0  2  0  0  0  0  0  0
  192.1930  175.6590  135.3540 C   0  0  0  0  0  2  0  0  0  0  0  0
  191.0350  175.9800  136.2130 C   0  0  0  0  0  0  0  0  0  0  0  0
  187.0910  177.2670  140.2060 O   0  0  0  0  0  0  0  0  0  0  0  0
  192.1310  177.0570  140.1060 C   0  0  0  0  0  2  0  0  0  0  0  0
  187.1220  178.5260  140.5110 C   0  0  2  0  0  3  0  0  0  0  0  0
  190.0880  178.0310  141.8350 N   0  0  0  0  0  0  0  0  0  0  0  0
  191.4090  177.8270  142.3490 C   0  0  0  0  0  0  0  0  0  0  0  0
  188.3800  177.8250  140.2340 N   0  0  0  0  0  0  0  0  0  0  0  0
  192.3650  177.3100  141.5680 C   0  0  0  0  0  3  0  0  0  0  0  0
  189.7450  177.6910  140.6320 C   0  0  0  0  0  0  0  0  0  0  0  0
  190.7070  177.0730  139.7550 N   0  0  0  0  0  0  0  0  0  0  0  0
  190.8020  179.1570  144.3070 N   0  0  0  0  0  2  0  0  0  0  0  0
  189.8190  176.5450  146.5360 C   0  0  0  0  0  3  0  0  0  0  0  0
  190.3820  177.2840  145.5850 C   0  0  0  0  0  0  0  0  0  0  0  0
  191.3960  176.8030  144.6440 C   0  0  0  0  0  2  0  0  0  0  0  0
  190.0870  178.6050  145.3470 O   0  0  0  0  0  0  0  0  0  0  0  0
  191.6550  178.0650  143.8080 C   0  0  1  0  0  3  0  0  0  0  0  0
  188.8230  177.0870  147.4210 C   0  0  0  0  0  0  0  0  0  0  0  0
  187.9870  177.5400  148.1650 C   0  0  0  0  0  3  0  0  0  0  0  0
  186.9470  178.7010  142.0090 C   0  0  0  0  0  2  0  0  0  0  0  0
  185.7570  179.6130  142.2920 C   0  0  0  0  0  2  0  0  0  0  0  0
  184.7560  179.0200  143.2920 C   0  0  2  0  0  3  0  0  0  0  0  0
  184.8840  178.2280  145.6420 C   0  0  0  0  0  2  0  0  0  0  0  0
  185.4290  178.0330  144.2370 C   0  0  0  0  0  3  0  0  0  0  0  0
  186.2450  178.7810  145.2760 C   0  0  0  0  0  2  0  0  0  0  0  0
  183.5800  178.3800  142.6150 C   0  0  0  0  0  3  0  0  0  0  0  0
  182.3790  178.9570  142.6350 C   0  0  0  0  0  2  0  0  0  0  0  0
  187.9760  174.7540  136.8640 C   0  0  0  0  0  2  0  0  0  0  0  0
  187.5000  174.2330  135.5180 C   0  0  0  0  0  2  0  0  0  0  0  0
  186.1870  174.8910  135.1330 C   0  0  0  0  0  2  0  0  0  0  0  0
  182.2660  175.9520  138.9010 C   0  0  0  0  0  1  0  0  0  0  0  0
  184.8340  176.7120  136.4300 S   0  0  0  0  0  0  0  0  0  0  0  0
  182.4660  175.5770  137.4450 C   0  0  1  0  0  0  0  0  0  0  0  0
  180.8510  176.4640  135.8480 C   0  0  1  0  0  3  0  0  0  0  0  0
  182.7360  176.2070  134.3780 O   0  0  0  0  0  1  0  0  0  0  0  0
  183.2950  174.2840  137.3780 C   0  0  0  0  0  2  0  0  0  0  0  0
  181.1020  175.3220  136.8140 C   0  0  0  0  0  2  0  0  0  0  0  0
  185.5130  177.3440  137.6120 O   0  0  0  0  0  0  0  0  0  0  0  0
  185.3540  175.0510  136.3160 N   0  0  0  0  0  0  0  0  0  0  0  0
  182.2230  176.9760  135.4310 C   0  0  2  0  0  3  0  0  0  0  0  0
  185.1960  177.4870  135.1930 O   0  0  0  0  0  0  0  0  0  0  0  0
  179.9920  176.0130  134.6790 C   0  0  0  0  0  1  0  0  0  0  0  0
  184.1830  174.2010  136.1410 C   0  0  0  0  0  2  0  0  0  0  0  0
  183.0550  176.7850  136.6960 C   0  0  2  0  0  3  0  0  0  0  0  0
  194.3070  174.6560  136.2750 C   0  0  0  0  0  2  0  0  0  0  0  0
  195.6200  174.9490  137.0010 C   0  0  2  0  0  3  0  0  0  0  0  0
  196.9310  175.1190  135.7430 P   0  0  0  0  0  0  0  0  0  0  0  0
  198.4340  175.2690  136.5060 O   0  0  0  0  0  1  0  0  0  0  0  0
  196.9430  173.8970  134.8540 O   0  0  0  0  0  1  0  0  0  0  0  0
  196.6560  176.4880  134.7890 O   0  0  0  0  0  0  0  0  0  0  0  0
  194.8390  172.8490  138.1980 C   0  0  0  0  0  1  0  0  0  0  0  0
  196.3010  174.4320  139.3710 C   0  0  0  0  0  1  0  0  0  0  0  0
  195.9740  173.8420  138.0110 C   0  0  0  0  0  3  0  0  0  0  0  0
  1  3  2  0  0  0  0
  2  9  1  0  0  0  0
  2  4  1  0  0  0  0
  3 18  1  0  0  0  0
  4 35  1  1  0  0  0
  4  1  1  0  0  0  0
  5 52  1  1  0  0  0
  5  7  1  0  0  0  0
  6  7  1  0  0  0  0
  6  3  1  0  0  0  0
  8  9  1  0  0  0  0
  8  5  1  0  0  0  0
  9  6  2  0  0  0  0
 10 15  1  0  0  0  0
 10 12  1  0  0  0  0
 11 16  1  0  0  0  0
 12 27  1  1  0  0  0
 13 14  1  0  0  0  0
 15 12  1  0  0  0  0
 15 17  1  0  0  0  0
 16 14  2  0  0  0  0
 17 13  2  0  0  0  0
 18 11  1  0  0  0  0
 18 17  1  0  0  0  0
 19 23  1  0  0  0  0
 20 25  1  0  0  0  0
 21 20  2  0  0  0  0
 22 21  1  0  0  0  0
 23 21  1  0  0  0  0
 24 14  1  6  0  0  0
 24 19  1  0  0  0  0
 24 22  1  0  0  0  0
 25 26  3  0  0  0  0
 27 28  1  0  0  0  0
 29 28  1  6  0  0  0
 29 31  1  0  0  0  0
 31 32  1  0  0  0  0
 31 30  1  0  0  0  0
 32 30  1  0  0  0  0
 33 34  2  0  0  0  0
 33 29  1  0  0  0  0
 36 35  1  0  0  0  0
 37 36  1  0  0  0  0
 37 46  1  0  0  0  0
 39 45  2  0  0  0  0
 40 38  1  1  0  0  0
 41 49  1  6  0  0  0
 41 44  1  0  0  0  0
 43 40  1  0  0  0  0
 44 40  1  0  0  0  0
 46 39  1  0  0  0  0
 47 42  1  6  0  0  0
 47 41  1  0  0  0  0
 47 51  1  0  0  0  0
 48 39  2  0  0  0  0
 50 46  1  0  0  0  0
 50 43  1  0  0  0  0
 51 39  1  6  0  0  0
 51 40  1  0  0  0  0
 53 52  1  6  0  0  0
 53 60  1  0  0  0  0
 54 55  1  0  0  0  0
 54 53  1  0  0  0  0
 56 54  1  0  0  0  0
 57 54  2  0  0  0  0
 60 58  1  0  0  0  0
 60 59  1  0  0  0  0
M  END
>  <MODEL>
4

>  <REMARK>
 VINA RESULT:      -6.9      1.527      2.407
  Name = 
  16 active torsions:
  status: ('A' for Active; 'I' for Inactive)
    1  A    between atoms: P_3  and  C_59
    2  A    between atoms: C_5  and  C_49
    3  A    between atoms: C_6  and  C_15
    4  A    between atoms: C_6  and  C_49
    5  A    between atoms: C_9  and  N_45
    6  A    between atoms: C_13  and  N_36
    7  A    between atoms: C_13  and  C_38
    8  A    between atoms: C_15  and  C_27
    9  A    between atoms: C_17  and  C_33
   10  A    between atoms: C_17  and  C_38
   11  A    between atoms: C_21  and  C_34
   12  A    between atoms: C_30  and  C_49
   13  A    between atoms: C_31  and  C_51
   14  A    between atoms: C_35  and  C_57
   15  A    between atoms: C_46  and  C_59
   16  A    between atoms: C_57  and  C_59
                            x       y       z     vdW  Elec       q    Type
                         _______ _______ _______ _____ _____    ______ ____

>  <TORSDO>
F 16

$$$$
=
 OpenBabel10222421383D

 60 67  0  0  1  0  0  0  0  0999 V2000
  191.8240  175.5600  137.2350 C   0  0  0  0  0  3  0  0  0  0  0  0
  191.3910  173.8560  135.5270 O   0  0  0  0  0  0  0  0  0  0  0  0
  190.5410  175.5070  137.6160 C   0  0  0  0  0  0  0  0  0  0  0  0
  192.3190  174.8510  135.9890 C   0  0  1  0  0  3  0  0  0  0  0  0
  187.7510  173.3740  136.1430 C   0  0  2  0  0  3  0  0  0  0  0  0
  189.6040  174.6660  136.8450 C   0  0  0  0  0  0  0  0  0  0  0  0
  188.1410  174.5410  137.0520 C   0  0  0  0  0  2  0  0  0  0  0  0
  188.9810  173.0520  135.2860 C   0  0  0  0  0  2  0  0  0  0  0  0
  190.0410  173.8830  135.8910 C   0  0  0  0  0  0  0  0  0  0  0  0
  187.3120  177.1280  136.5940 O   0  0  0  0  0  0  0  0  0  0  0  0
  190.8950  176.1100  139.9960 C   0  0  0  0  0  2  0  0  0  0  0  0
  187.5400  178.4000  136.6930 C   0  0  2  0  0  3  0  0  0  0  0  0
  188.6630  177.8600  139.7330 N   0  0  0  0  0  0  0  0  0  0  0  0
  189.2160  177.6130  141.0300 C   0  0  0  0  0  0  0  0  0  0  0  0
  188.3870  177.4590  137.4330 N   0  0  0  0  0  0  0  0  0  0  0  0
  190.2240  176.7440  141.1800 C   0  0  0  0  0  3  0  0  0  0  0  0
  189.0670  177.2370  138.6690 C   0  0  0  0  0  0  0  0  0  0  0  0
  190.1070  176.2440  138.7660 N   0  0  0  0  0  0  0  0  0  0  0  0
  187.6150  177.2790  142.8460 N   0  0  0  0  0  2  0  0  0  0  0  0
  189.7140  177.9970  145.6460 C   0  0  0  0  0  3  0  0  0  0  0  0
  189.1320  177.9410  144.4510 C   0  0  0  0  0  0  0  0  0  0  0  0
  189.5740  178.6890  143.2730 C   0  0  0  0  0  2  0  0  0  0  0  0
  188.0370  177.1670  144.1530 O   0  0  0  0  0  0  0  0  0  0  0  0
  188.5510  178.2310  142.2230 C   0  0  1  0  0  3  0  0  0  0  0  0
  189.2260  177.2250  146.7580 C   0  0  0  0  0  0  0  0  0  0  0  0
  188.8150  176.5760  147.6890 C   0  0  0  0  0  3  0  0  0  0  0  0
  186.5300  179.0350  137.6330 C   0  0  0  0  0  2  0  0  0  0  0  0
  185.2760  178.1690  137.7110 C   0  0  0  0  0  2  0  0  0  0  0  0
  184.6010  178.1940  139.0890 C   0  0  2  0  0  3  0  0  0  0  0  0
  182.1920  177.5950  139.0440 C   0  0  0  0  0  2  0  0  0  0  0  0
  183.1830  178.7450  139.0060 C   0  0  0  0  0  3  0  0  0  0  0  0
  182.5140  178.2700  137.7290 C   0  0  0  0  0  2  0  0  0  0  0  0
  185.4000  178.9520  140.1060 C   0  0  0  0  0  3  0  0  0  0  0  0
  184.9260  179.1640  141.3330 C   0  0  0  0  0  2  0  0  0  0  0  0
  192.5540  175.8720  134.8850 C   0  0  0  0  0  2  0  0  0  0  0  0
  193.9880  175.8000  134.3860 C   0  0  0  0  0  2  0  0  0  0  0  0
  194.9550  176.0690  135.5250 C   0  0  0  0  0  2  0  0  0  0  0  0
  198.6310  171.9330  135.7930 C   0  0  0  0  0  1  0  0  0  0  0  0
  196.5700  174.6720  137.0300 S   0  0  0  0  0  0  0  0  0  0  0  0
  197.1420  172.2200  135.7700 C   0  0  1  0  0  0  0  0  0  0  0  0
  195.7130  170.7310  137.0680 C   0  0  1  0  0  3  0  0  0  0  0  0
  194.3370  172.7020  137.1030 O   0  0  0  0  0  1  0  0  0  0  0  0
  196.8160  173.0260  134.5020 C   0  0  0  0  0  2  0  0  0  0  0  0
  196.3900  170.8950  135.7200 C   0  0  0  0  0  2  0  0  0  0  0  0
  197.9060  175.2850  137.3370 O   0  0  0  0  0  0  0  0  0  0  0  0
  196.0900  175.1640  135.4270 N   0  0  0  0  0  0  0  0  0  0  0  0
  195.5130  172.1370  137.6160 C   0  0  2  0  0  3  0  0  0  0  0  0
  195.5780  175.1290  138.0650 O   0  0  0  0  0  0  0  0  0  0  0  0
  194.4230  169.9410  136.9390 C   0  0  0  0  0  1  0  0  0  0  0  0
  195.6490  173.9900  134.6850 C   0  0  0  0  0  2  0  0  0  0  0  0
  196.7410  172.8810  137.1000 C   0  0  2  0  0  3  0  0  0  0  0  0
  186.5680  173.7610  135.2720 C   0  0  0  0  0  2  0  0  0  0  0  0
  185.3810  172.8280  135.5070 C   0  0  2  0  0  3  0  0  0  0  0  0
  184.5160  173.3880  137.0150 P   0  0  0  0  0  0  0  0  0  0  0  0
  184.4970  175.0790  137.0630 O   0  0  0  0  0  1  0  0  0  0  0  0
  183.0950  172.8730  137.0050 O   0  0  0  0  0  0  0  0  0  0  0  0
  185.3010  172.8020  138.3940 O   0  0  0  0  0  1  0  0  0  0  0  0
  186.4600  170.8270  134.3730 C   0  0  0  0  0  1  0  0  0  0  0  0
  184.6460  170.4660  135.9860 C   0  0  0  0  0  1  0  0  0  0  0  0
  185.8250  171.3600  135.6480 C   0  0  0  0  0  3  0  0  0  0  0  0
  1  3  2  0  0  0  0
  2  9  1  0  0  0  0
  2  4  1  0  0  0  0
  3 18  1  0  0  0  0
  4 35  1  6  0  0  0
  4  1  1  0  0  0  0
  5 52  1  6  0  0  0
  5  7  1  0  0  0  0
  6  7  1  0  0  0  0
  6  3  1  0  0  0  0
  8  9  1  0  0  0  0
  8  5  1  0  0  0  0
  9  6  2  0  0  0  0
 10 12  1  0  0  0  0
 10 15  1  0  0  0  0
 11 16  1  0  0  0  0
 12 15  1  0  0  0  0
 12 27  1  1  0  0  0
 13 14  1  0  0  0  0
 14 16  2  0  0  0  0
 15 17  1  0  0  0  0
 17 18  1  0  0  0  0
 17 13  2  0  0  0  0
 18 11  1  0  0  0  0
 19 23  1  0  0  0  0
 20 25  1  0  0  0  0
 21 20  2  0  0  0  0
 22 21  1  0  0  0  0
 23 21  1  0  0  0  0
 24 14  1  6  0  0  0
 24 19  1  0  0  0  0
 24 22  1  0  0  0  0
 25 26  3  0  0  0  0
 27 28  1  0  0  0  0
 29 28  1  6  0  0  0
 29 33  1  0  0  0  0
 31 30  1  0  0  0  0
 31 29  1  0  0  0  0
 32 31  1  0  0  0  0
 32 30  1  0  0  0  0
 33 34  2  0  0  0  0
 36 35  1  0  0  0  0
 36 37  1  0  0  0  0
 39 45  2  0  0  0  0
 39 48  2  0  0  0  0
 40 38  1  1  0  0  0
 40 51  1  0  0  0  0
 41 49  1  6  0  0  0
 41 47  1  0  0  0  0
 43 50  1  0  0  0  0
 43 40  1  0  0  0  0
 44 40  1  0  0  0  0
 44 41  1  0  0  0  0
 46 37  1  0  0  0  0
 46 39  1  0  0  0  0
 47 42  1  6  0  0  0
 50 46  1  0  0  0  0
 51 39  1  6  0  0  0
 51 47  1  0  0  0  0
 53 52  1  1  0  0  0
 53 60  1  0  0  0  0
 53 54  1  0  0  0  0
 54 55  1  0  0  0  0
 54 57  1  0  0  0  0
 56 54  2  0  0  0  0
 58 60  1  0  0  0  0
 60 59  1  0  0  0  0
M  END
>  <MODEL>
5

>  <REMARK>
 VINA RESULT:      -6.3      3.131      8.464
  Name = 
  16 active torsions:
  status: ('A' for Active; 'I' for Inactive)
    1  A    between atoms: P_3  and  C_59
    2  A    between atoms: C_5  and  C_49
    3  A    between atoms: C_6  and  C_15
    4  A    between atoms: C_6  and  C_49
    5  A    between atoms: C_9  and  N_45
    6  A    between atoms: C_13  and  N_36
    7  A    between atoms: C_13  and  C_38
    8  A    between atoms: C_15  and  C_27
    9  A    between atoms: C_17  and  C_33
   10  A    between atoms: C_17  and  C_38
   11  A    between atoms: C_21  and  C_34
   12  A    between atoms: C_30  and  C_49
   13  A    between atoms: C_31  and  C_51
   14  A    between atoms: C_35  and  C_57
   15  A    between atoms: C_46  and  C_59
   16  A    between atoms: C_57  and  C_59
                            x       y       z     vdW  Elec       q    Type
                         _______ _______ _______ _____ _____    ______ ____

>  <TORSDO>
F 16

$$$$
=
 OpenBabel10222421383D

 60 67  0  0  1  0  0  0  0  0999 V2000
  188.9520  176.9710  137.9620 C   0  0  0  0  0  3  0  0  0  0  0  0
  189.5970  175.9160  135.8450 O   0  0  0  0  0  0  0  0  0  0  0  0
  190.1420  176.6490  138.4860 C   0  0  0  0  0  0  0  0  0  0  0  0
  188.5020  176.4400  136.6140 C   0  0  1  0  0  3  0  0  0  0  0  0
  192.9880  174.7350  136.8310 C   0  0  2  0  0  3  0  0  0  0  0  0
  191.0710  175.8230  137.6910 C   0  0  0  0  0  0  0  0  0  0  0  0
  192.3870  175.2940  138.1220 C   0  0  0  0  0  2  0  0  0  0  0  0
  191.8740  174.7650  135.7770 C   0  0  0  0  0  2  0  0  0  0  0  0
  190.7970  175.5220  136.4460 C   0  0  0  0  0  0  0  0  0  0  0  0
  186.8790  177.2920  140.2290 O   0  0  0  0  0  0  0  0  0  0  0  0
  191.9210  177.1350  140.1460 C   0  0  0  0  0  2  0  0  0  0  0  0
  186.8950  178.5610  140.4940 C   0  0  2  0  0  3  0  0  0  0  0  0
  189.8630  178.1410  141.8390 N   0  0  0  0  0  0  0  0  0  0  0  0
  191.1840  177.9680  142.3620 C   0  0  0  0  0  0  0  0  0  0  0  0
  188.1610  177.8650  140.2420 N   0  0  0  0  0  0  0  0  0  0  0  0
  192.1480  177.4370  141.5990 C   0  0  0  0  0  3  0  0  0  0  0  0
  189.5260  177.7590  140.6460 C   0  0  0  0  0  0  0  0  0  0  0  0
  190.4970  177.1240  139.7910 N   0  0  0  0  0  0  0  0  0  0  0  0
  190.4470  179.2350  144.3180 N   0  0  0  0  0  2  0  0  0  0  0  0
  189.8510  176.5470  146.5930 C   0  0  0  0  0  3  0  0  0  0  0  0
  190.2960  177.3410  145.6230 C   0  0  0  0  0  0  0  0  0  0  0  0
  191.3460  176.9820  144.6680 C   0  0  0  0  0  2  0  0  0  0  0  0
  189.8280  178.6090  145.3770 O   0  0  0  0  0  0  0  0  0  0  0  0
  191.4250  178.2550  143.8130 C   0  0  1  0  0  3  0  0  0  0  0  0
  188.8090  176.9680  147.4920 C   0  0  0  0  0  0  0  0  0  0  0  0
  187.9360  177.3230  148.2460 C   0  0  0  0  0  3  0  0  0  0  0  0
  186.7150  178.7810  141.9860 C   0  0  0  0  0  2  0  0  0  0  0  0
  185.2630  179.1430  142.2860 C   0  0  0  0  0  2  0  0  0  0  0  0
  184.9840  179.3590  143.7800 C   0  0  2  0  0  3  0  0  0  0  0  0
  185.1840  177.9170  145.7910 C   0  0  0  0  0  2  0  0  0  0  0  0
  185.9490  178.5640  144.6490 C   0  0  0  0  0  3  0  0  0  0  0  0
  186.0070  179.1610  146.0430 C   0  0  0  0  0  2  0  0  0  0  0  0
  183.5650  179.0460  144.1490 C   0  0  0  0  0  3  0  0  0  0  0  0
  182.5850  179.1390  143.2510 C   0  0  0  0  0  2  0  0  0  0  0  0
  187.4630  175.3470  136.8210 C   0  0  0  0  0  2  0  0  0  0  0  0
  186.0620  175.9340  136.8250 C   0  0  0  0  0  2  0  0  0  0  0  0
  185.0650  174.9230  136.2870 C   0  0  0  0  0  2  0  0  0  0  0  0
  180.1600  177.4080  135.6130 C   0  0  0  0  0  1  0  0  0  0  0  0
  182.4660  174.6560  136.2330 S   0  0  0  0  0  0  0  0  0  0  0  0
  181.2570  177.1670  136.6330 C   0  0  1  0  0  0  0  0  0  0  0  0
  180.5670  176.9410  138.9600 C   0  0  1  0  0  3  0  0  0  0  0  0
  182.5920  175.6480  139.0380 O   0  0  0  0  0  1  0  0  0  0  0  0
  182.5870  177.6750  136.0540 C   0  0  0  0  0  2  0  0  0  0  0  0
  180.9330  177.9570  137.8960 C   0  0  0  0  0  2  0  0  0  0  0  0
  181.8690  174.1220  134.9630 O   0  0  0  0  0  0  0  0  0  0  0  0
  183.8690  175.6110  135.8260 N   0  0  0  0  0  0  0  0  0  0  0  0
  181.2710  175.6480  138.5720 C   0  0  2  0  0  3  0  0  0  0  0  0
  182.8300  173.4980  137.1210 O   0  0  0  0  0  0  0  0  0  0  0  0
  180.9390  177.4420  140.3450 C   0  0  0  0  0  1  0  0  0  0  0  0
  183.7960  176.8810  136.5370 C   0  0  0  0  0  2  0  0  0  0  0  0
  181.2340  175.6850  137.0470 C   0  0  2  0  0  3  0  0  0  0  0  0
  193.4850  173.3170  137.0550 C   0  0  0  0  0  2  0  0  0  0  0  0
  194.7960  173.0680  136.3100 C   0  0  2  0  0  3  0  0  0  0  0  0
  194.9210  171.2770  135.9780 P   0  0  0  0  0  0  0  0  0  0  0  0
  196.1450  170.6070  136.9330 O   0  0  0  0  0  1  0  0  0  0  0  0
  193.6070  170.6070  136.3080 O   0  0  0  0  0  1  0  0  0  0  0  0
  195.2790  171.0060  134.3470 O   0  0  0  0  0  0  0  0  0  0  0  0
  195.7200  173.6560  138.6020 C   0  0  0  0  0  1  0  0  0  0  0  0
  196.4600  174.9310  136.6400 C   0  0  0  0  0  1  0  0  0  0  0  0
  196.0140  173.5590  137.1130 C   0  0  0  0  0  3  0  0  0  0  0  0
  1  3  2  0  0  0  0
  2  9  1  0  0  0  0
  2  4  1  0  0  0  0
  3 18  1  0  0  0  0
  4 35  1  1  0  0  0
  4  1  1  0  0  0  0
  5 52  1  1  0  0  0
  5  7  1  0  0  0  0
  6  7  1  0  0  0  0
  6  3  1  0  0  0  0
  8  9  1  0  0  0  0
  8  5  1  0  0  0  0
  9  6  2  0  0  0  0
 10 15  1  0  0  0  0
 10 12  1  0  0  0  0
 11 16  1  0  0  0  0
 12 27  1  1  0  0  0
 13 14  1  0  0  0  0
 15 12  1  0  0  0  0
 15 17  1  0  0  0  0
 16 14  2  0  0  0  0
 17 13  2  0  0  0  0
 18 11  1  0  0  0  0
 18 17  1  0  0  0  0
 19 23  1  0  0  0  0
 20 25  1  0  0  0  0
 21 20  2  0  0  0  0
 22 21  1  0  0  0  0
 23 21  1  0  0  0  0
 24 14  1  6  0  0  0
 24 19  1  0  0  0  0
 24 22  1  0  0  0  0
 25 26  3  0  0  0  0
 27 28  1  0  0  0  0
 29 28  1  6  0  0  0
 29 33  1  0  0  0  0
 29 31  1  0  0  0  0
 30 32  1  0  0  0  0
 31 30  1  0  0  0  0
 31 32  1  0  0  0  0
 34 33  2  0  0  0  0
 35 36  1  0  0  0  0
 37 36  1  0  0  0  0
 39 48  2  0  0  0  0
 40 38  1  6  0  0  0
 40 51  1  0  0  0  0
 40 44  1  0  0  0  0
 41 49  1  1  0  0  0
 43 50  1  0  0  0  0
 43 40  1  0  0  0  0
 44 41  1  0  0  0  0
 45 39  2  0  0  0  0
 46 39  1  0  0  0  0
 46 37  1  0  0  0  0
 46 50  1  0  0  0  0
 47 41  1  0  0  0  0
 47 42  1  6  0  0  0
 51 39  1  6  0  0  0
 51 47  1  0  0  0  0
 53 52  1  1  0  0  0
 53 60  1  0  0  0  0
 54 56  1  0  0  0  0
 54 53  1  0  0  0  0
 54 55  1  0  0  0  0
 57 54  2  0  0  0  0
 59 60  1  0  0  0  0
 60 58  1  0  0  0  0
M  END
>  <MODEL>
6

>  <REMARK>
 VINA RESULT:      -6.2      1.480      2.101
  Name = 
  16 active torsions:
  status: ('A' for Active; 'I' for Inactive)
    1  A    between atoms: P_3  and  C_59
    2  A    between atoms: C_5  and  C_49
    3  A    between atoms: C_6  and  C_15
    4  A    between atoms: C_6  and  C_49
    5  A    between atoms: C_9  and  N_45
    6  A    between atoms: C_13  and  N_36
    7  A    between atoms: C_13  and  C_38
    8  A    between atoms: C_15  and  C_27
    9  A    between atoms: C_17  and  C_33
   10  A    between atoms: C_17  and  C_38
   11  A    between atoms: C_21  and  C_34
   12  A    between atoms: C_30  and  C_49
   13  A    between atoms: C_31  and  C_51
   14  A    between atoms: C_35  and  C_57
   15  A    between atoms: C_46  and  C_59
   16  A    between atoms: C_57  and  C_59
                            x       y       z     vdW  Elec       q    Type
                         _______ _______ _______ _____ _____    ______ ____

>  <TORSDO>
F 16

$$$$
