=
 OpenBabel10232412453D

 39 46  0  0  1  0  0  0  0  0999 V2000
  187.0780  175.7530  134.9310 C   0  0  1  0  0  3  0  0  0  0  0  0
  189.7620  176.5990  140.3640 C   0  0  1  0  0  3  0  0  0  0  0  0
  188.3350  178.4660  139.1650 C   0  0  0  0  0  2  0  0  0  0  0  0
  187.5360  177.5770  138.2000 C   0  0  0  0  0  2  0  0  0  0  0  0
  190.5510  176.3210  138.0100 C   0  0  1  0  0  0  0  0  0  0  0  0
  189.7030  177.9500  139.7020 C   0  0  2  0  0  3  0  0  0  0  0  0
  188.4650  177.1180  137.1080 C   0  0  2  0  0  3  0  0  0  0  0  0
  187.9210  176.2290  136.0390 C   0  0  0  0  0  0  0  0  0  0  0  0
  188.7760  175.2800  136.3640 C   0  0  0  0  0  0  0  0  0  0  0  0
  187.5650  174.3360  134.7160 N   0  0  0  0  0  2  0  0  0  0  0  0
  190.7330  177.6340  138.6970 N   0  0  1  0  0  0  0  0  0  0  0  0
  190.9350  176.3490  139.4190 C   0  0  1  0  0  3  0  0  0  0  0  0
  189.1050  175.9710  137.6410 C   0  0  1  0  0  3  0  0  0  0  0  0
  188.6110  174.0920  135.6590 N   0  0  0  0  0  0  0  0  0  0  0  0
  188.7700  172.7990  136.2960 C   0  0  0  0  0  1  0  0  0  0  0  0
  181.6200  175.6590  136.3020 F   0  0  0  0  0  0  0  0  0  0  0  0
  184.9440  176.9620  135.5590 C   0  0  0  0  0  3  0  0  0  0  0  0
  182.9360  175.7040  135.9800 C   0  0  0  0  0  0  0  0  0  0  0  0
  183.6160  174.5510  135.7390 N   0  0  0  0  0  0  0  0  0  0  0  0
  183.5890  176.9340  135.8910 C   0  0  0  0  0  3  0  0  0  0  0  0
  185.6320  175.7640  135.3230 C   0  0  0  0  0  0  0  0  0  0  0  0
  184.9370  174.5560  135.4140 C   0  0  0  0  0  3  0  0  0  0  0  0
  190.2550  176.7460  141.7650 C   0  0  0  0  0  3  0  0  0  0  0  0
  190.2550  175.7400  142.5580 N   0  0  0  0  0  2  0  0  0  0  0  0
  191.5730  176.1100  137.0670 O   0  0  0  0  0  0  0  0  0  0  0  0
  194.0030  174.4780  135.1370 C   0  0  1  0  0  3  0  0  0  0  0  0
  192.3810  175.0650  137.5460 C   0  0  1  0  0  3  0  0  0  0  0  0
  192.5520  174.0010  135.2600 C   0  0  0  0  0  2  0  0  0  0  0  0
  192.1460  173.7970  136.7220 C   0  0  0  0  0  2  0  0  0  0  0  0
  193.8560  175.4620  137.4710 C   0  0  0  0  0  2  0  0  0  0  0  0
  194.2770  175.5640  136.0780 N   0  0  0  0  0  0  0  0  0  0  0  0
  196.7530  171.2660  135.5300 N   0  0  0  0  0  0  0  0  0  0  0  0
  195.5330  171.0270  134.9810 C   0  0  0  0  0  3  0  0  0  0  0  0
  194.9900  173.3540  135.2640 C   0  0  0  0  0  0  0  0  0  0  0  0
  197.1050  172.4860  135.9410 N   0  0  0  0  0  0  0  0  0  0  0  0
  194.6260  172.0770  134.8420 C   0  0  0  0  0  3  0  0  0  0  0  0
  196.2560  173.5410  135.8280 C   0  0  0  0  0  3  0  0  0  0  0  0
  195.2970  177.7490  135.2250 N   0  0  0  0  0  0  0  0  0  0  0  0
  194.8350  176.7610  135.6110 C   0  0  0  0  0  0  0  0  0  0  0  0
  1 21  1  1  0  0  0
  1  8  1  0  0  0  0
  2 23  1  1  0  0  0
  4  3  1  0  0  0  0
  5 25  1  6  0  0  0
  5 11  1  0  0  0  0
  5 12  1  0  0  0  0
  6  3  1  6  0  0  0
  6  2  1  0  0  0  0
  7 13  1  0  0  0  0
  7  4  1  1  0  0  0
  8  9  2  0  0  0  0
  8  7  1  0  0  0  0
  9 13  1  0  0  0  0
 10  1  1  0  0  0  0
 10 14  1  0  0  0  0
 11 12  1  0  0  0  0
 11  6  1  0  0  0  0
 12  2  1  0  0  0  0
 13  5  1  0  0  0  0
 14 15  1  0  0  0  0
 14  9  1  0  0  0  0
 17 20  1  0  0  0  0
 18 16  1  0  0  0  0
 19 18  1  0  0  0  0
 20 18  2  0  0  0  0
 21 22  1  0  0  0  0
 21 17  2  0  0  0  0
 22 19  2  0  0  0  0
 23 24  2  0  0  0  0
 25 27  1  0  0  0  0
 26 28  1  0  0  0  0
 26 34  1  0  0  0  0
 26 31  1  0  0  0  0
 28 29  1  0  0  0  0
 29 27  1  0  0  0  0
 30 27  1  0  0  0  0
 31 30  1  0  0  0  0
 32 35  1  0  0  0  0
 33 32  2  0  0  0  0
 34 37  1  0  0  0  0
 36 33  1  0  0  0  0
 36 34  2  0  0  0  0
 37 35  2  0  0  0  0
 38 39  3  0  0  0  0
 39 31  1  0  0  0  0
M  END
>  <MODEL>
1

>  <REMARK>
 VINA RESULT:      -5.6      0.000      0.000
  Name = 
  6 active torsions:
  status: ('A' for Active; 'I' for Inactive)
    1  A    between atoms: C_4  and  C_6
    2  A    between atoms: C_5  and  C_35
    3  A    between atoms: C_7  and  C_11
    4  A    between atoms: C_14  and  O_36
    5  A    between atoms: C_19  and  O_36
    6  A    between atoms: C_26  and  N_34
                            x       y       z     vdW  Elec       q    Type
                         _______ _______ _______ _____ _____    ______ ____

>  <TORSDO>
F 6

$$$$
=
 OpenBabel10232412453D

 39 46  0  0  1  0  0  0  0  0999 V2000
  188.8000  178.0430  136.2480 C   0  0  1  0  0  3  0  0  0  0  0  0
  184.7360  173.5510  137.1140 C   0  0  1  0  0  3  0  0  0  0  0  0
  185.9510  173.9590  134.8080 C   0  0  0  0  0  2  0  0  0  0  0  0
  187.1450  174.7870  135.3070 C   0  0  0  0  0  2  0  0  0  0  0  0
  184.6390  176.0450  136.9920 C   0  0  1  0  0  0  0  0  0  0  0  0
  184.6480  173.9320  135.6600 C   0  0  2  0  0  3  0  0  0  0  0  0
  186.6450  176.1610  135.6640 C   0  0  2  0  0  3  0  0  0  0  0  0
  187.6240  177.1620  136.1840 C   0  0  0  0  0  0  0  0  0  0  0  0
  186.9530  177.2600  137.3150 C   0  0  0  0  0  0  0  0  0  0  0  0
  188.7170  178.6240  137.6430 N   0  0  0  0  0  2  0  0  0  0  0  0
  183.9980  175.2290  135.9180 N   0  0  1  0  0  0  0  0  0  0  0  0
  183.9230  174.8220  137.3470 C   0  0  1  0  0  3  0  0  0  0  0  0
  186.1710  176.0350  136.9950 C   0  0  1  0  0  3  0  0  0  0  0  0
  187.5540  178.0760  138.2690 N   0  0  0  0  0  0  0  0  0  0  0  0
  187.5420  177.7380  139.6790 C   0  0  0  0  0  1  0  0  0  0  0  0
  193.4650  174.9940  135.4690 F   0  0  0  0  0  0  0  0  0  0  0  0
  190.8930  176.9500  137.1600 C   0  0  0  0  0  3  0  0  0  0  0  0
  192.3500  175.7350  135.6780 C   0  0  0  0  0  0  0  0  0  0  0  0
  191.5290  176.0330  134.6360 N   0  0  0  0  0  0  0  0  0  0  0  0
  192.0460  176.1870  136.9630 C   0  0  0  0  0  3  0  0  0  0  0  0
  190.0620  177.2560  136.0740 C   0  0  0  0  0  0  0  0  0  0  0  0
  190.4010  176.7760  134.8060 C   0  0  0  0  0  3  0  0  0  0  0  0
  183.8920  172.3480  137.3710 C   0  0  0  0  0  3  0  0  0  0  0  0
  183.9060  171.3620  136.5540 N   0  0  0  0  0  2  0  0  0  0  0  0
  183.9570  177.2640  137.1610 O   0  0  0  0  0  0  0  0  0  0  0  0
  181.3480  178.6790  139.0270 C   0  0  1  0  0  3  0  0  0  0  0  0
  184.0690  177.6270  138.5140 C   0  0  1  0  0  3  0  0  0  0  0  0
  182.3930  179.5010  138.2650 C   0  0  0  0  0  2  0  0  0  0  0  0
  183.8180  179.1270  138.6790 C   0  0  0  0  0  2  0  0  0  0  0  0
  183.0640  176.8400  139.3560 C   0  0  0  0  0  2  0  0  0  0  0  0
  181.7050  177.2610  139.0360 N   0  0  0  0  0  0  0  0  0  0  0  0
  180.6180  180.1240  142.9530 N   0  0  0  0  0  0  0  0  0  0  0  0
  181.5000  179.1050  142.7780 C   0  0  0  0  0  3  0  0  0  0  0  0
  181.0950  179.2100  140.4080 C   0  0  0  0  0  0  0  0  0  0  0  0
  179.9830  180.6810  141.9190 N   0  0  0  0  0  0  0  0  0  0  0  0
  181.7500  178.6290  141.4920 C   0  0  0  0  0  3  0  0  0  0  0  0
  180.1930  180.2510  140.6470 C   0  0  0  0  0  3  0  0  0  0  0  0
  179.9960  175.5200  138.2640 N   0  0  0  0  0  0  0  0  0  0  0  0
  180.7690  176.3080  138.6130 C   0  0  0  0  0  0  0  0  0  0  0  0
  1 21  1  1  0  0  0
  1 10  1  0  0  0  0
  2 12  1  0  0  0  0
  2 23  1  6  0  0  0
  3  4  1  0  0  0  0
  5 13  1  0  0  0  0
  5 25  1  1  0  0  0
  5 12  1  0  0  0  0
  6  3  1  1  0  0  0
  6 11  1  0  0  0  0
  6  2  1  0  0  0  0
  7  4  1  1  0  0  0
  7  8  1  0  0  0  0
  7 13  1  0  0  0  0
  8  1  1  0  0  0  0
  8  9  2  0  0  0  0
  9 14  1  0  0  0  0
 10 14  1  0  0  0  0
 11  5  1  0  0  0  0
 11 12  1  0  0  0  0
 13  9  1  0  0  0  0
 14 15  1  0  0  0  0
 16 18  1  0  0  0  0
 18 20  2  0  0  0  0
 19 22  2  0  0  0  0
 19 18  1  0  0  0  0
 20 17  1  0  0  0  0
 21 17  2  0  0  0  0
 22 21  1  0  0  0  0
 24 23  2  0  0  0  0
 25 27  1  0  0  0  0
 26 31  1  0  0  0  0
 26 34  1  0  0  0  0
 27 29  1  0  0  0  0
 27 30  1  0  0  0  0
 28 29  1  0  0  0  0
 28 26  1  0  0  0  0
 31 30  1  0  0  0  0
 33 32  1  0  0  0  0
 34 37  2  0  0  0  0
 34 36  1  0  0  0  0
 35 32  2  0  0  0  0
 36 33  2  0  0  0  0
 37 35  1  0  0  0  0
 38 39  3  0  0  0  0
 39 31  1  0  0  0  0
M  END
>  <MODEL>
2

>  <REMARK>
 VINA RESULT:      -5.0      4.413     10.555
  Name = 
  6 active torsions:
  status: ('A' for Active; 'I' for Inactive)
    1  A    between atoms: C_4  and  C_6
    2  A    between atoms: C_5  and  C_35
    3  A    between atoms: C_7  and  C_11
    4  A    between atoms: C_14  and  O_36
    5  A    between atoms: C_19  and  O_36
    6  A    between atoms: C_26  and  N_34
                            x       y       z     vdW  Elec       q    Type
                         _______ _______ _______ _____ _____    ______ ____

>  <TORSDO>
F 6

$$$$
=
 OpenBabel10232412453D

 39 46  0  0  1  0  0  0  0  0999 V2000
  185.8050  176.4020  136.1620 C   0  0  1  0  0  3  0  0  0  0  0  0
  189.9230  176.5920  140.6830 C   0  0  1  0  0  3  0  0  0  0  0  0
  188.5650  178.7110  139.8940 C   0  0  0  0  0  2  0  0  0  0  0  0
  187.4030  178.0010  139.1800 C   0  0  0  0  0  2  0  0  0  0  0  0
  190.0080  176.2790  138.2060 C   0  0  1  0  0  0  0  0  0  0  0  0
  189.9200  177.9590  140.0520 C   0  0  2  0  0  3  0  0  0  0  0  0
  187.9220  177.4400  137.8840 C   0  0  2  0  0  3  0  0  0  0  0  0
  186.9770  176.6930  137.0030 C   0  0  0  0  0  0  0  0  0  0  0  0
  187.7170  175.6050  137.0960 C   0  0  0  0  0  0  0  0  0  0  0  0
  185.9750  174.9340  135.8340 N   0  0  0  0  0  2  0  0  0  0  0  0
  190.5810  177.5180  138.8120 N   0  0  1  0  0  0  0  0  0  0  0  0
  190.7480  176.1900  139.4630 C   0  0  1  0  0  3  0  0  0  0  0  0
  188.4790  176.1830  138.2360 C   0  0  1  0  0  3  0  0  0  0  0  0
  187.1760  174.4880  136.4680 N   0  0  0  0  0  0  0  0  0  0  0  0
  187.2770  173.1620  137.0480 C   0  0  0  0  0  1  0  0  0  0  0  0
  180.9520  177.1770  138.9050 F   0  0  0  0  0  0  0  0  0  0  0  0
  184.2800  177.8500  137.5710 C   0  0  0  0  0  3  0  0  0  0  0  0
  182.1300  177.0090  138.2560 C   0  0  0  0  0  0  0  0  0  0  0  0
  182.3910  175.8390  137.6140 N   0  0  0  0  0  0  0  0  0  0  0  0
  183.0720  178.0400  138.2440 C   0  0  0  0  0  3  0  0  0  0  0  0
  184.5360  176.6340  136.9220 C   0  0  0  0  0  0  0  0  0  0  0  0
  183.5620  175.6330  136.9530 C   0  0  0  0  0  3  0  0  0  0  0  0
  190.7840  176.6030  141.9020 C   0  0  0  0  0  3  0  0  0  0  0  0
  191.5670  177.5900  142.1320 N   0  0  0  0  0  2  0  0  0  0  0  0
  190.6970  175.9410  137.0270 O   0  0  0  0  0  0  0  0  0  0  0  0
  192.9300  174.4300  134.7850 C   0  0  1  0  0  3  0  0  0  0  0  0
  191.2400  174.6570  137.2080 C   0  0  1  0  0  3  0  0  0  0  0  0
  191.4090  174.2560  134.7190 C   0  0  0  0  0  2  0  0  0  0  0  0
  190.8400  173.7470  136.0460 C   0  0  0  0  0  2  0  0  0  0  0  0
  192.7650  174.7380  137.2980 C   0  0  0  0  0  2  0  0  0  0  0  0
  193.3220  175.1290  136.0080 N   0  0  0  0  0  0  0  0  0  0  0  0
  194.9770  170.7350  134.3460 N   0  0  0  0  0  0  0  0  0  0  0  0
  193.6180  170.7410  134.3460 C   0  0  0  0  0  3  0  0  0  0  0  0
  193.6640  173.1320  134.6130 C   0  0  0  0  0  0  0  0  0  0  0  0
  195.6780  171.8630  134.4760 N   0  0  0  0  0  0  0  0  0  0  0  0
  192.9370  171.9500  134.4830 C   0  0  0  0  0  3  0  0  0  0  0  0
  195.0610  173.0660  134.6130 C   0  0  0  0  0  3  0  0  0  0  0  0
  194.8200  177.1970  135.8590 N   0  0  0  0  0  0  0  0  0  0  0  0
  194.1430  176.2620  135.9260 C   0  0  0  0  0  0  0  0  0  0  0  0
  1 21  1  1  0  0  0
  1  8  1  0  0  0  0
  2 23  1  1  0  0  0
  4  3  1  0  0  0  0
  5 25  1  6  0  0  0
  5 13  1  0  0  0  0
  5 11  1  0  0  0  0
  5 12  1  0  0  0  0
  6  3  1  6  0  0  0
  6  2  1  0  0  0  0
  7 13  1  0  0  0  0
  7  4  1  1  0  0  0
  8  9  2  0  0  0  0
  8  7  1  0  0  0  0
  9 13  1  0  0  0  0
 10  1  1  0  0  0  0
 10 14  1  0  0  0  0
 11 12  1  0  0  0  0
 11  6  1  0  0  0  0
 12  2  1  0  0  0  0
 14 15  1  0  0  0  0
 14  9  1  0  0  0  0
 17 20  1  0  0  0  0
 18 16  1  0  0  0  0
 19 18  1  0  0  0  0
 20 18  2  0  0  0  0
 21 22  1  0  0  0  0
 21 17  2  0  0  0  0
 22 19  2  0  0  0  0
 23 24  2  0  0  0  0
 25 27  1  0  0  0  0
 26 31  1  0  0  0  0
 27 30  1  0  0  0  0
 28 26  1  0  0  0  0
 28 29  1  0  0  0  0
 29 27  1  0  0  0  0
 31 30  1  0  0  0  0
 32 33  2  0  0  0  0
 32 35  1  0  0  0  0
 33 36  1  0  0  0  0
 34 26  1  0  0  0  0
 35 37  2  0  0  0  0
 36 34  2  0  0  0  0
 37 34  1  0  0  0  0
 38 39  3  0  0  0  0
 39 31  1  0  0  0  0
M  END
>  <MODEL>
3

>  <REMARK>
 VINA RESULT:      -4.8      1.504      1.658
  Name = 
  6 active torsions:
  status: ('A' for Active; 'I' for Inactive)
    1  A    between atoms: C_4  and  C_6
    2  A    between atoms: C_5  and  C_35
    3  A    between atoms: C_7  and  C_11
    4  A    between atoms: C_14  and  O_36
    5  A    between atoms: C_19  and  O_36
    6  A    between atoms: C_26  and  N_34
                            x       y       z     vdW  Elec       q    Type
                         _______ _______ _______ _____ _____    ______ ____

>  <TORSDO>
F 6

$$$$
=
 OpenBabel10232412453D

 39 46  0  0  1  0  0  0  0  0999 V2000
  193.7900  176.0900  136.6810 C   0  0  1  0  0  3  0  0  0  0  0  0
  188.9920  172.3490  136.0300 C   0  0  1  0  0  3  0  0  0  0  0  0
  191.0230  172.3800  134.3460 C   0  0  0  0  0  2  0  0  0  0  0  0
  192.0700  173.0570  135.2440 C   0  0  0  0  0  2  0  0  0  0  0  0
  189.3730  174.8100  135.8360 C   0  0  1  0  0  0  0  0  0  0  0  0
  189.5130  172.6200  134.6430 C   0  0  2  0  0  3  0  0  0  0  0  0
  191.7160  174.5150  135.3610 C   0  0  2  0  0  3  0  0  0  0  0  0
  192.5890  175.3940  136.1940 C   0  0  0  0  0  0  0  0  0  0  0  0
  191.5760  175.6840  136.9870 C   0  0  0  0  0  0  0  0  0  0  0  0
  193.2980  176.7870  137.9310 N   0  0  0  0  0  2  0  0  0  0  0  0
  189.0460  174.0170  134.6140 N   0  0  1  0  0  0  0  0  0  0  0  0
  188.3800  173.7420  135.9150 C   0  0  1  0  0  3  0  0  0  0  0  0
  190.7710  174.5690  136.4170 C   0  0  1  0  0  3  0  0  0  0  0  0
  191.9110  176.4740  138.0820 N   0  0  0  0  0  0  0  0  0  0  0  0
  191.3220  176.2560  139.3890 C   0  0  0  0  0  1  0  0  0  0  0  0
  197.9030  172.4010  137.7510 F   0  0  0  0  0  0  0  0  0  0  0  0
  194.7180  174.1570  138.0260 C   0  0  0  0  0  3  0  0  0  0  0  0
  196.9030  173.2840  137.5140 C   0  0  0  0  0  0  0  0  0  0  0  0
  197.0340  174.2100  136.5260 N   0  0  0  0  0  0  0  0  0  0  0  0
  195.7380  173.2390  138.2820 C   0  0  0  0  0  3  0  0  0  0  0  0
  194.8740  175.1100  137.0100 C   0  0  0  0  0  0  0  0  0  0  0  0
  196.0530  175.1130  136.2600 C   0  0  0  0  0  3  0  0  0  0  0  0
  187.9210  171.3110  135.9710 C   0  0  0  0  0  3  0  0  0  0  0  0
  188.0540  170.2870  135.2140 N   0  0  0  0  0  2  0  0  0  0  0  0
  188.8960  176.1280  135.7130 O   0  0  0  0  0  0  0  0  0  0  0  0
  185.9470  177.6010  136.9080 C   0  0  1  0  0  3  0  0  0  0  0  0
  188.7500  176.6470  137.0110 C   0  0  1  0  0  3  0  0  0  0  0  0
  187.0840  178.3870  136.2470 C   0  0  0  0  0  2  0  0  0  0  0  0
  188.4230  178.1400  136.9470 C   0  0  0  0  0  2  0  0  0  0  0  0
  187.6360  175.9080  137.7530 C   0  0  0  0  0  2  0  0  0  0  0  0
  186.3440  176.2150  137.1510 N   0  0  0  0  0  0  0  0  0  0  0  0
  184.4790  179.5460  140.3870 N   0  0  0  0  0  0  0  0  0  0  0  0
  183.6720  179.4400  139.2990 C   0  0  0  0  0  3  0  0  0  0  0  0
  185.4330  178.2710  138.1500 C   0  0  0  0  0  0  0  0  0  0  0  0
  185.7180  179.0480  140.3850 N   0  0  0  0  0  0  0  0  0  0  0  0
  184.1430  178.7980  138.1550 C   0  0  0  0  0  3  0  0  0  0  0  0
  186.2230  178.4140  139.2950 C   0  0  0  0  0  3  0  0  0  0  0  0
  184.8610  174.3090  136.3080 N   0  0  0  0  0  0  0  0  0  0  0  0
  185.5310  175.1710  136.6900 C   0  0  0  0  0  0  0  0  0  0  0  0
  1 21  1  1  0  0  0
  1 10  1  0  0  0  0
  2 23  1  6  0  0  0
  3  4  1  0  0  0  0
  5 25  1  1  0  0  0
  5 12  1  0  0  0  0
  5 13  1  0  0  0  0
  6  3  1  1  0  0  0
  6  2  1  0  0  0  0
  7  4  1  1  0  0  0
  7  8  1  0  0  0  0
  7 13  1  0  0  0  0
  8  1  1  0  0  0  0
  8  9  2  0  0  0  0
  9 14  1  0  0  0  0
 10 14  1  0  0  0  0
 11  6  1  0  0  0  0
 11  5  1  0  0  0  0
 11 12  1  0  0  0  0
 12  2  1  0  0  0  0
 13  9  1  0  0  0  0
 14 15  1  0  0  0  0
 17 20  1  0  0  0  0
 18 16  1  0  0  0  0
 18 20  2  0  0  0  0
 19 18  1  0  0  0  0
 21 17  2  0  0  0  0
 22 19  2  0  0  0  0
 22 21  1  0  0  0  0
 24 23  2  0  0  0  0
 25 27  1  0  0  0  0
 26 31  1  0  0  0  0
 26 34  1  0  0  0  0
 27 30  1  0  0  0  0
 28 26  1  0  0  0  0
 28 29  1  0  0  0  0
 29 27  1  0  0  0  0
 31 30  1  0  0  0  0
 33 32  2  0  0  0  0
 34 36  2  0  0  0  0
 34 37  1  0  0  0  0
 35 32  1  0  0  0  0
 36 33  1  0  0  0  0
 37 35  2  0  0  0  0
 38 39  3  0  0  0  0
 39 31  1  0  0  0  0
M  END
>  <MODEL>
4

>  <REMARK>
 VINA RESULT:      -4.5      3.555      9.313
  Name = 
  6 active torsions:
  status: ('A' for Active; 'I' for Inactive)
    1  A    between atoms: C_4  and  C_6
    2  A    between atoms: C_5  and  C_35
    3  A    between atoms: C_7  and  C_11
    4  A    between atoms: C_14  and  O_36
    5  A    between atoms: C_19  and  O_36
    6  A    between atoms: C_26  and  N_34
                            x       y       z     vdW  Elec       q    Type
                         _______ _______ _______ _____ _____    ______ ____

>  <TORSDO>
F 6

$$$$
=
 OpenBabel10232412453D

 39 46  0  0  1  0  0  0  0  0999 V2000
  185.9460  175.5100  135.2040 C   0  0  1  0  0  3  0  0  0  0  0  0
  189.7920  176.7050  139.8120 C   0  0  1  0  0  3  0  0  0  0  0  0
  188.3320  178.5670  138.6450 C   0  0  0  0  0  2  0  0  0  0  0  0
  187.2630  177.6690  138.0030 C   0  0  0  0  0  2  0  0  0  0  0  0
  190.0320  176.0270  137.4190 C   0  0  1  0  0  0  0  0  0  0  0  0
  189.7260  177.9560  138.9760 C   0  0  2  0  0  3  0  0  0  0  0  0
  187.8900  176.9590  136.8330 C   0  0  2  0  0  3  0  0  0  0  0  0
  187.0470  176.0150  136.0390 C   0  0  0  0  0  0  0  0  0  0  0  0
  187.8560  175.0150  136.3320 C   0  0  0  0  0  0  0  0  0  0  0  0
  186.2360  174.0270  135.1170 N   0  0  0  0  0  2  0  0  0  0  0  0
  190.4830  177.3840  137.8490 N   0  0  1  0  0  0  0  0  0  0  0  0
  190.7070  176.1880  138.7040 C   0  0  1  0  0  3  0  0  0  0  0  0
  188.5140  175.8180  137.3990 C   0  0  1  0  0  3  0  0  0  0  0  0
  187.4300  173.7770  135.8630 N   0  0  0  0  0  0  0  0  0  0  0  0
  187.5940  172.5670  136.6460 C   0  0  0  0  0  1  0  0  0  0  0  0
  181.0520  176.5600  137.7770 F   0  0  0  0  0  0  0  0  0  0  0  0
  183.7490  174.7040  136.1700 C   0  0  0  0  0  3  0  0  0  0  0  0
  182.2220  176.2860  137.1520 C   0  0  0  0  0  0  0  0  0  0  0  0
  183.0870  177.2930  136.8570 N   0  0  0  0  0  0  0  0  0  0  0  0
  182.5400  174.9690  136.8140 C   0  0  0  0  0  3  0  0  0  0  0  0
  184.6250  175.7550  135.8660 C   0  0  0  0  0  0  0  0  0  0  0  0
  184.2710  177.0570  136.2290 C   0  0  0  0  0  3  0  0  0  0  0  0
  190.5830  176.9680  141.0490 C   0  0  0  0  0  3  0  0  0  0  0  0
  191.7250  177.5440  140.9760 N   0  0  0  0  0  2  0  0  0  0  0  0
  190.8050  175.5680  136.3370 O   0  0  0  0  0  0  0  0  0  0  0  0
  193.5650  173.6090  135.4220 C   0  0  1  0  0  3  0  0  0  0  0  0
  190.8230  174.1640  136.3960 C   0  0  1  0  0  3  0  0  0  0  0  0
  192.4370  173.9930  134.4590 C   0  0  0  0  0  2  0  0  0  0  0  0
  191.0660  173.5820  135.0020 C   0  0  0  0  0  2  0  0  0  0  0  0
  191.9190  173.6900  137.3510 C   0  0  0  0  0  2  0  0  0  0  0  0
  193.2330  173.9920  136.7940 N   0  0  0  0  0  0  0  0  0  0  0  0
  194.6990  169.5290  135.0990 N   0  0  0  0  0  0  0  0  0  0  0  0
  195.3610  170.3310  135.9740 C   0  0  0  0  0  3  0  0  0  0  0  0
  193.9460  172.1610  135.3120 C   0  0  0  0  0  0  0  0  0  0  0  0
  193.7010  169.9950  134.3460 N   0  0  0  0  0  0  0  0  0  0  0  0
  194.9920  171.6700  136.0920 C   0  0  0  0  0  3  0  0  0  0  0  0
  193.3040  171.2920  134.4240 C   0  0  0  0  0  3  0  0  0  0  0  0
  194.8830  175.3990  138.1500 N   0  0  0  0  0  0  0  0  0  0  0  0
  194.1370  174.7630  137.5370 C   0  0  0  0  0  0  0  0  0  0  0  0
  1 21  1  1  0  0  0
  1  8  1  0  0  0  0
  2 23  1  1  0  0  0
  4  3  1  0  0  0  0
  5 25  1  6  0  0  0
  5 11  1  0  0  0  0
  5 12  1  0  0  0  0
  6  3  1  6  0  0  0
  6  2  1  0  0  0  0
  7 13  1  0  0  0  0
  7  4  1  1  0  0  0
  8  9  2  0  0  0  0
  8  7  1  0  0  0  0
  9 13  1  0  0  0  0
 10  1  1  0  0  0  0
 10 14  1  0  0  0  0
 11 12  1  0  0  0  0
 11  6  1  0  0  0  0
 12  2  1  0  0  0  0
 13  5  1  0  0  0  0
 14  9  1  0  0  0  0
 14 15  1  0  0  0  0
 17 20  1  0  0  0  0
 18 16  1  0  0  0  0
 19 18  1  0  0  0  0
 20 18  2  0  0  0  0
 21 17  2  0  0  0  0
 21 22  1  0  0  0  0
 22 19  2  0  0  0  0
 24 23  2  0  0  0  0
 25 27  1  0  0  0  0
 26 31  1  0  0  0  0
 27 30  1  0  0  0  0
 28 29  1  0  0  0  0
 28 26  1  0  0  0  0
 29 27  1  0  0  0  0
 31 30  1  0  0  0  0
 31 39  1  0  0  0  0
 32 33  1  0  0  0  0
 33 36  2  0  0  0  0
 34 26  1  0  0  0  0
 34 36  1  0  0  0  0
 35 37  1  0  0  0  0
 35 32  2  0  0  0  0
 37 34  2  0  0  0  0
 39 38  3  0  0  0  0
M  END
>  <MODEL>
5

>  <REMARK>
 VINA RESULT:      -4.3      1.609      1.972
  Name = 
  6 active torsions:
  status: ('A' for Active; 'I' for Inactive)
    1  A    between atoms: C_4  and  C_6
    2  A    between atoms: C_5  and  C_35
    3  A    between atoms: C_7  and  C_11
    4  A    between atoms: C_14  and  O_36
    5  A    between atoms: C_19  and  O_36
    6  A    between atoms: C_26  and  N_34
                            x       y       z     vdW  Elec       q    Type
                         _______ _______ _______ _____ _____    ______ ____

>  <TORSDO>
F 6

$$$$
=
 OpenBabel10232412453D

 39 46  0  0  1  0  0  0  0  0999 V2000
  189.6490  176.1610  143.7750 C   0  0  1  0  0  3  0  0  0  0  0  0
  189.0040  178.9740  138.3790 C   0  0  1  0  0  3  0  0  0  0  0  0
  187.1370  177.4290  139.4210 C   0  0  0  0  0  2  0  0  0  0  0  0
  187.5950  177.4530  140.8880 C   0  0  0  0  0  2  0  0  0  0  0  0
  190.4110  177.1060  139.2590 C   0  0  1  0  0  0  0  0  0  0  0  0
  188.1850  177.7140  138.3040 C   0  0  2  0  0  3  0  0  0  0  0  0
  188.8310  176.6030  141.0070 C   0  0  2  0  0  3  0  0  0  0  0  0
  189.4760  176.4690  142.3470 C   0  0  0  0  0  0  0  0  0  0  0  0
  190.5920  177.0000  141.8850 C   0  0  0  0  0  0  0  0  0  0  0  0
  191.0470  176.6630  144.0660 N   0  0  0  0  0  2  0  0  0  0  0  0
  189.3520  176.8170  138.2470 N   0  0  1  0  0  0  0  0  0  0  0  0
  190.1930  178.0420  138.1590 C   0  0  1  0  0  3  0  0  0  0  0  0
  189.8970  177.4710  140.6560 C   0  0  1  0  0  3  0  0  0  0  0  0
  191.5740  177.1990  142.8500 N   0  0  0  0  0  0  0  0  0  0  0  0
  192.4200  178.3770  142.8460 C   0  0  0  0  0  1  0  0  0  0  0  0
  185.9240  178.8560  147.0220 F   0  0  0  0  0  0  0  0  0  0  0  0
  187.3160  177.0620  144.1670 C   0  0  0  0  0  3  0  0  0  0  0  0
  186.8060  178.2100  146.2210 C   0  0  0  0  0  0  0  0  0  0  0  0
  188.0910  178.0320  146.6320 N   0  0  0  0  0  0  0  0  0  0  0  0
  186.3940  177.7240  144.9790 C   0  0  0  0  0  3  0  0  0  0  0  0
  188.6370  176.8950  144.6010 C   0  0  0  0  0  0  0  0  0  0  0  0
  189.0050  177.3900  145.8550 C   0  0  0  0  0  3  0  0  0  0  0  0
  188.7690  179.8020  137.1600 C   0  0  0  0  0  3  0  0  0  0  0  0
  187.6240  179.7940  136.5850 N   0  0  0  0  0  2  0  0  0  0  0  0
  191.4780  176.1990  139.1330 O   0  0  0  0  0  0  0  0  0  0  0  0
  194.3790  174.5920  137.9940 C   0  0  1  0  0  3  0  0  0  0  0  0
  192.4960  176.8420  138.4090 C   0  0  1  0  0  3  0  0  0  0  0  0
  194.2780  175.3130  139.3430 C   0  0  0  0  0  2  0  0  0  0  0  0
  193.8180  176.7630  139.1760 C   0  0  0  0  0  2  0  0  0  0  0  0
  192.6580  176.1910  137.0350 C   0  0  0  0  0  2  0  0  0  0  0  0
  193.1890  174.8400  137.1810 N   0  0  0  0  0  0  0  0  0  0  0  0
  197.9510  175.4800  135.8760 N   0  0  0  0  0  0  0  0  0  0  0  0
  196.7550  175.6320  135.2480 C   0  0  0  0  0  3  0  0  0  0  0  0
  195.6470  174.9200  137.2610 C   0  0  0  0  0  0  0  0  0  0  0  0
  198.0240  175.0630  137.1420 N   0  0  0  0  0  0  0  0  0  0  0  0
  195.5770  175.3500  135.9370 C   0  0  0  0  0  3  0  0  0  0  0  0
  196.9040  174.7740  137.8560 C   0  0  0  0  0  3  0  0  0  0  0  0
  191.8980  172.8650  136.1920 N   0  0  0  0  0  0  0  0  0  0  0  0
  192.4820  173.7580  136.6390 C   0  0  0  0  0  0  0  0  0  0  0  0
  1 10  1  0  0  0  0
  1 21  1  1  0  0  0
  2 23  1  6  0  0  0
  3  4  1  0  0  0  0
  5 25  1  6  0  0  0
  5 13  1  0  0  0  0
  6  2  1  0  0  0  0
  6  3  1  1  0  0  0
  7  4  1  1  0  0  0
  7  8  1  0  0  0  0
  8  1  1  0  0  0  0
  9  8  2  0  0  0  0
  9 14  1  0  0  0  0
 11  6  1  0  0  0  0
 11  5  1  0  0  0  0
 12 11  1  0  0  0  0
 12  2  1  0  0  0  0
 12  5  1  0  0  0  0
 13  7  1  0  0  0  0
 13  9  1  0  0  0  0
 14 10  1  0  0  0  0
 15 14  1  0  0  0  0
 17 21  2  0  0  0  0
 17 20  1  0  0  0  0
 18 19  1  0  0  0  0
 18 16  1  0  0  0  0
 20 18  2  0  0  0  0
 21 22  1  0  0  0  0
 22 19  2  0  0  0  0
 24 23  2  0  0  0  0
 26 28  1  0  0  0  0
 27 25  1  0  0  0  0
 27 29  1  0  0  0  0
 29 28  1  0  0  0  0
 30 31  1  0  0  0  0
 30 27  1  0  0  0  0
 31 26  1  0  0  0  0
 32 35  1  0  0  0  0
 33 32  2  0  0  0  0
 33 36  1  0  0  0  0
 34 37  1  0  0  0  0
 34 26  1  0  0  0  0
 35 37  2  0  0  0  0
 36 34  2  0  0  0  0
 38 39  3  0  0  0  0
 39 31  1  0  0  0  0
M  END
>  <MODEL>
6

>  <REMARK>
 VINA RESULT:      -4.3      3.626      6.387
  Name = 
  6 active torsions:
  status: ('A' for Active; 'I' for Inactive)
    1  A    between atoms: C_4  and  C_6
    2  A    between atoms: C_5  and  C_35
    3  A    between atoms: C_7  and  C_11
    4  A    between atoms: C_14  and  O_36
    5  A    between atoms: C_19  and  O_36
    6  A    between atoms: C_26  and  N_34
                            x       y       z     vdW  Elec       q    Type
                         _______ _______ _______ _____ _____    ______ ____

>  <TORSDO>
F 6

$$$$
=
 OpenBabel10232412453D

 39 46  0  0  1  0  0  0  0  0999 V2000
  189.2710  178.2650  145.0350 C   0  0  1  0  0  3  0  0  0  0  0  0
  190.2080  176.1950  139.3530 C   0  0  1  0  0  3  0  0  0  0  0  0
  191.9740  177.6630  140.6520 C   0  0  0  0  0  2  0  0  0  0  0  0
  191.4710  177.4340  142.0860 C   0  0  0  0  0  2  0  0  0  0  0  0
  188.6970  177.8800  140.4100 C   0  0  1  0  0  0  0  0  0  0  0  0
  190.9760  177.4850  139.4690 C   0  0  2  0  0  3  0  0  0  0  0  0
  190.1960  178.2140  142.2650 C   0  0  2  0  0  3  0  0  0  0  0  0
  189.5030  178.1500  143.5860 C   0  0  0  0  0  0  0  0  0  0  0  0
  188.4260  177.6420  143.0200 C   0  0  0  0  0  0  0  0  0  0  0  0
  187.8870  177.6780  145.2070 N   0  0  0  0  0  2  0  0  0  0  0  0
  189.7740  178.3370  139.4830 N   0  0  1  0  0  0  0  0  0  0  0  0
  188.9890  177.1030  139.2090 C   0  0  1  0  0  3  0  0  0  0  0  0
  189.1800  177.3590  141.7680 C   0  0  1  0  0  3  0  0  0  0  0  0
  187.4220  177.2840  143.9140 N   0  0  0  0  0  0  0  0  0  0  0  0
  186.6270  176.0850  143.7280 C   0  0  0  0  0  1  0  0  0  0  0  0
  193.1060  175.4130  148.0070 F   0  0  0  0  0  0  0  0  0  0  0  0
  191.1190  176.5390  145.1630 C   0  0  0  0  0  3  0  0  0  0  0  0
  192.1850  176.0840  147.2740 C   0  0  0  0  0  0  0  0  0  0  0  0
  191.3740  176.9970  147.8730 N   0  0  0  0  0  0  0  0  0  0  0  0
  192.0730  175.8390  145.9040 C   0  0  0  0  0  3  0  0  0  0  0  0
  190.2860  177.4700  145.7980 C   0  0  0  0  0  0  0  0  0  0  0  0
  190.4370  177.6890  147.1700 C   0  0  0  0  0  3  0  0  0  0  0  0
  190.5180  175.5410  138.0480 C   0  0  0  0  0  3  0  0  0  0  0  0
  191.4480  174.6640  137.9700 N   0  0  0  0  0  2  0  0  0  0  0  0
  187.5970  178.7560  140.3610 O   0  0  0  0  0  0  0  0  0  0  0  0
  184.6890  179.2730  138.4710 C   0  0  1  0  0  3  0  0  0  0  0  0
  186.4320  177.9800  140.4870 C   0  0  1  0  0  3  0  0  0  0  0  0
  184.9400  179.9130  139.8410 C   0  0  0  0  0  2  0  0  0  0  0  0
  185.2550  178.8620  140.9070 C   0  0  0  0  0  2  0  0  0  0  0  0
  186.1120  177.2890  139.1610 C   0  0  0  0  0  2  0  0  0  0  0  0
  185.7160  178.2780  138.1650 N   0  0  0  0  0  0  0  0  0  0  0  0
  180.7580  177.6930  138.1720 N   0  0  0  0  0  0  0  0  0  0  0  0
  180.9540  178.8500  138.8570 C   0  0  0  0  0  3  0  0  0  0  0  0
  183.3010  178.7140  138.3440 C   0  0  0  0  0  0  0  0  0  0  0  0
  181.7720  177.0480  137.5900 N   0  0  0  0  0  0  0  0  0  0  0  0
  182.2400  179.3800  138.9550 C   0  0  0  0  0  3  0  0  0  0  0  0
  183.0430  177.5240  137.6570 C   0  0  0  0  0  3  0  0  0  0  0  0
  186.9880  178.4130  135.9490 N   0  0  0  0  0  0  0  0  0  0  0  0
  186.4130  178.3520  136.9510 C   0  0  0  0  0  0  0  0  0  0  0  0
  1 10  1  0  0  0  0
  1 21  1  1  0  0  0
  2 23  1  6  0  0  0
  2  6  1  0  0  0  0
  3  4  1  0  0  0  0
  5 25  1  6  0  0  0
  5 13  1  0  0  0  0
  6 11  1  0  0  0  0
  6  3  1  1  0  0  0
  7  4  1  1  0  0  0
  7  8  1  0  0  0  0
  8  1  1  0  0  0  0
  9  8  2  0  0  0  0
  9 14  1  0  0  0  0
 11  5  1  0  0  0  0
 12  2  1  0  0  0  0
 12 11  1  0  0  0  0
 12  5  1  0  0  0  0
 13  7  1  0  0  0  0
 13  9  1  0  0  0  0
 14 10  1  0  0  0  0
 15 14  1  0  0  0  0
 17 21  2  0  0  0  0
 17 20  1  0  0  0  0
 18 19  1  0  0  0  0
 18 16  1  0  0  0  0
 20 18  2  0  0  0  0
 21 22  1  0  0  0  0
 22 19  2  0  0  0  0
 24 23  2  0  0  0  0
 25 27  1  0  0  0  0
 26 28  1  0  0  0  0
 27 29  1  0  0  0  0
 28 29  1  0  0  0  0
 30 27  1  0  0  0  0
 31 26  1  0  0  0  0
 31 30  1  0  0  0  0
 32 33  1  0  0  0  0
 33 36  2  0  0  0  0
 34 26  1  0  0  0  0
 34 36  1  0  0  0  0
 35 37  1  0  0  0  0
 35 32  2  0  0  0  0
 37 34  2  0  0  0  0
 38 39  3  0  0  0  0
 39 31  1  0  0  0  0
M  END
>  <MODEL>
7

>  <REMARK>
 VINA RESULT:      -4.0      4.657     10.277
  Name = 
  6 active torsions:
  status: ('A' for Active; 'I' for Inactive)
    1  A    between atoms: C_4  and  C_6
    2  A    between atoms: C_5  and  C_35
    3  A    between atoms: C_7  and  C_11
    4  A    between atoms: C_14  and  O_36
    5  A    between atoms: C_19  and  O_36
    6  A    between atoms: C_26  and  N_34
                            x       y       z     vdW  Elec       q    Type
                         _______ _______ _______ _____ _____    ______ ____

>  <TORSDO>
F 6

$$$$
=
 OpenBabel10232412453D

 39 46  0  0  1  0  0  0  0  0999 V2000
  192.5270  173.3550  137.2030 C   0  0  1  0  0  3  0  0  0  0  0  0
  188.6160  178.0300  136.6640 C   0  0  1  0  0  3  0  0  0  0  0  0
  190.4950  177.9410  138.5130 C   0  0  0  0  0  2  0  0  0  0  0  0
  191.4210  176.9000  137.8660 C   0  0  0  0  0  2  0  0  0  0  0  0
  188.4480  175.6360  137.3560 C   0  0  1  0  0  0  0  0  0  0  0  0
  188.9880  177.9510  138.1200 C   0  0  2  0  0  3  0  0  0  0  0  0
  190.7690  175.5490  137.9930 C   0  0  2  0  0  3  0  0  0  0  0  0
  191.4780  174.3610  137.4310 C   0  0  0  0  0  0  0  0  0  0  0  0
  190.4720  174.1230  136.6120 C   0  0  0  0  0  0  0  0  0  0  0  0
  191.9670  172.5290  136.0650 N   0  0  0  0  0  2  0  0  0  0  0  0
  188.2310  176.7120  138.3680 N   0  0  1  0  0  0  0  0  0  0  0  0
  187.7130  176.8410  136.9790 C   0  0  1  0  0  3  0  0  0  0  0  0
  189.8940  175.4690  136.8790 C   0  0  1  0  0  3  0  0  0  0  0  0
  190.6910  173.0750  135.7240 N   0  0  0  0  0  0  0  0  0  0  0  0
  190.2360  173.1320  134.3480 C   0  0  0  0  0  1  0  0  0  0  0  0
  197.3650  175.8930  135.8520 F   0  0  0  0  0  0  0  0  0  0  0  0
  194.0360  174.4480  135.4890 C   0  0  0  0  0  3  0  0  0  0  0  0
  196.1960  175.2780  136.1540 C   0  0  0  0  0  0  0  0  0  0  0  0
  195.9600  174.8560  137.4250 N   0  0  0  0  0  0  0  0  0  0  0  0
  195.2340  175.0830  135.1610 C   0  0  0  0  0  3  0  0  0  0  0  0
  193.8120  174.0110  136.8020 C   0  0  0  0  0  0  0  0  0  0  0  0
  194.7980  174.2340  137.7660 C   0  0  0  0  0  3  0  0  0  0  0  0
  187.7920  179.2500  136.4200 C   0  0  0  0  0  3  0  0  0  0  0  0
  186.6590  179.3900  137.0010 N   0  0  0  0  0  2  0  0  0  0  0  0
  187.6920  174.4940  137.6780 O   0  0  0  0  0  0  0  0  0  0  0  0
  184.4050  173.3110  137.3820 C   0  0  1  0  0  3  0  0  0  0  0  0
  187.1430  173.9990  136.4830 C   0  0  1  0  0  3  0  0  0  0  0  0
  185.6040  172.4180  137.7150 C   0  0  0  0  0  2  0  0  0  0  0  0
  186.7120  172.5430  136.6650 C   0  0  0  0  0  2  0  0  0  0  0  0
  185.9390  174.8450  136.0660 C   0  0  0  0  0  2  0  0  0  0  0  0
  184.8440  174.6560  137.0110 N   0  0  0  0  0  0  0  0  0  0  0  0
  181.9020  171.5430  134.4420 N   0  0  0  0  0  0  0  0  0  0  0  0
  182.3620  170.7760  135.4650 C   0  0  0  0  0  3  0  0  0  0  0  0
  183.5050  172.7010  136.3460 C   0  0  0  0  0  0  0  0  0  0  0  0
  182.2150  172.8370  134.3460 N   0  0  0  0  0  0  0  0  0  0  0  0
  183.1790  171.3490  136.4380 C   0  0  0  0  0  3  0  0  0  0  0  0
  183.0080  173.4420  135.2690 C   0  0  0  0  0  3  0  0  0  0  0  0
  183.8370  176.6870  138.1950 N   0  0  0  0  0  0  0  0  0  0  0  0
  184.2920  175.7680  137.6600 C   0  0  0  0  0  0  0  0  0  0  0  0
  1 21  1  6  0  0  0
  1  8  1  0  0  0  0
  2 23  1  1  0  0  0
  2 12  1  0  0  0  0
  2  6  1  0  0  0  0
  4  3  1  0  0  0  0
  5 25  1  1  0  0  0
  5 11  1  0  0  0  0
  6 11  1  0  0  0  0
  6  3  1  6  0  0  0
  7  4  1  6  0  0  0
  8  7  1  0  0  0  0
  9 13  1  0  0  0  0
  9  8  2  0  0  0  0
 10  1  1  0  0  0  0
 12  5  1  0  0  0  0
 12 11  1  0  0  0  0
 13  5  1  0  0  0  0
 13  7  1  0  0  0  0
 14 10  1  0  0  0  0
 14  9  1  0  0  0  0
 15 14  1  0  0  0  0
 16 18  1  0  0  0  0
 17 21  1  0  0  0  0
 18 19  2  0  0  0  0
 19 22  1  0  0  0  0
 20 17  2  0  0  0  0
 20 18  1  0  0  0  0
 21 22  2  0  0  0  0
 23 24  2  0  0  0  0
 26 28  1  0  0  0  0
 27 29  1  0  0  0  0
 27 25  1  0  0  0  0
 29 28  1  0  0  0  0
 30 27  1  0  0  0  0
 30 31  1  0  0  0  0
 31 26  1  0  0  0  0
 31 39  1  0  0  0  0
 32 33  1  0  0  0  0
 33 36  2  0  0  0  0
 34 36  1  0  0  0  0
 34 26  1  0  0  0  0
 35 32  2  0  0  0  0
 35 37  1  0  0  0  0
 37 34  2  0  0  0  0
 39 38  3  0  0  0  0
M  END
>  <MODEL>
8

>  <REMARK>
 VINA RESULT:      -3.8      3.464      8.728
  Name = 
  6 active torsions:
  status: ('A' for Active; 'I' for Inactive)
    1  A    between atoms: C_4  and  C_6
    2  A    between atoms: C_5  and  C_35
    3  A    between atoms: C_7  and  C_11
    4  A    between atoms: C_14  and  O_36
    5  A    between atoms: C_19  and  O_36
    6  A    between atoms: C_26  and  N_34
                            x       y       z     vdW  Elec       q    Type
                         _______ _______ _______ _____ _____    ______ ____

>  <TORSDO>
F 6

$$$$
=
 OpenBabel10232412453D

 39 46  0  0  1  0  0  0  0  0999 V2000
  189.8350  176.1410  137.1030 C   0  0  1  0  0  3  0  0  0  0  0  0
  190.1620  178.8000  142.6050 C   0  0  1  0  0  3  0  0  0  0  0  0
  191.1840  176.4210  142.1010 C   0  0  0  0  0  2  0  0  0  0  0  0
  191.2730  176.5160  140.5700 C   0  0  0  0  0  2  0  0  0  0  0  0
  188.3400  177.8190  141.2040 C   0  0  1  0  0  0  0  0  0  0  0  0
  190.1510  177.3150  142.8490 C   0  0  2  0  0  3  0  0  0  0  0  0
  189.8800  176.4020  140.0110 C   0  0  2  0  0  3  0  0  0  0  0  0
  189.6990  176.4700  138.5310 C   0  0  0  0  0  0  0  0  0  0  0  0
  188.9350  177.5380  138.6530 C   0  0  0  0  0  0  0  0  0  0  0  0
  189.0580  177.2470  136.4220 N   0  0  0  0  0  2  0  0  0  0  0  0
  188.7360  177.1450  142.4760 N   0  0  1  0  0  0  0  0  0  0  0  0
  188.6620  178.6280  142.3770 C   0  0  1  0  0  3  0  0  0  0  0  0
  189.3630  177.7210  140.0660 C   0  0  1  0  0  3  0  0  0  0  0  0
  188.5400  178.1020  137.4440 N   0  0  0  0  0  0  0  0  0  0  0  0
  188.4640  179.5390  137.2610 C   0  0  0  0  0  1  0  0  0  0  0  0
  195.2110  176.1090  135.4400 F   0  0  0  0  0  0  0  0  0  0  0  0
  192.2890  176.5380  137.5800 C   0  0  0  0  0  3  0  0  0  0  0  0
  193.9230  176.1300  135.8590 C   0  0  0  0  0  0  0  0  0  0  0  0
  192.9260  175.7660  135.0080 N   0  0  0  0  0  0  0  0  0  0  0  0
  193.6220  176.5220  137.1650 C   0  0  0  0  0  3  0  0  0  0  0  0
  191.2740  176.1690  136.6870 C   0  0  0  0  0  0  0  0  0  0  0  0
  191.6210  175.7760  135.3920 C   0  0  0  0  0  3  0  0  0  0  0  0
  190.4060  179.5200  143.8880 C   0  0  0  0  0  3  0  0  0  0  0  0
  191.5780  179.5410  144.4050 N   0  0  0  0  0  2  0  0  0  0  0  0
  186.9790  177.5960  140.9270 O   0  0  0  0  0  0  0  0  0  0  0  0
  183.5580  178.2780  140.5750 C   0  0  1  0  0  3  0  0  0  0  0  0
  186.4700  178.7660  140.3380 C   0  0  1  0  0  3  0  0  0  0  0  0
  184.4010  177.5790  139.5040 C   0  0  0  0  0  2  0  0  0  0  0  0
  185.6240  178.4130  139.1130 C   0  0  0  0  0  2  0  0  0  0  0  0
  185.6200  179.5380  141.3470 C   0  0  0  0  0  2  0  0  0  0  0  0
  184.4040  178.7920  141.6510 N   0  0  0  0  0  0  0  0  0  0  0  0
  180.9840  181.2310  138.9360 N   0  0  0  0  0  0  0  0  0  0  0  0
  180.5200  180.4290  139.9300 C   0  0  0  0  0  3  0  0  0  0  0  0
  182.6630  179.3370  140.0010 C   0  0  0  0  0  0  0  0  0  0  0  0
  182.2290  181.1130  138.4700 N   0  0  0  0  0  0  0  0  0  0  0  0
  181.3600  179.4610  140.4790 C   0  0  0  0  0  3  0  0  0  0  0  0
  183.0860  180.1850  138.9720 C   0  0  0  0  0  3  0  0  0  0  0  0
  183.8710  178.1880  144.0790 N   0  0  0  0  0  0  0  0  0  0  0  0
  184.1120  178.4610  142.9810 C   0  0  0  0  0  0  0  0  0  0  0  0
  1 21  1  6  0  0  0
  1  8  1  0  0  0  0
  2  6  1  0  0  0  0
  2 23  1  1  0  0  0
  4  3  1  0  0  0  0
  5 25  1  6  0  0  0
  5 12  1  0  0  0  0
  5 11  1  0  0  0  0
  6  3  1  6  0  0  0
  7 13  1  0  0  0  0
  7  4  1  6  0  0  0
  8  9  2  0  0  0  0
  8  7  1  0  0  0  0
  9 13  1  0  0  0  0
 10  1  1  0  0  0  0
 10 14  1  0  0  0  0
 11  6  1  0  0  0  0
 12 11  1  0  0  0  0
 12  2  1  0  0  0  0
 13  5  1  0  0  0  0
 14  9  1  0  0  0  0
 15 14  1  0  0  0  0
 16 18  1  0  0  0  0
 18 20  2  0  0  0  0
 19 22  2  0  0  0  0
 19 18  1  0  0  0  0
 20 17  1  0  0  0  0
 21 17  2  0  0  0  0
 22 21  1  0  0  0  0
 23 24  2  0  0  0  0
 26 31  1  0  0  0  0
 27 25  1  0  0  0  0
 27 30  1  0  0  0  0
 28 26  1  0  0  0  0
 29 28  1  0  0  0  0
 29 27  1  0  0  0  0
 30 31  1  0  0  0  0
 31 39  1  0  0  0  0
 32 33  1  0  0  0  0
 33 36  2  0  0  0  0
 34 36  1  0  0  0  0
 34 26  1  0  0  0  0
 35 32  2  0  0  0  0
 35 37  1  0  0  0  0
 37 34  2  0  0  0  0
 39 38  3  0  0  0  0
M  END
>  <MODEL>
9

>  <REMARK>
 VINA RESULT:      -3.4      4.321      9.675
  Name = 
  6 active torsions:
  status: ('A' for Active; 'I' for Inactive)
    1  A    between atoms: C_4  and  C_6
    2  A    between atoms: C_5  and  C_35
    3  A    between atoms: C_7  and  C_11
    4  A    between atoms: C_14  and  O_36
    5  A    between atoms: C_19  and  O_36
    6  A    between atoms: C_26  and  N_34
                            x       y       z     vdW  Elec       q    Type
                         _______ _______ _______ _____ _____    ______ ____

>  <TORSDO>
F 6

$$$$
