=
 OpenBabel10232408203D

 32 36  0  0  1  0  0  0  0  0999 V2000
  190.9160  176.6500  141.5130 C   0  0  0  0  0  0  0  0  0  0  0  0
  186.6540  177.9910  144.5450 C   0  0  0  0  0  0  0  0  0  0  0  0
  187.6450  177.8750  137.8250 C   0  0  0  0  0  0  0  0  0  0  0  0
  187.7060  177.9540  139.2930 C   0  0  0  0  0  0  0  0  0  0  0  0
  187.9000  177.4540  144.0710 N   0  0  0  0  0  2  0  0  0  0  0  0
  185.6640  178.1950  142.2680 O   0  0  0  0  0  0  0  0  0  0  0  0
  192.0700  175.8810  137.6570 O   0  0  0  0  0  0  0  0  0  0  0  0
  191.0090  177.9800  143.6350 C   0  0  2  0  0  3  0  0  0  0  0  0
  190.2800  175.5860  143.5250 N   0  0  0  0  0  2  0  0  0  0  0  0
  184.3730  178.7630  144.1900 C   0  0  0  0  0  3  0  0  0  0  0  0
  191.1620  176.5750  140.0380 C   0  0  1  0  0  3  0  0  0  0  0  0
  184.1990  178.9180  145.5650 C   0  0  0  0  0  3  0  0  0  0  0  0
  193.0170  176.6830  138.3150 C   0  0  0  0  0  2  0  0  0  0  0  0
  186.4590  178.2490  137.1240 N   0  0  0  0  0  1  0  0  0  0  0  0
  189.9980  177.0960  139.2280 C   0  0  0  0  0  0  0  0  0  0  0  0
  190.3000  176.8030  144.3340 C   0  0  2  0  0  3  0  0  0  0  0  0
  188.8840  177.5690  139.9300 O   0  0  0  0  0  0  0  0  0  0  0  0
  187.7590  179.1310  141.9640 O   0  0  0  0  0  0  0  0  0  0  0  0
  190.6060  175.5690  142.1580 N   0  0  0  0  0  0  0  0  0  0  0  0
  190.5950  179.3520  144.1410 C   0  0  0  0  0  1  0  0  0  0  0  0
  188.7050  177.4350  135.7620 O   0  0  0  0  0  1  0  0  0  0  0  0
  191.1940  176.7720  137.0280 C   0  0  0  0  0  2  0  0  0  0  0  0
  190.8960  177.9120  142.1850 N   0  0  0  0  0  2  0  0  0  0  0  0
  192.4890  177.2220  139.6520 C   0  0  0  0  0  2  0  0  0  0  0  0
  185.5920  178.3200  143.6620 C   0  0  0  0  0  0  0  0  0  0  0  0
  186.7490  178.5610  141.4700 C   0  0  0  0  0  0  0  0  0  0  0  0
  188.9540  177.0760  145.0090 C   0  0  0  0  0  2  0  0  0  0  0  0
  188.7350  177.4780  137.1530 C   0  0  0  0  0  0  0  0  0  0  0  0
  185.2450  178.6210  146.4350 C   0  0  0  0  0  3  0  0  0  0  0  0
  186.6620  178.3550  140.0180 C   0  0  0  0  0  3  0  0  0  0  0  0
  189.9740  177.0720  137.8700 C   0  0  0  0  0  0  0  0  0  0  0  0
  186.4590  178.1580  145.9290 C   0  0  0  0  0  3  0  0  0  0  0  0
  1 19  2  0  0  0  0
  1 23  1  0  0  0  0
  2 32  1  0  0  0  0
  3  4  1  0  0  0  0
  4 17  1  0  0  0  0
  4 30  2  0  0  0  0
  5  2  1  0  0  0  0
  5 27  1  0  0  0  0
  6 25  1  0  0  0  0
  7 13  1  0  0  0  0
  8 20  1  1  0  0  0
  8 16  1  0  0  0  0
  9 16  1  0  0  0  0
 10 12  2  0  0  0  0
 11 24  1  1  0  0  0
 11  1  1  0  0  0  0
 12 29  1  0  0  0  0
 13 24  1  0  0  0  0
 14  3  1  0  0  0  0
 15 17  1  0  0  0  0
 15 11  1  0  0  0  0
 16 27  1  6  0  0  0
 19  9  1  0  0  0  0
 21 28  1  0  0  0  0
 22  7  1  0  0  0  0
 22 31  1  0  0  0  0
 23  8  1  0  0  0  0
 25 10  1  0  0  0  0
 25  2  2  0  0  0  0
 26 18  2  0  0  0  0
 26  6  1  0  0  0  0
 28  3  2  0  0  0  0
 28 31  1  0  0  0  0
 30 26  1  0  0  0  0
 31 15  2  0  0  0  0
 32 29  2  0  0  0  0
M  END
>  <MODEL>
1

>  <REMARK>
 VINA RESULT:     -10.2      0.000      0.000
  Name = 
  0 active torsions:
  status: ('A' for Active; 'I' for Inactive)
                            x       y       z     vdW  Elec       q    Type
                         _______ _______ _______ _____ _____    ______ ____

>  <TORSDO>
F 0

$$$$
=
 OpenBabel10232408203D

 32 36  0  0  1  0  0  0  0  0999 V2000
  189.7980  177.8980  145.3280 C   0  0  0  0  0  0  0  0  0  0  0  0
  190.2400  177.4510  139.9660 C   0  0  0  0  0  0  0  0  0  0  0  0
  184.9340  178.6080  144.0480 C   0  0  0  0  0  0  0  0  0  0  0  0
  186.1860  178.2140  143.3830 C   0  0  0  0  0  0  0  0  0  0  0  0
  190.5110  177.6310  141.3660 N   0  0  0  0  0  2  0  0  0  0  0  0
  187.8310  178.0580  140.1670 O   0  0  0  0  0  0  0  0  0  0  0  0
  187.2220  179.0150  148.3130 O   0  0  0  0  0  0  0  0  0  0  0  0
  191.2040  176.2070  144.1260 C   0  0  2  0  0  3  0  0  0  0  0  0
  191.6180  178.6760  144.0360 N   0  0  0  0  0  2  0  0  0  0  0  0
  188.7690  177.5680  138.0300 C   0  0  0  0  0  3  0  0  0  0  0  0
  188.6610  178.1870  146.2590 C   0  0  1  0  0  3  0  0  0  0  0  0
  189.8210  177.2010  137.1920 C   0  0  0  0  0  3  0  0  0  0  0  0
  187.8940  177.8280  148.6480 C   0  0  0  0  0  2  0  0  0  0  0  0
  183.7370  178.7990  143.2940 N   0  0  0  0  0  1  0  0  0  0  0  0
  187.3310  178.2590  145.5460 C   0  0  0  0  0  0  0  0  0  0  0  0
  191.9110  177.3820  143.4230 C   0  0  2  0  0  3  0  0  0  0  0  0
  187.3280  178.0480  144.1630 O   0  0  0  0  0  0  0  0  0  0  0  0
  188.0960  176.5650  141.9150 O   0  0  0  0  0  0  0  0  0  0  0  0
  190.5860  178.8640  144.9730 N   0  0  0  0  0  0  0  0  0  0  0  0
  191.0140  174.9760  143.2550 C   0  0  0  0  0  1  0  0  0  0  0  0
  183.7420  179.0850  146.0300 O   0  0  0  0  0  1  0  0  0  0  0  0
  186.0380  178.6120  147.6850 C   0  0  0  0  0  2  0  0  0  0  0  0
  189.9440  176.6040  144.7370 N   0  0  0  0  0  2  0  0  0  0  0  0
  188.6460  177.2310  147.4490 C   0  0  0  0  0  2  0  0  0  0  0  0
  188.9520  177.6810  139.4130 C   0  0  0  0  0  0  0  0  0  0  0  0
  187.4610  177.5250  141.4030 C   0  0  0  0  0  0  0  0  0  0  0  0
  191.8590  177.4390  141.8950 C   0  0  0  0  0  2  0  0  0  0  0  0
  184.9270  178.7500  145.3810 C   0  0  0  0  0  0  0  0  0  0  0  0
  191.0810  176.9500  137.7310 C   0  0  0  0  0  3  0  0  0  0  0  0
  186.2540  178.0410  142.0640 C   0  0  0  0  0  3  0  0  0  0  0  0
  186.1690  178.5680  146.1790 C   0  0  0  0  0  0  0  0  0  0  0  0
  191.2880  177.0790  139.1040 C   0  0  0  0  0  3  0  0  0  0  0  0
  1 11  1  0  0  0  0
  2  5  1  0  0  0  0
  3 28  2  0  0  0  0
  4  3  1  0  0  0  0
  4 17  1  0  0  0  0
  5 27  1  0  0  0  0
  6 26  1  0  0  0  0
  7 13  1  0  0  0  0
  8 20  1  6  0  0  0
  8 23  1  0  0  0  0
  9 19  1  0  0  0  0
 10 25  2  0  0  0  0
 11 24  1  1  0  0  0
 12 29  2  0  0  0  0
 12 10  1  0  0  0  0
 14  3  1  0  0  0  0
 15 31  2  0  0  0  0
 15 11  1  0  0  0  0
 16 27  1  6  0  0  0
 16  9  1  0  0  0  0
 16  8  1  0  0  0  0
 17 15  1  0  0  0  0
 19  1  2  0  0  0  0
 22  7  1  0  0  0  0
 23  1  1  0  0  0  0
 24 13  1  0  0  0  0
 25  2  1  0  0  0  0
 25  6  1  0  0  0  0
 26 18  2  0  0  0  0
 26 30  1  0  0  0  0
 28 21  1  0  0  0  0
 28 31  1  0  0  0  0
 29 32  1  0  0  0  0
 30  4  2  0  0  0  0
 31 22  1  0  0  0  0
 32  2  2  0  0  0  0
M  END
>  <MODEL>
2

>  <REMARK>
 VINA RESULT:      -9.6      2.162      7.027
  Name = 
  0 active torsions:
  status: ('A' for Active; 'I' for Inactive)
                            x       y       z     vdW  Elec       q    Type
                         _______ _______ _______ _____ _____    ______ ____

>  <TORSDO>
F 0

$$$$
=
 OpenBabel10232408203D

 32 36  0  0  1  0  0  0  0  0999 V2000
  184.0280  178.1770  141.7400 C   0  0  0  0  0  0  0  0  0  0  0  0
  186.2380  177.3160  136.8900 C   0  0  0  0  0  0  0  0  0  0  0  0
  188.8660  177.5370  143.1510 C   0  0  0  0  0  0  0  0  0  0  0  0
  188.1090  177.6720  141.8960 C   0  0  0  0  0  0  0  0  0  0  0  0
  185.3200  177.4520  137.9870 N   0  0  0  0  0  2  0  0  0  0  0  0
  188.2200  176.9480  138.3550 O   0  0  0  0  0  0  0  0  0  0  0  0
  184.7950  177.9820  145.7610 O   0  0  0  0  0  0  0  0  0  0  0  0
  183.4610  179.4320  139.6470 C   0  0  2  0  0  3  0  0  0  0  0  0
  183.0150  176.9880  139.9670 N   0  0  0  0  0  2  0  0  0  0  0  0
  188.4500  176.8530  135.9840 C   0  0  0  0  0  3  0  0  0  0  0  0
  184.5620  178.1970  143.1400 C   0  0  1  0  0  3  0  0  0  0  0  0
  187.9490  176.9360  134.6850 C   0  0  0  0  0  3  0  0  0  0  0  0
  184.1060  179.1630  145.4380 C   0  0  0  0  0  2  0  0  0  0  0  0
  190.2660  177.2600  143.1310 N   0  0  0  0  0  1  0  0  0  0  0  0
  186.0660  178.0560  143.1890 C   0  0  0  0  0  0  0  0  0  0  0  0
  183.1190  178.0770  138.9980 C   0  0  2  0  0  3  0  0  0  0  0  0
  186.7430  177.9350  141.9700 O   0  0  0  0  0  0  0  0  0  0  0  0
  187.2260  178.7880  139.3480 O   0  0  0  0  0  0  0  0  0  0  0  0
  183.4590  177.1000  141.2960 N   0  0  0  0  0  0  0  0  0  0  0  0
  184.1100  180.4340  138.7050 C   0  0  0  0  0  1  0  0  0  0  0  0
  188.9350  177.6260  145.5100 O   0  0  0  0  0  1  0  0  0  0  0  0
  186.1530  178.3100  145.6990 C   0  0  0  0  0  2  0  0  0  0  0  0
  184.2520  179.2810  140.8600 N   0  0  0  0  0  2  0  0  0  0  0  0
  184.0550  179.4050  143.9220 C   0  0  0  0  0  2  0  0  0  0  0  0
  187.6200  177.0560  137.0930 C   0  0  0  0  0  0  0  0  0  0  0  0
  187.9790  177.7820  139.4490 C   0  0  0  0  0  0  0  0  0  0  0  0
  183.8950  177.6660  137.7440 C   0  0  0  0  0  2  0  0  0  0  0  0
  188.2250  177.7130  144.3150 C   0  0  0  0  0  0  0  0  0  0  0  0
  186.6000  177.2160  134.4790 C   0  0  0  0  0  3  0  0  0  0  0  0
  188.6910  177.5250  140.7070 C   0  0  0  0  0  3  0  0  0  0  0  0
  186.7630  177.9890  144.3530 C   0  0  0  0  0  0  0  0  0  0  0  0
  185.7530  177.3990  135.5720 C   0  0  0  0  0  3  0  0  0  0  0  0
  1 11  1  0  0  0  0
  2 25  1  0  0  0  0
  2  5  1  0  0  0  0
  3 28  2  0  0  0  0
  4 17  1  0  0  0  0
  4  3  1  0  0  0  0
  6 26  1  0  0  0  0
  8 20  1  6  0  0  0
  8 23  1  0  0  0  0
  9 19  1  0  0  0  0
 10 25  2  0  0  0  0
 11 15  1  0  0  0  0
 11 24  1  6  0  0  0
 12 10  1  0  0  0  0
 13  7  1  0  0  0  0
 14  3  1  0  0  0  0
 15 31  2  0  0  0  0
 16 27  1  6  0  0  0
 16  8  1  0  0  0  0
 16  9  1  0  0  0  0
 17 15  1  0  0  0  0
 18 26  2  0  0  0  0
 19  1  2  0  0  0  0
 22  7  1  0  0  0  0
 23  1  1  0  0  0  0
 24 13  1  0  0  0  0
 25  6  1  0  0  0  0
 26 30  1  0  0  0  0
 27  5  1  0  0  0  0
 28 31  1  0  0  0  0
 28 21  1  0  0  0  0
 29 12  2  0  0  0  0
 29 32  1  0  0  0  0
 30  4  2  0  0  0  0
 31 22  1  0  0  0  0
 32  2  2  0  0  0  0
M  END
>  <MODEL>
3

>  <REMARK>
 VINA RESULT:      -8.1      2.603      7.988
  Name = 
  0 active torsions:
  status: ('A' for Active; 'I' for Inactive)
                            x       y       z     vdW  Elec       q    Type
                         _______ _______ _______ _____ _____    ______ ____

>  <TORSDO>
F 0

$$$$
=
 OpenBabel10232408203D

 32 36  0  0  1  0  0  0  0  0999 V2000
  190.0040  176.9620  141.0280 C   0  0  0  0  0  0  0  0  0  0  0  0
  188.4940  177.4950  146.1850 C   0  0  0  0  0  0  0  0  0  0  0  0
  185.2550  178.6210  140.3200 C   0  0  0  0  0  0  0  0  0  0  0  0
  186.1880  178.4440  141.4440 C   0  0  0  0  0  0  0  0  0  0  0  0
  189.1740  177.1250  144.9730 N   0  0  0  0  0  2  0  0  0  0  0  0
  186.3520  178.0370  145.0330 O   0  0  0  0  0  0  0  0  0  0  0  0
  188.5720  176.9530  137.1880 O   0  0  0  0  0  0  0  0  0  0  0  0
  191.4270  177.9030  142.8640 C   0  0  2  0  0  3  0  0  0  0  0  0
  190.6380  175.5260  142.7940 N   0  0  0  0  0  2  0  0  0  0  0  0
  186.5050  178.1810  147.4080 C   0  0  0  0  0  3  0  0  0  0  0  0
  189.3140  177.1640  139.7140 C   0  0  1  0  0  3  0  0  0  0  0  0
  187.1980  178.0820  148.6150 C   0  0  0  0  0  3  0  0  0  0  0  0
  189.7700  177.6820  137.2760 C   0  0  0  0  0  2  0  0  0  0  0  0
  183.9100  179.0420  140.5480 N   0  0  0  0  0  1  0  0  0  0  0  0
  187.9290  177.7490  139.8700 C   0  0  0  0  0  0  0  0  0  0  0  0
  191.2100  176.5810  143.6280 C   0  0  2  0  0  3  0  0  0  0  0  0
  187.4870  178.0240  141.1690 O   0  0  0  0  0  0  0  0  0  0  0  0
  187.8990  179.1350  143.7060 O   0  0  0  0  0  0  0  0  0  0  0  0
  190.0790  175.7690  141.5270 N   0  0  0  0  0  0  0  0  0  0  0  0
  191.4800  179.1380  143.7490 C   0  0  0  0  0  1  0  0  0  0  0  0
  184.8410  178.6140  137.9950 O   0  0  0  0  0  1  0  0  0  0  0  0
  187.5490  177.8880  137.3780 C   0  0  0  0  0  2  0  0  0  0  0  0
  190.4650  178.0840  141.7870 N   0  0  0  0  0  2  0  0  0  0  0  0
  190.1810  177.9460  138.7320 C   0  0  0  0  0  2  0  0  0  0  0  0
  187.1360  177.9110  146.1880 C   0  0  0  0  0  0  0  0  0  0  0  0
  186.7620  178.6010  143.8240 C   0  0  0  0  0  0  0  0  0  0  0  0
  190.5550  176.6500  145.0090 C   0  0  0  0  0  2  0  0  0  0  0  0
  185.7000  178.4140  139.0720 C   0  0  0  0  0  0  0  0  0  0  0  0
  188.5370  177.6990  148.6160 C   0  0  0  0  0  3  0  0  0  0  0  0
  185.8110  178.6490  142.7060 C   0  0  0  0  0  3  0  0  0  0  0  0
  187.0950  177.9620  138.8190 C   0  0  0  0  0  0  0  0  0  0  0  0
  189.1760  177.4040  147.4120 C   0  0  0  0  0  3  0  0  0  0  0  0
  1 19  2  0  0  0  0
  1 23  1  0  0  0  0
  2 25  2  0  0  0  0
  2 32  1  0  0  0  0
  3 14  1  0  0  0  0
  3  4  1  0  0  0  0
  4 30  2  0  0  0  0
  5 27  1  0  0  0  0
  5  2  1  0  0  0  0
  6 25  1  0  0  0  0
  7 13  1  0  0  0  0
  7 22  1  0  0  0  0
  8 16  1  0  0  0  0
  8 20  1  1  0  0  0
  9 16  1  0  0  0  0
 10 12  2  0  0  0  0
 11 24  1  6  0  0  0
 11 15  1  0  0  0  0
 11  1  1  0  0  0  0
 12 29  1  0  0  0  0
 13 24  1  0  0  0  0
 15 17  1  0  0  0  0
 16 27  1  1  0  0  0
 17  4  1  0  0  0  0
 18 26  2  0  0  0  0
 19  9  1  0  0  0  0
 21 28  1  0  0  0  0
 22 31  1  0  0  0  0
 23  8  1  0  0  0  0
 25 10  1  0  0  0  0
 26  6  1  0  0  0  0
 28  3  2  0  0  0  0
 30 26  1  0  0  0  0
 31 28  1  0  0  0  0
 31 15  2  0  0  0  0
 32 29  2  0  0  0  0
M  END
>  <MODEL>
4

>  <REMARK>
 VINA RESULT:      -8.0      1.787      2.829
  Name = 
  0 active torsions:
  status: ('A' for Active; 'I' for Inactive)
                            x       y       z     vdW  Elec       q    Type
                         _______ _______ _______ _____ _____    ______ ____

>  <TORSDO>
F 0

$$$$
=
 OpenBabel10232408203D

 32 36  0  0  1  0  0  0  0  0999 V2000
  184.8070  177.0980  137.6110 C   0  0  0  0  0  0  0  0  0  0  0  0
  189.5000  177.2600  140.2760 C   0  0  0  0  0  0  0  0  0  0  0  0
  183.1170  178.6500  142.1420 C   0  0  0  0  0  0  0  0  0  0  0  0
  184.4140  178.4320  141.4840 C   0  0  0  0  0  0  0  0  0  0  0  0
  188.4590  176.9870  139.3240 N   0  0  0  0  0  2  0  0  0  0  0  0
  187.9180  177.8070  142.1230 O   0  0  0  0  0  0  0  0  0  0  0  0
  180.7460  177.2840  138.1290 O   0  0  0  0  0  0  0  0  0  0  0  0
  186.9690  177.9650  136.6860 C   0  0  2  0  0  3  0  0  0  0  0  0
  186.5920  175.5740  137.3320 N   0  0  0  0  0  2  0  0  0  0  0  0
  190.2690  177.8070  142.5200 C   0  0  0  0  0  3  0  0  0  0  0  0
  183.3830  177.3590  137.9920 C   0  0  1  0  0  3  0  0  0  0  0  0
  191.5950  177.6530  142.1170 C   0  0  0  0  0  3  0  0  0  0  0  0
  181.1460  178.0430  137.0160 C   0  0  0  0  0  2  0  0  0  0  0  0
  183.0520  179.0140  143.5210 N   0  0  0  0  0  1  0  0  0  0  0  0
  183.2470  177.8900  139.4010 C   0  0  0  0  0  0  0  0  0  0  0  0
  187.5900  176.5920  137.0120 C   0  0  2  0  0  3  0  0  0  0  0  0
  184.4230  178.0700  140.1380 O   0  0  0  0  0  0  0  0  0  0  0  0
  187.0430  179.0320  140.3650 O   0  0  0  0  0  0  0  0  0  0  0  0
  185.2450  175.8780  137.5980 N   0  0  0  0  0  0  0  0  0  0  0  0
  187.9070  179.1430  136.8900 C   0  0  0  0  0  1  0  0  0  0  0  0
  180.7620  178.7760  142.0160 O   0  0  0  0  0  1  0  0  0  0  0  0
  180.7460  178.1730  139.2100 C   0  0  0  0  0  2  0  0  0  0  0  0
  185.7110  178.1830  137.3850 N   0  0  0  0  0  2  0  0  0  0  0  0
  182.6690  178.2280  136.9600 C   0  0  0  0  0  2  0  0  0  0  0  0
  189.2130  177.6330  141.6170 C   0  0  0  0  0  0  0  0  0  0  0  0
  186.8680  178.4580  141.4730 C   0  0  0  0  0  0  0  0  0  0  0  0
  188.7850  176.5550  137.9670 C   0  0  0  0  0  2  0  0  0  0  0  0
  181.9950  178.5350  141.4170 C   0  0  0  0  0  0  0  0  0  0  0  0
  191.8830  177.3130  140.7970 C   0  0  0  0  0  3  0  0  0  0  0  0
  185.5650  178.5460  142.1460 C   0  0  0  0  0  3  0  0  0  0  0  0
  182.0460  178.1430  139.9820 C   0  0  0  0  0  0  0  0  0  0  0  0
  190.8440  177.1140  139.8880 C   0  0  0  0  0  3  0  0  0  0  0  0
  1 11  1  0  0  0  0
  2 25  1  0  0  0  0
  3 14  1  0  0  0  0
  4  3  1  0  0  0  0
  4 30  2  0  0  0  0
  5  2  1  0  0  0  0
  7 22  1  0  0  0  0
  8 20  1  1  0  0  0
  8 16  1  0  0  0  0
  8 23  1  0  0  0  0
  9 19  1  0  0  0  0
 11 24  1  6  0  0  0
 11 15  1  0  0  0  0
 12 10  1  0  0  0  0
 13  7  1  0  0  0  0
 15 31  2  0  0  0  0
 15 17  1  0  0  0  0
 16  9  1  0  0  0  0
 16 27  1  1  0  0  0
 17  4  1  0  0  0  0
 18 26  2  0  0  0  0
 19  1  2  0  0  0  0
 22 31  1  0  0  0  0
 23  1  1  0  0  0  0
 24 13  1  0  0  0  0
 25  6  1  0  0  0  0
 25 10  2  0  0  0  0
 26  6  1  0  0  0  0
 26 30  1  0  0  0  0
 27  5  1  0  0  0  0
 28 21  1  0  0  0  0
 28  3  2  0  0  0  0
 29 12  2  0  0  0  0
 31 28  1  0  0  0  0
 32  2  2  0  0  0  0
 32 29  1  0  0  0  0
M  END
>  <MODEL>
5

>  <REMARK>
 VINA RESULT:      -8.0      3.228      7.365
  Name = 
  0 active torsions:
  status: ('A' for Active; 'I' for Inactive)
                            x       y       z     vdW  Elec       q    Type
                         _______ _______ _______ _____ _____    ______ ____

>  <TORSDO>
F 0

$$$$
=
 OpenBabel10232408203D

 32 36  0  0  1  0  0  0  0  0999 V2000
  184.5150  177.0470  137.8260 C   0  0  0  0  0  0  0  0  0  0  0  0
  189.8240  176.7890  138.7730 C   0  0  0  0  0  0  0  0  0  0  0  0
  184.5790  178.8030  142.5920 C   0  0  0  0  0  0  0  0  0  0  0  0
  185.5580  178.4550  141.5500 C   0  0  0  0  0  0  0  0  0  0  0  0
  188.5050  176.6060  138.2330 N   0  0  0  0  0  2  0  0  0  0  0  0
  189.0050  177.5040  141.0160 O   0  0  0  0  0  0  0  0  0  0  0  0
  180.8940  177.6270  139.6550 O   0  0  0  0  0  0  0  0  0  0  0  0
  186.3100  177.6930  136.2010 C   0  0  2  0  0  3  0  0  0  0  0  0
  185.9640  175.3560  137.0360 N   0  0  0  0  0  2  0  0  0  0  0  0
  191.3440  177.2830  140.6100 C   0  0  0  0  0  3  0  0  0  0  0  0
  183.3290  177.4480  138.6480 C   0  0  1  0  0  3  0  0  0  0  0  0
  192.4400  176.9990  139.7950 C   0  0  0  0  0  3  0  0  0  0  0  0
  180.9630  178.3320  138.4420 C   0  0  0  0  0  2  0  0  0  0  0  0
  185.0110  179.1860  143.8980 N   0  0  0  0  0  1  0  0  0  0  0  0
  183.7190  178.0050  139.9970 C   0  0  0  0  0  0  0  0  0  0  0  0
  186.8830  176.2710  136.3600 C   0  0  2  0  0  3  0  0  0  0  0  0
  185.0840  178.0790  140.2950 O   0  0  0  0  0  0  0  0  0  0  0  0
  187.7020  178.7880  139.5980 O   0  0  0  0  0  0  0  0  0  0  0  0
  184.8160  175.7910  137.7210 N   0  0  0  0  0  0  0  0  0  0  0  0
  187.3610  178.7780  136.0320 C   0  0  0  0  0  1  0  0  0  0  0  0
  182.3380  179.1520  143.2500 O   0  0  0  0  0  1  0  0  0  0  0  0
  181.3320  178.5240  140.6360 C   0  0  0  0  0  2  0  0  0  0  0  0
  185.3810  178.0380  137.2670 N   0  0  0  0  0  2  0  0  0  0  0  0
  182.3890  178.3690  137.8750 C   0  0  0  0  0  2  0  0  0  0  0  0
  190.0360  177.2010  140.1160 C   0  0  0  0  0  0  0  0  0  0  0  0
  187.8580  178.2450  140.7250 C   0  0  0  0  0  0  0  0  0  0  0  0
  188.3200  176.1290  136.8640 C   0  0  0  0  0  2  0  0  0  0  0  0
  183.2740  178.7880  142.2860 C   0  0  0  0  0  0  0  0  0  0  0  0
  192.2400  176.6180  138.4710 C   0  0  0  0  0  3  0  0  0  0  0  0
  186.8680  178.4660  141.7870 C   0  0  0  0  0  3  0  0  0  0  0  0
  182.8080  178.3780  140.9340 C   0  0  0  0  0  0  0  0  0  0  0  0
  190.9430  176.5100  137.9680 C   0  0  0  0  0  3  0  0  0  0  0  0
  1 11  1  0  0  0  0
  2 25  1  0  0  0  0
  3 14  1  0  0  0  0
  4 30  2  0  0  0  0
  4  3  1  0  0  0  0
  5  2  1  0  0  0  0
  7 22  1  0  0  0  0
  8 20  1  1  0  0  0
  8 16  1  0  0  0  0
  8 23  1  0  0  0  0
  9 19  1  0  0  0  0
 11 24  1  6  0  0  0
 11 15  1  0  0  0  0
 12 10  1  0  0  0  0
 13  7  1  0  0  0  0
 15 17  1  0  0  0  0
 15 31  2  0  0  0  0
 16 27  1  1  0  0  0
 16  9  1  0  0  0  0
 17  4  1  0  0  0  0
 18 26  2  0  0  0  0
 19  1  2  0  0  0  0
 22 31  1  0  0  0  0
 23  1  1  0  0  0  0
 24 13  1  0  0  0  0
 25 10  2  0  0  0  0
 25  6  1  0  0  0  0
 26  6  1  0  0  0  0
 26 30  1  0  0  0  0
 27  5  1  0  0  0  0
 28  3  2  0  0  0  0
 28 21  1  0  0  0  0
 29 12  2  0  0  0  0
 31 28  1  0  0  0  0
 32 29  1  0  0  0  0
 32  2  2  0  0  0  0
M  END
>  <MODEL>
6

>  <REMARK>
 VINA RESULT:      -7.8      2.888      7.827
  Name = 
  0 active torsions:
  status: ('A' for Active; 'I' for Inactive)
                            x       y       z     vdW  Elec       q    Type
                         _______ _______ _______ _____ _____    ______ ____

>  <TORSDO>
F 0

$$$$
=
 OpenBabel10232408203D

 32 36  0  0  1  0  0  0  0  0999 V2000
  186.1750  176.4720  136.5220 C   0  0  0  0  0  0  0  0  0  0  0  0
  189.4930  177.2940  140.7020 C   0  0  0  0  0  0  0  0  0  0  0  0
  182.8600  178.4670  139.8140 C   0  0  0  0  0  0  0  0  0  0  0  0
  184.3140  178.2570  139.7290 C   0  0  0  0  0  0  0  0  0  0  0  0
  188.8980  176.8310  139.4770 N   0  0  0  0  0  2  0  0  0  0  0  0
  187.3180  177.9610  141.7200 O   0  0  0  0  0  0  0  0  0  0  0  0
  182.2210  176.4430  135.4450 O   0  0  0  0  0  0  0  0  0  0  0  0
  188.5120  177.3610  136.3630 C   0  0  2  0  0  3  0  0  0  0  0  0
  187.9540  175.0510  137.1560 N   0  0  0  0  0  2  0  0  0  0  0  0
  189.3390  178.1730  142.9670 C   0  0  0  0  0  3  0  0  0  0  0  0
  184.7090  176.6810  136.2990 C   0  0  1  0  0  3  0  0  0  0  0  0
  190.7210  178.0610  143.1170 C   0  0  0  0  0  3  0  0  0  0  0  0
  183.0030  177.0800  134.4670 C   0  0  0  0  0  2  0  0  0  0  0  0
  182.2690  178.9980  141.0000 N   0  0  0  0  0  1  0  0  0  0  0  0
  184.0380  177.3760  137.4610 C   0  0  0  0  0  0  0  0  0  0  0  0
  188.9830  176.0870  137.0920 C   0  0  2  0  0  3  0  0  0  0  0  0
  184.8410  177.7290  138.5520 O   0  0  0  0  0  0  0  0  0  0  0  0
  187.1610  178.8900  139.6050 O   0  0  0  0  0  0  0  0  0  0  0  0
  186.6030  175.2930  136.8500 N   0  0  0  0  0  0  0  0  0  0  0  0
  189.2840  178.6180  136.7330 C   0  0  0  0  0  1  0  0  0  0  0  0
  180.7300  178.4130  138.7960 O   0  0  0  0  0  1  0  0  0  0  0  0
  181.7950  177.4600  136.3070 C   0  0  0  0  0  2  0  0  0  0  0  0
  187.0800  177.5790  136.4980 N   0  0  0  0  0  2  0  0  0  0  0  0
  184.4300  177.3600  134.9610 C   0  0  0  0  0  2  0  0  0  0  0  0
  188.7110  177.8130  141.7680 C   0  0  0  0  0  0  0  0  0  0  0  0
  186.5850  178.4500  140.6370 C   0  0  0  0  0  0  0  0  0  0  0  0
  189.7240  176.2530  138.4200 C   0  0  0  0  0  2  0  0  0  0  0  0
  182.1020  178.1840  138.7450 C   0  0  0  0  0  0  0  0  0  0  0  0
  191.4960  177.5760  142.0660 C   0  0  0  0  0  3  0  0  0  0  0  0
  185.1230  178.5330  140.7510 C   0  0  0  0  0  3  0  0  0  0  0  0
  182.7020  177.6180  137.5060 C   0  0  0  0  0  0  0  0  0  0  0  0
  190.8850  177.1920  140.8720 C   0  0  0  0  0  3  0  0  0  0  0  0
  1 19  2  0  0  0  0
  2 32  2  0  0  0  0
  2 25  1  0  0  0  0
  3 14  1  0  0  0  0
  4  3  1  0  0  0  0
  4 30  2  0  0  0  0
  5  2  1  0  0  0  0
  6 25  1  0  0  0  0
  7 22  1  0  0  0  0
  8 23  1  0  0  0  0
  8 20  1  1  0  0  0
  8 16  1  0  0  0  0
 10 12  1  0  0  0  0
 11 24  1  6  0  0  0
 11  1  1  0  0  0  0
 11 15  1  0  0  0  0
 13 24  1  0  0  0  0
 13  7  1  0  0  0  0
 15 31  2  0  0  0  0
 15 17  1  0  0  0  0
 16  9  1  0  0  0  0
 16 27  1  1  0  0  0
 17  4  1  0  0  0  0
 18 26  2  0  0  0  0
 19  9  1  0  0  0  0
 22 31  1  0  0  0  0
 23  1  1  0  0  0  0
 25 10  2  0  0  0  0
 26 30  1  0  0  0  0
 26  6  1  0  0  0  0
 27  5  1  0  0  0  0
 28 21  1  0  0  0  0
 28  3  2  0  0  0  0
 29 12  2  0  0  0  0
 31 28  1  0  0  0  0
 32 29  1  0  0  0  0
M  END
>  <MODEL>
7

>  <REMARK>
 VINA RESULT:      -7.2      3.425      6.630
  Name = 
  0 active torsions:
  status: ('A' for Active; 'I' for Inactive)
                            x       y       z     vdW  Elec       q    Type
                         _______ _______ _______ _____ _____    ______ ____

>  <TORSDO>
F 0

$$$$
