=
 OpenBabel10232409443D

 25 28  0  0  1  0  0  0  0  0999 V2000
  185.0050  178.7680  145.7840 C   0  0  1  0  0  0  0  0  0  0  0  0
  185.9690  179.7320  146.1490 O   0  0  0  0  0  0  0  0  0  0  0  0
  188.6470  178.2180  147.4780 N   0  0  0  0  0  1  0  0  0  0  0  0
  186.8190  177.1840  146.1130 C   0  0  1  0  0  3  0  0  0  0  0  0
  183.6650  179.0970  145.9830 O   0  0  0  0  0  1  0  0  0  0  0  0
  185.2480  178.2420  144.4150 N   0  0  0  0  0  0  0  0  0  0  0  0
  187.2100  178.0210  147.3580 C   0  0  2  0  0  3  0  0  0  0  0  0
  185.3510  177.4260  145.6790 C   0  0  2  0  0  3  0  0  0  0  0  0
  186.4680  179.3640  147.4130 C   0  0  0  0  0  2  0  0  0  0  0  0
  185.3430  178.3990  143.0030 C   0  0  0  0  0  0  0  0  0  0  0  0
  184.3530  178.2140  140.8020 C   0  0  0  0  0  3  0  0  0  0  0  0
  184.2690  178.0340  142.1860 C   0  0  0  0  0  3  0  0  0  0  0  0
  186.4990  178.9440  142.4370 C   0  0  0  0  0  3  0  0  0  0  0  0
  186.5820  179.1250  141.0530 C   0  0  0  0  0  3  0  0  0  0  0  0
  185.5100  178.7610  140.2320 C   0  0  0  0  0  0  0  0  0  0  0  0
  185.6090  178.9530  138.8210 N   0  0  0  0  0  2  0  0  0  0  0  0
  186.7770  178.7570  138.1630 O   0  0  0  0  0  1  0  0  0  0  0  0
  187.6760  176.2200  143.9640 C   0  0  0  0  0  3  0  0  0  0  0  0
  189.5810  177.1630  142.8030 C   0  0  0  0  0  3  0  0  0  0  0  0
  187.8160  177.1710  144.9810 C   0  0  0  0  0  0  0  0  0  0  0  0
  188.5580  176.2120  142.8790 C   0  0  0  0  0  3  0  0  0  0  0  0
  189.7190  178.1240  143.8090 C   0  0  0  0  0  0  0  0  0  0  0  0
  188.8440  178.1240  144.8980 C   0  0  0  0  0  3  0  0  0  0  0  0
  191.9590  178.6050  144.3160 F   0  0  0  0  0  0  0  0  0  0  0  0
  190.8170  179.1240  143.7370 C   0  0  0  0  0  2  0  0  0  0  0  0
  1  5  1  1  0  0  0
  1  2  1  0  0  0  0
  2  9  1  0  0  0  0
  4 20  1  6  0  0  0
  4  7  1  0  0  0  0
  6  1  1  0  0  0  0
  7  9  1  0  0  0  0
  7  3  1  6  0  0  0
  8  6  1  6  0  0  0
  8  1  1  0  0  0  0
  8  4  1  0  0  0  0
 10  6  1  0  0  0  0
 11 12  1  0  0  0  0
 12 10  2  0  0  0  0
 13 10  1  0  0  0  0
 14 13  2  0  0  0  0
 15 11  2  0  0  0  0
 15 14  1  0  0  0  0
 16 15  1  0  0  0  0
 17 16  1  0  0  0  0
 18 20  1  0  0  0  0
 19 21  1  0  0  0  0
 19 22  2  0  0  0  0
 21 18  2  0  0  0  0
 22 23  1  0  0  0  0
 23 20  2  0  0  0  0
 25 22  1  0  0  0  0
 25 24  1  0  0  0  0
M  END
>  <MODEL>
1

>  <REMARK>
 VINA RESULT:      -7.6      0.000      0.000
  Name = 
  4 active torsions:
  status: ('A' for Active; 'I' for Inactive)
    1  A    between atoms: C_2  and  N_18
    2  A    between atoms: N_3  and  C_21
    3  A    between atoms: C_8  and  C_10
    4  A    between atoms: C_16  and  C_24
                            x       y       z     vdW  Elec       q    Type
                         _______ _______ _______ _____ _____    ______ ____

>  <TORSDO>
F 4

$$$$
=
 OpenBabel10232409443D

 25 28  0  0  1  0  0  0  0  0999 V2000
  185.8650  178.0290  144.8260 C   0  0  1  0  0  0  0  0  0  0  0  0
  186.2480  179.3060  145.2900 O   0  0  0  0  0  0  0  0  0  0  0  0
  187.7640  179.0300  148.2660 N   0  0  0  0  0  1  0  0  0  0  0  0
  187.3250  177.2180  146.5930 C   0  0  1  0  0  3  0  0  0  0  0  0
  184.6480  177.9310  144.1530 O   0  0  0  0  0  1  0  0  0  0  0  0
  186.9660  177.3660  144.0790 N   0  0  0  0  0  0  0  0  0  0  0  0
  186.7460  178.3540  147.4750 C   0  0  2  0  0  3  0  0  0  0  0  0
  186.4050  176.8800  145.3930 C   0  0  2  0  0  3  0  0  0  0  0  0
  185.9280  179.3650  146.6600 C   0  0  0  0  0  2  0  0  0  0  0  0
  187.8720  177.2780  142.9840 C   0  0  0  0  0  0  0  0  0  0  0  0
  188.7400  178.1640  140.9050 C   0  0  0  0  0  3  0  0  0  0  0  0
  187.8310  178.2350  141.9650 C   0  0  0  0  0  3  0  0  0  0  0  0
  188.8210  176.2520  142.9430 C   0  0  0  0  0  3  0  0  0  0  0  0
  189.7300  176.1820  141.8830 C   0  0  0  0  0  3  0  0  0  0  0  0
  189.6930  177.1370  140.8620 C   0  0  0  0  0  0  0  0  0  0  0  0
  190.6270  177.0530  139.7870 N   0  0  0  0  0  2  0  0  0  0  0  0
  190.8010  175.9040  139.0910 O   0  0  0  0  0  1  0  0  0  0  0  0
  189.6830  176.3940  146.8050 C   0  0  0  0  0  3  0  0  0  0  0  0
  191.5110  177.4050  145.5800 C   0  0  0  0  0  3  0  0  0  0  0  0
  188.7910  177.3210  146.2540 C   0  0  0  0  0  0  0  0  0  0  0  0
  191.0400  176.4370  146.4730 C   0  0  0  0  0  3  0  0  0  0  0  0
  190.6240  178.3270  145.0150 C   0  0  0  0  0  0  0  0  0  0  0  0
  189.2690  178.2890  145.3560 C   0  0  0  0  0  3  0  0  0  0  0  0
  191.6130  178.7650  142.9330 F   0  0  0  0  0  0  0  0  0  0  0  0
  191.1270  179.3660  144.0790 C   0  0  0  0  0  2  0  0  0  0  0  0
  1  5  1  6  0  0  0
  1  2  1  0  0  0  0
  1  8  1  0  0  0  0
  2  9  1  0  0  0  0
  4 20  1  6  0  0  0
  4  7  1  0  0  0  0
  6  1  1  0  0  0  0
  7  3  1  6  0  0  0
  8  6  1  6  0  0  0
  8  4  1  0  0  0  0
  9  7  1  0  0  0  0
 10  6  1  0  0  0  0
 11 12  1  0  0  0  0
 12 10  2  0  0  0  0
 13 10  1  0  0  0  0
 14 13  2  0  0  0  0
 15 11  2  0  0  0  0
 15 14  1  0  0  0  0
 16 15  1  0  0  0  0
 17 16  1  0  0  0  0
 19 21  2  0  0  0  0
 20 18  2  0  0  0  0
 21 18  1  0  0  0  0
 22 23  2  0  0  0  0
 22 19  1  0  0  0  0
 23 20  1  0  0  0  0
 24 25  1  0  0  0  0
 25 22  1  0  0  0  0
M  END
>  <MODEL>
2

>  <REMARK>
 VINA RESULT:      -7.5      2.231      2.937
  Name = 
  4 active torsions:
  status: ('A' for Active; 'I' for Inactive)
    1  A    between atoms: C_2  and  N_18
    2  A    between atoms: N_3  and  C_21
    3  A    between atoms: C_8  and  C_10
    4  A    between atoms: C_16  and  C_24
                            x       y       z     vdW  Elec       q    Type
                         _______ _______ _______ _____ _____    ______ ____

>  <TORSDO>
F 4

$$$$
=
 OpenBabel10232409443D

 25 28  0  0  1  0  0  0  0  0999 V2000
  185.7840  178.0730  144.7810 C   0  0  1  0  0  0  0  0  0  0  0  0
  186.1640  179.3350  145.2880 O   0  0  0  0  0  0  0  0  0  0  0  0
  187.8240  178.9510  148.1730 N   0  0  0  0  0  1  0  0  0  0  0  0
  187.3410  177.2110  146.4380 C   0  0  1  0  0  3  0  0  0  0  0  0
  184.5380  177.9810  144.1610 O   0  0  0  0  0  1  0  0  0  0  0  0
  186.8610  177.4690  143.9530 N   0  0  0  0  0  0  0  0  0  0  0  0
  186.7830  178.2920  147.3990 C   0  0  2  0  0  3  0  0  0  0  0  0
  186.3720  176.9100  145.2660 C   0  0  2  0  0  3  0  0  0  0  0  0
  185.9080  179.3220  146.6720 C   0  0  0  0  0  2  0  0  0  0  0  0
  187.7160  177.4530  142.8140 C   0  0  0  0  0  0  0  0  0  0  0  0
  188.4350  178.4280  140.7190 C   0  0  0  0  0  3  0  0  0  0  0  0
  187.5770  178.4280  141.8230 C   0  0  0  0  0  3  0  0  0  0  0  0
  188.7120  176.4780  142.7030 C   0  0  0  0  0  3  0  0  0  0  0  0
  189.5700  176.4780  141.5990 C   0  0  0  0  0  3  0  0  0  0  0  0
  189.4350  177.4520  140.6050 C   0  0  0  0  0  0  0  0  0  0  0  0
  190.3190  177.4400  139.4850 N   0  0  0  0  0  2  0  0  0  0  0  0
  190.6400  176.2870  138.8510 O   0  0  0  0  0  1  0  0  0  0  0  0
  189.1560  178.4330  145.2150 C   0  0  0  0  0  3  0  0  0  0  0  0
  191.4750  177.7450  145.3390 C   0  0  0  0  0  3  0  0  0  0  0  0
  188.7870  177.3610  146.0360 C   0  0  0  0  0  0  0  0  0  0  0  0
  190.4960  178.6230  144.8630 C   0  0  0  0  0  3  0  0  0  0  0  0
  191.1150  176.6800  146.1710 C   0  0  0  0  0  0  0  0  0  0  0  0
  189.7750  176.4850  146.5130 C   0  0  0  0  0  3  0  0  0  0  0  0
  191.6790  175.0570  147.7690 F   0  0  0  0  0  0  0  0  0  0  0  0
  192.1540  175.7370  146.6630 C   0  0  0  0  0  2  0  0  0  0  0  0
  1  5  1  6  0  0  0
  1  8  1  0  0  0  0
  1  2  1  0  0  0  0
  2  9  1  0  0  0  0
  4 20  1  6  0  0  0
  4  7  1  0  0  0  0
  6  1  1  0  0  0  0
  7  3  1  6  0  0  0
  8  6  1  6  0  0  0
  8  4  1  0  0  0  0
  9  7  1  0  0  0  0
 10  6  1  0  0  0  0
 11 12  1  0  0  0  0
 12 10  2  0  0  0  0
 13 10  1  0  0  0  0
 14 13  2  0  0  0  0
 15 11  2  0  0  0  0
 15 14  1  0  0  0  0
 16 15  1  0  0  0  0
 17 16  1  0  0  0  0
 18 20  1  0  0  0  0
 19 22  2  0  0  0  0
 20 23  2  0  0  0  0
 21 18  2  0  0  0  0
 21 19  1  0  0  0  0
 22 23  1  0  0  0  0
 22 25  1  0  0  0  0
 25 24  1  0  0  0  0
M  END
>  <MODEL>
3

>  <REMARK>
 VINA RESULT:      -7.3      2.407      3.090
  Name = 
  4 active torsions:
  status: ('A' for Active; 'I' for Inactive)
    1  A    between atoms: C_2  and  N_18
    2  A    between atoms: N_3  and  C_21
    3  A    between atoms: C_8  and  C_10
    4  A    between atoms: C_16  and  C_24
                            x       y       z     vdW  Elec       q    Type
                         _______ _______ _______ _____ _____    ______ ____

>  <TORSDO>
F 4

$$$$
=
 OpenBabel10232409443D

 25 28  0  0  1  0  0  0  0  0999 V2000
  185.9180  178.0500  145.8750 C   0  0  1  0  0  0  0  0  0  0  0  0
  186.4910  179.2350  146.3860 O   0  0  0  0  0  0  0  0  0  0  0  0
  189.1810  178.4930  148.2400 N   0  0  0  0  0  1  0  0  0  0  0  0
  188.0040  177.0250  146.5880 C   0  0  1  0  0  3  0  0  0  0  0  0
  184.5270  177.9890  145.8090 O   0  0  0  0  0  1  0  0  0  0  0  0
  186.5520  177.6450  144.5930 N   0  0  0  0  0  0  0  0  0  0  0  0
  187.9050  177.9080  147.8570 C   0  0  2  0  0  3  0  0  0  0  0  0
  186.6360  176.8600  145.8780 C   0  0  2  0  0  3  0  0  0  0  0  0
  186.8240  178.9900  147.7320 C   0  0  0  0  0  2  0  0  0  0  0  0
  186.8650  177.8550  143.2190 C   0  0  0  0  0  0  0  0  0  0  0  0
  186.3740  178.9050  141.0950 C   0  0  0  0  0  3  0  0  0  0  0  0
  186.0500  178.6770  142.4360 C   0  0  0  0  0  3  0  0  0  0  0  0
  188.0030  177.2630  142.6640 C   0  0  0  0  0  3  0  0  0  0  0  0
  188.3270  177.4920  141.3230 C   0  0  0  0  0  3  0  0  0  0  0  0
  187.5150  178.3130  140.5350 C   0  0  0  0  0  0  0  0  0  0  0  0
  187.8590  178.5390  139.1690 N   0  0  0  0  0  2  0  0  0  0  0  0
  189.0440  179.0960  138.8230 O   0  0  0  0  0  1  0  0  0  0  0  0
  189.4860  178.6470  145.3810 C   0  0  0  0  0  3  0  0  0  0  0  0
  191.3610  177.9160  144.0340 C   0  0  0  0  0  3  0  0  0  0  0  0
  189.1610  177.3160  145.6640 C   0  0  0  0  0  0  0  0  0  0  0  0
  190.5800  178.9480  144.5650 C   0  0  0  0  0  3  0  0  0  0  0  0
  191.0500  176.5840  144.3230 C   0  0  0  0  0  0  0  0  0  0  0  0
  189.9500  176.2840  145.1300 C   0  0  0  0  0  3  0  0  0  0  0  0
  192.3750  174.6980  144.7620 F   0  0  0  0  0  0  0  0  0  0  0  0
  191.8710  175.4860  143.7450 C   0  0  0  0  0  2  0  0  0  0  0  0
  1  5  1  1  0  0  0
  1  8  1  0  0  0  0
  1  2  1  0  0  0  0
  2  9  1  0  0  0  0
  4 20  1  6  0  0  0
  4  7  1  0  0  0  0
  6  1  1  0  0  0  0
  7  3  1  6  0  0  0
  8  6  1  6  0  0  0
  8  4  1  0  0  0  0
  9  7  1  0  0  0  0
 10  6  1  0  0  0  0
 11 12  1  0  0  0  0
 12 10  2  0  0  0  0
 13 10  1  0  0  0  0
 14 13  2  0  0  0  0
 15 11  2  0  0  0  0
 15 14  1  0  0  0  0
 16 15  1  0  0  0  0
 17 16  1  0  0  0  0
 18 20  1  0  0  0  0
 19 22  2  0  0  0  0
 19 21  1  0  0  0  0
 21 18  2  0  0  0  0
 22 23  1  0  0  0  0
 23 20  2  0  0  0  0
 25 22  1  0  0  0  0
 25 24  1  0  0  0  0
M  END
>  <MODEL>
4

>  <REMARK>
 VINA RESULT:      -7.2      1.653      2.202
  Name = 
  4 active torsions:
  status: ('A' for Active; 'I' for Inactive)
    1  A    between atoms: C_2  and  N_18
    2  A    between atoms: N_3  and  C_21
    3  A    between atoms: C_8  and  C_10
    4  A    between atoms: C_16  and  C_24
                            x       y       z     vdW  Elec       q    Type
                         _______ _______ _______ _____ _____    ______ ____

>  <TORSDO>
F 4

$$$$
=
 OpenBabel10232409443D

 25 28  0  0  1  0  0  0  0  0999 V2000
  185.8800  178.0060  144.1960 C   0  0  1  0  0  0  0  0  0  0  0  0
  186.1710  179.2770  144.7370 O   0  0  0  0  0  0  0  0  0  0  0  0
  187.4230  178.9440  147.8270 N   0  0  0  0  0  1  0  0  0  0  0  0
  187.2050  177.1810  146.0610 C   0  0  1  0  0  3  0  0  0  0  0  0
  184.7330  177.8900  143.4120 O   0  0  0  0  0  1  0  0  0  0  0  0
  187.0680  177.4090  143.5310 N   0  0  0  0  0  0  0  0  0  0  0  0
  186.5070  178.2630  146.9240 C   0  0  2  0  0  3  0  0  0  0  0  0
  186.4110  176.8560  144.7700 C   0  0  2  0  0  3  0  0  0  0  0  0
  185.7260  179.2740  146.0720 C   0  0  0  0  0  2  0  0  0  0  0  0
  188.0720  177.3950  142.5200 C   0  0  0  0  0  0  0  0  0  0  0  0
  190.0700  176.4190  141.5650 C   0  0  0  0  0  3  0  0  0  0  0  0
  189.1010  176.4500  142.5720 C   0  0  0  0  0  3  0  0  0  0  0  0
  188.0120  178.3060  141.4630 C   0  0  0  0  0  3  0  0  0  0  0  0
  188.9810  178.2740  140.4550 C   0  0  0  0  0  3  0  0  0  0  0  0
  190.0120  177.3310  140.5030 C   0  0  0  0  0  0  0  0  0  0  0  0
  190.9930  177.3090  139.4670 N   0  0  0  0  0  2  0  0  0  0  0  0
  190.8550  176.5110  138.3810 O   0  0  0  0  0  1  0  0  0  0  0  0
  189.1550  178.4120  145.0780 C   0  0  0  0  0  3  0  0  0  0  0  0
  191.4440  177.7650  145.5340 C   0  0  0  0  0  3  0  0  0  0  0  0
  188.6910  177.3480  145.8600 C   0  0  0  0  0  0  0  0  0  0  0  0
  190.5280  178.6190  144.9120 C   0  0  0  0  0  3  0  0  0  0  0  0
  190.9880  176.7070  146.3270 C   0  0  0  0  0  0  0  0  0  0  0  0
  189.6160  176.4960  146.4850 C   0  0  0  0  0  3  0  0  0  0  0  0
  192.3870  174.8420  146.0640 F   0  0  0  0  0  0  0  0  0  0  0  0
  191.9610  175.7900  146.9760 C   0  0  0  0  0  2  0  0  0  0  0  0
  1  5  1  6  0  0  0
  1  2  1  0  0  0  0
  1  8  1  0  0  0  0
  2  9  1  0  0  0  0
  4 20  1  6  0  0  0
  4  7  1  0  0  0  0
  6  1  1  0  0  0  0
  7  3  1  6  0  0  0
  8  6  1  6  0  0  0
  8  4  1  0  0  0  0
  9  7  1  0  0  0  0
 10 12  1  0  0  0  0
 10  6  1  0  0  0  0
 11 12  2  0  0  0  0
 13 10  2  0  0  0  0
 14 15  2  0  0  0  0
 14 13  1  0  0  0  0
 15 11  1  0  0  0  0
 16 15  1  0  0  0  0
 17 16  1  0  0  0  0
 18 20  1  0  0  0  0
 19 22  2  0  0  0  0
 20 23  2  0  0  0  0
 21 18  2  0  0  0  0
 21 19  1  0  0  0  0
 22 23  1  0  0  0  0
 22 25  1  0  0  0  0
 24 25  1  0  0  0  0
M  END
>  <MODEL>
5

>  <REMARK>
 VINA RESULT:      -6.9      2.513      3.326
  Name = 
  4 active torsions:
  status: ('A' for Active; 'I' for Inactive)
    1  A    between atoms: C_2  and  N_18
    2  A    between atoms: N_3  and  C_21
    3  A    between atoms: C_8  and  C_10
    4  A    between atoms: C_16  and  C_24
                            x       y       z     vdW  Elec       q    Type
                         _______ _______ _______ _____ _____    ______ ____

>  <TORSDO>
F 4

$$$$
=
 OpenBabel10232409443D

 25 28  0  0  1  0  0  0  0  0999 V2000
  187.7800  177.9590  138.9440 C   0  0  1  0  0  0  0  0  0  0  0  0
  187.9720  176.5640  138.8470 O   0  0  0  0  0  0  0  0  0  0  0  0
  191.2340  175.8410  139.1010 N   0  0  0  0  0  1  0  0  0  0  0  0
  190.0810  177.9740  139.7280 C   0  0  1  0  0  3  0  0  0  0  0  0
  186.7980  178.5280  138.1340 O   0  0  0  0  0  1  0  0  0  0  0  0
  187.6540  178.3970  140.3590 N   0  0  0  0  0  0  0  0  0  0  0  0
  190.3710  176.9150  138.6330 C   0  0  2  0  0  3  0  0  0  0  0  0
  188.7880  178.7780  139.4400 C   0  0  2  0  0  3  0  0  0  0  0  0
  189.0850  176.3530  138.0120 C   0  0  0  0  0  2  0  0  0  0  0  0
  186.9890  178.4150  141.6180 C   0  0  0  0  0  0  0  0  0  0  0  0
  185.2210  179.2510  143.0440 C   0  0  0  0  0  3  0  0  0  0  0  0
  185.8900  179.2560  141.8170 C   0  0  0  0  0  3  0  0  0  0  0  0
  187.4180  177.5700  142.6460 C   0  0  0  0  0  3  0  0  0  0  0  0
  186.7490  177.5650  143.8730 C   0  0  0  0  0  3  0  0  0  0  0  0
  185.6490  178.4050  144.0760 C   0  0  0  0  0  0  0  0  0  0  0  0
  184.9750  178.3880  145.3340 N   0  0  0  0  0  2  0  0  0  0  0  0
  183.8760  179.1480  145.5550 O   0  0  0  0  0  1  0  0  0  0  0  0
  189.9300  176.1820  141.4750 C   0  0  0  0  0  3  0  0  0  0  0  0
  190.5840  176.5730  143.7740 C   0  0  0  0  0  3  0  0  0  0  0  0
  190.2310  177.5120  141.1560 C   0  0  0  0  0  0  0  0  0  0  0  0
  190.1020  175.7140  142.7810 C   0  0  0  0  0  3  0  0  0  0  0  0
  190.8990  177.8990  143.4600 C   0  0  0  0  0  0  0  0  0  0  0  0
  190.7170  178.3680  142.1570 C   0  0  0  0  0  3  0  0  0  0  0  0
  191.0730  180.1200  144.1950 F   0  0  0  0  0  0  0  0  0  0  0  0
  191.3960  178.8160  144.5190 C   0  0  0  0  0  2  0  0  0  0  0  0
  1  5  1  6  0  0  0
  1  8  1  0  0  0  0
  1  6  1  0  0  0  0
  2  1  1  0  0  0  0
  4 20  1  1  0  0  0
  6 10  1  0  0  0  0
  7  3  1  1  0  0  0
  7  4  1  0  0  0  0
  8  4  1  0  0  0  0
  8  6  1  1  0  0  0
  9  7  1  0  0  0  0
  9  2  1  0  0  0  0
 10 12  2  0  0  0  0
 10 13  1  0  0  0  0
 11 15  2  0  0  0  0
 12 11  1  0  0  0  0
 13 14  2  0  0  0  0
 14 15  1  0  0  0  0
 15 16  1  0  0  0  0
 16 17  1  0  0  0  0
 18 21  1  0  0  0  0
 20 18  2  0  0  0  0
 20 23  1  0  0  0  0
 21 19  2  0  0  0  0
 22 19  1  0  0  0  0
 22 25  1  0  0  0  0
 23 22  2  0  0  0  0
 24 25  1  0  0  0  0
M  END
>  <MODEL>
6

>  <REMARK>
 VINA RESULT:      -6.8      2.460      5.654
  Name = 
  4 active torsions:
  status: ('A' for Active; 'I' for Inactive)
    1  A    between atoms: C_2  and  N_18
    2  A    between atoms: N_3  and  C_21
    3  A    between atoms: C_8  and  C_10
    4  A    between atoms: C_16  and  C_24
                            x       y       z     vdW  Elec       q    Type
                         _______ _______ _______ _____ _____    ______ ____

>  <TORSDO>
F 4

$$$$
=
 OpenBabel10232409443D

 25 28  0  0  1  0  0  0  0  0999 V2000
  191.4140  177.3860  142.6440 C   0  0  1  0  0  0  0  0  0  0  0  0
  191.2470  176.0340  143.0130 O   0  0  0  0  0  0  0  0  0  0  0  0
  190.7270  175.8100  146.3160 N   0  0  0  0  0  1  0  0  0  0  0  0
  190.5500  177.8460  144.8700 C   0  0  1  0  0  3  0  0  0  0  0  0
  192.3550  177.6680  141.6550 O   0  0  0  0  0  1  0  0  0  0  0  0
  190.1100  178.0450  142.3720 N   0  0  0  0  0  0  0  0  0  0  0  0
  191.4190  176.6610  145.3600 C   0  0  2  0  0  3  0  0  0  0  0  0
  191.0330  178.4070  143.5080 C   0  0  2  0  0  3  0  0  0  0  0  0
  191.9820  175.8310  144.1970 C   0  0  0  0  0  2  0  0  0  0  0  0
  188.9040  178.1940  141.6290 C   0  0  0  0  0  0  0  0  0  0  0  0
  186.6250  178.9940  141.4700 C   0  0  0  0  0  3  0  0  0  0  0  0
  187.7990  178.8240  142.2100 C   0  0  0  0  0  3  0  0  0  0  0  0
  188.8350  177.7350  140.3100 C   0  0  0  0  0  3  0  0  0  0  0  0
  187.6600  177.9060  139.5710 C   0  0  0  0  0  3  0  0  0  0  0  0
  186.5530  178.5360  140.1470 C   0  0  0  0  0  0  0  0  0  0  0  0
  185.3620  178.7040  139.3800 N   0  0  0  0  0  2  0  0  0  0  0  0
  184.7620  179.9130  139.2660 O   0  0  0  0  0  1  0  0  0  0  0  0
  188.4290  176.6920  144.1960 C   0  0  0  0  0  3  0  0  0  0  0  0
  186.2990  177.2200  145.2190 C   0  0  0  0  0  3  0  0  0  0  0  0
  189.0560  177.6660  144.9810 C   0  0  0  0  0  0  0  0  0  0  0  0
  187.0530  176.4710  144.3110 C   0  0  0  0  0  3  0  0  0  0  0  0
  186.9200  178.1870  146.0160 C   0  0  0  0  0  0  0  0  0  0  0  0
  188.2930  178.4130  145.8930 C   0  0  0  0  0  3  0  0  0  0  0  0
  184.8570  178.4390  147.1050 F   0  0  0  0  0  0  0  0  0  0  0  0
  186.1150  178.9940  146.9700 C   0  0  0  0  0  2  0  0  0  0  0  0
  1  5  1  6  0  0  0
  1  2  1  0  0  0  0
  1  8  1  0  0  0  0
  2  9  1  0  0  0  0
  4 20  1  6  0  0  0
  4  7  1  0  0  0  0
  6  1  1  0  0  0  0
  7  3  1  1  0  0  0
  8  6  1  6  0  0  0
  8  4  1  0  0  0  0
  9  7  1  0  0  0  0
 10 12  1  0  0  0  0
 10  6  1  0  0  0  0
 11 12  2  0  0  0  0
 13 10  2  0  0  0  0
 14 15  2  0  0  0  0
 14 13  1  0  0  0  0
 15 11  1  0  0  0  0
 16 15  1  0  0  0  0
 17 16  1  0  0  0  0
 18 21  2  0  0  0  0
 18 20  1  0  0  0  0
 19 22  2  0  0  0  0
 20 23  2  0  0  0  0
 21 19  1  0  0  0  0
 22 25  1  0  0  0  0
 23 22  1  0  0  0  0
 25 24  1  0  0  0  0
M  END
>  <MODEL>
7

>  <REMARK>
 VINA RESULT:      -6.6      3.140      4.722
  Name = 
  4 active torsions:
  status: ('A' for Active; 'I' for Inactive)
    1  A    between atoms: C_2  and  N_18
    2  A    between atoms: N_3  and  C_21
    3  A    between atoms: C_8  and  C_10
    4  A    between atoms: C_16  and  C_24
                            x       y       z     vdW  Elec       q    Type
                         _______ _______ _______ _____ _____    ______ ____

>  <TORSDO>
F 4

$$$$
=
 OpenBabel10232409443D

 25 28  0  0  1  0  0  0  0  0999 V2000
  186.1730  178.0490  146.2280 C   0  0  1  0  0  0  0  0  0  0  0  0
  186.7490  179.2670  146.6480 O   0  0  0  0  0  0  0  0  0  0  0  0
  189.1600  178.6710  148.8980 N   0  0  0  0  0  1  0  0  0  0  0  0
  188.0990  177.0430  147.3180 C   0  0  1  0  0  3  0  0  0  0  0  0
  184.7970  178.0370  146.0010 O   0  0  0  0  0  1  0  0  0  0  0  0
  186.9260  177.4480  145.0960 N   0  0  0  0  0  0  0  0  0  0  0  0
  187.9050  178.0930  148.4410 C   0  0  2  0  0  3  0  0  0  0  0  0
  186.8160  176.8410  146.4730 C   0  0  2  0  0  3  0  0  0  0  0  0
  186.9090  179.1930  148.0450 C   0  0  0  0  0  2  0  0  0  0  0  0
  187.4080  177.4580  143.7560 C   0  0  0  0  0  0  0  0  0  0  0  0
  187.4270  178.4370  141.5430 C   0  0  0  0  0  3  0  0  0  0  0  0
  186.9330  178.4100  142.8500 C   0  0  0  0  0  3  0  0  0  0  0  0
  188.3770  176.5330  143.3560 C   0  0  0  0  0  3  0  0  0  0  0  0
  188.8720  176.5610  142.0480 C   0  0  0  0  0  3  0  0  0  0  0  0
  188.3990  177.5110  141.1380 C   0  0  0  0  0  0  0  0  0  0  0  0
  188.9140  177.5280  139.8080 N   0  0  0  0  0  2  0  0  0  0  0  0
  189.3520  178.6740  139.2350 O   0  0  0  0  0  1  0  0  0  0  0  0
  190.2820  176.0970  146.5270 C   0  0  0  0  0  3  0  0  0  0  0  0
  191.7010  177.2770  144.9590 C   0  0  0  0  0  3  0  0  0  0  0  0
  189.3710  177.1590  146.5130 C   0  0  0  0  0  0  0  0  0  0  0  0
  191.4460  176.1560  145.7560 C   0  0  0  0  0  3  0  0  0  0  0  0
  190.7880  178.3370  144.9300 C   0  0  0  0  0  0  0  0  0  0  0  0
  189.6300  178.2810  145.7090 C   0  0  0  0  0  3  0  0  0  0  0  0
  190.3080  179.4870  142.9420 F   0  0  0  0  0  0  0  0  0  0  0  0
  191.0670  179.5360  144.0960 C   0  0  0  0  0  2  0  0  0  0  0  0
  1  5  1  6  0  0  0
  1  8  1  0  0  0  0
  1  2  1  0  0  0  0
  2  9  1  0  0  0  0
  4 20  1  6  0  0  0
  4  7  1  0  0  0  0
  6  1  1  0  0  0  0
  7  3  1  6  0  0  0
  8  6  1  6  0  0  0
  8  4  1  0  0  0  0
  9  7  1  0  0  0  0
 10  6  1  0  0  0  0
 11 12  1  0  0  0  0
 12 10  2  0  0  0  0
 13 10  1  0  0  0  0
 14 13  2  0  0  0  0
 15 11  2  0  0  0  0
 15 14  1  0  0  0  0
 16 15  1  0  0  0  0
 17 16  1  0  0  0  0
 19 21  1  0  0  0  0
 20 18  1  0  0  0  0
 21 18  2  0  0  0  0
 22 19  2  0  0  0  0
 22 23  1  0  0  0  0
 23 20  2  0  0  0  0
 24 25  1  0  0  0  0
 25 22  1  0  0  0  0
M  END
>  <MODEL>
8

>  <REMARK>
 VINA RESULT:      -6.5      1.838      2.472
  Name = 
  4 active torsions:
  status: ('A' for Active; 'I' for Inactive)
    1  A    between atoms: C_2  and  N_18
    2  A    between atoms: N_3  and  C_21
    3  A    between atoms: C_8  and  C_10
    4  A    between atoms: C_16  and  C_24
                            x       y       z     vdW  Elec       q    Type
                         _______ _______ _______ _____ _____    ______ ____

>  <TORSDO>
F 4

$$$$
=
 OpenBabel10232409443D

 25 28  0  0  1  0  0  0  0  0999 V2000
  188.4880  178.2690  140.7050 C   0  0  1  0  0  0  0  0  0  0  0  0
  188.6110  176.8640  140.7460 O   0  0  0  0  0  0  0  0  0  0  0  0
  190.7680  175.9790  143.1530 N   0  0  0  0  0  1  0  0  0  0  0  0
  189.6270  178.1880  142.8510 C   0  0  1  0  0  3  0  0  0  0  0  0
  188.3610  178.8640  139.4500 O   0  0  0  0  0  1  0  0  0  0  0  0
  187.4540  178.7560  141.6560 N   0  0  0  0  0  0  0  0  0  0  0  0
  190.5230  177.0830  142.2370 C   0  0  2  0  0  3  0  0  0  0  0  0
  188.9300  179.0490  141.7680 C   0  0  2  0  0  3  0  0  0  0  0  0
  189.9800  176.5700  140.8960 C   0  0  0  0  0  2  0  0  0  0  0  0
  186.1110  178.8460  142.1200 C   0  0  0  0  0  0  0  0  0  0  0  0
  183.7710  178.2710  141.8900 C   0  0  0  0  0  3  0  0  0  0  0  0
  185.0860  178.2050  141.4180 C   0  0  0  0  0  3  0  0  0  0  0  0
  185.8220  179.5520  143.2920 C   0  0  0  0  0  3  0  0  0  0  0  0
  184.5070  179.6160  143.7630 C   0  0  0  0  0  3  0  0  0  0  0  0
  183.4790  178.9770  143.0650 C   0  0  0  0  0  0  0  0  0  0  0  0
  182.1420  179.0510  143.5590 N   0  0  0  0  0  2  0  0  0  0  0  0
  181.2090  179.8250  142.9560 O   0  0  0  0  0  1  0  0  0  0  0  0
  187.6910  176.8610  143.7330 C   0  0  0  0  0  3  0  0  0  0  0  0
  187.0990  176.8600  146.0820 C   0  0  0  0  0  3  0  0  0  0  0  0
  188.7310  177.7620  143.9890 C   0  0  0  0  0  0  0  0  0  0  0  0
  186.8740  176.4140  144.7750 C   0  0  0  0  0  3  0  0  0  0  0  0
  188.1450  177.7490  146.3460 C   0  0  0  0  0  0  0  0  0  0  0  0
  188.9550  178.2040  145.3030 C   0  0  0  0  0  3  0  0  0  0  0  0
  187.7600  177.3860  148.6330 F   0  0  0  0  0  0  0  0  0  0  0  0
  188.3750  178.2360  147.7330 C   0  0  0  0  0  2  0  0  0  0  0  0
  1  5  1  6  0  0  0
  1  2  1  0  0  0  0
  1  6  1  0  0  0  0
  1  8  1  0  0  0  0
  2  9  1  0  0  0  0
  4 20  1  6  0  0  0
  6 10  1  0  0  0  0
  7  4  1  0  0  0  0
  7  3  1  1  0  0  0
  8  6  1  1  0  0  0
  8  4  1  0  0  0  0
  9  7  1  0  0  0  0
 10 13  1  0  0  0  0
 11 15  2  0  0  0  0
 12 11  1  0  0  0  0
 12 10  2  0  0  0  0
 13 14  2  0  0  0  0
 15 16  1  0  0  0  0
 15 14  1  0  0  0  0
 17 16  1  0  0  0  0
 18 20  2  0  0  0  0
 18 21  1  0  0  0  0
 19 22  1  0  0  0  0
 20 23  1  0  0  0  0
 21 19  2  0  0  0  0
 22 25  1  0  0  0  0
 23 22  2  0  0  0  0
 25 24  1  0  0  0  0
M  END
>  <MODEL>
9

>  <REMARK>
 VINA RESULT:      -6.4      2.624      4.710
  Name = 
  4 active torsions:
  status: ('A' for Active; 'I' for Inactive)
    1  A    between atoms: C_2  and  N_18
    2  A    between atoms: N_3  and  C_21
    3  A    between atoms: C_8  and  C_10
    4  A    between atoms: C_16  and  C_24
                            x       y       z     vdW  Elec       q    Type
                         _______ _______ _______ _____ _____    ______ ____

>  <TORSDO>
F 4

$$$$
