=
 OpenBabel10232412103D

 39 42  0  0  1  0  0  0  0  0999 V2000
  190.0110  178.1520  142.7990 N   0  0  0  0  0  0  0  0  0  0  0  0
  187.6950  177.7420  142.1640 C   0  0  0  0  0  3  0  0  0  0  0  0
  188.9940  177.5540  144.9540 C   0  0  0  0  0  0  0  0  0  0  0  0
  189.1170  177.3070  142.0180 C   0  0  1  0  0  3  0  0  0  0  0  0
  187.0620  177.7690  143.3360 C   0  0  0  0  0  0  0  0  0  0  0  0
  189.9890  178.2300  144.0960 C   0  0  0  0  0  3  0  0  0  0  0  0
  187.7050  177.4040  144.6150 C   0  0  0  0  0  3  0  0  0  0  0  0
  190.6130  176.6590  140.1320 N   0  0  0  0  0  0  0  0  0  0  0  0
  188.8960  178.0590  139.6380 N   0  0  0  0  0  2  0  0  0  0  0  0
  189.5300  177.3290  140.5850 C   0  0  0  0  0  0  0  0  0  0  0  0
  190.6620  176.9840  138.8300 C   0  0  0  0  0  0  0  0  0  0  0  0
  189.6200  177.8310  138.5300 C   0  0  0  0  0  0  0  0  0  0  0  0
  193.0600  176.5460  138.4840 C   0  0  0  0  0  1  0  0  0  0  0  0
  191.6760  176.4510  137.8750 C   0  0  0  0  0  2  0  0  0  0  0  0
  189.3010  178.4110  137.1950 C   0  0  0  0  0  2  0  0  0  0  0  0
  188.7580  179.6870  137.3500 O   0  0  0  0  0  1  0  0  0  0  0  0
  185.6050  178.0990  143.3460 C   0  0  0  0  0  2  0  0  0  0  0  0
  185.3110  179.0960  142.3710 O   0  0  0  0  0  0  0  0  0  0  0  0
  183.0890  178.5100  141.5250 C   0  0  0  0  0  3  0  0  0  0  0  0
  184.4240  178.8880  141.3080 C   0  0  0  0  0  0  0  0  0  0  0  0
  182.6900  178.4500  139.1280 C   0  0  0  0  0  0  0  0  0  0  0  0
  184.0240  178.8310  138.9170 C   0  0  0  0  0  3  0  0  0  0  0  0
  184.8820  179.0510  139.9990 C   0  0  0  0  0  3  0  0  0  0  0  0
  182.2340  178.2860  140.4440 C   0  0  0  0  0  3  0  0  0  0  0  0
  181.1840  180.6110  137.5140 C   0  0  0  0  0  1  0  0  0  0  0  0
  181.1880  179.1940  137.1870 N   0  0  0  0  0  2  0  0  0  0  0  0
  181.7760  178.1660  137.9960 C   0  0  0  0  0  0  0  0  0  0  0  0
  181.5050  176.9650  137.7210 O   0  0  0  0  0  0  0  0  0  0  0  0
  189.4370  177.1650  146.3350 C   0  0  1  0  0  3  0  0  0  0  0  0
  191.3160  175.7000  147.0580 C   0  0  1  0  0  3  0  0  0  0  0  0
  190.9600  177.0370  146.4360 C   0  0  1  0  0  3  0  0  0  0  0  0
  191.4480  175.8950  145.5630 C   0  0  0  0  0  2  0  0  0  0  0  0
  192.6650  176.8560  148.7090 N   0  0  0  0  0  1  0  0  0  0  0  0
  192.6830  175.8060  147.7050 C   0  0  0  0  0  2  0  0  0  0  0  0
  188.8210  178.0780  147.4090 C   0  0  2  0  0  3  0  0  0  0  0  0
  189.7270  178.2620  148.6220 C   0  0  0  0  0  1  0  0  0  0  0  0
  187.4470  177.5730  147.8270 C   0  0  0  0  0  2  0  0  0  0  0  0
  186.4060  178.5210  147.4170 C   0  0  0  0  0  0  0  0  0  0  0  0
  185.5830  179.2690  147.0940 N   0  0  0  0  0  0  0  0  0  0  0  0
  1  6  2  0  0  0  0
  2  5  2  0  0  0  0
  3 29  1  0  0  0  0
  4 10  1  6  0  0  0
  4  2  1  0  0  0  0
  4  1  1  0  0  0  0
  5 17  1  0  0  0  0
  5  7  1  0  0  0  0
  6  3  1  0  0  0  0
  7  3  2  0  0  0  0
  8 10  2  0  0  0  0
  9 10  1  0  0  0  0
 11  8  1  0  0  0  0
 12 11  2  0  0  0  0
 12  9  1  0  0  0  0
 14 13  1  0  0  0  0
 14 11  1  0  0  0  0
 15 16  1  0  0  0  0
 15 12  1  0  0  0  0
 18 17  1  0  0  0  0
 20 19  1  0  0  0  0
 20 18  1  0  0  0  0
 21 24  1  0  0  0  0
 22 21  2  0  0  0  0
 22 23  1  0  0  0  0
 23 20  2  0  0  0  0
 24 19  2  0  0  0  0
 26 25  1  0  0  0  0
 26 27  1  0  0  0  0
 27 21  1  0  0  0  0
 28 27  2  0  0  0  0
 29 35  1  1  0  0  0
 30 34  1  1  0  0  0
 31 29  1  6  0  0  0
 31 30  1  0  0  0  0
 32 31  1  0  0  0  0
 32 30  1  0  0  0  0
 34 33  1  0  0  0  0
 35 37  1  0  0  0  0
 35 36  1  1  0  0  0
 38 37  1  0  0  0  0
 39 38  3  0  0  0  0
M  END
>  <MODEL>
1

>  <REMARK>
 VINA RESULT:      -8.6      0.000      0.000
  Name = 
  13 active torsions:
  status: ('A' for Active; 'I' for Inactive)
    1  A    between atoms: O_1  and  C_2
    2  A    between atoms: O_1  and  C_17
    3  A    between atoms: C_2  and  C_32
    4  A    between atoms: C_4  and  C_36
    5  A    between atoms: C_10  and  C_20
    6  A    between atoms: C_11  and  C_29
    7  A    between atoms: C_12  and  C_16
    8  A    between atoms: C_12  and  C_20
    9  A    between atoms: C_16  and  C_22
   10  A    between atoms: C_18  and  C_19
   11  A    between atoms: C_20  and  C_24
   12  A    between atoms: C_21  and  C_26
   13  A    between atoms: CA_27  and  C_35
                            x       y       z     vdW  Elec       q    Type
                         _______ _______ _______ _____ _____    ______ ____

>  <TORSDO>
F 13

$$$$
=
 OpenBabel10232412103D

 39 42  0  0  1  0  0  0  0  0999 V2000
  190.1970  178.1240  142.8660 N   0  0  0  0  0  0  0  0  0  0  0  0
  187.9160  177.6420  142.1580 C   0  0  0  0  0  3  0  0  0  0  0  0
  189.1250  177.5180  144.9920 C   0  0  0  0  0  0  0  0  0  0  0  0
  189.3540  177.2460  142.0650 C   0  0  1  0  0  3  0  0  0  0  0  0
  187.2430  177.6610  143.3080 C   0  0  0  0  0  0  0  0  0  0  0  0
  190.1280  178.2140  144.1600 C   0  0  0  0  0  3  0  0  0  0  0  0
  187.8530  177.3280  144.6110 C   0  0  0  0  0  3  0  0  0  0  0  0
  189.0790  177.8130  139.6530 N   0  0  0  0  0  0  0  0  0  0  0  0
  190.9660  176.6910  140.2290 N   0  0  0  0  0  2  0  0  0  0  0  0
  189.8140  177.2660  140.6460 C   0  0  0  0  0  0  0  0  0  0  0  0
  189.8090  177.5720  138.5510 C   0  0  0  0  0  0  0  0  0  0  0  0
  190.9540  176.8930  138.9000 C   0  0  0  0  0  0  0  0  0  0  0  0
  187.9860  178.4900  137.1740 C   0  0  0  0  0  1  0  0  0  0  0  0
  189.4300  178.0270  137.1830 C   0  0  0  0  0  2  0  0  0  0  0  0
  192.0410  176.4520  137.9830 C   0  0  0  0  0  2  0  0  0  0  0  0
  191.9910  175.0660  137.8200 O   0  0  0  0  0  1  0  0  0  0  0  0
  185.7790  177.9490  143.2660 C   0  0  0  0  0  2  0  0  0  0  0  0
  185.5020  179.0000  142.3430 O   0  0  0  0  0  0  0  0  0  0  0  0
  185.1200  178.9790  139.9240 C   0  0  0  0  0  3  0  0  0  0  0  0
  184.6520  178.8450  141.2420 C   0  0  0  0  0  0  0  0  0  0  0  0
  182.8870  178.5560  139.0620 C   0  0  0  0  0  0  0  0  0  0  0  0
  182.4260  178.4210  140.3800 C   0  0  0  0  0  3  0  0  0  0  0  0
  183.3020  178.5600  141.4600 C   0  0  0  0  0  3  0  0  0  0  0  0
  184.2430  178.8430  138.8470 C   0  0  0  0  0  3  0  0  0  0  0  0
  181.3410  180.9420  137.8530 C   0  0  0  0  0  1  0  0  0  0  0  0
  181.3610  179.6030  137.2860 N   0  0  0  0  0  2  0  0  0  0  0  0
  181.9680  178.4580  137.9030 C   0  0  0  0  0  0  0  0  0  0  0  0
  181.7100  177.3200  137.4250 O   0  0  0  0  0  0  0  0  0  0  0  0
  189.5320  177.1550  146.3910 C   0  0  1  0  0  3  0  0  0  0  0  0
  191.4060  175.7160  147.1770 C   0  0  1  0  0  3  0  0  0  0  0  0
  191.0530  177.0460  146.5380 C   0  0  1  0  0  3  0  0  0  0  0  0
  191.5800  175.9070  145.6850 C   0  0  0  0  0  2  0  0  0  0  0  0
  192.7120  176.9380  148.8150 N   0  0  0  0  0  1  0  0  0  0  0  0
  192.7520  175.8410  147.8640 C   0  0  0  0  0  2  0  0  0  0  0  0
  188.8750  178.0780  147.4320 C   0  0  2  0  0  3  0  0  0  0  0  0
  189.7470  178.2980  148.6640 C   0  0  0  0  0  1  0  0  0  0  0  0
  187.4990  177.5600  147.8250 C   0  0  0  0  0  2  0  0  0  0  0  0
  186.4580  178.5050  147.4090 C   0  0  0  0  0  0  0  0  0  0  0  0
  185.6360  179.2520  147.0830 N   0  0  0  0  0  0  0  0  0  0  0  0
  1  6  2  0  0  0  0
  2  5  2  0  0  0  0
  3 29  1  0  0  0  0
  4 10  1  6  0  0  0
  4  2  1  0  0  0  0
  4  1  1  0  0  0  0
  5  7  1  0  0  0  0
  6  3  1  0  0  0  0
  7  3  2  0  0  0  0
  8 10  2  0  0  0  0
  9 10  1  0  0  0  0
 11 12  2  0  0  0  0
 11  8  1  0  0  0  0
 12  9  1  0  0  0  0
 13 14  1  0  0  0  0
 14 11  1  0  0  0  0
 15 12  1  0  0  0  0
 16 15  1  0  0  0  0
 17  5  1  0  0  0  0
 18 17  1  0  0  0  0
 19 20  1  0  0  0  0
 20 23  2  0  0  0  0
 20 18  1  0  0  0  0
 21 22  2  0  0  0  0
 22 23  1  0  0  0  0
 24 21  1  0  0  0  0
 24 19  2  0  0  0  0
 26 25  1  0  0  0  0
 26 27  1  0  0  0  0
 27 21  1  0  0  0  0
 28 27  2  0  0  0  0
 29 35  1  1  0  0  0
 30 34  1  1  0  0  0
 31 29  1  6  0  0  0
 31 30  1  0  0  0  0
 32 31  1  0  0  0  0
 32 30  1  0  0  0  0
 34 33  1  0  0  0  0
 35 37  1  0  0  0  0
 35 36  1  1  0  0  0
 38 37  1  0  0  0  0
 39 38  3  0  0  0  0
M  END
>  <MODEL>
2

>  <REMARK>
 VINA RESULT:      -8.5      0.965      1.774
  Name = 
  13 active torsions:
  status: ('A' for Active; 'I' for Inactive)
    1  A    between atoms: O_1  and  C_2
    2  A    between atoms: O_1  and  C_17
    3  A    between atoms: C_2  and  C_32
    4  A    between atoms: C_4  and  C_36
    5  A    between atoms: C_10  and  C_20
    6  A    between atoms: C_11  and  C_29
    7  A    between atoms: C_12  and  C_16
    8  A    between atoms: C_12  and  C_20
    9  A    between atoms: C_16  and  C_22
   10  A    between atoms: C_18  and  C_19
   11  A    between atoms: C_20  and  C_24
   12  A    between atoms: C_21  and  C_26
   13  A    between atoms: CA_27  and  C_35
                            x       y       z     vdW  Elec       q    Type
                         _______ _______ _______ _____ _____    ______ ____

>  <TORSDO>
F 13

$$$$
=
 OpenBabel10232412103D

 39 42  0  0  1  0  0  0  0  0999 V2000
  188.6250  178.5190  138.4150 N   0  0  0  0  0  0  0  0  0  0  0  0
  189.1360  177.8170  140.6920 C   0  0  0  0  0  3  0  0  0  0  0  0
  190.5670  177.0550  138.0690 C   0  0  0  0  0  0  0  0  0  0  0  0
  188.1410  177.7860  139.5770 C   0  0  1  0  0  3  0  0  0  0  0  0
  190.3690  177.3270  140.5760 C   0  0  0  0  0  0  0  0  0  0  0  0
  189.6680  178.1750  137.7220 C   0  0  0  0  0  3  0  0  0  0  0  0
  190.8930  176.7320  139.3290 C   0  0  0  0  0  3  0  0  0  0  0  0
  186.5620  178.6140  141.3190 N   0  0  0  0  0  0  0  0  0  0  0  0
  185.8040  178.5960  139.1810 N   0  0  0  0  0  0  0  0  0  0  0  0
  186.8350  178.3530  140.0210 C   0  0  0  0  0  0  0  0  0  0  0  0
  185.2910  179.0470  141.2920 C   0  0  2  0  0  3  0  0  0  0  0  0
  184.8320  179.0380  139.9950 C   0  0  0  0  0  0  0  0  0  0  0  0
  183.7570  178.3510  143.0880 C   0  0  0  0  0  1  0  0  0  0  0  0
  184.5400  179.5060  142.4960 C   0  0  0  0  0  2  0  0  0  0  0  0
  183.4820  179.4620  139.5260 C   0  0  0  0  0  2  0  0  0  0  0  0
  183.5520  180.7410  138.9740 O   0  0  0  0  0  1  0  0  0  0  0  0
  191.2360  177.2970  141.7910 C   0  0  0  0  0  2  0  0  0  0  0  0
  190.7340  176.3610  142.7410 O   0  0  0  0  0  0  0  0  0  0  0  0
  190.5550  177.2600  145.0120 C   0  0  0  0  0  3  0  0  0  0  0  0
  189.9660  176.7340  143.8500 C   0  0  0  0  0  0  0  0  0  0  0  0
  188.3720  177.4400  146.0670 C   0  0  0  0  0  0  0  0  0  0  0  0
  187.7890  176.9170  144.9030 C   0  0  0  0  0  3  0  0  0  0  0  0
  188.5790  176.5710  143.8030 C   0  0  0  0  0  3  0  0  0  0  0  0
  189.7640  177.6010  146.1110 C   0  0  0  0  0  3  0  0  0  0  0  0
  185.7910  179.1370  146.0100 C   0  0  0  0  0  1  0  0  0  0  0  0
  186.3000  178.4540  147.1880 N   0  0  0  0  0  2  0  0  0  0  0  0
  187.5590  177.7690  147.2620 C   0  0  0  0  0  0  0  0  0  0  0  0
  187.9840  177.4270  148.3990 O   0  0  0  0  0  0  0  0  0  0  0  0
  191.2600  176.3590  136.9330 C   0  0  1  0  0  3  0  0  0  0  0  0
  193.1550  174.9000  136.2370 C   0  0  1  0  0  3  0  0  0  0  0  0
  192.6040  175.7600  137.3600 C   0  0  1  0  0  3  0  0  0  0  0  0
  193.7170  176.2860  136.4720 C   0  0  0  0  0  2  0  0  0  0  0  0
  194.5180  174.2900  138.1480 N   0  0  0  0  0  1  0  0  0  0  0  0
  194.0950  173.8660  136.8240 C   0  0  0  0  0  2  0  0  0  0  0  0
  190.3320  175.3560  136.2270 C   0  0  2  0  0  3  0  0  0  0  0  0
  189.7030  175.9210  134.9580 C   0  0  0  0  0  1  0  0  0  0  0  0
  189.2630  174.8430  137.1820 C   0  0  0  0  0  2  0  0  0  0  0  0
  188.7600  173.5400  136.7340 C   0  0  0  0  0  0  0  0  0  0  0  0
  188.3640  172.5110  136.3810 N   0  0  0  0  0  0  0  0  0  0  0  0
  1  4  1  0  0  0  0
  3  7  2  0  0  0  0
  4 10  1  1  0  0  0
  4  2  1  0  0  0  0
  5  2  2  0  0  0  0
  5 17  1  0  0  0  0
  6  3  1  0  0  0  0
  6  1  2  0  0  0  0
  7  5  1  0  0  0  0
  9 12  2  0  0  0  0
  9 10  1  0  0  0  0
 10  8  2  0  0  0  0
 11  8  1  0  0  0  0
 11 14  1  6  0  0  0
 12 11  1  0  0  0  0
 14 13  1  0  0  0  0
 15 12  1  0  0  0  0
 16 15  1  0  0  0  0
 17 18  1  0  0  0  0
 18 20  1  0  0  0  0
 19 24  1  0  0  0  0
 20 19  2  0  0  0  0
 21 24  2  0  0  0  0
 21 27  1  0  0  0  0
 22 21  1  0  0  0  0
 23 20  1  0  0  0  0
 23 22  2  0  0  0  0
 25 26  1  0  0  0  0
 26 27  1  0  0  0  0
 27 28  2  0  0  0  0
 29 35  1  1  0  0  0
 29  3  1  0  0  0  0
 30 32  1  0  0  0  0
 30 34  1  1  0  0  0
 30 31  1  0  0  0  0
 31 29  1  6  0  0  0
 32 31  1  0  0  0  0
 34 33  1  0  0  0  0
 35 36  1  6  0  0  0
 35 37  1  0  0  0  0
 38 37  1  0  0  0  0
 39 38  3  0  0  0  0
M  END
>  <MODEL>
3

>  <REMARK>
 VINA RESULT:      -8.4      2.706      8.605
  Name = 
  13 active torsions:
  status: ('A' for Active; 'I' for Inactive)
    1  A    between atoms: O_1  and  C_2
    2  A    between atoms: O_1  and  C_17
    3  A    between atoms: C_2  and  C_32
    4  A    between atoms: C_4  and  C_36
    5  A    between atoms: C_10  and  C_20
    6  A    between atoms: C_11  and  C_29
    7  A    between atoms: C_12  and  C_16
    8  A    between atoms: C_12  and  C_20
    9  A    between atoms: C_16  and  C_22
   10  A    between atoms: C_18  and  C_19
   11  A    between atoms: C_20  and  C_24
   12  A    between atoms: C_21  and  C_26
   13  A    between atoms: CA_27  and  C_35
                            x       y       z     vdW  Elec       q    Type
                         _______ _______ _______ _____ _____    ______ ____

>  <TORSDO>
F 13

$$$$
=
 OpenBabel10232412103D

 39 42  0  0  1  0  0  0  0  0999 V2000
  189.5420  176.4380  142.7340 N   0  0  0  0  0  0  0  0  0  0  0  0
  187.8360  178.0720  143.3350 C   0  0  0  0  0  3  0  0  0  0  0  0
  188.9660  177.3950  140.5470 C   0  0  0  0  0  0  0  0  0  0  0  0
  189.2690  177.6680  143.4670 C   0  0  1  0  0  3  0  0  0  0  0  0
  187.2650  178.3410  142.1620 C   0  0  0  0  0  0  0  0  0  0  0  0
  189.4510  176.3260  141.4440 C   0  0  0  0  0  3  0  0  0  0  0  0
  187.9730  178.2380  140.8700 C   0  0  0  0  0  3  0  0  0  0  0  0
  188.9180  178.0400  145.9070 N   0  0  0  0  0  0  0  0  0  0  0  0
  190.7370  176.8210  145.3120 N   0  0  0  0  0  0  0  0  0  0  0  0
  189.6360  177.4900  144.9020 C   0  0  0  0  0  0  0  0  0  0  0  0
  189.6050  177.6960  147.0090 C   0  0  2  0  0  3  0  0  0  0  0  0
  190.7070  176.9550  146.6480 C   0  0  0  0  0  0  0  0  0  0  0  0
  187.6730  177.9550  148.5130 C   0  0  0  0  0  1  0  0  0  0  0  0
  189.1820  178.0400  148.3970 C   0  0  0  0  0  2  0  0  0  0  0  0
  191.7200  176.3620  147.5660 C   0  0  0  0  0  2  0  0  0  0  0  0
  192.4760  175.4070  146.8850 O   0  0  0  0  0  1  0  0  0  0  0  0
  185.8630  178.8570  142.1600 C   0  0  0  0  0  2  0  0  0  0  0  0
  185.5460  179.4380  140.8970 O   0  0  0  0  0  0  0  0  0  0  0  0
  185.0030  178.4920  138.7050 C   0  0  0  0  0  3  0  0  0  0  0  0
  184.6290  178.8710  140.0040 C   0  0  0  0  0  0  0  0  0  0  0  0
  182.7310  177.7650  138.2370 C   0  0  0  0  0  0  0  0  0  0  0  0
  182.3640  178.1430  139.5370 C   0  0  0  0  0  3  0  0  0  0  0  0
  183.3060  178.6880  140.4150 C   0  0  0  0  0  3  0  0  0  0  0  0
  184.0590  177.9510  137.8290 C   0  0  0  0  0  3  0  0  0  0  0  0
  182.3280  174.7620  137.6350 C   0  0  0  0  0  1  0  0  0  0  0  0
  181.4880  175.8250  137.1080 N   0  0  0  0  0  2  0  0  0  0  0  0
  181.7390  177.2290  137.2750 C   0  0  0  0  0  0  0  0  0  0  0  0
  181.0730  178.0380  136.5740 O   0  0  0  0  0  0  0  0  0  0  0  0
  189.5180  177.4170  139.1500 C   0  0  1  0  0  3  0  0  0  0  0  0
  191.4490  176.7090  137.7470 C   0  0  1  0  0  3  0  0  0  0  0  0
  190.5840  176.3380  138.9370 C   0  0  1  0  0  3  0  0  0  0  0  0
  191.9680  176.9200  139.1520 C   0  0  0  0  0  2  0  0  0  0  0  0
  191.3750  174.2850  137.7100 N   0  0  0  0  0  1  0  0  0  0  0  0
  192.0570  175.4470  137.1670 C   0  0  0  0  0  2  0  0  0  0  0  0
  188.3980  177.3970  138.0950 C   0  0  2  0  0  3  0  0  0  0  0  0
  188.1940  176.0200  137.4730 C   0  0  0  0  0  1  0  0  0  0  0  0
  188.6460  178.4480  137.0220 C   0  0  0  0  0  2  0  0  0  0  0  0
  187.6660  178.3150  135.9400 C   0  0  0  0  0  0  0  0  0  0  0  0
  186.8910  178.2120  135.0850 N   0  0  0  0  0  0  0  0  0  0  0  0
  1  4  1  0  0  0  0
  2  4  1  0  0  0  0
  3  7  2  0  0  0  0
  3  6  1  0  0  0  0
  4 10  1  1  0  0  0
  5  2  2  0  0  0  0
  6  1  2  0  0  0  0
  7  5  1  0  0  0  0
  8 11  1  0  0  0  0
  9 12  2  0  0  0  0
 10  9  1  0  0  0  0
 10  8  2  0  0  0  0
 11 14  1  1  0  0  0
 12 11  1  0  0  0  0
 12 15  1  0  0  0  0
 14 13  1  0  0  0  0
 16 15  1  0  0  0  0
 17  5  1  0  0  0  0
 18 17  1  0  0  0  0
 19 20  1  0  0  0  0
 20 23  2  0  0  0  0
 20 18  1  0  0  0  0
 21 22  2  0  0  0  0
 22 23  1  0  0  0  0
 24 21  1  0  0  0  0
 24 19  2  0  0  0  0
 26 27  1  0  0  0  0
 26 25  1  0  0  0  0
 27 21  1  0  0  0  0
 28 27  2  0  0  0  0
 29 35  1  6  0  0  0
 29  3  1  0  0  0  0
 30 34  1  6  0  0  0
 30 31  1  0  0  0  0
 30 32  1  0  0  0  0
 31 29  1  1  0  0  0
 31 32  1  0  0  0  0
 34 33  1  0  0  0  0
 35 36  1  6  0  0  0
 37 35  1  0  0  0  0
 38 37  1  0  0  0  0
 39 38  3  0  0  0  0
M  END
>  <MODEL>
4

>  <REMARK>
 VINA RESULT:      -8.2      2.319      7.090
  Name = 
  13 active torsions:
  status: ('A' for Active; 'I' for Inactive)
    1  A    between atoms: O_1  and  C_2
    2  A    between atoms: O_1  and  C_17
    3  A    between atoms: C_2  and  C_32
    4  A    between atoms: C_4  and  C_36
    5  A    between atoms: C_10  and  C_20
    6  A    between atoms: C_11  and  C_29
    7  A    between atoms: C_12  and  C_16
    8  A    between atoms: C_12  and  C_20
    9  A    between atoms: C_16  and  C_22
   10  A    between atoms: C_18  and  C_19
   11  A    between atoms: C_20  and  C_24
   12  A    between atoms: C_21  and  C_26
   13  A    between atoms: CA_27  and  C_35
                            x       y       z     vdW  Elec       q    Type
                         _______ _______ _______ _____ _____    ______ ____

>  <TORSDO>
F 13

$$$$
=
 OpenBabel10232412103D

 39 42  0  0  1  0  0  0  0  0999 V2000
  189.3820  176.5070  142.6800 N   0  0  0  0  0  0  0  0  0  0  0  0
  187.6350  178.1380  143.1510 C   0  0  0  0  0  3  0  0  0  0  0  0
  188.9130  177.4060  140.4420 C   0  0  0  0  0  0  0  0  0  0  0  0
  189.0620  177.7510  143.3670 C   0  0  1  0  0  3  0  0  0  0  0  0
  187.1230  178.3740  141.9440 C   0  0  0  0  0  0  0  0  0  0  0  0
  189.3600  176.3630  141.3890 C   0  0  0  0  0  3  0  0  0  0  0  0
  187.8980  178.2470  140.6940 C   0  0  0  0  0  3  0  0  0  0  0  0
  190.4580  176.9800  145.2830 N   0  0  0  0  0  0  0  0  0  0  0  0
  188.5230  178.0490  145.7950 N   0  0  0  0  0  2  0  0  0  0  0  0
  189.3550  177.6110  144.8230 C   0  0  0  0  0  0  0  0  0  0  0  0
  190.3120  177.0240  146.6170 C   0  0  0  0  0  0  0  0  0  0  0  0
  189.1400  177.6740  146.9280 C   0  0  0  0  0  0  0  0  0  0  0  0
  192.3060  175.6000  146.8590 C   0  0  0  0  0  1  0  0  0  0  0  0
  191.3110  176.4840  147.5840 C   0  0  0  0  0  2  0  0  0  0  0  0
  188.6130  177.9530  148.2930 C   0  0  0  0  0  2  0  0  0  0  0  0
  187.3740  178.5910  148.2020 O   0  0  0  0  0  1  0  0  0  0  0  0
  185.7190  178.8770  141.8570 C   0  0  0  0  0  2  0  0  0  0  0  0
  185.4870  179.4950  140.5930 O   0  0  0  0  0  0  0  0  0  0  0  0
  183.1880  179.1840  139.8080 C   0  0  0  0  0  3  0  0  0  0  0  0
  184.5720  178.9990  139.6570 C   0  0  0  0  0  0  0  0  0  0  0  0
  182.7740  177.9510  137.7550 C   0  0  0  0  0  0  0  0  0  0  0  0
  184.1570  177.7720  137.6070 C   0  0  0  0  0  3  0  0  0  0  0  0
  185.0490  178.2960  138.5480 C   0  0  0  0  0  3  0  0  0  0  0  0
  182.2990  178.6570  138.8690 C   0  0  0  0  0  3  0  0  0  0  0  0
  181.5640  175.1190  138.0040 C   0  0  0  0  0  1  0  0  0  0  0  0
  181.1680  176.0970  137.0030 N   0  0  0  0  0  2  0  0  0  0  0  0
  181.8080  177.3650  136.7950 C   0  0  0  0  0  0  0  0  0  0  0  0
  181.5230  178.0100  135.7500 O   0  0  0  0  0  0  0  0  0  0  0  0
  189.5360  177.3990  139.0760 C   0  0  1  0  0  3  0  0  0  0  0  0
  191.5740  176.7260  137.8120 C   0  0  1  0  0  3  0  0  0  0  0  0
  190.6510  176.3540  138.9580 C   0  0  1  0  0  3  0  0  0  0  0  0
  191.9980  176.9930  139.2400 C   0  0  0  0  0  2  0  0  0  0  0  0
  191.5080  174.3030  137.7260 N   0  0  0  0  0  1  0  0  0  0  0  0
  192.2600  175.4730  137.3060 C   0  0  0  0  0  2  0  0  0  0  0  0
  188.4750  177.2990  137.9670 C   0  0  2  0  0  3  0  0  0  0  0  0
  188.3360  175.8880  137.4040 C   0  0  0  0  0  1  0  0  0  0  0  0
  188.7560  178.3020  136.8570 C   0  0  0  0  0  2  0  0  0  0  0  0
  187.7030  178.2450  135.8370 C   0  0  0  0  0  0  0  0  0  0  0  0
  186.8720  178.2010  135.0320 N   0  0  0  0  0  0  0  0  0  0  0  0
  1  4  1  0  0  0  0
  2  4  1  0  0  0  0
  3  7  2  0  0  0  0
  3  6  1  0  0  0  0
  4 10  1  1  0  0  0
  5  2  2  0  0  0  0
  6  1  2  0  0  0  0
  7  5  1  0  0  0  0
  8 11  1  0  0  0  0
  9 12  1  0  0  0  0
 10  8  2  0  0  0  0
 10  9  1  0  0  0  0
 11 12  2  0  0  0  0
 11 14  1  0  0  0  0
 12 15  1  0  0  0  0
 13 14  1  0  0  0  0
 16 15  1  0  0  0  0
 17  5  1  0  0  0  0
 18 17  1  0  0  0  0
 20 19  1  0  0  0  0
 20 18  1  0  0  0  0
 21 24  1  0  0  0  0
 22 21  2  0  0  0  0
 22 23  1  0  0  0  0
 23 20  2  0  0  0  0
 24 19  2  0  0  0  0
 26 25  1  0  0  0  0
 27 26  1  0  0  0  0
 27 21  1  0  0  0  0
 28 27  2  0  0  0  0
 29 35  1  6  0  0  0
 29  3  1  0  0  0  0
 30 34  1  1  0  0  0
 30 31  1  0  0  0  0
 30 32  1  0  0  0  0
 31 29  1  6  0  0  0
 31 32  1  0  0  0  0
 34 33  1  0  0  0  0
 35 36  1  6  0  0  0
 37 35  1  0  0  0  0
 38 37  1  0  0  0  0
 39 38  3  0  0  0  0
M  END
>  <MODEL>
5

>  <REMARK>
 VINA RESULT:      -8.1      2.059      6.898
  Name = 
  13 active torsions:
  status: ('A' for Active; 'I' for Inactive)
    1  A    between atoms: O_1  and  C_2
    2  A    between atoms: O_1  and  C_17
    3  A    between atoms: C_2  and  C_32
    4  A    between atoms: C_4  and  C_36
    5  A    between atoms: C_10  and  C_20
    6  A    between atoms: C_11  and  C_29
    7  A    between atoms: C_12  and  C_16
    8  A    between atoms: C_12  and  C_20
    9  A    between atoms: C_16  and  C_22
   10  A    between atoms: C_18  and  C_19
   11  A    between atoms: C_20  and  C_24
   12  A    between atoms: C_21  and  C_26
   13  A    between atoms: CA_27  and  C_35
                            x       y       z     vdW  Elec       q    Type
                         _______ _______ _______ _____ _____    ______ ____

>  <TORSDO>
F 13

$$$$
=
 OpenBabel10232412103D

 39 42  0  0  1  0  0  0  0  0999 V2000
  188.8970  177.4850  136.8210 N   0  0  0  0  0  0  0  0  0  0  0  0
  188.8030  177.4020  139.2540 C   0  0  0  0  0  3  0  0  0  0  0  0
  191.0710  176.4850  137.3770 C   0  0  0  0  0  0  0  0  0  0  0  0
  188.2140  176.9100  137.9720 C   0  0  1  0  0  3  0  0  0  0  0  0
  190.0780  177.2050  139.5890 C   0  0  0  0  0  0  0  0  0  0  0  0
  190.1440  177.2650  136.5310 C   0  0  0  0  0  3  0  0  0  0  0  0
  191.0480  176.5110  138.7180 C   0  0  0  0  0  3  0  0  0  0  0  0
  185.8970  176.5260  137.1360 N   0  0  0  0  0  0  0  0  0  0  0  0
  186.1950  178.2730  138.5530 N   0  0  0  0  0  2  0  0  0  0  0  0
  186.7590  177.2290  137.9050 C   0  0  0  0  0  0  0  0  0  0  0  0
  184.7270  177.1610  137.3130 C   0  0  0  0  0  0  0  0  0  0  0  0
  184.9070  178.2190  138.1740 C   0  0  0  0  0  0  0  0  0  0  0  0
  183.6510  176.4260  135.2240 C   0  0  0  0  0  1  0  0  0  0  0  0
  183.4410  176.7290  136.6950 C   0  0  0  0  0  2  0  0  0  0  0  0
  183.8610  179.1680  138.6490 C   0  0  0  0  0  2  0  0  0  0  0  0
  184.4620  180.2900  139.2210 O   0  0  0  0  0  1  0  0  0  0  0  0
  190.5260  177.6290  140.9490 C   0  0  0  0  0  2  0  0  0  0  0  0
  190.1800  176.6440  141.9190 O   0  0  0  0  0  0  0  0  0  0  0  0
  190.0480  177.7710  144.0890 C   0  0  0  0  0  3  0  0  0  0  0  0
  189.4920  176.9440  143.1010 C   0  0  0  0  0  0  0  0  0  0  0  0
  188.0710  177.4880  145.4750 C   0  0  0  0  0  0  0  0  0  0  0  0
  187.5190  176.6640  144.4830 C   0  0  0  0  0  3  0  0  0  0  0  0
  188.2220  176.3980  143.3040 C   0  0  0  0  0  3  0  0  0  0  0  0
  189.3470  178.0330  145.2680 C   0  0  0  0  0  3  0  0  0  0  0  0
  185.4970  179.1740  145.7380 C   0  0  0  0  0  1  0  0  0  0  0  0
  186.1040  178.4270  146.8270 N   0  0  0  0  0  2  0  0  0  0  0  0
  187.3650  177.7460  146.7530 C   0  0  0  0  0  0  0  0  0  0  0  0
  187.8850  177.3410  147.8270 O   0  0  0  0  0  0  0  0  0  0  0  0
  192.1840  175.7580  136.6780 C   0  0  1  0  0  3  0  0  0  0  0  0
  194.2450  174.4770  137.2360 C   0  0  1  0  0  3  0  0  0  0  0  0
  193.4760  175.7580  137.5010 C   0  0  1  0  0  3  0  0  0  0  0  0
  194.6830  175.7690  136.5800 C   0  0  0  0  0  2  0  0  0  0  0  0
  195.2650  172.7480  138.5970 N   0  0  0  0  0  1  0  0  0  0  0  0
  195.1400  174.1850  138.4250 C   0  0  0  0  0  2  0  0  0  0  0  0
  191.7470  174.3590  136.2130 C   0  0  2  0  0  3  0  0  0  0  0  0
  191.5230  174.2770  134.7070 C   0  0  0  0  0  1  0  0  0  0  0  0
  190.5110  173.8960  136.9730 C   0  0  0  0  0  2  0  0  0  0  0  0
  189.6490  173.0890  136.1040 C   0  0  0  0  0  0  0  0  0  0  0  0
  188.9700  172.4500  135.4180 N   0  0  0  0  0  0  0  0  0  0  0  0
  1  4  1  0  0  0  0
  2  5  2  0  0  0  0
  3  7  2  0  0  0  0
  4 10  1  1  0  0  0
  4  2  1  0  0  0  0
  5 17  1  0  0  0  0
  6  1  2  0  0  0  0
  6  3  1  0  0  0  0
  7  5  1  0  0  0  0
  8 11  1  0  0  0  0
  8 10  2  0  0  0  0
 10  9  1  0  0  0  0
 11 12  2  0  0  0  0
 12  9  1  0  0  0  0
 12 15  1  0  0  0  0
 13 14  1  0  0  0  0
 14 11  1  0  0  0  0
 15 16  1  0  0  0  0
 17 18  1  0  0  0  0
 18 20  1  0  0  0  0
 19 24  1  0  0  0  0
 20 23  1  0  0  0  0
 20 19  2  0  0  0  0
 21 27  1  0  0  0  0
 22 21  1  0  0  0  0
 23 22  2  0  0  0  0
 24 21  2  0  0  0  0
 25 26  1  0  0  0  0
 27 26  1  0  0  0  0
 27 28  2  0  0  0  0
 29 35  1  1  0  0  0
 29  3  1  0  0  0  0
 30 31  1  0  0  0  0
 30 34  1  1  0  0  0
 31 29  1  6  0  0  0
 32 30  1  0  0  0  0
 32 31  1  0  0  0  0
 34 33  1  0  0  0  0
 35 36  1  6  0  0  0
 35 37  1  0  0  0  0
 38 37  1  0  0  0  0
 39 38  3  0  0  0  0
M  END
>  <MODEL>
6

>  <REMARK>
 VINA RESULT:      -7.7      2.930      8.612
  Name = 
  13 active torsions:
  status: ('A' for Active; 'I' for Inactive)
    1  A    between atoms: O_1  and  C_2
    2  A    between atoms: O_1  and  C_17
    3  A    between atoms: C_2  and  C_32
    4  A    between atoms: C_4  and  C_36
    5  A    between atoms: C_10  and  C_20
    6  A    between atoms: C_11  and  C_29
    7  A    between atoms: C_12  and  C_16
    8  A    between atoms: C_12  and  C_20
    9  A    between atoms: C_16  and  C_22
   10  A    between atoms: C_18  and  C_19
   11  A    between atoms: C_20  and  C_24
   12  A    between atoms: C_21  and  C_26
   13  A    between atoms: CA_27  and  C_35
                            x       y       z     vdW  Elec       q    Type
                         _______ _______ _______ _____ _____    ______ ____

>  <TORSDO>
F 13

$$$$
=
 OpenBabel10232412103D

 39 42  0  0  1  0  0  0  0  0999 V2000
  191.7000  177.2920  140.4250 N   0  0  0  0  0  0  0  0  0  0  0  0
  189.5670  177.1450  139.2550 C   0  0  0  0  0  3  0  0  0  0  0  0
  190.0960  177.6490  142.2510 C   0  0  0  0  0  0  0  0  0  0  0  0
  190.8100  176.4240  139.6660 C   0  0  1  0  0  3  0  0  0  0  0  0
  188.7170  177.6790  140.1310 C   0  0  0  0  0  0  0  0  0  0  0  0
  191.4060  177.7990  141.5840 C   0  0  0  0  0  3  0  0  0  0  0  0
  188.9270  177.6440  141.5920 C   0  0  0  0  0  3  0  0  0  0  0  0
  191.2720  174.6640  137.9620 N   0  0  0  0  0  0  0  0  0  0  0  0
  192.5230  176.5530  137.8430 N   0  0  0  0  0  2  0  0  0  0  0  0
  191.5270  175.8890  138.4720 C   0  0  0  0  0  0  0  0  0  0  0  0
  192.1540  174.5520  136.9550 C   0  0  0  0  0  0  0  0  0  0  0  0
  192.9110  175.6980  136.8810 C   0  0  0  0  0  0  0  0  0  0  0  0
  191.3660  173.5980  134.8260 C   0  0  0  0  0  1  0  0  0  0  0  0
  192.2370  173.3730  136.0460 C   0  0  0  0  0  2  0  0  0  0  0  0
  193.9880  175.9910  135.8940 C   0  0  0  0  0  2  0  0  0  0  0  0
  195.2380  175.7870  136.4810 O   0  0  0  0  0  1  0  0  0  0  0  0
  187.4440  178.2650  139.6140 C   0  0  0  0  0  2  0  0  0  0  0  0
  186.6940  178.8460  140.6770 O   0  0  0  0  0  0  0  0  0  0  0  0
  184.6040  178.4570  141.8930 C   0  0  0  0  0  3  0  0  0  0  0  0
  185.2950  178.8230  140.7270 C   0  0  0  0  0  0  0  0  0  0  0  0
  182.4760  178.7640  140.7580 C   0  0  0  0  0  0  0  0  0  0  0  0
  183.1720  179.1320  139.5970 C   0  0  0  0  0  3  0  0  0  0  0  0
  184.5690  179.1650  139.5830 C   0  0  0  0  0  3  0  0  0  0  0  0
  183.2080  178.4210  141.9040 C   0  0  0  0  0  3  0  0  0  0  0  0
  180.8550  176.3180  139.7920 C   0  0  0  0  0  1  0  0  0  0  0  0
  180.2770  177.4820  140.4450 N   0  0  0  0  0  2  0  0  0  0  0  0
  180.9960  178.6760  140.7830 C   0  0  0  0  0  0  0  0  0  0  0  0
  180.3330  179.6920  141.1250 O   0  0  0  0  0  0  0  0  0  0  0  0
  190.0900  177.6640  143.7530 C   0  0  1  0  0  3  0  0  0  0  0  0
  188.2880  177.9870  145.4410 C   0  0  1  0  0  3  0  0  0  0  0  0
  188.7920  177.0880  144.3280 C   0  0  1  0  0  3  0  0  0  0  0  0
  187.6390  178.0410  144.0750 C   0  0  0  0  0  2  0  0  0  0  0  0
  186.5370  178.0560  147.1180 N   0  0  0  0  0  1  0  0  0  0  0  0
  187.4230  177.1710  146.3810 C   0  0  0  0  0  2  0  0  0  0  0  0
  191.3620  177.0230  144.3340 C   0  0  2  0  0  3  0  0  0  0  0  0
  191.4280  175.5170  144.0970 C   0  0  0  0  0  1  0  0  0  0  0  0
  191.5050  177.3470  145.8140 C   0  0  0  0  0  2  0  0  0  0  0  0
  191.9850  176.1730  146.5510 C   0  0  0  0  0  0  0  0  0  0  0  0
  192.3640  175.2480  147.1340 N   0  0  0  0  0  0  0  0  0  0  0  0
  1  6  2  0  0  0  0
  2  4  1  0  0  0  0
  2  5  2  0  0  0  0
  3 29  1  0  0  0  0
  4 10  1  6  0  0  0
  4  1  1  0  0  0  0
  5  7  1  0  0  0  0
  6  3  1  0  0  0  0
  7  3  2  0  0  0  0
  8 10  2  0  0  0  0
  9 10  1  0  0  0  0
 11  8  1  0  0  0  0
 12 11  2  0  0  0  0
 12  9  1  0  0  0  0
 13 14  1  0  0  0  0
 14 11  1  0  0  0  0
 15 16  1  0  0  0  0
 15 12  1  0  0  0  0
 17  5  1  0  0  0  0
 17 18  1  0  0  0  0
 18 20  1  0  0  0  0
 19 24  1  0  0  0  0
 20 19  2  0  0  0  0
 21 27  1  0  0  0  0
 21 24  2  0  0  0  0
 22 21  1  0  0  0  0
 23 22  2  0  0  0  0
 23 20  1  0  0  0  0
 25 26  1  0  0  0  0
 26 27  1  0  0  0  0
 27 28  2  0  0  0  0
 29 35  1  1  0  0  0
 30 34  1  1  0  0  0
 31 29  1  6  0  0  0
 31 30  1  0  0  0  0
 32 31  1  0  0  0  0
 32 30  1  0  0  0  0
 34 33  1  0  0  0  0
 35 36  1  1  0  0  0
 35 37  1  0  0  0  0
 37 38  1  0  0  0  0
 38 39  3  0  0  0  0
M  END
>  <MODEL>
7

>  <REMARK>
 VINA RESULT:      -7.6      2.320      4.117
  Name = 
  13 active torsions:
  status: ('A' for Active; 'I' for Inactive)
    1  A    between atoms: O_1  and  C_2
    2  A    between atoms: O_1  and  C_17
    3  A    between atoms: C_2  and  C_32
    4  A    between atoms: C_4  and  C_36
    5  A    between atoms: C_10  and  C_20
    6  A    between atoms: C_11  and  C_29
    7  A    between atoms: C_12  and  C_16
    8  A    between atoms: C_12  and  C_20
    9  A    between atoms: C_16  and  C_22
   10  A    between atoms: C_18  and  C_19
   11  A    between atoms: C_20  and  C_24
   12  A    between atoms: C_21  and  C_26
   13  A    between atoms: CA_27  and  C_35
                            x       y       z     vdW  Elec       q    Type
                         _______ _______ _______ _____ _____    ______ ____

>  <TORSDO>
F 13

$$$$
=
 OpenBabel10232412103D

 39 42  0  0  1  0  0  0  0  0999 V2000
  191.5940  177.1920  140.2310 N   0  0  0  0  0  0  0  0  0  0  0  0
  189.5830  177.2240  138.8540 C   0  0  0  0  0  3  0  0  0  0  0  0
  189.8180  177.1210  141.9270 C   0  0  0  0  0  0  0  0  0  0  0  0
  190.8180  176.4710  139.2300 C   0  0  1  0  0  3  0  0  0  0  0  0
  188.6340  177.5430  139.7320 C   0  0  0  0  0  0  0  0  0  0  0  0
  191.1730  177.4420  141.4340 C   0  0  0  0  0  3  0  0  0  0  0  0
  188.7140  177.2160  141.1700 C   0  0  0  0  0  3  0  0  0  0  0  0
  191.1970  175.5640  136.9390 N   0  0  0  0  0  0  0  0  0  0  0  0
  192.9710  176.5510  137.9520 N   0  0  0  0  0  2  0  0  0  0  0  0
  191.6640  176.2130  138.0290 C   0  0  0  0  0  0  0  0  0  0  0  0
  192.2680  175.4910  136.1320 C   0  0  0  0  0  0  0  0  0  0  0  0
  193.3440  176.0920  136.7450 C   0  0  0  0  0  0  0  0  0  0  0  0
  190.8160  174.6170  134.3470 C   0  0  0  0  0  1  0  0  0  0  0  0
  192.2460  174.8890  134.7680 C   0  0  0  0  0  2  0  0  0  0  0  0
  194.7160  176.2450  136.1850 C   0  0  0  0  0  2  0  0  0  0  0  0
  194.9550  177.5840  135.8760 O   0  0  0  0  0  1  0  0  0  0  0  0
  187.3850  178.1850  139.2220 C   0  0  0  0  0  2  0  0  0  0  0  0
  186.7360  178.9110  140.2630 O   0  0  0  0  0  0  0  0  0  0  0  0
  184.8280  178.5020  141.7440 C   0  0  0  0  0  3  0  0  0  0  0  0
  185.3560  178.8510  140.4900 C   0  0  0  0  0  0  0  0  0  0  0  0
  182.5660  178.7160  140.8800 C   0  0  0  0  0  0  0  0  0  0  0  0
  183.0980  179.0670  139.6300 C   0  0  0  0  0  3  0  0  0  0  0  0
  184.4810  179.1380  139.4380 C   0  0  0  0  0  3  0  0  0  0  0  0
  183.4470  178.4280  141.9320 C   0  0  0  0  0  3  0  0  0  0  0  0
  180.8610  176.3270  139.9160 C   0  0  0  0  0  1  0  0  0  0  0  0
  180.3610  177.4110  140.7460 N   0  0  0  0  0  2  0  0  0  0  0  0
  181.1050  178.5890  141.0940 C   0  0  0  0  0  0  0  0  0  0  0  0
  180.4810  179.5520  141.6160 O   0  0  0  0  0  0  0  0  0  0  0  0
  189.6770  176.8280  143.3930 C   0  0  1  0  0  3  0  0  0  0  0  0
  190.9580  176.0210  145.3700 C   0  0  1  0  0  3  0  0  0  0  0  0
  191.0230  176.8820  144.1220 C   0  0  1  0  0  3  0  0  0  0  0  0
  191.6660  175.5070  144.1350 C   0  0  0  0  0  2  0  0  0  0  0  0
  192.1420  175.5470  147.4330 N   0  0  0  0  0  1  0  0  0  0  0  0
  191.9820  176.5230  146.3690 C   0  0  0  0  0  2  0  0  0  0  0  0
  188.5860  177.6950  144.0440 C   0  0  2  0  0  3  0  0  0  0  0  0
  189.0640  178.3960  145.3120 C   0  0  0  0  0  1  0  0  0  0  0  0
  187.3320  176.8760  144.3150 C   0  0  0  0  0  2  0  0  0  0  0  0
  186.3930  177.6370  145.1460 C   0  0  0  0  0  0  0  0  0  0  0  0
  185.6520  178.2370  145.8020 N   0  0  0  0  0  0  0  0  0  0  0  0
  1  6  2  0  0  0  0
  2  4  1  0  0  0  0
  2  5  2  0  0  0  0
  3 29  1  0  0  0  0
  4 10  1  6  0  0  0
  4  1  1  0  0  0  0
  5  7  1  0  0  0  0
  6  3  1  0  0  0  0
  7  3  2  0  0  0  0
  8 10  2  0  0  0  0
  9 10  1  0  0  0  0
 11 12  2  0  0  0  0
 11  8  1  0  0  0  0
 12  9  1  0  0  0  0
 13 14  1  0  0  0  0
 14 11  1  0  0  0  0
 15 12  1  0  0  0  0
 16 15  1  0  0  0  0
 17  5  1  0  0  0  0
 17 18  1  0  0  0  0
 18 20  1  0  0  0  0
 19 24  1  0  0  0  0
 20 19  2  0  0  0  0
 21 27  1  0  0  0  0
 21 24  2  0  0  0  0
 22 21  1  0  0  0  0
 23 22  2  0  0  0  0
 23 20  1  0  0  0  0
 25 26  1  0  0  0  0
 26 27  1  0  0  0  0
 27 28  2  0  0  0  0
 29 35  1  1  0  0  0
 30 34  1  1  0  0  0
 31 29  1  6  0  0  0
 31 32  1  0  0  0  0
 31 30  1  0  0  0  0
 32 30  1  0  0  0  0
 34 33  1  0  0  0  0
 35 37  1  0  0  0  0
 35 36  1  1  0  0  0
 37 38  1  0  0  0  0
 38 39  3  0  0  0  0
M  END
>  <MODEL>
8

>  <REMARK>
 VINA RESULT:      -7.6      2.280      3.451
  Name = 
  13 active torsions:
  status: ('A' for Active; 'I' for Inactive)
    1  A    between atoms: O_1  and  C_2
    2  A    between atoms: O_1  and  C_17
    3  A    between atoms: C_2  and  C_32
    4  A    between atoms: C_4  and  C_36
    5  A    between atoms: C_10  and  C_20
    6  A    between atoms: C_11  and  C_29
    7  A    between atoms: C_12  and  C_16
    8  A    between atoms: C_12  and  C_20
    9  A    between atoms: C_16  and  C_22
   10  A    between atoms: C_18  and  C_19
   11  A    between atoms: C_20  and  C_24
   12  A    between atoms: C_21  and  C_26
   13  A    between atoms: CA_27  and  C_35
                            x       y       z     vdW  Elec       q    Type
                         _______ _______ _______ _____ _____    ______ ____

>  <TORSDO>
F 13

$$$$
=
 OpenBabel10232412103D

 39 42  0  0  1  0  0  0  0  0999 V2000
  185.9940  177.6870  142.5510 N   0  0  0  0  0  0  0  0  0  0  0  0
  187.0480  178.4560  140.4930 C   0  0  0  0  0  3  0  0  0  0  0  0
  188.3290  177.9740  143.2550 C   0  0  0  0  0  0  0  0  0  0  0  0
  186.0460  178.7550  141.5610 C   0  0  1  0  0  3  0  0  0  0  0  0
  188.3440  178.2770  140.7440 C   0  0  0  0  0  0  0  0  0  0  0  0
  186.9840  177.3680  143.3290 C   0  0  0  0  0  3  0  0  0  0  0  0
  188.9210  178.3220  142.1030 C   0  0  0  0  0  3  0  0  0  0  0  0
  183.5750  178.4320  141.5170 N   0  0  0  0  0  0  0  0  0  0  0  0
  184.4770  179.6350  139.8180 N   0  0  0  0  0  2  0  0  0  0  0  0
  184.6920  178.9600  140.9700 C   0  0  0  0  0  0  0  0  0  0  0  0
  182.6040  178.7970  140.6640 C   0  0  0  0  0  0  0  0  0  0  0  0
  183.1500  179.5270  139.6340 C   0  0  0  0  0  0  0  0  0  0  0  0
  180.5150  179.5370  141.7350 C   0  0  0  0  0  1  0  0  0  0  0  0
  181.1590  178.4820  140.8600 C   0  0  0  0  0  2  0  0  0  0  0  0
  182.4180  180.1360  138.4880 C   0  0  0  0  0  2  0  0  0  0  0  0
  182.5740  181.5230  138.5090 O   0  0  0  0  0  1  0  0  0  0  0  0
  189.2730  178.1090  139.5870 C   0  0  0  0  0  2  0  0  0  0  0  0
  189.7060  176.7550  139.4860 O   0  0  0  0  0  0  0  0  0  0  0  0
  192.1450  176.9140  139.3390 C   0  0  0  0  0  3  0  0  0  0  0  0
  190.9220  176.3830  138.9000 C   0  0  0  0  0  0  0  0  0  0  0  0
  193.3370  175.6220  137.6610 C   0  0  0  0  0  0  0  0  0  0  0  0
  192.1120  175.0920  137.2280 C   0  0  0  0  0  3  0  0  0  0  0  0
  190.9150  175.4670  137.8450 C   0  0  0  0  0  3  0  0  0  0  0  0
  193.3390  176.5410  138.7190 C   0  0  0  0  0  3  0  0  0  0  0  0
  195.1350  173.2390  138.4560 C   0  0  0  0  0  1  0  0  0  0  0  0
  195.3640  174.0910  137.3000 N   0  0  0  0  0  2  0  0  0  0  0  0
  194.6140  175.2750  136.9910 C   0  0  0  0  0  0  0  0  0  0  0  0
  195.0620  176.0460  136.1000 O   0  0  0  0  0  0  0  0  0  0  0  0
  189.1160  178.0450  144.5330 C   0  0  1  0  0  3  0  0  0  0  0  0
  188.6900  178.0160  146.9860 C   0  0  1  0  0  3  0  0  0  0  0  0
  188.4240  177.2970  145.6770 C   0  0  1  0  0  3  0  0  0  0  0  0
  187.3510  178.1720  146.2990 C   0  0  0  0  0  2  0  0  0  0  0  0
  187.8580  177.6500  149.2340 N   0  0  0  0  0  1  0  0  0  0  0  0
  188.5630  177.0270  148.1270 C   0  0  0  0  0  2  0  0  0  0  0  0
  190.5820  177.6310  144.3220 C   0  0  2  0  0  3  0  0  0  0  0  0
  191.4420  178.7580  143.7590 C   0  0  0  0  0  1  0  0  0  0  0  0
  190.6750  176.3880  143.4470 C   0  0  0  0  0  2  0  0  0  0  0  0
  191.6270  175.4300  144.0180 C   0  0  0  0  0  0  0  0  0  0  0  0
  192.3790  174.6730  144.4670 N   0  0  0  0  0  0  0  0  0  0  0  0
  1  6  2  0  0  0  0
  2  5  2  0  0  0  0
  2  4  1  0  0  0  0
  3  6  1  0  0  0  0
  3 29  1  0  0  0  0
  4 10  1  6  0  0  0
  4  1  1  0  0  0  0
  5  7  1  0  0  0  0
  7  3  2  0  0  0  0
  9 10  1  0  0  0  0
 10  8  2  0  0  0  0
 11 14  1  0  0  0  0
 11  8  1  0  0  0  0
 12  9  1  0  0  0  0
 12 11  2  0  0  0  0
 14 13  1  0  0  0  0
 15 16  1  0  0  0  0
 15 12  1  0  0  0  0
 17  5  1  0  0  0  0
 18 17  1  0  0  0  0
 20 19  1  0  0  0  0
 20 18  1  0  0  0  0
 21 24  1  0  0  0  0
 22 21  2  0  0  0  0
 22 23  1  0  0  0  0
 23 20  2  0  0  0  0
 24 19  2  0  0  0  0
 26 25  1  0  0  0  0
 27 26  1  0  0  0  0
 27 21  1  0  0  0  0
 28 27  2  0  0  0  0
 29 35  1  6  0  0  0
 30 34  1  1  0  0  0
 31 29  1  6  0  0  0
 31 32  1  0  0  0  0
 31 30  1  0  0  0  0
 32 30  1  0  0  0  0
 34 33  1  0  0  0  0
 35 36  1  6  0  0  0
 37 38  1  0  0  0  0
 37 35  1  0  0  0  0
 38 39  3  0  0  0  0
M  END
>  <MODEL>
9

>  <REMARK>
 VINA RESULT:      -7.5      2.732      7.832
  Name = 
  13 active torsions:
  status: ('A' for Active; 'I' for Inactive)
    1  A    between atoms: O_1  and  C_2
    2  A    between atoms: O_1  and  C_17
    3  A    between atoms: C_2  and  C_32
    4  A    between atoms: C_4  and  C_36
    5  A    between atoms: C_10  and  C_20
    6  A    between atoms: C_11  and  C_29
    7  A    between atoms: C_12  and  C_16
    8  A    between atoms: C_12  and  C_20
    9  A    between atoms: C_16  and  C_22
   10  A    between atoms: C_18  and  C_19
   11  A    between atoms: C_20  and  C_24
   12  A    between atoms: C_21  and  C_26
   13  A    between atoms: CA_27  and  C_35
                            x       y       z     vdW  Elec       q    Type
                         _______ _______ _______ _____ _____    ______ ____

>  <TORSDO>
F 13

$$$$
