=
 OpenBabel10232408403D

 40 43  0  0  1  0  0  0  0  0999 V2000
  187.2470  177.4790  145.6600 C   0  0  0  0  0  3  0  0  0  0  0  0
  185.3080  178.1740  144.3730 C   0  0  0  0  0  0  0  0  0  0  0  0
  184.8470  178.8920  145.4870 C   0  0  0  0  0  3  0  0  0  0  0  0
  186.5170  177.4640  144.4600 C   0  0  0  0  0  0  0  0  0  0  0  0
  186.7760  178.1890  146.7670 C   0  0  0  0  0  0  0  0  0  0  0  0
  185.5760  178.9010  146.6770 C   0  0  0  0  0  3  0  0  0  0  0  0
  185.7490  179.8070  141.9610 O   0  0  0  0  0  0  0  0  0  0  0  0
  184.5770  178.1520  143.1370 N   0  0  0  0  0  2  0  0  0  0  0  0
  184.8170  178.9570  141.9740 C   0  0  0  0  0  0  0  0  0  0  0  0
  183.9650  178.7890  140.7840 C   0  0  0  0  0  0  0  0  0  0  0  0
  184.5200  178.7950  139.4980 C   0  0  0  0  0  3  0  0  0  0  0  0
  183.7230  178.6400  138.4050 N   0  0  0  0  0  0  0  0  0  0  0  0
  182.3790  178.4720  138.5220 C   0  0  0  0  0  0  0  0  0  0  0  0
  182.5820  178.6180  140.9170 C   0  0  0  0  0  3  0  0  0  0  0  0
  181.7830  178.4590  139.7840 C   0  0  0  0  0  3  0  0  0  0  0  0
  181.5800  178.3120  137.3570 N   0  0  0  0  0  1  0  0  0  0  0  0
  186.9730  176.7550  143.3450 O   0  0  0  0  0  0  0  0  0  0  0  0
  188.3080  176.2640  143.2300 C   0  0  0  0  0  2  0  0  0  0  0  0
  189.0110  176.8870  142.1070 N   0  0  0  0  0  0  0  0  0  0  0  0
  188.9390  178.3430  142.2110 C   0  0  0  0  0  1  0  0  0  0  0  0
  190.3950  176.3890  142.0190 C   0  0  2  0  0  3  0  0  0  0  0  0
  190.9970  175.9920  143.3650 C   0  0  0  0  0  1  0  0  0  0  0  0
  191.2920  177.4110  141.3370 C   0  0  0  0  0  2  0  0  0  0  0  0
  191.6200  176.9640  139.9940 N   0  0  0  0  0  2  0  0  0  0  0  0
  189.4890  178.1500  138.6600 S   0  0  0  0  0  0  0  0  0  0  0  0
  188.0680  175.7800  135.2080 C   0  0  0  0  0  3  0  0  0  0  0  0
  190.5370  175.9410  137.9950 C   0  0  0  0  0  0  0  0  0  0  0  0
  190.6560  176.9520  138.9420 C   0  0  0  0  0  0  0  0  0  0  0  0
  189.1360  175.3630  136.0190 C   0  0  0  0  0  3  0  0  0  0  0  0
  189.5080  176.1830  137.0830 C   0  0  0  0  0  0  0  0  0  0  0  0
  187.4180  176.9550  135.4630 N   0  0  0  0  0  0  0  0  0  0  0  0
  187.7750  177.7640  136.5020 C   0  0  0  0  0  0  0  0  0  0  0  0
  191.3350  174.8430  137.9630 F   0  0  0  0  0  0  0  0  0  0  0  0
  188.8310  177.3700  137.3190 C   0  0  0  0  0  0  0  0  0  0  0  0
  187.0750  178.9810  136.7370 N   0  0  0  0  0  1  0  0  0  0  0  0
  187.5660  178.2190  148.0260 C   0  0  0  0  0  2  0  0  0  0  0  0
  188.5120  177.1160  148.0390 N   0  0  0  0  0  2  0  0  0  0  0  0
  189.8400  177.7040  147.9780 C   0  0  0  0  0  2  0  0  0  0  0  0
  190.6650  177.0160  146.9060 C   0  0  0  0  0  2  0  0  0  0  0  0
  191.6930  176.1000  147.5410 C   0  0  0  0  0  1  0  0  0  0  0  0
  1  5  1  0  0  0  0
  2  4  1  0  0  0  0
  2  3  2  0  0  0  0
  3  6  1  0  0  0  0
  4  1  2  0  0  0  0
  5 36  1  0  0  0  0
  6  5  2  0  0  0  0
  7  9  2  0  0  0  0
  8  2  1  0  0  0  0
  9  8  1  0  0  0  0
 10 14  1  0  0  0  0
 10  9  1  0  0  0  0
 11 10  2  0  0  0  0
 12 13  2  0  0  0  0
 12 11  1  0  0  0  0
 13 15  1  0  0  0  0
 15 14  2  0  0  0  0
 16 13  1  0  0  0  0
 17  4  1  0  0  0  0
 18 17  1  0  0  0  0
 19 20  1  0  0  0  0
 19 18  1  0  0  0  0
 21 19  1  0  0  0  0
 21 22  1  1  0  0  0
 23 21  1  0  0  0  0
 24 23  1  0  0  0  0
 25 28  1  0  0  0  0
 26 31  2  0  0  0  0
 26 29  1  0  0  0  0
 27 28  2  0  0  0  0
 28 24  1  0  0  0  0
 29 30  2  0  0  0  0
 30 34  1  0  0  0  0
 30 27  1  0  0  0  0
 31 32  1  0  0  0  0
 32 35  1  0  0  0  0
 32 34  2  0  0  0  0
 33 27  1  0  0  0  0
 34 25  1  0  0  0  0
 36 37  1  0  0  0  0
 38 37  1  0  0  0  0
 39 40  1  0  0  0  0
 39 38  1  0  0  0  0
M  END
>  <MODEL>
1

>  <REMARK>
 VINA RESULT:      -8.3      0.000      0.000
  Name = 
  13 active torsions:
  status: ('A' for Active; 'I' for Inactive)
    1  A    between atoms: C_2  and  N_7
    2  A    between atoms: C_8  and  C_29
    3  A    between atoms: C_9  and  N_17
    4  A    between atoms: C_11  and  O_24
    5  A    between atoms: N_12  and  C_20
    6  A    between atoms: N_12  and  C_26
    7  A    between atoms: C_15  and  C_38
    8  A    between atoms: N_17  and  C_25
    9  A    between atoms: C_20  and  C_25
   10  A    between atoms: O_24  and  C_26
   11  A    between atoms: N_32  and  C_34
   12  A    between atoms: N_32  and  C_38
   13  A    between atoms: C_34  and  C_35
                            x       y       z     vdW  Elec       q    Type
                         _______ _______ _______ _____ _____    ______ ____

>  <TORSDO>
F 13

$$$$
=
 OpenBabel10232408403D

 40 43  0  0  1  0  0  0  0  0999 V2000
  185.6110  178.7980  140.5660 C   0  0  0  0  0  3  0  0  0  0  0  0
  186.3050  178.3550  142.8510 C   0  0  0  0  0  0  0  0  0  0  0  0
  184.9570  178.3410  143.2410 C   0  0  0  0  0  3  0  0  0  0  0  0
  186.6340  178.5840  141.5050 C   0  0  0  0  0  0  0  0  0  0  0  0
  184.2720  178.7910  140.9650 C   0  0  0  0  0  0  0  0  0  0  0  0
  183.9450  178.5560  142.3030 C   0  0  0  0  0  3  0  0  0  0  0  0
  187.8370  175.8840  143.3320 O   0  0  0  0  0  0  0  0  0  0  0  0
  187.3630  178.1330  143.7970 N   0  0  0  0  0  2  0  0  0  0  0  0
  188.0970  176.9180  144.0070 C   0  0  0  0  0  0  0  0  0  0  0  0
  189.1640  176.8780  145.0220 C   0  0  0  0  0  0  0  0  0  0  0  0
  190.5000  176.6830  144.6510 C   0  0  0  0  0  3  0  0  0  0  0  0
  191.4780  176.6470  145.5970 N   0  0  0  0  0  0  0  0  0  0  0  0
  191.1960  176.8000  146.9180 C   0  0  0  0  0  0  0  0  0  0  0  0
  188.8610  177.0370  146.3800 C   0  0  0  0  0  3  0  0  0  0  0  0
  189.8780  176.9980  147.3340 C   0  0  0  0  0  3  0  0  0  0  0  0
  192.2450  176.7580  147.8770 N   0  0  0  0  0  1  0  0  0  0  0  0
  187.9790  178.5920  141.1240 O   0  0  0  0  0  0  0  0  0  0  0  0
  188.4080  178.3450  139.7860 C   0  0  0  0  0  2  0  0  0  0  0  0
  189.7790  177.8360  139.7500 N   0  0  0  0  0  0  0  0  0  0  0  0
  190.1120  177.1890  141.0170 C   0  0  0  0  0  1  0  0  0  0  0  0
  189.9760  176.9500  138.5880 C   0  0  2  0  0  3  0  0  0  0  0  0
  191.3630  176.3130  138.5250 C   0  0  0  0  0  1  0  0  0  0  0  0
  189.6910  177.6910  137.2920 C   0  0  0  0  0  2  0  0  0  0  0  0
  188.9630  176.8280  136.3770 N   0  0  0  0  0  2  0  0  0  0  0  0
  187.2630  174.6980  136.9270 S   0  0  0  0  0  0  0  0  0  0  0  0
  183.0750  175.9500  137.5930 C   0  0  0  0  0  3  0  0  0  0  0  0
  186.5260  177.1200  136.8130 C   0  0  0  0  0  0  0  0  0  0  0  0
  187.6620  176.3280  136.6810 C   0  0  0  0  0  0  0  0  0  0  0  0
  184.0970  176.8680  137.3020 C   0  0  0  0  0  3  0  0  0  0  0  0
  185.3860  176.3710  137.1090 C   0  0  0  0  0  0  0  0  0  0  0  0
  183.3440  174.6130  137.6820 N   0  0  0  0  0  0  0  0  0  0  0  0
  184.6010  174.1180  137.4960 C   0  0  0  0  0  0  0  0  0  0  0  0
  186.5300  178.4700  136.6700 F   0  0  0  0  0  0  0  0  0  0  0  0
  185.6310  175.0090  137.2060 C   0  0  0  0  0  0  0  0  0  0  0  0
  184.8440  172.7190  137.5960 N   0  0  0  0  0  1  0  0  0  0  0  0
  183.1940  178.9960  139.9610 C   0  0  0  0  0  2  0  0  0  0  0  0
  183.5390  180.1050  139.0890 N   0  0  0  0  0  2  0  0  0  0  0  0
  182.2890  180.6290  138.5650 C   0  0  0  0  0  2  0  0  0  0  0  0
  181.4340  179.4960  138.0280 C   0  0  0  0  0  2  0  0  0  0  0  0
  180.9780  179.8060  136.6150 C   0  0  0  0  0  1  0  0  0  0  0  0
  1  5  2  0  0  0  0
  1  4  1  0  0  0  0
  2  3  1  0  0  0  0
  2  8  1  0  0  0  0
  4  2  2  0  0  0  0
  5  6  1  0  0  0  0
  6  3  2  0  0  0  0
  7  9  2  0  0  0  0
  8  9  1  0  0  0  0
  9 10  1  0  0  0  0
 10 14  1  0  0  0  0
 11 10  2  0  0  0  0
 11 12  1  0  0  0  0
 12 13  2  0  0  0  0
 13 15  1  0  0  0  0
 13 16  1  0  0  0  0
 14 15  2  0  0  0  0
 17  4  1  0  0  0  0
 18 17  1  0  0  0  0
 19 18  1  0  0  0  0
 19 20  1  0  0  0  0
 21 22  1  6  0  0  0
 21 19  1  0  0  0  0
 23 21  1  0  0  0  0
 24 28  1  0  0  0  0
 24 23  1  0  0  0  0
 25 34  1  0  0  0  0
 26 31  1  0  0  0  0
 27 30  1  0  0  0  0
 28 27  2  0  0  0  0
 28 25  1  0  0  0  0
 29 26  2  0  0  0  0
 30 34  2  0  0  0  0
 30 29  1  0  0  0  0
 32 35  1  0  0  0  0
 32 31  2  0  0  0  0
 33 27  1  0  0  0  0
 34 32  1  0  0  0  0
 36  5  1  0  0  0  0
 37 36  1  0  0  0  0
 38 37  1  0  0  0  0
 39 38  1  0  0  0  0
 40 39  1  0  0  0  0
M  END
>  <MODEL>
2

>  <REMARK>
 VINA RESULT:      -8.3      2.579      7.295
  Name = 
  13 active torsions:
  status: ('A' for Active; 'I' for Inactive)
    1  A    between atoms: C_2  and  N_7
    2  A    between atoms: C_8  and  C_29
    3  A    between atoms: C_9  and  N_17
    4  A    between atoms: C_11  and  O_24
    5  A    between atoms: N_12  and  C_20
    6  A    between atoms: N_12  and  C_26
    7  A    between atoms: C_15  and  C_38
    8  A    between atoms: N_17  and  C_25
    9  A    between atoms: C_20  and  C_25
   10  A    between atoms: O_24  and  C_26
   11  A    between atoms: N_32  and  C_34
   12  A    between atoms: N_32  and  C_38
   13  A    between atoms: C_34  and  C_35
                            x       y       z     vdW  Elec       q    Type
                         _______ _______ _______ _____ _____    ______ ____

>  <TORSDO>
F 13

$$$$
=
 OpenBabel10232408403D

 40 43  0  0  1  0  0  0  0  0999 V2000
  187.4770  177.5510  145.3610 C   0  0  0  0  0  3  0  0  0  0  0  0
  185.4170  178.0420  144.1710 C   0  0  0  0  0  0  0  0  0  0  0  0
  184.8630  178.5290  145.3640 C   0  0  0  0  0  3  0  0  0  0  0  0
  186.7330  177.5510  144.1700 C   0  0  0  0  0  0  0  0  0  0  0  0
  186.9140  178.0300  146.5470 C   0  0  0  0  0  0  0  0  0  0  0  0
  185.6070  178.5250  146.5460 C   0  0  0  0  0  3  0  0  0  0  0  0
  185.6270  179.9130  141.9040 O   0  0  0  0  0  0  0  0  0  0  0  0
  184.6740  178.0390  142.9430 N   0  0  0  0  0  2  0  0  0  0  0  0
  184.7990  178.9620  141.8510 C   0  0  0  0  0  0  0  0  0  0  0  0
  183.9530  178.7960  140.6560 C   0  0  0  0  0  0  0  0  0  0  0  0
  182.5570  178.7890  140.7620 C   0  0  0  0  0  3  0  0  0  0  0  0
  181.7840  178.6350  139.6520 N   0  0  0  0  0  0  0  0  0  0  0  0
  182.3340  178.4860  138.4170 C   0  0  0  0  0  0  0  0  0  0  0  0
  184.5310  178.6440  139.3900 C   0  0  0  0  0  3  0  0  0  0  0  0
  183.7220  178.4880  138.2640 C   0  0  0  0  0  3  0  0  0  0  0  0
  181.4940  178.3290  137.2810 N   0  0  0  0  0  1  0  0  0  0  0  0
  187.2810  177.0710  142.9760 O   0  0  0  0  0  0  0  0  0  0  0  0
  188.6140  176.5730  142.8780 C   0  0  0  0  0  2  0  0  0  0  0  0
  189.5070  177.5530  142.2590 N   0  0  0  0  0  0  0  0  0  0  0  0
  190.7920  177.5770  142.9540 C   0  0  0  0  0  1  0  0  0  0  0  0
  189.6440  177.2940  140.8150 C   0  0  2  0  0  3  0  0  0  0  0  0
  191.0910  177.2900  140.3220 C   0  0  0  0  0  1  0  0  0  0  0  0
  188.8300  178.2930  140.0080 C   0  0  0  0  0  2  0  0  0  0  0  0
  189.1840  178.2010  138.6020 N   0  0  0  0  0  2  0  0  0  0  0  0
  188.7200  175.8060  137.2700 S   0  0  0  0  0  0  0  0  0  0  0  0
  185.2520  175.9880  134.5320 C   0  0  0  0  0  3  0  0  0  0  0  0
  187.3210  177.8980  136.9740 C   0  0  0  0  0  0  0  0  0  0  0  0
  188.4220  177.4250  137.6780 C   0  0  0  0  0  0  0  0  0  0  0  0
  185.6610  177.0880  135.3030 C   0  0  0  0  0  3  0  0  0  0  0  0
  186.7670  176.9270  136.1370 C   0  0  0  0  0  0  0  0  0  0  0  0
  185.9250  174.8000  134.6020 N   0  0  0  0  0  0  0  0  0  0  0  0
  187.0080  174.6330  135.4150 C   0  0  0  0  0  0  0  0  0  0  0  0
  186.8400  179.1620  137.0900 F   0  0  0  0  0  0  0  0  0  0  0  0
  187.4310  175.7110  136.1890 C   0  0  0  0  0  0  0  0  0  0  0  0
  187.6840  173.3820  135.4620 N   0  0  0  0  0  1  0  0  0  0  0  0
  187.7150  178.0480  147.8000 C   0  0  0  0  0  2  0  0  0  0  0  0
  188.6520  176.9370  147.7990 N   0  0  0  0  0  2  0  0  0  0  0  0
  189.9850  177.5140  147.8480 C   0  0  0  0  0  2  0  0  0  0  0  0
  190.8520  176.9130  146.7570 C   0  0  0  0  0  2  0  0  0  0  0  0
  191.8840  175.9810  147.3600 C   0  0  0  0  0  1  0  0  0  0  0  0
  1  5  1  0  0  0  0
  2  3  2  0  0  0  0
  3  6  1  0  0  0  0
  4  2  1  0  0  0  0
  4  1  2  0  0  0  0
  5 36  1  0  0  0  0
  6  5  2  0  0  0  0
  8  2  1  0  0  0  0
  9  7  2  0  0  0  0
  9  8  1  0  0  0  0
 10 11  1  0  0  0  0
 10  9  1  0  0  0  0
 12 11  2  0  0  0  0
 13 12  1  0  0  0  0
 14 10  2  0  0  0  0
 15 13  2  0  0  0  0
 15 14  1  0  0  0  0
 16 13  1  0  0  0  0
 17  4  1  0  0  0  0
 18 17  1  0  0  0  0
 19 18  1  0  0  0  0
 19 20  1  0  0  0  0
 21 22  1  6  0  0  0
 21 19  1  0  0  0  0
 23 21  1  0  0  0  0
 24 23  1  0  0  0  0
 25 28  1  0  0  0  0
 26 31  2  0  0  0  0
 26 29  1  0  0  0  0
 27 33  1  0  0  0  0
 27 28  2  0  0  0  0
 28 24  1  0  0  0  0
 29 30  2  0  0  0  0
 30 34  1  0  0  0  0
 30 27  1  0  0  0  0
 31 32  1  0  0  0  0
 32 35  1  0  0  0  0
 32 34  2  0  0  0  0
 34 25  1  0  0  0  0
 37 36  1  0  0  0  0
 37 38  1  0  0  0  0
 39 40  1  0  0  0  0
 39 38  1  0  0  0  0
M  END
>  <MODEL>
3

>  <REMARK>
 VINA RESULT:      -8.1      1.725      2.362
  Name = 
  13 active torsions:
  status: ('A' for Active; 'I' for Inactive)
    1  A    between atoms: C_2  and  N_7
    2  A    between atoms: C_8  and  C_29
    3  A    between atoms: C_9  and  N_17
    4  A    between atoms: C_11  and  O_24
    5  A    between atoms: N_12  and  C_20
    6  A    between atoms: N_12  and  C_26
    7  A    between atoms: C_15  and  C_38
    8  A    between atoms: N_17  and  C_25
    9  A    between atoms: C_20  and  C_25
   10  A    between atoms: O_24  and  C_26
   11  A    between atoms: N_32  and  C_34
   12  A    between atoms: N_32  and  C_38
   13  A    between atoms: C_34  and  C_35
                            x       y       z     vdW  Elec       q    Type
                         _______ _______ _______ _____ _____    ______ ____

>  <TORSDO>
F 13

$$$$
=
 OpenBabel10232408403D

 40 43  0  0  1  0  0  0  0  0999 V2000
  187.7150  177.3610  145.2860 C   0  0  0  0  0  3  0  0  0  0  0  0
  185.6510  178.0030  144.1780 C   0  0  0  0  0  0  0  0  0  0  0  0
  185.2040  178.5750  145.3790 C   0  0  0  0  0  3  0  0  0  0  0  0
  186.9160  177.3930  144.1320 C   0  0  0  0  0  0  0  0  0  0  0  0
  187.2580  177.9260  146.4790 C   0  0  0  0  0  0  0  0  0  0  0  0
  186.0030  178.5380  146.5240 C   0  0  0  0  0  3  0  0  0  0  0  0
  185.8700  179.8220  141.8710 O   0  0  0  0  0  0  0  0  0  0  0  0
  184.8490  178.0310  142.9880 N   0  0  0  0  0  2  0  0  0  0  0  0
  184.9810  178.9270  141.8740 C   0  0  0  0  0  0  0  0  0  0  0  0
  184.0680  178.8000  140.7250 C   0  0  0  0  0  0  0  0  0  0  0  0
  184.5610  178.7890  139.4150 C   0  0  0  0  0  3  0  0  0  0  0  0
  183.7090  178.6720  138.3600 N   0  0  0  0  0  0  0  0  0  0  0  0
  182.3650  178.5600  138.5400 C   0  0  0  0  0  0  0  0  0  0  0  0
  182.6860  178.6860  140.9230 C   0  0  0  0  0  3  0  0  0  0  0  0
  181.8290  178.5650  139.8290 C   0  0  0  0  0  3  0  0  0  0  0  0
  181.5060  178.4380  137.4130 N   0  0  0  0  0  1  0  0  0  0  0  0
  187.3570  176.8300  142.9310 O   0  0  0  0  0  0  0  0  0  0  0  0
  188.7380  176.6730  142.6070 C   0  0  0  0  0  2  0  0  0  0  0  0
  189.3300  177.9370  142.1670 N   0  0  0  0  0  0  0  0  0  0  0  0
  190.4760  178.2780  143.0080 C   0  0  0  0  0  1  0  0  0  0  0  0
  189.6690  177.8830  140.7340 C   0  0  2  0  0  3  0  0  0  0  0  0
  188.4550  177.9450  139.8090 C   0  0  0  0  0  1  0  0  0  0  0  0
  190.4900  176.6420  140.4220 C   0  0  0  0  0  2  0  0  0  0  0  0
  190.2070  176.1870  139.0710 N   0  0  0  0  0  2  0  0  0  0  0  0
  192.7650  176.2880  137.9870 S   0  0  0  0  0  0  0  0  0  0  0  0
  193.6190  172.9260  135.2450 C   0  0  0  0  0  3  0  0  0  0  0  0
  191.0710  174.4720  137.4820 C   0  0  0  0  0  0  0  0  0  0  0  0
  191.2190  175.6350  138.2300 C   0  0  0  0  0  0  0  0  0  0  0  0
  192.3860  173.0660  135.9020 C   0  0  0  0  0  3  0  0  0  0  0  0
  192.2180  174.1630  136.7470 C   0  0  0  0  0  0  0  0  0  0  0  0
  194.6180  173.8410  135.4340 N   0  0  0  0  0  0  0  0  0  0  0  0
  194.4610  174.9160  136.2590 C   0  0  0  0  0  0  0  0  0  0  0  0
  189.9390  173.7240  137.4700 F   0  0  0  0  0  0  0  0  0  0  0  0
  193.2460  175.0760  136.9210 C   0  0  0  0  0  0  0  0  0  0  0  0
  195.5220  175.8480  136.4320 N   0  0  0  0  0  1  0  0  0  0  0  0
  188.1200  177.9080  147.6910 C   0  0  0  0  0  2  0  0  0  0  0  0
  189.0140  176.7640  147.6420 N   0  0  0  0  0  2  0  0  0  0  0  0
  190.3680  177.2900  147.6500 C   0  0  0  0  0  2  0  0  0  0  0  0
  191.2290  176.5290  146.6590 C   0  0  0  0  0  2  0  0  0  0  0  0
  192.3200  175.7670  147.3860 C   0  0  0  0  0  1  0  0  0  0  0  0
  1  5  1  0  0  0  0
  2  3  2  0  0  0  0
  3  6  1  0  0  0  0
  4  2  1  0  0  0  0
  4  1  2  0  0  0  0
  5  6  2  0  0  0  0
  5 36  1  0  0  0  0
  7  9  2  0  0  0  0
  8  2  1  0  0  0  0
  9  8  1  0  0  0  0
 10 14  1  0  0  0  0
 10  9  1  0  0  0  0
 11 10  2  0  0  0  0
 12 13  2  0  0  0  0
 12 11  1  0  0  0  0
 13 15  1  0  0  0  0
 15 14  2  0  0  0  0
 16 13  1  0  0  0  0
 17  4  1  0  0  0  0
 18 17  1  0  0  0  0
 19 18  1  0  0  0  0
 19 20  1  0  0  0  0
 21 22  1  6  0  0  0
 21 19  1  0  0  0  0
 23 21  1  0  0  0  0
 24 23  1  0  0  0  0
 25 28  1  0  0  0  0
 26 31  2  0  0  0  0
 26 29  1  0  0  0  0
 27 28  2  0  0  0  0
 28 24  1  0  0  0  0
 29 30  2  0  0  0  0
 30 34  1  0  0  0  0
 30 27  1  0  0  0  0
 31 32  1  0  0  0  0
 32 35  1  0  0  0  0
 32 34  2  0  0  0  0
 33 27  1  0  0  0  0
 34 25  1  0  0  0  0
 37 38  1  0  0  0  0
 37 36  1  0  0  0  0
 39 40  1  0  0  0  0
 39 38  1  0  0  0  0
M  END
>  <MODEL>
4

>  <REMARK>
 VINA RESULT:      -7.9      2.197      2.972
  Name = 
  13 active torsions:
  status: ('A' for Active; 'I' for Inactive)
    1  A    between atoms: C_2  and  N_7
    2  A    between atoms: C_8  and  C_29
    3  A    between atoms: C_9  and  N_17
    4  A    between atoms: C_11  and  O_24
    5  A    between atoms: N_12  and  C_20
    6  A    between atoms: N_12  and  C_26
    7  A    between atoms: C_15  and  C_38
    8  A    between atoms: N_17  and  C_25
    9  A    between atoms: C_20  and  C_25
   10  A    between atoms: O_24  and  C_26
   11  A    between atoms: N_32  and  C_34
   12  A    between atoms: N_32  and  C_38
   13  A    between atoms: C_34  and  C_35
                            x       y       z     vdW  Elec       q    Type
                         _______ _______ _______ _____ _____    ______ ____

>  <TORSDO>
F 13

$$$$
=
 OpenBabel10232408403D

 40 43  0  0  1  0  0  0  0  0999 V2000
  183.8260  178.5050  142.0750 C   0  0  0  0  0  3  0  0  0  0  0  0
  185.1280  178.3020  144.1150 C   0  0  0  0  0  0  0  0  0  0  0  0
  183.9830  178.6310  144.8580 C   0  0  0  0  0  3  0  0  0  0  0  0
  185.0480  178.2380  142.7150 C   0  0  0  0  0  0  0  0  0  0  0  0
  182.6940  178.8400  142.8220 C   0  0  0  0  0  0  0  0  0  0  0  0
  182.7720  178.8970  144.2160 C   0  0  0  0  0  3  0  0  0  0  0  0
  185.8430  178.6160  146.9560 O   0  0  0  0  0  0  0  0  0  0  0  0
  186.3830  178.0220  144.7530 N   0  0  0  0  0  2  0  0  0  0  0  0
  186.7040  178.1800  146.1430 C   0  0  0  0  0  0  0  0  0  0  0  0
  188.0510  177.8290  146.6240 C   0  0  0  0  0  0  0  0  0  0  0  0
  188.9680  177.1850  145.7840 C   0  0  0  0  0  3  0  0  0  0  0  0
  190.2100  176.8650  146.2390 N   0  0  0  0  0  0  0  0  0  0  0  0
  190.6000  177.1580  147.5080 C   0  0  0  0  0  0  0  0  0  0  0  0
  188.4420  178.1360  147.9340 C   0  0  0  0  0  3  0  0  0  0  0  0
  189.7200  177.8000  148.3800 C   0  0  0  0  0  3  0  0  0  0  0  0
  191.9070  176.8080  147.9460 N   0  0  0  0  0  1  0  0  0  0  0  0
  186.1910  177.9050  141.9820 O   0  0  0  0  0  0  0  0  0  0  0  0
  186.7460  178.7570  140.9800 C   0  0  0  0  0  2  0  0  0  0  0  0
  188.2040  178.6390  140.9280 N   0  0  0  0  0  0  0  0  0  0  0  0
  188.7100  178.0690  142.1750 C   0  0  0  0  0  1  0  0  0  0  0  0
  188.6230  177.8750  139.7390 C   0  0  2  0  0  3  0  0  0  0  0  0
  189.7260  176.8550  140.0180 C   0  0  0  0  0  1  0  0  0  0  0  0
  189.0580  178.8120  138.6240 C   0  0  0  0  0  2  0  0  0  0  0  0
  187.9930  178.9450  137.6450 N   0  0  0  0  0  2  0  0  0  0  0  0
  188.0410  176.5720  136.1980 S   0  0  0  0  0  0  0  0  0  0  0  0
  184.0670  174.6640  135.8620 C   0  0  0  0  0  3  0  0  0  0  0  0
  185.9550  177.5690  137.2340 C   0  0  0  0  0  0  0  0  0  0  0  0
  187.3170  177.8120  137.1010 C   0  0  0  0  0  0  0  0  0  0  0  0
  184.2670  175.8700  136.5530 C   0  0  0  0  0  3  0  0  0  0  0  0
  185.5600  176.3890  136.6010 C   0  0  0  0  0  0  0  0  0  0  0  0
  185.1150  174.0250  135.2580 N   0  0  0  0  0  0  0  0  0  0  0  0
  186.3830  174.5250  135.3000 C   0  0  0  0  0  0  0  0  0  0  0  0
  185.1070  178.3880  137.9060 F   0  0  0  0  0  0  0  0  0  0  0  0
  186.6040  175.7210  135.9800 C   0  0  0  0  0  0  0  0  0  0  0  0
  187.4490  173.8340  134.6600 N   0  0  0  0  0  1  0  0  0  0  0  0
  181.3990  179.0980  142.1380 C   0  0  0  0  0  2  0  0  0  0  0  0
  181.4660  178.6280  140.7650 N   0  0  0  0  0  2  0  0  0  0  0  0
  180.5390  177.5130  140.6600 C   0  0  0  0  0  2  0  0  0  0  0  0
  180.9440  176.6050  139.5140 C   0  0  0  0  0  2  0  0  0  0  0  0
  182.4070  176.2250  139.6360 C   0  0  0  0  0  1  0  0  0  0  0  0
  1  4  2  0  0  0  0
  1  5  1  0  0  0  0
  2  8  1  0  0  0  0
  2  3  2  0  0  0  0
  4  2  1  0  0  0  0
  5  6  2  0  0  0  0
  6  3  1  0  0  0  0
  8  9  1  0  0  0  0
  9 10  1  0  0  0  0
  9  7  2  0  0  0  0
 10 14  1  0  0  0  0
 11 12  1  0  0  0  0
 11 10  2  0  0  0  0
 12 13  2  0  0  0  0
 13 16  1  0  0  0  0
 13 15  1  0  0  0  0
 14 15  2  0  0  0  0
 17  4  1  0  0  0  0
 18 17  1  0  0  0  0
 19 18  1  0  0  0  0
 19 20  1  0  0  0  0
 21 22  1  1  0  0  0
 21 19  1  0  0  0  0
 23 21  1  0  0  0  0
 24 23  1  0  0  0  0
 25 28  1  0  0  0  0
 26 29  1  0  0  0  0
 27 33  1  0  0  0  0
 28 27  2  0  0  0  0
 28 24  1  0  0  0  0
 29 30  2  0  0  0  0
 30 27  1  0  0  0  0
 31 32  1  0  0  0  0
 31 26  2  0  0  0  0
 32 34  2  0  0  0  0
 34 25  1  0  0  0  0
 34 30  1  0  0  0  0
 35 32  1  0  0  0  0
 36  5  1  0  0  0  0
 37 36  1  0  0  0  0
 38 37  1  0  0  0  0
 39 40  1  0  0  0  0
 39 38  1  0  0  0  0
M  END
>  <MODEL>
5

>  <REMARK>
 VINA RESULT:      -7.8      2.507      6.843
  Name = 
  13 active torsions:
  status: ('A' for Active; 'I' for Inactive)
    1  A    between atoms: C_2  and  N_7
    2  A    between atoms: C_8  and  C_29
    3  A    between atoms: C_9  and  N_17
    4  A    between atoms: C_11  and  O_24
    5  A    between atoms: N_12  and  C_20
    6  A    between atoms: N_12  and  C_26
    7  A    between atoms: C_15  and  C_38
    8  A    between atoms: N_17  and  C_25
    9  A    between atoms: C_20  and  C_25
   10  A    between atoms: O_24  and  C_26
   11  A    between atoms: N_32  and  C_34
   12  A    between atoms: N_32  and  C_38
   13  A    between atoms: C_34  and  C_35
                            x       y       z     vdW  Elec       q    Type
                         _______ _______ _______ _____ _____    ______ ____

>  <TORSDO>
F 13

$$$$
=
 OpenBabel10232408403D

 40 43  0  0  1  0  0  0  0  0999 V2000
  185.5230  178.7930  140.6340 C   0  0  0  0  0  3  0  0  0  0  0  0
  186.2050  178.3560  142.9240 C   0  0  0  0  0  0  0  0  0  0  0  0
  184.8540  178.3100  143.3000 C   0  0  0  0  0  3  0  0  0  0  0  0
  186.5410  178.5980  141.5810 C   0  0  0  0  0  0  0  0  0  0  0  0
  184.1800  178.7540  141.0190 C   0  0  0  0  0  0  0  0  0  0  0  0
  183.8460  178.5070  142.3540 C   0  0  0  0  0  3  0  0  0  0  0  0
  187.8380  175.9430  143.3580 O   0  0  0  0  0  0  0  0  0  0  0  0
  187.2590  178.1540  143.8780 N   0  0  0  0  0  2  0  0  0  0  0  0
  188.0430  176.9670  144.0650 C   0  0  0  0  0  0  0  0  0  0  0  0
  189.0970  176.9450  145.0950 C   0  0  0  0  0  0  0  0  0  0  0  0
  188.7720  177.0090  146.4550 C   0  0  0  0  0  3  0  0  0  0  0  0
  189.7530  176.9890  147.3980 N   0  0  0  0  0  0  0  0  0  0  0  0
  191.0670  176.9050  147.0560 C   0  0  0  0  0  0  0  0  0  0  0  0
  190.4460  176.8580  144.7300 C   0  0  0  0  0  3  0  0  0  0  0  0
  191.4370  176.8380  145.7120 C   0  0  0  0  0  3  0  0  0  0  0  0
  192.0640  176.8850  148.0700 N   0  0  0  0  0  1  0  0  0  0  0  0
  187.8890  178.6380  141.2130 O   0  0  0  0  0  0  0  0  0  0  0  0
  188.3360  178.4100  139.8770 C   0  0  0  0  0  2  0  0  0  0  0  0
  189.7000  177.8810  139.8530 N   0  0  0  0  0  0  0  0  0  0  0  0
  189.9690  177.1210  141.0720 C   0  0  0  0  0  1  0  0  0  0  0  0
  189.9330  177.0960  138.6280 C   0  0  2  0  0  3  0  0  0  0  0  0
  191.3330  176.4910  138.5380 C   0  0  0  0  0  1  0  0  0  0  0  0
  189.6560  177.9350  137.3900 C   0  0  0  0  0  2  0  0  0  0  0  0
  189.0160  177.1200  136.3720 N   0  0  0  0  0  2  0  0  0  0  0  0
  186.2740  176.9370  136.7920 S   0  0  0  0  0  0  0  0  0  0  0  0
  184.9110  172.8030  137.5710 C   0  0  0  0  0  3  0  0  0  0  0  0
  187.8600  174.9610  136.8400 C   0  0  0  0  0  0  0  0  0  0  0  0
  187.8540  176.3380  136.6470 C   0  0  0  0  0  0  0  0  0  0  0  0
  186.2580  173.1190  137.3320 C   0  0  0  0  0  3  0  0  0  0  0  0
  186.5840  174.4540  137.0960 C   0  0  0  0  0  0  0  0  0  0  0  0
  183.9560  173.7820  137.5710 N   0  0  0  0  0  0  0  0  0  0  0  0
  184.2660  175.0900  137.3410 C   0  0  0  0  0  0  0  0  0  0  0  0
  188.9820  174.1990  136.7860 F   0  0  0  0  0  0  0  0  0  0  0  0
  185.5960  175.4260  137.1020 C   0  0  0  0  0  0  0  0  0  0  0  0
  183.2450  176.0810  137.3490 N   0  0  0  0  0  1  0  0  0  0  0  0
  183.1080  178.9390  140.0060 C   0  0  0  0  0  2  0  0  0  0  0  0
  181.8640  179.2960  140.6660 N   0  0  0  0  0  2  0  0  0  0  0  0
  180.7910  178.6960  139.8910 C   0  0  0  0  0  2  0  0  0  0  0  0
  180.2300  177.4920  140.6240 C   0  0  0  0  0  2  0  0  0  0  0  0
  180.0450  177.8100  142.0950 C   0  0  0  0  0  1  0  0  0  0  0  0
  1  5  2  0  0  0  0
  1  4  1  0  0  0  0
  2  3  1  0  0  0  0
  2  8  1  0  0  0  0
  4  2  2  0  0  0  0
  5  6  1  0  0  0  0
  6  3  2  0  0  0  0
  7  9  2  0  0  0  0
  8  9  1  0  0  0  0
  9 10  1  0  0  0  0
 10 11  1  0  0  0  0
 11 12  2  0  0  0  0
 13 12  1  0  0  0  0
 13 16  1  0  0  0  0
 14 10  2  0  0  0  0
 14 15  1  0  0  0  0
 15 13  2  0  0  0  0
 17  4  1  0  0  0  0
 18 17  1  0  0  0  0
 19 18  1  0  0  0  0
 19 20  1  0  0  0  0
 21 22  1  6  0  0  0
 21 19  1  0  0  0  0
 23 21  1  0  0  0  0
 24 28  1  0  0  0  0
 24 23  1  0  0  0  0
 25 34  1  0  0  0  0
 27 30  1  0  0  0  0
 28 25  1  0  0  0  0
 28 27  2  0  0  0  0
 29 26  2  0  0  0  0
 30 34  2  0  0  0  0
 30 29  1  0  0  0  0
 31 26  1  0  0  0  0
 32 35  1  0  0  0  0
 32 31  2  0  0  0  0
 33 27  1  0  0  0  0
 34 32  1  0  0  0  0
 36 37  1  0  0  0  0
 36  5  1  0  0  0  0
 38 39  1  0  0  0  0
 38 37  1  0  0  0  0
 39 40  1  0  0  0  0
M  END
>  <MODEL>
6

>  <REMARK>
 VINA RESULT:      -7.7      2.393      6.940
  Name = 
  13 active torsions:
  status: ('A' for Active; 'I' for Inactive)
    1  A    between atoms: C_2  and  N_7
    2  A    between atoms: C_8  and  C_29
    3  A    between atoms: C_9  and  N_17
    4  A    between atoms: C_11  and  O_24
    5  A    between atoms: N_12  and  C_20
    6  A    between atoms: N_12  and  C_26
    7  A    between atoms: C_15  and  C_38
    8  A    between atoms: N_17  and  C_25
    9  A    between atoms: C_20  and  C_25
   10  A    between atoms: O_24  and  C_26
   11  A    between atoms: N_32  and  C_34
   12  A    between atoms: N_32  and  C_38
   13  A    between atoms: C_34  and  C_35
                            x       y       z     vdW  Elec       q    Type
                         _______ _______ _______ _____ _____    ______ ____

>  <TORSDO>
F 13

$$$$
=
 OpenBabel10232408403D

 40 43  0  0  1  0  0  0  0  0999 V2000
  188.1560  177.4060  145.3720 C   0  0  0  0  0  3  0  0  0  0  0  0
  185.9430  178.1090  144.6590 C   0  0  0  0  0  0  0  0  0  0  0  0
  185.6590  178.4940  145.9790 C   0  0  0  0  0  3  0  0  0  0  0  0
  187.2010  177.5630  144.3550 C   0  0  0  0  0  0  0  0  0  0  0  0
  187.8610  177.7840  146.6850 C   0  0  0  0  0  0  0  0  0  0  0  0
  186.6120  178.3340  146.9860 C   0  0  0  0  0  3  0  0  0  0  0  0
  183.1250  178.9410  144.8700 O   0  0  0  0  0  0  0  0  0  0  0  0
  184.9810  178.2670  143.6060 N   0  0  0  0  0  2  0  0  0  0  0  0
  183.6120  178.6790  143.7370 C   0  0  0  0  0  0  0  0  0  0  0  0
  182.7690  178.7960  142.5340 C   0  0  0  0  0  0  0  0  0  0  0  0
  183.3280  178.6970  141.2540 C   0  0  0  0  0  3  0  0  0  0  0  0
  182.5400  178.8070  140.1500 N   0  0  0  0  0  0  0  0  0  0  0  0
  181.1990  179.0120  140.2500 C   0  0  0  0  0  0  0  0  0  0  0  0
  181.3890  179.0070  142.6500 C   0  0  0  0  0  3  0  0  0  0  0  0
  180.5990  179.1160  141.5060 C   0  0  0  0  0  3  0  0  0  0  0  0
  180.4080  179.1200  139.0730 N   0  0  0  0  0  1  0  0  0  0  0  0
  187.4790  177.1860  143.0370 O   0  0  0  0  0  0  0  0  0  0  0  0
  188.1620  178.0340  142.1150 C   0  0  0  0  0  2  0  0  0  0  0  0
  189.4210  177.4350  141.6700 N   0  0  0  0  0  0  0  0  0  0  0  0
  189.6460  176.1640  142.3550 C   0  0  0  0  0  1  0  0  0  0  0  0
  189.4460  177.3050  140.2020 C   0  0  2  0  0  3  0  0  0  0  0  0
  190.8400  177.0650  139.6260 C   0  0  0  0  0  1  0  0  0  0  0  0
  188.8200  178.5240  139.5430 C   0  0  0  0  0  2  0  0  0  0  0  0
  188.5400  178.2420  138.1450 N   0  0  0  0  0  2  0  0  0  0  0  0
  185.8000  178.0310  137.7240 S   0  0  0  0  0  0  0  0  0  0  0  0
  184.5780  174.0570  136.2190 C   0  0  0  0  0  3  0  0  0  0  0  0
  187.4580  176.1620  137.2990 C   0  0  0  0  0  0  0  0  0  0  0  0
  187.4040  177.4790  137.7390 C   0  0  0  0  0  0  0  0  0  0  0  0
  185.9160  174.3770  136.4970 C   0  0  0  0  0  3  0  0  0  0  0  0
  186.1970  175.6590  136.9680 C   0  0  0  0  0  0  0  0  0  0  0  0
  183.5870  174.9800  136.4070 N   0  0  0  0  0  0  0  0  0  0  0  0
  183.8530  176.2370  136.8670 C   0  0  0  0  0  0  0  0  0  0  0  0
  188.6070  175.4470  137.2020 F   0  0  0  0  0  0  0  0  0  0  0  0
  185.1740  176.5760  137.1500 C   0  0  0  0  0  0  0  0  0  0  0  0
  182.7960  177.1720  137.0510 N   0  0  0  0  0  1  0  0  0  0  0  0
  188.8860  177.6360  147.7520 C   0  0  0  0  0  2  0  0  0  0  0  0
  189.7170  176.4770  147.4780 N   0  0  0  0  0  2  0  0  0  0  0  0
  191.0980  176.9290  147.5340 C   0  0  0  0  0  2  0  0  0  0  0  0
  191.9820  176.0040  146.7190 C   0  0  0  0  0  2  0  0  0  0  0  0
  191.6960  176.1720  145.2390 C   0  0  0  0  0  1  0  0  0  0  0  0
  1  5  1  0  0  0  0
  2  3  2  0  0  0  0
  3  6  1  0  0  0  0
  4  2  1  0  0  0  0
  4  1  2  0  0  0  0
  5  6  2  0  0  0  0
  5 36  1  0  0  0  0
  8  9  1  0  0  0  0
  8  2  1  0  0  0  0
  9  7  2  0  0  0  0
 10 14  1  0  0  0  0
 10  9  1  0  0  0  0
 11 10  2  0  0  0  0
 12 13  2  0  0  0  0
 12 11  1  0  0  0  0
 13 15  1  0  0  0  0
 15 14  2  0  0  0  0
 16 13  1  0  0  0  0
 17  4  1  0  0  0  0
 18 17  1  0  0  0  0
 19 18  1  0  0  0  0
 19 20  1  0  0  0  0
 21 22  1  6  0  0  0
 21 19  1  0  0  0  0
 23 21  1  0  0  0  0
 24 23  1  0  0  0  0
 25 28  1  0  0  0  0
 26 31  2  0  0  0  0
 26 29  1  0  0  0  0
 27 28  2  0  0  0  0
 28 24  1  0  0  0  0
 29 30  2  0  0  0  0
 30 34  1  0  0  0  0
 30 27  1  0  0  0  0
 31 32  1  0  0  0  0
 32 35  1  0  0  0  0
 32 34  2  0  0  0  0
 33 27  1  0  0  0  0
 34 25  1  0  0  0  0
 37 38  1  0  0  0  0
 37 36  1  0  0  0  0
 39 38  1  0  0  0  0
 40 39  1  0  0  0  0
M  END
>  <MODEL>
7

>  <REMARK>
 VINA RESULT:      -7.7      2.055      2.682
  Name = 
  13 active torsions:
  status: ('A' for Active; 'I' for Inactive)
    1  A    between atoms: C_2  and  N_7
    2  A    between atoms: C_8  and  C_29
    3  A    between atoms: C_9  and  N_17
    4  A    between atoms: C_11  and  O_24
    5  A    between atoms: N_12  and  C_20
    6  A    between atoms: N_12  and  C_26
    7  A    between atoms: C_15  and  C_38
    8  A    between atoms: N_17  and  C_25
    9  A    between atoms: C_20  and  C_25
   10  A    between atoms: O_24  and  C_26
   11  A    between atoms: N_32  and  C_34
   12  A    between atoms: N_32  and  C_38
   13  A    between atoms: C_34  and  C_35
                            x       y       z     vdW  Elec       q    Type
                         _______ _______ _______ _____ _____    ______ ____

>  <TORSDO>
F 13

$$$$
=
 OpenBabel10232408403D

 40 43  0  0  1  0  0  0  0  0999 V2000
  185.2170  178.7950  140.8210 C   0  0  0  0  0  3  0  0  0  0  0  0
  185.9810  178.3910  143.0910 C   0  0  0  0  0  0  0  0  0  0  0  0
  184.6460  178.3940  143.5230 C   0  0  0  0  0  3  0  0  0  0  0  0
  186.2680  178.5920  141.7310 C   0  0  0  0  0  0  0  0  0  0  0  0
  183.8910  178.8050  141.2620 C   0  0  0  0  0  0  0  0  0  0  0  0
  183.6060  178.5980  142.6140 C   0  0  0  0  0  3  0  0  0  0  0  0
  187.7290  176.0320  143.3390 O   0  0  0  0  0  0  0  0  0  0  0  0
  187.0670  178.1800  144.0060 N   0  0  0  0  0  2  0  0  0  0  0  0
  187.9070  177.0200  144.1020 C   0  0  0  0  0  0  0  0  0  0  0  0
  188.9870  176.9840  145.1030 C   0  0  0  0  0  0  0  0  0  0  0  0
  190.3160  176.7670  144.7170 C   0  0  0  0  0  3  0  0  0  0  0  0
  191.3060  176.7350  145.6500 N   0  0  0  0  0  0  0  0  0  0  0  0
  191.0440  176.9130  146.9730 C   0  0  0  0  0  0  0  0  0  0  0  0
  188.7050  177.1690  146.4620 C   0  0  0  0  0  3  0  0  0  0  0  0
  189.7340  177.1330  147.4030 C   0  0  0  0  0  3  0  0  0  0  0  0
  192.1060  176.8740  147.9180 N   0  0  0  0  0  1  0  0  0  0  0  0
  187.6000  178.5830  141.3070 O   0  0  0  0  0  0  0  0  0  0  0  0
  187.9830  178.3310  139.9560 C   0  0  0  0  0  2  0  0  0  0  0  0
  189.4350  178.1960  139.8280 N   0  0  0  0  0  0  0  0  0  0  0  0
  189.9240  177.1430  140.7160 C   0  0  0  0  0  1  0  0  0  0  0  0
  189.8170  177.9790  138.4210 C   0  0  2  0  0  3  0  0  0  0  0  0
  188.9920  178.7910  137.4240 C   0  0  0  0  0  1  0  0  0  0  0  0
  189.7450  176.5030  138.0660 C   0  0  0  0  0  2  0  0  0  0  0  0
  190.6210  176.2210  136.9410 N   0  0  0  0  0  2  0  0  0  0  0  0
  191.9450  173.8570  136.3190 S   0  0  0  0  0  0  0  0  0  0  0  0
  195.9210  173.5440  138.2270 C   0  0  0  0  0  3  0  0  0  0  0  0
  192.8880  175.6700  137.8180 C   0  0  0  0  0  0  0  0  0  0  0  0
  191.7600  175.3710  137.0610 C   0  0  0  0  0  0  0  0  0  0  0  0
  195.0860  174.6570  138.4080 C   0  0  0  0  0  3  0  0  0  0  0  0
  193.8500  174.6590  137.7610 C   0  0  0  0  0  0  0  0  0  0  0  0
  195.5270  172.4970  137.4400 N   0  0  0  0  0  0  0  0  0  0  0  0
  194.3200  172.4910  136.8030 C   0  0  0  0  0  0  0  0  0  0  0  0
  193.0330  176.8150  138.5310 F   0  0  0  0  0  0  0  0  0  0  0  0
  193.4750  173.5850  136.9680 C   0  0  0  0  0  0  0  0  0  0  0  0
  193.9430  171.3840  135.9920 N   0  0  0  0  0  1  0  0  0  0  0  0
  182.7830  178.9980  140.2890 C   0  0  0  0  0  2  0  0  0  0  0  0
  182.3780  177.7130  139.7440 N   0  0  0  0  0  2  0  0  0  0  0  0
  182.6800  177.7480  138.3230 C   0  0  0  0  0  2  0  0  0  0  0  0
  183.7790  176.7530  138.0000 C   0  0  0  0  0  2  0  0  0  0  0  0
  184.6490  177.2780  136.8740 C   0  0  0  0  0  1  0  0  0  0  0  0
  1  5  2  0  0  0  0
  1  4  1  0  0  0  0
  2  3  1  0  0  0  0
  2  8  1  0  0  0  0
  4  2  2  0  0  0  0
  5  6  1  0  0  0  0
  6  3  2  0  0  0  0
  7  9  2  0  0  0  0
  8  9  1  0  0  0  0
  9 10  1  0  0  0  0
 10 14  1  0  0  0  0
 11 10  2  0  0  0  0
 11 12  1  0  0  0  0
 12 13  2  0  0  0  0
 13 15  1  0  0  0  0
 13 16  1  0  0  0  0
 14 15  2  0  0  0  0
 17  4  1  0  0  0  0
 18 17  1  0  0  0  0
 19 18  1  0  0  0  0
 19 20  1  0  0  0  0
 21 22  1  6  0  0  0
 21 19  1  0  0  0  0
 23 21  1  0  0  0  0
 24 28  1  0  0  0  0
 24 23  1  0  0  0  0
 25 34  1  0  0  0  0
 25 28  1  0  0  0  0
 26 29  1  0  0  0  0
 27 33  1  0  0  0  0
 28 27  2  0  0  0  0
 30 27  1  0  0  0  0
 30 29  2  0  0  0  0
 31 26  2  0  0  0  0
 32 34  2  0  0  0  0
 32 31  1  0  0  0  0
 34 30  1  0  0  0  0
 35 32  1  0  0  0  0
 36  5  1  0  0  0  0
 37 36  1  0  0  0  0
 38 37  1  0  0  0  0
 39 38  1  0  0  0  0
 40 39  1  0  0  0  0
M  END
>  <MODEL>
8

>  <REMARK>
 VINA RESULT:      -7.4      3.018      7.383
  Name = 
  13 active torsions:
  status: ('A' for Active; 'I' for Inactive)
    1  A    between atoms: C_2  and  N_7
    2  A    between atoms: C_8  and  C_29
    3  A    between atoms: C_9  and  N_17
    4  A    between atoms: C_11  and  O_24
    5  A    between atoms: N_12  and  C_20
    6  A    between atoms: N_12  and  C_26
    7  A    between atoms: C_15  and  C_38
    8  A    between atoms: N_17  and  C_25
    9  A    between atoms: C_20  and  C_25
   10  A    between atoms: O_24  and  C_26
   11  A    between atoms: N_32  and  C_34
   12  A    between atoms: N_32  and  C_38
   13  A    between atoms: C_34  and  C_35
                            x       y       z     vdW  Elec       q    Type
                         _______ _______ _______ _____ _____    ______ ____

>  <TORSDO>
F 13

$$$$
=
 OpenBabel10232408403D

 40 43  0  0  1  0  0  0  0  0999 V2000
  187.9290  177.6010  138.3990 C   0  0  0  0  0  3  0  0  0  0  0  0
  189.8430  176.8930  137.0830 C   0  0  0  0  0  0  0  0  0  0  0  0
  188.9910  176.6850  135.9870 C   0  0  0  0  0  3  0  0  0  0  0  0
  189.3080  177.3550  138.2960 C   0  0  0  0  0  0  0  0  0  0  0  0
  187.0870  177.3830  137.3060 C   0  0  0  0  0  0  0  0  0  0  0  0
  187.6210  176.9300  136.0960 C   0  0  0  0  0  3  0  0  0  0  0  0
  191.3280  174.4560  137.8150 O   0  0  0  0  0  0  0  0  0  0  0  0
  191.2550  176.6510  136.9930 N   0  0  0  0  0  2  0  0  0  0  0  0
  191.9530  175.4500  137.3530 C   0  0  0  0  0  0  0  0  0  0  0  0
  193.4150  175.3790  137.1830 C   0  0  0  0  0  0  0  0  0  0  0  0
  194.0860  176.2880  136.3550 C   0  0  0  0  0  3  0  0  0  0  0  0
  195.4360  176.2130  136.2040 N   0  0  0  0  0  0  0  0  0  0  0  0
  196.1730  175.2660  136.8450 C   0  0  0  0  0  0  0  0  0  0  0  0
  194.1620  174.3990  137.8480 C   0  0  0  0  0  3  0  0  0  0  0  0
  195.5460  174.3390  137.6810 C   0  0  0  0  0  3  0  0  0  0  0  0
  197.5820  175.2200  136.6630 N   0  0  0  0  0  1  0  0  0  0  0  0
  190.1630  177.5640  139.3820 O   0  0  0  0  0  0  0  0  0  0  0  0
  190.2500  176.6640  140.4860 C   0  0  0  0  0  2  0  0  0  0  0  0
  191.5310  176.7960  141.1820 N   0  0  0  0  0  0  0  0  0  0  0  0
  192.4500  177.6210  140.3990 C   0  0  0  0  0  1  0  0  0  0  0  0
  191.3300  177.3070  142.5500 C   0  0  2  0  0  3  0  0  0  0  0  0
  191.3630  176.2240  143.6260 C   0  0  0  0  0  1  0  0  0  0  0  0
  190.0290  178.0890  142.6470 C   0  0  0  0  0  2  0  0  0  0  0  0
  188.9260  177.1820  142.9150 N   0  0  0  0  0  2  0  0  0  0  0  0
  187.3190  177.7290  145.1160 S   0  0  0  0  0  0  0  0  0  0  0  0
  183.3210  179.2580  144.0060 C   0  0  0  0  0  3  0  0  0  0  0  0
  186.6030  178.0610  142.7080 C   0  0  0  0  0  0  0  0  0  0  0  0
  187.6890  177.6350  143.4640 C   0  0  0  0  0  0  0  0  0  0  0  0
  184.2890  178.9190  143.0480 C   0  0  0  0  0  3  0  0  0  0  0  0
  185.5200  178.4470  143.5020 C   0  0  0  0  0  0  0  0  0  0  0  0
  183.5850  179.1240  145.3410 N   0  0  0  0  0  0  0  0  0  0  0  0
  184.7860  178.6630  145.7940 C   0  0  0  0  0  0  0  0  0  0  0  0
  186.5980  178.0980  141.3510 F   0  0  0  0  0  0  0  0  0  0  0  0
  185.7620  178.3210  144.8610 C   0  0  0  0  0  0  0  0  0  0  0  0
  185.0250  178.5360  147.1910 N   0  0  0  0  0  1  0  0  0  0  0  0
  185.6310  177.6680  137.4160 C   0  0  0  0  0  2  0  0  0  0  0  0
  185.3950  178.6040  138.5030 N   0  0  0  0  0  2  0  0  0  0  0  0
  184.0480  178.3510  138.9860 C   0  0  0  0  0  2  0  0  0  0  0  0
  183.3860  179.6560  139.3880 C   0  0  0  0  0  2  0  0  0  0  0  0
  181.8870  179.4670  139.5160 C   0  0  0  0  0  1  0  0  0  0  0  0
  2  4  2  0  0  0  0
  3  6  2  0  0  0  0
  3  2  1  0  0  0  0
  4  1  1  0  0  0  0
  4 17  1  0  0  0  0
  5 36  1  0  0  0  0
  5  1  2  0  0  0  0
  6  5  1  0  0  0  0
  8  2  1  0  0  0  0
  8  9  1  0  0  0  0
  9  7  2  0  0  0  0
 10  9  1  0  0  0  0
 10 14  1  0  0  0  0
 11 10  2  0  0  0  0
 12 11  1  0  0  0  0
 12 13  2  0  0  0  0
 13 15  1  0  0  0  0
 15 14  2  0  0  0  0
 16 13  1  0  0  0  0
 17 18  1  0  0  0  0
 18 19  1  0  0  0  0
 19 21  1  0  0  0  0
 20 19  1  0  0  0  0
 21 23  1  0  0  0  0
 21 22  1  1  0  0  0
 23 24  1  0  0  0  0
 24 28  1  0  0  0  0
 26 31  1  0  0  0  0
 27 28  2  0  0  0  0
 27 30  1  0  0  0  0
 28 25  1  0  0  0  0
 29 30  1  0  0  0  0
 29 26  2  0  0  0  0
 30 34  2  0  0  0  0
 31 32  2  0  0  0  0
 32 35  1  0  0  0  0
 33 27  1  0  0  0  0
 34 25  1  0  0  0  0
 34 32  1  0  0  0  0
 36 37  1  0  0  0  0
 37 38  1  0  0  0  0
 38 39  1  0  0  0  0
 39 40  1  0  0  0  0
M  END
>  <MODEL>
9

>  <REMARK>
 VINA RESULT:      -7.4      3.278      9.323
  Name = 
  13 active torsions:
  status: ('A' for Active; 'I' for Inactive)
    1  A    between atoms: C_2  and  N_7
    2  A    between atoms: C_8  and  C_29
    3  A    between atoms: C_9  and  N_17
    4  A    between atoms: C_11  and  O_24
    5  A    between atoms: N_12  and  C_20
    6  A    between atoms: N_12  and  C_26
    7  A    between atoms: C_15  and  C_38
    8  A    between atoms: N_17  and  C_25
    9  A    between atoms: C_20  and  C_25
   10  A    between atoms: O_24  and  C_26
   11  A    between atoms: N_32  and  C_34
   12  A    between atoms: N_32  and  C_38
   13  A    between atoms: C_34  and  C_35
                            x       y       z     vdW  Elec       q    Type
                         _______ _______ _______ _____ _____    ______ ____

>  <TORSDO>
F 13

$$$$
