=
 OpenBabel10232410203D

 29 32  0  0  1  0  0  0  0  0999 V2000
  188.2720  177.6510  145.1640 C   0  0  0  0  0  3  0  0  0  0  0  0
  186.9120  177.9180  145.3160 C   0  0  0  0  0  0  0  0  0  0  0  0
  184.6860  178.2610  146.0910 C   0  0  0  0  0  2  0  0  0  0  0  0
  187.9750  177.8420  142.7560 C   0  0  0  0  0  3  0  0  0  0  0  0
  184.7640  178.3500  144.6330 N   0  0  0  0  0  0  0  0  0  0  0  0
  186.6060  178.0990  142.9340 C   0  0  0  0  0  3  0  0  0  0  0  0
  186.1060  178.1330  144.2350 C   0  0  0  0  0  0  0  0  0  0  0  0
  186.5980  179.1350  147.4400 C   0  0  0  0  0  1  0  0  0  0  0  0
  188.8300  177.6340  143.8660 C   0  0  0  0  0  0  0  0  0  0  0  0
  186.1240  177.9770  146.5810 C   0  0  2  0  0  3  0  0  0  0  0  0
  183.6960  178.5210  142.4430 N   0  0  0  0  0  0  0  0  0  0  0  0
  182.4220  178.9610  144.2300 N   0  0  0  0  0  0  0  0  0  0  0  0
  182.4860  178.8240  142.0060 N   0  0  0  0  0  2  0  0  0  0  0  0
  183.6410  178.6090  143.7810 C   0  0  0  0  0  0  0  0  0  0  0  0
  181.7220  179.0890  143.0850 C   0  0  0  0  0  3  0  0  0  0  0  0
  190.3040  177.2940  143.6770 C   0  0  2  0  0  0  0  0  0  0  0  0
  192.0490  175.9100  147.4060 C   0  0  0  0  0  0  0  0  0  0  0  0
  192.6210  175.4730  148.5930 O   0  0  0  0  0  1  0  0  0  0  0  0
  191.7960  175.7190  145.0080 C   0  0  0  0  0  3  0  0  0  0  0  0
  190.8710  176.7790  145.0030 C   0  0  0  0  0  0  0  0  0  0  0  0
  192.3740  175.2820  146.2020 C   0  0  0  0  0  3  0  0  0  0  0  0
  190.5740  177.4170  146.2210 C   0  0  0  0  0  3  0  0  0  0  0  0
  191.1530  176.9800  147.4160 C   0  0  0  0  0  3  0  0  0  0  0  0
  190.7830  179.6660  144.0070 O   0  0  0  0  0  1  0  0  0  0  0  0
  191.0830  178.5500  143.2220 C   0  0  0  0  0  2  0  0  0  0  0  0
  190.3690  176.2390  142.5550 C   0  0  0  0  0  2  0  0  0  0  0  0
  191.0120  176.7500  141.3490 N   0  0  0  0  0  2  0  0  0  0  0  0
  190.4110  176.6790  140.0540 C   0  0  0  0  0  3  0  0  0  0  0  0
  189.7640  177.7100  139.5220 C   0  0  0  0  0  2  0  0  0  0  0  0
  1  2  1  0  0  0  0
  2 10  1  0  0  0  0
  3 10  1  0  0  0  0
  4  6  2  0  0  0  0
  4  9  1  0  0  0  0
  5  3  1  0  0  0  0
  6  7  1  0  0  0  0
  7  5  1  0  0  0  0
  7  2  2  0  0  0  0
  9  1  2  0  0  0  0
 10  8  1  1  0  0  0
 11 14  2  0  0  0  0
 13 11  1  0  0  0  0
 13 15  1  0  0  0  0
 14 12  1  0  0  0  0
 14  5  1  0  0  0  0
 15 12  2  0  0  0  0
 16 26  1  6  0  0  0
 16  9  1  0  0  0  0
 16 20  1  0  0  0  0
 17 23  1  0  0  0  0
 17 18  1  0  0  0  0
 19 21  1  0  0  0  0
 20 19  2  0  0  0  0
 20 22  1  0  0  0  0
 21 17  2  0  0  0  0
 22 23  2  0  0  0  0
 25 16  1  0  0  0  0
 25 24  1  0  0  0  0
 27 26  1  0  0  0  0
 28 27  1  0  0  0  0
 29 28  2  0  0  0  0
M  END
>  <MODEL>
1

>  <REMARK>
 VINA RESULT:      -8.7      0.000      0.000
  Name = 
  7 active torsions:
  status: ('A' for Active; 'I' for Inactive)
    1  A    between atoms: C_1  and  N_14
    2  A    between atoms: N_11  and  C_24
    3  A    between atoms: N_14  and  C_22
    4  A    between atoms: C_15  and  C_19
    5  A    between atoms: C_17  and  C_19
    6  A    between atoms: C_19  and  C_22
    7  A    between atoms: C_19  and  C_26
                            x       y       z     vdW  Elec       q    Type
                         _______ _______ _______ _____ _____    ______ ____

>  <TORSDO>
F 7

$$$$
=
 OpenBabel10232410203D

 29 32  0  0  1  0  0  0  0  0999 V2000
  190.2660  176.6680  140.4120 C   0  0  0  0  0  3  0  0  0  0  0  0
  190.7320  176.3740  139.1310 C   0  0  0  0  0  0  0  0  0  0  0  0
  191.0430  175.6540  136.8830 C   0  0  0  0  0  2  0  0  0  0  0  0
  192.5040  177.4360  140.9810 C   0  0  0  0  0  3  0  0  0  0  0  0
  192.2820  176.1880  137.4480 N   0  0  0  0  0  0  0  0  0  0  0  0
  192.9530  177.1220  139.6890 C   0  0  0  0  0  3  0  0  0  0  0  0
  192.0350  176.5920  138.7830 C   0  0  0  0  0  0  0  0  0  0  0  0
  188.8810  176.7190  137.5380 C   0  0  0  0  0  1  0  0  0  0  0  0
  191.1530  177.2330  141.3560 C   0  0  0  0  0  0  0  0  0  0  0  0
  189.9770  175.7740  137.9940 C   0  0  2  0  0  3  0  0  0  0  0  0
  194.6550  175.6830  137.1680 N   0  0  0  0  0  0  0  0  0  0  0  0
  193.6850  176.9190  135.5740 N   0  0  0  0  0  2  0  0  0  0  0  0
  195.5780  175.9660  136.2650 N   0  0  0  0  0  0  0  0  0  0  0  0
  193.5240  176.2640  136.7380 C   0  0  0  0  0  0  0  0  0  0  0  0
  194.9910  176.7100  135.3070 C   0  0  0  0  0  3  0  0  0  0  0  0
  190.6740  177.5160  142.7750 C   0  0  2  0  0  0  0  0  0  0  0  0
  186.3730  178.0970  142.5890 C   0  0  0  0  0  0  0  0  0  0  0  0
  184.9980  178.2730  142.5170 O   0  0  0  0  0  1  0  0  0  0  0  0
  188.5890  178.5210  141.7160 C   0  0  0  0  0  3  0  0  0  0  0  0
  189.1630  177.7590  142.7510 C   0  0  0  0  0  0  0  0  0  0  0  0
  187.2050  178.6950  141.6410 C   0  0  0  0  0  3  0  0  0  0  0  0
  188.3080  177.1420  143.6840 C   0  0  0  0  0  3  0  0  0  0  0  0
  186.9230  177.3170  143.6080 C   0  0  0  0  0  3  0  0  0  0  0  0
  190.5650  179.5270  144.1560 O   0  0  0  0  0  1  0  0  0  0  0  0
  191.4000  178.7570  143.3430 C   0  0  0  0  0  2  0  0  0  0  0  0
  191.0620  176.2860  143.6200 C   0  0  0  0  0  2  0  0  0  0  0  0
  191.8700  176.6440  144.7820 N   0  0  0  0  0  2  0  0  0  0  0  0
  191.4770  176.3540  146.1250 C   0  0  0  0  0  3  0  0  0  0  0  0
  190.4390  176.9520  146.6990 C   0  0  0  0  0  2  0  0  0  0  0  0
  1  9  1  0  0  0  0
  2  1  2  0  0  0  0
  3  5  1  0  0  0  0
  3 10  1  0  0  0  0
  4  9  2  0  0  0  0
  5  7  1  0  0  0  0
  6  4  1  0  0  0  0
  7  2  1  0  0  0  0
  7  6  2  0  0  0  0
  9 16  1  0  0  0  0
 10  8  1  6  0  0  0
 10  2  1  0  0  0  0
 12 14  1  0  0  0  0
 13 11  1  0  0  0  0
 14 11  2  0  0  0  0
 14  5  1  0  0  0  0
 15 12  1  0  0  0  0
 15 13  2  0  0  0  0
 16 25  1  1  0  0  0
 16 26  1  0  0  0  0
 17 23  1  0  0  0  0
 18 17  1  0  0  0  0
 19 20  2  0  0  0  0
 20 16  1  0  0  0  0
 20 22  1  0  0  0  0
 21 19  1  0  0  0  0
 21 17  2  0  0  0  0
 23 22  2  0  0  0  0
 25 24  1  0  0  0  0
 26 27  1  0  0  0  0
 27 28  1  0  0  0  0
 28 29  2  0  0  0  0
M  END
>  <MODEL>
2

>  <REMARK>
 VINA RESULT:      -7.6      4.041      8.438
  Name = 
  7 active torsions:
  status: ('A' for Active; 'I' for Inactive)
    1  A    between atoms: C_1  and  N_14
    2  A    between atoms: N_11  and  C_24
    3  A    between atoms: N_14  and  C_22
    4  A    between atoms: C_15  and  C_19
    5  A    between atoms: C_17  and  C_19
    6  A    between atoms: C_19  and  C_22
    7  A    between atoms: C_19  and  C_26
                            x       y       z     vdW  Elec       q    Type
                         _______ _______ _______ _____ _____    ______ ____

>  <TORSDO>
F 7

$$$$
=
 OpenBabel10232410203D

 29 32  0  0  1  0  0  0  0  0999 V2000
  189.5890  177.2170  141.4750 C   0  0  0  0  0  3  0  0  0  0  0  0
  189.8560  177.0180  140.1210 C   0  0  0  0  0  0  0  0  0  0  0  0
  189.7800  176.6190  137.7750 C   0  0  0  0  0  2  0  0  0  0  0  0
  191.9880  177.2230  141.8820 C   0  0  0  0  0  3  0  0  0  0  0  0
  191.1580  176.6830  138.2610 N   0  0  0  0  0  0  0  0  0  0  0  0
  192.2320  177.0110  140.5160 C   0  0  0  0  0  3  0  0  0  0  0  0
  191.1360  176.9160  139.6580 C   0  0  0  0  0  0  0  0  0  0  0  0
  188.0800  178.1240  138.8140 C   0  0  0  0  0  1  0  0  0  0  0  0
  190.6680  177.3480  142.3790 C   0  0  0  0  0  0  0  0  0  0  0  0
  188.8780  176.8490  139.0080 C   0  0  2  0  0  3  0  0  0  0  0  0
  193.5470  176.8980  137.8030 N   0  0  0  0  0  0  0  0  0  0  0  0
  192.2840  175.9820  136.1980 N   0  0  0  0  0  2  0  0  0  0  0  0
  194.3430  176.5960  136.7910 N   0  0  0  0  0  0  0  0  0  0  0  0
  192.3140  176.5230  137.4300 C   0  0  0  0  0  0  0  0  0  0  0  0
  193.5790  176.0450  135.8270 C   0  0  0  0  0  3  0  0  0  0  0  0
  190.3950  177.5170  143.8690 C   0  0  2  0  0  0  0  0  0  0  0  0
  186.1340  178.0470  144.5260 C   0  0  0  0  0  0  0  0  0  0  0  0
  184.7750  178.2310  144.7420 O   0  0  0  0  0  1  0  0  0  0  0  0
  188.3650  177.6990  145.3940 C   0  0  0  0  0  3  0  0  0  0  0  0
  188.8850  177.6490  144.0870 C   0  0  0  0  0  0  0  0  0  0  0  0
  186.9980  177.8890  145.6100 C   0  0  0  0  0  3  0  0  0  0  0  0
  188.0040  177.8360  143.0060 C   0  0  0  0  0  3  0  0  0  0  0  0
  186.6370  178.0260  143.2240 C   0  0  0  0  0  3  0  0  0  0  0  0
  190.7490  179.9270  143.7000 O   0  0  0  0  0  1  0  0  0  0  0  0
  191.1180  178.7760  144.4010 C   0  0  0  0  0  2  0  0  0  0  0  0
  190.9880  176.2760  144.5650 C   0  0  0  0  0  2  0  0  0  0  0  0
  191.8180  176.6270  145.7130 N   0  0  0  0  0  2  0  0  0  0  0  0
  191.5330  176.1900  147.0440 C   0  0  0  0  0  3  0  0  0  0  0  0
  192.4920  175.7990  147.8760 C   0  0  0  0  0  2  0  0  0  0  0  0
  1  9  1  0  0  0  0
  2  1  2  0  0  0  0
  3  5  1  0  0  0  0
  3 10  1  0  0  0  0
  4  9  2  0  0  0  0
  5  7  1  0  0  0  0
  6  4  1  0  0  0  0
  7  2  1  0  0  0  0
  7  6  2  0  0  0  0
  9 16  1  0  0  0  0
 10  8  1  6  0  0  0
 10  2  1  0  0  0  0
 12 14  1  0  0  0  0
 13 11  1  0  0  0  0
 14 11  2  0  0  0  0
 14  5  1  0  0  0  0
 15 12  1  0  0  0  0
 15 13  2  0  0  0  0
 16 20  1  0  0  0  0
 16 25  1  1  0  0  0
 16 26  1  0  0  0  0
 17 18  1  0  0  0  0
 17 21  1  0  0  0  0
 19 21  2  0  0  0  0
 20 19  1  0  0  0  0
 22 23  1  0  0  0  0
 22 20  2  0  0  0  0
 23 17  2  0  0  0  0
 24 25  1  0  0  0  0
 26 27  1  0  0  0  0
 27 28  1  0  0  0  0
 28 29  2  0  0  0  0
M  END
>  <MODEL>
3

>  <REMARK>
 VINA RESULT:      -7.4      3.856      7.604
  Name = 
  7 active torsions:
  status: ('A' for Active; 'I' for Inactive)
    1  A    between atoms: C_1  and  N_14
    2  A    between atoms: N_11  and  C_24
    3  A    between atoms: N_14  and  C_22
    4  A    between atoms: C_15  and  C_19
    5  A    between atoms: C_17  and  C_19
    6  A    between atoms: C_19  and  C_22
    7  A    between atoms: C_19  and  C_26
                            x       y       z     vdW  Elec       q    Type
                         _______ _______ _______ _____ _____    ______ ____

>  <TORSDO>
F 7

$$$$
=
 OpenBabel10232410203D

 29 32  0  0  1  0  0  0  0  0999 V2000
  189.3320  177.1180  141.1640 C   0  0  0  0  0  3  0  0  0  0  0  0
  189.0820  177.1270  142.5360 C   0  0  0  0  0  0  0  0  0  0  0  0
  189.0770  176.8100  144.8960 C   0  0  0  0  0  2  0  0  0  0  0  0
  187.2790  178.3880  140.8480 C   0  0  0  0  0  3  0  0  0  0  0  0
  187.9160  177.5840  144.4590 N   0  0  0  0  0  0  0  0  0  0  0  0
  187.0440  178.3730  142.2310 C   0  0  0  0  0  3  0  0  0  0  0  0
  187.9730  177.7330  143.0510 C   0  0  0  0  0  0  0  0  0  0  0  0
  191.2500  177.1540  143.7130 C   0  0  0  0  0  1  0  0  0  0  0  0
  188.4330  177.7790  140.2950 C   0  0  0  0  0  0  0  0  0  0  0  0
  189.8870  176.4930  143.6190 C   0  0  2  0  0  3  0  0  0  0  0  0
  185.7350  178.5880  144.9110 N   0  0  0  0  0  0  0  0  0  0  0  0
  187.0160  178.1000  146.6820 N   0  0  0  0  0  0  0  0  0  0  0  0
  185.0690  178.9420  145.9970 N   0  0  0  0  0  2  0  0  0  0  0  0
  186.9030  178.0840  145.3400 C   0  0  0  0  0  0  0  0  0  0  0  0
  185.8420  178.6470  147.0600 C   0  0  0  0  0  3  0  0  0  0  0  0
  188.6630  177.7380  138.7890 C   0  0  2  0  0  0  0  0  0  0  0  0
  191.9330  175.0630  137.7800 C   0  0  0  0  0  0  0  0  0  0  0  0
  192.9760  174.2120  137.4410 O   0  0  0  0  0  1  0  0  0  0  0  0
  189.5700  175.5840  137.7820 C   0  0  0  0  0  3  0  0  0  0  0  0
  189.8150  176.7770  138.4870 C   0  0  0  0  0  0  0  0  0  0  0  0
  190.6210  174.7300  137.4390 C   0  0  0  0  0  3  0  0  0  0  0  0
  191.1460  177.1110  138.8000 C   0  0  0  0  0  3  0  0  0  0  0  0
  192.1970  176.2560  138.4550 C   0  0  0  0  0  3  0  0  0  0  0  0
  189.2550  179.1580  136.8920 O   0  0  0  0  0  1  0  0  0  0  0  0
  189.0030  179.1530  138.2670 C   0  0  0  0  0  2  0  0  0  0  0  0
  187.3320  177.2850  138.1570 C   0  0  0  0  0  2  0  0  0  0  0  0
  186.4170  178.3990  137.9300 N   0  0  0  0  0  2  0  0  0  0  0  0
  185.0010  178.2910  138.0900 C   0  0  0  0  0  3  0  0  0  0  0  0
  184.3240  179.0890  138.9080 C   0  0  0  0  0  2  0  0  0  0  0  0
  1  2  1  0  0  0  0
  2  7  2  0  0  0  0
  2 10  1  0  0  0  0
  4  6  2  0  0  0  0
  5  3  1  0  0  0  0
  5 14  1  0  0  0  0
  6  7  1  0  0  0  0
  7  5  1  0  0  0  0
  9  4  1  0  0  0  0
  9  1  2  0  0  0  0
 10  8  1  1  0  0  0
 10  3  1  0  0  0  0
 11 14  2  0  0  0  0
 11 13  1  0  0  0  0
 12 15  2  0  0  0  0
 13 15  1  0  0  0  0
 14 12  1  0  0  0  0
 16 26  1  6  0  0  0
 16  9  1  0  0  0  0
 17 23  1  0  0  0  0
 18 17  1  0  0  0  0
 19 20  2  0  0  0  0
 20 16  1  0  0  0  0
 20 22  1  0  0  0  0
 21 17  2  0  0  0  0
 21 19  1  0  0  0  0
 23 22  2  0  0  0  0
 24 25  1  0  0  0  0
 25 16  1  0  0  0  0
 27 28  1  0  0  0  0
 27 26  1  0  0  0  0
 28 29  2  0  0  0  0
M  END
>  <MODEL>
4

>  <REMARK>
 VINA RESULT:      -7.4      3.441      5.984
  Name = 
  7 active torsions:
  status: ('A' for Active; 'I' for Inactive)
    1  A    between atoms: C_1  and  N_14
    2  A    between atoms: N_11  and  C_24
    3  A    between atoms: N_14  and  C_22
    4  A    between atoms: C_15  and  C_19
    5  A    between atoms: C_17  and  C_19
    6  A    between atoms: C_19  and  C_22
    7  A    between atoms: C_19  and  C_26
                            x       y       z     vdW  Elec       q    Type
                         _______ _______ _______ _____ _____    ______ ____

>  <TORSDO>
F 7

$$$$
=
 OpenBabel10232410203D

 29 32  0  0  1  0  0  0  0  0999 V2000
  190.9390  177.0460  141.4130 C   0  0  0  0  0  3  0  0  0  0  0  0
  190.6240  177.1390  140.0580 C   0  0  0  0  0  0  0  0  0  0  0  0
  190.6120  177.2160  137.6780 C   0  0  0  0  0  2  0  0  0  0  0  0
  188.6470  177.6860  141.9240 C   0  0  0  0  0  3  0  0  0  0  0  0
  189.3010  177.5550  138.2300 N   0  0  0  0  0  0  0  0  0  0  0  0
  188.3570  177.7830  140.5540 C   0  0  0  0  0  3  0  0  0  0  0  0
  189.3740  177.4970  139.6430 C   0  0  0  0  0  0  0  0  0  0  0  0
  191.9760  175.4750  138.8370 C   0  0  0  0  0  1  0  0  0  0  0  0
  189.9330  177.2990  142.3740 C   0  0  0  0  0  0  0  0  0  0  0  0
  191.5250  176.9220  138.8900 C   0  0  2  0  0  3  0  0  0  0  0  0
  187.8300  179.1560  137.1150 N   0  0  0  0  0  0  0  0  0  0  0  0
  187.2970  176.9890  136.9330 N   0  0  0  0  0  0  0  0  0  0  0  0
  186.7310  179.0740  136.3850 N   0  0  0  0  0  2  0  0  0  0  0  0
  188.1570  177.8940  137.4370 C   0  0  0  0  0  0  0  0  0  0  0  0
  186.4130  177.7690  136.2780 C   0  0  0  0  0  3  0  0  0  0  0  0
  190.2710  177.2510  143.8590 C   0  0  2  0  0  0  0  0  0  0  0  0
  186.6450  177.9380  146.1490 C   0  0  0  0  0  0  0  0  0  0  0  0
  185.4900  178.1730  146.8820 O   0  0  0  0  0  1  0  0  0  0  0  0
  189.0560  177.7790  146.0330 C   0  0  0  0  0  3  0  0  0  0  0  0
  188.9850  177.4370  144.6690 C   0  0  0  0  0  0  0  0  0  0  0  0
  187.8930  178.0190  146.7680 C   0  0  0  0  0  3  0  0  0  0  0  0
  187.7210  177.3850  144.0540 C   0  0  0  0  0  3  0  0  0  0  0  0
  186.5580  177.6260  144.7910 C   0  0  0  0  0  3  0  0  0  0  0  0
  190.8510  179.6220  143.7690 O   0  0  0  0  0  1  0  0  0  0  0  0
  191.2820  178.3670  144.2090 C   0  0  0  0  0  2  0  0  0  0  0  0
  190.9380  175.8840  144.1110 C   0  0  0  0  0  2  0  0  0  0  0  0
  192.0270  175.9680  145.0790 N   0  0  0  0  0  2  0  0  0  0  0  0
  191.9810  175.3400  146.3620 C   0  0  0  0  0  3  0  0  0  0  0  0
  191.9740  176.0440  147.4890 C   0  0  0  0  0  2  0  0  0  0  0  0
  1  9  1  0  0  0  0
  2  1  2  0  0  0  0
  3  5  1  0  0  0  0
  3 10  1  0  0  0  0
  4  9  2  0  0  0  0
  5  7  1  0  0  0  0
  6  4  1  0  0  0  0
  7  2  1  0  0  0  0
  7  6  2  0  0  0  0
  9 16  1  0  0  0  0
 10  8  1  6  0  0  0
 10  2  1  0  0  0  0
 11 14  2  0  0  0  0
 12 14  1  0  0  0  0
 13 11  1  0  0  0  0
 14  5  1  0  0  0  0
 15 13  1  0  0  0  0
 15 12  2  0  0  0  0
 16 26  1  1  0  0  0
 16 25  1  0  0  0  0
 16 20  1  0  0  0  0
 17 21  1  0  0  0  0
 17 18  1  0  0  0  0
 19 21  2  0  0  0  0
 20 19  1  0  0  0  0
 22 20  2  0  0  0  0
 22 23  1  0  0  0  0
 23 17  2  0  0  0  0
 24 25  1  0  0  0  0
 26 27  1  0  0  0  0
 27 28  1  0  0  0  0
 28 29  2  0  0  0  0
M  END
>  <MODEL>
5

>  <REMARK>
 VINA RESULT:      -7.3      3.497      6.183
  Name = 
  7 active torsions:
  status: ('A' for Active; 'I' for Inactive)
    1  A    between atoms: C_1  and  N_14
    2  A    between atoms: N_11  and  C_24
    3  A    between atoms: N_14  and  C_22
    4  A    between atoms: C_15  and  C_19
    5  A    between atoms: C_17  and  C_19
    6  A    between atoms: C_19  and  C_22
    7  A    between atoms: C_19  and  C_26
                            x       y       z     vdW  Elec       q    Type
                         _______ _______ _______ _____ _____    ______ ____

>  <TORSDO>
F 7

$$$$
=
 OpenBabel10232410203D

 29 32  0  0  1  0  0  0  0  0999 V2000
  187.4900  177.8430  144.5940 C   0  0  0  0  0  3  0  0  0  0  0  0
  186.1820  178.1640  144.9550 C   0  0  0  0  0  0  0  0  0  0  0  0
  184.1240  178.6110  146.0660 C   0  0  0  0  0  2  0  0  0  0  0  0
  186.8090  177.9670  142.2610 C   0  0  0  0  0  3  0  0  0  0  0  0
  183.9650  178.6500  144.6130 N   0  0  0  0  0  0  0  0  0  0  0  0
  185.4970  178.2770  142.6480 C   0  0  0  0  0  3  0  0  0  0  0  0
  185.2170  178.3720  144.0110 C   0  0  0  0  0  0  0  0  0  0  0  0
  186.2560  179.4600  147.0530 C   0  0  0  0  0  1  0  0  0  0  0  0
  187.8280  177.7640  143.2240 C   0  0  0  0  0  0  0  0  0  0  0  0
  185.6130  178.2930  146.3270 C   0  0  2  0  0  3  0  0  0  0  0  0
  182.5820  179.8830  143.0210 N   0  0  0  0  0  0  0  0  0  0  0  0
  181.5870  178.2400  144.1710 N   0  0  0  0  0  0  0  0  0  0  0  0
  181.3190  179.8320  142.6340 N   0  0  0  0  0  2  0  0  0  0  0  0
  182.7260  178.9200  143.9450 C   0  0  0  0  0  0  0  0  0  0  0  0
  180.7230  178.8430  143.3290 C   0  0  0  0  0  3  0  0  0  0  0  0
  189.2410  177.3660  142.8110 C   0  0  2  0  0  0  0  0  0  0  0  0
  189.5780  177.8220  138.5050 C   0  0  0  0  0  0  0  0  0  0  0  0
  189.6780  177.9540  137.1270 O   0  0  0  0  0  1  0  0  0  0  0  0
  190.2060  176.6980  140.5530 C   0  0  0  0  0  3  0  0  0  0  0  0
  189.3950  177.5710  141.3020 C   0  0  0  0  0  0  0  0  0  0  0  0
  190.3020  176.8290  139.1650 C   0  0  0  0  0  3  0  0  0  0  0  0
  188.6510  178.5500  140.6170 C   0  0  0  0  0  3  0  0  0  0  0  0
  188.7480  178.6800  139.2290 C   0  0  0  0  0  3  0  0  0  0  0  0
  188.3580  175.0980  143.0140 O   0  0  0  0  0  1  0  0  0  0  0  0
  189.5010  175.8860  143.1740 C   0  0  0  0  0  2  0  0  0  0  0  0
  190.2000  178.2520  143.6300 C   0  0  0  0  0  2  0  0  0  0  0  0
  191.4080  177.5380  144.0310 N   0  0  0  0  0  0  0  0  0  0  0  0
  191.5730  176.9460  145.3220 C   0  0  0  0  0  3  0  0  0  0  0  0
  190.6700  177.0950  146.2840 C   0  0  0  0  0  1  0  0  0  0  0  0
  1  2  1  0  0  0  0
  2 10  1  0  0  0  0
  3 10  1  0  0  0  0
  4  6  2  0  0  0  0
  4  9  1  0  0  0  0
  5  3  1  0  0  0  0
  6  7  1  0  0  0  0
  7  5  1  0  0  0  0
  7  2  2  0  0  0  0
  9  1  2  0  0  0  0
 10  8  1  6  0  0  0
 11 14  2  0  0  0  0
 13 11  1  0  0  0  0
 13 15  1  0  0  0  0
 14 12  1  0  0  0  0
 14  5  1  0  0  0  0
 15 12  2  0  0  0  0
 16 25  1  1  0  0  0
 16  9  1  0  0  0  0
 16 26  1  0  0  0  0
 17 21  2  0  0  0  0
 17 23  1  0  0  0  0
 18 17  1  0  0  0  0
 19 20  2  0  0  0  0
 20 16  1  0  0  0  0
 21 19  1  0  0  0  0
 22 20  1  0  0  0  0
 23 22  2  0  0  0  0
 24 25  1  0  0  0  0
 26 27  1  0  0  0  0
 27 28  2  0  0  0  0
 28 29  1  0  0  0  0
M  END
>  <MODEL>
6

>  <REMARK>
 VINA RESULT:      -7.2      2.014      4.512
  Name = 
  7 active torsions:
  status: ('A' for Active; 'I' for Inactive)
    1  A    between atoms: C_1  and  N_14
    2  A    between atoms: N_11  and  C_24
    3  A    between atoms: N_14  and  C_22
    4  A    between atoms: C_15  and  C_19
    5  A    between atoms: C_17  and  C_19
    6  A    between atoms: C_19  and  C_22
    7  A    between atoms: C_19  and  C_26
                            x       y       z     vdW  Elec       q    Type
                         _______ _______ _______ _____ _____    ______ ____

>  <TORSDO>
F 7

$$$$
=
 OpenBabel10232410203D

 29 32  0  0  1  0  0  0  0  0999 V2000
  188.0510  177.9070  141.2710 C   0  0  0  0  0  3  0  0  0  0  0  0
  188.1520  177.8600  142.6610 C   0  0  0  0  0  0  0  0  0  0  0  0
  187.8710  178.0630  145.0170 C   0  0  0  0  0  2  0  0  0  0  0  0
  190.2510  176.8740  141.1400 C   0  0  0  0  0  3  0  0  0  0  0  0
  189.1490  177.4350  144.6840 N   0  0  0  0  0  0  0  0  0  0  0  0
  190.3340  176.8480  142.5410 C   0  0  0  0  0  3  0  0  0  0  0  0
  189.2590  177.3480  143.2750 C   0  0  0  0  0  0  0  0  0  0  0  0
  185.8870  177.5510  143.5890 C   0  0  0  0  0  1  0  0  0  0  0  0
  189.1040  177.3850  140.4850 C   0  0  0  0  0  0  0  0  0  0  0  0
  187.1720  178.3530  143.6700 C   0  0  2  0  0  3  0  0  0  0  0  0
  191.4230  176.8970  145.3960 N   0  0  0  0  0  0  0  0  0  0  0  0
  189.7990  176.6590  146.9190 N   0  0  0  0  0  0  0  0  0  0  0  0
  191.9840  176.4750  146.5160 N   0  0  0  0  0  2  0  0  0  0  0  0
  190.1100  177.0020  145.6550 C   0  0  0  0  0  0  0  0  0  0  0  0
  191.0040  176.3320  147.4300 C   0  0  0  0  0  3  0  0  0  0  0  0
  189.0330  177.4730  138.9650 C   0  0  2  0  0  0  0  0  0  0  0  0
  191.8550  174.7440  137.1070 C   0  0  0  0  0  0  0  0  0  0  0  0
  192.7510  173.8750  136.4990 O   0  0  0  0  0  1  0  0  0  0  0  0
  189.5880  175.3240  137.7180 C   0  0  0  0  0  3  0  0  0  0  0  0
  190.0410  176.4910  138.3620 C   0  0  0  0  0  0  0  0  0  0  0  0
  190.4900  174.4530  137.1030 C   0  0  0  0  0  3  0  0  0  0  0  0
  191.4170  176.7820  138.3340 C   0  0  0  0  0  3  0  0  0  0  0  0
  192.3190  175.9100  137.7170 C   0  0  0  0  0  3  0  0  0  0  0  0
  189.1980  179.0680  137.1220 O   0  0  0  0  0  1  0  0  0  0  0  0
  189.3550  178.9130  138.5020 C   0  0  0  0  0  2  0  0  0  0  0  0
  187.5780  177.1430  138.5760 C   0  0  0  0  0  2  0  0  0  0  0  0
  186.7520  178.3400  138.4500 N   0  0  0  0  0  2  0  0  0  0  0  0
  185.3310  178.3260  138.5980 C   0  0  0  0  0  3  0  0  0  0  0  0
  184.7310  178.8290  139.6710 C   0  0  0  0  0  2  0  0  0  0  0  0
  1  2  1  0  0  0  0
  2  7  2  0  0  0  0
  2 10  1  0  0  0  0
  4  6  2  0  0  0  0
  5  3  1  0  0  0  0
  5 14  1  0  0  0  0
  6  7  1  0  0  0  0
  7  5  1  0  0  0  0
  9  4  1  0  0  0  0
  9  1  2  0  0  0  0
 10  8  1  1  0  0  0
 10  3  1  0  0  0  0
 11 14  2  0  0  0  0
 11 13  1  0  0  0  0
 12 15  2  0  0  0  0
 13 15  1  0  0  0  0
 14 12  1  0  0  0  0
 16 25  1  6  0  0  0
 16  9  1  0  0  0  0
 17 23  1  0  0  0  0
 18 17  1  0  0  0  0
 19 20  2  0  0  0  0
 20 16  1  0  0  0  0
 21 17  2  0  0  0  0
 21 19  1  0  0  0  0
 22 20  1  0  0  0  0
 23 22  2  0  0  0  0
 24 25  1  0  0  0  0
 26 16  1  0  0  0  0
 27 26  1  0  0  0  0
 27 28  1  0  0  0  0
 28 29  2  0  0  0  0
M  END
>  <MODEL>
7

>  <REMARK>
 VINA RESULT:      -7.0      3.766      6.852
  Name = 
  7 active torsions:
  status: ('A' for Active; 'I' for Inactive)
    1  A    between atoms: C_1  and  N_14
    2  A    between atoms: N_11  and  C_24
    3  A    between atoms: N_14  and  C_22
    4  A    between atoms: C_15  and  C_19
    5  A    between atoms: C_17  and  C_19
    6  A    between atoms: C_19  and  C_22
    7  A    between atoms: C_19  and  C_26
                            x       y       z     vdW  Elec       q    Type
                         _______ _______ _______ _____ _____    ______ ____

>  <TORSDO>
F 7

$$$$
=
 OpenBabel10232410203D

 29 32  0  0  1  0  0  0  0  0999 V2000
  189.6870  176.8810  140.4690 C   0  0  0  0  0  3  0  0  0  0  0  0
  189.4210  176.9070  141.8380 C   0  0  0  0  0  0  0  0  0  0  0  0
  189.3910  176.6260  144.2020 C   0  0  0  0  0  2  0  0  0  0  0  0
  187.6240  178.1220  140.1100 C   0  0  0  0  0  3  0  0  0  0  0  0
  188.2270  177.3800  143.7400 N   0  0  0  0  0  0  0  0  0  0  0  0
  187.3720  178.1260  141.4910 C   0  0  0  0  0  3  0  0  0  0  0  0
  188.2980  177.5090  142.3310 C   0  0  0  0  0  0  0  0  0  0  0  0
  191.5740  176.9770  143.0410 C   0  0  0  0  0  1  0  0  0  0  0  0
  188.7910  177.5180  139.5800 C   0  0  0  0  0  0  0  0  0  0  0  0
  190.2200  176.3000  142.9400 C   0  0  2  0  0  3  0  0  0  0  0  0
  185.9630  178.1900  144.1740 N   0  0  0  0  0  0  0  0  0  0  0  0
  187.3600  178.0930  145.9210 N   0  0  0  0  0  0  0  0  0  0  0  0
  185.3030  178.6140  145.2380 N   0  0  0  0  0  2  0  0  0  0  0  0
  187.1980  177.8820  144.6020 C   0  0  0  0  0  0  0  0  0  0  0  0
  186.1460  178.5540  146.2880 C   0  0  0  0  0  3  0  0  0  0  0  0
  189.0400  177.4580  138.0780 C   0  0  2  0  0  0  0  0  0  0  0  0
  192.3260  174.6860  137.4550 C   0  0  0  0  0  0  0  0  0  0  0  0
  193.3800  173.8010  137.2730 O   0  0  0  0  0  1  0  0  0  0  0  0
  191.5230  176.9070  137.9800 C   0  0  0  0  0  3  0  0  0  0  0  0
  190.1910  176.4870  137.8020 C   0  0  0  0  0  0  0  0  0  0  0  0
  192.5820  176.0150  137.7990 C   0  0  0  0  0  3  0  0  0  0  0  0
  189.9500  175.1390  137.4810 C   0  0  0  0  0  3  0  0  0  0  0  0
  191.0100  174.2460  137.3010 C   0  0  0  0  0  3  0  0  0  0  0  0
  188.2530  179.6150  137.2470 O   0  0  0  0  0  1  0  0  0  0  0  0
  189.3940  178.8640  137.5420 C   0  0  0  0  0  2  0  0  0  0  0  0
  187.7150  177.0020  137.4340 C   0  0  0  0  0  2  0  0  0  0  0  0
  187.7590  177.0570  135.9770 N   0  0  0  0  0  2  0  0  0  0  0  0
  186.9830  176.1960  135.1400 C   0  0  0  0  0  3  0  0  0  0  0  0
  187.2550  174.9020  135.0170 C   0  0  0  0  0  2  0  0  0  0  0  0
  1  2  1  0  0  0  0
  2  7  2  0  0  0  0
  2 10  1  0  0  0  0
  4  6  2  0  0  0  0
  5  3  1  0  0  0  0
  5 14  1  0  0  0  0
  6  7  1  0  0  0  0
  7  5  1  0  0  0  0
  9  4  1  0  0  0  0
  9  1  2  0  0  0  0
 10  8  1  1  0  0  0
 10  3  1  0  0  0  0
 11 14  2  0  0  0  0
 11 13  1  0  0  0  0
 12 15  2  0  0  0  0
 13 15  1  0  0  0  0
 14 12  1  0  0  0  0
 16 26  1  6  0  0  0
 16  9  1  0  0  0  0
 17 21  1  0  0  0  0
 18 17  1  0  0  0  0
 20 19  1  0  0  0  0
 20 16  1  0  0  0  0
 21 19  2  0  0  0  0
 22 20  2  0  0  0  0
 23 17  2  0  0  0  0
 23 22  1  0  0  0  0
 24 25  1  0  0  0  0
 25 16  1  0  0  0  0
 27 26  1  0  0  0  0
 28 27  1  0  0  0  0
 29 28  2  0  0  0  0
M  END
>  <MODEL>
8

>  <REMARK>
 VINA RESULT:      -6.8      3.510      6.341
  Name = 
  7 active torsions:
  status: ('A' for Active; 'I' for Inactive)
    1  A    between atoms: C_1  and  N_14
    2  A    between atoms: N_11  and  C_24
    3  A    between atoms: N_14  and  C_22
    4  A    between atoms: C_15  and  C_19
    5  A    between atoms: C_17  and  C_19
    6  A    between atoms: C_19  and  C_22
    7  A    between atoms: C_19  and  C_26
                            x       y       z     vdW  Elec       q    Type
                         _______ _______ _______ _____ _____    ______ ____

>  <TORSDO>
F 7

$$$$
=
 OpenBabel10232410203D

 29 32  0  0  1  0  0  0  0  0999 V2000
  191.9010  177.3660  141.9980 C   0  0  0  0  0  3  0  0  0  0  0  0
  191.9480  177.1290  140.6250 C   0  0  0  0  0  0  0  0  0  0  0  0
  192.5220  176.9240  138.3230 C   0  0  0  0  0  2  0  0  0  0  0  0
  189.5440  176.7610  141.9580 C   0  0  0  0  0  3  0  0  0  0  0  0
  191.1190  176.5840  138.5550 N   0  0  0  0  0  0  0  0  0  0  0  0
  189.6130  176.5390  140.5740 C   0  0  0  0  0  3  0  0  0  0  0  0
  190.8380  176.7300  139.9360 C   0  0  0  0  0  0  0  0  0  0  0  0
  194.2020  176.2970  140.0620 C   0  0  0  0  0  1  0  0  0  0  0  0
  190.6880  177.1590  142.6930 C   0  0  0  0  0  0  0  0  0  0  0  0
  193.1100  177.2890  139.7050 C   0  0  2  0  0  3  0  0  0  0  0  0
  190.0210  174.9030  137.1640 N   0  0  0  0  0  0  0  0  0  0  0  0
  189.4450  177.0380  136.8210 N   0  0  0  0  0  0  0  0  0  0  0  0
  189.1170  174.9230  136.2000 N   0  0  0  0  0  2  0  0  0  0  0  0
  190.2070  176.1820  137.5260 C   0  0  0  0  0  0  0  0  0  0  0  0
  188.7730  176.2100  135.9960 C   0  0  0  0  0  3  0  0  0  0  0  0
  190.6050  177.4610  144.1850 C   0  0  2  0  0  0  0  0  0  0  0  0
  186.4530  177.9780  145.3520 C   0  0  0  0  0  0  0  0  0  0  0  0
  185.1300  178.1590  145.7290 O   0  0  0  0  0  1  0  0  0  0  0  0
  188.7810  177.6940  145.9450 C   0  0  0  0  0  3  0  0  0  0  0  0
  189.1330  177.5880  144.5860 C   0  0  0  0  0  0  0  0  0  0  0  0
  187.4490  177.8790  146.3240 C   0  0  0  0  0  3  0  0  0  0  0  0
  188.1200  177.7160  143.6180 C   0  0  0  0  0  3  0  0  0  0  0  0
  186.7880  177.9020  143.9990 C   0  0  0  0  0  3  0  0  0  0  0  0
  190.8570  179.8530  143.7660 O   0  0  0  0  0  1  0  0  0  0  0  0
  191.3550  178.7750  144.5010 C   0  0  0  0  0  2  0  0  0  0  0  0
  191.3180  176.2990  144.9050 C   0  0  0  0  0  2  0  0  0  0  0  0
  191.9820  176.7310  146.1310 N   0  0  0  0  0  2  0  0  0  0  0  0
  191.7410  176.1270  147.4040 C   0  0  0  0  0  3  0  0  0  0  0  0
  192.7320  175.7880  148.2210 C   0  0  0  0  0  2  0  0  0  0  0  0
  1  9  1  0  0  0  0
  2  1  2  0  0  0  0
  3  5  1  0  0  0  0
  3 10  1  0  0  0  0
  4  9  2  0  0  0  0
  5  7  1  0  0  0  0
  6  4  1  0  0  0  0
  7  6  2  0  0  0  0
  7  2  1  0  0  0  0
  9 16  1  0  0  0  0
 10  8  1  1  0  0  0
 10  2  1  0  0  0  0
 11 14  2  0  0  0  0
 12 14  1  0  0  0  0
 13 11  1  0  0  0  0
 14  5  1  0  0  0  0
 15 13  1  0  0  0  0
 15 12  2  0  0  0  0
 16 25  1  1  0  0  0
 16 20  1  0  0  0  0
 16 26  1  0  0  0  0
 17 18  1  0  0  0  0
 17 21  1  0  0  0  0
 19 21  2  0  0  0  0
 20 19  1  0  0  0  0
 22 23  1  0  0  0  0
 22 20  2  0  0  0  0
 23 17  2  0  0  0  0
 24 25  1  0  0  0  0
 26 27  1  0  0  0  0
 27 28  1  0  0  0  0
 28 29  2  0  0  0  0
M  END
>  <MODEL>
9

>  <REMARK>
 VINA RESULT:      -6.8      3.811      6.999
  Name = 
  7 active torsions:
  status: ('A' for Active; 'I' for Inactive)
    1  A    between atoms: C_1  and  N_14
    2  A    between atoms: N_11  and  C_24
    3  A    between atoms: N_14  and  C_22
    4  A    between atoms: C_15  and  C_19
    5  A    between atoms: C_17  and  C_19
    6  A    between atoms: C_19  and  C_22
    7  A    between atoms: C_19  and  C_26
                            x       y       z     vdW  Elec       q    Type
                         _______ _______ _______ _____ _____    ______ ____

>  <TORSDO>
F 7

$$$$
