=
 OpenBabel10232409113D

 59 65  0  0  1  0  0  0  0  0999 V2000
  190.3170  176.8690  138.2250 C   0  0  0  0  0  0  0  0  0  0  0  0
  192.4860  175.6440  137.8310 C   0  0  0  0  0  0  0  0  0  0  0  0
  189.7450  176.3240  136.9550 C   0  0  0  0  0  2  0  0  0  0  0  0
  190.6610  174.0540  137.1450 C   0  0  0  0  0  3  0  0  0  0  0  0
  192.0620  174.5120  137.2050 C   0  0  0  0  0  0  0  0  0  0  0  0
  192.2020  177.2280  139.7910 C   0  0  0  0  0  1  0  0  0  0  0  0
  191.5850  176.5620  138.5960 C   0  0  0  0  0  0  0  0  0  0  0  0
  192.9640  173.6630  136.6590 F   0  0  0  0  0  0  0  0  0  0  0  0
  189.5950  174.8460  137.0710 C   0  0  0  0  0  0  0  0  0  0  0  0
  187.2010  173.7300  137.0170 C   0  0  0  0  0  0  0  0  0  0  0  0
  188.2900  174.2470  137.0580 C   0  0  0  0  0  0  0  0  0  0  0  0
  185.8850  173.0930  136.9320 C   0  0  0  0  0  2  0  0  0  0  0  0
  185.0850  173.6870  135.7870 C   0  0  0  0  0  2  0  0  0  0  0  0
  184.0470  177.2790  136.2710 N   0  0  0  0  0  2  0  0  0  0  0  0
  184.4610  174.9810  136.2060 C   0  0  0  0  0  0  0  0  0  0  0  0
  184.9070  176.2600  135.8200 N   0  0  0  0  0  0  0  0  0  0  0  0
  183.3680  175.1080  136.9140 C   0  0  0  0  0  0  0  0  0  0  0  0
  182.6250  174.0430  137.4230 O   0  0  0  0  0  1  0  0  0  0  0  0
  183.0180  176.5590  137.0520 C   0  0  1  0  0  3  0  0  0  0  0  0
  186.0330  176.5210  134.9410 C   0  0  0  0  0  1  0  0  0  0  0  0
  181.7440  177.8180  140.5230 C   0  0  0  0  0  2  0  0  0  0  0  0
  184.1350  178.5310  140.2120 C   0  0  2  0  0  3  0  0  0  0  0  0
  181.6670  177.4360  139.0460 C   0  0  1  0  0  3  0  0  0  0  0  0
  181.0440  178.5630  138.2350 C   0  0  0  0  0  1  0  0  0  0  0  0
  183.0510  177.0100  138.5200 C   0  0  2  0  0  3  0  0  0  0  0  0
  184.0780  178.1270  138.7300 C   0  0  0  0  0  2  0  0  0  0  0  0
  182.7580  178.9340  140.7600 C   0  0  0  0  0  2  0  0  0  0  0  0
  185.1430  179.4940  140.4840 O   0  0  0  0  0  0  0  0  0  0  0  0
  185.6690  179.2570  141.7750 C   0  0  0  0  0  1  0  0  0  0  0  0
  189.4310  177.7370  139.0330 C   0  0  0  0  0  0  0  0  0  0  0  0
  189.2340  178.9320  138.7040 O   0  0  0  0  0  0  0  0  0  0  0  0
  188.7770  177.2140  140.2670 C   0  0  0  0  0  2  0  0  0  0  0  0
  189.1380  178.0340  141.4140 N   0  0  0  0  0  2  0  0  0  0  0  0
  190.0770  176.0180  142.1270 O   0  0  0  0  0  1  0  0  0  0  0  0
  189.3460  177.1360  142.5430 C   0  0  1  0  0  3  0  0  0  0  0  0
  189.2160  178.0600  144.7690 O   0  0  0  0  0  0  0  0  0  0  0  0
  189.8160  177.4510  145.9000 C   0  0  0  0  0  2  0  0  0  0  0  0
  191.9120  176.2180  146.1290 N   0  0  0  0  0  2  0  0  0  0  0  0
  191.0640  176.8760  145.4150 C   0  0  0  0  0  0  0  0  0  0  0  0
  191.2120  177.1240  144.0920 O   0  0  0  0  0  0  0  0  0  0  0  0
  190.0850  177.8630  143.6620 C   0  0  1  0  0  3  0  0  0  0  0  0
  193.8540  175.9770  137.8670 O   0  0  0  0  0  0  0  0  0  0  0  0
  194.6780  175.8590  136.8130 O   0  0  0  0  0  0  0  0  0  0  0  0
  195.6770  174.9690  137.2220 C   0  0  0  0  0  2  0  0  0  0  0  0
  198.0140  175.4850  137.0290 O   0  0  0  0  0  1  0  0  0  0  0  0
  196.8920  175.0700  136.3060 C   0  0  1  0  0  3  0  0  0  0  0  0
  197.3910  171.4460  136.0350 C   0  0  2  0  0  0  0  0  0  0  0  0
  194.6720  169.3600  137.7740 C   0  0  0  0  0  2  0  0  0  0  0  0
  198.0800  169.9230  137.7710 O   0  0  0  0  0  0  0  0  0  0  0  0
  197.8660  172.7810  136.5030 C   0  0  0  0  0  2  0  0  0  0  0  0
  197.1580  170.5170  137.2290 C   0  0  0  0  0  0  0  0  0  0  0  0
  197.1680  173.7530  135.5830 C   0  0  1  0  0  3  0  0  0  0  0  0
  195.1170  169.8950  136.4490 C   0  0  1  0  0  3  0  0  0  0  0  0
  195.9720  173.1810  135.1090 O   0  0  0  0  0  0  0  0  0  0  0  0
  198.4140  170.8420  135.0860 C   0  0  0  0  0  1  0  0  0  0  0  0
  194.7740  171.1910  135.7480 C   0  0  0  0  0  2  0  0  0  0  0  0
  195.7670  170.4070  137.7570 C   0  0  1  0  0  0  0  0  0  0  0  0
  195.2770  171.6140  138.2410 F   0  0  0  0  0  0  0  0  0  0  0  0
  196.1060  171.7880  135.2250 C   0  0  2  0  0  3  0  0  0  0  0  0
  1  7  2  0  0  0  0
  1 30  1  0  0  0  0
  2 42  1  0  0  0  0
  2  7  1  0  0  0  0
  3  9  1  0  0  0  0
  3  1  1  0  0  0  0
  4  5  1  0  0  0  0
  5  2  2  0  0  0  0
  7  6  1  0  0  0  0
  8  5  1  0  0  0  0
  9  4  2  0  0  0  0
 10 11  3  0  0  0  0
 11  9  1  0  0  0  0
 12 10  1  0  0  0  0
 13 15  1  0  0  0  0
 13 12  1  0  0  0  0
 15 17  2  0  0  0  0
 16 15  1  0  0  0  0
 16 14  1  0  0  0  0
 17 19  1  0  0  0  0
 17 18  1  0  0  0  0
 19 14  1  6  0  0  0
 19 25  1  0  0  0  0
 20 16  1  0  0  0  0
 21 27  1  0  0  0  0
 22 28  1  6  0  0  0
 22 27  1  0  0  0  0
 23 24  1  6  0  0  0
 23 21  1  0  0  0  0
 25 26  1  6  0  0  0
 25 23  1  0  0  0  0
 26 22  1  0  0  0  0
 28 29  1  0  0  0  0
 30 32  1  0  0  0  0
 31 30  2  0  0  0  0
 32 33  1  0  0  0  0
 33 35  1  0  0  0  0
 35 34  1  6  0  0  0
 36 37  1  0  0  0  0
 39 37  1  0  0  0  0
 39 38  2  0  0  0  0
 40 39  1  0  0  0  0
 41 35  1  6  0  0  0
 41 40  1  0  0  0  0
 41 36  1  0  0  0  0
 43 44  1  0  0  0  0
 43 42  1  0  0  0  0
 46 45  1  1  0  0  0
 46 44  1  0  0  0  0
 47 55  1  6  0  0  0
 47 50  1  0  0  0  0
 47 51  1  0  0  0  0
 51 57  1  0  0  0  0
 51 49  2  0  0  0  0
 52 46  1  1  0  0  0
 52 50  1  0  0  0  0
 53 56  1  1  0  0  0
 53 57  1  0  0  0  0
 53 48  1  0  0  0  0
 54 59  1  0  0  0  0
 54 52  1  0  0  0  0
 57 48  1  0  0  0  0
 57 58  1  1  0  0  0
 59 56  1  1  0  0  0
 59 47  1  0  0  0  0
M  END
>  <MODEL>
1

>  <REMARK>
 VINA RESULT:      -7.7      0.000      0.000
  Name = 
  16 active torsions:
  status: ('A' for Active; 'I' for Inactive)
    1  A    between atoms: C_1  and  C_18
    2  A    between atoms: C_3  and  C_46
    3  A    between atoms: O_4  and  C_34
    4  A    between atoms: O_4  and  O_50
    5  A    between atoms: C_6  and  O_50
    6  A    between atoms: N_9  and  C_27
    7  A    between atoms: N_9  and  C_32
    8  A    between atoms: C_14  and  C_26
    9  A    between atoms: C_15  and  O_42
   10  A    between atoms: C_18  and  C_27
   11  A    between atoms: C_23  and  C_25
   12  A    between atoms: C_25  and  C_34
   13  A    between atoms: C_26  and  C_46
   14  A    between atoms: C_32  and  C_38
   15  A    between atoms: C_33  and  C_49
   16  A    between atoms: C_56  and  C_59
                            x       y       z     vdW  Elec       q    Type
                         _______ _______ _______ _____ _____    ______ ____

>  <TORSDO>
F 16

$$$$
=
 OpenBabel10232409113D

 59 65  0  0  1  0  0  0  0  0999 V2000
  184.6490  178.7210  142.0480 C   0  0  0  0  0  0  0  0  0  0  0  0
  183.4070  179.0450  144.2190 C   0  0  0  0  0  0  0  0  0  0  0  0
  183.6700  177.6790  141.6100 C   0  0  0  0  0  2  0  0  0  0  0  0
  181.6410  178.7810  142.4460 C   0  0  0  0  0  3  0  0  0  0  0  0
  182.1170  178.8280  143.8420 C   0  0  0  0  0  0  0  0  0  0  0  0
  185.5880  180.2520  143.7540 C   0  0  0  0  0  1  0  0  0  0  0  0
  184.5230  179.3180  143.2600 C   0  0  0  0  0  0  0  0  0  0  0  0
  181.1460  178.7320  144.7790 F   0  0  0  0  0  0  0  0  0  0  0  0
  182.3320  178.3050  141.4140 C   0  0  0  0  0  0  0  0  0  0  0  0
  181.2800  178.4230  138.9930 C   0  0  0  0  0  0  0  0  0  0  0  0
  181.7440  178.3630  140.1050 C   0  0  0  0  0  0  0  0  0  0  0  0
  180.7460  178.5180  137.6330 C   0  0  0  0  0  2  0  0  0  0  0  0
  179.9830  177.2540  137.2780 C   0  0  0  0  0  2  0  0  0  0  0  0
  182.0370  174.0940  137.3740 N   0  0  0  0  0  2  0  0  0  0  0  0
  180.9350  176.1250  137.0340 C   0  0  0  0  0  0  0  0  0  0  0  0
  181.1890  175.0690  137.9310 N   0  0  0  0  0  0  0  0  0  0  0  0
  181.5960  175.9090  135.9250 C   0  0  0  0  0  0  0  0  0  0  0  0
  181.5420  176.7280  134.7980 O   0  0  0  0  0  1  0  0  0  0  0  0
  182.3760  174.6340  136.0400 C   0  0  1  0  0  3  0  0  0  0  0  0
  180.5540  174.9050  139.2270 C   0  0  0  0  0  1  0  0  0  0  0  0
  186.2080  173.8940  135.8860 C   0  0  0  0  0  2  0  0  0  0  0  0
  185.8500  176.2020  136.8150 C   0  0  2  0  0  3  0  0  0  0  0  0
  184.7190  173.5950  136.0540 C   0  0  1  0  0  3  0  0  0  0  0  0
  184.4690  172.8450  137.3550 C   0  0  0  0  0  1  0  0  0  0  0  0
  183.8880  174.8860  135.9360 C   0  0  2  0  0  3  0  0  0  0  0  0
  184.3450  175.9230  136.9660 C   0  0  0  0  0  2  0  0  0  0  0  0
  186.6920  174.9210  136.9060 C   0  0  0  0  0  2  0  0  0  0  0  0
  186.3100  177.2300  137.6790 O   0  0  0  0  0  0  0  0  0  0  0  0
  186.8300  178.2880  136.8990 C   0  0  0  0  0  1  0  0  0  0  0  0
  185.7340  179.0540  141.0980 C   0  0  0  0  0  0  0  0  0  0  0  0
  185.4740  179.5840  139.9910 O   0  0  0  0  0  0  0  0  0  0  0  0
  187.1550  178.7450  141.4300 C   0  0  0  0  0  2  0  0  0  0  0  0
  187.9650  178.7420  140.2200 N   0  0  0  0  0  2  0  0  0  0  0  0
  188.8320  176.7380  141.0490 O   0  0  0  0  0  1  0  0  0  0  0  0
  189.1750  177.9820  140.5080 C   0  0  1  0  0  3  0  0  0  0  0  0
  191.3390  177.4880  139.5620 O   0  0  0  0  0  0  0  0  0  0  0  0
  191.6570  176.2470  138.9530 C   0  0  0  0  0  2  0  0  0  0  0  0
  190.3010  174.7420  137.5890 N   0  0  0  0  0  2  0  0  0  0  0  0
  190.4430  175.8310  138.2650 C   0  0  0  0  0  0  0  0  0  0  0  0
  189.4660  176.7520  138.4380 O   0  0  0  0  0  0  0  0  0  0  0  0
  189.9930  177.7970  139.2340 C   0  0  1  0  0  3  0  0  0  0  0  0
  183.7560  179.1120  145.5810 O   0  0  0  0  0  0  0  0  0  0  0  0
  184.3220  178.0980  146.2570 O   0  0  0  0  0  0  0  0  0  0  0  0
  185.6160  178.5320  146.5610 C   0  0  0  0  0  2  0  0  0  0  0  0
  186.5970  176.9960  144.9980 O   0  0  0  0  0  1  0  0  0  0  0  0
  186.6250  177.4110  146.3320 C   0  0  1  0  0  3  0  0  0  0  0  0
  190.2860  177.1870  146.4110 C   0  0  2  0  0  0  0  0  0  0  0  0
  191.9070  176.8860  142.9400 C   0  0  0  0  0  2  0  0  0  0  0  0
  191.6490  175.2490  145.9710 O   0  0  0  0  0  0  0  0  0  0  0  0
  188.9520  176.6260  146.7760 C   0  0  0  0  0  2  0  0  0  0  0  0
  191.0440  176.2090  145.5110 C   0  0  0  0  0  0  0  0  0  0  0  0
  188.0360  177.8260  146.7430 C   0  0  1  0  0  3  0  0  0  0  0  0
  191.5720  177.8510  144.0340 C   0  0  1  0  0  3  0  0  0  0  0  0
  188.5530  178.7910  145.8580 O   0  0  0  0  0  0  0  0  0  0  0  0
  191.0830  177.4740  147.6730 C   0  0  0  0  0  1  0  0  0  0  0  0
  190.3420  178.7050  144.2460 C   0  0  0  0  0  2  0  0  0  0  0  0
  190.9690  176.4250  144.0370 C   0  0  1  0  0  0  0  0  0  0  0  0
  189.6760  176.3170  143.5410 F   0  0  0  0  0  0  0  0  0  0  0  0
  189.9290  178.5420  145.7320 C   0  0  2  0  0  3  0  0  0  0  0  0
  1  7  2  0  0  0  0
  2 42  1  0  0  0  0
  3  1  1  0  0  0  0
  4  5  1  0  0  0  0
  5  2  2  0  0  0  0
  5  8  1  0  0  0  0
  7  6  1  0  0  0  0
  7  2  1  0  0  0  0
  9  3  1  0  0  0  0
  9  4  2  0  0  0  0
 10 11  3  0  0  0  0
 11  9  1  0  0  0  0
 12 10  1  0  0  0  0
 13 12  1  0  0  0  0
 14 16  1  0  0  0  0
 15 13  1  0  0  0  0
 15 16  1  0  0  0  0
 16 20  1  0  0  0  0
 17 15  2  0  0  0  0
 18 17  1  0  0  0  0
 19 17  1  1  0  0  0
 19 14  1  0  0  0  0
 21 23  1  0  0  0  0
 21 27  1  0  0  0  0
 22 27  1  0  0  0  0
 22 26  1  0  0  0  0
 22 28  1  1  0  0  0
 23 24  1  1  0  0  0
 25 19  1  0  0  0  0
 25 23  1  0  0  0  0
 25 26  1  1  0  0  0
 29 28  1  0  0  0  0
 30 32  1  0  0  0  0
 30  1  1  0  0  0  0
 31 30  2  0  0  0  0
 33 35  1  0  0  0  0
 33 32  1  0  0  0  0
 35 34  1  6  0  0  0
 37 36  1  0  0  0  0
 38 39  2  0  0  0  0
 39 40  1  0  0  0  0
 39 37  1  0  0  0  0
 40 41  1  0  0  0  0
 41 36  1  0  0  0  0
 41 35  1  1  0  0  0
 42 43  1  0  0  0  0
 43 44  1  0  0  0  0
 46 45  1  6  0  0  0
 46 44  1  0  0  0  0
 47 50  1  0  0  0  0
 47 55  1  1  0  0  0
 48 57  1  0  0  0  0
 51 49  2  0  0  0  0
 51 47  1  0  0  0  0
 52 46  1  6  0  0  0
 52 50  1  0  0  0  0
 53 48  1  6  0  0  0
 53 57  1  0  0  0  0
 53 56  1  0  0  0  0
 54 52  1  0  0  0  0
 57 58  1  6  0  0  0
 57 51  1  0  0  0  0
 59 56  1  6  0  0  0
 59 54  1  0  0  0  0
 59 47  1  0  0  0  0
M  END
>  <MODEL>
2

>  <REMARK>
 VINA RESULT:      -7.4      4.578      9.222
  Name = 
  16 active torsions:
  status: ('A' for Active; 'I' for Inactive)
    1  A    between atoms: C_1  and  C_18
    2  A    between atoms: C_3  and  C_46
    3  A    between atoms: O_4  and  C_34
    4  A    between atoms: O_4  and  O_50
    5  A    between atoms: C_6  and  O_50
    6  A    between atoms: N_9  and  C_27
    7  A    between atoms: N_9  and  C_32
    8  A    between atoms: C_14  and  C_26
    9  A    between atoms: C_15  and  O_42
   10  A    between atoms: C_18  and  C_27
   11  A    between atoms: C_23  and  C_25
   12  A    between atoms: C_25  and  C_34
   13  A    between atoms: C_26  and  C_46
   14  A    between atoms: C_32  and  C_38
   15  A    between atoms: C_33  and  C_49
   16  A    between atoms: C_56  and  C_59
                            x       y       z     vdW  Elec       q    Type
                         _______ _______ _______ _____ _____    ______ ____

>  <TORSDO>
F 16

$$$$
=
 OpenBabel10232409113D

 59 65  0  0  1  0  0  0  0  0999 V2000
  188.2890  177.6950  142.3310 C   0  0  0  0  0  0  0  0  0  0  0  0
  189.2180  177.8490  139.9910 C   0  0  0  0  0  0  0  0  0  0  0  0
  187.4150  178.8850  142.0940 C   0  0  0  0  0  2  0  0  0  0  0  0
  186.7590  178.3420  139.7910 C   0  0  0  0  0  3  0  0  0  0  0  0
  188.1470  178.3140  139.2920 C   0  0  0  0  0  0  0  0  0  0  0  0
  190.1020  176.1510  141.6530 C   0  0  0  0  0  1  0  0  0  0  0  0
  189.1250  177.2510  141.3600 C   0  0  0  0  0  0  0  0  0  0  0  0
  188.2980  178.7060  138.0050 F   0  0  0  0  0  0  0  0  0  0  0  0
  186.4000  178.5580  141.0530 C   0  0  0  0  0  0  0  0  0  0  0  0
  183.8280  178.5100  141.6550 C   0  0  0  0  0  0  0  0  0  0  0  0
  185.0050  178.5170  141.3910 C   0  0  0  0  0  0  0  0  0  0  0  0
  182.3960  178.5340  141.9590 C   0  0  0  0  0  2  0  0  0  0  0  0
  181.6020  178.9350  140.7290 C   0  0  0  0  0  2  0  0  0  0  0  0
  181.8110  176.2190  138.1230 N   0  0  0  0  0  2  0  0  0  0  0  0
  181.9420  178.0420  139.5780 C   0  0  0  0  0  0  0  0  0  0  0  0
  181.3890  176.7660  139.3490 N   0  0  0  0  0  0  0  0  0  0  0  0
  182.7290  178.3490  138.5780 C   0  0  0  0  0  0  0  0  0  0  0  0
  183.4090  179.5600  138.4470 O   0  0  0  0  0  1  0  0  0  0  0  0
  182.7500  177.2270  137.5840 C   0  0  1  0  0  3  0  0  0  0  0  0
  180.3910  176.1270  140.1870 C   0  0  0  0  0  1  0  0  0  0  0  0
  186.3720  176.6610  136.2370 C   0  0  0  0  0  2  0  0  0  0  0  0
  185.5040  174.5080  137.2020 C   0  0  2  0  0  3  0  0  0  0  0  0
  184.9650  177.2540  136.2950 C   0  0  1  0  0  3  0  0  0  0  0  0
  184.2770  177.1270  134.9440 C   0  0  0  0  0  1  0  0  0  0  0  0
  184.1560  176.6230  137.4440 C   0  0  2  0  0  3  0  0  0  0  0  0
  184.0890  175.1010  137.2900 C   0  0  0  0  0  2  0  0  0  0  0  0
  186.3340  175.1430  136.0770 C   0  0  0  0  0  2  0  0  0  0  0  0
  185.5070  173.0880  137.1580 O   0  0  0  0  0  0  0  0  0  0  0  0
  186.8420  172.6280  137.2390 C   0  0  0  0  0  1  0  0  0  0  0  0
  188.1810  177.0450  143.6570 C   0  0  0  0  0  0  0  0  0  0  0  0
  187.1550  176.3930  143.9670 O   0  0  0  0  0  0  0  0  0  0  0  0
  189.2790  177.1750  144.6570 C   0  0  0  0  0  2  0  0  0  0  0  0
  188.8780  178.0710  145.7320 N   0  0  0  0  0  2  0  0  0  0  0  0
  189.8340  177.6110  147.8120 O   0  0  0  0  0  1  0  0  0  0  0  0
  188.7840  177.2760  146.9500 C   0  0  1  0  0  3  0  0  0  0  0  0
  187.4360  178.7970  148.2500 O   0  0  0  0  0  0  0  0  0  0  0  0
  186.3510  179.5320  147.7090 C   0  0  0  0  0  2  0  0  0  0  0  0
  184.7030  178.9330  146.0080 N   0  0  0  0  0  2  0  0  0  0  0  0
  185.7260  178.6440  146.7380 C   0  0  0  0  0  0  0  0  0  0  0  0
  186.3800  177.4580  146.6990 O   0  0  0  0  0  0  0  0  0  0  0  0
  187.4420  177.5190  147.6320 C   0  0  1  0  0  3  0  0  0  0  0  0
  190.5010  177.8280  139.4120 O   0  0  0  0  0  0  0  0  0  0  0  0
  190.7570  177.3480  138.1840 O   0  0  0  0  0  0  0  0  0  0  0  0
  191.3470  176.0970  138.3900 C   0  0  0  0  0  2  0  0  0  0  0  0
  190.0110  175.2600  136.5780 O   0  0  0  0  0  1  0  0  0  0  0  0
  191.3030  175.2660  137.1120 C   0  0  1  0  0  3  0  0  0  0  0  0
  194.6350  175.7090  135.6430 C   0  0  2  0  0  0  0  0  0  0  0  0
  196.6620  172.4560  135.3590 C   0  0  0  0  0  2  0  0  0  0  0  0
  196.7630  175.6080  136.7690 O   0  0  0  0  0  0  0  0  0  0  0  0
  193.6550  176.0060  136.7280 C   0  0  0  0  0  2  0  0  0  0  0  0
  195.8610  174.9940  136.2160 C   0  0  0  0  0  0  0  0  0  0  0  0
  192.3150  175.7590  136.0790 C   0  0  1  0  0  3  0  0  0  0  0  0
  195.7910  173.4040  134.5950 C   0  0  1  0  0  3  0  0  0  0  0  0
  192.4590  174.8280  135.0340 O   0  0  0  0  0  0  0  0  0  0  0  0
  195.0490  177.0010  134.9570 C   0  0  0  0  0  1  0  0  0  0  0  0
  194.2940  173.4080  134.3830 C   0  0  0  0  0  2  0  0  0  0  0  0
  195.8920  173.5040  136.1370 C   0  0  1  0  0  0  0  0  0  0  0  0
  194.8600  172.9040  136.8470 F   0  0  0  0  0  0  0  0  0  0  0  0
  193.8060  174.8580  134.6370 C   0  0  2  0  0  3  0  0  0  0  0  0
  1 30  1  0  0  0  0
  2  7  1  0  0  0  0
  3  1  1  0  0  0  0
  4  9  2  0  0  0  0
  5  4  1  0  0  0  0
  5  2  2  0  0  0  0
  7  6  1  0  0  0  0
  7  1  2  0  0  0  0
  8  5  1  0  0  0  0
  9 11  1  0  0  0  0
  9  3  1  0  0  0  0
 10 12  1  0  0  0  0
 11 10  3  0  0  0  0
 13 12  1  0  0  0  0
 14 16  1  0  0  0  0
 15 13  1  0  0  0  0
 16 15  1  0  0  0  0
 16 20  1  0  0  0  0
 17 15  2  0  0  0  0
 18 17  1  0  0  0  0
 19 14  1  1  0  0  0
 19 17  1  0  0  0  0
 21 23  1  0  0  0  0
 22 28  1  6  0  0  0
 22 26  1  0  0  0  0
 23 24  1  6  0  0  0
 23 25  1  0  0  0  0
 25 26  1  6  0  0  0
 25 19  1  0  0  0  0
 27 21  1  0  0  0  0
 27 22  1  0  0  0  0
 28 29  1  0  0  0  0
 30 31  2  0  0  0  0
 30 32  1  0  0  0  0
 32 33  1  0  0  0  0
 33 35  1  0  0  0  0
 35 34  1  1  0  0  0
 37 36  1  0  0  0  0
 38 39  2  0  0  0  0
 39 37  1  0  0  0  0
 40 39  1  0  0  0  0
 40 41  1  0  0  0  0
 41 35  1  6  0  0  0
 41 36  1  0  0  0  0
 42  2  1  0  0  0  0
 43 44  1  0  0  0  0
 43 42  1  0  0  0  0
 46 45  1  6  0  0  0
 46 44  1  0  0  0  0
 47 55  1  6  0  0  0
 47 51  1  0  0  0  0
 47 50  1  0  0  0  0
 48 57  1  0  0  0  0
 51 49  2  0  0  0  0
 52 50  1  0  0  0  0
 52 46  1  1  0  0  0
 53 56  1  1  0  0  0
 53 48  1  0  0  0  0
 53 57  1  0  0  0  0
 54 52  1  0  0  0  0
 57 51  1  0  0  0  0
 57 58  1  1  0  0  0
 59 56  1  1  0  0  0
 59 54  1  0  0  0  0
 59 47  1  0  0  0  0
M  END
>  <MODEL>
3

>  <REMARK>
 VINA RESULT:      -7.4      2.535      5.413
  Name = 
  16 active torsions:
  status: ('A' for Active; 'I' for Inactive)
    1  A    between atoms: C_1  and  C_18
    2  A    between atoms: C_3  and  C_46
    3  A    between atoms: O_4  and  C_34
    4  A    between atoms: O_4  and  O_50
    5  A    between atoms: C_6  and  O_50
    6  A    between atoms: N_9  and  C_27
    7  A    between atoms: N_9  and  C_32
    8  A    between atoms: C_14  and  C_26
    9  A    between atoms: C_15  and  O_42
   10  A    between atoms: C_18  and  C_27
   11  A    between atoms: C_23  and  C_25
   12  A    between atoms: C_25  and  C_34
   13  A    between atoms: C_26  and  C_46
   14  A    between atoms: C_32  and  C_38
   15  A    between atoms: C_33  and  C_49
   16  A    between atoms: C_56  and  C_59
                            x       y       z     vdW  Elec       q    Type
                         _______ _______ _______ _____ _____    ______ ____

>  <TORSDO>
F 16

$$$$
=
 OpenBabel10232409113D

 59 65  0  0  1  0  0  0  0  0999 V2000
  185.1820  177.6770  137.4340 C   0  0  0  0  0  0  0  0  0  0  0  0
  185.8170  178.5990  139.6950 C   0  0  0  0  0  0  0  0  0  0  0  0
  186.4700  178.1560  136.8440 C   0  0  0  0  0  2  0  0  0  0  0  0
  187.9190  177.5920  138.7450 C   0  0  0  0  0  3  0  0  0  0  0  0
  187.1680  178.4290  139.7000 C   0  0  0  0  0  0  0  0  0  0  0  0
  183.5420  177.5580  139.2860 C   0  0  0  0  0  1  0  0  0  0  0  0
  184.8930  177.9110  138.7390 C   0  0  0  0  0  0  0  0  0  0  0  0
  187.9140  178.9760  140.6870 F   0  0  0  0  0  0  0  0  0  0  0  0
  187.6070  177.4190  137.4640 C   0  0  0  0  0  0  0  0  0  0  0  0
  189.1140  175.8270  135.9890 C   0  0  0  0  0  0  0  0  0  0  0  0
  188.4170  176.5390  136.6690 C   0  0  0  0  0  0  0  0  0  0  0  0
  189.9730  174.9920  135.1460 C   0  0  0  0  0  2  0  0  0  0  0  0
  191.3310  175.6470  134.9660 C   0  0  0  0  0  2  0  0  0  0  0  0
  193.5070  174.6030  137.8610 N   0  0  0  0  0  2  0  0  0  0  0  0
  192.3330  175.0260  135.8870 C   0  0  0  0  0  0  0  0  0  0  0  0
  192.6060  175.4580  137.2000 N   0  0  0  0  0  0  0  0  0  0  0  0
  193.0310  173.9470  135.6410 C   0  0  0  0  0  0  0  0  0  0  0  0
  192.9730  173.2190  134.4530 O   0  0  0  0  0  1  0  0  0  0  0  0
  193.8590  173.5930  136.8400 C   0  0  1  0  0  3  0  0  0  0  0  0
  191.9460  176.5650  137.8680 C   0  0  0  0  0  1  0  0  0  0  0  0
  197.4710  172.3770  135.9840 C   0  0  0  0  0  2  0  0  0  0  0  0
  197.6070  174.5550  137.2320 C   0  0  2  0  0  3  0  0  0  0  0  0
  195.9930  172.2590  136.3520 C   0  0  1  0  0  3  0  0  0  0  0  0
  195.8160  171.3700  137.5750 C   0  0  0  0  0  1  0  0  0  0  0  0
  195.3610  173.6530  136.5260 C   0  0  2  0  0  3  0  0  0  0  0  0
  196.1140  174.4620  137.5880 C   0  0  0  0  0  2  0  0  0  0  0  0
  198.2460  173.1740  137.0300 C   0  0  0  0  0  2  0  0  0  0  0  0
  198.3380  175.3790  138.1290 O   0  0  0  0  0  0  0  0  0  0  0  0
  197.9850  175.0410  139.4550 C   0  0  0  0  0  1  0  0  0  0  0  0
  184.2690  176.9430  136.5290 C   0  0  0  0  0  0  0  0  0  0  0  0
  183.3070  177.5310  135.9790 O   0  0  0  0  0  0  0  0  0  0  0  0
  184.4640  175.4870  136.2720 C   0  0  0  0  0  2  0  0  0  0  0  0
  184.1050  174.7160  137.4530 N   0  0  0  0  0  2  0  0  0  0  0  0
  182.9410  173.7120  135.6950 O   0  0  0  0  0  1  0  0  0  0  0  0
  183.4140  173.5160  136.9970 C   0  0  1  0  0  3  0  0  0  0  0  0
  184.6320  171.8670  135.7250 O   0  0  0  0  0  0  0  0  0  0  0  0
  186.0370  171.9100  135.5390 C   0  0  0  0  0  2  0  0  0  0  0  0
  187.8280  172.6210  137.0410 N   0  0  0  0  0  2  0  0  0  0  0  0
  186.5790  172.4170  136.7930 C   0  0  0  0  0  0  0  0  0  0  0  0
  185.5780  172.6570  137.6730 O   0  0  0  0  0  0  0  0  0  0  0  0
  184.3570  172.3190  137.0430 C   0  0  1  0  0  3  0  0  0  0  0  0
  185.1880  179.3900  140.6740 O   0  0  0  0  0  0  0  0  0  0  0  0
  185.7110  179.6310  141.8870 O   0  0  0  0  0  0  0  0  0  0  0  0
  184.9110  178.9170  142.7850 C   0  0  0  0  0  2  0  0  0  0  0  0
  184.6160  178.8700  145.1670 O   0  0  0  0  0  1  0  0  0  0  0  0
  185.5780  178.8380  144.1540 C   0  0  1  0  0  3  0  0  0  0  0  0
  188.5490  176.7750  143.5430 C   0  0  2  0  0  0  0  0  0  0  0  0
  191.8730  178.6160  144.1100 C   0  0  0  0  0  2  0  0  0  0  0  0
  190.0840  176.9210  141.6910 O   0  0  0  0  0  0  0  0  0  0  0  0
  187.2990  177.4150  143.0390 C   0  0  0  0  0  2  0  0  0  0  0  0
  189.7660  177.3300  142.7990 C   0  0  0  0  0  0  0  0  0  0  0  0
  186.4640  177.6010  144.2830 C   0  0  1  0  0  3  0  0  0  0  0  0
  190.8940  177.6770  144.7410 C   0  0  1  0  0  3  0  0  0  0  0  0
  187.3050  177.7020  145.4070 O   0  0  0  0  0  0  0  0  0  0  0  0
  188.4600  175.2680  143.3630 C   0  0  0  0  0  1  0  0  0  0  0  0
  189.6920  177.9540  145.6160 C   0  0  0  0  0  2  0  0  0  0  0  0
  190.5230  178.4410  143.4460 C   0  0  1  0  0  0  0  0  0  0  0  0
  189.7560  179.5860  143.6210 F   0  0  0  0  0  0  0  0  0  0  0  0
  188.5240  177.0950  145.0660 C   0  0  2  0  0  3  0  0  0  0  0  0
  1  7  2  0  0  0  0
  2  5  2  0  0  0  0
  2 42  1  0  0  0  0
  3  1  1  0  0  0  0
  3  9  1  0  0  0  0
  4  5  1  0  0  0  0
  5  8  1  0  0  0  0
  7  6  1  0  0  0  0
  7  2  1  0  0  0  0
  9  4  2  0  0  0  0
 10 11  3  0  0  0  0
 11  9  1  0  0  0  0
 12 10  1  0  0  0  0
 13 12  1  0  0  0  0
 13 15  1  0  0  0  0
 15 16  1  0  0  0  0
 16 14  1  0  0  0  0
 16 20  1  0  0  0  0
 17 15  2  0  0  0  0
 18 17  1  0  0  0  0
 19 17  1  6  0  0  0
 19 14  1  0  0  0  0
 21 23  1  0  0  0  0
 21 27  1  0  0  0  0
 22 26  1  0  0  0  0
 22 28  1  1  0  0  0
 23 25  1  0  0  0  0
 23 24  1  1  0  0  0
 25 19  1  0  0  0  0
 25 26  1  1  0  0  0
 27 22  1  0  0  0  0
 28 29  1  0  0  0  0
 30  1  1  0  0  0  0
 31 30  2  0  0  0  0
 32 30  1  0  0  0  0
 32 33  1  0  0  0  0
 35 34  1  6  0  0  0
 35 33  1  0  0  0  0
 36 41  1  0  0  0  0
 37 36  1  0  0  0  0
 37 39  1  0  0  0  0
 39 38  2  0  0  0  0
 39 40  1  0  0  0  0
 41 35  1  6  0  0  0
 41 40  1  0  0  0  0
 42 43  1  0  0  0  0
 43 44  1  0  0  0  0
 44 46  1  0  0  0  0
 46 45  1  1  0  0  0
 47 55  1  6  0  0  0
 47 59  1  0  0  0  0
 49 51  2  0  0  0  0
 50 47  1  0  0  0  0
 50 52  1  0  0  0  0
 51 57  1  0  0  0  0
 51 47  1  0  0  0  0
 52 46  1  6  0  0  0
 52 54  1  0  0  0  0
 53 48  1  1  0  0  0
 53 56  1  0  0  0  0
 57 58  1  1  0  0  0
 57 48  1  0  0  0  0
 57 53  1  0  0  0  0
 59 54  1  0  0  0  0
 59 56  1  6  0  0  0
M  END
>  <MODEL>
4

>  <REMARK>
 VINA RESULT:      -7.3      2.959     10.916
  Name = 
  16 active torsions:
  status: ('A' for Active; 'I' for Inactive)
    1  A    between atoms: C_1  and  C_18
    2  A    between atoms: C_3  and  C_46
    3  A    between atoms: O_4  and  C_34
    4  A    between atoms: O_4  and  O_50
    5  A    between atoms: C_6  and  O_50
    6  A    between atoms: N_9  and  C_27
    7  A    between atoms: N_9  and  C_32
    8  A    between atoms: C_14  and  C_26
    9  A    between atoms: C_15  and  O_42
   10  A    between atoms: C_18  and  C_27
   11  A    between atoms: C_23  and  C_25
   12  A    between atoms: C_25  and  C_34
   13  A    between atoms: C_26  and  C_46
   14  A    between atoms: C_32  and  C_38
   15  A    between atoms: C_33  and  C_49
   16  A    between atoms: C_56  and  C_59
                            x       y       z     vdW  Elec       q    Type
                         _______ _______ _______ _____ _____    ______ ____

>  <TORSDO>
F 16

$$$$
=
 OpenBabel10232409113D

 59 65  0  0  1  0  0  0  0  0999 V2000
  189.8130  177.5570  140.4710 C   0  0  0  0  0  0  0  0  0  0  0  0
  189.2000  177.5810  138.0240 C   0  0  0  0  0  0  0  0  0  0  0  0
  188.9470  178.7500  140.7290 C   0  0  0  0  0  2  0  0  0  0  0  0
  187.0790  178.1060  139.2720 C   0  0  0  0  0  3  0  0  0  0  0  0
  187.9150  178.0290  138.0590 C   0  0  0  0  0  0  0  0  0  0  0  0
  190.9120  175.9510  138.9400 C   0  0  0  0  0  1  0  0  0  0  0  0
  189.9320  177.0520  139.2170 C   0  0  0  0  0  0  0  0  0  0  0  0
  187.2820  178.3560  136.9080 F   0  0  0  0  0  0  0  0  0  0  0  0
  187.5210  178.3900  140.4930 C   0  0  0  0  0  0  0  0  0  0  0  0
  185.7750  178.3920  142.4760 C   0  0  0  0  0  0  0  0  0  0  0  0
  186.5860  178.3890  141.5830 C   0  0  0  0  0  0  0  0  0  0  0  0
  184.7640  178.4060  143.5360 C   0  0  0  0  0  2  0  0  0  0  0  0
  183.7200  179.4710  143.2540 C   0  0  0  0  0  2  0  0  0  0  0  0
  180.7070  178.1930  141.3810 N   0  0  0  0  0  2  0  0  0  0  0  0
  182.7320  178.9750  142.2450 C   0  0  0  0  0  0  0  0  0  0  0  0
  181.4530  178.4650  142.5440 N   0  0  0  0  0  0  0  0  0  0  0  0
  182.8760  179.0250  140.9450 C   0  0  0  0  0  0  0  0  0  0  0  0
  184.0030  179.5230  140.2920 O   0  0  0  0  0  1  0  0  0  0  0  0
  181.6370  178.5110  140.2760 C   0  0  1  0  0  3  0  0  0  0  0  0
  180.8880  178.3560  143.8770 C   0  0  0  0  0  1  0  0  0  0  0  0
  182.7180  176.2950  137.2470 C   0  0  0  0  0  2  0  0  0  0  0  0
  181.0360  175.0390  138.6300 C   0  0  2  0  0  3  0  0  0  0  0  0
  182.3890  177.5770  138.0110 C   0  0  1  0  0  3  0  0  0  0  0  0
  181.3840  178.4160  137.2370 C   0  0  0  0  0  1  0  0  0  0  0  0
  181.9260  177.2530  139.4440 C   0  0  2  0  0  3  0  0  0  0  0  0
  180.7140  176.3160  139.4240 C   0  0  0  0  0  2  0  0  0  0  0  0
  181.5240  175.3450  137.2070 C   0  0  0  0  0  2  0  0  0  0  0  0
  179.9820  174.0880  138.6620 O   0  0  0  0  0  0  0  0  0  0  0  0
  180.3840  172.9320  137.9550 C   0  0  0  0  0  1  0  0  0  0  0  0
  190.5080  176.9750  141.6410 C   0  0  0  0  0  0  0  0  0  0  0  0
  191.6980  177.2800  141.8940 O   0  0  0  0  0  0  0  0  0  0  0  0
  189.8120  175.9980  142.5270 C   0  0  0  0  0  2  0  0  0  0  0  0
  190.2260  176.1890  143.9090 N   0  0  0  0  0  2  0  0  0  0  0  0
  188.3600  177.5010  144.4060 O   0  0  0  0  0  1  0  0  0  0  0  0
  189.7560  177.5040  144.3280 C   0  0  1  0  0  3  0  0  0  0  0  0
  189.5240  177.4060  146.7280 O   0  0  0  0  0  0  0  0  0  0  0  0
  190.2990  176.5500  147.5500 C   0  0  0  0  0  2  0  0  0  0  0  0
  192.6300  175.8400  147.3710 N   0  0  0  0  0  2  0  0  0  0  0  0
  191.6210  176.5170  146.9380 C   0  0  0  0  0  0  0  0  0  0  0  0
  191.6460  177.2990  145.8330 O   0  0  0  0  0  0  0  0  0  0  0  0
  190.3610  177.8710  145.6790 C   0  0  1  0  0  3  0  0  0  0  0  0
  189.9040  177.5090  136.8070 O   0  0  0  0  0  0  0  0  0  0  0  0
  189.5240  176.7470  135.7690 O   0  0  0  0  0  0  0  0  0  0  0  0
  190.6870  176.5260  135.0250 C   0  0  0  0  0  2  0  0  0  0  0  0
  190.9900  174.1790  135.4330 O   0  0  0  0  0  1  0  0  0  0  0  0
  191.5410  175.4410  135.6740 C   0  0  1  0  0  3  0  0  0  0  0  0
  195.1790  175.0950  135.9910 C   0  0  2  0  0  0  0  0  0  0  0  0
  196.3060  171.7250  137.4540 C   0  0  0  0  0  2  0  0  0  0  0  0
  196.4880  175.1290  138.0150 O   0  0  0  0  0  0  0  0  0  0  0  0
  193.9150  175.7990  136.3560 C   0  0  0  0  0  2  0  0  0  0  0  0
  195.8150  174.4690  137.2340 C   0  0  0  0  0  0  0  0  0  0  0  0
  192.9910  175.5010  135.1990 C   0  0  1  0  0  3  0  0  0  0  0  0
  196.1160  172.4810  136.1760 C   0  0  1  0  0  3  0  0  0  0  0  0
  193.3700  174.2890  134.5910 O   0  0  0  0  0  0  0  0  0  0  0  0
  196.1420  176.0760  135.3410 C   0  0  0  0  0  1  0  0  0  0  0  0
  194.9190  172.5680  135.2560 C   0  0  0  0  0  2  0  0  0  0  0  0
  195.5340  173.0280  137.5030 C   0  0  1  0  0  0  0  0  0  0  0  0
  194.1860  172.7730  137.7190 F   0  0  0  0  0  0  0  0  0  0  0  0
  194.7180  174.0670  134.9170 C   0  0  2  0  0  3  0  0  0  0  0  0
  1  3  1  0  0  0  0
  1 30  1  0  0  0  0
  2  5  2  0  0  0  0
  2  7  1  0  0  0  0
  4  9  2  0  0  0  0
  5  4  1  0  0  0  0
  6  7  1  0  0  0  0
  7  1  2  0  0  0  0
  8  5  1  0  0  0  0
  9  3  1  0  0  0  0
  9 11  1  0  0  0  0
 10 12  1  0  0  0  0
 11 10  3  0  0  0  0
 13 12  1  0  0  0  0
 14 16  1  0  0  0  0
 15 16  1  0  0  0  0
 15 13  1  0  0  0  0
 16 20  1  0  0  0  0
 17 15  2  0  0  0  0
 18 17  1  0  0  0  0
 19 17  1  1  0  0  0
 19 14  1  0  0  0  0
 21 23  1  0  0  0  0
 22 28  1  6  0  0  0
 22 26  1  0  0  0  0
 23 24  1  6  0  0  0
 23 25  1  0  0  0  0
 25 26  1  6  0  0  0
 25 19  1  0  0  0  0
 27 21  1  0  0  0  0
 27 22  1  0  0  0  0
 29 28  1  0  0  0  0
 30 31  2  0  0  0  0
 30 32  1  0  0  0  0
 32 33  1  0  0  0  0
 33 35  1  0  0  0  0
 35 34  1  1  0  0  0
 36 37  1  0  0  0  0
 39 38  2  0  0  0  0
 39 37  1  0  0  0  0
 40 39  1  0  0  0  0
 41 35  1  6  0  0  0
 41 40  1  0  0  0  0
 41 36  1  0  0  0  0
 42  2  1  0  0  0  0
 43 42  1  0  0  0  0
 44 46  1  0  0  0  0
 44 43  1  0  0  0  0
 46 45  1  6  0  0  0
 47 55  1  6  0  0  0
 47 50  1  0  0  0  0
 47 51  1  0  0  0  0
 48 57  1  0  0  0  0
 51 57  1  0  0  0  0
 51 49  2  0  0  0  0
 52 46  1  1  0  0  0
 52 50  1  0  0  0  0
 53 56  1  6  0  0  0
 53 48  1  0  0  0  0
 53 57  1  0  0  0  0
 54 59  1  0  0  0  0
 54 52  1  0  0  0  0
 57 58  1  1  0  0  0
 59 56  1  1  0  0  0
 59 47  1  0  0  0  0
M  END
>  <MODEL>
5

>  <REMARK>
 VINA RESULT:      -7.2      2.493      4.981
  Name = 
  16 active torsions:
  status: ('A' for Active; 'I' for Inactive)
    1  A    between atoms: C_1  and  C_18
    2  A    between atoms: C_3  and  C_46
    3  A    between atoms: O_4  and  C_34
    4  A    between atoms: O_4  and  O_50
    5  A    between atoms: C_6  and  O_50
    6  A    between atoms: N_9  and  C_27
    7  A    between atoms: N_9  and  C_32
    8  A    between atoms: C_14  and  C_26
    9  A    between atoms: C_15  and  O_42
   10  A    between atoms: C_18  and  C_27
   11  A    between atoms: C_23  and  C_25
   12  A    between atoms: C_25  and  C_34
   13  A    between atoms: C_26  and  C_46
   14  A    between atoms: C_32  and  C_38
   15  A    between atoms: C_33  and  C_49
   16  A    between atoms: C_56  and  C_59
                            x       y       z     vdW  Elec       q    Type
                         _______ _______ _______ _____ _____    ______ ____

>  <TORSDO>
F 16

$$$$
=
 OpenBabel10232409113D

 59 65  0  0  1  0  0  0  0  0999 V2000
  189.3350  177.6120  140.3790 C   0  0  0  0  0  0  0  0  0  0  0  0
  189.2170  177.5350  137.8610 C   0  0  0  0  0  0  0  0  0  0  0  0
  188.4100  178.7860  140.4160 C   0  0  0  0  0  2  0  0  0  0  0  0
  186.8800  178.0400  138.6460 C   0  0  0  0  0  3  0  0  0  0  0  0
  187.9410  177.9470  137.6250 C   0  0  0  0  0  0  0  0  0  0  0  0
  190.7500  175.9880  139.1580 C   0  0  0  0  0  1  0  0  0  0  0  0
  189.7100  177.0690  139.1940 C   0  0  0  0  0  0  0  0  0  0  0  0
  187.5400  178.2150  136.3610 F   0  0  0  0  0  0  0  0  0  0  0  0
  187.0660  178.3770  139.9190 C   0  0  0  0  0  0  0  0  0  0  0  0
  184.9650  178.4080  141.5210 C   0  0  0  0  0  0  0  0  0  0  0  0
  185.9340  178.3860  140.8030 C   0  0  0  0  0  0  0  0  0  0  0  0
  183.7720  178.4560  142.3690 C   0  0  0  0  0  2  0  0  0  0  0  0
  182.6830  179.2750  141.6980 C   0  0  0  0  0  2  0  0  0  0  0  0
  181.3040  177.5180  138.6610 N   0  0  0  0  0  2  0  0  0  0  0  0
  182.3900  178.7320  140.3350 C   0  0  0  0  0  0  0  0  0  0  0  0
  181.4410  177.7320  140.0450 N   0  0  0  0  0  0  0  0  0  0  0  0
  182.9060  179.1660  139.2120 C   0  0  0  0  0  0  0  0  0  0  0  0
  183.8460  180.1920  139.1170 O   0  0  0  0  0  1  0  0  0  0  0  0
  182.3010  178.4280  138.0570 C   0  0  1  0  0  3  0  0  0  0  0  0
  180.5870  177.0840  141.0250 C   0  0  0  0  0  1  0  0  0  0  0  0
  184.2930  176.9480  135.0400 C   0  0  0  0  0  2  0  0  0  0  0  0
  184.4750  175.3810  136.9990 C   0  0  2  0  0  3  0  0  0  0  0  0
  183.1840  177.7150  135.7580 C   0  0  1  0  0  3  0  0  0  0  0  0
  181.8160  177.2430  135.2860 C   0  0  0  0  0  1  0  0  0  0  0  0
  183.3580  177.6230  137.2860 C   0  0  2  0  0  3  0  0  0  0  0  0
  183.3780  176.1600  137.7420 C   0  0  0  0  0  2  0  0  0  0  0  0
  184.3310  175.4840  135.4730 C   0  0  0  0  0  2  0  0  0  0  0  0
  184.6070  174.0430  137.4540 O   0  0  0  0  0  0  0  0  0  0  0  0
  185.9600  173.6490  137.3390 C   0  0  0  0  0  1  0  0  0  0  0  0
  189.7980  177.0900  141.6850 C   0  0  0  0  0  0  0  0  0  0  0  0
  189.2130  176.1240  142.2300 O   0  0  0  0  0  0  0  0  0  0  0  0
  190.9530  177.7200  142.3870 C   0  0  0  0  0  2  0  0  0  0  0  0
  191.4230  176.8550  143.4590 N   0  0  0  0  0  2  0  0  0  0  0  0
  190.7500  178.8600  144.4490 O   0  0  0  0  0  1  0  0  0  0  0  0
  191.2520  177.5810  144.7120 C   0  0  1  0  0  3  0  0  0  0  0  0
  190.5570  177.1740  146.9860 O   0  0  0  0  0  0  0  0  0  0  0  0
  189.3480  177.6760  147.5310 C   0  0  0  0  0  2  0  0  0  0  0  0
  187.1480  177.9930  146.5190 N   0  0  0  0  0  2  0  0  0  0  0  0
  188.3790  177.6160  146.4450 C   0  0  0  0  0  0  0  0  0  0  0  0
  188.9560  177.1100  145.3290 O   0  0  0  0  0  0  0  0  0  0  0  0
  190.3060  176.8200  145.6340 C   0  0  1  0  0  3  0  0  0  0  0  0
  190.1480  177.4430  136.8090 O   0  0  0  0  0  0  0  0  0  0  0  0
  190.1100  176.4940  135.8600 O   0  0  0  0  0  0  0  0  0  0  0  0
  191.4120  176.4240  135.3540 C   0  0  0  0  0  2  0  0  0  0  0  0
  192.3910  174.3870  134.5420 O   0  0  0  0  0  1  0  0  0  0  0  0
  192.0520  175.0850  135.7050 C   0  0  1  0  0  3  0  0  0  0  0  0
  194.9830  173.9800  137.6140 C   0  0  2  0  0  0  0  0  0  0  0  0
  197.3830  171.7290  135.6290 C   0  0  0  0  0  2  0  0  0  0  0  0
  195.4290  171.7740  138.4770 O   0  0  0  0  0  0  0  0  0  0  0  0
  193.5030  174.0140  137.4300 C   0  0  0  0  0  2  0  0  0  0  0  0
  195.4970  172.5410  137.5260 C   0  0  0  0  0  0  0  0  0  0  0  0
  193.2710  175.2590  136.6090 C   0  0  1  0  0  3  0  0  0  0  0  0
  197.1510  173.1350  136.0870 C   0  0  1  0  0  3  0  0  0  0  0  0
  194.4210  175.5460  135.8500 O   0  0  0  0  0  0  0  0  0  0  0  0
  195.3460  174.5900  138.9590 C   0  0  0  0  0  1  0  0  0  0  0  0
  196.4240  174.2780  135.4160 C   0  0  0  0  0  2  0  0  0  0  0  0
  196.0280  172.0760  136.2110 C   0  0  1  0  0  0  0  0  0  0  0  0
  195.0700  172.0950  135.2060 F   0  0  0  0  0  0  0  0  0  0  0  0
  195.5040  174.9190  136.4870 C   0  0  2  0  0  3  0  0  0  0  0  0
  1  3  1  0  0  0  0
  1 30  1  0  0  0  0
  2  7  1  0  0  0  0
  4  9  2  0  0  0  0
  5  2  2  0  0  0  0
  5  4  1  0  0  0  0
  6  7  1  0  0  0  0
  7  1  2  0  0  0  0
  8  5  1  0  0  0  0
  9  3  1  0  0  0  0
  9 11  1  0  0  0  0
 10 12  1  0  0  0  0
 11 10  3  0  0  0  0
 13 12  1  0  0  0  0
 14 16  1  0  0  0  0
 15 13  1  0  0  0  0
 16 15  1  0  0  0  0
 16 20  1  0  0  0  0
 17 15  2  0  0  0  0
 18 17  1  0  0  0  0
 19 14  1  1  0  0  0
 19 17  1  0  0  0  0
 21 27  1  0  0  0  0
 21 23  1  0  0  0  0
 22 28  1  6  0  0  0
 22 26  1  0  0  0  0
 23 24  1  1  0  0  0
 23 25  1  0  0  0  0
 25 26  1  1  0  0  0
 25 19  1  0  0  0  0
 27 22  1  0  0  0  0
 29 28  1  0  0  0  0
 30 31  2  0  0  0  0
 30 32  1  0  0  0  0
 32 33  1  0  0  0  0
 33 35  1  0  0  0  0
 35 34  1  6  0  0  0
 36 37  1  0  0  0  0
 39 38  2  0  0  0  0
 39 37  1  0  0  0  0
 40 41  1  0  0  0  0
 40 39  1  0  0  0  0
 41 35  1  6  0  0  0
 41 36  1  0  0  0  0
 42  2  1  0  0  0  0
 43 42  1  0  0  0  0
 44 46  1  0  0  0  0
 44 43  1  0  0  0  0
 46 45  1  6  0  0  0
 47 55  1  1  0  0  0
 48 53  1  0  0  0  0
 48 57  1  0  0  0  0
 50 47  1  0  0  0  0
 51 47  1  0  0  0  0
 51 49  2  0  0  0  0
 52 46  1  6  0  0  0
 52 50  1  0  0  0  0
 53 56  1  6  0  0  0
 53 57  1  0  0  0  0
 54 59  1  0  0  0  0
 54 52  1  0  0  0  0
 57 58  1  6  0  0  0
 57 51  1  0  0  0  0
 59 56  1  6  0  0  0
 59 47  1  0  0  0  0
M  END
>  <MODEL>
6

>  <REMARK>
 VINA RESULT:      -7.0      2.186      4.673
  Name = 
  16 active torsions:
  status: ('A' for Active; 'I' for Inactive)
    1  A    between atoms: C_1  and  C_18
    2  A    between atoms: C_3  and  C_46
    3  A    between atoms: O_4  and  C_34
    4  A    between atoms: O_4  and  O_50
    5  A    between atoms: C_6  and  O_50
    6  A    between atoms: N_9  and  C_27
    7  A    between atoms: N_9  and  C_32
    8  A    between atoms: C_14  and  C_26
    9  A    between atoms: C_15  and  O_42
   10  A    between atoms: C_18  and  C_27
   11  A    between atoms: C_23  and  C_25
   12  A    between atoms: C_25  and  C_34
   13  A    between atoms: C_26  and  C_46
   14  A    between atoms: C_32  and  C_38
   15  A    between atoms: C_33  and  C_49
   16  A    between atoms: C_56  and  C_59
                            x       y       z     vdW  Elec       q    Type
                         _______ _______ _______ _____ _____    ______ ____

>  <TORSDO>
F 16

$$$$
=
 OpenBabel10232409113D

 59 65  0  0  1  0  0  0  0  0999 V2000
  187.9330  174.9940  136.1650 C   0  0  0  0  0  0  0  0  0  0  0  0
  187.9150  177.4670  136.6590 C   0  0  0  0  0  0  0  0  0  0  0  0
  187.0510  174.7220  137.3420 C   0  0  0  0  0  2  0  0  0  0  0  0
  185.5680  176.6610  137.0800 C   0  0  0  0  0  3  0  0  0  0  0  0
  186.6650  177.6440  137.1690 C   0  0  0  0  0  0  0  0  0  0  0  0
  189.3360  176.5050  134.7930 C   0  0  0  0  0  1  0  0  0  0  0  0
  188.3360  176.2580  135.8840 C   0  0  0  0  0  0  0  0  0  0  0  0
  186.3260  178.8270  137.7320 F   0  0  0  0  0  0  0  0  0  0  0  0
  185.7140  175.3400  137.1160 C   0  0  0  0  0  0  0  0  0  0  0  0
  183.5510  173.8430  136.8700 C   0  0  0  0  0  0  0  0  0  0  0  0
  184.5490  174.5120  136.9780 C   0  0  0  0  0  0  0  0  0  0  0  0
  182.3200  173.0590  136.7570 C   0  0  0  0  0  2  0  0  0  0  0  0
  181.2290  173.8830  136.0960 C   0  0  0  0  0  2  0  0  0  0  0  0
  180.7590  177.4150  137.3270 N   0  0  0  0  0  2  0  0  0  0  0  0
  180.9760  175.1330  136.8790 C   0  0  0  0  0  0  0  0  0  0  0  0
  181.2080  176.4420  136.4140 N   0  0  0  0  0  0  0  0  0  0  0  0
  180.4260  175.1940  138.0640 C   0  0  0  0  0  0  0  0  0  0  0  0
  180.0160  174.0860  138.8060 O   0  0  0  0  0  1  0  0  0  0  0  0
  180.2640  176.6260  138.4760 C   0  0  1  0  0  3  0  0  0  0  0  0
  181.7130  176.7830  135.0960 C   0  0  0  0  0  1  0  0  0  0  0  0
  181.1870  178.1450  141.9540 C   0  0  0  0  0  2  0  0  0  0  0  0
  183.2930  177.7610  140.6360 C   0  0  2  0  0  3  0  0  0  0  0  0
  180.3560  177.9060  140.6950 C   0  0  1  0  0  3  0  0  0  0  0  0
  179.9830  179.2300  140.0430 C   0  0  0  0  0  1  0  0  0  0  0  0
  181.0840  176.9470  139.7350 C   0  0  2  0  0  3  0  0  0  0  0  0
  182.4680  177.4930  139.3670 C   0  0  0  0  0  2  0  0  0  0  0  0
  182.5700  178.6960  141.6160 C   0  0  0  0  0  2  0  0  0  0  0  0
  184.6220  178.1740  140.3540 O   0  0  0  0  0  0  0  0  0  0  0  0
  185.0010  179.1700  141.2820 C   0  0  0  0  0  1  0  0  0  0  0  0
  188.3230  173.8250  135.3440 C   0  0  0  0  0  0  0  0  0  0  0  0
  187.6170  173.4620  134.3730 O   0  0  0  0  0  0  0  0  0  0  0  0
  189.5500  173.0440  135.6720 C   0  0  0  0  0  2  0  0  0  0  0  0
  190.5750  173.2690  134.6630 N   0  0  0  0  0  2  0  0  0  0  0  0
  192.8920  173.2450  134.3790 O   0  0  0  0  0  1  0  0  0  0  0  0
  191.8680  173.2030  135.3310 C   0  0  1  0  0  3  0  0  0  0  0  0
  192.7850  173.9570  137.4320 O   0  0  0  0  0  0  0  0  0  0  0  0
  193.8960  174.8340  137.5260 C   0  0  0  0  0  2  0  0  0  0  0  0
  194.5670  176.7200  136.1270 N   0  0  0  0  0  2  0  0  0  0  0  0
  193.7530  175.7620  136.4120 C   0  0  0  0  0  0  0  0  0  0  0  0
  192.6370  175.4730  135.7010 O   0  0  0  0  0  0  0  0  0  0  0  0
  192.0100  174.3620  136.3130 C   0  0  1  0  0  3  0  0  0  0  0  0
  188.8840  178.4830  136.7620 O   0  0  0  0  0  0  0  0  0  0  0  0
  189.2840  179.0170  137.9270 O   0  0  0  0  0  0  0  0  0  0  0  0
  189.5870  177.9270  138.7490 C   0  0  0  0  0  2  0  0  0  0  0  0
  188.1400  178.7180  140.4940 O   0  0  0  0  0  1  0  0  0  0  0  0
  189.4480  178.3080  140.2190 C   0  0  1  0  0  3  0  0  0  0  0  0
  190.6580  176.8050  143.3390 C   0  0  2  0  0  0  0  0  0  0  0  0
  188.8110  178.0260  146.4800 C   0  0  0  0  0  2  0  0  0  0  0  0
  191.9600  177.8600  145.0700 O   0  0  0  0  0  0  0  0  0  0  0  0
  190.9110  177.6360  142.1260 C   0  0  0  0  0  2  0  0  0  0  0  0
  190.8500  177.6420  144.6060 C   0  0  0  0  0  0  0  0  0  0  0  0
  189.8650  177.1660  141.1430 C   0  0  1  0  0  3  0  0  0  0  0  0
  188.8840  176.9140  145.4810 C   0  0  1  0  0  3  0  0  0  0  0  0
  188.7550  176.6560  141.8420 O   0  0  0  0  0  0  0  0  0  0  0  0
  191.5970  175.6100  143.3460 C   0  0  0  0  0  1  0  0  0  0  0  0
  188.1490  176.7200  144.1730 C   0  0  0  0  0  2  0  0  0  0  0  0
  189.6340  178.2440  145.2260 C   0  0  1  0  0  0  0  0  0  0  0  0
  188.9920  179.1470  144.3890 F   0  0  0  0  0  0  0  0  0  0  0  0
  189.2040  176.2900  143.1220 C   0  0  2  0  0  3  0  0  0  0  0  0
  1  3  1  0  0  0  0
  2 42  1  0  0  0  0
  2  5  2  0  0  0  0
  4  9  2  0  0  0  0
  4  5  1  0  0  0  0
  5  8  1  0  0  0  0
  6  7  1  0  0  0  0
  7  1  2  0  0  0  0
  7  2  1  0  0  0  0
  9  3  1  0  0  0  0
 10 11  3  0  0  0  0
 11  9  1  0  0  0  0
 12 10  1  0  0  0  0
 13 12  1  0  0  0  0
 13 15  1  0  0  0  0
 15 17  2  0  0  0  0
 16 15  1  0  0  0  0
 16 14  1  0  0  0  0
 17 19  1  0  0  0  0
 17 18  1  0  0  0  0
 19 14  1  6  0  0  0
 19 25  1  0  0  0  0
 20 16  1  0  0  0  0
 22 28  1  6  0  0  0
 22 27  1  0  0  0  0
 23 24  1  6  0  0  0
 23 21  1  0  0  0  0
 25 26  1  6  0  0  0
 25 23  1  0  0  0  0
 26 22  1  0  0  0  0
 27 21  1  0  0  0  0
 28 29  1  0  0  0  0
 30 32  1  0  0  0  0
 30  1  1  0  0  0  0
 31 30  2  0  0  0  0
 33 35  1  0  0  0  0
 33 32  1  0  0  0  0
 35 34  1  6  0  0  0
 36 37  1  0  0  0  0
 38 39  2  0  0  0  0
 39 37  1  0  0  0  0
 40 41  1  0  0  0  0
 40 39  1  0  0  0  0
 41 35  1  6  0  0  0
 41 36  1  0  0  0  0
 42 43  1  0  0  0  0
 43 44  1  0  0  0  0
 44 46  1  0  0  0  0
 46 45  1  1  0  0  0
 47 55  1  1  0  0  0
 47 51  1  0  0  0  0
 50 47  1  0  0  0  0
 51 49  2  0  0  0  0
 51 57  1  0  0  0  0
 52 46  1  1  0  0  0
 52 54  1  0  0  0  0
 52 50  1  0  0  0  0
 53 56  1  6  0  0  0
 53 48  1  0  0  0  0
 54 59  1  0  0  0  0
 57 58  1  6  0  0  0
 57 53  1  0  0  0  0
 57 48  1  0  0  0  0
 59 47  1  0  0  0  0
 59 56  1  1  0  0  0
M  END
>  <MODEL>
7

>  <REMARK>
 VINA RESULT:      -7.0      3.768      7.591
  Name = 
  16 active torsions:
  status: ('A' for Active; 'I' for Inactive)
    1  A    between atoms: C_1  and  C_18
    2  A    between atoms: C_3  and  C_46
    3  A    between atoms: O_4  and  C_34
    4  A    between atoms: O_4  and  O_50
    5  A    between atoms: C_6  and  O_50
    6  A    between atoms: N_9  and  C_27
    7  A    between atoms: N_9  and  C_32
    8  A    between atoms: C_14  and  C_26
    9  A    between atoms: C_15  and  O_42
   10  A    between atoms: C_18  and  C_27
   11  A    between atoms: C_23  and  C_25
   12  A    between atoms: C_25  and  C_34
   13  A    between atoms: C_26  and  C_46
   14  A    between atoms: C_32  and  C_38
   15  A    between atoms: C_33  and  C_49
   16  A    between atoms: C_56  and  C_59
                            x       y       z     vdW  Elec       q    Type
                         _______ _______ _______ _____ _____    ______ ____

>  <TORSDO>
F 16

$$$$
=
 OpenBabel10232409113D

 59 65  0  0  1  0  0  0  0  0999 V2000
  189.5940  176.9970  140.1720 C   0  0  0  0  0  0  0  0  0  0  0  0
  187.7290  178.1740  138.9470 C   0  0  0  0  0  0  0  0  0  0  0  0
  189.7890  176.0540  139.0280 C   0  0  0  0  0  2  0  0  0  0  0  0
  189.4900  177.6850  137.2170 C   0  0  0  0  0  3  0  0  0  0  0  0
  188.1350  178.0740  137.6520 C   0  0  0  0  0  0  0  0  0  0  0  0
  188.3410  178.7920  141.3290 C   0  0  0  0  0  1  0  0  0  0  0  0
  188.6270  177.9470  140.1230 C   0  0  0  0  0  0  0  0  0  0  0  0
  187.2970  178.4350  136.6520 F   0  0  0  0  0  0  0  0  0  0  0  0
  190.2730  176.8080  137.8370 C   0  0  0  0  0  0  0  0  0  0  0  0
  192.6780  176.3290  136.8520 C   0  0  0  0  0  0  0  0  0  0  0  0
  191.5870  176.5620  137.3110 C   0  0  0  0  0  0  0  0  0  0  0  0
  193.9900  176.0120  136.2850 C   0  0  0  0  0  2  0  0  0  0  0  0
  193.8320  175.3560  134.9250 C   0  0  0  0  0  2  0  0  0  0  0  0
  194.0010  171.5910  135.0140 N   0  0  0  0  0  2  0  0  0  0  0  0
  194.2310  173.9160  134.9930 C   0  0  0  0  0  0  0  0  0  0  0  0
  193.3380  172.8300  135.0940 N   0  0  0  0  0  0  0  0  0  0  0  0
  195.4500  173.4540  134.8800 C   0  0  0  0  0  0  0  0  0  0  0  0
  196.5850  174.2470  134.7110 O   0  0  0  0  0  1  0  0  0  0  0  0
  195.4310  171.9550  134.9140 C   0  0  1  0  0  3  0  0  0  0  0  0
  191.8910  172.9410  135.1320 C   0  0  0  0  0  1  0  0  0  0  0  0
  198.4420  170.7500  137.0900 C   0  0  0  0  0  2  0  0  0  0  0  0
  196.3500  169.5880  137.8600 C   0  0  2  0  0  3  0  0  0  0  0  0
  197.7110  171.2390  135.8410 C   0  0  1  0  0  3  0  0  0  0  0  0
  197.9950  170.3200  134.6620 C   0  0  0  0  0  1  0  0  0  0  0  0
  196.2060  171.4090  136.1230 C   0  0  2  0  0  3  0  0  0  0  0  0
  195.5950  170.0950  136.6200 C   0  0  0  0  0  2  0  0  0  0  0  0
  197.8560  169.4380  137.6040 C   0  0  0  0  0  2  0  0  0  0  0  0
  195.7650  168.4250  138.4260 O   0  0  0  0  0  0  0  0  0  0  0  0
  194.7110  168.8110  139.2850 C   0  0  0  0  0  1  0  0  0  0  0  0
  190.5040  176.8350  141.3280 C   0  0  0  0  0  0  0  0  0  0  0  0
  191.6230  177.4030  141.3450 O   0  0  0  0  0  0  0  0  0  0  0  0
  190.1170  175.9760  142.4830 C   0  0  0  0  0  2  0  0  0  0  0  0
  190.7350  176.4680  143.7060 N   0  0  0  0  0  2  0  0  0  0  0  0
  188.5400  177.0110  144.2890 O   0  0  0  0  0  1  0  0  0  0  0  0
  189.8540  177.4890  144.2600 C   0  0  1  0  0  3  0  0  0  0  0  0
  189.4450  177.2910  146.6290 O   0  0  0  0  0  0  0  0  0  0  0  0
  190.2360  176.4890  147.4910 C   0  0  0  0  0  2  0  0  0  0  0  0
  192.6330  176.0180  147.4850 N   0  0  0  0  0  2  0  0  0  0  0  0
  191.5980  176.6060  146.9880 C   0  0  0  0  0  0  0  0  0  0  0  0
  191.6310  177.4220  145.9080 O   0  0  0  0  0  0  0  0  0  0  0  0
  190.3110  177.8700  145.6640 C   0  0  1  0  0  3  0  0  0  0  0  0
  186.4220  178.5920  139.2620 O   0  0  0  0  0  0  0  0  0  0  0  0
  185.5640  179.0990  138.3620 O   0  0  0  0  0  0  0  0  0  0  0  0
  184.2910  178.8660  138.8910 C   0  0  0  0  0  2  0  0  0  0  0  0
  182.9450  177.0850  139.7750 O   0  0  0  0  0  1  0  0  0  0  0  0
  183.9600  177.3780  138.8590 C   0  0  1  0  0  3  0  0  0  0  0  0
  184.1110  175.2190  135.8980 C   0  0  2  0  0  0  0  0  0  0  0  0
  183.8630  171.4660  136.6860 C   0  0  0  0  0  2  0  0  0  0  0  0
  185.9320  173.8010  135.2040 O   0  0  0  0  0  0  0  0  0  0  0  0
  184.7490  176.2330  136.7870 C   0  0  0  0  0  2  0  0  0  0  0  0
  184.9300  173.9260  135.8940 C   0  0  0  0  0  0  0  0  0  0  0  0
  183.5780  176.9110  137.4560 C   0  0  1  0  0  3  0  0  0  0  0  0
  183.0770  172.6570  136.2360 C   0  0  1  0  0  3  0  0  0  0  0  0
  182.4830  176.0290  137.5020 O   0  0  0  0  0  0  0  0  0  0  0  0
  183.9940  175.7760  134.4880 C   0  0  0  0  0  1  0  0  0  0  0  0
  182.2910  173.6730  137.0350 C   0  0  0  0  0  2  0  0  0  0  0  0
  184.5010  172.8340  136.8160 C   0  0  1  0  0  0  0  0  0  0  0  0
  184.5650  173.2020  138.1540 F   0  0  0  0  0  0  0  0  0  0  0  0
  182.6800  175.0730  136.4930 C   0  0  2  0  0  3  0  0  0  0  0  0
  1 30  1  0  0  0  0
  2 42  1  0  0  0  0
  2  7  1  0  0  0  0
  3  1  1  0  0  0  0
  4  5  1  0  0  0  0
  4  9  2  0  0  0  0
  5  2  2  0  0  0  0
  7  1  2  0  0  0  0
  7  6  1  0  0  0  0
  8  5  1  0  0  0  0
  9  3  1  0  0  0  0
 10 11  3  0  0  0  0
 11  9  1  0  0  0  0
 12 10  1  0  0  0  0
 13 15  1  0  0  0  0
 13 12  1  0  0  0  0
 14 16  1  0  0  0  0
 15 16  1  0  0  0  0
 16 20  1  0  0  0  0
 17 15  2  0  0  0  0
 18 17  1  0  0  0  0
 19 17  1  1  0  0  0
 19 14  1  0  0  0  0
 19 25  1  0  0  0  0
 21 27  1  0  0  0  0
 22 28  1  6  0  0  0
 23 24  1  6  0  0  0
 23 25  1  0  0  0  0
 23 21  1  0  0  0  0
 25 26  1  6  0  0  0
 26 22  1  0  0  0  0
 27 22  1  0  0  0  0
 28 29  1  0  0  0  0
 30 31  2  0  0  0  0
 30 32  1  0  0  0  0
 32 33  1  0  0  0  0
 33 35  1  0  0  0  0
 35 34  1  1  0  0  0
 36 37  1  0  0  0  0
 39 38  2  0  0  0  0
 39 37  1  0  0  0  0
 40 39  1  0  0  0  0
 41 35  1  6  0  0  0
 41 40  1  0  0  0  0
 41 36  1  0  0  0  0
 43 44  1  0  0  0  0
 43 42  1  0  0  0  0
 46 44  1  0  0  0  0
 46 45  1  1  0  0  0
 47 55  1  6  0  0  0
 47 59  1  0  0  0  0
 47 50  1  0  0  0  0
 48 57  1  0  0  0  0
 49 51  2  0  0  0  0
 50 52  1  0  0  0  0
 51 47  1  0  0  0  0
 51 57  1  0  0  0  0
 52 54  1  0  0  0  0
 52 46  1  1  0  0  0
 53 48  1  1  0  0  0
 53 57  1  0  0  0  0
 53 56  1  0  0  0  0
 57 58  1  1  0  0  0
 59 56  1  1  0  0  0
 59 54  1  0  0  0  0
M  END
>  <MODEL>
8

>  <REMARK>
 VINA RESULT:      -6.9      3.088     10.670
  Name = 
  16 active torsions:
  status: ('A' for Active; 'I' for Inactive)
    1  A    between atoms: C_1  and  C_18
    2  A    between atoms: C_3  and  C_46
    3  A    between atoms: O_4  and  C_34
    4  A    between atoms: O_4  and  O_50
    5  A    between atoms: C_6  and  O_50
    6  A    between atoms: N_9  and  C_27
    7  A    between atoms: N_9  and  C_32
    8  A    between atoms: C_14  and  C_26
    9  A    between atoms: C_15  and  O_42
   10  A    between atoms: C_18  and  C_27
   11  A    between atoms: C_23  and  C_25
   12  A    between atoms: C_25  and  C_34
   13  A    between atoms: C_26  and  C_46
   14  A    between atoms: C_32  and  C_38
   15  A    between atoms: C_33  and  C_49
   16  A    between atoms: C_56  and  C_59
                            x       y       z     vdW  Elec       q    Type
                         _______ _______ _______ _____ _____    ______ ____

>  <TORSDO>
F 16

$$$$
=
 OpenBabel10232409113D

 59 65  0  0  1  0  0  0  0  0999 V2000
  189.0710  177.3210  137.9990 C   0  0  0  0  0  0  0  0  0  0  0  0
  188.8240  175.6870  136.0930 C   0  0  0  0  0  0  0  0  0  0  0  0
  188.2030  178.3160  137.2960 C   0  0  0  0  0  2  0  0  0  0  0  0
  186.5550  176.7270  136.4080 C   0  0  0  0  0  3  0  0  0  0  0  0
  187.5580  175.9420  135.6640 C   0  0  0  0  0  0  0  0  0  0  0  0
  190.3480  175.2000  138.0610 C   0  0  0  0  0  1  0  0  0  0  0  0
  189.3620  176.1300  137.4180 C   0  0  0  0  0  0  0  0  0  0  0  0
  187.1080  175.3830  134.5170 F   0  0  0  0  0  0  0  0  0  0  0  0
  186.8190  177.7760  137.1820 C   0  0  0  0  0  0  0  0  0  0  0  0
  184.8190  178.9220  138.4740 C   0  0  0  0  0  0  0  0  0  0  0  0
  185.7340  178.4140  137.8740 C   0  0  0  0  0  0  0  0  0  0  0  0
  183.7000  179.5050  139.2170 C   0  0  0  0  0  2  0  0  0  0  0  0
  182.4060  179.3310  138.4430 C   0  0  0  0  0  2  0  0  0  0  0  0
  181.6120  175.6460  138.5170 N   0  0  0  0  0  2  0  0  0  0  0  0
  182.1700  177.8830  138.1440 C   0  0  0  0  0  0  0  0  0  0  0  0
  181.9140  176.8870  139.1070 N   0  0  0  0  0  0  0  0  0  0  0  0
  182.0820  177.3530  136.9510 C   0  0  0  0  0  0  0  0  0  0  0  0
  182.2300  178.0600  135.7580 O   0  0  0  0  0  1  0  0  0  0  0  0
  181.7560  175.8950  137.0660 C   0  0  1  0  0  3  0  0  0  0  0  0
  181.8220  177.1140  140.5390 C   0  0  0  0  0  1  0  0  0  0  0  0
  183.5010  173.1210  134.9410 C   0  0  0  0  0  2  0  0  0  0  0  0
  184.8760  173.5750  136.9960 C   0  0  2  0  0  3  0  0  0  0  0  0
  182.3460  173.9240  135.5370 C   0  0  1  0  0  3  0  0  0  0  0  0
  181.3400  172.9970  136.2040 C   0  0  0  0  0  1  0  0  0  0  0  0
  182.8750  175.0190  136.4830 C   0  0  2  0  0  3  0  0  0  0  0  0
  183.7310  174.4070  137.5970 C   0  0  0  0  0  2  0  0  0  0  0  0
  184.3680  172.4950  136.0300 C   0  0  0  0  0  2  0  0  0  0  0  0
  185.7640  173.0650  137.9810 O   0  0  0  0  0  0  0  0  0  0  0  0
  186.9720  172.6810  137.3560 C   0  0  0  0  0  1  0  0  0  0  0  0
  189.5740  177.7060  139.3370 C   0  0  0  0  0  0  0  0  0  0  0  0
  190.8010  177.6610  139.5950 O   0  0  0  0  0  0  0  0  0  0  0  0
  188.6290  178.1330  140.4080 C   0  0  0  0  0  2  0  0  0  0  0  0
  188.7880  177.2890  141.5840 N   0  0  0  0  0  2  0  0  0  0  0  0
  186.7370  178.1830  142.2550 O   0  0  0  0  0  1  0  0  0  0  0  0
  188.0450  177.9130  142.6720 C   0  0  1  0  0  3  0  0  0  0  0  0
  189.2910  177.0460  144.5480 O   0  0  0  0  0  0  0  0  0  0  0  0
  189.0620  177.4510  145.8880 C   0  0  0  0  0  2  0  0  0  0  0  0
  186.9950  178.0360  147.0500 N   0  0  0  0  0  2  0  0  0  0  0  0
  187.6230  177.6510  145.9920 C   0  0  0  0  0  0  0  0  0  0  0  0
  187.0250  177.3820  144.8070 O   0  0  0  0  0  0  0  0  0  0  0  0
  188.0330  176.9970  143.8920 C   0  0  1  0  0  3  0  0  0  0  0  0
  189.6980  174.8920  135.3270 O   0  0  0  0  0  0  0  0  0  0  0  0
  190.7400  175.3820  134.6370 O   0  0  0  0  0  0  0  0  0  0  0  0
  191.6400  174.3180  134.5200 C   0  0  0  0  0  2  0  0  0  0  0  0
  192.9180  175.9440  135.7420 O   0  0  0  0  0  1  0  0  0  0  0  0
  192.9810  174.6770  135.1520 C   0  0  1  0  0  3  0  0  0  0  0  0
  195.4050  172.6420  137.0050 C   0  0  2  0  0  0  0  0  0  0  0  0
  198.2840  174.6630  138.5510 C   0  0  0  0  0  2  0  0  0  0  0  0
  197.6540  172.0760  136.3510 O   0  0  0  0  0  0  0  0  0  0  0  0
  194.7210  172.9820  135.7240 C   0  0  0  0  0  2  0  0  0  0  0  0
  196.9110  172.8880  136.8850 C   0  0  0  0  0  0  0  0  0  0  0  0
  193.4300  173.6280  136.1660 C   0  0  1  0  0  3  0  0  0  0  0  0
  196.9630  174.0280  138.8490 C   0  0  1  0  0  3  0  0  0  0  0  0
  193.6000  174.2020  137.4400 O   0  0  0  0  0  0  0  0  0  0  0  0
  195.1330  171.1890  137.3610 C   0  0  0  0  0  1  0  0  0  0  0  0
  195.5630  174.5950  138.7810 C   0  0  0  0  0  2  0  0  0  0  0  0
  197.4400  174.1900  137.3860 C   0  0  1  0  0  0  0  0  0  0  0  0
  196.9220  175.2820  136.7010 F   0  0  0  0  0  0  0  0  0  0  0  0
  194.6860  173.5490  138.0460 C   0  0  2  0  0  3  0  0  0  0  0  0
  1 30  1  0  0  0  0
  2  7  1  0  0  0  0
  3  1  1  0  0  0  0
  4  9  2  0  0  0  0
  5  2  2  0  0  0  0
  5  4  1  0  0  0  0
  7  1  2  0  0  0  0
  7  6  1  0  0  0  0
  8  5  1  0  0  0  0
  9  3  1  0  0  0  0
  9 11  1  0  0  0  0
 10 12  1  0  0  0  0
 11 10  3  0  0  0  0
 13 12  1  0  0  0  0
 14 16  1  0  0  0  0
 15 13  1  0  0  0  0
 15 16  1  0  0  0  0
 16 20  1  0  0  0  0
 17 15  2  0  0  0  0
 18 17  1  0  0  0  0
 19 17  1  1  0  0  0
 19 14  1  0  0  0  0
 21 23  1  0  0  0  0
 21 27  1  0  0  0  0
 22 26  1  0  0  0  0
 22 28  1  1  0  0  0
 23 24  1  1  0  0  0
 23 25  1  0  0  0  0
 25 19  1  0  0  0  0
 25 26  1  1  0  0  0
 27 22  1  0  0  0  0
 29 28  1  0  0  0  0
 30 31  2  0  0  0  0
 30 32  1  0  0  0  0
 32 33  1  0  0  0  0
 33 35  1  0  0  0  0
 35 34  1  6  0  0  0
 36 37  1  0  0  0  0
 37 39  1  0  0  0  0
 39 38  2  0  0  0  0
 40 39  1  0  0  0  0
 41 35  1  6  0  0  0
 41 36  1  0  0  0  0
 41 40  1  0  0  0  0
 42  2  1  0  0  0  0
 43 42  1  0  0  0  0
 44 43  1  0  0  0  0
 44 46  1  0  0  0  0
 46 45  1  1  0  0  0
 47 55  1  1  0  0  0
 47 59  1  0  0  0  0
 49 51  2  0  0  0  0
 50 52  1  0  0  0  0
 50 47  1  0  0  0  0
 51 47  1  0  0  0  0
 51 57  1  0  0  0  0
 52 46  1  6  0  0  0
 52 54  1  0  0  0  0
 53 48  1  1  0  0  0
 54 59  1  0  0  0  0
 56 53  1  0  0  0  0
 57 58  1  6  0  0  0
 57 48  1  0  0  0  0
 57 53  1  0  0  0  0
 59 56  1  6  0  0  0
M  END
>  <MODEL>
9

>  <REMARK>
 VINA RESULT:      -6.9      2.410      4.516
  Name = 
  16 active torsions:
  status: ('A' for Active; 'I' for Inactive)
    1  A    between atoms: C_1  and  C_18
    2  A    between atoms: C_3  and  C_46
    3  A    between atoms: O_4  and  C_34
    4  A    between atoms: O_4  and  O_50
    5  A    between atoms: C_6  and  O_50
    6  A    between atoms: N_9  and  C_27
    7  A    between atoms: N_9  and  C_32
    8  A    between atoms: C_14  and  C_26
    9  A    between atoms: C_15  and  O_42
   10  A    between atoms: C_18  and  C_27
   11  A    between atoms: C_23  and  C_25
   12  A    between atoms: C_25  and  C_34
   13  A    between atoms: C_26  and  C_46
   14  A    between atoms: C_32  and  C_38
   15  A    between atoms: C_33  and  C_49
   16  A    between atoms: C_56  and  C_59
                            x       y       z     vdW  Elec       q    Type
                         _______ _______ _______ _____ _____    ______ ____

>  <TORSDO>
F 16

$$$$
