=
 OpenBabel10232412293D

 29 32  0  0  1  0  0  0  0  0999 V2000
  188.5700  177.2930  144.8580 C   0  0  2  0  0  0  0  0  0  0  0  0
  189.3030  177.5290  143.5340 C   0  0  1  0  0  3  0  0  0  0  0  0
  188.6350  176.1920  143.8150 C   0  0  0  0  0  2  0  0  0  0  0  0
  185.6440  179.1160  146.4590 C   0  0  0  0  0  3  0  0  0  0  0  0
  187.2060  177.8840  145.0910 C   0  0  0  0  0  0  0  0  0  0  0  0
  184.7250  179.0540  145.4580 N   0  0  0  0  0  0  0  0  0  0  0  0
  186.9020  178.5370  146.2920 C   0  0  0  0  0  3  0  0  0  0  0  0
  184.9970  178.4400  144.2750 C   0  0  0  0  0  0  0  0  0  0  0  0
  186.2520  177.8520  144.0700 C   0  0  0  0  0  3  0  0  0  0  0  0
  183.9550  178.4130  143.2050 C   0  0  2  0  0  3  0  0  0  0  0  0
  184.4410  179.0190  142.0450 O   0  0  0  0  0  1  0  0  0  0  0  0
  182.6880  179.1120  143.6750 C   0  0  0  0  0  2  0  0  0  0  0  0
  181.5740  178.9140  142.6660 C   0  0  0  0  0  1  0  0  0  0  0  0
  188.8960  176.7950  147.2420 C   0  0  0  0  0  2  0  0  0  0  0  0
  189.4450  177.0510  146.0540 C   0  0  0  0  0  0  0  0  0  0  0  0
  190.9290  176.9750  145.8880 C   0  0  0  0  0  2  0  0  0  0  0  0
  191.5730  176.8910  147.1890 N   0  0  0  0  0  2  0  0  0  0  0  0
  192.3420  175.6610  147.1950 C   0  0  0  0  0  1  0  0  0  0  0  0
  188.3260  178.4280  142.2830 S   0  0  0  0  0  0  0  0  0  0  0  0
  191.1000  176.8900  139.8150 C   0  0  0  0  0  3  0  0  0  0  0  0
  190.1180  177.2850  137.5240 C   0  0  0  0  0  2  0  0  0  0  0  0
  186.8710  178.9210  136.9030 N   0  0  0  0  0  1  0  0  0  0  0  0
  190.5950  177.2080  141.0850 C   0  0  0  0  0  2  0  0  0  0  0  0
  187.9840  178.3840  137.6080 C   0  0  0  0  0  0  0  0  0  0  0  0
  190.1620  177.3300  138.9060 C   0  0  0  0  0  0  0  0  0  0  0  0
  189.0800  177.9190  139.6120 C   0  0  0  0  0  0  0  0  0  0  0  0
  189.0210  177.8180  136.9080 N   0  0  0  0  0  0  0  0  0  0  0  0
  189.3570  177.8370  140.9470 C   0  0  0  0  0  0  0  0  0  0  0  0
  188.0070  178.4380  138.9740 N   0  0  0  0  0  2  0  0  0  0  0  0
  1  5  1  0  0  0  0
  1 15  1  1  0  0  0
  2 19  1  6  0  0  0
  2  3  1  0  0  0  0
  2  1  1  0  0  0  0
  3  1  1  0  0  0  0
  5  7  2  0  0  0  0
  6  4  2  0  0  0  0
  7  4  1  0  0  0  0
  8  6  1  0  0  0  0
  9  8  2  0  0  0  0
  9  5  1  0  0  0  0
 10 11  1  6  0  0  0
 10 12  1  0  0  0  0
 10  8  1  0  0  0  0
 13 12  1  0  0  0  0
 15 14  2  0  0  0  0
 16 15  1  0  0  0  0
 16 17  1  0  0  0  0
 17 18  1  0  0  0  0
 20 23  1  0  0  0  0
 21 25  1  0  0  0  0
 22 24  1  0  0  0  0
 24 29  1  0  0  0  0
 25 26  1  0  0  0  0
 25 20  2  0  0  0  0
 26 28  2  0  0  0  0
 27 21  1  0  0  0  0
 27 24  2  0  0  0  0
 28 23  1  0  0  0  0
 28 19  1  0  0  0  0
 29 26  1  0  0  0  0
M  END
>  <MODEL>
1

>  <REMARK>
 VINA RESULT:      -8.7      0.000      0.000
  Name = 
  8 active torsions:
  status: ('A' for Active; 'I' for Inactive)
    1  A    between atoms: C_1  and  C_17
    2  A    between atoms: C_1  and  C_26
    3  A    between atoms: N_2  and  C_28
    4  A    between atoms: C_4  and  C_9
    5  A    between atoms: C_4  and  C_25
    6  A    between atoms: C_6  and  S_16
    7  A    between atoms: S_16  and  C_20
    8  A    between atoms: C_25  and  C_28
                            x       y       z     vdW  Elec       q    Type
                         _______ _______ _______ _____ _____    ______ ____

>  <TORSDO>
F 8

$$$$
=
 OpenBabel10232412293D

 29 32  0  0  1  0  0  0  0  0999 V2000
  189.6780  177.3470  143.6190 C   0  0  2  0  0  0  0  0  0  0  0  0
  189.7130  177.5580  142.1020 C   0  0  1  0  0  3  0  0  0  0  0  0
  189.6680  176.1530  142.6820 C   0  0  0  0  0  2  0  0  0  0  0  0
  187.2240  177.8630  146.4760 C   0  0  0  0  0  3  0  0  0  0  0  0
  188.4050  177.5750  144.3910 C   0  0  0  0  0  0  0  0  0  0  0  0
  186.0740  178.0960  145.7880 N   0  0  0  0  0  0  0  0  0  0  0  0
  188.4110  177.6040  145.7910 C   0  0  0  0  0  3  0  0  0  0  0  0
  186.0420  178.0890  144.4280 C   0  0  0  0  0  0  0  0  0  0  0  0
  187.2150  177.8370  143.7050 C   0  0  0  0  0  3  0  0  0  0  0  0
  184.7530  178.3630  143.7220 C   0  0  2  0  0  3  0  0  0  0  0  0
  184.9570  179.2740  142.6830 O   0  0  0  0  0  1  0  0  0  0  0  0
  183.7150  178.8980  144.6960 C   0  0  0  0  0  2  0  0  0  0  0  0
  182.3360  178.8650  144.0640 C   0  0  0  0  0  1  0  0  0  0  0  0
  191.5540  178.7530  144.3550 C   0  0  0  0  0  2  0  0  0  0  0  0
  190.9800  177.5480  144.3360 C   0  0  0  0  0  0  0  0  0  0  0  0
  191.5740  176.4290  145.1300 C   0  0  0  0  0  2  0  0  0  0  0  0
  191.9000  176.8860  146.4710 N   0  0  0  0  0  2  0  0  0  0  0  0
  192.0470  175.6990  147.2920 C   0  0  0  0  0  1  0  0  0  0  0  0
  188.0930  177.9430  141.3570 S   0  0  0  0  0  0  0  0  0  0  0  0
  190.1680  177.4660  137.9490 C   0  0  0  0  0  3  0  0  0  0  0  0
  188.3660  177.3500  136.1870 C   0  0  0  0  0  2  0  0  0  0  0  0
  184.7520  177.5920  136.8830 N   0  0  0  0  0  1  0  0  0  0  0  0
  190.0670  177.6270  139.3390 C   0  0  0  0  0  2  0  0  0  0  0  0
  186.1560  177.5540  137.1060 C   0  0  0  0  0  0  0  0  0  0  0  0
  188.8780  177.4720  137.4650 C   0  0  0  0  0  0  0  0  0  0  0  0
  187.9810  177.6370  138.5540 C   0  0  0  0  0  0  0  0  0  0  0  0
  187.0080  177.3940  136.0410 N   0  0  0  0  0  0  0  0  0  0  0  0
  188.7230  177.7290  139.6980 C   0  0  0  0  0  0  0  0  0  0  0  0
  186.6410  177.6760  138.3790 N   0  0  0  0  0  2  0  0  0  0  0  0
  1 15  1  1  0  0  0
  1  5  1  0  0  0  0
  2 19  1  6  0  0  0
  2  3  1  0  0  0  0
  2  1  1  0  0  0  0
  3  1  1  0  0  0  0
  5  7  2  0  0  0  0
  6  4  2  0  0  0  0
  7  4  1  0  0  0  0
  8  6  1  0  0  0  0
  9  5  1  0  0  0  0
  9  8  2  0  0  0  0
 10 11  1  6  0  0  0
 10  8  1  0  0  0  0
 10 12  1  0  0  0  0
 13 12  1  0  0  0  0
 15 14  2  0  0  0  0
 15 16  1  0  0  0  0
 16 17  1  0  0  0  0
 17 18  1  0  0  0  0
 20 23  1  0  0  0  0
 21 25  1  0  0  0  0
 22 24  1  0  0  0  0
 23 28  1  0  0  0  0
 24 29  1  0  0  0  0
 25 20  2  0  0  0  0
 25 26  1  0  0  0  0
 26 28  2  0  0  0  0
 27 21  1  0  0  0  0
 27 24  2  0  0  0  0
 28 19  1  0  0  0  0
 29 26  1  0  0  0  0
M  END
>  <MODEL>
2

>  <REMARK>
 VINA RESULT:      -8.6      1.297      1.817
  Name = 
  8 active torsions:
  status: ('A' for Active; 'I' for Inactive)
    1  A    between atoms: C_1  and  C_17
    2  A    between atoms: C_1  and  C_26
    3  A    between atoms: N_2  and  C_28
    4  A    between atoms: C_4  and  C_9
    5  A    between atoms: C_4  and  C_25
    6  A    between atoms: C_6  and  S_16
    7  A    between atoms: S_16  and  C_20
    8  A    between atoms: C_25  and  C_28
                            x       y       z     vdW  Elec       q    Type
                         _______ _______ _______ _____ _____    ______ ____

>  <TORSDO>
F 8

$$$$
=
 OpenBabel10232412293D

 29 32  0  0  1  0  0  0  0  0999 V2000
  189.9250  177.2270  143.3700 C   0  0  2  0  0  0  0  0  0  0  0  0
  190.3330  177.1530  141.8950 C   0  0  1  0  0  3  0  0  0  0  0  0
  190.0980  175.8800  142.6920 C   0  0  0  0  0  2  0  0  0  0  0  0
  186.2180  178.0430  143.1640 C   0  0  0  0  0  3  0  0  0  0  0  0
  188.5130  177.5820  143.7530 C   0  0  0  0  0  0  0  0  0  0  0  0
  185.9020  178.1330  144.4840 N   0  0  0  0  0  0  0  0  0  0  0  0
  187.5270  177.7600  142.7750 C   0  0  0  0  0  3  0  0  0  0  0  0
  186.8360  177.9500  145.4570 C   0  0  0  0  0  0  0  0  0  0  0  0
  188.1600  177.6600  145.1030 C   0  0  0  0  0  3  0  0  0  0  0  0
  186.4300  178.0480  146.8910 C   0  0  2  0  0  3  0  0  0  0  0  0
  185.2880  178.8420  147.0160 O   0  0  0  0  0  1  0  0  0  0  0  0
  187.5640  178.6200  147.7290 C   0  0  0  0  0  2  0  0  0  0  0  0
  188.1050  177.5620  148.6720 C   0  0  0  0  0  1  0  0  0  0  0  0
  191.4190  178.8360  144.4730 C   0  0  0  0  0  2  0  0  0  0  0  0
  191.0230  177.5690  144.3340 C   0  0  0  0  0  0  0  0  0  0  0  0
  191.5880  176.5110  145.2270 C   0  0  0  0  0  2  0  0  0  0  0  0
  191.6530  176.9950  146.5960 N   0  0  0  0  0  2  0  0  0  0  0  0
  192.1280  175.8890  147.4070 C   0  0  0  0  0  1  0  0  0  0  0  0
  188.9560  177.3780  140.7200 S   0  0  0  0  0  0  0  0  0  0  0  0
  191.8240  176.4970  138.0460 C   0  0  0  0  0  3  0  0  0  0  0  0
  190.5230  176.0610  135.9280 C   0  0  0  0  0  2  0  0  0  0  0  0
  186.8510  176.2620  135.6580 N   0  0  0  0  0  1  0  0  0  0  0  0
  191.3760  176.8520  139.3270 C   0  0  0  0  0  2  0  0  0  0  0  0
  188.1540  176.3100  136.2270 C   0  0  0  0  0  0  0  0  0  0  0  0
  190.6970  176.3850  137.2610 C   0  0  0  0  0  0  0  0  0  0  0  0
  189.5540  176.6690  138.0550 C   0  0  0  0  0  0  0  0  0  0  0  0
  189.2460  176.0320  135.4430 N   0  0  0  0  0  0  0  0  0  0  0  0
  189.9850  176.9520  139.3210 C   0  0  0  0  0  0  0  0  0  0  0  0
  188.3020  176.6320  137.5480 N   0  0  0  0  0  2  0  0  0  0  0  0
  1  5  1  0  0  0  0
  1 15  1  1  0  0  0
  2 19  1  6  0  0  0
  2  3  1  0  0  0  0
  2  1  1  0  0  0  0
  3  1  1  0  0  0  0
  4  6  1  0  0  0  0
  5  9  2  0  0  0  0
  6  8  2  0  0  0  0
  7  4  2  0  0  0  0
  7  5  1  0  0  0  0
  8 10  1  0  0  0  0
  9  8  1  0  0  0  0
 10 11  1  6  0  0  0
 10 12  1  0  0  0  0
 12 13  1  0  0  0  0
 15 14  2  0  0  0  0
 15 16  1  0  0  0  0
 16 17  1  0  0  0  0
 17 18  1  0  0  0  0
 20 23  1  0  0  0  0
 21 25  1  0  0  0  0
 22 24  1  0  0  0  0
 24 29  1  0  0  0  0
 25 20  2  0  0  0  0
 25 26  1  0  0  0  0
 26 28  2  0  0  0  0
 27 21  1  0  0  0  0
 27 24  2  0  0  0  0
 28 23  1  0  0  0  0
 28 19  1  0  0  0  0
 29 26  1  0  0  0  0
M  END
>  <MODEL>
3

>  <REMARK>
 VINA RESULT:      -8.5      2.027      3.210
  Name = 
  8 active torsions:
  status: ('A' for Active; 'I' for Inactive)
    1  A    between atoms: C_1  and  C_17
    2  A    between atoms: C_1  and  C_26
    3  A    between atoms: N_2  and  C_28
    4  A    between atoms: C_4  and  C_9
    5  A    between atoms: C_4  and  C_25
    6  A    between atoms: C_6  and  S_16
    7  A    between atoms: S_16  and  C_20
    8  A    between atoms: C_25  and  C_28
                            x       y       z     vdW  Elec       q    Type
                         _______ _______ _______ _____ _____    ______ ____

>  <TORSDO>
F 8

$$$$
=
 OpenBabel10232412293D

 29 32  0  0  1  0  0  0  0  0999 V2000
  190.1560  177.4020  140.8440 C   0  0  2  0  0  0  0  0  0  0  0  0
  190.0570  176.7070  142.2060 C   0  0  1  0  0  3  0  0  0  0  0  0
  190.4110  178.1830  142.1200 C   0  0  0  0  0  2  0  0  0  0  0  0
  187.6790  178.0200  138.0270 C   0  0  0  0  0  3  0  0  0  0  0  0
  188.9090  177.7820  140.0910 C   0  0  0  0  0  0  0  0  0  0  0  0
  186.5760  178.3880  138.7320 N   0  0  0  0  0  0  0  0  0  0  0  0
  188.8640  177.7050  138.6930 C   0  0  0  0  0  3  0  0  0  0  0  0
  186.5870  178.4590  140.0910 C   0  0  0  0  0  0  0  0  0  0  0  0
  187.7570  178.1440  140.7940 C   0  0  0  0  0  3  0  0  0  0  0  0
  185.3420  178.8580  140.8150 C   0  0  2  0  0  3  0  0  0  0  0  0
  184.6650  179.8480  140.1000 O   0  0  0  0  0  1  0  0  0  0  0  0
  185.6730  179.3500  142.2150 C   0  0  0  0  0  2  0  0  0  0  0  0
  184.4750  179.1810  143.1290 C   0  0  0  0  0  1  0  0  0  0  0  0
  192.5660  177.6260  140.4270 C   0  0  0  0  0  2  0  0  0  0  0  0
  191.3950  177.1090  140.0510 C   0  0  0  0  0  0  0  0  0  0  0  0
  191.3400  176.1430  138.9110 C   0  0  0  0  0  2  0  0  0  0  0  0
  192.2310  176.5740  137.8460 N   0  0  0  0  0  2  0  0  0  0  0  0
  193.0610  175.4330  137.5090 C   0  0  0  0  0  1  0  0  0  0  0  0
  188.3570  176.5420  142.8460 S   0  0  0  0  0  0  0  0  0  0  0  0
  190.1730  177.1430  146.3810 C   0  0  0  0  0  3  0  0  0  0  0  0
  188.3240  178.0640  147.8310 C   0  0  0  0  0  3  0  0  0  0  0  0
  184.8610  178.6170  146.6900 N   0  0  0  0  0  1  0  0  0  0  0  0
  190.1550  176.7390  145.0370 C   0  0  0  0  0  3  0  0  0  0  0  0
  186.2350  178.2510  146.6610 C   0  0  0  0  0  0  0  0  0  0  0  0
  188.8940  177.5630  146.6740 C   0  0  0  0  0  0  0  0  0  0  0  0
  188.0870  177.4190  145.5150 C   0  0  0  0  0  0  0  0  0  0  0  0
  187.0000  178.3970  147.7920 N   0  0  0  0  0  0  0  0  0  0  0  0
  188.8730  176.9150  144.5180 C   0  0  0  0  0  0  0  0  0  0  0  0
  186.7780  177.7580  145.5070 N   0  0  0  0  0  2  0  0  0  0  0  0
  1 15  1  6  0  0  0
  1  3  1  0  0  0  0
  1  2  1  0  0  0  0
  2 19  1  1  0  0  0
  3  2  1  0  0  0  0
  4  7  2  0  0  0  0
  4  6  1  0  0  0  0
  5  9  2  0  0  0  0
  5  1  1  0  0  0  0
  6  8  2  0  0  0  0
  7  5  1  0  0  0  0
  8  9  1  0  0  0  0
  8 10  1  0  0  0  0
 10 11  1  6  0  0  0
 10 12  1  0  0  0  0
 12 13  1  0  0  0  0
 15 14  2  0  0  0  0
 16 15  1  0  0  0  0
 17 16  1  0  0  0  0
 18 17  1  0  0  0  0
 19 28  1  0  0  0  0
 20 25  1  0  0  0  0
 23 20  2  0  0  0  0
 24 22  1  0  0  0  0
 24 27  2  0  0  0  0
 25 21  2  0  0  0  0
 26 25  1  0  0  0  0
 27 21  1  0  0  0  0
 28 23  1  0  0  0  0
 28 26  2  0  0  0  0
 29 26  1  0  0  0  0
 29 24  1  0  0  0  0
M  END
>  <MODEL>
4

>  <REMARK>
 VINA RESULT:      -8.3      1.795      6.652
  Name = 
  8 active torsions:
  status: ('A' for Active; 'I' for Inactive)
    1  A    between atoms: C_1  and  C_17
    2  A    between atoms: C_1  and  C_26
    3  A    between atoms: N_2  and  C_28
    4  A    between atoms: C_4  and  C_9
    5  A    between atoms: C_4  and  C_25
    6  A    between atoms: C_6  and  S_16
    7  A    between atoms: S_16  and  C_20
    8  A    between atoms: C_25  and  C_28
                            x       y       z     vdW  Elec       q    Type
                         _______ _______ _______ _____ _____    ______ ____

>  <TORSDO>
F 8

$$$$
=
 OpenBabel10232412293D

 29 32  0  0  1  0  0  0  0  0999 V2000
  190.1810  177.5110  142.5880 C   0  0  2  0  0  0  0  0  0  0  0  0
  190.9710  177.2000  141.3140 C   0  0  1  0  0  3  0  0  0  0  0  0
  190.4560  176.0710  142.1930 C   0  0  0  0  0  2  0  0  0  0  0  0
  186.8620  178.8030  141.2580 C   0  0  0  0  0  3  0  0  0  0  0  0
  188.7410  177.9410  142.5060 C   0  0  0  0  0  0  0  0  0  0  0  0
  186.0650  178.6290  142.3470 N   0  0  0  0  0  0  0  0  0  0  0  0
  188.2130  178.4580  141.3160 C   0  0  0  0  0  3  0  0  0  0  0  0
  186.5470  178.1160  143.5110 C   0  0  0  0  0  0  0  0  0  0  0  0
  187.8970  177.7520  143.6040 C   0  0  0  0  0  3  0  0  0  0  0  0
  185.6230  177.9350  144.6710 C   0  0  2  0  0  3  0  0  0  0  0  0
  184.8900  179.1030  144.8910 O   0  0  0  0  0  1  0  0  0  0  0  0
  186.4030  177.5580  145.9210 C   0  0  0  0  0  2  0  0  0  0  0  0
  186.1920  178.5970  147.0050 C   0  0  0  0  0  1  0  0  0  0  0  0
  191.1900  179.2920  143.9470 C   0  0  0  0  0  2  0  0  0  0  0  0
  190.9910  177.9860  143.7590 C   0  0  0  0  0  0  0  0  0  0  0  0
  191.4720  177.0050  144.7800 C   0  0  0  0  0  2  0  0  0  0  0  0
  190.7470  177.1860  146.0260 N   0  0  0  0  0  2  0  0  0  0  0  0
  191.5070  176.5000  147.0540 C   0  0  0  0  0  1  0  0  0  0  0  0
  189.9830  177.2560  139.7810 S   0  0  0  0  0  0  0  0  0  0  0  0
  193.2890  175.8390  137.9890 C   0  0  0  0  0  3  0  0  0  0  0  0
  192.4150  173.9270  136.5920 C   0  0  0  0  0  2  0  0  0  0  0  0
  188.8730  172.9100  136.4370 N   0  0  0  0  0  1  0  0  0  0  0  0
  192.6110  176.7230  138.8410 C   0  0  0  0  0  2  0  0  0  0  0  0
  190.0410  173.6340  136.8060 C   0  0  0  0  0  0  0  0  0  0  0  0
  192.3340  174.9890  137.4740 C   0  0  0  0  0  0  0  0  0  0  0  0
  191.0670  175.3470  138.0070 C   0  0  0  0  0  0  0  0  0  0  0  0
  191.2570  173.2730  136.2800 N   0  0  0  0  0  0  0  0  0  0  0  0
  191.2510  176.4110  138.8460 C   0  0  0  0  0  0  0  0  0  0  0  0
  189.9370  174.6810  137.6800 N   0  0  0  0  0  2  0  0  0  0  0  0
  1 15  1  1  0  0  0
  2 19  1  6  0  0  0
  2  3  1  0  0  0  0
  2  1  1  0  0  0  0
  3  1  1  0  0  0  0
  4  7  2  0  0  0  0
  4  6  1  0  0  0  0
  5  1  1  0  0  0  0
  5  9  2  0  0  0  0
  6  8  2  0  0  0  0
  7  5  1  0  0  0  0
  8  9  1  0  0  0  0
  8 10  1  0  0  0  0
 10 11  1  1  0  0  0
 10 12  1  0  0  0  0
 12 13  1  0  0  0  0
 15 14  2  0  0  0  0
 15 16  1  0  0  0  0
 16 17  1  0  0  0  0
 17 18  1  0  0  0  0
 20 23  1  0  0  0  0
 21 25  1  0  0  0  0
 22 24  1  0  0  0  0
 23 28  1  0  0  0  0
 24 29  1  0  0  0  0
 25 20  2  0  0  0  0
 25 26  1  0  0  0  0
 26 28  2  0  0  0  0
 27 21  1  0  0  0  0
 27 24  2  0  0  0  0
 28 19  1  0  0  0  0
 29 26  1  0  0  0  0
M  END
>  <MODEL>
5

>  <REMARK>
 VINA RESULT:      -8.2      2.543      3.758
  Name = 
  8 active torsions:
  status: ('A' for Active; 'I' for Inactive)
    1  A    between atoms: C_1  and  C_17
    2  A    between atoms: C_1  and  C_26
    3  A    between atoms: N_2  and  C_28
    4  A    between atoms: C_4  and  C_9
    5  A    between atoms: C_4  and  C_25
    6  A    between atoms: C_6  and  S_16
    7  A    between atoms: S_16  and  C_20
    8  A    between atoms: C_25  and  C_28
                            x       y       z     vdW  Elec       q    Type
                         _______ _______ _______ _____ _____    ______ ____

>  <TORSDO>
F 8

$$$$
=
 OpenBabel10232412293D

 29 32  0  0  1  0  0  0  0  0999 V2000
  190.0760  177.3980  141.2650 C   0  0  2  0  0  0  0  0  0  0  0  0
  190.1250  176.5620  142.5470 C   0  0  1  0  0  3  0  0  0  0  0  0
  190.4220  178.0520  142.5900 C   0  0  0  0  0  2  0  0  0  0  0  0
  186.5590  178.7880  140.8730 C   0  0  0  0  0  3  0  0  0  0  0  0
  188.7540  177.8030  140.6690 C   0  0  0  0  0  0  0  0  0  0  0  0
  186.3710  178.6340  139.5350 N   0  0  0  0  0  0  0  0  0  0  0  0
  187.7560  178.3800  141.4640 C   0  0  0  0  0  3  0  0  0  0  0  0
  187.3280  178.0890  138.7360 C   0  0  0  0  0  0  0  0  0  0  0  0
  188.5440  177.6730  139.2930 C   0  0  0  0  0  3  0  0  0  0  0  0
  187.0720  177.9550  137.2700 C   0  0  2  0  0  3  0  0  0  0  0  0
  187.3290  179.1660  136.6240 O   0  0  0  0  0  1  0  0  0  0  0  0
  185.6380  177.5160  137.0160 C   0  0  0  0  0  2  0  0  0  0  0  0
  185.5380  176.0030  137.0510 C   0  0  0  0  0  1  0  0  0  0  0  0
  192.4550  177.6630  140.7120 C   0  0  0  0  0  2  0  0  0  0  0  0
  191.2460  177.2410  140.3380 C   0  0  0  0  0  0  0  0  0  0  0  0
  191.0810  176.5050  139.0470 C   0  0  0  0  0  2  0  0  0  0  0  0
  192.3780  176.2830  138.4290 N   0  0  0  0  0  2  0  0  0  0  0  0
  192.2340  175.1320  137.5580 C   0  0  0  0  0  1  0  0  0  0  0  0
  188.4970  176.2600  143.3130 S   0  0  0  0  0  0  0  0  0  0  0  0
  190.4670  177.0470  146.7270 C   0  0  0  0  0  3  0  0  0  0  0  0
  188.7150  178.1620  148.1610 C   0  0  0  0  0  3  0  0  0  0  0  0
  185.2390  178.7860  147.0950 N   0  0  0  0  0  1  0  0  0  0  0  0
  190.3820  176.5420  145.4210 C   0  0  0  0  0  3  0  0  0  0  0  0
  186.5940  178.3550  147.0500 C   0  0  0  0  0  0  0  0  0  0  0  0
  189.2190  177.5470  147.0290 C   0  0  0  0  0  0  0  0  0  0  0  0
  188.3640  177.3520  145.9120 C   0  0  0  0  0  0  0  0  0  0  0  0
  187.4060  178.5530  148.1400 N   0  0  0  0  0  0  0  0  0  0  0  0
  189.0900  176.7360  144.9320 C   0  0  0  0  0  0  0  0  0  0  0  0
  187.0720  177.7500  145.9200 N   0  0  0  0  0  2  0  0  0  0  0  0
  1 15  1  6  0  0  0
  1  2  1  0  0  0  0
  1  3  1  0  0  0  0
  2  3  1  0  0  0  0
  2 19  1  1  0  0  0
  4  7  1  0  0  0  0
  5  1  1  0  0  0  0
  5  7  2  0  0  0  0
  6  4  2  0  0  0  0
  8  9  2  0  0  0  0
  8  6  1  0  0  0  0
  9  5  1  0  0  0  0
 10 11  1  6  0  0  0
 10  8  1  0  0  0  0
 12 13  1  0  0  0  0
 12 10  1  0  0  0  0
 15 14  2  0  0  0  0
 16 15  1  0  0  0  0
 17 16  1  0  0  0  0
 18 17  1  0  0  0  0
 19 28  1  0  0  0  0
 20 25  1  0  0  0  0
 23 20  2  0  0  0  0
 24 22  1  0  0  0  0
 24 27  2  0  0  0  0
 25 21  2  0  0  0  0
 26 29  1  0  0  0  0
 26 25  1  0  0  0  0
 27 21  1  0  0  0  0
 28 23  1  0  0  0  0
 28 26  2  0  0  0  0
 29 24  1  0  0  0  0
M  END
>  <MODEL>
6

>  <REMARK>
 VINA RESULT:      -8.1      2.628      6.950
  Name = 
  8 active torsions:
  status: ('A' for Active; 'I' for Inactive)
    1  A    between atoms: C_1  and  C_17
    2  A    between atoms: C_1  and  C_26
    3  A    between atoms: N_2  and  C_28
    4  A    between atoms: C_4  and  C_9
    5  A    between atoms: C_4  and  C_25
    6  A    between atoms: C_6  and  S_16
    7  A    between atoms: S_16  and  C_20
    8  A    between atoms: C_25  and  C_28
                            x       y       z     vdW  Elec       q    Type
                         _______ _______ _______ _____ _____    ______ ____

>  <TORSDO>
F 8

$$$$
=
 OpenBabel10232412293D

 29 32  0  0  1  0  0  0  0  0999 V2000
  188.3710  177.8420  142.6970 C   0  0  2  0  0  0  0  0  0  0  0  0
  188.4960  177.2710  141.2820 C   0  0  1  0  0  3  0  0  0  0  0  0
  188.3840  178.7720  141.4970 C   0  0  0  0  0  2  0  0  0  0  0  0
  191.6820  178.9350  144.2130 C   0  0  0  0  0  3  0  0  0  0  0  0
  189.5770  177.9270  143.5950 C   0  0  0  0  0  0  0  0  0  0  0  0
  191.7340  178.1390  145.3140 N   0  0  0  0  0  0  0  0  0  0  0  0
  190.6000  178.8480  143.3360 C   0  0  0  0  0  3  0  0  0  0  0  0
  190.7480  177.2460  145.5990 C   0  0  0  0  0  0  0  0  0  0  0  0
  189.6440  177.1340  144.7440 C   0  0  0  0  0  3  0  0  0  0  0  0
  190.8520  176.4050  146.8290 C   0  0  2  0  0  3  0  0  0  0  0  0
  190.7220  177.2020  147.9690 O   0  0  0  0  0  1  0  0  0  0  0  0
  192.1750  175.6570  146.8550 C   0  0  0  0  0  2  0  0  0  0  0  0
  192.8080  175.7560  148.2300 C   0  0  0  0  0  1  0  0  0  0  0  0
  186.8900  176.9770  144.4560 C   0  0  0  0  0  2  0  0  0  0  0  0
  187.0240  177.6980  143.3420 C   0  0  0  0  0  0  0  0  0  0  0  0
  185.8550  178.4620  142.8050 C   0  0  0  0  0  2  0  0  0  0  0  0
  184.7010  178.2810  143.6700 N   0  0  0  0  0  2  0  0  0  0  0  0
  184.1930  179.6070  143.9700 C   0  0  0  0  0  1  0  0  0  0  0  0
  190.2040  176.8710  140.7790 S   0  0  0  0  0  0  0  0  0  0  0  0
  189.1990  178.3830  137.1940 C   0  0  0  0  0  3  0  0  0  0  0  0
  189.8450  176.5450  135.5900 C   0  0  0  0  0  2  0  0  0  0  0  0
  191.3430  173.3300  136.6000 N   0  0  0  0  0  1  0  0  0  0  0  0
  189.3060  178.4460  138.5910 C   0  0  0  0  0  2  0  0  0  0  0  0
  190.7840  174.6340  136.7010 C   0  0  0  0  0  0  0  0  0  0  0  0
  189.6970  177.1530  136.8230 C   0  0  0  0  0  0  0  0  0  0  0  0
  190.1120  176.4560  137.9890 C   0  0  0  0  0  0  0  0  0  0  0  0
  190.3890  175.2920  135.5620 N   0  0  0  0  0  0  0  0  0  0  0  0
  189.8680  177.2610  139.0660 C   0  0  0  0  0  0  0  0  0  0  0  0
  190.6480  175.2160  137.9310 N   0  0  0  0  0  2  0  0  0  0  0  0
  1 15  1  1  0  0  0
  1  5  1  0  0  0  0
  2 19  1  1  0  0  0
  2  3  1  0  0  0  0
  2  1  1  0  0  0  0
  3  1  1  0  0  0  0
  4  6  1  0  0  0  0
  5  9  2  0  0  0  0
  6  8  2  0  0  0  0
  7  5  1  0  0  0  0
  7  4  2  0  0  0  0
  8 10  1  0  0  0  0
  9  8  1  0  0  0  0
 10 12  1  0  0  0  0
 10 11  1  1  0  0  0
 12 13  1  0  0  0  0
 15 14  2  0  0  0  0
 16 15  1  0  0  0  0
 16 17  1  0  0  0  0
 17 18  1  0  0  0  0
 20 23  1  0  0  0  0
 21 25  1  0  0  0  0
 22 24  1  0  0  0  0
 23 28  1  0  0  0  0
 24 29  1  0  0  0  0
 25 20  2  0  0  0  0
 25 26  1  0  0  0  0
 26 28  2  0  0  0  0
 27 21  1  0  0  0  0
 27 24  2  0  0  0  0
 28 19  1  0  0  0  0
 29 26  1  0  0  0  0
M  END
>  <MODEL>
7

>  <REMARK>
 VINA RESULT:      -8.1      2.662      5.825
  Name = 
  8 active torsions:
  status: ('A' for Active; 'I' for Inactive)
    1  A    between atoms: C_1  and  C_17
    2  A    between atoms: C_1  and  C_26
    3  A    between atoms: N_2  and  C_28
    4  A    between atoms: C_4  and  C_9
    5  A    between atoms: C_4  and  C_25
    6  A    between atoms: C_6  and  S_16
    7  A    between atoms: S_16  and  C_20
    8  A    between atoms: C_25  and  C_28
                            x       y       z     vdW  Elec       q    Type
                         _______ _______ _______ _____ _____    ______ ____

>  <TORSDO>
F 8

$$$$
=
 OpenBabel10232412293D

 29 32  0  0  1  0  0  0  0  0999 V2000
  188.7680  177.4020  142.5910 C   0  0  2  0  0  0  0  0  0  0  0  0
  187.3280  177.5780  143.0820 C   0  0  1  0  0  3  0  0  0  0  0  0
  187.9640  176.1970  143.0440 C   0  0  0  0  0  2  0  0  0  0  0  0
  191.7210  179.2720  144.0880 C   0  0  0  0  0  3  0  0  0  0  0  0
  189.9270  177.7760  143.4770 C   0  0  0  0  0  0  0  0  0  0  0  0
  191.9870  178.5010  145.1760 N   0  0  0  0  0  0  0  0  0  0  0  0
  190.6830  178.9270  143.2220 C   0  0  0  0  0  3  0  0  0  0  0  0
  191.2600  177.3860  145.4570 C   0  0  0  0  0  0  0  0  0  0  0  0
  190.2070  177.0110  144.6130 C   0  0  0  0  0  3  0  0  0  0  0  0
  191.5890  176.5820  146.6730 C   0  0  2  0  0  3  0  0  0  0  0  0
  192.2150  175.3890  146.3080 O   0  0  0  0  0  1  0  0  0  0  0  0
  190.3320  176.2940  147.4790 C   0  0  0  0  0  2  0  0  0  0  0  0
  189.6830  177.5910  147.9230 C   0  0  0  0  0  1  0  0  0  0  0  0
  189.8100  176.6440  140.5000 C   0  0  0  0  0  2  0  0  0  0  0  0
  188.9650  177.4800  141.1060 C   0  0  0  0  0  0  0  0  0  0  0  0
  188.1260  178.4100  140.2900 C   0  0  0  0  0  2  0  0  0  0  0  0
  188.7570  178.6540  139.0030 N   0  0  0  0  0  2  0  0  0  0  0  0
  187.8340  178.1770  137.9900 C   0  0  0  0  0  1  0  0  0  0  0  0
  187.1850  178.1160  144.8200 S   0  0  0  0  0  0  0  0  0  0  0  0
  183.2530  178.8700  145.1740 C   0  0  0  0  0  3  0  0  0  0  0  0
  182.4570  178.9210  142.7800 C   0  0  0  0  0  2  0  0  0  0  0  0
  184.6320  178.3890  139.8490 N   0  0  0  0  0  1  0  0  0  0  0  0
  184.5360  178.6500  145.6980 C   0  0  0  0  0  2  0  0  0  0  0  0
  184.2270  178.5210  141.2060 C   0  0  0  0  0  0  0  0  0  0  0  0
  183.3770  178.7880  143.8040 C   0  0  0  0  0  0  0  0  0  0  0  0
  184.7340  178.5180  143.4810 C   0  0  0  0  0  0  0  0  0  0  0  0
  182.9110  178.7830  141.4980 N   0  0  0  0  0  0  0  0  0  0  0  0
  185.4340  178.4380  144.6520 C   0  0  0  0  0  0  0  0  0  0  0  0
  185.1540  178.3870  142.2030 N   0  0  0  0  0  2  0  0  0  0  0  0
  1 15  1  6  0  0  0
  1  3  1  0  0  0  0
  1  2  1  0  0  0  0
  1  5  1  0  0  0  0
  2 19  1  1  0  0  0
  3  2  1  0  0  0  0
  4  6  1  0  0  0  0
  5  9  2  0  0  0  0
  6  8  2  0  0  0  0
  7  5  1  0  0  0  0
  7  4  2  0  0  0  0
  8 10  1  0  0  0  0
  9  8  1  0  0  0  0
 10 11  1  6  0  0  0
 10 12  1  0  0  0  0
 12 13  1  0  0  0  0
 14 15  2  0  0  0  0
 16 15  1  0  0  0  0
 17 16  1  0  0  0  0
 18 17  1  0  0  0  0
 20 23  1  0  0  0  0
 21 25  1  0  0  0  0
 22 24  1  0  0  0  0
 24 27  2  0  0  0  0
 24 29  1  0  0  0  0
 25 20  2  0  0  0  0
 26 25  1  0  0  0  0
 26 28  2  0  0  0  0
 27 21  1  0  0  0  0
 28 19  1  0  0  0  0
 28 23  1  0  0  0  0
 29 26  1  0  0  0  0
M  END
>  <MODEL>
8

>  <REMARK>
 VINA RESULT:      -8.1      2.559      6.817
  Name = 
  8 active torsions:
  status: ('A' for Active; 'I' for Inactive)
    1  A    between atoms: C_1  and  C_17
    2  A    between atoms: C_1  and  C_26
    3  A    between atoms: N_2  and  C_28
    4  A    between atoms: C_4  and  C_9
    5  A    between atoms: C_4  and  C_25
    6  A    between atoms: C_6  and  S_16
    7  A    between atoms: S_16  and  C_20
    8  A    between atoms: C_25  and  C_28
                            x       y       z     vdW  Elec       q    Type
                         _______ _______ _______ _____ _____    ______ ____

>  <TORSDO>
F 8

$$$$
=
 OpenBabel10232412293D

 29 32  0  0  1  0  0  0  0  0999 V2000
  189.0180  177.3440  137.2750 C   0  0  2  0  0  0  0  0  0  0  0  0
  189.3970  178.0600  138.5750 C   0  0  1  0  0  3  0  0  0  0  0  0
  189.0380  178.8610  137.3330 C   0  0  0  0  0  2  0  0  0  0  0  0
  185.3020  176.8900  136.6170 C   0  0  0  0  0  3  0  0  0  0  0  0
  187.6570  176.7200  137.1180 C   0  0  0  0  0  0  0  0  0  0  0  0
  185.1850  175.5400  136.7310 N   0  0  0  0  0  0  0  0  0  0  0  0
  186.5410  177.5040  136.8030 C   0  0  0  0  0  3  0  0  0  0  0  0
  186.2550  174.7510  137.0220 C   0  0  0  0  0  0  0  0  0  0  0  0
  187.5160  175.3320  137.2100 C   0  0  0  0  0  3  0  0  0  0  0  0
  186.0710  173.2720  137.1230 C   0  0  2  0  0  3  0  0  0  0  0  0
  185.3330  172.9550  138.2660 O   0  0  0  0  0  1  0  0  0  0  0  0
  187.4180  172.5670  137.1530 C   0  0  0  0  0  2  0  0  0  0  0  0
  187.6710  171.8600  135.8350 C   0  0  0  0  0  1  0  0  0  0  0  0
  190.1980  176.8690  135.1730 C   0  0  0  0  0  2  0  0  0  0  0  0
  190.1580  176.7490  136.5010 C   0  0  0  0  0  0  0  0  0  0  0  0
  191.3090  176.1300  137.2280 C   0  0  0  0  0  2  0  0  0  0  0  0
  190.8840  174.9060  137.8860 N   0  0  0  0  0  2  0  0  0  0  0  0
  191.1300  173.8230  136.9530 C   0  0  0  0  0  1  0  0  0  0  0  0
  188.0380  178.1990  139.7830 S   0  0  0  0  0  0  0  0  0  0  0  0
  190.8830  176.8550  142.2820 C   0  0  0  0  0  3  0  0  0  0  0  0
  189.7090  176.7940  144.5150 C   0  0  0  0  0  3  0  0  0  0  0  0
  186.1930  177.7720  145.0480 N   0  0  0  0  0  1  0  0  0  0  0  0
  190.4080  177.2380  141.0190 C   0  0  0  0  0  3  0  0  0  0  0  0
  187.4240  177.5200  144.3800 C   0  0  0  0  0  0  0  0  0  0  0  0
  189.8280  177.0120  143.1550 C   0  0  0  0  0  0  0  0  0  0  0  0
  188.7030  177.4920  142.4320 C   0  0  0  0  0  0  0  0  0  0  0  0
  188.5000  177.0560  145.0950 N   0  0  0  0  0  0  0  0  0  0  0  0
  189.0730  177.6280  141.1240 C   0  0  0  0  0  0  0  0  0  0  0  0
  187.5190  177.7430  143.0340 N   0  0  0  0  0  2  0  0  0  0  0  0
  1 15  1  6  0  0  0
  1  3  1  0  0  0  0
  1  2  1  0  0  0  0
  2 19  1  1  0  0  0
  3  2  1  0  0  0  0
  4  6  2  0  0  0  0
  4  7  1  0  0  0  0
  5  9  1  0  0  0  0
  5  1  1  0  0  0  0
  6  8  1  0  0  0  0
  7  5  2  0  0  0  0
  8 10  1  0  0  0  0
  8  9  2  0  0  0  0
 10 12  1  0  0  0  0
 10 11  1  1  0  0  0
 13 12  1  0  0  0  0
 14 15  2  0  0  0  0
 15 16  1  0  0  0  0
 16 17  1  0  0  0  0
 18 17  1  0  0  0  0
 19 28  1  0  0  0  0
 20 25  1  0  0  0  0
 21 27  1  0  0  0  0
 23 28  1  0  0  0  0
 23 20  2  0  0  0  0
 24 22  1  0  0  0  0
 24 27  2  0  0  0  0
 25 21  2  0  0  0  0
 26 29  1  0  0  0  0
 26 25  1  0  0  0  0
 28 26  2  0  0  0  0
 29 24  1  0  0  0  0
M  END
>  <MODEL>
9

>  <REMARK>
 VINA RESULT:      -8.0      3.181      7.806
  Name = 
  8 active torsions:
  status: ('A' for Active; 'I' for Inactive)
    1  A    between atoms: C_1  and  C_17
    2  A    between atoms: C_1  and  C_26
    3  A    between atoms: N_2  and  C_28
    4  A    between atoms: C_4  and  C_9
    5  A    between atoms: C_4  and  C_25
    6  A    between atoms: C_6  and  S_16
    7  A    between atoms: S_16  and  C_20
    8  A    between atoms: C_25  and  C_28
                            x       y       z     vdW  Elec       q    Type
                         _______ _______ _______ _____ _____    ______ ____

>  <TORSDO>
F 8

$$$$
