=
 OpenBabel10232411323D

 27 32  0  0  1  0  0  0  0  0999 V2000
  186.0070  179.9220  141.7730 O   0  0  0  0  0  0  0  0  0  0  0  0
  184.8510  178.1190  142.7340 N   0  0  0  0  0  2  0  0  0  0  0  0
  185.1880  178.9750  141.6360 C   0  0  0  0  0  0  0  0  0  0  0  0
  184.7980  178.9860  145.1530 C   0  0  0  0  0  2  0  0  0  0  0  0
  188.9960  176.8560  143.5490 C   0  0  0  0  0  2  0  0  0  0  0  0
  186.5740  178.1020  146.6530 N   0  0  0  0  0  0  0  0  0  0  0  0
  187.2450  177.6970  145.6180 C   0  0  0  0  0  0  0  0  0  0  0  0
  187.4870  177.0130  143.1360 C   0  0  0  0  0  2  0  0  0  0  0  0
  185.1550  178.4520  146.5480 C   0  0  0  0  0  2  0  0  0  0  0  0
  189.8690  177.6960  145.9720 N   0  0  0  0  0  2  0  0  0  0  0  0
  188.5850  177.0530  145.7140 C   0  0  2  0  0  3  0  0  0  0  0  0
  185.4230  178.1570  144.0510 C   0  0  0  0  0  0  0  0  0  0  0  0
  189.2460  177.8740  144.6570 C   0  0  2  0  0  3  0  0  0  0  0  0
  186.6200  177.5980  144.2670 C   0  0  0  0  0  0  0  0  0  0  0  0
  184.7770  178.1680  138.1700 C   0  0  2  0  0  3  0  0  0  0  0  0
  182.4360  177.7040  138.0320 O   0  0  0  0  0  1  0  0  0  0  0  0
  185.1860  179.1100  139.1320 O   0  0  0  0  0  0  0  0  0  0  0  0
  183.1610  179.1160  140.3060 O   0  0  0  0  0  0  0  0  0  0  0  0
  183.4880  177.7430  140.1690 C   0  0  1  0  0  3  0  0  0  0  0  0
  183.6040  177.3640  138.7160 C   0  0  2  0  0  3  0  0  0  0  0  0
  184.5200  178.7700  140.3200 C   0  0  2  0  0  0  0  0  0  0  0  0
  185.9440  177.2520  137.8260 C   0  0  0  0  0  2  0  0  0  0  0  0
  188.0690  177.8870  138.9160 O   0  0  0  0  0  0  0  0  0  0  0  0
  187.2360  177.9930  137.9130 C   0  0  0  0  0  0  0  0  0  0  0  0
  187.6820  178.8220  136.9540 N   0  0  0  0  0  0  0  0  0  0  0  0
  189.1010  178.6530  138.6560 C   0  0  0  0  0  3  0  0  0  0  0  0
  188.8710  179.2450  137.4270 C   0  0  0  0  0  3  0  0  0  0  0  0
  2 12  1  0  0  0  0
  3  1  2  0  0  0  0
  3  2  1  0  0  0  0
  4  9  1  0  0  0  0
  7  6  2  0  0  0  0
  8  5  1  0  0  0  0
  8 14  1  0  0  0  0
  9  6  1  0  0  0  0
 11  7  1  1  0  0  0
 11 10  1  0  0  0  0
 12 14  2  0  0  0  0
 12  4  1  0  0  0  0
 13  5  1  6  0  0  0
 13 11  1  0  0  0  0
 13 10  1  0  0  0  0
 14  7  1  0  0  0  0
 15 22  1  1  0  0  0
 15 20  1  0  0  0  0
 15 17  1  0  0  0  0
 17 21  1  0  0  0  0
 18 21  1  0  0  0  0
 19 18  1  6  0  0  0
 19 21  1  0  0  0  0
 20 16  1  6  0  0  0
 20 19  1  0  0  0  0
 21  3  1  1  0  0  0
 22 24  1  0  0  0  0
 24 23  1  0  0  0  0
 25 27  1  0  0  0  0
 25 24  2  0  0  0  0
 26 23  1  0  0  0  0
 27 26  2  0  0  0  0
M  END
>  <MODEL>
1

>  <REMARK>
 VINA RESULT:      -8.4      0.000      0.000
  Name = 
  4 active torsions:
  status: ('A' for Active; 'I' for Inactive)
    1  A    between atoms: C_1  and  C_3
    2  A    between atoms: C_1  and  C_6
    3  A    between atoms: C_19  and  N_21
    4  A    between atoms: C_22  and  C_27
                            x       y       z     vdW  Elec       q    Type
                         _______ _______ _______ _____ _____    ______ ____

>  <TORSDO>
F 4

$$$$
=
 OpenBabel10232411323D

 27 32  0  0  1  0  0  0  0  0999 V2000
  190.4410  175.6150  142.9530 O   0  0  0  0  0  0  0  0  0  0  0  0
  191.2750  177.6870  142.2330 N   0  0  0  0  0  2  0  0  0  0  0  0
  190.8290  176.7770  143.2450 C   0  0  0  0  0  0  0  0  0  0  0  0
  192.7810  177.3260  140.1820 C   0  0  0  0  0  2  0  0  0  0  0  0
  187.9360  178.1160  139.3840 C   0  0  0  0  0  2  0  0  0  0  0  0
  191.6030  176.7470  138.0690 N   0  0  0  0  0  0  0  0  0  0  0  0
  190.4830  177.1530  138.5840 C   0  0  0  0  0  0  0  0  0  0  0  0
  188.9260  177.7680  140.5560 C   0  0  0  0  0  2  0  0  0  0  0  0
  192.7670  176.4600  138.9140 C   0  0  0  0  0  2  0  0  0  0  0  0
  188.7780  178.1290  136.8090 N   0  0  0  0  0  2  0  0  0  0  0  0
  189.1980  177.1750  137.8300 C   0  0  2  0  0  3  0  0  0  0  0  0
  191.4160  177.4030  140.8330 C   0  0  0  0  0  0  0  0  0  0  0  0
  188.8000  178.5620  138.2100 C   0  0  2  0  0  3  0  0  0  0  0  0
  190.3290  177.3800  140.0510 C   0  0  0  0  0  0  0  0  0  0  0  0
  189.4780  177.6180  146.4540 C   0  0  2  0  0  3  0  0  0  0  0  0
  191.3990  177.4630  147.8690 O   0  0  0  0  0  1  0  0  0  0  0  0
  189.6980  178.0010  145.1180 O   0  0  0  0  0  0  0  0  0  0  0  0
  192.0130  177.6610  145.1710 O   0  0  0  0  0  0  0  0  0  0  0  0
  191.4660  176.4660  145.7060 C   0  0  1  0  0  3  0  0  0  0  0  0
  190.6410  176.7590  146.9320 C   0  0  2  0  0  3  0  0  0  0  0  0
  190.7790  177.2300  144.6630 C   0  0  2  0  0  0  0  0  0  0  0  0
  188.1660  176.8530  146.5560 C   0  0  0  0  0  2  0  0  0  0  0  0
  186.5640  177.4720  144.7780 O   0  0  0  0  0  0  0  0  0  0  0  0
  187.0460  177.6530  145.9820 C   0  0  0  0  0  0  0  0  0  0  0  0
  186.4030  178.6220  146.6570 N   0  0  0  0  0  0  0  0  0  0  0  0
  185.5830  178.3260  144.6130 C   0  0  0  0  0  3  0  0  0  0  0  0
  185.4710  179.0530  145.7840 C   0  0  0  0  0  3  0  0  0  0  0  0
  1  3  2  0  0  0  0
  2  3  1  0  0  0  0
  4 12  1  0  0  0  0
  5  8  1  0  0  0  0
  6  7  2  0  0  0  0
  6  9  1  0  0  0  0
  7 14  1  0  0  0  0
  9  4  1  0  0  0  0
 10 13  1  0  0  0  0
 11 10  1  6  0  0  0
 11 13  1  0  0  0  0
 11  7  1  0  0  0  0
 12  2  1  0  0  0  0
 13  5  1  1  0  0  0
 14  8  1  0  0  0  0
 14 12  2  0  0  0  0
 15 22  1  6  0  0  0
 15 20  1  0  0  0  0
 17 15  1  0  0  0  0
 19 18  1  1  0  0  0
 19 20  1  0  0  0  0
 20 16  1  1  0  0  0
 21  3  1  6  0  0  0
 21 17  1  0  0  0  0
 21 18  1  0  0  0  0
 21 19  1  0  0  0  0
 23 24  1  0  0  0  0
 24 22  1  0  0  0  0
 24 25  2  0  0  0  0
 26 23  1  0  0  0  0
 26 27  2  0  0  0  0
 27 25  1  0  0  0  0
M  END
>  <MODEL>
2

>  <REMARK>
 VINA RESULT:      -8.3      3.472      8.395
  Name = 
  4 active torsions:
  status: ('A' for Active; 'I' for Inactive)
    1  A    between atoms: C_1  and  C_3
    2  A    between atoms: C_1  and  C_6
    3  A    between atoms: C_19  and  N_21
    4  A    between atoms: C_22  and  C_27
                            x       y       z     vdW  Elec       q    Type
                         _______ _______ _______ _____ _____    ______ ____

>  <TORSDO>
F 4

$$$$
=
 OpenBabel10232411323D

 27 32  0  0  1  0  0  0  0  0999 V2000
  189.5150  177.9310  145.4090 O   0  0  0  0  0  0  0  0  0  0  0  0
  187.7670  177.6220  143.8740 N   0  0  0  0  0  2  0  0  0  0  0  0
  189.1470  177.5800  144.2570 C   0  0  0  0  0  0  0  0  0  0  0  0
  186.5880  177.4980  146.1540 C   0  0  0  0  0  2  0  0  0  0  0  0
  183.9270  179.0640  142.2550 C   0  0  0  0  0  2  0  0  0  0  0  0
  184.4640  178.7790  146.3400 N   0  0  0  0  0  0  0  0  0  0  0  0
  184.4040  178.8640  145.0460 C   0  0  0  0  0  0  0  0  0  0  0  0
  185.4200  178.7950  142.6680 C   0  0  0  0  0  2  0  0  0  0  0  0
  185.7110  178.4150  147.0190 C   0  0  0  0  0  2  0  0  0  0  0  0
  181.9360  178.9660  144.0900 N   0  0  0  0  0  2  0  0  0  0  0  0
  183.2710  179.5070  144.3220 C   0  0  2  0  0  3  0  0  0  0  0  0
  186.6580  177.9690  144.7170 C   0  0  0  0  0  0  0  0  0  0  0  0
  183.0600  178.4130  143.3280 C   0  0  2  0  0  3  0  0  0  0  0  0
  185.5840  178.5660  144.1830 C   0  0  0  0  0  0  0  0  0  0  0  0
  190.5650  176.5820  141.1230 C   0  0  2  0  0  3  0  0  0  0  0  0
  192.8760  177.1160  141.4190 O   0  0  0  0  0  1  0  0  0  0  0  0
  189.8410  176.2140  142.2730 O   0  0  0  0  0  0  0  0  0  0  0  0
  191.4510  176.9710  143.7940 O   0  0  0  0  0  0  0  0  0  0  0  0
  191.2660  178.0580  142.9020 C   0  0  1  0  0  3  0  0  0  0  0  0
  191.5880  177.6490  141.4880 C   0  0  2  0  0  3  0  0  0  0  0  0
  190.1690  177.1580  143.2590 C   0  0  2  0  0  0  0  0  0  0  0  0
  189.6040  177.0980  140.0600 C   0  0  0  0  0  2  0  0  0  0  0  0
  190.3560  175.3880  138.4410 O   0  0  0  0  0  0  0  0  0  0  0  0
  190.0140  176.6230  138.7070 C   0  0  0  0  0  0  0  0  0  0  0  0
  190.0450  177.4140  137.6200 N   0  0  0  0  0  0  0  0  0  0  0  0
  190.6340  175.3200  137.1620 C   0  0  0  0  0  3  0  0  0  0  0  0
  190.4420  176.5850  136.6350 C   0  0  0  0  0  3  0  0  0  0  0  0
  2  3  1  0  0  0  0
  2 12  1  0  0  0  0
  3  1  2  0  0  0  0
  4  9  1  0  0  0  0
  5  8  1  0  0  0  0
  6  9  1  0  0  0  0
  7  6  2  0  0  0  0
  8 14  1  0  0  0  0
 11 10  1  1  0  0  0
 11  7  1  0  0  0  0
 12  4  1  0  0  0  0
 13  5  1  6  0  0  0
 13 10  1  0  0  0  0
 13 11  1  0  0  0  0
 14 12  2  0  0  0  0
 14  7  1  0  0  0  0
 15 22  1  6  0  0  0
 15 20  1  0  0  0  0
 15 17  1  0  0  0  0
 17 21  1  0  0  0  0
 19 21  1  0  0  0  0
 19 18  1  1  0  0  0
 20 16  1  1  0  0  0
 20 19  1  0  0  0  0
 21 18  1  0  0  0  0
 21  3  1  1  0  0  0
 23 24  1  0  0  0  0
 24 22  1  0  0  0  0
 25 24  2  0  0  0  0
 26 23  1  0  0  0  0
 27 26  2  0  0  0  0
 27 25  1  0  0  0  0
M  END
>  <MODEL>
3

>  <REMARK>
 VINA RESULT:      -7.9      3.524      5.518
  Name = 
  4 active torsions:
  status: ('A' for Active; 'I' for Inactive)
    1  A    between atoms: C_1  and  C_3
    2  A    between atoms: C_1  and  C_6
    3  A    between atoms: C_19  and  N_21
    4  A    between atoms: C_22  and  C_27
                            x       y       z     vdW  Elec       q    Type
                         _______ _______ _______ _____ _____    ______ ____

>  <TORSDO>
F 4

$$$$
=
 OpenBabel10232411323D

 27 32  0  0  1  0  0  0  0  0999 V2000
  191.5430  177.6160  140.7520 O   0  0  0  0  0  0  0  0  0  0  0  0
  189.6940  176.4600  141.6200 N   0  0  0  0  0  2  0  0  0  0  0  0
  190.5340  176.8910  140.5430 C   0  0  0  0  0  0  0  0  0  0  0  0
  191.1090  176.1340  143.7400 C   0  0  0  0  0  2  0  0  0  0  0  0
  186.4770  177.8580  144.2930 C   0  0  0  0  0  2  0  0  0  0  0  0
  190.2950  177.3150  145.7720 N   0  0  0  0  0  0  0  0  0  0  0  0
  189.1380  177.4860  145.2070 C   0  0  0  0  0  0  0  0  0  0  0  0
  187.5510  177.6200  143.1690 C   0  0  0  0  0  2  0  0  0  0  0  0
  191.4770  176.9550  144.9850 C   0  0  0  0  0  2  0  0  0  0  0  0
  187.1120  177.5560  146.9090 N   0  0  0  0  0  2  0  0  0  0  0  0
  187.9830  178.1320  145.8910 C   0  0  2  0  0  3  0  0  0  0  0  0
  189.9070  176.7040  143.0190 C   0  0  0  0  0  0  0  0  0  0  0  0
  186.9680  177.1020  145.5230 C   0  0  2  0  0  3  0  0  0  0  0  0
  188.9450  177.2940  143.7400 C   0  0  0  0  0  0  0  0  0  0  0  0
  188.8090  176.8760  137.4040 C   0  0  2  0  0  3  0  0  0  0  0  0
  190.4320  175.9090  135.9380 O   0  0  0  0  0  1  0  0  0  0  0  0
  188.8360  176.4630  138.7490 O   0  0  0  0  0  0  0  0  0  0  0  0
  190.9470  175.4590  138.6260 O   0  0  0  0  0  0  0  0  0  0  0  0
  191.1310  176.7460  138.0570 C   0  0  1  0  0  3  0  0  0  0  0  0
  190.2320  176.9350  136.8640 C   0  0  2  0  0  3  0  0  0  0  0  0
  190.1820  176.5130  139.1460 C   0  0  2  0  0  0  0  0  0  0  0  0
  188.1370  178.2390  137.3030 C   0  0  0  0  0  2  0  0  0  0  0  0
  186.2580  178.7400  138.8280 O   0  0  0  0  0  0  0  0  0  0  0  0
  186.7160  178.1580  137.7490 C   0  0  0  0  0  0  0  0  0  0  0  0
  185.7610  177.5010  137.0690 N   0  0  0  0  0  0  0  0  0  0  0  0
  184.9750  178.4800  138.9030 C   0  0  0  0  0  3  0  0  0  0  0  0
  184.6500  177.7030  137.8050 C   0  0  0  0  0  3  0  0  0  0  0  0
  2 12  1  0  0  0  0
  3  1  2  0  0  0  0
  3  2  1  0  0  0  0
  4  9  1  0  0  0  0
  7  6  2  0  0  0  0
  8 14  1  0  0  0  0
  8  5  1  0  0  0  0
  9  6  1  0  0  0  0
 11  7  1  1  0  0  0
 11 10  1  0  0  0  0
 12 14  2  0  0  0  0
 12  4  1  0  0  0  0
 13  5  1  6  0  0  0
 13 11  1  0  0  0  0
 13 10  1  0  0  0  0
 14  7  1  0  0  0  0
 15 22  1  1  0  0  0
 15 17  1  0  0  0  0
 17 21  1  0  0  0  0
 18 21  1  0  0  0  0
 19 18  1  6  0  0  0
 19 21  1  0  0  0  0
 20 16  1  6  0  0  0
 20 15  1  0  0  0  0
 20 19  1  0  0  0  0
 21  3  1  1  0  0  0
 22 24  1  0  0  0  0
 23 26  1  0  0  0  0
 24 23  1  0  0  0  0
 25 24  2  0  0  0  0
 25 27  1  0  0  0  0
 27 26  2  0  0  0  0
M  END
>  <MODEL>
4

>  <REMARK>
 VINA RESULT:      -7.9      2.198      4.932
  Name = 
  4 active torsions:
  status: ('A' for Active; 'I' for Inactive)
    1  A    between atoms: C_1  and  C_3
    2  A    between atoms: C_1  and  C_6
    3  A    between atoms: C_19  and  N_21
    4  A    between atoms: C_22  and  C_27
                            x       y       z     vdW  Elec       q    Type
                         _______ _______ _______ _____ _____    ______ ____

>  <TORSDO>
F 4

$$$$
=
 OpenBabel10232411323D

 27 32  0  0  1  0  0  0  0  0999 V2000
  189.4180  178.8600  142.8120 O   0  0  0  0  0  0  0  0  0  0  0  0
  187.8690  177.1170  143.0740 N   0  0  0  0  0  2  0  0  0  0  0  0
  188.9520  177.7670  142.3970 C   0  0  0  0  0  0  0  0  0  0  0  0
  186.0380  178.4540  144.2830 C   0  0  0  0  0  2  0  0  0  0  0  0
  189.9100  176.8780  146.9750 C   0  0  0  0  0  2  0  0  0  0  0  0
  186.0280  178.2700  146.7630 N   0  0  0  0  0  0  0  0  0  0  0  0
  187.2340  177.7900  146.7300 C   0  0  0  0  0  0  0  0  0  0  0  0
  189.2440  176.6490  145.5690 C   0  0  0  0  0  2  0  0  0  0  0  0
  185.1950  178.3100  145.5580 C   0  0  0  0  0  2  0  0  0  0  0  0
  188.6790  178.3690  148.8720 N   0  0  0  0  0  2  0  0  0  0  0  0
  188.0110  177.4510  147.9550 C   0  0  2  0  0  3  0  0  0  0  0  0
  187.2470  177.5450  144.2950 C   0  0  0  0  0  0  0  0  0  0  0  0
  189.2740  178.1380  147.5520 C   0  0  2  0  0  3  0  0  0  0  0  0
  187.8440  177.2850  145.4660 C   0  0  0  0  0  0  0  0  0  0  0  0
  189.3710  177.0500  138.9120 C   0  0  2  0  0  3  0  0  0  0  0  0
  191.6100  176.2170  138.8320 O   0  0  0  0  0  1  0  0  0  0  0  0
  188.6450  176.8190  140.0960 O   0  0  0  0  0  0  0  0  0  0  0  0
  190.5060  176.2050  141.3760 O   0  0  0  0  0  0  0  0  0  0  0  0
  190.8880  177.4230  140.7560 C   0  0  1  0  0  3  0  0  0  0  0  0
  190.8340  177.2970  139.2560 C   0  0  2  0  0  3  0  0  0  0  0  0
  189.5030  177.1600  141.1530 C   0  0  2  0  0  0  0  0  0  0  0  0
  188.7810  178.2470  138.1780 C   0  0  0  0  0  2  0  0  0  0  0  0
  186.4040  178.7140  138.6680 O   0  0  0  0  0  0  0  0  0  0  0  0
  187.3130  178.0700  137.9810 C   0  0  0  0  0  0  0  0  0  0  0  0
  186.7810  177.2510  137.0580 N   0  0  0  0  0  0  0  0  0  0  0  0
  185.2300  178.3340  138.2230 C   0  0  0  0  0  3  0  0  0  0  0  0
  185.4530  177.4160  137.2130 C   0  0  0  0  0  3  0  0  0  0  0  0
  2 12  1  0  0  0  0
  3  1  2  0  0  0  0
  3  2  1  0  0  0  0
  4 12  1  0  0  0  0
  4  9  1  0  0  0  0
  7  6  2  0  0  0  0
  8  5  1  0  0  0  0
  9  6  1  0  0  0  0
 11  7  1  6  0  0  0
 11 10  1  0  0  0  0
 12 14  2  0  0  0  0
 13  5  1  1  0  0  0
 13 11  1  0  0  0  0
 13 10  1  0  0  0  0
 14  8  1  0  0  0  0
 14  7  1  0  0  0  0
 15 22  1  1  0  0  0
 15 20  1  0  0  0  0
 15 17  1  0  0  0  0
 17 21  1  0  0  0  0
 19 21  1  0  0  0  0
 19 18  1  1  0  0  0
 20 16  1  1  0  0  0
 20 19  1  0  0  0  0
 21 18  1  0  0  0  0
 21  3  1  1  0  0  0
 24 22  1  0  0  0  0
 24 23  1  0  0  0  0
 25 27  1  0  0  0  0
 25 24  2  0  0  0  0
 26 23  1  0  0  0  0
 27 26  2  0  0  0  0
M  END
>  <MODEL>
5

>  <REMARK>
 VINA RESULT:      -7.9      2.079      4.181
  Name = 
  4 active torsions:
  status: ('A' for Active; 'I' for Inactive)
    1  A    between atoms: C_1  and  C_3
    2  A    between atoms: C_1  and  C_6
    3  A    between atoms: C_19  and  N_21
    4  A    between atoms: C_22  and  C_27
                            x       y       z     vdW  Elec       q    Type
                         _______ _______ _______ _____ _____    ______ ____

>  <TORSDO>
F 4

$$$$
=
 OpenBabel10232411323D

 27 32  0  0  1  0  0  0  0  0999 V2000
  187.1610  176.7170  143.6120 O   0  0  0  0  0  0  0  0  0  0  0  0
  186.5840  178.7310  142.5530 N   0  0  0  0  0  2  0  0  0  0  0  0
  187.5150  177.7030  142.9130 C   0  0  0  0  0  0  0  0  0  0  0  0
  184.6680  178.5230  144.2520 C   0  0  0  0  0  2  0  0  0  0  0  0
  183.5110  178.2880  139.4210 C   0  0  0  0  0  2  0  0  0  0  0  0
  182.3800  178.8880  143.3470 N   0  0  0  0  0  0  0  0  0  0  0  0
  182.8350  178.7360  142.1410 C   0  0  0  0  0  0  0  0  0  0  0  0
  184.7080  178.6910  140.3580 C   0  0  0  0  0  2  0  0  0  0  0  0
  183.2840  179.1510  144.4710 C   0  0  0  0  0  2  0  0  0  0  0  0
  181.0710  177.7170  140.4500 N   0  0  0  0  0  2  0  0  0  0  0  0
  181.9650  178.7640  140.9310 C   0  0  2  0  0  3  0  0  0  0  0  0
  185.1790  178.7480  142.8450 C   0  0  0  0  0  0  0  0  0  0  0  0
  182.5170  177.5310  140.2950 C   0  0  2  0  0  3  0  0  0  0  0  0
  184.2950  178.7880  141.8400 C   0  0  0  0  0  0  0  0  0  0  0  0
  191.0810  177.3790  142.9980 C   0  0  2  0  0  3  0  0  0  0  0  0
  191.6700  177.6480  140.6970 O   0  0  0  0  0  1  0  0  0  0  0  0
  189.9380  178.0630  143.4500 O   0  0  0  0  0  0  0  0  0  0  0  0
  189.1250  178.5630  141.3120 O   0  0  0  0  0  0  0  0  0  0  0  0
  189.4070  177.1730  141.2700 C   0  0  1  0  0  3  0  0  0  0  0  0
  190.8610  176.9140  141.5650 C   0  0  2  0  0  3  0  0  0  0  0  0
  188.9390  177.8290  142.4920 C   0  0  2  0  0  0  0  0  0  0  0  0
  191.3600  176.1930  143.9130 C   0  0  0  0  0  2  0  0  0  0  0  0
  189.8220  176.7680  145.7610 O   0  0  0  0  0  0  0  0  0  0  0  0
  191.0350  176.5340  145.3280 C   0  0  0  0  0  0  0  0  0  0  0  0
  191.9570  176.6090  146.3040 N   0  0  0  0  0  0  0  0  0  0  0  0
  189.9020  177.0120  147.0470 C   0  0  0  0  0  3  0  0  0  0  0  0
  191.2360  176.9160  147.4000 C   0  0  0  0  0  3  0  0  0  0  0  0
  2 12  1  0  0  0  0
  2  3  1  0  0  0  0
  3  1  2  0  0  0  0
  4  9  1  0  0  0  0
  5  8  1  0  0  0  0
  6  9  1  0  0  0  0
  7  6  2  0  0  0  0
  8 14  1  0  0  0  0
 11 10  1  1  0  0  0
 11  7  1  0  0  0  0
 12  4  1  0  0  0  0
 13  5  1  6  0  0  0
 13 10  1  0  0  0  0
 13 11  1  0  0  0  0
 14  7  1  0  0  0  0
 14 12  2  0  0  0  0
 15 17  1  0  0  0  0
 15 22  1  1  0  0  0
 18 21  1  0  0  0  0
 19 18  1  6  0  0  0
 19 20  1  0  0  0  0
 19 21  1  0  0  0  0
 20 16  1  6  0  0  0
 20 15  1  0  0  0  0
 21  3  1  1  0  0  0
 21 17  1  0  0  0  0
 22 24  1  0  0  0  0
 23 26  1  0  0  0  0
 24 23  1  0  0  0  0
 24 25  2  0  0  0  0
 25 27  1  0  0  0  0
 26 27  2  0  0  0  0
M  END
>  <MODEL>
6

>  <REMARK>
 VINA RESULT:      -7.8      3.168      6.845
  Name = 
  4 active torsions:
  status: ('A' for Active; 'I' for Inactive)
    1  A    between atoms: C_1  and  C_3
    2  A    between atoms: C_1  and  C_6
    3  A    between atoms: C_19  and  N_21
    4  A    between atoms: C_22  and  C_27
                            x       y       z     vdW  Elec       q    Type
                         _______ _______ _______ _____ _____    ______ ____

>  <TORSDO>
F 4

$$$$
=
 OpenBabel10232411323D

 27 32  0  0  1  0  0  0  0  0999 V2000
  190.4430  179.4160  143.3740 O   0  0  0  0  0  0  0  0  0  0  0  0
  189.0880  177.5050  143.2280 N   0  0  0  0  0  2  0  0  0  0  0  0
  190.0360  178.3450  143.8970 C   0  0  0  0  0  0  0  0  0  0  0  0
  186.9360  177.9480  141.8940 C   0  0  0  0  0  2  0  0  0  0  0  0
  191.0450  176.7990  139.3400 C   0  0  0  0  0  2  0  0  0  0  0  0
  187.2470  178.4130  139.4710 N   0  0  0  0  0  0  0  0  0  0  0  0
  188.4510  177.9330  139.5350 C   0  0  0  0  0  0  0  0  0  0  0  0
  190.6040  177.2320  140.7850 C   0  0  0  0  0  2  0  0  0  0  0  0
  186.5160  178.7940  140.6830 C   0  0  0  0  0  2  0  0  0  0  0  0
  189.2820  176.8130  137.2840 N   0  0  0  0  0  2  0  0  0  0  0  0
  189.3450  177.8090  138.3480 C   0  0  2  0  0  3  0  0  0  0  0  0
  188.4380  177.7800  141.9770 C   0  0  0  0  0  0  0  0  0  0  0  0
  189.7710  176.4010  138.6030 C   0  0  2  0  0  3  0  0  0  0  0  0
  189.1410  177.7150  140.8390 C   0  0  0  0  0  0  0  0  0  0  0  0
  190.1080  177.2270  147.3000 C   0  0  2  0  0  3  0  0  0  0  0  0
  192.3050  176.3020  147.4830 O   0  0  0  0  0  1  0  0  0  0  0  0
  189.9380  178.2980  146.4020 O   0  0  0  0  0  0  0  0  0  0  0  0
  191.9820  177.9880  145.3040 O   0  0  0  0  0  0  0  0  0  0  0  0
  191.3880  176.7000  145.3200 C   0  0  1  0  0  3  0  0  0  0  0  0
  191.1290  176.2490  146.7340 C   0  0  2  0  0  3  0  0  0  0  0  0
  190.5840  177.9190  145.2150 C   0  0  2  0  0  0  0  0  0  0  0  0
  188.7700  176.5380  147.5290 C   0  0  0  0  0  2  0  0  0  0  0  0
  187.1560  178.3910  147.7970 O   0  0  0  0  0  0  0  0  0  0  0  0
  187.6460  177.4110  147.0820 C   0  0  0  0  0  0  0  0  0  0  0  0
  187.0440  177.2910  145.8860 N   0  0  0  0  0  0  0  0  0  0  0  0
  186.2020  178.9540  147.0960 C   0  0  0  0  0  3  0  0  0  0  0  0
  186.1210  178.2730  145.8940 C   0  0  0  0  0  3  0  0  0  0  0  0
  1  3  2  0  0  0  0
  2  3  1  0  0  0  0
  4 12  1  0  0  0  0
  5  8  1  0  0  0  0
  6  7  2  0  0  0  0
  6  9  1  0  0  0  0
  7 14  1  0  0  0  0
  8 14  1  0  0  0  0
  9  4  1  0  0  0  0
 10 13  1  0  0  0  0
 11 10  1  6  0  0  0
 11 13  1  0  0  0  0
 11  7  1  0  0  0  0
 12  2  1  0  0  0  0
 13  5  1  6  0  0  0
 14 12  2  0  0  0  0
 15 22  1  6  0  0  0
 17 15  1  0  0  0  0
 19 18  1  1  0  0  0
 19 20  1  0  0  0  0
 20 15  1  0  0  0  0
 20 16  1  1  0  0  0
 21  3  1  6  0  0  0
 21 18  1  0  0  0  0
 21 19  1  0  0  0  0
 21 17  1  0  0  0  0
 24 22  1  0  0  0  0
 24 23  1  0  0  0  0
 25 27  1  0  0  0  0
 25 24  2  0  0  0  0
 26 23  1  0  0  0  0
 27 26  2  0  0  0  0
M  END
>  <MODEL>
7

>  <REMARK>
 VINA RESULT:      -7.8      3.696      7.977
  Name = 
  4 active torsions:
  status: ('A' for Active; 'I' for Inactive)
    1  A    between atoms: C_1  and  C_3
    2  A    between atoms: C_1  and  C_6
    3  A    between atoms: C_19  and  N_21
    4  A    between atoms: C_22  and  C_27
                            x       y       z     vdW  Elec       q    Type
                         _______ _______ _______ _____ _____    ______ ____

>  <TORSDO>
F 4

$$$$
=
 OpenBabel10232411323D

 27 32  0  0  1  0  0  0  0  0999 V2000
  189.9450  178.8840  143.0010 O   0  0  0  0  0  0  0  0  0  0  0  0
  189.0270  176.8490  143.7280 N   0  0  0  0  0  2  0  0  0  0  0  0
  189.6790  177.6770  142.7570 C   0  0  0  0  0  0  0  0  0  0  0  0
  189.4760  176.7280  146.2560 C   0  0  0  0  0  2  0  0  0  0  0  0
  185.0610  178.4700  144.7700 C   0  0  0  0  0  2  0  0  0  0  0  0
  187.9610  178.0870  147.6850 N   0  0  0  0  0  0  0  0  0  0  0  0
  187.1290  178.1990  146.6950 C   0  0  0  0  0  0  0  0  0  0  0  0
  186.4840  178.1350  144.1910 C   0  0  0  0  0  2  0  0  0  0  0  0
  189.3460  177.6620  147.4680 C   0  0  0  0  0  2  0  0  0  0  0  0
  184.5970  178.4140  147.4390 N   0  0  0  0  0  2  0  0  0  0  0  0
  185.8180  178.8990  146.8050 C   0  0  2  0  0  3  0  0  0  0  0  0
  188.6770  177.2230  145.0690 C   0  0  0  0  0  0  0  0  0  0  0  0
  185.0000  177.8330  146.1550 C   0  0  2  0  0  3  0  0  0  0  0  0
  187.5270  177.8710  145.2950 C   0  0  0  0  0  0  0  0  0  0  0  0
  189.5330  177.1260  139.2210 C   0  0  2  0  0  3  0  0  0  0  0  0
  191.6870  176.1960  138.7630 O   0  0  0  0  0  1  0  0  0  0  0  0
  188.9810  176.8670  140.4900 O   0  0  0  0  0  0  0  0  0  0  0  0
  190.9770  176.1020  141.4430 O   0  0  0  0  0  0  0  0  0  0  0  0
  191.3260  177.3320  140.8270 C   0  0  1  0  0  3  0  0  0  0  0  0
  191.0420  177.2870  139.3480 C   0  0  2  0  0  3  0  0  0  0  0  0
  190.0050  177.1120  141.4180 C   0  0  2  0  0  0  0  0  0  0  0  0
  188.9030  178.3850  138.6400 C   0  0  0  0  0  2  0  0  0  0  0  0
  187.3750  177.2870  137.0370 O   0  0  0  0  0  0  0  0  0  0  0  0
  187.5630  178.0820  138.0590 C   0  0  0  0  0  0  0  0  0  0  0  0
  186.4130  178.5780  138.5490 N   0  0  0  0  0  0  0  0  0  0  0  0
  186.0850  177.2330  136.8100 C   0  0  0  0  0  3  0  0  0  0  0  0
  185.4700  178.0390  137.7510 C   0  0  0  0  0  3  0  0  0  0  0  0
  2 12  1  0  0  0  0
  3  1  2  0  0  0  0
  3  2  1  0  0  0  0
  4  9  1  0  0  0  0
  7  6  2  0  0  0  0
  8  5  1  0  0  0  0
  8 14  1  0  0  0  0
  9  6  1  0  0  0  0
 11  7  1  1  0  0  0
 11 10  1  0  0  0  0
 12 14  2  0  0  0  0
 12  4  1  0  0  0  0
 13  5  1  6  0  0  0
 13 11  1  0  0  0  0
 13 10  1  0  0  0  0
 14  7  1  0  0  0  0
 15 22  1  1  0  0  0
 15 20  1  0  0  0  0
 15 17  1  0  0  0  0
 17 21  1  0  0  0  0
 19 21  1  0  0  0  0
 19 18  1  6  0  0  0
 20 16  1  1  0  0  0
 20 19  1  0  0  0  0
 21 18  1  0  0  0  0
 21  3  1  1  0  0  0
 23 24  1  0  0  0  0
 24 25  2  0  0  0  0
 24 22  1  0  0  0  0
 26 23  1  0  0  0  0
 26 27  2  0  0  0  0
 27 25  1  0  0  0  0
M  END
>  <MODEL>
8

>  <REMARK>
 VINA RESULT:      -7.8      2.513      4.785
  Name = 
  4 active torsions:
  status: ('A' for Active; 'I' for Inactive)
    1  A    between atoms: C_1  and  C_3
    2  A    between atoms: C_1  and  C_6
    3  A    between atoms: C_19  and  N_21
    4  A    between atoms: C_22  and  C_27
                            x       y       z     vdW  Elec       q    Type
                         _______ _______ _______ _____ _____    ______ ____

>  <TORSDO>
F 4

$$$$
=
 OpenBabel10232411323D

 27 32  0  0  1  0  0  0  0  0999 V2000
  185.5110  179.0520  140.0640 O   0  0  0  0  0  0  0  0  0  0  0  0
  187.1280  178.1780  141.5230 N   0  0  0  0  0  2  0  0  0  0  0  0
  186.6700  178.5870  140.2290 C   0  0  0  0  0  0  0  0  0  0  0  0
  185.2090  179.2170  142.8800 C   0  0  0  0  0  2  0  0  0  0  0  0
  188.8510  176.9450  145.3900 C   0  0  0  0  0  2  0  0  0  0  0  0
  185.0010  178.4300  145.2300 N   0  0  0  0  0  0  0  0  0  0  0  0
  186.2040  177.9460  145.1730 C   0  0  0  0  0  0  0  0  0  0  0  0
  188.2990  177.0830  143.9250 C   0  0  0  0  0  2  0  0  0  0  0  0
  184.2660  178.7820  144.0120 C   0  0  0  0  0  2  0  0  0  0  0  0
  187.4750  177.9510  147.4960 N   0  0  0  0  0  2  0  0  0  0  0  0
  186.8810  177.3000  146.3330 C   0  0  2  0  0  3  0  0  0  0  0  0
  186.4120  178.3060  142.7610 C   0  0  0  0  0  0  0  0  0  0  0  0
  188.1730  178.0380  146.2100 C   0  0  2  0  0  3  0  0  0  0  0  0
  186.9130  177.7540  143.8740 C   0  0  0  0  0  0  0  0  0  0  0  0
  189.6180  177.8500  138.3330 C   0  0  2  0  0  3  0  0  0  0  0  0
  188.7260  177.4130  136.1580 O   0  0  0  0  0  1  0  0  0  0  0  0
  188.9190  178.7690  139.1370 O   0  0  0  0  0  0  0  0  0  0  0  0
  186.9790  178.7740  137.8280 O   0  0  0  0  0  0  0  0  0  0  0  0
  187.2630  177.4000  138.0380 C   0  0  1  0  0  3  0  0  0  0  0  0
  188.6250  177.0480  137.5010 C   0  0  2  0  0  3  0  0  0  0  0  0
  187.5640  178.4130  139.0500 C   0  0  2  0  0  0  0  0  0  0  0  0
  190.4490  176.9290  139.2160 C   0  0  0  0  0  2  0  0  0  0  0  0
  192.5200  176.6170  137.9030 O   0  0  0  0  0  0  0  0  0  0  0  0
  191.4060  176.1350  138.3930 C   0  0  0  0  0  0  0  0  0  0  0  0
  191.2300  174.8350  138.0960 N   0  0  0  0  0  0  0  0  0  0  0  0
  193.1200  175.6470  137.2550 C   0  0  0  0  0  3  0  0  0  0  0  0
  192.3210  174.5240  137.3690 C   0  0  0  0  0  3  0  0  0  0  0  0
  1  3  2  0  0  0  0
  2 12  1  0  0  0  0
  3  2  1  0  0  0  0
  4  9  1  0  0  0  0
  7  6  2  0  0  0  0
  8  5  1  0  0  0  0
  9  6  1  0  0  0  0
 11  7  1  6  0  0  0
 11 10  1  0  0  0  0
 12  4  1  0  0  0  0
 12 14  2  0  0  0  0
 13  5  1  1  0  0  0
 13 11  1  0  0  0  0
 13 10  1  0  0  0  0
 14  8  1  0  0  0  0
 14  7  1  0  0  0  0
 15 17  1  0  0  0  0
 15 22  1  1  0  0  0
 18 21  1  0  0  0  0
 19 18  1  6  0  0  0
 19 21  1  0  0  0  0
 20 16  1  6  0  0  0
 20 19  1  0  0  0  0
 20 15  1  0  0  0  0
 21 17  1  0  0  0  0
 21  3  1  1  0  0  0
 23 24  1  0  0  0  0
 24 22  1  0  0  0  0
 25 24  2  0  0  0  0
 26 27  2  0  0  0  0
 26 23  1  0  0  0  0
 27 25  1  0  0  0  0
M  END
>  <MODEL>
9

>  <REMARK>
 VINA RESULT:      -7.8      2.528      3.710
  Name = 
  4 active torsions:
  status: ('A' for Active; 'I' for Inactive)
    1  A    between atoms: C_1  and  C_3
    2  A    between atoms: C_1  and  C_6
    3  A    between atoms: C_19  and  N_21
    4  A    between atoms: C_22  and  C_27
                            x       y       z     vdW  Elec       q    Type
                         _______ _______ _______ _____ _____    ______ ____

>  <TORSDO>
F 4

$$$$
