=
 OpenBabel10232408323D

 45 49  0  0  1  0  0  0  0  0999 V2000
  188.2750  177.9530  139.8230 C   0  0  0  0  0  2  0  0  0  0  0  0
  190.2650  176.1730  141.4650 C   0  0  0  0  0  2  0  0  0  0  0  0
  188.7320  178.6010  138.5270 C   0  0  0  0  0  2  0  0  0  0  0  0
  189.2350  177.5290  137.5620 C   0  0  0  0  0  2  0  0  0  0  0  0
  189.2920  178.0460  140.8750 N   0  0  2  0  0  0  0  0  0  0  0  0
  191.0900  177.1040  139.1790 C   0  0  2  0  0  3  0  0  0  0  0  0
  190.5940  177.3840  140.6200 C   0  0  2  0  0  3  0  0  0  0  0  0
  188.9760  176.9250  141.7620 C   0  0  2  0  0  3  0  0  0  0  0  0
  190.0670  176.4540  138.2630 C   0  0  0  0  0  2  0  0  0  0  0  0
  188.8550  177.3610  143.2020 C   0  0  0  0  0  0  0  0  0  0  0  0
  189.3550  177.8990  145.4390 C   0  0  2  0  0  3  0  0  0  0  0  0
  189.3660  176.4910  147.3620 O   0  0  0  0  0  0  0  0  0  0  0  0
  189.8450  177.5360  144.0840 C   0  0  0  0  0  0  0  0  0  0  0  0
  192.0130  176.8240  144.9180 C   0  0  0  0  0  3  0  0  0  0  0  0
  189.9980  176.9640  146.4310 C   0  0  0  0  0  0  0  0  0  0  0  0
  187.5180  177.5220  143.8350 C   0  0  0  0  0  2  0  0  0  0  0  0
  186.9900  177.9850  146.2430 C   0  0  0  0  0  3  0  0  0  0  0  0
  187.8760  177.7640  145.2650 C   0  0  0  0  0  0  0  0  0  0  0  0
  191.4850  176.7230  146.3340 C   0  0  0  0  0  2  0  0  0  0  0  0
  191.2560  177.1840  143.8760 C   0  0  0  0  0  3  0  0  0  0  0  0
  185.2190  177.9270  145.9560 S   0  0  0  0  0  0  0  0  0  0  0  0
  185.2680  179.4240  144.9370 C   0  0  0  0  0  2  0  0  0  0  0  0
  183.7370  179.5450  143.9750 S   0  0  0  0  0  0  0  0  0  0  0  0
  184.4090  178.5140  142.6350 C   0  0  0  0  0  2  0  0  0  0  0  0
  185.4080  179.3050  141.8060 C   0  0  0  0  0  2  0  0  0  0  0  0
  184.9270  179.4480  140.4440 N   0  0  0  0  0  2  0  0  0  0  0  0
  183.6470  178.7530  140.3710 C   0  0  0  0  0  2  0  0  0  0  0  0
  182.9100  176.7110  139.1780 C   0  0  0  0  0  1  0  0  0  0  0  0
  183.4580  178.1130  138.9990 C   0  0  0  0  0  0  0  0  0  0  0  0
  182.5530  178.8610  138.2430 O   0  0  0  0  0  1  0  0  0  0  0  0
  184.7910  178.0280  138.2710 C   0  0  0  0  0  1  0  0  0  0  0  0
  192.6080  176.2550  136.9160 O   0  0  0  0  0  0  0  0  0  0  0  0
  192.2940  176.2860  139.2240 N   0  0  0  0  0  2  0  0  0  0  0  0
  194.3610  175.4140  138.1970 N   0  0  0  0  0  2  0  0  0  0  0  0
  193.0630  175.9860  138.0590 C   0  0  0  0  0  0  0  0  0  0  0  0
  197.3370  173.0730  137.6960 O   0  0  0  0  0  0  0  0  0  0  0  0
  196.6780  175.4000  137.3140 C   0  0  1  0  0  3  0  0  0  0  0  0
  194.9920  172.6610  139.1400 O   0  0  0  0  0  1  0  0  0  0  0  0
  195.5650  171.2610  137.0030 O   0  0  0  0  0  0  0  0  0  0  0  0
  195.6930  172.6460  137.5970 P   0  0  2  0  0  0  0  0  0  0  0  0
  195.1880  175.0910  137.0390 C   0  0  1  0  0  3  0  0  0  0  0  0
  194.9250  173.7770  136.5740 O   0  0  0  0  0  0  0  0  0  0  0  0
  197.3660  174.3690  138.2310 C   0  0  0  0  0  2  0  0  0  0  0  0
  197.4350  175.7730  136.1800 O   0  0  0  0  0  0  0  0  0  0  0  0
  196.6130  176.4780  135.2830 C   0  0  0  0  0  1  0  0  0  0  0  0
  2  8  1  0  0  0  0
  3  1  1  0  0  0  0
  4  9  1  0  0  0  0
  4  3  1  0  0  0  0
  5  1  1  6  0  0  0
  5  8  1  0  0  0  0
  6 33  1  1  0  0  0
  6  7  1  0  0  0  0
  7  5  1  0  0  0  0
  7  2  1  1  0  0  0
  8 10  1  1  0  0  0
  9  6  1  0  0  0  0
 10 16  1  0  0  0  0
 10 13  2  0  0  0  0
 11 13  1  6  0  0  0
 11 15  1  0  0  0  0
 14 19  1  0  0  0  0
 15 12  2  0  0  0  0
 16 18  1  0  0  0  0
 18 11  1  0  0  0  0
 18 17  2  0  0  0  0
 19 15  1  0  0  0  0
 20 13  1  0  0  0  0
 20 14  2  0  0  0  0
 21 17  1  0  0  0  0
 22 21  1  0  0  0  0
 23 22  1  0  0  0  0
 24 23  1  0  0  0  0
 25 24  1  0  0  0  0
 26 25  1  0  0  0  0
 27 26  1  0  0  0  0
 29 28  1  0  0  0  0
 29 27  1  0  0  0  0
 30 29  1  0  0  0  0
 31 29  1  0  0  0  0
 32 35  2  0  0  0  0
 35 34  1  0  0  0  0
 35 33  1  0  0  0  0
 36 43  1  0  0  0  0
 37 44  1  6  0  0  0
 37 43  1  0  0  0  0
 40 39  2  6  0  0  0
 40 36  1  0  0  0  0
 40 38  1  0  0  0  0
 41 37  1  0  0  0  0
 41 34  1  1  0  0  0
 42 41  1  0  0  0  0
 42 40  1  0  0  0  0
 45 44  1  0  0  0  0
M  END
>  <MODEL>
1

>  <REMARK>
 VINA RESULT:      -8.3      0.000      0.000
  Name = 
  12 active torsions:
  status: ('A' for Active; 'I' for Inactive)
    1  A    between atoms: C_1  and  C_41
    2  A    between atoms: N_7  and  C_14
    3  A    between atoms: N_7  and  C_21
    4  A    between atoms: S_8  and  C_9
    5  A    between atoms: S_8  and  C_36
    6  A    between atoms: C_9  and  S_28
    7  A    between atoms: C_12  and  C_21
    8  A    between atoms: N_13  and  C_33
    9  A    between atoms: C_14  and  C_15
   10  A    between atoms: C_15  and  S_28
   11  A    between atoms: C_16  and  O_43
   12  A    between atoms: N_18  and  C_32
                            x       y       z     vdW  Elec       q    Type
                         _______ _______ _______ _____ _____    ______ ____

>  <TORSDO>
F 12

$$$$
=
 OpenBabel10232408323D

 45 49  0  0  1  0  0  0  0  0999 V2000
  181.9490  178.6960  142.2960 C   0  0  0  0  0  2  0  0  0  0  0  0
  184.6920  179.2100  140.8680 C   0  0  0  0  0  2  0  0  0  0  0  0
  181.9250  178.2110  143.7350 C   0  0  0  0  0  2  0  0  0  0  0  0
  182.6870  179.1900  144.6250 C   0  0  0  0  0  2  0  0  0  0  0  0
  182.9710  178.0090  141.4990 N   0  0  2  0  0  0  0  0  0  0  0  0
  184.7520  178.5370  143.3820 C   0  0  2  0  0  3  0  0  0  0  0  0
  184.3830  178.1700  141.9230 C   0  0  2  0  0  3  0  0  0  0  0  0
  183.2610  178.9540  140.4190 C   0  0  2  0  0  3  0  0  0  0  0  0
  183.9700  179.7010  143.9690 C   0  0  0  0  0  2  0  0  0  0  0  0
  183.1670  178.3050  139.0600 C   0  0  0  0  0  0  0  0  0  0  0  0
  182.5930  177.8400  136.8240 C   0  0  2  0  0  3  0  0  0  0  0  0
  180.7610  176.5790  135.9690 O   0  0  0  0  0  0  0  0  0  0  0  0
  182.5490  178.7810  137.9740 C   0  0  0  0  0  0  0  0  0  0  0  0
  180.6850  180.0320  137.0440 C   0  0  0  0  0  3  0  0  0  0  0  0
  181.1870  177.6710  136.3090 C   0  0  0  0  0  0  0  0  0  0  0  0
  183.6860  176.9280  138.8400 C   0  0  0  0  0  2  0  0  0  0  0  0
  183.4600  175.4960  136.7930 C   0  0  0  0  0  3  0  0  0  0  0  0
  183.2180  176.6360  137.4510 C   0  0  0  0  0  0  0  0  0  0  0  0
  180.3460  178.9050  136.0900 C   0  0  0  0  0  2  0  0  0  0  0  0
  181.6910  179.9720  137.9240 C   0  0  0  0  0  3  0  0  0  0  0  0
  184.3210  174.1180  137.5560 S   0  0  0  0  0  0  0  0  0  0  0  0
  185.2570  173.7790  136.0420 C   0  0  0  0  0  2  0  0  0  0  0  0
  186.9780  173.4080  136.4730 S   0  0  0  0  0  0  0  0  0  0  0  0
  187.5670  174.9910  135.7990 C   0  0  0  0  0  2  0  0  0  0  0  0
  188.9370  175.3330  136.3620 C   0  0  0  0  0  2  0  0  0  0  0  0
  188.8000  175.9770  137.6550 N   0  0  0  0  0  2  0  0  0  0  0  0
  189.4440  177.2810  137.5520 C   0  0  0  0  0  2  0  0  0  0  0  0
  188.6330  178.3920  139.6120 C   0  0  0  0  0  1  0  0  0  0  0  0
  188.5360  178.3770  138.0990 C   0  0  0  0  0  0  0  0  0  0  0  0
  188.9360  179.6210  137.6060 O   0  0  0  0  0  1  0  0  0  0  0  0
  187.0910  178.1080  137.7040 C   0  0  0  0  0  1  0  0  0  0  0  0
  186.8210  176.5750  143.4880 O   0  0  0  0  0  0  0  0  0  0  0  0
  186.1790  178.8140  143.4730 N   0  0  0  0  0  2  0  0  0  0  0  0
  188.5380  178.1280  143.2410 N   0  0  0  0  0  2  0  0  0  0  0  0
  187.1660  177.7840  143.4160 C   0  0  0  0  0  0  0  0  0  0  0  0
  191.8890  177.7230  145.0290 O   0  0  0  0  0  0  0  0  0  0  0  0
  190.9410  177.7370  142.7720 C   0  0  1  0  0  3  0  0  0  0  0  0
  189.4330  178.5530  146.0490 O   0  0  0  0  0  0  0  0  0  0  0  0
  190.5650  176.3170  146.8100 O   0  0  0  0  0  1  0  0  0  0  0  0
  190.3720  177.2130  145.6060 P   0  0  2  0  0  0  0  0  0  0  0  0
  189.5840  177.1130  143.1740 C   0  0  1  0  0  3  0  0  0  0  0  0
  189.6130  176.3310  144.3560 O   0  0  0  0  0  0  0  0  0  0  0  0
  191.6240  178.5240  143.9070 C   0  0  0  0  0  2  0  0  0  0  0  0
  191.8050  176.8830  142.0480 O   0  0  0  0  0  0  0  0  0  0  0  0
  192.0730  177.4490  140.7890 C   0  0  0  0  0  1  0  0  0  0  0  0
  1  3  1  0  0  0  0
  3  4  1  0  0  0  0
  5  7  1  0  0  0  0
  5  1  1  1  0  0  0
  6 33  1  6  0  0  0
  6  9  1  0  0  0  0
  7  2  1  6  0  0  0
  7  6  1  0  0  0  0
  8 10  1  6  0  0  0
  8  2  1  0  0  0  0
  8  5  1  0  0  0  0
  9  4  1  0  0  0  0
 11 15  1  1  0  0  0
 11 18  1  0  0  0  0
 11 13  1  0  0  0  0
 12 15  2  0  0  0  0
 13 10  2  0  0  0  0
 14 20  2  0  0  0  0
 16 10  1  0  0  0  0
 17 18  2  0  0  0  0
 17 21  1  0  0  0  0
 18 16  1  0  0  0  0
 19 15  1  0  0  0  0
 19 14  1  0  0  0  0
 20 13  1  0  0  0  0
 22 23  1  0  0  0  0
 22 21  1  0  0  0  0
 24 25  1  0  0  0  0
 24 23  1  0  0  0  0
 25 26  1  0  0  0  0
 27 26  1  0  0  0  0
 27 29  1  0  0  0  0
 29 28  1  0  0  0  0
 30 29  1  0  0  0  0
 31 29  1  0  0  0  0
 34 35  1  0  0  0  0
 35 33  1  0  0  0  0
 35 32  2  0  0  0  0
 36 40  1  0  0  0  0
 37 44  1  1  0  0  0
 37 41  1  0  0  0  0
 37 43  1  0  0  0  0
 40 38  2  1  0  0  0
 40 39  1  0  0  0  0
 41 34  1  1  0  0  0
 41 42  1  0  0  0  0
 42 40  1  0  0  0  0
 43 36  1  0  0  0  0
 45 44  1  0  0  0  0
M  END
>  <MODEL>
2

>  <REMARK>
 VINA RESULT:      -7.7      4.474      9.153
  Name = 
  12 active torsions:
  status: ('A' for Active; 'I' for Inactive)
    1  A    between atoms: C_1  and  C_41
    2  A    between atoms: N_7  and  C_14
    3  A    between atoms: N_7  and  C_21
    4  A    between atoms: S_8  and  C_9
    5  A    between atoms: S_8  and  C_36
    6  A    between atoms: C_9  and  S_28
    7  A    between atoms: C_12  and  C_21
    8  A    between atoms: N_13  and  C_33
    9  A    between atoms: C_14  and  C_15
   10  A    between atoms: C_15  and  S_28
   11  A    between atoms: C_16  and  O_43
   12  A    between atoms: N_18  and  C_32
                            x       y       z     vdW  Elec       q    Type
                         _______ _______ _______ _____ _____    ______ ____

>  <TORSDO>
F 12

$$$$
=
 OpenBabel10232408323D

 45 49  0  0  1  0  0  0  0  0999 V2000
  191.6720  176.0800  138.1390 C   0  0  0  0  0  2  0  0  0  0  0  0
  188.7960  177.2810  137.8060 C   0  0  0  0  0  2  0  0  0  0  0  0
  192.0590  174.8210  137.3820 C   0  0  0  0  0  2  0  0  0  0  0  0
  191.8630  175.0380  135.8830 C   0  0  0  0  0  2  0  0  0  0  0  0
  190.3220  175.9900  138.7050 N   0  0  2  0  0  0  0  0  0  0  0  0
  189.4160  175.2180  136.3430 C   0  0  2  0  0  3  0  0  0  0  0  0
  189.1980  175.8220  137.7530 C   0  0  2  0  0  3  0  0  0  0  0  0
  189.9080  177.3880  138.8370 C   0  0  2  0  0  3  0  0  0  0  0  0
  190.5800  175.8070  135.5650 C   0  0  0  0  0  2  0  0  0  0  0  0
  189.4090  177.7010  140.2260 C   0  0  0  0  0  0  0  0  0  0  0  0
  189.2890  178.0090  142.5580 C   0  0  2  0  0  3  0  0  0  0  0  0
  188.7230  176.4380  144.2580 O   0  0  0  0  0  0  0  0  0  0  0  0
  190.1220  177.7390  141.3570 C   0  0  0  0  0  0  0  0  0  0  0  0
  191.9510  176.8280  142.6720 C   0  0  0  0  0  3  0  0  0  0  0  0
  189.6020  176.9540  143.5870 C   0  0  0  0  0  0  0  0  0  0  0  0
  187.9550  177.8860  140.4860 C   0  0  0  0  0  2  0  0  0  0  0  0
  186.7980  178.1650  142.6930 C   0  0  0  0  0  3  0  0  0  0  0  0
  187.9130  177.9790  141.9760 C   0  0  0  0  0  0  0  0  0  0  0  0
  191.0490  176.6340  143.8740 C   0  0  0  0  0  2  0  0  0  0  0  0
  191.5230  177.3220  141.5050 C   0  0  0  0  0  3  0  0  0  0  0  0
  185.1740  178.2380  141.9320 S   0  0  0  0  0  0  0  0  0  0  0  0
  184.6320  179.5480  143.0590 C   0  0  0  0  0  2  0  0  0  0  0  0
  183.8880  178.8010  144.5330 S   0  0  0  0  0  0  0  0  0  0  0  0
  185.2500  179.3670  145.5980 C   0  0  0  0  0  2  0  0  0  0  0  0
  185.4190  178.4340  146.7870 C   0  0  0  0  0  2  0  0  0  0  0  0
  186.4330  177.4360  146.5000 N   0  0  0  0  0  2  0  0  0  0  0  0
  187.7260  178.0990  146.6110 C   0  0  0  0  0  2  0  0  0  0  0  0
  188.4070  178.2430  148.9890 C   0  0  0  0  0  1  0  0  0  0  0  0
  188.5720  177.4540  147.7050 C   0  0  0  0  0  0  0  0  0  0  0  0
  188.1510  176.1400  147.9220 O   0  0  0  0  0  1  0  0  0  0  0  0
  190.0410  177.4650  147.3090 C   0  0  0  0  0  1  0  0  0  0  0  0
  187.2110  173.4070  136.4030 O   0  0  0  0  0  0  0  0  0  0  0  0
  188.1930  175.3430  135.5610 N   0  0  0  0  0  2  0  0  0  0  0  0
  185.8300  174.7820  135.1300 N   0  0  0  0  0  2  0  0  0  0  0  0
  187.0860  174.4570  135.7190 C   0  0  0  0  0  0  0  0  0  0  0  0
  182.4630  175.1900  136.8860 O   0  0  0  0  0  0  0  0  0  0  0  0
  184.3470  173.6330  136.7520 C   0  0  1  0  0  3  0  0  0  0  0  0
  183.8980  177.0350  135.3720 O   0  0  0  0  0  1  0  0  0  0  0  0
  181.5790  176.1070  134.5880 O   0  0  0  0  0  0  0  0  0  0  0  0
  182.8460  175.7080  135.3110 P   0  0  2  0  0  0  0  0  0  0  0  0
  184.6670  173.9110  135.2640 C   0  0  1  0  0  3  0  0  0  0  0  0
  183.5760  174.3950  134.4990 O   0  0  0  0  0  0  0  0  0  0  0  0
  183.6800  174.8190  137.4750 C   0  0  0  0  0  2  0  0  0  0  0  0
  183.7540  172.3770  137.0150 O   0  0  0  0  0  0  0  0  0  0  0  0
  184.2580  171.4250  136.1100 C   0  0  0  0  0  1  0  0  0  0  0  0
  2  8  1  0  0  0  0
  3  1  1  0  0  0  0
  4  3  1  0  0  0  0
  5  1  1  6  0  0  0
  5  8  1  0  0  0  0
  6 33  1  6  0  0  0
  6  7  1  0  0  0  0
  7  2  1  6  0  0  0
  7  5  1  0  0  0  0
  8 10  1  1  0  0  0
  9  4  1  0  0  0  0
  9  6  1  0  0  0  0
 10 16  1  0  0  0  0
 10 13  2  0  0  0  0
 11 13  1  6  0  0  0
 11 15  1  0  0  0  0
 13 20  1  0  0  0  0
 14 19  1  0  0  0  0
 15 19  1  0  0  0  0
 15 12  2  0  0  0  0
 16 18  1  0  0  0  0
 18 11  1  0  0  0  0
 18 17  2  0  0  0  0
 20 14  2  0  0  0  0
 21 17  1  0  0  0  0
 21 22  1  0  0  0  0
 22 23  1  0  0  0  0
 23 24  1  0  0  0  0
 24 25  1  0  0  0  0
 26 27  1  0  0  0  0
 26 25  1  0  0  0  0
 27 29  1  0  0  0  0
 29 30  1  0  0  0  0
 29 28  1  0  0  0  0
 31 29  1  0  0  0  0
 33 35  1  0  0  0  0
 34 35  1  0  0  0  0
 35 32  2  0  0  0  0
 36 43  1  0  0  0  0
 37 44  1  6  0  0  0
 37 43  1  0  0  0  0
 40 39  2  6  0  0  0
 40 38  1  0  0  0  0
 40 36  1  0  0  0  0
 41 34  1  1  0  0  0
 41 37  1  0  0  0  0
 42 41  1  0  0  0  0
 42 40  1  0  0  0  0
 45 44  1  0  0  0  0
M  END
>  <MODEL>
3

>  <REMARK>
 VINA RESULT:      -7.6      4.450      7.901
  Name = 
  12 active torsions:
  status: ('A' for Active; 'I' for Inactive)
    1  A    between atoms: C_1  and  C_41
    2  A    between atoms: N_7  and  C_14
    3  A    between atoms: N_7  and  C_21
    4  A    between atoms: S_8  and  C_9
    5  A    between atoms: S_8  and  C_36
    6  A    between atoms: C_9  and  S_28
    7  A    between atoms: C_12  and  C_21
    8  A    between atoms: N_13  and  C_33
    9  A    between atoms: C_14  and  C_15
   10  A    between atoms: C_15  and  S_28
   11  A    between atoms: C_16  and  O_43
   12  A    between atoms: N_18  and  C_32
                            x       y       z     vdW  Elec       q    Type
                         _______ _______ _______ _____ _____    ______ ____

>  <TORSDO>
F 12

$$$$
=
 OpenBabel10232408323D

 45 49  0  0  1  0  0  0  0  0999 V2000
  187.4670  175.9120  134.4890 C   0  0  0  0  0  2  0  0  0  0  0  0
  187.8390  174.4010  137.2100 C   0  0  0  0  0  2  0  0  0  0  0  0
  187.7410  177.4040  134.4090 C   0  0  0  0  0  2  0  0  0  0  0  0
  189.1720  177.6920  134.8600 C   0  0  0  0  0  2  0  0  0  0  0  0
  186.7340  175.5510  135.7070 N   0  0  2  0  0  0  0  0  0  0  0  0
  188.4910  176.9200  137.1340 C   0  0  2  0  0  3  0  0  0  0  0  0
  187.3940  175.8320  137.0040 C   0  0  2  0  0  3  0  0  0  0  0  0
  187.0810  174.1440  135.9160 C   0  0  2  0  0  3  0  0  0  0  0  0
  189.5810  176.8620  136.0770 C   0  0  0  0  0  2  0  0  0  0  0  0
  185.8570  173.2810  136.1000 C   0  0  0  0  0  0  0  0  0  0  0  0
  184.3890  171.4410  136.1470 C   0  0  2  0  0  3  0  0  0  0  0  0
  182.9570  170.6110  134.4320 O   0  0  0  0  0  0  0  0  0  0  0  0
  185.7710  171.9540  135.9630 C   0  0  0  0  0  0  0  0  0  0  0  0
  186.4960  169.9510  134.7940 C   0  0  0  0  0  3  0  0  0  0  0  0
  184.0550  170.5690  134.9630 C   0  0  0  0  0  0  0  0  0  0  0  0
  184.5250  173.8970  136.3450 C   0  0  0  0  0  2  0  0  0  0  0  0
  182.2890  172.7640  136.4440 C   0  0  0  0  0  3  0  0  0  0  0  0
  183.6150  172.7140  136.2700 C   0  0  0  0  0  0  0  0  0  0  0  0
  185.0640  169.5370  134.5210 C   0  0  0  0  0  2  0  0  0  0  0  0
  186.8260  171.0710  135.4440 C   0  0  0  0  0  3  0  0  0  0  0  0
  181.4190  174.3130  136.7060 S   0  0  0  0  0  0  0  0  0  0  0  0
  180.3630  173.5790  137.9820 C   0  0  0  0  0  2  0  0  0  0  0  0
  179.9820  174.8300  139.2370 S   0  0  0  0  0  0  0  0  0  0  0  0
  180.4770  176.1920  138.1370 C   0  0  0  0  0  2  0  0  0  0  0  0
  180.0040  177.5250  138.6930 C   0  0  0  0  0  2  0  0  0  0  0  0
  181.0230  178.5400  138.4960 N   0  0  0  0  0  2  0  0  0  0  0  0
  182.2100  177.8590  137.9920 C   0  0  0  0  0  2  0  0  0  0  0  0
  183.4100  179.6830  139.1610 C   0  0  0  0  0  1  0  0  0  0  0  0
  183.4300  178.2010  138.8400 C   0  0  0  0  0  0  0  0  0  0  0  0
  183.4020  177.4770  140.0340 O   0  0  0  0  0  1  0  0  0  0  0  0
  184.7070  177.8830  138.0750 C   0  0  0  0  0  1  0  0  0  0  0  0
  187.8660  178.6330  139.3300 O   0  0  0  0  0  0  0  0  0  0  0  0
  189.0930  176.8550  138.4590 N   0  0  0  0  0  2  0  0  0  0  0  0
  189.0900  177.3870  140.8680 N   0  0  0  0  0  2  0  0  0  0  0  0
  188.6560  177.6760  139.5420 C   0  0  0  0  0  0  0  0  0  0  0  0
  188.6370  176.6080  144.5800 O   0  0  0  0  0  0  0  0  0  0  0  0
  187.4230  177.5880  142.6930 C   0  0  1  0  0  3  0  0  0  0  0  0
  190.6590  175.8030  142.8420 O   0  0  0  0  0  0  0  0  0  0  0  0
  191.1260  177.3980  144.8660 O   0  0  0  0  0  1  0  0  0  0  0  0
  190.0870  177.0660  143.8180 P   0  0  2  0  0  0  0  0  0  0  0  0
  188.6710  178.1940  142.0100 C   0  0  1  0  0  3  0  0  0  0  0  0
  189.7610  178.4540  142.8780 O   0  0  0  0  0  0  0  0  0  0  0  0
  187.7270  176.3410  143.5460 C   0  0  0  0  0  2  0  0  0  0  0  0
  186.5610  178.5240  143.3090 O   0  0  0  0  0  0  0  0  0  0  0  0
  185.2340  178.0670  143.2150 C   0  0  0  0  0  1  0  0  0  0  0  0
  3  1  1  0  0  0  0
  3  4  1  0  0  0  0
  4  9  1  0  0  0  0
  5  1  1  6  0  0  0
  5  8  1  0  0  0  0
  5  7  1  0  0  0  0
  6 33  1  1  0  0  0
  7  6  1  0  0  0  0
  7  2  1  6  0  0  0
  8 10  1  1  0  0  0
  8  2  1  0  0  0  0
  9  6  1  0  0  0  0
 10 16  1  0  0  0  0
 11 15  1  6  0  0  0
 11 18  1  0  0  0  0
 12 15  2  0  0  0  0
 13 10  2  0  0  0  0
 13 11  1  0  0  0  0
 14 20  2  0  0  0  0
 17 21  1  0  0  0  0
 18 16  1  0  0  0  0
 18 17  2  0  0  0  0
 19 14  1  0  0  0  0
 19 15  1  0  0  0  0
 20 13  1  0  0  0  0
 21 22  1  0  0  0  0
 22 23  1  0  0  0  0
 24 25  1  0  0  0  0
 24 23  1  0  0  0  0
 26 25  1  0  0  0  0
 27 26  1  0  0  0  0
 27 29  1  0  0  0  0
 29 28  1  0  0  0  0
 29 30  1  0  0  0  0
 31 29  1  0  0  0  0
 32 35  2  0  0  0  0
 33 35  1  0  0  0  0
 35 34  1  0  0  0  0
 37 44  1  1  0  0  0
 37 43  1  0  0  0  0
 40 38  2  6  0  0  0
 40 36  1  0  0  0  0
 40 39  1  0  0  0  0
 41 34  1  6  0  0  0
 41 37  1  0  0  0  0
 41 42  1  0  0  0  0
 42 40  1  0  0  0  0
 43 36  1  0  0  0  0
 45 44  1  0  0  0  0
M  END
>  <MODEL>
4

>  <REMARK>
 VINA RESULT:      -7.3      4.860      8.916
  Name = 
  12 active torsions:
  status: ('A' for Active; 'I' for Inactive)
    1  A    between atoms: C_1  and  C_41
    2  A    between atoms: N_7  and  C_14
    3  A    between atoms: N_7  and  C_21
    4  A    between atoms: S_8  and  C_9
    5  A    between atoms: S_8  and  C_36
    6  A    between atoms: C_9  and  S_28
    7  A    between atoms: C_12  and  C_21
    8  A    between atoms: N_13  and  C_33
    9  A    between atoms: C_14  and  C_15
   10  A    between atoms: C_15  and  S_28
   11  A    between atoms: C_16  and  O_43
   12  A    between atoms: N_18  and  C_32
                            x       y       z     vdW  Elec       q    Type
                         _______ _______ _______ _____ _____    ______ ____

>  <TORSDO>
F 12

$$$$
=
 OpenBabel10232408323D

 45 49  0  0  1  0  0  0  0  0999 V2000
  182.2790  178.7370  141.9420 C   0  0  0  0  0  2  0  0  0  0  0  0
  185.3200  179.1520  141.3080 C   0  0  0  0  0  2  0  0  0  0  0  0
  181.8550  178.1860  143.2920 C   0  0  0  0  0  2  0  0  0  0  0  0
  182.4020  179.0740  144.4090 C   0  0  0  0  0  2  0  0  0  0  0  0
  183.4410  178.0280  141.3960 N   0  0  2  0  0  0  0  0  0  0  0  0
  184.6880  178.3580  143.7060 C   0  0  2  0  0  3  0  0  0  0  0  0
  184.6980  178.0830  142.1800 C   0  0  2  0  0  3  0  0  0  0  0  0
  184.0470  179.0040  140.4890 C   0  0  2  0  0  3  0  0  0  0  0  0
  183.8340  179.5370  144.1400 C   0  0  0  0  0  2  0  0  0  0  0  0
  184.2830  178.4280  139.1140 C   0  0  0  0  0  0  0  0  0  0  0  0
  184.0090  177.2660  137.0850 C   0  0  2  0  0  3  0  0  0  0  0  0
  184.5450  175.0050  136.5580 O   0  0  0  0  0  0  0  0  0  0  0  0
  183.4130  177.7530  138.3560 C   0  0  0  0  0  0  0  0  0  0  0  0
  181.5660  176.1780  138.2430 C   0  0  0  0  0  3  0  0  0  0  0  0
  183.7080  175.7950  136.9640 C   0  0  0  0  0  0  0  0  0  0  0  0
  185.6390  178.4610  138.5010 C   0  0  0  0  0  2  0  0  0  0  0  0
  186.4010  177.3830  136.3690 C   0  0  0  0  0  3  0  0  0  0  0  0
  185.4450  177.6350  137.2710 C   0  0  0  0  0  0  0  0  0  0  0  0
  182.2980  175.3230  137.2280 C   0  0  0  0  0  2  0  0  0  0  0  0
  182.0830  177.2900  138.7760 C   0  0  0  0  0  3  0  0  0  0  0  0
  188.0910  177.9500  136.5840 S   0  0  0  0  0  0  0  0  0  0  0  0
  188.7600  176.4620  135.7960 C   0  0  0  0  0  2  0  0  0  0  0  0
  188.2720  175.0040  136.7550 S   0  0  0  0  0  0  0  0  0  0  0  0
  190.0020  174.5110  137.0250 C   0  0  0  0  0  2  0  0  0  0  0  0
  190.7500  175.5890  137.7920 C   0  0  0  0  0  2  0  0  0  0  0  0
  192.0970  175.1440  138.0960 N   0  0  0  0  0  2  0  0  0  0  0  0
  192.9900  175.8170  137.1600 C   0  0  0  0  0  2  0  0  0  0  0  0
  194.7920  175.3990  135.5130 C   0  0  0  0  0  1  0  0  0  0  0  0
  194.1830  174.9300  136.8200 C   0  0  0  0  0  0  0  0  0  0  0  0
  195.1470  175.0180  137.8270 O   0  0  0  0  0  1  0  0  0  0  0  0
  193.7360  173.4840  136.6610 C   0  0  0  0  0  1  0  0  0  0  0  0
  186.8030  176.4560  143.4680 O   0  0  0  0  0  0  0  0  0  0  0  0
  186.0530  178.5430  144.1800 N   0  0  0  0  0  2  0  0  0  0  0  0
  188.4450  177.9420  144.1830 N   0  0  0  0  0  2  0  0  0  0  0  0
  187.0870  177.5900  143.9330 C   0  0  0  0  0  0  0  0  0  0  0  0
  191.9860  177.6660  145.5900 O   0  0  0  0  0  0  0  0  0  0  0  0
  190.8050  177.7430  143.4470 C   0  0  1  0  0  3  0  0  0  0  0  0
  189.6060  178.2670  146.9060 O   0  0  0  0  0  0  0  0  0  0  0  0
  190.9480  176.0750  147.4040 O   0  0  0  0  0  1  0  0  0  0  0  0
  190.5740  177.0210  146.2850 P   0  0  2  0  0  0  0  0  0  0  0  0
  189.5400  177.0060  143.9450 C   0  0  1  0  0  3  0  0  0  0  0  0
  189.7420  176.1620  145.0660 O   0  0  0  0  0  0  0  0  0  0  0  0
  191.5540  178.5090  144.5550 C   0  0  0  0  0  2  0  0  0  0  0  0
  191.6390  176.9920  142.5860 O   0  0  0  0  0  0  0  0  0  0  0  0
  191.6170  177.5630  141.3020 C   0  0  0  0  0  1  0  0  0  0  0  0
  1  3  1  0  0  0  0
  3  4  1  0  0  0  0
  5  1  1  1  0  0  0
  5  7  1  0  0  0  0
  6  9  1  0  0  0  0
  6 33  1  6  0  0  0
  7  2  1  6  0  0  0
  7  6  1  0  0  0  0
  8 10  1  6  0  0  0
  8  2  1  0  0  0  0
  8  5  1  0  0  0  0
  9  4  1  0  0  0  0
 11 15  1  1  0  0  0
 11 18  1  0  0  0  0
 11 13  1  0  0  0  0
 12 15  2  0  0  0  0
 13 20  1  0  0  0  0
 13 10  2  0  0  0  0
 14 20  2  0  0  0  0
 15 19  1  0  0  0  0
 16 10  1  0  0  0  0
 17 21  1  0  0  0  0
 17 18  2  0  0  0  0
 18 16  1  0  0  0  0
 19 14  1  0  0  0  0
 22 21  1  0  0  0  0
 22 23  1  0  0  0  0
 23 24  1  0  0  0  0
 24 25  1  0  0  0  0
 25 26  1  0  0  0  0
 27 26  1  0  0  0  0
 28 29  1  0  0  0  0
 29 27  1  0  0  0  0
 29 30  1  0  0  0  0
 31 29  1  0  0  0  0
 32 35  2  0  0  0  0
 35 33  1  0  0  0  0
 35 34  1  0  0  0  0
 36 40  1  0  0  0  0
 37 44  1  1  0  0  0
 37 41  1  0  0  0  0
 37 43  1  0  0  0  0
 40 38  2  1  0  0  0
 40 39  1  0  0  0  0
 41 34  1  1  0  0  0
 41 42  1  0  0  0  0
 42 40  1  0  0  0  0
 43 36  1  0  0  0  0
 45 44  1  0  0  0  0
M  END
>  <MODEL>
5

>  <REMARK>
 VINA RESULT:      -7.1      3.343      9.522
  Name = 
  12 active torsions:
  status: ('A' for Active; 'I' for Inactive)
    1  A    between atoms: C_1  and  C_41
    2  A    between atoms: N_7  and  C_14
    3  A    between atoms: N_7  and  C_21
    4  A    between atoms: S_8  and  C_9
    5  A    between atoms: S_8  and  C_36
    6  A    between atoms: C_9  and  S_28
    7  A    between atoms: C_12  and  C_21
    8  A    between atoms: N_13  and  C_33
    9  A    between atoms: C_14  and  C_15
   10  A    between atoms: C_15  and  S_28
   11  A    between atoms: C_16  and  O_43
   12  A    between atoms: N_18  and  C_32
                            x       y       z     vdW  Elec       q    Type
                         _______ _______ _______ _____ _____    ______ ____

>  <TORSDO>
F 12

$$$$
=
 OpenBabel10232408323D

 45 49  0  0  1  0  0  0  0  0999 V2000
  188.3430  177.9550  143.9110 C   0  0  0  0  0  2  0  0  0  0  0  0
  188.0840  178.7420  140.8870 C   0  0  0  0  0  2  0  0  0  0  0  0
  189.2400  176.8000  144.3170 C   0  0  0  0  0  2  0  0  0  0  0  0
  190.6640  177.0500  143.8220 C   0  0  0  0  0  2  0  0  0  0  0  0
  187.5570  177.6480  142.7120 N   0  0  2  0  0  0  0  0  0  0  0  0
  189.7700  176.8560  141.4990 C   0  0  2  0  0  3  0  0  0  0  0  0
  188.3060  177.3610  141.4650 C   0  0  2  0  0  3  0  0  0  0  0  0
  187.2590  178.9650  142.1460 C   0  0  2  0  0  3  0  0  0  0  0  0
  190.6980  177.6400  142.4120 C   0  0  0  0  0  2  0  0  0  0  0  0
  185.7850  179.1420  141.8720 C   0  0  0  0  0  0  0  0  0  0  0  0
  183.4690  179.4680  142.1460 C   0  0  2  0  0  3  0  0  0  0  0  0
  181.7500  177.8530  142.4850 O   0  0  0  0  0  0  0  0  0  0  0  0
  184.8260  179.4450  142.7520 C   0  0  0  0  0  0  0  0  0  0  0  0
  183.9530  179.2180  145.0090 C   0  0  0  0  0  3  0  0  0  0  0  0
  182.5680  178.6040  142.9910 C   0  0  0  0  0  0  0  0  0  0  0  0
  185.2240  178.8530  140.5240 C   0  0  0  0  0  2  0  0  0  0  0  0
  182.8160  178.8110  139.8250 C   0  0  0  0  0  3  0  0  0  0  0  0
  183.7550  178.9740  140.7640 C   0  0  0  0  0  0  0  0  0  0  0  0
  182.5990  178.7800  144.4900 C   0  0  0  0  0  2  0  0  0  0  0  0
  184.9860  179.5110  144.2120 C   0  0  0  0  0  3  0  0  0  0  0  0
  183.2220  178.3280  138.1440 S   0  0  0  0  0  0  0  0  0  0  0  0
  182.9330  176.5770  138.5060 C   0  0  0  0  0  2  0  0  0  0  0  0
  184.0350  175.5640  137.4860 S   0  0  0  0  0  0  0  0  0  0  0  0
  184.9040  177.0260  136.8400 C   0  0  0  0  0  2  0  0  0  0  0  0
  185.2520  176.8340  135.3730 C   0  0  0  0  0  2  0  0  0  0  0  0
  186.5010  177.5040  135.0630 N   0  0  0  0  0  2  0  0  0  0  0  0
  186.9920  178.0850  136.3070 C   0  0  0  0  0  2  0  0  0  0  0  0
  188.6380  176.4790  137.2280 C   0  0  0  0  0  1  0  0  0  0  0  0
  188.4780  177.7930  136.4900 C   0  0  0  0  0  0  0  0  0  0  0  0
  189.1030  177.6950  135.2450 O   0  0  0  0  0  1  0  0  0  0  0  0
  189.1330  178.8970  137.3090 C   0  0  0  0  0  1  0  0  0  0  0  0
  192.5420  176.9470  140.8240 O   0  0  0  0  0  0  0  0  0  0  0  0
  190.3150  176.8370  140.1490 N   0  0  0  0  0  2  0  0  0  0  0  0
  192.1800  176.4960  138.5700 N   0  0  0  0  0  2  0  0  0  0  0  0
  191.7180  176.7790  139.8880 C   0  0  0  0  0  0  0  0  0  0  0  0
  194.1950  174.3480  136.1370 O   0  0  0  0  0  0  0  0  0  0  0  0
  194.1570  175.0000  138.4960 C   0  0  1  0  0  3  0  0  0  0  0  0
  191.7290  175.5900  135.7690 O   0  0  0  0  0  1  0  0  0  0  0  0
  193.8520  176.3000  134.4120 O   0  0  0  0  0  0  0  0  0  0  0  0
  193.4100  175.8130  135.7740 P   0  0  2  0  0  0  0  0  0  0  0  0
  193.6020  176.4230  138.2510 C   0  0  1  0  0  3  0  0  0  0  0  0
  193.8640  176.9520  136.9620 O   0  0  0  0  0  0  0  0  0  0  0  0
  193.7490  173.9800  137.4150 C   0  0  0  0  0  2  0  0  0  0  0  0
  195.5180  174.9410  138.8750 O   0  0  0  0  0  0  0  0  0  0  0  0
  196.0670  173.7180  138.4520 C   0  0  0  0  0  1  0  0  0  0  0  0
  1  3  1  0  0  0  0
  2  8  1  0  0  0  0
  4  3  1  0  0  0  0
  5  1  1  1  0  0  0
  6 33  1  6  0  0  0
  6  9  1  0  0  0  0
  7  2  1  6  0  0  0
  7  6  1  0  0  0  0
  7  5  1  0  0  0  0
  8 10  1  6  0  0  0
  8  5  1  0  0  0  0
  9  4  1  0  0  0  0
 10 13  2  0  0  0  0
 11 18  1  6  0  0  0
 11 13  1  0  0  0  0
 11 15  1  0  0  0  0
 12 15  2  0  0  0  0
 13 20  1  0  0  0  0
 15 19  1  0  0  0  0
 16 18  1  0  0  0  0
 16 10  1  0  0  0  0
 17 18  2  0  0  0  0
 19 14  1  0  0  0  0
 20 14  2  0  0  0  0
 21 22  1  0  0  0  0
 21 17  1  0  0  0  0
 23 22  1  0  0  0  0
 24 23  1  0  0  0  0
 25 24  1  0  0  0  0
 26 25  1  0  0  0  0
 26 27  1  0  0  0  0
 27 29  1  0  0  0  0
 29 28  1  0  0  0  0
 29 31  1  0  0  0  0
 30 29  1  0  0  0  0
 34 35  1  0  0  0  0
 35 33  1  0  0  0  0
 35 32  2  0  0  0  0
 36 43  1  0  0  0  0
 37 44  1  6  0  0  0
 38 40  1  0  0  0  0
 40 39  2  6  0  0  0
 40 36  1  0  0  0  0
 40 42  1  0  0  0  0
 41 37  1  0  0  0  0
 41 34  1  6  0  0  0
 42 41  1  0  0  0  0
 43 37  1  0  0  0  0
 45 44  1  0  0  0  0
M  END
>  <MODEL>
6

>  <REMARK>
 VINA RESULT:      -7.0      2.732      5.545
  Name = 
  12 active torsions:
  status: ('A' for Active; 'I' for Inactive)
    1  A    between atoms: C_1  and  C_41
    2  A    between atoms: N_7  and  C_14
    3  A    between atoms: N_7  and  C_21
    4  A    between atoms: S_8  and  C_9
    5  A    between atoms: S_8  and  C_36
    6  A    between atoms: C_9  and  S_28
    7  A    between atoms: C_12  and  C_21
    8  A    between atoms: N_13  and  C_33
    9  A    between atoms: C_14  and  C_15
   10  A    between atoms: C_15  and  S_28
   11  A    between atoms: C_16  and  O_43
   12  A    between atoms: N_18  and  C_32
                            x       y       z     vdW  Elec       q    Type
                         _______ _______ _______ _____ _____    ______ ____

>  <TORSDO>
F 12

$$$$
=
 OpenBabel10232408323D

 45 49  0  0  1  0  0  0  0  0999 V2000
  182.4550  179.3340  142.7290 C   0  0  0  0  0  2  0  0  0  0  0  0
  185.1060  178.7260  141.1710 C   0  0  0  0  0  2  0  0  0  0  0  0
  182.2400  178.7490  144.1130 C   0  0  0  0  0  2  0  0  0  0  0  0
  183.3800  179.1730  145.0380 C   0  0  0  0  0  2  0  0  0  0  0  0
  183.0400  178.3590  141.8020 N   0  0  2  0  0  0  0  0  0  0  0  0
  184.9020  177.8130  143.6000 C   0  0  2  0  0  3  0  0  0  0  0  0
  184.3790  177.8210  142.1410 C   0  0  2  0  0  3  0  0  0  0  0  0
  183.7070  179.1910  140.7990 C   0  0  2  0  0  3  0  0  0  0  0  0
  184.7430  179.1270  144.3460 C   0  0  0  0  0  2  0  0  0  0  0  0
  183.3040  178.8150  139.3940 C   0  0  0  0  0  0  0  0  0  0  0  0
  182.3500  178.8510  137.2420 C   0  0  2  0  0  3  0  0  0  0  0  0
  180.2110  178.0810  136.5280 O   0  0  0  0  0  0  0  0  0  0  0  0
  182.6460  179.5700  138.5080 C   0  0  0  0  0  0  0  0  0  0  0  0
  180.9460  181.2570  138.0970 C   0  0  0  0  0  3  0  0  0  0  0  0
  180.8810  179.0110  136.9490 C   0  0  0  0  0  0  0  0  0  0  0  0
  183.5140  177.4310  138.8900 C   0  0  0  0  0  2  0  0  0  0  0  0
  182.7390  176.4370  136.7220 C   0  0  0  0  0  3  0  0  0  0  0  0
  182.8130  177.4680  137.5720 C   0  0  0  0  0  0  0  0  0  0  0  0
  180.2690  180.3870  137.0580 C   0  0  0  0  0  2  0  0  0  0  0  0
  182.0330  180.8780  138.7780 C   0  0  0  0  0  3  0  0  0  0  0  0
  183.4160  174.8230  137.1190 S   0  0  0  0  0  0  0  0  0  0  0  0
  184.6470  174.9400  135.7960 C   0  0  0  0  0  2  0  0  0  0  0  0
  185.6730  173.4460  135.7970 S   0  0  0  0  0  0  0  0  0  0  0  0
  186.8590  174.1710  136.9710 C   0  0  0  0  0  2  0  0  0  0  0  0
  187.7660  175.1660  136.2650 C   0  0  0  0  0  2  0  0  0  0  0  0
  188.5570  175.8980  137.2370 N   0  0  0  0  0  2  0  0  0  0  0  0
  188.7670  177.2350  136.6950 C   0  0  0  0  0  2  0  0  0  0  0  0
  188.4300  177.8820  139.0620 C   0  0  0  0  0  1  0  0  0  0  0  0
  188.1800  178.2930  137.6250 C   0  0  0  0  0  0  0  0  0  0  0  0
  188.7920  179.5270  137.3920 O   0  0  0  0  0  1  0  0  0  0  0  0
  186.6790  178.4130  137.4030 C   0  0  0  0  0  1  0  0  0  0  0  0
  186.8700  178.7160  145.4590 O   0  0  0  0  0  0  0  0  0  0  0  0
  186.3010  177.4080  143.6180 N   0  0  0  0  0  2  0  0  0  0  0  0
  188.4770  177.1860  144.7590 N   0  0  0  0  0  2  0  0  0  0  0  0
  187.2060  177.8200  144.6430 C   0  0  0  0  0  0  0  0  0  0  0  0
  192.2910  177.4040  144.8120 O   0  0  0  0  0  0  0  0  0  0  0  0
  190.4370  176.4210  146.0730 C   0  0  1  0  0  3  0  0  0  0  0  0
  190.5070  178.1680  142.8140 O   0  0  0  0  0  0  0  0  0  0  0  0
  191.9780  179.9130  144.0980 O   0  0  0  0  0  1  0  0  0  0  0  0
  191.2210  178.6170  144.2850 P   0  0  2  0  0  0  0  0  0  0  0  0
  189.4370  177.5680  145.7900 C   0  0  1  0  0  3  0  0  0  0  0  0
  190.0330  178.8200  145.4940 O   0  0  0  0  0  0  0  0  0  0  0  0
  191.5100  176.2500  144.9810 C   0  0  0  0  0  2  0  0  0  0  0  0
  190.9320  176.3690  147.3960 O   0  0  0  0  0  0  0  0  0  0  0  0
  191.9820  175.4360  147.4640 C   0  0  0  0  0  1  0  0  0  0  0  0
  1  3  1  0  0  0  0
  3  4  1  0  0  0  0
  5  7  1  0  0  0  0
  5  1  1  1  0  0  0
  6 33  1  6  0  0  0
  6  9  1  0  0  0  0
  7  2  1  6  0  0  0
  7  6  1  0  0  0  0
  8 10  1  6  0  0  0
  8  2  1  0  0  0  0
  8  5  1  0  0  0  0
  9  4  1  0  0  0  0
 11 15  1  1  0  0  0
 11 18  1  0  0  0  0
 11 13  1  0  0  0  0
 12 15  2  0  0  0  0
 13 20  1  0  0  0  0
 13 10  2  0  0  0  0
 14 20  2  0  0  0  0
 15 19  1  0  0  0  0
 16 10  1  0  0  0  0
 17 21  1  0  0  0  0
 17 18  2  0  0  0  0
 18 16  1  0  0  0  0
 19 14  1  0  0  0  0
 22 23  1  0  0  0  0
 22 21  1  0  0  0  0
 23 24  1  0  0  0  0
 25 24  1  0  0  0  0
 25 26  1  0  0  0  0
 27 26  1  0  0  0  0
 27 29  1  0  0  0  0
 29 28  1  0  0  0  0
 30 29  1  0  0  0  0
 31 29  1  0  0  0  0
 33 35  1  0  0  0  0
 35 34  1  0  0  0  0
 35 32  2  0  0  0  0
 36 43  1  0  0  0  0
 37 44  1  1  0  0  0
 39 40  1  0  0  0  0
 40 38  2  6  0  0  0
 40 36  1  0  0  0  0
 40 42  1  0  0  0  0
 41 34  1  6  0  0  0
 41 37  1  0  0  0  0
 42 41  1  0  0  0  0
 43 37  1  0  0  0  0
 44 45  1  0  0  0  0
M  END
>  <MODEL>
7

>  <REMARK>
 VINA RESULT:      -6.8      5.050      9.429
  Name = 
  12 active torsions:
  status: ('A' for Active; 'I' for Inactive)
    1  A    between atoms: C_1  and  C_41
    2  A    between atoms: N_7  and  C_14
    3  A    between atoms: N_7  and  C_21
    4  A    between atoms: S_8  and  C_9
    5  A    between atoms: S_8  and  C_36
    6  A    between atoms: C_9  and  S_28
    7  A    between atoms: C_12  and  C_21
    8  A    between atoms: N_13  and  C_33
    9  A    between atoms: C_14  and  C_15
   10  A    between atoms: C_15  and  S_28
   11  A    between atoms: C_16  and  O_43
   12  A    between atoms: N_18  and  C_32
                            x       y       z     vdW  Elec       q    Type
                         _______ _______ _______ _____ _____    ______ ____

>  <TORSDO>
F 12

$$$$
=
 OpenBabel10232408323D

 45 49  0  0  1  0  0  0  0  0999 V2000
  188.5600  172.8440  135.9550 C   0  0  0  0  0  2  0  0  0  0  0  0
  187.7530  175.8720  135.9970 C   0  0  0  0  0  2  0  0  0  0  0  0
  187.5130  171.7780  136.2300 C   0  0  0  0  0  2  0  0  0  0  0  0
  186.3570  171.9210  135.2410 C   0  0  0  0  0  2  0  0  0  0  0  0
  188.4400  173.9830  136.8710 N   0  0  2  0  0  0  0  0  0  0  0  0
  185.8570  174.1180  136.3170 C   0  0  2  0  0  3  0  0  0  0  0  0
  187.1730  174.7520  136.8340 C   0  0  2  0  0  3  0  0  0  0  0  0
  189.0500  175.0890  136.1290 C   0  0  2  0  0  3  0  0  0  0  0  0
  185.9750  173.3810  134.9930 C   0  0  0  0  0  2  0  0  0  0  0  0
  190.1010  175.8030  136.9430 C   0  0  0  0  0  0  0  0  0  0  0  0
  192.1290  176.7730  137.6430 C   0  0  2  0  0  3  0  0  0  0  0  0
  193.9540  175.7760  138.8070 O   0  0  0  0  0  0  0  0  0  0  0  0
  191.3340  176.1450  136.5560 C   0  0  0  0  0  0  0  0  0  0  0  0
  193.3110  175.6010  135.2510 C   0  0  0  0  0  3  0  0  0  0  0  0
  193.4490  176.0510  137.7300 C   0  0  0  0  0  0  0  0  0  0  0  0
  189.8760  176.0940  138.3850 C   0  0  0  0  0  2  0  0  0  0  0  0
  191.5020  177.0310  140.0490 C   0  0  0  0  0  3  0  0  0  0  0  0
  191.2100  176.6150  138.8110 C   0  0  0  0  0  0  0  0  0  0  0  0
  194.2120  175.7870  136.4540 C   0  0  0  0  0  2  0  0  0  0  0  0
  191.9820  175.7500  135.2980 C   0  0  0  0  0  3  0  0  0  0  0  0
  190.3180  176.9260  141.3950 S   0  0  0  0  0  0  0  0  0  0  0  0
  191.5770  177.3620  142.6230 C   0  0  0  0  0  2  0  0  0  0  0  0
  190.8160  177.4210  144.2660 S   0  0  0  0  0  0  0  0  0  0  0  0
  189.2060  176.8730  143.6220 C   0  0  0  0  0  2  0  0  0  0  0  0
  188.0770  177.6510  144.2780 C   0  0  0  0  0  2  0  0  0  0  0  0
  186.8330  177.4250  143.5650 N   0  0  0  0  0  2  0  0  0  0  0  0
  185.7630  177.9720  144.3910 C   0  0  0  0  0  2  0  0  0  0  0  0
  183.4130  178.5870  143.9070 C   0  0  0  0  0  1  0  0  0  0  0  0
  184.8600  178.8860  143.5700 C   0  0  0  0  0  0  0  0  0  0  0  0
  185.1300  180.2230  143.8730 O   0  0  0  0  0  1  0  0  0  0  0  0
  185.0770  178.6420  142.0830 C   0  0  0  0  0  1  0  0  0  0  0  0
  183.1990  173.9060  137.3350 O   0  0  0  0  0  0  0  0  0  0  0  0
  184.8250  175.1410  136.2150 N   0  0  0  0  0  2  0  0  0  0  0  0
  182.6860  176.1400  136.9320 N   0  0  0  0  0  2  0  0  0  0  0  0
  183.5480  175.0090  136.8400 C   0  0  0  0  0  0  0  0  0  0  0  0
  181.1390  177.8900  139.9540 O   0  0  0  0  0  0  0  0  0  0  0  0
  181.4920  175.6430  139.0480 C   0  0  1  0  0  3  0  0  0  0  0  0
  182.7600  178.9390  137.9470 O   0  0  0  0  0  0  0  0  0  0  0  0
  180.2670  179.6830  138.2430 O   0  0  0  0  0  1  0  0  0  0  0  0
  181.1800  178.4830  138.3600 P   0  0  2  0  0  0  0  0  0  0  0  0
  181.3730  176.0590  137.5630 C   0  0  1  0  0  3  0  0  0  0  0  0
  180.6220  177.2400  137.3310 O   0  0  0  0  0  0  0  0  0  0  0  0
  181.9880  176.7730  139.9710 C   0  0  0  0  0  2  0  0  0  0  0  0
  180.3960  174.9090  139.5560 O   0  0  0  0  0  0  0  0  0  0  0  0
  180.0300  173.9170  138.6290 C   0  0  0  0  0  1  0  0  0  0  0  0
  1  3  1  0  0  0  0
  2  8  1  0  0  0  0
  4  3  1  0  0  0  0
  5  1  1  6  0  0  0
  6 33  1  6  0  0  0
  6  7  1  0  0  0  0
  7  2  1  6  0  0  0
  7  5  1  0  0  0  0
  8  5  1  0  0  0  0
  8 10  1  1  0  0  0
  9  4  1  0  0  0  0
  9  6  1  0  0  0  0
 10 16  1  0  0  0  0
 11 13  1  6  0  0  0
 11 15  1  0  0  0  0
 11 18  1  0  0  0  0
 13 10  2  0  0  0  0
 14 20  2  0  0  0  0
 14 19  1  0  0  0  0
 15 12  2  0  0  0  0
 16 18  1  0  0  0  0
 17 21  1  0  0  0  0
 18 17  2  0  0  0  0
 19 15  1  0  0  0  0
 20 13  1  0  0  0  0
 21 22  1  0  0  0  0
 22 23  1  0  0  0  0
 24 23  1  0  0  0  0
 24 25  1  0  0  0  0
 26 25  1  0  0  0  0
 26 27  1  0  0  0  0
 29 30  1  0  0  0  0
 29 28  1  0  0  0  0
 29 27  1  0  0  0  0
 31 29  1  0  0  0  0
 33 35  1  0  0  0  0
 35 34  1  0  0  0  0
 35 32  2  0  0  0  0
 36 43  1  0  0  0  0
 37 44  1  1  0  0  0
 37 43  1  0  0  0  0
 39 40  1  0  0  0  0
 40 38  2  6  0  0  0
 40 36  1  0  0  0  0
 41 34  1  1  0  0  0
 41 37  1  0  0  0  0
 42 41  1  0  0  0  0
 42 40  1  0  0  0  0
 45 44  1  0  0  0  0
M  END
>  <MODEL>
8

>  <REMARK>
 VINA RESULT:      -6.7      4.204      9.879
  Name = 
  12 active torsions:
  status: ('A' for Active; 'I' for Inactive)
    1  A    between atoms: C_1  and  C_41
    2  A    between atoms: N_7  and  C_14
    3  A    between atoms: N_7  and  C_21
    4  A    between atoms: S_8  and  C_9
    5  A    between atoms: S_8  and  C_36
    6  A    between atoms: C_9  and  S_28
    7  A    between atoms: C_12  and  C_21
    8  A    between atoms: N_13  and  C_33
    9  A    between atoms: C_14  and  C_15
   10  A    between atoms: C_15  and  S_28
   11  A    between atoms: C_16  and  O_43
   12  A    between atoms: N_18  and  C_32
                            x       y       z     vdW  Elec       q    Type
                         _______ _______ _______ _____ _____    ______ ____

>  <TORSDO>
F 12

$$$$
=
 OpenBabel10232408323D

 45 49  0  0  1  0  0  0  0  0999 V2000
  182.2690  178.8140  141.9380 C   0  0  0  0  0  2  0  0  0  0  0  0
  185.2960  179.2320  141.2400 C   0  0  0  0  0  2  0  0  0  0  0  0
  181.8750  178.2620  143.2970 C   0  0  0  0  0  2  0  0  0  0  0  0
  182.4440  179.1520  144.4010 C   0  0  0  0  0  2  0  0  0  0  0  0
  183.4200  178.1060  141.3680 N   0  0  2  0  0  0  0  0  0  0  0  0
  184.7150  178.4380  143.6500 C   0  0  2  0  0  3  0  0  0  0  0  0
  184.6930  178.1620  142.1250 C   0  0  2  0  0  3  0  0  0  0  0  0
  184.0060  179.0820  140.4480 C   0  0  2  0  0  3  0  0  0  0  0  0
  183.8700  179.6160  144.1020 C   0  0  0  0  0  2  0  0  0  0  0  0
  184.2140  178.5060  139.0680 C   0  0  0  0  0  0  0  0  0  0  0  0
  183.8350  177.6450  136.9100 C   0  0  2  0  0  3  0  0  0  0  0  0
  183.4490  175.3930  136.2310 O   0  0  0  0  0  0  0  0  0  0  0  0
  183.2880  178.3000  138.1260 C   0  0  0  0  0  0  0  0  0  0  0  0
  181.0000  177.6880  137.5830 C   0  0  0  0  0  3  0  0  0  0  0  0
  182.9670  176.4550  136.5930 C   0  0  0  0  0  0  0  0  0  0  0  0
  185.5400  177.9670  138.6640 C   0  0  0  0  0  2  0  0  0  0  0  0
  186.1370  176.7340  136.5620 C   0  0  0  0  0  3  0  0  0  0  0  0
  185.2360  177.3470  137.3390 C   0  0  0  0  0  0  0  0  0  0  0  0
  181.4680  176.6340  136.6000 C   0  0  0  0  0  2  0  0  0  0  0  0
  181.8360  178.4470  138.2990 C   0  0  0  0  0  3  0  0  0  0  0  0
  187.8410  176.5040  137.0770 S   0  0  0  0  0  0  0  0  0  0  0  0
  188.3940  176.2650  135.3690 C   0  0  0  0  0  2  0  0  0  0  0  0
  187.5090  174.8610  134.6430 S   0  0  0  0  0  0  0  0  0  0  0  0
  187.7830  173.8300  136.1160 C   0  0  0  0  0  2  0  0  0  0  0  0
  187.2300  172.4310  135.8970 C   0  0  0  0  0  2  0  0  0  0  0  0
  185.8730  172.3450  136.4060 N   0  0  0  0  0  2  0  0  0  0  0  0
  184.9980  172.1630  135.2540 C   0  0  0  0  0  2  0  0  0  0  0  0
  182.7840  171.3000  134.5520 C   0  0  0  0  0  1  0  0  0  0  0  0
  183.9030  171.1470  135.5630 C   0  0  0  0  0  0  0  0  0  0  0  0
  184.4170  169.8510  135.4780 O   0  0  0  0  0  1  0  0  0  0  0  0
  183.3410  171.3870  136.9560 C   0  0  0  0  0  1  0  0  0  0  0  0
  186.7970  176.4930  143.4790 O   0  0  0  0  0  0  0  0  0  0  0  0
  186.0900  178.6240  144.0960 N   0  0  0  0  0  2  0  0  0  0  0  0
  188.4720  177.9860  144.0960 N   0  0  0  0  0  2  0  0  0  0  0  0
  187.1060  177.6440  143.8830 C   0  0  0  0  0  0  0  0  0  0  0  0
  191.9830  177.6520  145.5640 O   0  0  0  0  0  0  0  0  0  0  0  0
  190.8390  177.7220  143.4010 C   0  0  1  0  0  3  0  0  0  0  0  0
  189.5970  178.3280  146.8320 O   0  0  0  0  0  0  0  0  0  0  0  0
  190.8800  176.1130  147.3850 O   0  0  0  0  0  1  0  0  0  0  0  0
  190.5450  177.0510  146.2460 P   0  0  2  0  0  0  0  0  0  0  0  0
  189.5490  177.0220  143.8900 C   0  0  1  0  0  3  0  0  0  0  0  0
  189.7140  176.1910  145.0270 O   0  0  0  0  0  0  0  0  0  0  0  0
  191.5870  178.4880  144.5090 C   0  0  0  0  0  2  0  0  0  0  0  0
  191.6680  176.9390  142.5660 O   0  0  0  0  0  0  0  0  0  0  0  0
  191.5590  177.3960  141.2400 C   0  0  0  0  0  1  0  0  0  0  0  0
  1  3  1  0  0  0  0
  3  4  1  0  0  0  0
  5  1  1  1  0  0  0
  5  7  1  0  0  0  0
  6 33  1  6  0  0  0
  6  9  1  0  0  0  0
  7  2  1  6  0  0  0
  7  6  1  0  0  0  0
  8 10  1  6  0  0  0
  8  2  1  0  0  0  0
  8  5  1  0  0  0  0
  9  4  1  0  0  0  0
 11 15  1  1  0  0  0
 11 18  1  0  0  0  0
 11 13  1  0  0  0  0
 12 15  2  0  0  0  0
 13 20  1  0  0  0  0
 13 10  2  0  0  0  0
 14 20  2  0  0  0  0
 15 19  1  0  0  0  0
 16 10  1  0  0  0  0
 17 21  1  0  0  0  0
 17 18  2  0  0  0  0
 18 16  1  0  0  0  0
 19 14  1  0  0  0  0
 22 21  1  0  0  0  0
 23 22  1  0  0  0  0
 23 24  1  0  0  0  0
 25 24  1  0  0  0  0
 25 26  1  0  0  0  0
 27 29  1  0  0  0  0
 27 26  1  0  0  0  0
 28 29  1  0  0  0  0
 29 31  1  0  0  0  0
 30 29  1  0  0  0  0
 32 35  2  0  0  0  0
 35 33  1  0  0  0  0
 35 34  1  0  0  0  0
 36 40  1  0  0  0  0
 37 44  1  1  0  0  0
 37 41  1  0  0  0  0
 37 43  1  0  0  0  0
 40 38  2  1  0  0  0
 40 39  1  0  0  0  0
 41 34  1  1  0  0  0
 41 42  1  0  0  0  0
 42 40  1  0  0  0  0
 43 36  1  0  0  0  0
 45 44  1  0  0  0  0
M  END
>  <MODEL>
9

>  <REMARK>
 VINA RESULT:      -6.7      4.923      9.274
  Name = 
  12 active torsions:
  status: ('A' for Active; 'I' for Inactive)
    1  A    between atoms: C_1  and  C_41
    2  A    between atoms: N_7  and  C_14
    3  A    between atoms: N_7  and  C_21
    4  A    between atoms: S_8  and  C_9
    5  A    between atoms: S_8  and  C_36
    6  A    between atoms: C_9  and  S_28
    7  A    between atoms: C_12  and  C_21
    8  A    between atoms: N_13  and  C_33
    9  A    between atoms: C_14  and  C_15
   10  A    between atoms: C_15  and  S_28
   11  A    between atoms: C_16  and  O_43
   12  A    between atoms: N_18  and  C_32
                            x       y       z     vdW  Elec       q    Type
                         _______ _______ _______ _____ _____    ______ ____

>  <TORSDO>
F 12

$$$$
