=
 OpenBabel10232411423D

 27 30  0  0  1  0  0  0  0  0999 V2000
  190.8400  174.3030  136.1840 C   0  0  0  0  0  3  0  0  0  0  0  0
  190.9050  175.0740  135.0190 C   0  0  0  0  0  3  0  0  0  0  0  0
  190.4180  176.3850  135.0180 C   0  0  0  0  0  3  0  0  0  0  0  0
  189.8710  176.9300  136.1830 C   0  0  0  0  0  0  0  0  0  0  0  0
  189.8030  176.1550  137.3580 C   0  0  0  0  0  0  0  0  0  0  0  0
  189.2120  176.7240  138.6200 C   0  0  2  0  0  3  0  0  0  0  0  0
  189.3570  178.2310  136.1600 O   0  0  0  0  0  0  0  0  0  0  0  0
  188.9670  178.9140  137.3520 C   0  0  0  0  0  2  0  0  0  0  0  0
  190.2900  174.8420  137.3500 C   0  0  0  0  0  3  0  0  0  0  0  0
  188.3290  177.9540  138.3620 C   0  0  1  0  0  3  0  0  0  0  0  0
  190.1540  177.8680  145.3490 C   0  0  0  0  0  1  0  0  0  0  0  0
  189.6890  177.4700  142.1000 C   0  0  0  0  0  0  0  0  0  0  0  0
  189.9940  177.2720  140.8440 C   0  0  0  0  0  0  0  0  0  0  0  0
  187.3030  178.0520  141.8550 C   0  0  0  0  0  2  0  0  0  0  0  0
  189.5640  176.9140  144.4210 N   0  0  0  0  0  0  0  0  0  0  0  0
  188.3820  177.8080  142.5950 C   0  0  0  0  0  0  0  0  0  0  0  0
  190.4460  176.8700  143.2370 C   0  0  0  0  0  2  0  0  0  0  0  0
  190.2890  177.0690  139.5920 C   0  0  0  0  0  3  0  0  0  0  0  0
  188.3480  177.4620  143.9660 N   0  0  0  0  0  0  0  0  0  0  0  0
  187.1290  177.3920  144.7600 C   0  0  0  0  0  1  0  0  0  0  0  0
  184.5600  178.0780  138.0970 C   0  0  0  0  0  0  0  0  0  0  0  0
  185.2980  176.1240  136.9660 C   0  0  0  0  0  3  0  0  0  0  0  0
  186.6270  176.4250  137.2720 C   0  0  0  0  0  3  0  0  0  0  0  0
  183.2430  179.1030  138.6220 Cl  0  0  0  0  0  0  0  0  0  0  0  0
  186.9200  177.5830  138.0030 C   0  0  0  0  0  0  0  0  0  0  0  0
  184.2990  176.9480  137.3830 N   0  0  0  0  0  0  0  0  0  0  0  0
  185.8770  178.4130  138.4200 C   0  0  0  0  0  3  0  0  0  0  0  0
  1  9  1  0  0  0  0
  2  1  2  0  0  0  0
  3  2  1  0  0  0  0
  3  4  2  0  0  0  0
  4  5  1  0  0  0  0
  5  6  1  0  0  0  0
  6 18  1  1  0  0  0
  7  4  1  0  0  0  0
  7  8  1  0  0  0  0
  8 10  1  0  0  0  0
  9  5  2  0  0  0  0
 10 25  1  6  0  0  0
 10  6  1  0  0  0  0
 12 16  1  0  0  0  0
 12 17  1  0  0  0  0
 13 12  2  0  0  0  0
 14 16  2  0  0  0  0
 15 11  1  0  0  0  0
 16 19  1  0  0  0  0
 17 15  1  0  0  0  0
 18 13  2  0  0  0  0
 19 15  1  0  0  0  0
 19 20  1  0  0  0  0
 21 27  1  0  0  0  0
 21 24  1  0  0  0  0
 22 23  2  0  0  0  0
 22 26  1  0  0  0  0
 23 25  1  0  0  0  0
 25 27  2  0  0  0  0
 26 21  2  0  0  0  0
M  END
>  <MODEL>
1

>  <REMARK>
 VINA RESULT:      -7.0      0.000      0.000
  Name = 
  2 active torsions:
  status: ('A' for Active; 'I' for Inactive)
    1  A    between atoms: C_12  and  C_27
    2  A    between atoms: C_17  and  C_23
                            x       y       z     vdW  Elec       q    Type
                         _______ _______ _______ _____ _____    ______ ____

>  <TORSDO>
F 2

$$$$
=
 OpenBabel10232411423D

 27 30  0  0  1  0  0  0  0  0999 V2000
  185.9650  174.9480  136.6610 C   0  0  0  0  0  3  0  0  0  0  0  0
  185.1400  176.0730  136.5690 C   0  0  0  0  0  3  0  0  0  0  0  0
  185.6670  177.3490  136.7900 C   0  0  0  0  0  3  0  0  0  0  0  0
  187.0220  177.5040  137.0960 C   0  0  0  0  0  0  0  0  0  0  0  0
  187.8550  176.3710  137.1910 C   0  0  0  0  0  0  0  0  0  0  0  0
  189.3160  176.5190  137.5260 C   0  0  2  0  0  3  0  0  0  0  0  0
  187.5310  178.7820  137.3470 O   0  0  0  0  0  0  0  0  0  0  0  0
  188.9310  179.0320  137.4710 C   0  0  0  0  0  2  0  0  0  0  0  0
  187.3190  175.0970  136.9720 C   0  0  0  0  0  3  0  0  0  0  0  0
  189.6450  177.8720  138.1750 C   0  0  1  0  0  3  0  0  0  0  0  0
  195.6660  174.5920  135.6710 C   0  0  0  0  0  1  0  0  0  0  0  0
  192.6650  175.6620  136.5550 C   0  0  0  0  0  0  0  0  0  0  0  0
  191.4080  175.9960  136.4260 C   0  0  0  0  0  0  0  0  0  0  0  0
  193.0750  176.4860  138.8450 C   0  0  0  0  0  2  0  0  0  0  0  0
  194.5380  174.1790  136.4940 N   0  0  0  0  0  0  0  0  0  0  0  0
  193.4620  175.8620  137.7340 C   0  0  0  0  0  0  0  0  0  0  0  0
  193.3140  174.5740  135.7670 C   0  0  0  0  0  2  0  0  0  0  0  0
  190.1530  176.3250  136.3070 C   0  0  0  0  0  3  0  0  0  0  0  0
  194.5540  174.9660  137.6620 N   0  0  0  0  0  0  0  0  0  0  0  0
  195.4360  174.6630  138.7800 C   0  0  0  0  0  1  0  0  0  0  0  0
  190.1920  177.2690  141.8670 C   0  0  0  0  0  0  0  0  0  0  0  0
  188.1060  178.3790  141.6190 C   0  0  0  0  0  3  0  0  0  0  0  0
  188.2670  178.4130  140.2330 C   0  0  0  0  0  3  0  0  0  0  0  0
  191.3900  176.5380  142.9100 Cl  0  0  0  0  0  0  0  0  0  0  0  0
  189.4210  177.8650  139.6590 C   0  0  0  0  0  0  0  0  0  0  0  0
  189.0630  177.8100  142.4020 N   0  0  0  0  0  0  0  0  0  0  0  0
  190.3890  177.2870  140.4840 C   0  0  0  0  0  3  0  0  0  0  0  0
  1  9  1  0  0  0  0
  2  1  2  0  0  0  0
  2  3  1  0  0  0  0
  3  4  2  0  0  0  0
  4  5  1  0  0  0  0
  4  7  1  0  0  0  0
  5  6  1  0  0  0  0
  6 18  1  6  0  0  0
  6 10  1  0  0  0  0
  7  8  1  0  0  0  0
  8 10  1  0  0  0  0
  9  5  2  0  0  0  0
 10 25  1  1  0  0  0
 11 15  1  0  0  0  0
 12 16  1  0  0  0  0
 13 12  2  0  0  0  0
 15 19  1  0  0  0  0
 16 14  2  0  0  0  0
 17 15  1  0  0  0  0
 17 12  1  0  0  0  0
 18 13  2  0  0  0  0
 19 16  1  0  0  0  0
 19 20  1  0  0  0  0
 21 26  1  0  0  0  0
 21 24  1  0  0  0  0
 22 26  2  0  0  0  0
 23 22  1  0  0  0  0
 25 23  2  0  0  0  0
 25 27  1  0  0  0  0
 27 21  2  0  0  0  0
M  END
>  <MODEL>
2

>  <REMARK>
 VINA RESULT:      -6.7      3.714      6.268
  Name = 
  2 active torsions:
  status: ('A' for Active; 'I' for Inactive)
    1  A    between atoms: C_12  and  C_27
    2  A    between atoms: C_17  and  C_23
                            x       y       z     vdW  Elec       q    Type
                         _______ _______ _______ _____ _____    ______ ____

>  <TORSDO>
F 2

$$$$
=
 OpenBabel10232411423D

 27 30  0  0  1  0  0  0  0  0999 V2000
  191.7500  179.3100  144.1490 C   0  0  0  0  0  3  0  0  0  0  0  0
  191.5920  178.6020  145.3450 C   0  0  0  0  0  3  0  0  0  0  0  0
  190.6170  177.6050  145.4450 C   0  0  0  0  0  3  0  0  0  0  0  0
  189.8010  177.3090  144.3500 C   0  0  0  0  0  0  0  0  0  0  0  0
  189.9570  178.0230  143.1440 C   0  0  0  0  0  0  0  0  0  0  0  0
  189.0830  177.7210  141.9560 C   0  0  2  0  0  3  0  0  0  0  0  0
  188.8080  176.3330  144.4730 O   0  0  0  0  0  0  0  0  0  0  0  0
  188.0760  175.8470  143.3480 C   0  0  0  0  0  2  0  0  0  0  0  0
  190.9330  179.0220  143.0520 C   0  0  0  0  0  3  0  0  0  0  0  0
  187.8010  176.9640  142.3360 C   0  0  1  0  0  3  0  0  0  0  0  0
  189.3990  176.7810  135.1370 C   0  0  0  0  0  1  0  0  0  0  0  0
  189.1580  177.1080  138.4190 C   0  0  0  0  0  0  0  0  0  0  0  0
  189.5030  177.0240  139.6770 C   0  0  0  0  0  0  0  0  0  0  0  0
  186.8100  177.8190  138.6860 C   0  0  0  0  0  2  0  0  0  0  0  0
  189.3700  177.8280  136.1490 N   0  0  0  0  0  0  0  0  0  0  0  0
  187.8710  177.5290  137.9360 C   0  0  0  0  0  0  0  0  0  0  0  0
  190.1320  177.3200  137.3080 C   0  0  0  0  0  2  0  0  0  0  0  0
  189.8430  176.9480  140.9310 C   0  0  0  0  0  3  0  0  0  0  0  0
  188.0400  177.9490  136.5960 N   0  0  0  0  0  0  0  0  0  0  0  0
  187.0410  178.6970  135.8440 C   0  0  0  0  0  1  0  0  0  0  0  0
  185.2200  178.6700  144.5070 C   0  0  0  0  0  0  0  0  0  0  0  0
  185.0860  179.6320  142.3400 C   0  0  0  0  0  3  0  0  0  0  0  0
  186.1100  178.7980  141.8850 C   0  0  0  0  0  3  0  0  0  0  0  0
  184.6370  178.5910  146.1550 Cl  0  0  0  0  0  0  0  0  0  0  0  0
  186.6990  177.8860  142.7700 C   0  0  0  0  0  0  0  0  0  0  0  0
  184.6640  179.5500  143.6300 N   0  0  0  0  0  0  0  0  0  0  0  0
  186.2480  177.8210  144.0900 C   0  0  0  0  0  3  0  0  0  0  0  0
  1  2  1  0  0  0  0
  2  3  2  0  0  0  0
  4  7  1  0  0  0  0
  4  3  1  0  0  0  0
  5  4  2  0  0  0  0
  6 18  1  6  0  0  0
  6 10  1  0  0  0  0
  6  5  1  0  0  0  0
  8  7  1  0  0  0  0
  9  5  1  0  0  0  0
  9  1  2  0  0  0  0
 10 25  1  1  0  0  0
 10  8  1  0  0  0  0
 11 15  1  0  0  0  0
 12 13  2  0  0  0  0
 13 18  2  0  0  0  0
 15 19  1  0  0  0  0
 15 17  1  0  0  0  0
 16 12  1  0  0  0  0
 16 14  2  0  0  0  0
 17 12  1  0  0  0  0
 19 16  1  0  0  0  0
 20 19  1  0  0  0  0
 21 24  1  0  0  0  0
 22 26  1  0  0  0  0
 23 22  2  0  0  0  0
 23 25  1  0  0  0  0
 25 27  2  0  0  0  0
 26 21  2  0  0  0  0
 27 21  1  0  0  0  0
M  END
>  <MODEL>
3

>  <REMARK>
 VINA RESULT:      -6.7      3.051      6.910
  Name = 
  2 active torsions:
  status: ('A' for Active; 'I' for Inactive)
    1  A    between atoms: C_12  and  C_27
    2  A    between atoms: C_17  and  C_23
                            x       y       z     vdW  Elec       q    Type
                         _______ _______ _______ _____ _____    ______ ____

>  <TORSDO>
F 2

$$$$
=
 OpenBabel10232411423D

 27 30  0  0  1  0  0  0  0  0999 V2000
  181.1530  175.0250  139.5320 C   0  0  0  0  0  3  0  0  0  0  0  0
  179.9940  175.7030  139.9230 C   0  0  0  0  0  3  0  0  0  0  0  0
  180.0570  177.0550  140.2720 C   0  0  0  0  0  3  0  0  0  0  0  0
  181.2780  177.7340  140.2250 C   0  0  0  0  0  0  0  0  0  0  0  0
  182.4470  177.0530  139.8330 C   0  0  0  0  0  0  0  0  0  0  0  0
  183.7710  177.7680  139.7830 C   0  0  2  0  0  3  0  0  0  0  0  0
  181.3340  179.0780  140.6090 O   0  0  0  0  0  0  0  0  0  0  0  0
  182.4970  179.8790  140.4010 C   0  0  0  0  0  2  0  0  0  0  0  0
  182.3760  175.6980  139.4880 C   0  0  0  0  0  3  0  0  0  0  0  0
  183.7800  179.0650  140.6050 C   0  0  1  0  0  3  0  0  0  0  0  0
  189.2660  177.7070  135.6250 C   0  0  0  0  0  1  0  0  0  0  0  0
  186.6540  177.8850  137.6450 C   0  0  0  0  0  0  0  0  0  0  0  0
  185.4000  177.9750  138.0050 C   0  0  0  0  0  0  0  0  0  0  0  0
  187.7330  178.1770  139.8450 C   0  0  0  0  0  2  0  0  0  0  0  0
  188.5430  176.8790  136.5810 N   0  0  0  0  0  0  0  0  0  0  0  0
  187.7810  177.9420  138.5350 C   0  0  0  0  0  0  0  0  0  0  0  0
  187.1080  177.1840  136.4080 C   0  0  0  0  0  2  0  0  0  0  0  0
  184.1540  178.0600  138.3710 C   0  0  0  0  0  3  0  0  0  0  0  0
  188.8730  177.3360  137.8720 N   0  0  0  0  0  0  0  0  0  0  0  0
  190.1150  176.9510  138.5290 C   0  0  0  0  0  1  0  0  0  0  0  0
  185.6330  178.0380  143.7350 C   0  0  0  0  0  0  0  0  0  0  0  0
  183.5160  178.8840  144.3970 C   0  0  0  0  0  3  0  0  0  0  0  0
  183.1750  179.1300  143.0660 C   0  0  0  0  0  3  0  0  0  0  0  0
  187.1750  177.3350  144.1730 Cl  0  0  0  0  0  0  0  0  0  0  0  0
  184.0930  178.8240  142.0530 C   0  0  0  0  0  0  0  0  0  0  0  0
  184.7270  178.3450  144.7030 N   0  0  0  0  0  0  0  0  0  0  0  0
  185.3300  178.2710  142.3920 C   0  0  0  0  0  3  0  0  0  0  0  0
  1  2  1  0  0  0  0
  2  3  2  0  0  0  0
  4  3  1  0  0  0  0
  4  7  1  0  0  0  0
  5  4  2  0  0  0  0
  6 18  1  6  0  0  0
  6  5  1  0  0  0  0
  6 10  1  0  0  0  0
  8 10  1  0  0  0  0
  8  7  1  0  0  0  0
  9  1  2  0  0  0  0
  9  5  1  0  0  0  0
 10 25  1  1  0  0  0
 11 15  1  0  0  0  0
 12 13  2  0  0  0  0
 12 16  1  0  0  0  0
 13 18  2  0  0  0  0
 15 19  1  0  0  0  0
 16 14  2  0  0  0  0
 17 15  1  0  0  0  0
 17 12  1  0  0  0  0
 19 20  1  0  0  0  0
 19 16  1  0  0  0  0
 21 24  1  0  0  0  0
 21 26  1  0  0  0  0
 22 26  2  0  0  0  0
 23 22  1  0  0  0  0
 25 27  1  0  0  0  0
 25 23  2  0  0  0  0
 27 21  2  0  0  0  0
M  END
>  <MODEL>
4

>  <REMARK>
 VINA RESULT:      -6.6      3.800      7.504
  Name = 
  2 active torsions:
  status: ('A' for Active; 'I' for Inactive)
    1  A    between atoms: C_12  and  C_27
    2  A    between atoms: C_17  and  C_23
                            x       y       z     vdW  Elec       q    Type
                         _______ _______ _______ _____ _____    ______ ____

>  <TORSDO>
F 2

$$$$
=
 OpenBabel10232411423D

 27 30  0  0  1  0  0  0  0  0999 V2000
  186.0400  177.2200  146.3340 C   0  0  0  0  0  3  0  0  0  0  0  0
  186.5470  178.1280  147.2700 C   0  0  0  0  0  3  0  0  0  0  0  0
  187.7900  178.7330  147.0570 C   0  0  0  0  0  3  0  0  0  0  0  0
  188.5250  178.4370  145.9060 C   0  0  0  0  0  0  0  0  0  0  0  0
  188.0170  177.5210  144.9630 C   0  0  0  0  0  0  0  0  0  0  0  0
  188.7990  177.1860  143.7200 C   0  0  2  0  0  3  0  0  0  0  0  0
  189.7820  179.0230  145.7200 O   0  0  0  0  0  0  0  0  0  0  0  0
  190.4940  178.9190  144.4870 C   0  0  0  0  0  2  0  0  0  0  0  0
  186.7740  176.9170  145.1850 C   0  0  0  0  0  3  0  0  0  0  0  0
  190.2880  177.5460  143.8370 C   0  0  1  0  0  3  0  0  0  0  0  0
  189.7320  177.8120  136.9220 C   0  0  0  0  0  1  0  0  0  0  0  0
  189.3630  177.6410  140.2040 C   0  0  0  0  0  0  0  0  0  0  0  0
  188.7810  177.7570  141.3680 C   0  0  0  0  0  0  0  0  0  0  0  0
  191.6540  177.0950  140.9430 C   0  0  0  0  0  2  0  0  0  0  0  0
  189.6260  176.8130  137.9770 N   0  0  0  0  0  0  0  0  0  0  0  0
  190.7400  177.2830  139.9930 C   0  0  0  0  0  0  0  0  0  0  0  0
  188.6310  177.3200  138.9440 C   0  0  0  0  0  2  0  0  0  0  0  0
  188.2060  177.8640  142.5310 C   0  0  0  0  0  3  0  0  0  0  0  0
  190.8520  176.7970  138.6700 N   0  0  0  0  0  0  0  0  0  0  0  0
  192.0150  176.0830  138.1590 C   0  0  0  0  0  1  0  0  0  0  0  0
  192.2180  175.6240  146.4590 C   0  0  0  0  0  0  0  0  0  0  0  0
  192.2180  174.3270  144.4700 C   0  0  0  0  0  3  0  0  0  0  0  0
  191.4700  175.3040  143.8090 C   0  0  0  0  0  3  0  0  0  0  0  0
  192.7100  175.8180  148.1260 Cl  0  0  0  0  0  0  0  0  0  0  0  0
  191.0890  176.4620  144.4980 C   0  0  0  0  0  0  0  0  0  0  0  0
  192.5760  174.5060  145.7700 N   0  0  0  0  0  0  0  0  0  0  0  0
  191.4690  176.6230  145.8320 C   0  0  0  0  0  3  0  0  0  0  0  0
  1  2  1  0  0  0  0
  3  2  2  0  0  0  0
  4  3  1  0  0  0  0
  5  9  1  0  0  0  0
  5  4  2  0  0  0  0
  6 18  1  6  0  0  0
  6 10  1  0  0  0  0
  6  5  1  0  0  0  0
  7  4  1  0  0  0  0
  8  7  1  0  0  0  0
  9  1  2  0  0  0  0
 10  8  1  0  0  0  0
 10 25  1  1  0  0  0
 11 15  1  0  0  0  0
 12 13  2  0  0  0  0
 13 18  2  0  0  0  0
 15 19  1  0  0  0  0
 15 17  1  0  0  0  0
 16 12  1  0  0  0  0
 16 14  2  0  0  0  0
 17 12  1  0  0  0  0
 19 16  1  0  0  0  0
 20 19  1  0  0  0  0
 21 24  1  0  0  0  0
 22 26  1  0  0  0  0
 23 22  2  0  0  0  0
 23 25  1  0  0  0  0
 25 27  2  0  0  0  0
 26 21  2  0  0  0  0
 27 21  1  0  0  0  0
M  END
>  <MODEL>
5

>  <REMARK>
 VINA RESULT:      -6.6      4.129      8.611
  Name = 
  2 active torsions:
  status: ('A' for Active; 'I' for Inactive)
    1  A    between atoms: C_12  and  C_27
    2  A    between atoms: C_17  and  C_23
                            x       y       z     vdW  Elec       q    Type
                         _______ _______ _______ _____ _____    ______ ____

>  <TORSDO>
F 2

$$$$
=
 OpenBabel10232411423D

 27 30  0  0  1  0  0  0  0  0999 V2000
  191.4320  173.1480  135.8710 C   0  0  0  0  0  3  0  0  0  0  0  0
  191.5100  173.7030  134.5890 C   0  0  0  0  0  3  0  0  0  0  0  0
  191.0000  174.9820  134.3470 C   0  0  0  0  0  3  0  0  0  0  0  0
  190.4180  175.7120  135.3870 C   0  0  0  0  0  0  0  0  0  0  0  0
  190.3370  175.1550  136.6780 C   0  0  0  0  0  0  0  0  0  0  0  0
  189.7060  175.9260  137.8080 C   0  0  2  0  0  3  0  0  0  0  0  0
  189.8820  176.9780  135.1250 O   0  0  0  0  0  0  0  0  0  0  0  0
  189.4530  177.8520  136.1690 C   0  0  0  0  0  2  0  0  0  0  0  0
  190.8460  173.8720  136.9120 C   0  0  0  0  0  3  0  0  0  0  0  0
  188.8080  177.0720  137.3200 C   0  0  1  0  0  3  0  0  0  0  0  0
  190.4670  178.3020  144.2310 C   0  0  0  0  0  1  0  0  0  0  0  0
  190.0880  177.3060  141.1010 C   0  0  0  0  0  0  0  0  0  0  0  0
  190.4270  176.8840  139.9110 C   0  0  0  0  0  0  0  0  0  0  0  0
  187.7030  177.7980  140.6980 C   0  0  0  0  0  2  0  0  0  0  0  0
  189.9090  177.1840  143.4820 N   0  0  0  0  0  0  0  0  0  0  0  0
  188.7660  177.7110  141.4950 C   0  0  0  0  0  0  0  0  0  0  0  0
  190.8220  176.9360  142.3470 C   0  0  0  0  0  2  0  0  0  0  0  0
  190.7550  176.4590  138.7250 C   0  0  0  0  0  3  0  0  0  0  0  0
  188.7010  177.6220  142.9050 N   0  0  0  0  0  0  0  0  0  0  0  0
  187.4620  177.6820  143.6700 C   0  0  0  0  0  1  0  0  0  0  0  0
  185.7540  174.8620  137.0350 C   0  0  0  0  0  0  0  0  0  0  0  0
  185.1970  176.9820  136.1210 C   0  0  0  0  0  3  0  0  0  0  0  0
  186.4810  177.4600  136.3940 C   0  0  0  0  0  3  0  0  0  0  0  0
  185.2850  173.2210  137.4190 Cl  0  0  0  0  0  0  0  0  0  0  0  0
  187.4140  176.6130  137.0060 C   0  0  0  0  0  0  0  0  0  0  0  0
  184.8630  175.7030  136.4420 N   0  0  0  0  0  0  0  0  0  0  0  0
  187.0470  175.3040  137.3250 C   0  0  0  0  0  3  0  0  0  0  0  0
  1  9  1  0  0  0  0
  2  1  2  0  0  0  0
  3  2  1  0  0  0  0
  3  4  2  0  0  0  0
  4  5  1  0  0  0  0
  5  9  2  0  0  0  0
  5  6  1  0  0  0  0
  6 18  1  1  0  0  0
  7  4  1  0  0  0  0
  7  8  1  0  0  0  0
  8 10  1  0  0  0  0
 10 25  1  6  0  0  0
 10  6  1  0  0  0  0
 12 16  1  0  0  0  0
 12 17  1  0  0  0  0
 13 12  2  0  0  0  0
 14 16  2  0  0  0  0
 15 11  1  0  0  0  0
 16 19  1  0  0  0  0
 17 15  1  0  0  0  0
 18 13  2  0  0  0  0
 19 15  1  0  0  0  0
 19 20  1  0  0  0  0
 21 27  1  0  0  0  0
 21 24  1  0  0  0  0
 22 23  2  0  0  0  0
 22 26  1  0  0  0  0
 23 25  1  0  0  0  0
 25 27  2  0  0  0  0
 26 21  2  0  0  0  0
M  END
>  <MODEL>
6

>  <REMARK>
 VINA RESULT:      -6.3      1.739      2.003
  Name = 
  2 active torsions:
  status: ('A' for Active; 'I' for Inactive)
    1  A    between atoms: C_12  and  C_27
    2  A    between atoms: C_17  and  C_23
                            x       y       z     vdW  Elec       q    Type
                         _______ _______ _______ _____ _____    ______ ____

>  <TORSDO>
F 2

$$$$
=
 OpenBabel10232411423D

 27 30  0  0  1  0  0  0  0  0999 V2000
  188.3340  172.6640  136.8290 C   0  0  0  0  0  3  0  0  0  0  0  0
  186.9980  173.0640  136.7220 C   0  0  0  0  0  3  0  0  0  0  0  0
  186.6680  174.4220  136.7590 C   0  0  0  0  0  3  0  0  0  0  0  0
  187.6720  175.3840  136.8980 C   0  0  0  0  0  0  0  0  0  0  0  0
  189.0190  174.9840  137.0080 C   0  0  0  0  0  0  0  0  0  0  0  0
  190.1130  176.0070  137.1640 C   0  0  2  0  0  3  0  0  0  0  0  0
  187.3260  176.7370  136.9680 O   0  0  0  0  0  0  0  0  0  0  0  0
  188.3040  177.7750  136.9120 C   0  0  0  0  0  2  0  0  0  0  0  0
  189.3410  173.6220  136.9730 C   0  0  0  0  0  3  0  0  0  0  0  0
  189.5900  177.3700  137.6410 C   0  0  1  0  0  3  0  0  0  0  0  0
  196.2340  174.5670  134.3470 C   0  0  0  0  0  1  0  0  0  0  0  0
  193.3490  175.3970  135.7330 C   0  0  0  0  0  0  0  0  0  0  0  0
  192.1030  175.7870  135.8050 C   0  0  0  0  0  0  0  0  0  0  0  0
  193.9410  175.4760  138.1270 C   0  0  0  0  0  2  0  0  0  0  0  0
  195.1410  173.9530  135.0890 N   0  0  0  0  0  0  0  0  0  0  0  0
  194.2280  175.2080  136.8550 C   0  0  0  0  0  0  0  0  0  0  0  0
  193.8940  174.5820  134.6080 C   0  0  0  0  0  2  0  0  0  0  0  0
  190.8610  176.1700  135.8840 C   0  0  0  0  0  3  0  0  0  0  0  0
  195.2690  174.3480  136.4350 N   0  0  0  0  0  0  0  0  0  0  0  0
  196.2050  173.6970  137.3410 C   0  0  0  0  0  1  0  0  0  0  0  0
  188.1770  178.0850  141.0730 C   0  0  0  0  0  0  0  0  0  0  0  0
  190.3040  177.0710  141.3670 C   0  0  0  0  0  3  0  0  0  0  0  0
  190.4720  176.9760  139.9840 C   0  0  0  0  0  3  0  0  0  0  0  0
  186.7410  178.7950  141.7760 Cl  0  0  0  0  0  0  0  0  0  0  0  0
  189.4630  177.4450  139.1340 C   0  0  0  0  0  0  0  0  0  0  0  0
  189.1700  177.6210  141.8790 N   0  0  0  0  0  0  0  0  0  0  0  0
  188.3080  178.0050  139.6840 C   0  0  0  0  0  3  0  0  0  0  0  0
  1  9  1  0  0  0  0
  2  3  1  0  0  0  0
  2  1  2  0  0  0  0
  3  4  2  0  0  0  0
  4  7  1  0  0  0  0
  4  5  1  0  0  0  0
  5  6  1  0  0  0  0
  6 18  1  6  0  0  0
  6 10  1  0  0  0  0
  8  7  1  0  0  0  0
  8 10  1  0  0  0  0
  9  5  2  0  0  0  0
 10 25  1  1  0  0  0
 11 15  1  0  0  0  0
 12 13  2  0  0  0  0
 12 16  1  0  0  0  0
 13 18  2  0  0  0  0
 15 19  1  0  0  0  0
 16 14  2  0  0  0  0
 17 15  1  0  0  0  0
 17 12  1  0  0  0  0
 19 16  1  0  0  0  0
 19 20  1  0  0  0  0
 21 24  1  0  0  0  0
 21 26  1  0  0  0  0
 22 26  2  0  0  0  0
 23 22  1  0  0  0  0
 25 27  1  0  0  0  0
 25 23  2  0  0  0  0
 27 21  2  0  0  0  0
M  END
>  <MODEL>
7

>  <REMARK>
 VINA RESULT:      -6.2      3.897      6.521
  Name = 
  2 active torsions:
  status: ('A' for Active; 'I' for Inactive)
    1  A    between atoms: C_12  and  C_27
    2  A    between atoms: C_17  and  C_23
                            x       y       z     vdW  Elec       q    Type
                         _______ _______ _______ _____ _____    ______ ____

>  <TORSDO>
F 2

$$$$
=
 OpenBabel10232411423D

 27 30  0  0  1  0  0  0  0  0999 V2000
  191.5020  179.1570  143.5270 C   0  0  0  0  0  3  0  0  0  0  0  0
  191.9100  177.9410  144.0850 C   0  0  0  0  0  3  0  0  0  0  0  0
  190.9850  176.9080  144.2650 C   0  0  0  0  0  3  0  0  0  0  0  0
  189.6530  177.0850  143.8840 C   0  0  0  0  0  0  0  0  0  0  0  0
  189.2390  178.3100  143.3230 C   0  0  0  0  0  0  0  0  0  0  0  0
  187.8060  178.5200  142.9120 C   0  0  2  0  0  3  0  0  0  0  0  0
  188.7300  176.0560  144.1000 O   0  0  0  0  0  0  0  0  0  0  0  0
  187.4090  176.0950  143.5610 C   0  0  0  0  0  2  0  0  0  0  0  0
  190.1700  179.3410  143.1480 C   0  0  0  0  0  3  0  0  0  0  0  0
  186.8440  177.5190  143.5690 C   0  0  1  0  0  3  0  0  0  0  0  0
  183.0350  178.9590  137.9600 C   0  0  0  0  0  1  0  0  0  0  0  0
  185.3090  178.5970  140.3330 C   0  0  0  0  0  0  0  0  0  0  0  0
  186.4950  178.5220  140.8770 C   0  0  0  0  0  0  0  0  0  0  0  0
  183.9320  177.8690  142.2470 C   0  0  0  0  0  2  0  0  0  0  0  0
  183.5260  179.6540  139.1420 N   0  0  0  0  0  0  0  0  0  0  0  0
  184.0670  178.3200  141.0020 C   0  0  0  0  0  0  0  0  0  0  0  0
  184.9920  179.4700  139.1650 C   0  0  0  0  0  2  0  0  0  0  0  0
  187.6730  178.4510  141.4280 C   0  0  0  0  0  3  0  0  0  0  0  0
  183.0420  178.9640  140.2700 N   0  0  0  0  0  0  0  0  0  0  0  0
  181.6850  179.1560  140.7640 C   0  0  0  0  0  1  0  0  0  0  0  0
  186.8720  178.2090  147.2860 C   0  0  0  0  0  0  0  0  0  0  0  0
  184.7680  178.9120  146.4390 C   0  0  0  0  0  3  0  0  0  0  0  0
  185.1330  178.5180  145.1500 C   0  0  0  0  0  3  0  0  0  0  0  0
  187.9530  178.0070  148.6470 Cl  0  0  0  0  0  0  0  0  0  0  0  0
  186.4000  177.9620  144.9330 C   0  0  0  0  0  0  0  0  0  0  0  0
  185.6370  178.7490  147.4730 N   0  0  0  0  0  0  0  0  0  0  0  0
  187.2740  177.8050  146.0100 C   0  0  0  0  0  3  0  0  0  0  0  0
  1  2  1  0  0  0  0
  2  3  2  0  0  0  0
  4  7  1  0  0  0  0
  4  3  1  0  0  0  0
  5  4  2  0  0  0  0
  6 18  1  6  0  0  0
  6  5  1  0  0  0  0
  6 10  1  0  0  0  0
  8 10  1  0  0  0  0
  8  7  1  0  0  0  0
  9  5  1  0  0  0  0
  9  1  2  0  0  0  0
 10 25  1  1  0  0  0
 11 15  1  0  0  0  0
 12 13  2  0  0  0  0
 12 16  1  0  0  0  0
 13 18  2  0  0  0  0
 15 17  1  0  0  0  0
 15 19  1  0  0  0  0
 16 14  2  0  0  0  0
 17 12  1  0  0  0  0
 19 20  1  0  0  0  0
 19 16  1  0  0  0  0
 21 26  1  0  0  0  0
 21 24  1  0  0  0  0
 22 26  2  0  0  0  0
 23 22  1  0  0  0  0
 25 23  2  0  0  0  0
 25 27  1  0  0  0  0
 27 21  2  0  0  0  0
M  END
>  <MODEL>
8

>  <REMARK>
 VINA RESULT:      -6.1      4.846      7.653
  Name = 
  2 active torsions:
  status: ('A' for Active; 'I' for Inactive)
    1  A    between atoms: C_12  and  C_27
    2  A    between atoms: C_17  and  C_23
                            x       y       z     vdW  Elec       q    Type
                         _______ _______ _______ _____ _____    ______ ____

>  <TORSDO>
F 2

$$$$
=
 OpenBabel10232411423D

 27 30  0  0  1  0  0  0  0  0999 V2000
  184.4310  172.4550  137.3560 C   0  0  0  0  0  3  0  0  0  0  0  0
  183.3300  172.5490  136.4990 C   0  0  0  0  0  3  0  0  0  0  0  0
  183.0520  173.7530  135.8440 C   0  0  0  0  0  3  0  0  0  0  0  0
  183.8770  174.8640  136.0400 C   0  0  0  0  0  0  0  0  0  0  0  0
  184.9860  174.7720  136.9050 C   0  0  0  0  0  0  0  0  0  0  0  0
  185.8820  175.9610  137.1320 C   0  0  2  0  0  3  0  0  0  0  0  0
  183.5700  176.0720  135.4060 O   0  0  0  0  0  0  0  0  0  0  0  0
  184.4700  177.1800  135.4050 C   0  0  0  0  0  2  0  0  0  0  0  0
  185.2560  173.5640  137.5590 C   0  0  0  0  0  3  0  0  0  0  0  0
  185.2210  177.2900  136.7360 C   0  0  1  0  0  3  0  0  0  0  0  0
  192.6880  176.4310  138.1010 C   0  0  0  0  0  1  0  0  0  0  0  0
  189.4230  176.3480  137.5820 C   0  0  0  0  0  0  0  0  0  0  0  0
  188.2950  176.0710  136.9820 C   0  0  0  0  0  0  0  0  0  0  0  0
  188.5940  177.8880  139.3230 C   0  0  0  0  0  2  0  0  0  0  0  0
  191.4870  175.8380  138.6740 N   0  0  0  0  0  0  0  0  0  0  0  0
  189.5660  177.1930  138.7360 C   0  0  0  0  0  0  0  0  0  0  0  0
  190.6190  175.4560  137.5420 C   0  0  0  0  0  2  0  0  0  0  0  0
  187.1670  175.7940  136.3930 C   0  0  0  0  0  3  0  0  0  0  0  0
  190.7940  176.8590  139.3540 N   0  0  0  0  0  0  0  0  0  0  0  0
  191.1780  177.2900  140.6910 C   0  0  0  0  0  1  0  0  0  0  0  0
  184.2110  178.7360  140.0800 C   0  0  0  0  0  0  0  0  0  0  0  0
  182.2530  178.5710  138.7450 C   0  0  0  0  0  3  0  0  0  0  0  0
  182.9950  178.0390  137.6880 C   0  0  0  0  0  3  0  0  0  0  0  0
  184.9610  179.1660  141.6000 Cl  0  0  0  0  0  0  0  0  0  0  0  0
  184.3760  177.8590  137.8380 C   0  0  0  0  0  0  0  0  0  0  0  0
  182.8710  178.9040  139.9110 N   0  0  0  0  0  0  0  0  0  0  0  0
  184.9860  178.2080  139.0440 C   0  0  0  0  0  3  0  0  0  0  0  0
  1  9  1  0  0  0  0
  2  1  2  0  0  0  0
  3  4  2  0  0  0  0
  3  2  1  0  0  0  0
  4  5  1  0  0  0  0
  5  6  1  0  0  0  0
  5  9  2  0  0  0  0
  6 18  1  6  0  0  0
  7  4  1  0  0  0  0
  8  7  1  0  0  0  0
  8 10  1  0  0  0  0
 10  6  1  0  0  0  0
 10 25  1  1  0  0  0
 11 15  1  0  0  0  0
 12 16  1  0  0  0  0
 13 12  2  0  0  0  0
 15 19  1  0  0  0  0
 16 14  2  0  0  0  0
 16 19  1  0  0  0  0
 17 12  1  0  0  0  0
 17 15  1  0  0  0  0
 18 13  2  0  0  0  0
 19 20  1  0  0  0  0
 21 24  1  0  0  0  0
 22 26  2  0  0  0  0
 23 25  2  0  0  0  0
 23 22  1  0  0  0  0
 25 27  1  0  0  0  0
 26 21  1  0  0  0  0
 27 21  2  0  0  0  0
M  END
>  <MODEL>
9

>  <REMARK>
 VINA RESULT:      -6.0      2.978      5.130
  Name = 
  2 active torsions:
  status: ('A' for Active; 'I' for Inactive)
    1  A    between atoms: C_12  and  C_27
    2  A    between atoms: C_17  and  C_23
                            x       y       z     vdW  Elec       q    Type
                         _______ _______ _______ _____ _____    ______ ____

>  <TORSDO>
F 2

$$$$
