=
 OpenBabel10232411383D

 27 29  0  0  1  0  0  0  0  0999 V2000
  187.9380  177.7050  143.1500 C   0  0  0  0  0  0  0  0  0  0  0  0
  187.1960  177.9530  144.2640 N   0  0  0  0  0  0  0  0  0  0  0  0
  187.4390  177.9250  147.9270 C   0  0  0  0  0  3  0  0  0  0  0  0
  189.0460  177.3980  145.6910 C   0  0  0  0  0  0  0  0  0  0  0  0
  188.7640  177.5180  148.0970 C   0  0  0  0  0  3  0  0  0  0  0  0
  187.7030  177.8120  145.5200 C   0  0  0  0  0  0  0  0  0  0  0  0
  189.5740  177.2530  146.9890 C   0  0  0  0  0  0  0  0  0  0  0  0
  189.2660  177.2930  143.2770 C   0  0  0  0  0  3  0  0  0  0  0  0
  189.8180  177.1410  144.5490 C   0  0  0  0  0  3  0  0  0  0  0  0
  186.9030  178.0730  146.6460 C   0  0  0  0  0  0  0  0  0  0  0  0
  192.0280  176.5010  147.3980 N   0  0  0  0  0  0  0  0  0  0  0  0
  190.9350  176.8360  147.2160 C   0  0  0  0  0  0  0  0  0  0  0  0
  184.4290  178.8270  146.4000 N   0  0  0  0  0  0  0  0  0  0  0  0
  185.5310  178.4910  146.5080 C   0  0  0  0  0  0  0  0  0  0  0  0
  187.3440  177.8620  141.7840 C   0  0  2  0  0  3  0  0  0  0  0  0
  188.3790  177.8660  140.7030 C   0  0  0  0  0  0  0  0  0  0  0  0
  189.5030  178.4000  138.9980 N   0  0  0  0  0  2  0  0  0  0  0  0
  188.4890  178.8040  139.7450 N   0  0  0  0  0  0  0  0  0  0  0  0
  189.9870  177.2640  139.4760 N   0  0  0  0  0  0  0  0  0  0  0  0
  189.3010  176.9000  140.5460 N   0  0  0  0  0  0  0  0  0  0  0  0
  186.3860  179.0510  141.6840 C   0  0  0  0  0  2  0  0  0  0  0  0
  185.1380  178.6780  141.0280 N   0  0  0  0  0  0  0  0  0  0  0  0
  184.9380  179.5930  140.0490 O   0  0  0  0  0  1  0  0  0  0  0  0
  184.0510  178.8300  141.9950 C   0  0  2  0  0  3  0  0  0  0  0  0
  184.2230  177.9660  143.0650 F   0  0  0  0  0  0  0  0  0  0  0  0
  182.7010  178.5510  141.3390 C   0  0  0  0  0  2  0  0  0  0  0  0
  181.6150  178.8540  142.2600 N   0  0  0  0  0  1  0  0  0  0  0  0
  1  8  2  0  0  0  0
  1  2  1  0  0  0  0
  2  6  2  0  0  0  0
  3  5  1  0  0  0  0
  4  7  1  0  0  0  0
  6  4  1  0  0  0  0
  6 10  1  0  0  0  0
  7 12  1  0  0  0  0
  7  5  2  0  0  0  0
  8  9  1  0  0  0  0
  9  4  2  0  0  0  0
 10  3  2  0  0  0  0
 12 11  3  0  0  0  0
 13 14  3  0  0  0  0
 14 10  1  0  0  0  0
 15 21  1  1  0  0  0
 15  1  1  0  0  0  0
 16 15  1  0  0  0  0
 17 19  1  0  0  0  0
 17 18  1  0  0  0  0
 18 16  2  0  0  0  0
 19 20  2  0  0  0  0
 20 16  1  0  0  0  0
 22 21  1  0  0  0  0
 22 24  1  0  0  0  0
 23 22  1  0  0  0  0
 24 25  1  1  0  0  0
 26 24  1  0  0  0  0
 26 27  1  0  0  0  0
M  END
>  <MODEL>
1

>  <REMARK>
 VINA RESULT:      -8.8      0.000      0.000
  Name = 
  8 active torsions:
  status: ('A' for Active; 'I' for Inactive)
    1  A    between atoms: C_1  and  C_10
    2  A    between atoms: C_7  and  C_10
    3  A    between atoms: C_10  and  C_21
    4  A    between atoms: C_11  and  C_15
    5  A    between atoms: N_12  and  C_15
    6  A    between atoms: N_12  and  C_21
    7  A    between atoms: C_18  and  C_26
    8  A    between atoms: C_19  and  C_27
                            x       y       z     vdW  Elec       q    Type
                         _______ _______ _______ _____ _____    ______ ____

>  <TORSDO>
F 8

$$$$
=
 OpenBabel10232411383D

 27 29  0  0  1  0  0  0  0  0999 V2000
  189.4380  177.1680  142.7350 C   0  0  0  0  0  0  0  0  0  0  0  0
  188.4800  177.5140  143.6370 N   0  0  0  0  0  0  0  0  0  0  0  0
  187.9120  177.7480  147.2570 C   0  0  0  0  0  3  0  0  0  0  0  0
  189.9490  177.0200  145.4720 C   0  0  0  0  0  0  0  0  0  0  0  0
  189.1500  177.3230  147.7430 C   0  0  0  0  0  3  0  0  0  0  0  0
  188.6930  177.4540  144.9810 C   0  0  0  0  0  0  0  0  0  0  0  0
  190.1720  176.9580  146.8620 C   0  0  0  0  0  0  0  0  0  0  0  0
  190.6890  176.7340  143.1800 C   0  0  0  0  0  3  0  0  0  0  0  0
  190.9410  176.6630  144.5490 C   0  0  0  0  0  3  0  0  0  0  0  0
  187.6760  177.8150  145.8820 C   0  0  0  0  0  0  0  0  0  0  0  0
  192.4450  176.1790  147.8540 N   0  0  0  0  0  0  0  0  0  0  0  0
  191.4320  176.5260  147.4120 C   0  0  0  0  0  0  0  0  0  0  0  0
  185.3480  178.6070  145.0440 N   0  0  0  0  0  0  0  0  0  0  0  0
  186.3860  178.2550  145.4160 C   0  0  0  0  0  0  0  0  0  0  0  0
  189.1650  177.2390  141.2630 C   0  0  2  0  0  3  0  0  0  0  0  0
  190.3960  177.0250  140.4380 C   0  0  0  0  0  0  0  0  0  0  0  0
  192.3470  177.2080  139.6540 N   0  0  0  0  0  0  0  0  0  0  0  0
  191.5580  177.6820  140.6030 N   0  0  0  0  0  0  0  0  0  0  0  0
  191.6940  176.3050  138.9380 N   0  0  0  0  0  0  0  0  0  0  0  0
  190.4640  176.1690  139.4040 N   0  0  0  0  0  2  0  0  0  0  0  0
  188.3990  178.5010  140.8600 C   0  0  0  0  0  2  0  0  0  0  0  0
  187.2860  178.1890  139.9700 N   0  0  0  0  0  0  0  0  0  0  0  0
  187.5810  178.7660  138.7810 O   0  0  0  0  0  1  0  0  0  0  0  0
  186.0880  178.8490  140.4890 C   0  0  2  0  0  3  0  0  0  0  0  0
  185.7220  178.3070  141.7120 F   0  0  0  0  0  0  0  0  0  0  0  0
  184.9260  178.7070  139.5110 C   0  0  0  0  0  2  0  0  0  0  0  0
  184.3170  180.0030  139.2510 N   0  0  0  0  0  1  0  0  0  0  0  0
  1  8  2  0  0  0  0
  1  2  1  0  0  0  0
  2  6  2  0  0  0  0
  3  5  1  0  0  0  0
  4  7  1  0  0  0  0
  6  4  1  0  0  0  0
  6 10  1  0  0  0  0
  7 12  1  0  0  0  0
  7  5  2  0  0  0  0
  8  9  1  0  0  0  0
  9  4  2  0  0  0  0
 10  3  2  0  0  0  0
 12 11  3  0  0  0  0
 13 14  3  0  0  0  0
 14 10  1  0  0  0  0
 15 21  1  1  0  0  0
 15  1  1  0  0  0  0
 16 18  2  0  0  0  0
 16 15  1  0  0  0  0
 17 18  1  0  0  0  0
 19 20  1  0  0  0  0
 19 17  2  0  0  0  0
 20 16  1  0  0  0  0
 22 24  1  0  0  0  0
 22 21  1  0  0  0  0
 23 22  1  0  0  0  0
 24 25  1  1  0  0  0
 26 24  1  0  0  0  0
 27 26  1  0  0  0  0
M  END
>  <MODEL>
2

>  <REMARK>
 VINA RESULT:      -8.4      1.758      2.054
  Name = 
  8 active torsions:
  status: ('A' for Active; 'I' for Inactive)
    1  A    between atoms: C_1  and  C_10
    2  A    between atoms: C_7  and  C_10
    3  A    between atoms: C_10  and  C_21
    4  A    between atoms: C_11  and  C_15
    5  A    between atoms: N_12  and  C_15
    6  A    between atoms: N_12  and  C_21
    7  A    between atoms: C_18  and  C_26
    8  A    between atoms: C_19  and  C_27
                            x       y       z     vdW  Elec       q    Type
                         _______ _______ _______ _____ _____    ______ ____

>  <TORSDO>
F 8

$$$$
=
 OpenBabel10232411383D

 27 29  0  0  1  0  0  0  0  0999 V2000
  188.5790  178.0410  143.1430 C   0  0  0  0  0  0  0  0  0  0  0  0
  187.7240  178.1690  144.1950 N   0  0  0  0  0  0  0  0  0  0  0  0
  187.5820  177.7190  147.8360 C   0  0  0  0  0  3  0  0  0  0  0  0
  189.4140  177.4300  145.7320 C   0  0  0  0  0  0  0  0  0  0  0  0
  188.8810  177.2790  148.0950 C   0  0  0  0  0  3  0  0  0  0  0  0
  188.0970  177.8800  145.4720 C   0  0  0  0  0  0  0  0  0  0  0  0
  189.8030  177.1310  147.0540 C   0  0  0  0  0  0  0  0  0  0  0  0
  189.8860  177.5990  143.3590 C   0  0  0  0  0  3  0  0  0  0  0  0
  190.3010  177.2960  144.6550 C   0  0  0  0  0  3  0  0  0  0  0  0
  187.1830  178.0210  146.5310 C   0  0  0  0  0  0  0  0  0  0  0  0
  192.1990  176.3050  147.6260 N   0  0  0  0  0  0  0  0  0  0  0  0
  191.1320  176.6730  147.3710 C   0  0  0  0  0  0  0  0  0  0  0  0
  184.7490  178.8270  146.1160 N   0  0  0  0  0  0  0  0  0  0  0  0
  185.8340  178.4690  146.3010 C   0  0  0  0  0  0  0  0  0  0  0  0
  188.1310  178.3610  141.7500 C   0  0  2  0  0  3  0  0  0  0  0  0
  186.6540  178.5900  141.6580 C   0  0  0  0  0  0  0  0  0  0  0  0
  184.5760  178.4740  142.0120 N   0  0  0  0  0  0  0  0  0  0  0  0
  185.7350  178.0250  142.4620 N   0  0  0  0  0  0  0  0  0  0  0  0
  184.7780  179.2750  140.9760 N   0  0  0  0  0  0  0  0  0  0  0  0
  186.0740  179.3670  140.7270 N   0  0  0  0  0  2  0  0  0  0  0  0
  188.6340  177.3520  140.7150 C   0  0  0  0  0  2  0  0  0  0  0  0
  189.6300  177.9450  139.8310 N   0  0  0  0  0  0  0  0  0  0  0  0
  189.0800  177.9490  138.5920 O   0  0  0  0  0  1  0  0  0  0  0  0
  190.7910  177.0560  139.7890 C   0  0  2  0  0  3  0  0  0  0  0  0
  191.9180  177.6990  140.2780 F   0  0  0  0  0  0  0  0  0  0  0  0
  191.0630  176.5880  138.3630 C   0  0  0  0  0  2  0  0  0  0  0  0
  190.9720  175.1380  138.2760 N   0  0  0  0  0  1  0  0  0  0  0  0
  1  8  2  0  0  0  0
  1  2  1  0  0  0  0
  2  6  2  0  0  0  0
  3  5  1  0  0  0  0
  4  7  1  0  0  0  0
  6  4  1  0  0  0  0
  6 10  1  0  0  0  0
  7 12  1  0  0  0  0
  7  5  2  0  0  0  0
  8  9  1  0  0  0  0
  9  4  2  0  0  0  0
 10  3  2  0  0  0  0
 12 11  3  0  0  0  0
 13 14  3  0  0  0  0
 14 10  1  0  0  0  0
 15 21  1  6  0  0  0
 15  1  1  0  0  0  0
 16 15  1  0  0  0  0
 16 18  2  0  0  0  0
 17 18  1  0  0  0  0
 19 17  2  0  0  0  0
 20 19  1  0  0  0  0
 20 16  1  0  0  0  0
 22 21  1  0  0  0  0
 23 22  1  0  0  0  0
 24 22  1  0  0  0  0
 24 25  1  6  0  0  0
 26 24  1  0  0  0  0
 27 26  1  0  0  0  0
M  END
>  <MODEL>
3

>  <REMARK>
 VINA RESULT:      -8.4      2.201      4.218
  Name = 
  8 active torsions:
  status: ('A' for Active; 'I' for Inactive)
    1  A    between atoms: C_1  and  C_10
    2  A    between atoms: C_7  and  C_10
    3  A    between atoms: C_10  and  C_21
    4  A    between atoms: C_11  and  C_15
    5  A    between atoms: N_12  and  C_15
    6  A    between atoms: N_12  and  C_21
    7  A    between atoms: C_18  and  C_26
    8  A    between atoms: C_19  and  C_27
                            x       y       z     vdW  Elec       q    Type
                         _______ _______ _______ _____ _____    ______ ____

>  <TORSDO>
F 8

$$$$
=
 OpenBabel10232411383D

 27 29  0  0  1  0  0  0  0  0999 V2000
  188.2370  177.6500  143.1040 C   0  0  0  0  0  0  0  0  0  0  0  0
  187.9670  177.7150  144.4370 N   0  0  0  0  0  0  0  0  0  0  0  0
  185.2160  178.4140  146.7670 C   0  0  0  0  0  3  0  0  0  0  0  0
  185.6780  178.2990  144.0030 C   0  0  0  0  0  0  0  0  0  0  0  0
  184.1780  178.6780  145.8720 C   0  0  0  0  0  3  0  0  0  0  0  0
  186.7300  178.0290  144.9120 C   0  0  0  0  0  0  0  0  0  0  0  0
  184.3970  178.6230  144.4930 C   0  0  0  0  0  0  0  0  0  0  0  0
  187.2260  177.9110  142.1770 C   0  0  0  0  0  3  0  0  0  0  0  0
  185.9470  178.2340  142.6290 C   0  0  0  0  0  3  0  0  0  0  0  0
  186.4910  178.0910  146.2960 C   0  0  0  0  0  0  0  0  0  0  0  0
  182.4060  179.1280  142.8990 N   0  0  0  0  0  0  0  0  0  0  0  0
  183.2930  178.9040  143.6090 C   0  0  0  0  0  0  0  0  0  0  0  0
  188.3820  177.6200  148.0140 N   0  0  0  0  0  0  0  0  0  0  0  0
  187.5400  177.8280  147.2480 C   0  0  0  0  0  0  0  0  0  0  0  0
  189.6120  177.3100  142.6180 C   0  0  2  0  0  3  0  0  0  0  0  0
  189.7110  177.3080  141.1240 C   0  0  0  0  0  0  0  0  0  0  0  0
  189.5030  177.8520  139.0960 N   0  0  0  0  0  0  0  0  0  0  0  0
  189.2250  178.2700  140.3190 N   0  0  0  0  0  0  0  0  0  0  0  0
  190.1260  176.6850  139.1510 N   0  0  0  0  0  0  0  0  0  0  0  0
  190.2700  176.3140  140.4130 N   0  0  0  0  0  2  0  0  0  0  0  0
  190.1650  176.0280  143.2440 C   0  0  0  0  0  2  0  0  0  0  0  0
  191.5000  176.2340  143.7950 N   0  0  0  0  0  0  0  0  0  0  0  0
  191.9820  175.0030  144.0870 O   0  0  0  0  0  1  0  0  0  0  0  0
  191.3650  176.9600  145.0570 C   0  0  2  0  0  3  0  0  0  0  0  0
  191.9830  178.1990  144.9780 F   0  0  0  0  0  0  0  0  0  0  0  0
  191.9820  176.1680  146.2060 C   0  0  0  0  0  2  0  0  0  0  0  0
  191.7620  176.8500  147.4720 N   0  0  0  0  0  1  0  0  0  0  0  0
  1  2  1  0  0  0  0
  2  6  2  0  0  0  0
  4  7  1  0  0  0  0
  4  6  1  0  0  0  0
  5  3  1  0  0  0  0
  6 10  1  0  0  0  0
  7  5  2  0  0  0  0
  8  9  1  0  0  0  0
  8  1  2  0  0  0  0
  9  4  2  0  0  0  0
 10  3  2  0  0  0  0
 10 14  1  0  0  0  0
 11 12  3  0  0  0  0
 12  7  1  0  0  0  0
 14 13  3  0  0  0  0
 15  1  1  0  0  0  0
 15 21  1  6  0  0  0
 16 15  1  0  0  0  0
 17 19  2  0  0  0  0
 17 18  1  0  0  0  0
 18 16  2  0  0  0  0
 19 20  1  0  0  0  0
 20 16  1  0  0  0  0
 21 22  1  0  0  0  0
 22 23  1  0  0  0  0
 22 24  1  0  0  0  0
 24 25  1  6  0  0  0
 24 26  1  0  0  0  0
 26 27  1  0  0  0  0
M  END
>  <MODEL>
4

>  <REMARK>
 VINA RESULT:      -8.4      2.833      5.743
  Name = 
  8 active torsions:
  status: ('A' for Active; 'I' for Inactive)
    1  A    between atoms: C_1  and  C_10
    2  A    between atoms: C_7  and  C_10
    3  A    between atoms: C_10  and  C_21
    4  A    between atoms: C_11  and  C_15
    5  A    between atoms: N_12  and  C_15
    6  A    between atoms: N_12  and  C_21
    7  A    between atoms: C_18  and  C_26
    8  A    between atoms: C_19  and  C_27
                            x       y       z     vdW  Elec       q    Type
                         _______ _______ _______ _____ _____    ______ ____

>  <TORSDO>
F 8

$$$$
=
 OpenBabel10232411383D

 27 29  0  0  1  0  0  0  0  0999 V2000
  187.6640  178.3060  141.7860 C   0  0  0  0  0  0  0  0  0  0  0  0
  187.7290  178.0630  143.1240 N   0  0  0  0  0  0  0  0  0  0  0  0
  185.6210  178.0240  146.1290 C   0  0  0  0  0  3  0  0  0  0  0  0
  185.3900  178.5390  143.3830 C   0  0  0  0  0  0  0  0  0  0  0  0
  184.3870  178.3880  145.5870 C   0  0  0  0  0  3  0  0  0  0  0  0
  186.6400  178.1680  143.9340 C   0  0  0  0  0  0  0  0  0  0  0  0
  184.2610  178.6470  144.2190 C   0  0  0  0  0  0  0  0  0  0  0  0
  186.4490  178.6770  141.2050 C   0  0  0  0  0  3  0  0  0  0  0  0
  185.3130  178.7920  142.0060 C   0  0  0  0  0  3  0  0  0  0  0  0
  186.7490  177.9120  145.3120 C   0  0  0  0  0  0  0  0  0  0  0  0
  181.9260  179.3190  143.2950 N   0  0  0  0  0  0  0  0  0  0  0  0
  182.9660  179.0200  143.7070 C   0  0  0  0  0  0  0  0  0  0  0  0
  189.0170  177.2400  146.3850 N   0  0  0  0  0  0  0  0  0  0  0  0
  188.0060  177.5380  145.9070 C   0  0  0  0  0  0  0  0  0  0  0  0
  188.8850  178.1890  140.9260 C   0  0  2  0  0  3  0  0  0  0  0  0
  188.5580  178.1170  139.4670 C   0  0  0  0  0  0  0  0  0  0  0  0
  188.0050  177.3900  137.5650 N   0  0  0  0  0  2  0  0  0  0  0  0
  188.1430  177.0110  138.8240 N   0  0  0  0  0  0  0  0  0  0  0  0
  188.3250  178.6690  137.4440 N   0  0  0  0  0  0  0  0  0  0  0  0
  188.6790  179.1550  138.6210 N   0  0  0  0  0  0  0  0  0  0  0  0
  189.8230  177.0660  141.3740 C   0  0  0  0  0  2  0  0  0  0  0  0
  191.0770  177.5950  141.8990 N   0  0  0  0  0  0  0  0  0  0  0  0
  192.0390  177.2280  141.0190 O   0  0  0  0  0  1  0  0  0  0  0  0
  191.3630  176.9180  143.1640 C   0  0  2  0  0  3  0  0  0  0  0  0
  190.2850  176.1400  143.5580 F   0  0  0  0  0  0  0  0  0  0  0  0
  191.6750  177.9310  144.2620 C   0  0  0  0  0  2  0  0  0  0  0  0
  191.0350  179.2060  143.9760 N   0  0  0  0  0  1  0  0  0  0  0  0
  1  2  1  0  0  0  0
  2  6  2  0  0  0  0
  4  6  1  0  0  0  0
  4  7  1  0  0  0  0
  5  3  1  0  0  0  0
  6 10  1  0  0  0  0
  7  5  2  0  0  0  0
  8  1  2  0  0  0  0
  8  9  1  0  0  0  0
  9  4  2  0  0  0  0
 10 14  1  0  0  0  0
 10  3  2  0  0  0  0
 11 12  3  0  0  0  0
 12  7  1  0  0  0  0
 14 13  3  0  0  0  0
 15 21  1  1  0  0  0
 15  1  1  0  0  0  0
 16 15  1  0  0  0  0
 17 18  1  0  0  0  0
 18 16  2  0  0  0  0
 19 17  1  0  0  0  0
 19 20  2  0  0  0  0
 20 16  1  0  0  0  0
 21 22  1  0  0  0  0
 22 24  1  0  0  0  0
 23 22  1  0  0  0  0
 24 25  1  1  0  0  0
 24 26  1  0  0  0  0
 27 26  1  0  0  0  0
M  END
>  <MODEL>
5

>  <REMARK>
 VINA RESULT:      -8.4      2.697      5.459
  Name = 
  8 active torsions:
  status: ('A' for Active; 'I' for Inactive)
    1  A    between atoms: C_1  and  C_10
    2  A    between atoms: C_7  and  C_10
    3  A    between atoms: C_10  and  C_21
    4  A    between atoms: C_11  and  C_15
    5  A    between atoms: N_12  and  C_15
    6  A    between atoms: N_12  and  C_21
    7  A    between atoms: C_18  and  C_26
    8  A    between atoms: C_19  and  C_27
                            x       y       z     vdW  Elec       q    Type
                         _______ _______ _______ _____ _____    ______ ____

>  <TORSDO>
F 8

$$$$
=
 OpenBabel10232411383D

 27 29  0  0  1  0  0  0  0  0999 V2000
  190.3280  177.4800  144.4150 C   0  0  0  0  0  0  0  0  0  0  0  0
  189.3230  177.7520  143.5390 N   0  0  0  0  0  0  0  0  0  0  0  0
  188.6660  178.0300  139.9370 C   0  0  0  0  0  3  0  0  0  0  0  0
  190.7960  177.4530  141.6660 C   0  0  0  0  0  0  0  0  0  0  0  0
  189.9280  177.7370  139.4180 C   0  0  0  0  0  3  0  0  0  0  0  0
  189.5150  177.7480  142.1900 C   0  0  0  0  0  0  0  0  0  0  0  0
  190.9970  177.4480  140.2710 C   0  0  0  0  0  0  0  0  0  0  0  0
  191.6070  177.1860  143.9360 C   0  0  0  0  0  3  0  0  0  0  0  0
  191.8380  177.1720  142.5610 C   0  0  0  0  0  3  0  0  0  0  0  0
  188.4510  178.0380  141.3180 C   0  0  0  0  0  0  0  0  0  0  0  0
  193.3130  176.9140  139.2190 N   0  0  0  0  0  0  0  0  0  0  0  0
  192.2810  177.1520  139.6880 C   0  0  0  0  0  0  0  0  0  0  0  0
  186.0810  178.5980  142.2220 N   0  0  0  0  0  0  0  0  0  0  0  0
  187.1370  178.3490  141.8180 C   0  0  0  0  0  0  0  0  0  0  0  0
  190.0820  177.5010  145.8920 C   0  0  2  0  0  3  0  0  0  0  0  0
  191.1900  176.8610  146.6700 C   0  0  0  0  0  0  0  0  0  0  0  0
  192.7250  175.5410  147.2680 N   0  0  0  0  0  0  0  0  0  0  0  0
  191.8770  175.7730  146.2800 N   0  0  0  0  0  0  0  0  0  0  0  0
  192.5600  176.4450  148.2210 N   0  0  0  0  0  0  0  0  0  0  0  0
  191.6000  177.2880  147.8770 N   0  0  0  0  0  2  0  0  0  0  0  0
  188.7050  176.9540  146.2750 C   0  0  0  0  0  2  0  0  0  0  0  0
  187.7780  178.0290  146.6120 N   0  0  0  0  0  0  0  0  0  0  0  0
  187.6950  178.0450  147.9640 O   0  0  0  0  0  1  0  0  0  0  0  0
  186.4560  177.6690  146.0980 C   0  0  2  0  0  3  0  0  0  0  0  0
  186.5690  176.9130  144.9420 F   0  0  0  0  0  0  0  0  0  0  0  0
  185.6340  178.9190  145.8000 C   0  0  0  0  0  2  0  0  0  0  0  0
  184.2910  178.7880  146.3460 N   0  0  0  0  0  1  0  0  0  0  0  0
  1 15  1  0  0  0  0
  2  1  2  0  0  0  0
  3 10  1  0  0  0  0
  4  6  1  0  0  0  0
  4  9  1  0  0  0  0
  5  3  2  0  0  0  0
  5  7  1  0  0  0  0
  6  2  1  0  0  0  0
  7  4  2  0  0  0  0
  8  1  1  0  0  0  0
  9  8  2  0  0  0  0
 10 14  1  0  0  0  0
 10  6  2  0  0  0  0
 11 12  3  0  0  0  0
 12  7  1  0  0  0  0
 14 13  3  0  0  0  0
 15 21  1  6  0  0  0
 15 16  1  0  0  0  0
 16 20  1  0  0  0  0
 17 19  2  0  0  0  0
 18 16  2  0  0  0  0
 18 17  1  0  0  0  0
 20 19  1  0  0  0  0
 21 22  1  0  0  0  0
 22 23  1  0  0  0  0
 24 25  1  6  0  0  0
 24 22  1  0  0  0  0
 26 24  1  0  0  0  0
 26 27  1  0  0  0  0
M  END
>  <MODEL>
6

>  <REMARK>
 VINA RESULT:      -8.1      2.794      6.216
  Name = 
  8 active torsions:
  status: ('A' for Active; 'I' for Inactive)
    1  A    between atoms: C_1  and  C_10
    2  A    between atoms: C_7  and  C_10
    3  A    between atoms: C_10  and  C_21
    4  A    between atoms: C_11  and  C_15
    5  A    between atoms: N_12  and  C_15
    6  A    between atoms: N_12  and  C_21
    7  A    between atoms: C_18  and  C_26
    8  A    between atoms: C_19  and  C_27
                            x       y       z     vdW  Elec       q    Type
                         _______ _______ _______ _____ _____    ______ ____

>  <TORSDO>
F 8

$$$$
=
 OpenBabel10232411383D

 27 29  0  0  1  0  0  0  0  0999 V2000
  187.6120  177.6750  142.6140 C   0  0  0  0  0  0  0  0  0  0  0  0
  187.5430  177.6830  143.9740 N   0  0  0  0  0  0  0  0  0  0  0  0
  185.2060  178.4010  146.7130 C   0  0  0  0  0  3  0  0  0  0  0  0
  185.2550  178.4090  143.9100 C   0  0  0  0  0  0  0  0  0  0  0  0
  184.0670  178.7660  145.9950 C   0  0  0  0  0  3  0  0  0  0  0  0
  186.4090  178.0360  144.6400 C   0  0  0  0  0  0  0  0  0  0  0  0
  184.0800  178.7740  144.5970 C   0  0  0  0  0  0  0  0  0  0  0  0
  186.4960  178.0380  141.8590 C   0  0  0  0  0  3  0  0  0  0  0  0
  185.3180  178.4030  142.5090 C   0  0  0  0  0  3  0  0  0  0  0  0
  186.3780  178.0360  146.0460 C   0  0  0  0  0  0  0  0  0  0  0  0
  181.9130  179.4670  143.3400 N   0  0  0  0  0  0  0  0  0  0  0  0
  182.8780  179.1580  143.9000 C   0  0  0  0  0  0  0  0  0  0  0  0
  188.4650  177.3730  147.4430 N   0  0  0  0  0  0  0  0  0  0  0  0
  187.5360  177.6690  146.8190 C   0  0  0  0  0  0  0  0  0  0  0  0
  188.8800  177.2890  141.9150 C   0  0  2  0  0  3  0  0  0  0  0  0
  190.0630  177.2800  142.8330 C   0  0  0  0  0  0  0  0  0  0  0  0
  191.7310  177.9000  143.9680 N   0  0  0  0  0  0  0  0  0  0  0  0
  190.7750  178.3670  143.1830 N   0  0  0  0  0  0  0  0  0  0  0  0
  191.6110  176.5870  144.0890 N   0  0  0  0  0  0  0  0  0  0  0  0
  190.5740  176.1660  143.3850 N   0  0  0  0  0  2  0  0  0  0  0  0
  189.1300  178.1000  140.6420 C   0  0  0  0  0  2  0  0  0  0  0  0
  189.4900  177.2390  139.5220 N   0  0  0  0  0  0  0  0  0  0  0  0
  190.8440  177.2370  139.4680 O   0  0  0  0  0  1  0  0  0  0  0  0
  189.0060  177.8640  138.2920 C   0  0  2  0  0  3  0  0  0  0  0  0
  189.3560  179.2050  138.2540 F   0  0  0  0  0  0  0  0  0  0  0  0
  187.4890  177.7410  138.1820 C   0  0  0  0  0  2  0  0  0  0  0  0
  186.9500  178.8030  137.3460 N   0  0  0  0  0  1  0  0  0  0  0  0
  1  2  1  0  0  0  0
  2  6  2  0  0  0  0
  4  7  1  0  0  0  0
  4  6  1  0  0  0  0
  5  3  1  0  0  0  0
  6 10  1  0  0  0  0
  7  5  2  0  0  0  0
  8  9  1  0  0  0  0
  8  1  2  0  0  0  0
  9  4  2  0  0  0  0
 10  3  2  0  0  0  0
 10 14  1  0  0  0  0
 11 12  3  0  0  0  0
 12  7  1  0  0  0  0
 14 13  3  0  0  0  0
 15 21  1  6  0  0  0
 15  1  1  0  0  0  0
 15 16  1  0  0  0  0
 16 18  2  0  0  0  0
 16 20  1  0  0  0  0
 17 19  2  0  0  0  0
 18 17  1  0  0  0  0
 20 19  1  0  0  0  0
 22 21  1  0  0  0  0
 23 22  1  0  0  0  0
 24 25  1  1  0  0  0
 24 22  1  0  0  0  0
 26 24  1  0  0  0  0
 27 26  1  0  0  0  0
M  END
>  <MODEL>
7

>  <REMARK>
 VINA RESULT:      -8.1      2.744      5.117
  Name = 
  8 active torsions:
  status: ('A' for Active; 'I' for Inactive)
    1  A    between atoms: C_1  and  C_10
    2  A    between atoms: C_7  and  C_10
    3  A    between atoms: C_10  and  C_21
    4  A    between atoms: C_11  and  C_15
    5  A    between atoms: N_12  and  C_15
    6  A    between atoms: N_12  and  C_21
    7  A    between atoms: C_18  and  C_26
    8  A    between atoms: C_19  and  C_27
                            x       y       z     vdW  Elec       q    Type
                         _______ _______ _______ _____ _____    ______ ____

>  <TORSDO>
F 8

$$$$
=
 OpenBabel10232411383D

 27 29  0  0  1  0  0  0  0  0999 V2000
  189.3900  177.0780  142.0030 C   0  0  0  0  0  0  0  0  0  0  0  0
  188.3290  177.3870  142.7980 N   0  0  0  0  0  0  0  0  0  0  0  0
  187.4110  177.7200  146.3370 C   0  0  0  0  0  3  0  0  0  0  0  0
  189.6520  177.0770  144.7790 C   0  0  0  0  0  0  0  0  0  0  0  0
  188.6250  177.4080  146.9520 C   0  0  0  0  0  3  0  0  0  0  0  0
  188.4200  177.3950  144.1570 C   0  0  0  0  0  0  0  0  0  0  0  0
  189.7480  177.0870  146.1850 C   0  0  0  0  0  0  0  0  0  0  0  0
  190.6210  176.7570  142.5790 C   0  0  0  0  0  3  0  0  0  0  0  0
  190.7490  176.7590  143.9670 C   0  0  0  0  0  3  0  0  0  0  0  0
  187.3000  177.7150  144.9450 C   0  0  0  0  0  0  0  0  0  0  0  0
  191.9680  176.5200  147.4120 N   0  0  0  0  0  0  0  0  0  0  0  0
  190.9790  176.7720  146.8650 C   0  0  0  0  0  0  0  0  0  0  0  0
  185.0110  178.2950  143.8620 N   0  0  0  0  0  0  0  0  0  0  0  0
  186.0310  178.0380  144.3450 C   0  0  0  0  0  0  0  0  0  0  0  0
  189.2510  177.0710  140.5110 C   0  0  2  0  0  3  0  0  0  0  0  0
  190.5440  176.7850  139.8140 C   0  0  0  0  0  0  0  0  0  0  0  0
  192.5440  176.9210  139.1520 N   0  0  0  0  0  0  0  0  0  0  0  0
  191.6760  177.4960  139.9660 N   0  0  0  0  0  0  0  0  0  0  0  0
  191.9670  175.9070  138.5260 N   0  0  0  0  0  0  0  0  0  0  0  0
  190.7090  175.7960  138.9180 N   0  0  0  0  0  2  0  0  0  0  0  0
  188.5570  178.3230  139.9710 C   0  0  0  0  0  2  0  0  0  0  0  0
  188.4650  178.2970  138.5160 N   0  0  0  0  0  0  0  0  0  0  0  0
  188.9720  179.4770  138.0850 O   0  0  0  0  0  1  0  0  0  0  0  0
  187.0500  178.2710  138.1480 C   0  0  2  0  0  3  0  0  0  0  0  0
  186.2490  178.4110  139.2710 F   0  0  0  0  0  0  0  0  0  0  0  0
  186.6970  176.9650  137.4430 C   0  0  0  0  0  2  0  0  0  0  0  0
  187.8890  176.3560  136.8720 N   0  0  0  0  0  1  0  0  0  0  0  0
  1  8  2  0  0  0  0
  1  2  1  0  0  0  0
  2  6  2  0  0  0  0
  3  5  1  0  0  0  0
  4  7  1  0  0  0  0
  6  4  1  0  0  0  0
  6 10  1  0  0  0  0
  7 12  1  0  0  0  0
  7  5  2  0  0  0  0
  8  9  1  0  0  0  0
  9  4  2  0  0  0  0
 10  3  2  0  0  0  0
 12 11  3  0  0  0  0
 13 14  3  0  0  0  0
 14 10  1  0  0  0  0
 15 21  1  6  0  0  0
 15  1  1  0  0  0  0
 16 18  2  0  0  0  0
 16 15  1  0  0  0  0
 17 18  1  0  0  0  0
 19 20  1  0  0  0  0
 19 17  2  0  0  0  0
 20 16  1  0  0  0  0
 22 21  1  0  0  0  0
 23 22  1  0  0  0  0
 24 22  1  0  0  0  0
 24 25  1  1  0  0  0
 26 24  1  0  0  0  0
 27 26  1  0  0  0  0
M  END
>  <MODEL>
8

>  <REMARK>
 VINA RESULT:      -8.0      2.294      3.225
  Name = 
  8 active torsions:
  status: ('A' for Active; 'I' for Inactive)
    1  A    between atoms: C_1  and  C_10
    2  A    between atoms: C_7  and  C_10
    3  A    between atoms: C_10  and  C_21
    4  A    between atoms: C_11  and  C_15
    5  A    between atoms: N_12  and  C_15
    6  A    between atoms: N_12  and  C_21
    7  A    between atoms: C_18  and  C_26
    8  A    between atoms: C_19  and  C_27
                            x       y       z     vdW  Elec       q    Type
                         _______ _______ _______ _____ _____    ______ ____

>  <TORSDO>
F 8

$$$$
=
 OpenBabel10232411383D

 27 29  0  0  1  0  0  0  0  0999 V2000
  186.2900  177.9740  143.4580 C   0  0  0  0  0  0  0  0  0  0  0  0
  187.5600  177.5200  143.2740 N   0  0  0  0  0  0  0  0  0  0  0  0
  190.6150  176.7350  145.1530 C   0  0  0  0  0  3  0  0  0  0  0  0
  188.0150  177.6710  145.6280 C   0  0  0  0  0  0  0  0  0  0  0  0
  190.2070  177.0380  146.4530 C   0  0  0  0  0  3  0  0  0  0  0  0
  188.4300  177.3610  144.3100 C   0  0  0  0  0  0  0  0  0  0  0  0
  188.9140  177.5060  146.7010 C   0  0  0  0  0  0  0  0  0  0  0  0
  185.8440  178.2930  144.7430 C   0  0  0  0  0  3  0  0  0  0  0  0
  186.7090  178.1390  145.8260 C   0  0  0  0  0  3  0  0  0  0  0  0
  189.7360  176.8930  144.0790 C   0  0  0  0  0  0  0  0  0  0  0  0
  188.2390  178.0470  149.1520 N   0  0  0  0  0  0  0  0  0  0  0  0
  188.5390  177.8060  148.0600 C   0  0  0  0  0  0  0  0  0  0  0  0
  190.5570  176.3150  141.6830 N   0  0  0  0  0  0  0  0  0  0  0  0
  190.1920  176.5740  142.7500 C   0  0  0  0  0  0  0  0  0  0  0  0
  185.3630  178.1450  142.2940 C   0  0  2  0  0  3  0  0  0  0  0  0
  186.0900  178.4310  141.0170 C   0  0  0  0  0  0  0  0  0  0  0  0
  186.5070  178.8120  138.9830 N   0  0  0  0  0  0  0  0  0  0  0  0
  185.5020  178.6270  139.8220 N   0  0  0  0  0  0  0  0  0  0  0  0
  187.6560  178.7290  139.6340 N   0  0  0  0  0  0  0  0  0  0  0  0
  187.4290  178.4880  140.9150 N   0  0  0  0  0  2  0  0  0  0  0  0
  184.2400  179.1480  142.5680 C   0  0  0  0  0  2  0  0  0  0  0  0
  182.9360  178.4960  142.5960 N   0  0  0  0  0  0  0  0  0  0  0  0
  182.3900  178.6910  141.3720 O   0  0  0  0  0  1  0  0  0  0  0  0
  182.0950  179.1990  143.5650 C   0  0  2  0  0  3  0  0  0  0  0  0
  182.2340  178.6450  144.8280 F   0  0  0  0  0  0  0  0  0  0  0  0
  180.6280  179.1390  143.1520 C   0  0  0  0  0  2  0  0  0  0  0  0
  179.9830  177.9690  143.7290 N   0  0  0  0  0  1  0  0  0  0  0  0
  1  8  1  0  0  0  0
  2  1  2  0  0  0  0
  2  6  1  0  0  0  0
  3  5  1  0  0  0  0
  4  9  1  0  0  0  0
  4  7  1  0  0  0  0
  5  7  2  0  0  0  0
  6  4  2  0  0  0  0
  7 12  1  0  0  0  0
  8  9  2  0  0  0  0
 10  6  1  0  0  0  0
 10  3  2  0  0  0  0
 12 11  3  0  0  0  0
 13 14  3  0  0  0  0
 14 10  1  0  0  0  0
 15 21  1  1  0  0  0
 15  1  1  0  0  0  0
 16 15  1  0  0  0  0
 17 19  2  0  0  0  0
 17 18  1  0  0  0  0
 18 16  2  0  0  0  0
 19 20  1  0  0  0  0
 20 16  1  0  0  0  0
 21 22  1  0  0  0  0
 22 24  1  0  0  0  0
 23 22  1  0  0  0  0
 24 25  1  1  0  0  0
 26 24  1  0  0  0  0
 26 27  1  0  0  0  0
M  END
>  <MODEL>
9

>  <REMARK>
 VINA RESULT:      -7.7      1.884      3.330
  Name = 
  8 active torsions:
  status: ('A' for Active; 'I' for Inactive)
    1  A    between atoms: C_1  and  C_10
    2  A    between atoms: C_7  and  C_10
    3  A    between atoms: C_10  and  C_21
    4  A    between atoms: C_11  and  C_15
    5  A    between atoms: N_12  and  C_15
    6  A    between atoms: N_12  and  C_21
    7  A    between atoms: C_18  and  C_26
    8  A    between atoms: C_19  and  C_27
                            x       y       z     vdW  Elec       q    Type
                         _______ _______ _______ _____ _____    ______ ____

>  <TORSDO>
F 8

$$$$
