=
 OpenBabel10232408393D

 28 31  0  0  1  0  0  0  0  0999 V2000
  185.8760  178.6490  141.3640 C   0  0  0  0  0  2  0  0  0  0  0  0
  184.5380  178.5310  143.4750 C   0  0  0  0  0  0  0  0  0  0  0  0
  185.7400  178.1790  144.2460 C   0  0  0  0  0  3  0  0  0  0  0  0
  188.2980  177.4450  145.7720 C   0  0  0  0  0  0  0  0  0  0  0  0
  189.6970  177.1440  146.0250 C   0  0  0  0  0  0  0  0  0  0  0  0
  184.5990  178.7460  142.1580 C   0  0  0  0  0  3  0  0  0  0  0  0
  190.4660  177.2250  144.7310 C   0  0  0  0  0  2  0  0  0  0  0  0
  187.3830  177.4650  146.6370 O   0  0  0  0  0  0  0  0  0  0  0  0
  189.3710  177.5930  143.7680 C   0  0  0  0  0  0  0  0  0  0  0  0
  190.7580  177.6720  141.8550 O   0  0  0  0  0  1  0  0  0  0  0  0
  188.1060  177.7180  144.3960 N   0  0  0  0  0  0  0  0  0  0  0  0
  189.5070  177.7950  142.4530 C   0  0  0  0  0  0  0  0  0  0  0  0
  187.0850  178.2850  142.1970 C   0  0  0  0  0  0  0  0  0  0  0  0
  186.9310  178.0630  143.6570 C   0  0  0  0  0  0  0  0  0  0  0  0
  188.3130  178.1580  141.6320 C   0  0  0  0  0  0  0  0  0  0  0  0
  190.1710  176.8530  147.2020 N   0  0  0  0  0  0  0  0  0  0  0  0
  183.2890  178.6450  144.1450 N   0  0  0  0  0  1  0  0  0  0  0  0
  191.5290  176.5430  147.5500 C   0  0  0  0  0  0  0  0  0  0  0  0
  192.1370  177.2970  148.3520 O   0  0  0  0  0  0  0  0  0  0  0  0
  192.2550  175.3610  147.0000 C   0  0  0  0  0  1  0  0  0  0  0  0
  188.5020  178.3540  140.1580 C   0  0  0  0  0  2  0  0  0  0  0  0
  188.6110  176.9320  138.0170 C   0  0  2  0  0  3  0  0  0  0  0  0
  188.8610  177.0300  139.4900 C   0  0  1  0  0  3  0  0  0  0  0  0
  189.8810  177.2390  138.5430 O   0  0  0  0  0  0  0  0  0  0  0  0
  187.7810  178.1250  135.7090 O   0  0  0  0  0  0  0  0  0  0  0  0
  188.9400  179.7440  137.4000 O   0  0  0  0  0  1  0  0  0  0  0  0
  187.9190  178.4110  137.1870 P   0  0  0  0  0  0  0  0  0  0  0  0
  186.3940  178.7610  137.8300 O   0  0  0  0  0  1  0  0  0  0  0  0
  1  6  1  0  0  0  0
  1 13  1  0  0  0  0
  2 17  1  0  0  0  0
  2  3  1  0  0  0  0
  4  5  1  0  0  0  0
  4  8  2  0  0  0  0
  5 16  2  0  0  0  0
  6  2  2  0  0  0  0
  7  5  1  0  0  0  0
  9 11  1  0  0  0  0
  9  7  1  0  0  0  0
 10 12  1  0  0  0  0
 11  4  1  0  0  0  0
 12  9  2  0  0  0  0
 13 14  1  0  0  0  0
 14  3  2  0  0  0  0
 14 11  1  0  0  0  0
 15 13  2  0  0  0  0
 15 12  1  0  0  0  0
 16 18  1  0  0  0  0
 18 19  2  0  0  0  0
 20 18  1  0  0  0  0
 21 15  1  0  0  0  0
 22 27  1  6  0  0  0
 22 24  1  0  0  0  0
 22 23  1  0  0  0  0
 23 21  1  6  0  0  0
 24 23  1  0  0  0  0
 25 27  2  0  0  0  0
 27 26  1  0  0  0  0
 27 28  1  0  0  0  0
M  END
>  <MODEL>
1

>  <REMARK>
 VINA RESULT:      -9.6      0.000      0.000
  Name = 
  4 active torsions:
  status: ('A' for Active; 'I' for Inactive)
    1  A    between atoms: C_3  and  P_13
    2  A    between atoms: C_8  and  N_26
    3  A    between atoms: C_9  and  C_27
    4  A    between atoms: C_22  and  C_27
                            x       y       z     vdW  Elec       q    Type
                         _______ _______ _______ _____ _____    ______ ____

>  <TORSDO>
F 4

$$$$
=
 OpenBabel10232408393D

 28 31  0  0  1  0  0  0  0  0999 V2000
  185.7040  178.1740  142.1840 C   0  0  0  0  0  2  0  0  0  0  0  0
  184.6590  178.6510  144.4070 C   0  0  0  0  0  0  0  0  0  0  0  0
  185.9100  178.3020  145.0970 C   0  0  0  0  0  3  0  0  0  0  0  0
  188.5590  177.5540  146.4520 C   0  0  0  0  0  0  0  0  0  0  0  0
  189.9400  177.1260  146.6060 C   0  0  0  0  0  0  0  0  0  0  0  0
  184.5640  178.5920  143.0750 C   0  0  0  0  0  3  0  0  0  0  0  0
  190.5300  176.8500  145.2470 C   0  0  0  0  0  2  0  0  0  0  0  0
  187.7760  177.8630  147.3890 O   0  0  0  0  0  0  0  0  0  0  0  0
  189.3600  177.1620  144.3550 C   0  0  0  0  0  0  0  0  0  0  0  0
  190.4760  176.6800  142.3270 O   0  0  0  0  0  1  0  0  0  0  0  0
  188.2120  177.5730  145.0780 N   0  0  0  0  0  0  0  0  0  0  0  0
  189.3380  177.0820  143.0200 C   0  0  0  0  0  0  0  0  0  0  0  0
  186.9690  177.8250  142.9360 C   0  0  0  0  0  0  0  0  0  0  0  0
  186.9920  177.9170  144.4180 C   0  0  0  0  0  0  0  0  0  0  0  0
  188.0880  177.4290  142.2790 C   0  0  0  0  0  0  0  0  0  0  0  0
  190.5350  177.0130  147.7580 N   0  0  0  0  0  0  0  0  0  0  0  0
  183.5310  179.0570  145.1710 N   0  0  0  0  0  1  0  0  0  0  0  0
  191.8870  176.6020  148.0110 C   0  0  0  0  0  0  0  0  0  0  0  0
  192.5740  177.2530  148.8390 O   0  0  0  0  0  0  0  0  0  0  0  0
  192.5170  175.4320  147.3330 C   0  0  0  0  0  1  0  0  0  0  0  0
  188.0960  177.3050  140.7850 C   0  0  0  0  0  2  0  0  0  0  0  0
  189.2430  178.5280  138.8330 C   0  0  2  0  0  3  0  0  0  0  0  0
  188.5310  178.6220  140.1470 C   0  0  1  0  0  3  0  0  0  0  0  0
  187.8630  178.7970  138.9200 O   0  0  0  0  0  0  0  0  0  0  0  0
  188.1500  176.1930  137.9410 O   0  0  0  0  0  1  0  0  0  0  0  0
  190.4260  175.9070  139.1900 O   0  0  0  0  0  1  0  0  0  0  0  0
  189.4960  176.8520  138.1380 P   0  0  0  0  0  0  0  0  0  0  0  0
  190.2800  176.9690  136.6440 O   0  0  0  0  0  0  0  0  0  0  0  0
  1 13  1  0  0  0  0
  1  6  1  0  0  0  0
  2  3  1  0  0  0  0
  2 17  1  0  0  0  0
  4  5  1  0  0  0  0
  4  8  2  0  0  0  0
  5 16  2  0  0  0  0
  6  2  2  0  0  0  0
  7  5  1  0  0  0  0
  9 11  1  0  0  0  0
  9  7  1  0  0  0  0
 10 12  1  0  0  0  0
 11  4  1  0  0  0  0
 12  9  2  0  0  0  0
 13 14  1  0  0  0  0
 14 11  1  0  0  0  0
 14  3  2  0  0  0  0
 15 13  2  0  0  0  0
 15 12  1  0  0  0  0
 16 18  1  0  0  0  0
 18 19  2  0  0  0  0
 20 18  1  0  0  0  0
 21 15  1  0  0  0  0
 22 27  1  6  0  0  0
 22 24  1  0  0  0  0
 22 23  1  0  0  0  0
 23 21  1  6  0  0  0
 24 23  1  0  0  0  0
 25 27  1  0  0  0  0
 27 26  1  0  0  0  0
 28 27  2  0  0  0  0
M  END
>  <MODEL>
2

>  <REMARK>
 VINA RESULT:      -9.0      1.249      1.726
  Name = 
  4 active torsions:
  status: ('A' for Active; 'I' for Inactive)
    1  A    between atoms: C_3  and  P_13
    2  A    between atoms: C_8  and  N_26
    3  A    between atoms: C_9  and  C_27
    4  A    between atoms: C_22  and  C_27
                            x       y       z     vdW  Elec       q    Type
                         _______ _______ _______ _____ _____    ______ ____

>  <TORSDO>
F 4

$$$$
=
 OpenBabel10232408393D

 28 31  0  0  1  0  0  0  0  0999 V2000
  186.9280  177.8830  145.5550 C   0  0  0  0  0  3  0  0  0  0  0  0
  184.6440  178.7370  144.9940 C   0  0  0  0  0  0  0  0  0  0  0  0
  184.9660  178.7250  143.5590 C   0  0  0  0  0  3  0  0  0  0  0  0
  185.7240  178.6720  140.5870 C   0  0  0  0  0  0  0  0  0  0  0  0
  186.5180  178.4770  139.3850 C   0  0  0  0  0  0  0  0  0  0  0  0
  185.5410  178.3520  145.9070 C   0  0  0  0  0  3  0  0  0  0  0  0
  187.8830  177.9650  139.7660 C   0  0  0  0  0  2  0  0  0  0  0  0
  184.5380  179.0900  140.6250 O   0  0  0  0  0  0  0  0  0  0  0  0
  187.7590  177.8990  141.2630 C   0  0  0  0  0  0  0  0  0  0  0  0
  189.9460  177.0890  141.6450 O   0  0  0  0  0  1  0  0  0  0  0  0
  186.4860  178.3180  141.7280 N   0  0  0  0  0  0  0  0  0  0  0  0
  188.7040  177.5000  142.1200 C   0  0  0  0  0  0  0  0  0  0  0  0
  187.2150  177.8880  144.0700 C   0  0  0  0  0  0  0  0  0  0  0  0
  186.1620  178.3300  143.1200 C   0  0  1  0  0  3  0  0  0  0  0  0
  188.4200  177.4930  143.5870 C   0  0  0  0  0  0  0  0  0  0  0  0
  186.0780  178.7220  138.1840 N   0  0  0  0  0  0  0  0  0  0  0  0
  183.3560  179.1650  145.4170 N   0  0  0  0  0  1  0  0  0  0  0  0
  186.7820  178.5630  136.9420 C   0  0  0  0  0  0  0  0  0  0  0  0
  187.6240  179.4340  136.6060 O   0  0  0  0  0  0  0  0  0  0  0  0
  186.5600  177.4040  136.0290 C   0  0  0  0  0  1  0  0  0  0  0  0
  189.5130  177.0600  144.5170 C   0  0  0  0  0  2  0  0  0  0  0  0
  191.5820  177.9960  145.7260 C   0  0  2  0  0  3  0  0  0  0  0  0
  190.5740  178.1520  144.6310 C   0  0  1  0  0  3  0  0  0  0  0  0
  191.8480  177.6000  144.4010 O   0  0  0  0  0  0  0  0  0  0  0  0
  192.2910  176.7040  148.0220 O   0  0  0  0  0  1  0  0  0  0  0  0
  191.9630  175.1330  145.9610 O   0  0  0  0  0  0  0  0  0  0  0  0
  191.4370  176.5120  146.7900 P   0  0  0  0  0  0  0  0  0  0  0  0
  189.8250  176.3050  147.2600 O   0  0  0  0  0  1  0  0  0  0  0  0
  1  6  2  0  0  0  0
  2 17  1  0  0  0  0
  2  6  1  0  0  0  0
  3  2  2  0  0  0  0
  4  8  2  0  0  0  0
  4 11  1  0  0  0  0
  5  7  1  0  0  0  0
  5  4  1  0  0  0  0
  7  9  1  0  0  0  0
  9 11  1  0  0  0  0
  9 12  2  0  0  0  0
 10 12  1  0  0  0  0
 11 14  1  0  0  0  0
 12 15  1  0  0  0  0
 13  1  1  0  0  0  0
 14  3  1  1  0  0  0
 14 13  1  0  0  0  0
 15 13  2  0  0  0  0
 15 21  1  0  0  0  0
 16  5  2  0  0  0  0
 18 16  1  0  0  0  0
 19 18  2  0  0  0  0
 20 18  1  0  0  0  0
 22 27  1  1  0  0  0
 23 21  1  1  0  0  0
 23 22  1  0  0  0  0
 24 23  1  0  0  0  0
 24 22  1  0  0  0  0
 26 27  2  0  0  0  0
 27 28  1  0  0  0  0
 27 25  1  0  0  0  0
M  END
>  <MODEL>
3

>  <REMARK>
 VINA RESULT:      -8.4      2.934      7.203
  Name = 
  4 active torsions:
  status: ('A' for Active; 'I' for Inactive)
    1  A    between atoms: C_3  and  P_13
    2  A    between atoms: C_8  and  N_26
    3  A    between atoms: C_9  and  C_27
    4  A    between atoms: C_22  and  C_27
                            x       y       z     vdW  Elec       q    Type
                         _______ _______ _______ _____ _____    ______ ____

>  <TORSDO>
F 4

$$$$
=
 OpenBabel10232408393D

 28 31  0  0  1  0  0  0  0  0999 V2000
  189.2950  177.8010  142.8490 C   0  0  0  0  0  2  0  0  0  0  0  0
  188.5980  177.4640  145.2290 C   0  0  0  0  0  0  0  0  0  0  0  0
  187.2000  177.7670  144.8870 C   0  0  0  0  0  3  0  0  0  0  0  0
  184.3110  178.4170  144.0860 C   0  0  0  0  0  0  0  0  0  0  0  0
  183.1730  178.7720  143.2540 C   0  0  0  0  0  0  0  0  0  0  0  0
  189.5560  177.4790  144.2970 C   0  0  0  0  0  3  0  0  0  0  0  0
  183.6340  178.9660  141.8330 C   0  0  0  0  0  2  0  0  0  0  0  0
  184.2740  178.1850  145.3230 O   0  0  0  0  0  0  0  0  0  0  0  0
  185.1060  178.6870  141.9670 C   0  0  0  0  0  0  0  0  0  0  0  0
  185.6200  179.0320  139.6860 O   0  0  0  0  0  1  0  0  0  0  0  0
  185.4860  178.3670  143.2960 N   0  0  0  0  0  0  0  0  0  0  0  0
  186.0120  178.7200  140.9850 C   0  0  0  0  0  0  0  0  0  0  0  0
  187.8450  178.1070  142.5440 C   0  0  0  0  0  0  0  0  0  0  0  0
  186.8410  178.0680  143.6380 C   0  0  0  0  0  0  0  0  0  0  0  0
  187.4430  178.4160  141.2860 C   0  0  0  0  0  0  0  0  0  0  0  0
  181.9580  178.8940  143.7090 N   0  0  0  0  0  0  0  0  0  0  0  0
  188.9350  177.1500  146.5740 N   0  0  0  0  0  1  0  0  0  0  0  0
  180.7760  179.2390  142.9710 C   0  0  0  0  0  0  0  0  0  0  0  0
  180.3890  180.4350  142.9710 O   0  0  0  0  0  0  0  0  0  0  0  0
  179.9820  178.2380  142.2010 C   0  0  0  0  0  1  0  0  0  0  0  0
  188.4320  178.4850  140.1610 C   0  0  0  0  0  2  0  0  0  0  0  0
  189.0040  176.7380  138.3610 C   0  0  2  0  0  3  0  0  0  0  0  0
  188.9390  177.0870  139.8160 C   0  0  1  0  0  3  0  0  0  0  0  0
  190.1320  177.1850  139.0760 O   0  0  0  0  0  0  0  0  0  0  0  0
  189.1160  177.7380  135.8260 O   0  0  0  0  0  0  0  0  0  0  0  0
  188.9830  179.5580  137.6950 O   0  0  0  0  0  1  0  0  0  0  0  0
  188.4850  178.0280  137.1680 P   0  0  0  0  0  0  0  0  0  0  0  0
  186.8020  178.0070  137.0070 O   0  0  0  0  0  1  0  0  0  0  0  0
  1  6  1  0  0  0  0
  2 17  1  0  0  0  0
  3  2  1  0  0  0  0
  4  8  2  0  0  0  0
  5 16  2  0  0  0  0
  5  4  1  0  0  0  0
  6  2  2  0  0  0  0
  7  9  1  0  0  0  0
  7  5  1  0  0  0  0
  9 11  1  0  0  0  0
 10 12  1  0  0  0  0
 11 14  1  0  0  0  0
 11  4  1  0  0  0  0
 12 15  1  0  0  0  0
 12  9  2  0  0  0  0
 13  1  1  0  0  0  0
 13 14  1  0  0  0  0
 14  3  2  0  0  0  0
 15 13  2  0  0  0  0
 18 19  2  0  0  0  0
 18 16  1  0  0  0  0
 20 18  1  0  0  0  0
 21 15  1  0  0  0  0
 22 27  1  6  0  0  0
 22 24  1  0  0  0  0
 22 23  1  0  0  0  0
 23 21  1  6  0  0  0
 24 23  1  0  0  0  0
 25 27  2  0  0  0  0
 27 26  1  0  0  0  0
 28 27  1  0  0  0  0
M  END
>  <MODEL>
4

>  <REMARK>
 VINA RESULT:      -8.2      2.304      5.743
  Name = 
  4 active torsions:
  status: ('A' for Active; 'I' for Inactive)
    1  A    between atoms: C_3  and  P_13
    2  A    between atoms: C_8  and  N_26
    3  A    between atoms: C_9  and  C_27
    4  A    between atoms: C_22  and  C_27
                            x       y       z     vdW  Elec       q    Type
                         _______ _______ _______ _____ _____    ______ ____

>  <TORSDO>
F 4

$$$$
=
 OpenBabel10232408393D

 28 31  0  0  1  0  0  0  0  0999 V2000
  186.3380  178.3930  141.1890 C   0  0  0  0  0  2  0  0  0  0  0  0
  188.5660  178.2800  140.0570 C   0  0  0  0  0  0  0  0  0  0  0  0
  189.2240  177.9590  141.3320 C   0  0  0  0  0  3  0  0  0  0  0  0
  190.5140  177.3000  144.0360 C   0  0  0  0  0  0  0  0  0  0  0  0
  190.6380  177.0320  145.4600 C   0  0  0  0  0  0  0  0  0  0  0  0
  187.2460  178.4780  139.9900 C   0  0  0  0  0  3  0  0  0  0  0  0
  189.2770  177.1100  146.1020 C   0  0  0  0  0  2  0  0  0  0  0  0
  191.4600  177.3130  143.2060 O   0  0  0  0  0  0  0  0  0  0  0  0
  188.4160  177.4410  144.9140 C   0  0  0  0  0  0  0  0  0  0  0  0
  186.3800  177.5120  146.1130 O   0  0  0  0  0  1  0  0  0  0  0  0
  189.1580  177.5490  143.7110 N   0  0  0  0  0  0  0  0  0  0  0  0
  187.0920  177.6260  144.9220 C   0  0  0  0  0  0  0  0  0  0  0  0
  187.0570  178.0630  142.4770 C   0  0  0  0  0  0  0  0  0  0  0  0
  188.5270  177.8560  142.4650 C   0  0  0  0  0  0  0  0  0  0  0  0
  186.3810  177.9500  143.6490 C   0  0  0  0  0  0  0  0  0  0  0  0
  191.7700  176.7690  146.0480 N   0  0  0  0  0  0  0  0  0  0  0  0
  189.3490  178.3790  138.8740 N   0  0  0  0  0  1  0  0  0  0  0  0
  191.9920  176.4920  147.4390 C   0  0  0  0  0  0  0  0  0  0  0  0
  191.8670  177.4270  148.2710 O   0  0  0  0  0  0  0  0  0  0  0  0
  192.3650  175.1400  147.9460 C   0  0  0  0  0  1  0  0  0  0  0  0
  184.9000  178.1720  143.7030 C   0  0  0  0  0  2  0  0  0  0  0  0
  183.2070  180.0290  144.2570 C   0  0  2  0  0  3  0  0  0  0  0  0
  184.5870  179.4750  144.4350 C   0  0  1  0  0  3  0  0  0  0  0  0
  183.5650  179.2540  145.3780 O   0  0  0  0  0  0  0  0  0  0  0  0
  181.5450  177.8860  143.9730 O   0  0  0  0  0  1  0  0  0  0  0  0
  182.8420  178.5350  141.8020 O   0  0  0  0  0  0  0  0  0  0  0  0
  182.0540  179.0780  143.1980 P   0  0  0  0  0  0  0  0  0  0  0  0
  180.7460  180.0570  142.7610 O   0  0  0  0  0  1  0  0  0  0  0  0
  1 13  1  0  0  0  0
  2  3  1  0  0  0  0
  3 14  2  0  0  0  0
  4  5  1  0  0  0  0
  5 16  2  0  0  0  0
  5  7  1  0  0  0  0
  6  2  2  0  0  0  0
  6  1  1  0  0  0  0
  8  4  2  0  0  0  0
  9 12  2  0  0  0  0
  9  7  1  0  0  0  0
 11  4  1  0  0  0  0
 11  9  1  0  0  0  0
 12 10  1  0  0  0  0
 13 15  2  0  0  0  0
 14 13  1  0  0  0  0
 14 11  1  0  0  0  0
 15 21  1  0  0  0  0
 15 12  1  0  0  0  0
 16 18  1  0  0  0  0
 17  2  1  0  0  0  0
 18 20  1  0  0  0  0
 18 19  2  0  0  0  0
 22 27  1  6  0  0  0
 22 23  1  0  0  0  0
 22 24  1  0  0  0  0
 23 21  1  6  0  0  0
 23 24  1  0  0  0  0
 26 27  2  0  0  0  0
 27 25  1  0  0  0  0
 28 27  1  0  0  0  0
M  END
>  <MODEL>
5

>  <REMARK>
 VINA RESULT:      -8.1      3.246      5.255
  Name = 
  4 active torsions:
  status: ('A' for Active; 'I' for Inactive)
    1  A    between atoms: C_3  and  P_13
    2  A    between atoms: C_8  and  N_26
    3  A    between atoms: C_9  and  C_27
    4  A    between atoms: C_22  and  C_27
                            x       y       z     vdW  Elec       q    Type
                         _______ _______ _______ _____ _____    ______ ____

>  <TORSDO>
F 4

$$$$
=
 OpenBabel10232408393D

 28 31  0  0  1  0  0  0  0  0999 V2000
  183.4230  179.0380  143.7290 C   0  0  0  0  0  3  0  0  0  0  0  0
  184.8570  178.5350  145.7160 C   0  0  0  0  0  0  0  0  0  0  0  0
  186.0200  178.2980  144.8470 C   0  0  0  0  0  3  0  0  0  0  0  0
  188.3890  177.8190  142.9590 C   0  0  0  0  0  0  0  0  0  0  0  0
  189.1500  177.7070  141.7250 C   0  0  0  0  0  0  0  0  0  0  0  0
  183.6690  178.8730  145.2060 C   0  0  0  0  0  3  0  0  0  0  0  0
  188.2510  178.0160  140.5550 C   0  0  0  0  0  2  0  0  0  0  0  0
  188.8380  177.6250  144.1190 O   0  0  0  0  0  0  0  0  0  0  0  0
  186.9520  178.3020  141.2570 C   0  0  0  0  0  0  0  0  0  0  0  0
  185.7180  178.7560  139.2930 O   0  0  0  0  0  1  0  0  0  0  0  0
  187.0510  178.1810  142.6670 N   0  0  0  0  0  0  0  0  0  0  0  0
  185.7950  178.6390  140.6780 C   0  0  0  0  0  0  0  0  0  0  0  0
  184.6440  178.7840  142.8740 C   0  0  0  0  0  0  0  0  0  0  0  0
  185.9280  178.4120  143.5210 C   0  0  1  0  0  3  0  0  0  0  0  0
  184.5890  178.8910  141.5230 C   0  0  0  0  0  0  0  0  0  0  0  0
  190.4110  177.3860  141.6820 N   0  0  0  0  0  0  0  0  0  0  0  0
  185.0000  178.4010  147.1250 N   0  0  0  0  0  1  0  0  0  0  0  0
  191.2430  177.2510  140.5200 C   0  0  0  0  0  0  0  0  0  0  0  0
  192.3630  177.8240  140.5060 O   0  0  0  0  0  0  0  0  0  0  0  0
  190.8390  176.4590  139.3220 C   0  0  0  0  0  1  0  0  0  0  0  0
  183.3050  179.2440  140.8340 C   0  0  0  0  0  2  0  0  0  0  0  0
  181.3700  178.1480  139.5400 C   0  0  2  0  0  3  0  0  0  0  0  0
  182.5420  177.9770  140.4560 C   0  0  1  0  0  3  0  0  0  0  0  0
  182.6400  177.7620  139.0680 O   0  0  0  0  0  0  0  0  0  0  0  0
  179.9820  179.7800  137.8520 O   0  0  0  0  0  0  0  0  0  0  0  0
  182.3980  180.6050  138.4010 O   0  0  0  0  0  1  0  0  0  0  0  0
  180.9960  179.8480  138.9710 P   0  0  0  0  0  0  0  0  0  0  0  0
  180.3500  180.7470  140.2510 O   0  0  0  0  0  1  0  0  0  0  0  0
  1  6  2  0  0  0  0
  2 17  1  0  0  0  0
  3  2  2  0  0  0  0
  4  8  2  0  0  0  0
  5  4  1  0  0  0  0
  6  2  1  0  0  0  0
  7  9  1  0  0  0  0
  7  5  1  0  0  0  0
  9 11  1  0  0  0  0
 10 12  1  0  0  0  0
 11  4  1  0  0  0  0
 11 14  1  0  0  0  0
 12  9  2  0  0  0  0
 12 15  1  0  0  0  0
 13 14  1  0  0  0  0
 13  1  1  0  0  0  0
 14  3  1  6  0  0  0
 15 13  2  0  0  0  0
 16  5  2  0  0  0  0
 18 16  1  0  0  0  0
 19 18  2  0  0  0  0
 20 18  1  0  0  0  0
 21 15  1  0  0  0  0
 22 27  1  6  0  0  0
 22 23  1  0  0  0  0
 23 21  1  6  0  0  0
 24 22  1  0  0  0  0
 24 23  1  0  0  0  0
 25 27  2  0  0  0  0
 26 27  1  0  0  0  0
 27 28  1  0  0  0  0
M  END
>  <MODEL>
6

>  <REMARK>
 VINA RESULT:      -7.8      3.265      5.293
  Name = 
  4 active torsions:
  status: ('A' for Active; 'I' for Inactive)
    1  A    between atoms: C_3  and  P_13
    2  A    between atoms: C_8  and  N_26
    3  A    between atoms: C_9  and  C_27
    4  A    between atoms: C_22  and  C_27
                            x       y       z     vdW  Elec       q    Type
                         _______ _______ _______ _____ _____    ______ ____

>  <TORSDO>
F 4

$$$$
=
 OpenBabel10232408393D

 28 31  0  0  1  0  0  0  0  0999 V2000
  188.9260  177.3410  144.6410 C   0  0  0  0  0  2  0  0  0  0  0  0
  187.9160  177.6770  146.9050 C   0  0  0  0  0  0  0  0  0  0  0  0
  186.6150  178.0070  146.3030 C   0  0  0  0  0  3  0  0  0  0  0  0
  183.9420  178.6860  144.9600 C   0  0  0  0  0  0  0  0  0  0  0  0
  182.9620  178.9200  143.9120 C   0  0  0  0  0  0  0  0  0  0  0  0
  188.9730  177.3720  146.1460 C   0  0  0  0  0  3  0  0  0  0  0  0
  183.6100  178.7090  142.5680 C   0  0  0  0  0  2  0  0  0  0  0  0
  183.7310  178.7780  146.1980 O   0  0  0  0  0  0  0  0  0  0  0  0
  185.0100  178.3440  142.9760 C   0  0  0  0  0  0  0  0  0  0  0  0
  185.8290  178.0570  140.7780 O   0  0  0  0  0  1  0  0  0  0  0  0
  185.1880  178.3360  144.3830 N   0  0  0  0  0  0  0  0  0  0  0  0
  186.0240  178.0480  142.1560 C   0  0  0  0  0  0  0  0  0  0  0  0
  187.5710  177.6870  144.0650 C   0  0  0  0  0  0  0  0  0  0  0  0
  186.4470  178.0130  144.9800 C   0  0  0  0  0  0  0  0  0  0  0  0
  187.3610  177.7040  142.7250 C   0  0  0  0  0  0  0  0  0  0  0  0
  181.7260  179.2590  144.1440 N   0  0  0  0  0  0  0  0  0  0  0  0
  188.0500  177.6820  148.3210 N   0  0  0  0  0  1  0  0  0  0  0  0
  180.6900  179.5100  143.1820 C   0  0  0  0  0  0  0  0  0  0  0  0
  180.3250  180.6970  142.9800 O   0  0  0  0  0  0  0  0  0  0  0  0
  180.0240  178.4230  142.4070 C   0  0  0  0  0  1  0  0  0  0  0  0
  188.4780  177.4010  141.7720 C   0  0  0  0  0  2  0  0  0  0  0  0
  189.6160  178.3340  139.6610 C   0  0  2  0  0  3  0  0  0  0  0  0
  188.4430  178.3670  140.5910 C   0  0  1  0  0  3  0  0  0  0  0  0
  188.4210  177.6410  139.3850 O   0  0  0  0  0  0  0  0  0  0  0  0
  190.3220  175.7970  140.3720 O   0  0  0  0  0  1  0  0  0  0  0  0
  191.8660  177.6590  141.3580 O   0  0  0  0  0  1  0  0  0  0  0  0
  190.9460  177.1320  140.0380 P   0  0  0  0  0  0  0  0  0  0  0  0
  191.9490  176.9540  138.6880 O   0  0  0  0  0  0  0  0  0  0  0  0
  1  6  1  0  0  0  0
  2 17  1  0  0  0  0
  3  2  1  0  0  0  0
  4  8  2  0  0  0  0
  5 16  2  0  0  0  0
  5  4  1  0  0  0  0
  6  2  2  0  0  0  0
  7  9  1  0  0  0  0
  7  5  1  0  0  0  0
  9 11  1  0  0  0  0
 10 12  1  0  0  0  0
 11  4  1  0  0  0  0
 11 14  1  0  0  0  0
 12 15  1  0  0  0  0
 12  9  2  0  0  0  0
 13  1  1  0  0  0  0
 13 14  1  0  0  0  0
 14  3  2  0  0  0  0
 15 13  2  0  0  0  0
 18 16  1  0  0  0  0
 19 18  2  0  0  0  0
 20 18  1  0  0  0  0
 21 15  1  0  0  0  0
 22 27  1  1  0  0  0
 22 23  1  0  0  0  0
 23 21  1  1  0  0  0
 24 22  1  0  0  0  0
 24 23  1  0  0  0  0
 27 25  1  0  0  0  0
 27 26  1  0  0  0  0
 28 27  2  0  0  0  0
M  END
>  <MODEL>
7

>  <REMARK>
 VINA RESULT:      -7.8      2.636      6.183
  Name = 
  4 active torsions:
  status: ('A' for Active; 'I' for Inactive)
    1  A    between atoms: C_3  and  P_13
    2  A    between atoms: C_8  and  N_26
    3  A    between atoms: C_9  and  C_27
    4  A    between atoms: C_22  and  C_27
                            x       y       z     vdW  Elec       q    Type
                         _______ _______ _______ _____ _____    ______ ____

>  <TORSDO>
F 4

$$$$
=
 OpenBabel10232408393D

 28 31  0  0  1  0  0  0  0  0999 V2000
  186.6130  178.1700  143.3340 C   0  0  0  0  0  3  0  0  0  0  0  0
  185.7380  178.9300  141.1170 C   0  0  0  0  0  0  0  0  0  0  0  0
  186.9580  178.4560  140.4460 C   0  0  0  0  0  3  0  0  0  0  0  0
  189.5370  177.4420  139.1320 C   0  0  0  0  0  0  0  0  0  0  0  0
  190.8540  176.8410  138.9940 C   0  0  0  0  0  0  0  0  0  0  0  0
  185.5790  178.8000  142.4370 C   0  0  0  0  0  3  0  0  0  0  0  0
  191.3440  176.3980  140.3490 C   0  0  0  0  0  2  0  0  0  0  0  0
  188.8440  177.9160  138.1930 O   0  0  0  0  0  0  0  0  0  0  0  0
  190.1880  176.8080  141.2210 C   0  0  0  0  0  0  0  0  0  0  0  0
  191.1370  176.0380  143.2450 O   0  0  0  0  0  1  0  0  0  0  0  0
  189.1380  177.4190  140.4900 N   0  0  0  0  0  0  0  0  0  0  0  0
  190.0970  176.6430  142.5450 C   0  0  0  0  0  0  0  0  0  0  0  0
  187.8490  177.6980  142.6020 C   0  0  0  0  0  0  0  0  0  0  0  0
  187.9460  177.8800  141.1320 C   0  0  1  0  0  3  0  0  0  0  0  0
  188.8750  177.1080  143.2670 C   0  0  0  0  0  0  0  0  0  0  0  0
  191.4780  176.7240  137.8570 N   0  0  0  0  0  0  0  0  0  0  0  0
  184.7090  179.5380  140.3460 N   0  0  0  0  0  1  0  0  0  0  0  0
  192.7730  176.1490  137.6220 C   0  0  0  0  0  0  0  0  0  0  0  0
  193.7680  176.9130  137.5310 O   0  0  0  0  0  0  0  0  0  0  0  0
  192.9920  174.6810  137.4800 C   0  0  0  0  0  1  0  0  0  0  0  0
  188.8200  176.9260  144.7540 C   0  0  0  0  0  2  0  0  0  0  0  0
  189.7460  178.0580  146.8710 C   0  0  2  0  0  3  0  0  0  0  0  0
  189.9390  177.7190  145.4250 C   0  0  1  0  0  3  0  0  0  0  0  0
  190.5120  176.9500  146.4560 O   0  0  0  0  0  0  0  0  0  0  0  0
  188.0840  178.1110  149.0320 O   0  0  0  0  0  1  0  0  0  0  0  0
  188.2320  175.7890  147.8460 O   0  0  0  0  0  1  0  0  0  0  0  0
  188.2050  177.4720  147.6680 P   0  0  0  0  0  0  0  0  0  0  0  0
  186.8730  177.9180  146.7260 O   0  0  0  0  0  0  0  0  0  0  0  0
  2  6  1  0  0  0  0
  3  2  2  0  0  0  0
  4 11  1  0  0  0  0
  5  4  1  0  0  0  0
  5  7  1  0  0  0  0
  6  1  2  0  0  0  0
  7  9  1  0  0  0  0
  8  4  2  0  0  0  0
  9 12  2  0  0  0  0
 11 14  1  0  0  0  0
 11  9  1  0  0  0  0
 12 10  1  0  0  0  0
 12 15  1  0  0  0  0
 13 15  2  0  0  0  0
 13  1  1  0  0  0  0
 14  3  1  1  0  0  0
 14 13  1  0  0  0  0
 15 21  1  0  0  0  0
 16  5  2  0  0  0  0
 17  2  1  0  0  0  0
 18 16  1  0  0  0  0
 19 18  2  0  0  0  0
 20 18  1  0  0  0  0
 22 27  1  1  0  0  0
 23 21  1  1  0  0  0
 23 24  1  0  0  0  0
 23 22  1  0  0  0  0
 24 22  1  0  0  0  0
 27 26  1  0  0  0  0
 27 25  1  0  0  0  0
 28 27  2  0  0  0  0
M  END
>  <MODEL>
8

>  <REMARK>
 VINA RESULT:      -7.7      3.327      7.018
  Name = 
  4 active torsions:
  status: ('A' for Active; 'I' for Inactive)
    1  A    between atoms: C_3  and  P_13
    2  A    between atoms: C_8  and  N_26
    3  A    between atoms: C_9  and  C_27
    4  A    between atoms: C_22  and  C_27
                            x       y       z     vdW  Elec       q    Type
                         _______ _______ _______ _____ _____    ______ ____

>  <TORSDO>
F 4

$$$$
=
 OpenBabel10232408393D

 28 31  0  0  1  0  0  0  0  0999 V2000
  187.4390  178.0310  144.8170 C   0  0  0  0  0  3  0  0  0  0  0  0
  185.2130  178.3600  145.9100 C   0  0  0  0  0  0  0  0  0  0  0  0
  184.5770  178.5810  144.6030 C   0  0  0  0  0  3  0  0  0  0  0  0
  183.3350  179.0350  141.8350 C   0  0  0  0  0  0  0  0  0  0  0  0
  183.2320  179.1700  140.3910 C   0  0  0  0  0  0  0  0  0  0  0  0
  186.5210  178.1080  146.0090 C   0  0  0  0  0  3  0  0  0  0  0  0
  184.5920  178.9660  139.7730 C   0  0  0  0  0  2  0  0  0  0  0  0
  182.3850  179.1470  142.6530 O   0  0  0  0  0  0  0  0  0  0  0  0
  185.4290  178.7110  140.9960 C   0  0  0  0  0  0  0  0  0  0  0  0
  187.4640  178.4190  139.8300 O   0  0  0  0  0  1  0  0  0  0  0  0
  184.6760  178.7560  142.1970 N   0  0  0  0  0  0  0  0  0  0  0  0
  186.7430  178.4630  141.0190 C   0  0  0  0  0  0  0  0  0  0  0  0
  186.7430  178.2650  143.4950 C   0  0  0  0  0  0  0  0  0  0  0  0
  185.2840  178.5380  143.4730 C   0  0  1  0  0  3  0  0  0  0  0  0
  187.4290  178.2290  142.3250 C   0  0  0  0  0  0  0  0  0  0  0  0
  182.1180  179.4290  139.7690 N   0  0  0  0  0  0  0  0  0  0  0  0
  184.4200  178.4140  147.0900 N   0  0  0  0  0  1  0  0  0  0  0  0
  181.9170  179.5800  138.3550 C   0  0  0  0  0  0  0  0  0  0  0  0
  181.8230  180.7400  137.8770 O   0  0  0  0  0  0  0  0  0  0  0  0
  181.8150  178.4200  137.4240 C   0  0  0  0  0  1  0  0  0  0  0  0
  188.9070  177.9770  142.3110 C   0  0  0  0  0  2  0  0  0  0  0  0
  190.2520  175.8160  142.6880 C   0  0  2  0  0  3  0  0  0  0  0  0
  189.1930  176.5330  141.9080 C   0  0  1  0  0  3  0  0  0  0  0  0
  188.8810  175.6720  142.9770 O   0  0  0  0  0  0  0  0  0  0  0  0
  191.9950  175.8140  144.7850 O   0  0  0  0  0  1  0  0  0  0  0  0
  189.9160  177.3600  145.1160 O   0  0  0  0  0  1  0  0  0  0  0  0
  191.0680  176.7450  144.0390 P   0  0  0  0  0  0  0  0  0  0  0  0
  191.9680  178.0200  143.3880 O   0  0  0  0  0  0  0  0  0  0  0  0
  1  6  2  0  0  0  0
  2  6  1  0  0  0  0
  2 17  1  0  0  0  0
  3  2  2  0  0  0  0
  4 11  1  0  0  0  0
  4  8  2  0  0  0  0
  5  4  1  0  0  0  0
  7  5  1  0  0  0  0
  7  9  1  0  0  0  0
  9 12  2  0  0  0  0
  9 11  1  0  0  0  0
 10 12  1  0  0  0  0
 11 14  1  0  0  0  0
 12 15  1  0  0  0  0
 13  1  1  0  0  0  0
 14 13  1  0  0  0  0
 14  3  1  1  0  0  0
 15 13  2  0  0  0  0
 16  5  2  0  0  0  0
 18 16  1  0  0  0  0
 19 18  2  0  0  0  0
 20 18  1  0  0  0  0
 21 15  1  0  0  0  0
 22 24  1  0  0  0  0
 22 27  1  1  0  0  0
 23 21  1  1  0  0  0
 23 22  1  0  0  0  0
 23 24  1  0  0  0  0
 27 25  1  0  0  0  0
 27 26  1  0  0  0  0
 28 27  2  0  0  0  0
M  END
>  <MODEL>
9

>  <REMARK>
 VINA RESULT:      -7.5      3.185      7.212
  Name = 
  4 active torsions:
  status: ('A' for Active; 'I' for Inactive)
    1  A    between atoms: C_3  and  P_13
    2  A    between atoms: C_8  and  N_26
    3  A    between atoms: C_9  and  C_27
    4  A    between atoms: C_22  and  C_27
                            x       y       z     vdW  Elec       q    Type
                         _______ _______ _______ _____ _____    ______ ____

>  <TORSDO>
F 4

$$$$
