=
 OpenBabel10232409113D

 59 63  0  0  1  0  0  0  0  0999 V2000
  183.4240  176.9710  137.3570 N   0  0  0  0  0  2  0  0  0  0  0  0
  181.3560  177.8980  136.6420 N   0  0  0  0  0  0  0  0  0  0  0  0
  182.0900  181.4820  138.5960 N   0  0  0  0  0  1  0  0  0  0  0  0
  182.4360  178.9730  138.5410 C   0  0  2  0  0  3  0  0  0  0  0  0
  180.2300  178.8220  136.7840 C   0  0  0  0  0  2  0  0  0  0  0  0
  181.6860  180.2070  138.1130 C   0  0  0  0  0  0  0  0  0  0  0  0
  182.3730  177.9370  137.4540 C   0  0  0  0  0  0  0  0  0  0  0  0
  180.6910  180.1180  137.2820 N   0  0  0  0  0  0  0  0  0  0  0  0
  181.8470  178.4260  139.7550 N   0  0  0  0  0  2  0  0  0  0  0  0
  183.6640  178.8280  143.5640 C   0  0  0  0  0  0  0  0  0  0  0  0
  181.6650  178.8490  142.1810 C   0  0  0  0  0  3  0  0  0  0  0  0
  183.8170  178.3790  141.1810 C   0  0  0  0  0  3  0  0  0  0  0  0
  182.2770  178.9890  143.4320 C   0  0  0  0  0  3  0  0  0  0  0  0
  182.4370  178.5430  141.0500 C   0  0  0  0  0  0  0  0  0  0  0  0
  184.4280  178.5200  142.4300 C   0  0  0  0  0  3  0  0  0  0  0  0
  183.6360  178.9720  145.9310 O   0  0  0  0  0  0  0  0  0  0  0  0
  184.3230  178.9930  144.8740 C   0  0  0  0  0  0  0  0  0  0  0  0
  185.8000  179.2210  144.9820 C   0  0  0  0  0  2  0  0  0  0  0  0
  186.0720  177.9020  146.9400 O   0  0  0  0  0  0  0  0  0  0  0  0
  186.4770  178.1730  145.8170 C   0  0  0  0  0  0  0  0  0  0  0  0
  191.4500  177.3230  142.3290 C   0  0  0  0  0  2  0  0  0  0  0  0
  189.6080  177.9550  143.7480 C   0  0  2  0  0  3  0  0  0  0  0  0
  187.4370  177.4130  142.8370 O   0  0  0  0  0  1  0  0  0  0  0  0
  189.9580  176.4380  145.7200 C   0  0  2  0  0  3  0  0  0  0  0  0
  187.6080  177.3940  145.2230 C   0  0  1  0  0  3  0  0  0  0  0  0
  191.4740  176.4620  143.5900 C   0  0  0  0  0  2  0  0  0  0  0  0
  190.0910  176.6030  144.1920 C   0  0  2  0  0  3  0  0  0  0  0  0
  188.0820  178.0430  143.9040 C   0  0  1  0  0  3  0  0  0  0  0  0
  188.7320  177.2100  146.2620 C   0  0  0  0  0  2  0  0  0  0  0  0
  190.1410  178.1060  142.3390 C   0  0  0  0  0  2  0  0  0  0  0  0
  191.5180  175.9970  147.5510 C   0  0  1  0  0  0  0  0  0  0  0  0
  190.7790  177.2160  147.8120 C   0  0  0  0  0  2  0  0  0  0  0  0
  191.1680  176.8870  146.4170 N   0  0  2  0  0  0  0  0  0  0  0  0
  192.9960  175.9770  147.8820 C   0  0  0  0  0  1  0  0  0  0  0  0
  190.7870  174.8080  147.6380 O   0  0  0  0  0  1  0  0  0  0  0  0
  183.3560  175.7960  136.4980 C   0  0  2  0  0  3  0  0  0  0  0  0
  182.8780  174.6510  137.2630 N   0  0  0  0  0  2  0  0  0  0  0  0
  181.8610  173.9760  136.4730 C   0  0  0  0  0  2  0  0  0  0  0  0
  180.8020  172.5860  138.0620 F   0  0  0  0  0  0  0  0  0  0  0  0
  181.6660  172.5660  136.9830 C   0  0  0  0  0  3  0  0  0  0  0  0
  182.8800  172.0360  137.3770 F   0  0  0  0  0  0  0  0  0  0  0  0
  184.7330  175.5060  135.9010 C   0  0  0  0  0  2  0  0  0  0  0  0
  185.8330  174.6890  137.1020 S   0  0  0  0  0  0  0  0  0  0  0  0
  187.0870  174.3690  135.8330 C   0  0  0  0  0  2  0  0  0  0  0  0
  188.0270  175.5540  135.7450 C   0  0  0  0  0  2  0  0  0  0  0  0
  188.4600  175.9820  137.1370 C   0  0  0  0  0  2  0  0  0  0  0  0
  189.8130  176.7020  137.0940 C   0  0  1  0  0  3  0  0  0  0  0  0
  188.6890  178.3820  138.2080 C   0  0  0  0  0  1  0  0  0  0  0  0
  189.7240  178.1000  137.3010 O   0  0  0  0  0  0  0  0  0  0  0  0
  190.9090  175.9960  137.9200 C   0  0  2  0  0  3  0  0  0  0  0  0
  190.5360  175.8190  139.2540 O   0  0  0  0  0  1  0  0  0  0  0  0
  192.9150  176.6970  139.0690 O   0  0  0  0  0  1  0  0  0  0  0  0
  192.3000  176.6290  137.8150 C   0  0  1  0  0  3  0  0  0  0  0  0
  193.1960  175.9640  136.8090 C   0  0  0  0  0  3  0  0  0  0  0  0
  194.4740  176.0090  136.9260 N   0  0  0  0  0  0  0  0  0  0  0  0
  194.6270  174.3960  134.8160 O   0  0  0  0  0  0  0  0  0  0  0  0
  196.3580  176.3560  134.8900 O   0  0  0  0  0  1  0  0  0  0  0  0
  196.5580  174.1750  136.5700 O   0  0  0  0  0  1  0  0  0  0  0  0
  195.4830  175.2030  135.7640 P   0  0  0  0  0  0  0  0  0  0  0  0
  1  7  1  0  0  0  0
  2  5  1  0  0  0  0
  2  7  2  0  0  0  0
  4  9  1  1  0  0  0
  5  8  1  0  0  0  0
  6  4  1  0  0  0  0
  6  3  1  0  0  0  0
  7  4  1  0  0  0  0
  8  6  2  0  0  0  0
  9 14  1  0  0  0  0
 10 17  1  0  0  0  0
 11 13  2  0  0  0  0
 12 15  1  0  0  0  0
 13 10  1  0  0  0  0
 14 12  2  0  0  0  0
 14 11  1  0  0  0  0
 15 10  2  0  0  0  0
 17 18  1  0  0  0  0
 17 16  2  0  0  0  0
 18 20  1  0  0  0  0
 20 19  2  0  0  0  0
 21 30  1  0  0  0  0
 21 26  1  0  0  0  0
 22 30  1  6  0  0  0
 22 28  1  0  0  0  0
 22 27  1  0  0  0  0
 24 29  1  1  0  0  0
 24 33  1  0  0  0  0
 25 20  1  1  0  0  0
 25 29  1  0  0  0  0
 27 26  1  1  0  0  0
 27 24  1  0  0  0  0
 28 23  1  6  0  0  0
 28 25  1  0  0  0  0
 31 35  1  0  0  0  0
 31 32  1  0  0  0  0
 31 34  1  1  0  0  0
 33 31  1  0  0  0  0
 33 32  1  1  0  0  0
 36 42  1  1  0  0  0
 36 37  1  0  0  0  0
 36  1  1  0  0  0  0
 38 40  1  0  0  0  0
 38 37  1  0  0  0  0
 40 41  1  0  0  0  0
 40 39  1  0  0  0  0
 42 43  1  0  0  0  0
 44 43  1  0  0  0  0
 45 44  1  0  0  0  0
 45 46  1  0  0  0  0
 47 46  1  1  0  0  0
 47 49  1  0  0  0  0
 47 50  1  0  0  0  0
 49 48  1  0  0  0  0
 50 51  1  1  0  0  0
 53 50  1  0  0  0  0
 53 52  1  1  0  0  0
 54 55  2  0  0  0  0
 54 53  1  0  0  0  0
 56 59  2  0  0  0  0
 57 59  1  0  0  0  0
 59 58  1  0  0  0  0
 59 55  1  0  0  0  0
M  END
>  <MODEL>
1

>  <REMARK>
 VINA RESULT:      -7.2      0.000      0.000
  Name = 
  22 active torsions:
  status: ('A' for Active; 'I' for Inactive)
    1  A    between atoms: C_1  and  C_34
    2  A    between atoms: C_3  and  C_33
    3  A    between atoms: C_3  and  C_41
    4  A    between atoms: C_3  and  O_54
    5  A    between atoms: C_4  and  C_8
    6  A    between atoms: C_4  and  N_47
    7  A    between atoms: N_9  and  C_16
    8  A    between atoms: C_12  and  C_16
    9  A    between atoms: C_12  and  S_59
   10  A    between atoms: C_14  and  C_33
   11  A    between atoms: C_14  and  C_49
   12  A    between atoms: C_16  and  N_47
   13  A    between atoms: N_19  and  C_35
   14  A    between atoms: N_19  and  C_48
   15  A    between atoms: C_23  and  N_26
   16  A    between atoms: C_27  and  C_29
   17  A    between atoms: C_29  and  C_56
   18  A    between atoms: C_31  and  C_40
   19  A    between atoms: C_31  and  C_41
   20  A    between atoms: C_34  and  C_56
   21  A    between atoms: N_44  and  P_45
   22  A    between atoms: C_49  and  S_59
                            x       y       z     vdW  Elec       q    Type
                         _______ _______ _______ _____ _____    ______ ____

>  <TORSDO>
F 22

$$$$
=
 OpenBabel10232409113D

 59 63  0  0  1  0  0  0  0  0999 V2000
  184.0460  178.3540  138.0150 N   0  0  0  0  0  2  0  0  0  0  0  0
  181.8800  178.1230  137.0660 N   0  0  0  0  0  0  0  0  0  0  0  0
  180.4290  181.4010  139.1520 N   0  0  0  0  0  1  0  0  0  0  0  0
  182.0460  179.4500  139.1000 C   0  0  2  0  0  3  0  0  0  0  0  0
  180.4290  178.3120  137.0830 C   0  0  0  0  0  2  0  0  0  0  0  0
  180.8040  180.1440  138.6030 C   0  0  0  0  0  0  0  0  0  0  0  0
  182.6410  178.6210  137.9980 C   0  0  0  0  0  0  0  0  0  0  0  0
  180.0900  179.6160  137.6540 N   0  0  0  0  0  0  0  0  0  0  0  0
  181.7170  178.5840  140.2240 N   0  0  0  0  0  2  0  0  0  0  0  0
  183.7470  178.7830  143.9400 C   0  0  0  0  0  0  0  0  0  0  0  0
  181.6770  178.9020  142.6720 C   0  0  0  0  0  3  0  0  0  0  0  0
  183.7610  178.4370  141.5340 C   0  0  0  0  0  3  0  0  0  0  0  0
  182.3590  178.9750  143.8920 C   0  0  0  0  0  3  0  0  0  0  0  0
  182.3800  178.6320  141.4880 C   0  0  0  0  0  0  0  0  0  0  0  0
  184.4410  178.5120  142.7530 C   0  0  0  0  0  3  0  0  0  0  0  0
  183.8690  178.7090  146.3070 O   0  0  0  0  0  0  0  0  0  0  0  0
  184.4800  178.8770  145.2170 C   0  0  0  0  0  0  0  0  0  0  0  0
  185.9420  179.2050  145.2560 C   0  0  0  0  0  2  0  0  0  0  0  0
  186.4110  178.0040  147.2520 O   0  0  0  0  0  0  0  0  0  0  0  0
  186.7210  178.2290  146.0900 C   0  0  0  0  0  0  0  0  0  0  0  0
  191.6280  177.4550  142.4920 C   0  0  0  0  0  2  0  0  0  0  0  0
  189.8150  178.0550  143.9620 C   0  0  2  0  0  3  0  0  0  0  0  0
  187.6250  177.5590  143.0710 O   0  0  0  0  0  1  0  0  0  0  0  0
  190.1850  176.4720  145.8780 C   0  0  2  0  0  3  0  0  0  0  0  0
  187.8350  177.4610  145.4520 C   0  0  1  0  0  3  0  0  0  0  0  0
  191.6660  176.5530  143.7250 C   0  0  0  0  0  2  0  0  0  0  0  0
  190.2940  176.6850  144.3540 C   0  0  2  0  0  3  0  0  0  0  0  0
  188.2920  178.1490  144.1460 C   0  0  1  0  0  3  0  0  0  0  0  0
  188.9750  177.2350  146.4650 C   0  0  0  0  0  2  0  0  0  0  0  0
  190.3250  178.2470  142.5500 C   0  0  0  0  0  2  0  0  0  0  0  0
  191.7720  175.9590  147.6670 C   0  0  1  0  0  0  0  0  0  0  0  0
  191.0470  177.1750  147.9800 C   0  0  0  0  0  2  0  0  0  0  0  0
  191.4100  176.8890  146.5690 N   0  0  2  0  0  0  0  0  0  0  0  0
  193.2550  175.9170  147.9720 C   0  0  0  0  0  1  0  0  0  0  0  0
  191.0330  174.7730  147.7280 O   0  0  0  0  0  1  0  0  0  0  0  0
  184.6900  177.3850  137.1370 C   0  0  2  0  0  3  0  0  0  0  0  0
  184.7980  176.0980  137.8120 N   0  0  0  0  0  2  0  0  0  0  0  0
  184.3800  175.0650  136.8790 C   0  0  0  0  0  2  0  0  0  0  0  0
  183.4380  172.9170  137.1530 F   0  0  0  0  0  0  0  0  0  0  0  0
  183.2610  174.2480  137.4830 C   0  0  0  0  0  3  0  0  0  0  0  0
  182.0440  174.6830  136.9940 F   0  0  0  0  0  0  0  0  0  0  0  0
  186.0710  177.8930  136.7230 C   0  0  0  0  0  2  0  0  0  0  0  0
  187.4010  176.8110  137.3410 S   0  0  0  0  0  0  0  0  0  0  0  0
  187.9350  176.3980  135.6590 C   0  0  0  0  0  2  0  0  0  0  0  0
  189.4470  176.4540  135.5840 C   0  0  0  0  0  2  0  0  0  0  0  0
  190.0540  175.9750  136.8910 C   0  0  0  0  0  2  0  0  0  0  0  0
  190.8130  174.6580  136.6940 C   0  0  1  0  0  3  0  0  0  0  0  0
  190.1480  172.7820  135.5270 C   0  0  0  0  0  1  0  0  0  0  0  0
  190.6490  174.0890  135.4080 O   0  0  0  0  0  0  0  0  0  0  0  0
  192.2720  174.7110  137.1940 C   0  0  2  0  0  3  0  0  0  0  0  0
  192.4480  175.6450  138.2170 O   0  0  0  0  0  1  0  0  0  0  0  0
  193.4120  176.2330  135.7060 O   0  0  0  0  0  1  0  0  0  0  0  0
  193.3220  174.8940  136.0940 C   0  0  1  0  0  3  0  0  0  0  0  0
  194.6740  174.3410  136.4470 C   0  0  0  0  0  3  0  0  0  0  0  0
  195.6820  175.1160  136.6260 N   0  0  0  0  0  0  0  0  0  0  0  0
  198.0110  175.4650  137.8630 O   0  0  0  0  0  1  0  0  0  0  0  0
  196.9900  173.0600  137.9960 O   0  0  0  0  0  1  0  0  0  0  0  0
  198.0830  174.0480  135.6630 O   0  0  0  0  0  0  0  0  0  0  0  0
  197.2250  174.4500  137.0640 P   0  0  0  0  0  0  0  0  0  0  0  0
  2  5  1  0  0  0  0
  2  7  2  0  0  0  0
  4  9  1  1  0  0  0
  5  8  1  0  0  0  0
  6  4  1  0  0  0  0
  6  3  1  0  0  0  0
  7  1  1  0  0  0  0
  7  4  1  0  0  0  0
  8  6  2  0  0  0  0
  9 14  1  0  0  0  0
 10 17  1  0  0  0  0
 11 13  2  0  0  0  0
 12 15  1  0  0  0  0
 13 10  1  0  0  0  0
 14 12  2  0  0  0  0
 14 11  1  0  0  0  0
 15 10  2  0  0  0  0
 17 18  1  0  0  0  0
 17 16  2  0  0  0  0
 18 20  1  0  0  0  0
 20 19  2  0  0  0  0
 21 30  1  0  0  0  0
 21 26  1  0  0  0  0
 22 30  1  6  0  0  0
 22 28  1  0  0  0  0
 22 27  1  0  0  0  0
 24 29  1  1  0  0  0
 24 33  1  0  0  0  0
 25 20  1  1  0  0  0
 25 29  1  0  0  0  0
 27 26  1  1  0  0  0
 27 24  1  0  0  0  0
 28 23  1  6  0  0  0
 28 25  1  0  0  0  0
 31 35  1  0  0  0  0
 31 34  1  1  0  0  0
 31 32  1  0  0  0  0
 33 31  1  0  0  0  0
 33 32  1  1  0  0  0
 36 42  1  1  0  0  0
 36 37  1  0  0  0  0
 36  1  1  0  0  0  0
 38 40  1  0  0  0  0
 38 37  1  0  0  0  0
 39 40  1  0  0  0  0
 41 40  1  0  0  0  0
 42 43  1  0  0  0  0
 44 43  1  0  0  0  0
 45 44  1  0  0  0  0
 45 46  1  0  0  0  0
 47 46  1  6  0  0  0
 47 50  1  0  0  0  0
 49 48  1  0  0  0  0
 49 47  1  0  0  0  0
 50 51  1  1  0  0  0
 53 52  1  1  0  0  0
 53 54  1  0  0  0  0
 53 50  1  0  0  0  0
 54 55  2  0  0  0  0
 55 59  1  0  0  0  0
 58 59  2  0  0  0  0
 59 56  1  0  0  0  0
 59 57  1  0  0  0  0
M  END
>  <MODEL>
2

>  <REMARK>
 VINA RESULT:      -6.9      1.429      1.981
  Name = 
  22 active torsions:
  status: ('A' for Active; 'I' for Inactive)
    1  A    between atoms: C_1  and  C_34
    2  A    between atoms: C_3  and  C_33
    3  A    between atoms: C_3  and  C_41
    4  A    between atoms: C_3  and  O_54
    5  A    between atoms: C_4  and  C_8
    6  A    between atoms: C_4  and  N_47
    7  A    between atoms: N_9  and  C_16
    8  A    between atoms: C_12  and  C_16
    9  A    between atoms: C_12  and  S_59
   10  A    between atoms: C_14  and  C_33
   11  A    between atoms: C_14  and  C_49
   12  A    between atoms: C_16  and  N_47
   13  A    between atoms: N_19  and  C_35
   14  A    between atoms: N_19  and  C_48
   15  A    between atoms: C_23  and  N_26
   16  A    between atoms: C_27  and  C_29
   17  A    between atoms: C_29  and  C_56
   18  A    between atoms: C_31  and  C_40
   19  A    between atoms: C_31  and  C_41
   20  A    between atoms: C_34  and  C_56
   21  A    between atoms: N_44  and  P_45
   22  A    between atoms: C_49  and  S_59
                            x       y       z     vdW  Elec       q    Type
                         _______ _______ _______ _____ _____    ______ ____

>  <TORSDO>
F 22

$$$$
=
 OpenBabel10232409113D

 59 63  0  0  1  0  0  0  0  0999 V2000
  185.2540  176.6850  136.2830 N   0  0  0  0  0  2  0  0  0  0  0  0
  184.0100  175.5720  137.9740 N   0  0  0  0  0  0  0  0  0  0  0  0
  180.3910  176.6040  136.2310 N   0  0  0  0  0  1  0  0  0  0  0  0
  182.8130  177.2240  136.6450 C   0  0  2  0  0  3  0  0  0  0  0  0
  182.8030  175.3710  138.7760 C   0  0  0  0  0  2  0  0  0  0  0  0
  181.5800  176.4280  136.9900 C   0  0  0  0  0  0  0  0  0  0  0  0
  184.0420  176.4360  137.0010 C   0  0  0  0  0  0  0  0  0  0  0  0
  181.6060  175.5600  137.9570 N   0  0  0  0  0  0  0  0  0  0  0  0
  182.8200  178.4790  137.3840 N   0  0  0  0  0  2  0  0  0  0  0  0
  183.0310  178.8060  141.6060 C   0  0  0  0  0  0  0  0  0  0  0  0
  181.7130  178.4700  139.5910 C   0  0  0  0  0  3  0  0  0  0  0  0
  184.1070  178.7760  139.4270 C   0  0  0  0  0  3  0  0  0  0  0  0
  181.7930  178.5890  140.9830 C   0  0  0  0  0  3  0  0  0  0  0  0
  182.8730  178.5640  138.8090 C   0  0  0  0  0  0  0  0  0  0  0  0
  184.1860  178.8960  140.8170 C   0  0  0  0  0  3  0  0  0  0  0  0
  182.1600  178.6040  143.8020 O   0  0  0  0  0  0  0  0  0  0  0  0
  183.1250  178.9540  143.0710 C   0  0  0  0  0  0  0  0  0  0  0  0
  184.3380  179.5480  143.7190 C   0  0  0  0  0  2  0  0  0  0  0  0
  184.0880  178.7280  145.9350 O   0  0  0  0  0  0  0  0  0  0  0  0
  184.7780  178.7680  144.9250 C   0  0  0  0  0  0  0  0  0  0  0  0
  190.4900  177.4900  143.0920 C   0  0  0  0  0  2  0  0  0  0  0  0
  188.3360  178.3010  143.8080 C   0  0  2  0  0  3  0  0  0  0  0  0
  186.4790  177.3800  142.5680 O   0  0  0  0  0  1  0  0  0  0  0  0
  188.1930  177.3470  146.1280 C   0  0  2  0  0  3  0  0  0  0  0  0
  186.0340  177.9600  144.8450 C   0  0  1  0  0  3  0  0  0  0  0  0
  190.2040  176.9690  144.5000 C   0  0  0  0  0  2  0  0  0  0  0  0
  188.7100  177.1420  144.6890 C   0  0  2  0  0  3  0  0  0  0  0  0
  186.8200  178.3010  143.5600 C   0  0  1  0  0  3  0  0  0  0  0  0
  186.8570  178.1270  146.1380 C   0  0  0  0  0  2  0  0  0  0  0  0
  189.2090  178.1430  142.5820 C   0  0  0  0  0  2  0  0  0  0  0  0
  189.9010  177.1230  147.8640 C   0  0  1  0  0  0  0  0  0  0  0  0
  188.7700  177.8690  148.3750 C   0  0  0  0  0  2  0  0  0  0  0  0
  189.1770  178.0490  146.9590 N   0  0  2  0  0  0  0  0  0  0  0  0
  191.2920  177.5930  148.2390 C   0  0  0  0  0  1  0  0  0  0  0  0
  189.6840  175.7590  147.6390 O   0  0  0  0  0  1  0  0  0  0  0  0
  186.5490  176.1530  136.6870 C   0  0  2  0  0  3  0  0  0  0  0  0
  187.1620  177.0350  137.6720 N   0  0  0  0  0  2  0  0  0  0  0  0
  188.4950  176.5310  137.9590 C   0  0  0  0  0  2  0  0  0  0  0  0
  189.4860  176.6890  140.0970 F   0  0  0  0  0  0  0  0  0  0  0  0
  189.1770  177.4270  138.9690 C   0  0  0  0  0  3  0  0  0  0  0  0
  188.3370  178.4670  139.3170 F   0  0  0  0  0  0  0  0  0  0  0  0
  187.4550  176.0010  135.4650 C   0  0  0  0  0  2  0  0  0  0  0  0
  187.6740  177.5810  134.5850 S   0  0  0  0  0  0  0  0  0  0  0  0
  189.4770  177.3940  134.5640 C   0  0  0  0  0  2  0  0  0  0  0  0
  189.8300  175.9220  134.6220 C   0  0  0  0  0  2  0  0  0  0  0  0
  191.2840  175.7480  135.0270 C   0  0  0  0  0  2  0  0  0  0  0  0
  191.3990  175.3350  136.4990 C   0  0  1  0  0  3  0  0  0  0  0  0
  191.6660  173.0810  136.0850 C   0  0  0  0  0  1  0  0  0  0  0  0
  190.9000  174.0380  136.7700 O   0  0  0  0  0  0  0  0  0  0  0  0
  192.7820  175.6360  137.1130 C   0  0  2  0  0  3  0  0  0  0  0  0
  192.7280  176.6560  138.0660 O   0  0  0  0  0  1  0  0  0  0  0  0
  194.3430  177.2140  136.1620 O   0  0  0  0  0  1  0  0  0  0  0  0
  193.8970  175.8920  136.0940 C   0  0  1  0  0  3  0  0  0  0  0  0
  195.0440  174.9270  136.1940 C   0  0  0  0  0  3  0  0  0  0  0  0
  196.1680  175.2830  136.7020 N   0  0  0  0  0  0  0  0  0  0  0  0
  198.6910  174.8170  137.4040 O   0  0  0  0  0  1  0  0  0  0  0  0
  196.9970  172.8750  137.8540 O   0  0  0  0  0  1  0  0  0  0  0  0
  197.8270  173.5170  135.3020 O   0  0  0  0  0  0  0  0  0  0  0  0
  197.4670  174.1380  136.8340 P   0  0  0  0  0  0  0  0  0  0  0  0
  1 36  1  0  0  0  0
  1  7  1  0  0  0  0
  2  5  1  0  0  0  0
  3  6  1  0  0  0  0
  4  6  1  0  0  0  0
  4  7  1  0  0  0  0
  4  9  1  1  0  0  0
  6  8  2  0  0  0  0
  7  2  2  0  0  0  0
  8  5  1  0  0  0  0
  9 14  1  0  0  0  0
 10 17  1  0  0  0  0
 11 13  2  0  0  0  0
 12 15  1  0  0  0  0
 13 10  1  0  0  0  0
 14 12  2  0  0  0  0
 14 11  1  0  0  0  0
 15 10  2  0  0  0  0
 17 18  1  0  0  0  0
 17 16  2  0  0  0  0
 18 20  1  0  0  0  0
 20 19  2  0  0  0  0
 21 26  1  0  0  0  0
 22 30  1  6  0  0  0
 22 27  1  0  0  0  0
 24 29  1  6  0  0  0
 24 33  1  0  0  0  0
 25 20  1  1  0  0  0
 25 29  1  0  0  0  0
 27 26  1  1  0  0  0
 27 24  1  0  0  0  0
 28 23  1  6  0  0  0
 28 22  1  0  0  0  0
 28 25  1  0  0  0  0
 30 21  1  0  0  0  0
 31 34  1  1  0  0  0
 31 32  1  0  0  0  0
 33 31  1  0  0  0  0
 33 32  1  1  0  0  0
 35 31  1  0  0  0  0
 36 42  1  6  0  0  0
 36 37  1  0  0  0  0
 37 38  1  0  0  0  0
 38 40  1  0  0  0  0
 40 41  1  0  0  0  0
 40 39  1  0  0  0  0
 43 42  1  0  0  0  0
 44 43  1  0  0  0  0
 44 45  1  0  0  0  0
 45 46  1  0  0  0  0
 47 46  1  6  0  0  0
 47 49  1  0  0  0  0
 47 50  1  0  0  0  0
 48 49  1  0  0  0  0
 50 51  1  1  0  0  0
 53 52  1  1  0  0  0
 53 54  1  0  0  0  0
 53 50  1  0  0  0  0
 54 55  2  0  0  0  0
 55 59  1  0  0  0  0
 58 59  2  0  0  0  0
 59 56  1  0  0  0  0
 59 57  1  0  0  0  0
M  END
>  <MODEL>
3

>  <REMARK>
 VINA RESULT:      -6.7      2.461      3.652
  Name = 
  22 active torsions:
  status: ('A' for Active; 'I' for Inactive)
    1  A    between atoms: C_1  and  C_34
    2  A    between atoms: C_3  and  C_33
    3  A    between atoms: C_3  and  C_41
    4  A    between atoms: C_3  and  O_54
    5  A    between atoms: C_4  and  C_8
    6  A    between atoms: C_4  and  N_47
    7  A    between atoms: N_9  and  C_16
    8  A    between atoms: C_12  and  C_16
    9  A    between atoms: C_12  and  S_59
   10  A    between atoms: C_14  and  C_33
   11  A    between atoms: C_14  and  C_49
   12  A    between atoms: C_16  and  N_47
   13  A    between atoms: N_19  and  C_35
   14  A    between atoms: N_19  and  C_48
   15  A    between atoms: C_23  and  N_26
   16  A    between atoms: C_27  and  C_29
   17  A    between atoms: C_29  and  C_56
   18  A    between atoms: C_31  and  C_40
   19  A    between atoms: C_31  and  C_41
   20  A    between atoms: C_34  and  C_56
   21  A    between atoms: N_44  and  P_45
   22  A    between atoms: C_49  and  S_59
                            x       y       z     vdW  Elec       q    Type
                         _______ _______ _______ _____ _____    ______ ____

>  <TORSDO>
F 22

$$$$
=
 OpenBabel10232409113D

 59 63  0  0  1  0  0  0  0  0999 V2000
  183.3550  176.8790  136.2370 N   0  0  0  0  0  2  0  0  0  0  0  0
  181.5800  177.6220  137.6300 N   0  0  0  0  0  0  0  0  0  0  0  0
  183.7200  180.9500  138.8740 N   0  0  0  0  0  1  0  0  0  0  0  0
  183.7870  178.5420  138.0890 C   0  0  2  0  0  3  0  0  0  0  0  0
  181.0540  178.3610  138.7790 C   0  0  0  0  0  2  0  0  0  0  0  0
  183.0420  179.7170  138.6680 C   0  0  0  0  0  0  0  0  0  0  0  0
  182.8400  177.6750  137.3080 C   0  0  0  0  0  0  0  0  0  0  0  0
  181.7780  179.6210  138.9530 N   0  0  0  0  0  0  0  0  0  0  0  0
  184.3830  177.7530  139.1590 N   0  0  0  0  0  2  0  0  0  0  0  0
  184.1360  178.8330  143.2510 C   0  0  0  0  0  0  0  0  0  0  0  0
  183.1320  177.8120  141.2860 C   0  0  0  0  0  3  0  0  0  0  0  0
  185.3650  178.7340  141.1570 C   0  0  0  0  0  3  0  0  0  0  0  0
  183.0580  178.1810  142.6340 C   0  0  0  0  0  3  0  0  0  0  0  0
  184.2900  178.0890  140.5440 C   0  0  0  0  0  0  0  0  0  0  0  0
  185.2890  179.1040  142.5020 C   0  0  0  0  0  3  0  0  0  0  0  0
  182.9480  179.2650  145.2570 O   0  0  0  0  0  0  0  0  0  0  0  0
  184.0610  179.2460  144.6650 C   0  0  0  0  0  0  0  0  0  0  0  0
  185.2820  179.6810  145.4170 C   0  0  0  0  0  2  0  0  0  0  0  0
  185.3090  177.6160  146.5930 O   0  0  0  0  0  0  0  0  0  0  0  0
  185.9590  178.5360  146.1140 C   0  0  0  0  0  0  0  0  0  0  0  0
  191.4480  176.0240  147.2010 C   0  0  0  0  0  2  0  0  0  0  0  0
  189.1920  176.7130  146.7060 C   0  0  2  0  0  3  0  0  0  0  0  0
  188.2170  178.1570  148.3790 O   0  0  0  0  0  1  0  0  0  0  0  0
  189.5420  178.1230  144.6570 C   0  0  2  0  0  3  0  0  0  0  0  0
  187.4530  178.4860  146.1370 C   0  0  1  0  0  3  0  0  0  0  0  0
  191.4630  176.9420  145.9800 C   0  0  0  0  0  2  0  0  0  0  0  0
  190.1280  177.6570  146.0060 C   0  0  2  0  0  3  0  0  0  0  0  0
  187.9480  177.4730  147.1920 C   0  0  1  0  0  3  0  0  0  0  0  0
  188.0000  178.2210  144.7200 C   0  0  0  0  0  2  0  0  0  0  0  0
  190.0380  176.0670  147.7830 C   0  0  0  0  0  2  0  0  0  0  0  0
  190.9780  177.8320  142.6990 C   0  0  1  0  0  0  0  0  0  0  0  0
  189.5900  177.9100  142.2890 C   0  0  0  0  0  2  0  0  0  0  0  0
  189.9330  177.2290  143.5630 N   0  0  2  0  0  0  0  0  0  0  0  0
  191.8660  176.8160  142.0100 C   0  0  0  0  0  1  0  0  0  0  0  0
  191.5460  179.0200  143.1700 O   0  0  0  0  0  1  0  0  0  0  0  0
  182.5830  175.8410  135.5650 C   0  0  2  0  0  3  0  0  0  0  0  0
  182.2840  174.7640  136.5000 N   0  0  0  0  0  2  0  0  0  0  0  0
  181.1480  174.0200  135.9790 C   0  0  0  0  0  2  0  0  0  0  0  0
  180.7030  172.7930  137.9470 F   0  0  0  0  0  0  0  0  0  0  0  0
  181.0870  172.6550  136.6260 C   0  0  0  0  0  3  0  0  0  0  0  0
  182.3290  172.0520  136.5690 F   0  0  0  0  0  0  0  0  0  0  0  0
  183.3610  175.3090  134.3620 C   0  0  0  0  0  2  0  0  0  0  0  0
  184.5880  174.0550  134.8520 S   0  0  0  0  0  0  0  0  0  0  0  0
  185.9590  175.2250  134.6510 C   0  0  0  0  0  2  0  0  0  0  0  0
  187.0730  174.8630  135.6120 C   0  0  0  0  0  2  0  0  0  0  0  0
  188.4220  175.1810  134.9920 C   0  0  0  0  0  2  0  0  0  0  0  0
  189.3170  175.9380  135.9800 C   0  0  1  0  0  3  0  0  0  0  0  0
  188.4650  178.0660  136.2410 C   0  0  0  0  0  1  0  0  0  0  0  0
  188.6090  176.8060  136.8450 O   0  0  0  0  0  0  0  0  0  0  0  0
  190.3550  175.0360  136.6810 C   0  0  2  0  0  3  0  0  0  0  0  0
  189.7690  173.9180  137.2780 O   0  0  0  0  0  1  0  0  0  0  0  0
  190.8730  175.5560  138.9820 O   0  0  0  0  0  1  0  0  0  0  0  0
  191.2810  175.7630  137.6610 C   0  0  1  0  0  3  0  0  0  0  0  0
  192.7350  175.4280  137.4860 C   0  0  0  0  0  3  0  0  0  0  0  0
  193.2270  174.3390  137.9560 N   0  0  0  0  0  0  0  0  0  0  0  0
  195.0300  172.7090  136.8770 O   0  0  0  0  0  0  0  0  0  0  0  0
  195.6540  175.2490  136.9090 O   0  0  0  0  0  1  0  0  0  0  0  0
  195.6520  173.7230  139.2090 O   0  0  0  0  0  1  0  0  0  0  0  0
  194.9050  173.9630  137.7110 P   0  0  0  0  0  0  0  0  0  0  0  0
  1  7  1  0  0  0  0
  2  5  1  0  0  0  0
  4  6  1  0  0  0  0
  4  9  1  1  0  0  0
  5  8  1  0  0  0  0
  6  3  1  0  0  0  0
  6  8  2  0  0  0  0
  7  2  2  0  0  0  0
  7  4  1  0  0  0  0
  9 14  1  0  0  0  0
 10 17  1  0  0  0  0
 11 13  2  0  0  0  0
 12 15  1  0  0  0  0
 13 10  1  0  0  0  0
 14 12  2  0  0  0  0
 14 11  1  0  0  0  0
 15 10  2  0  0  0  0
 17 16  2  0  0  0  0
 17 18  1  0  0  0  0
 18 20  1  0  0  0  0
 20 19  2  0  0  0  0
 21 30  1  0  0  0  0
 22 28  1  0  0  0  0
 22 30  1  1  0  0  0
 24 29  1  1  0  0  0
 24 27  1  0  0  0  0
 25 20  1  6  0  0  0
 25 28  1  0  0  0  0
 26 21  1  0  0  0  0
 27 26  1  6  0  0  0
 27 22  1  0  0  0  0
 28 23  1  1  0  0  0
 29 25  1  0  0  0  0
 31 34  1  6  0  0  0
 31 35  1  0  0  0  0
 31 33  1  0  0  0  0
 32 31  1  0  0  0  0
 33 32  1  6  0  0  0
 33 24  1  0  0  0  0
 36 42  1  6  0  0  0
 36  1  1  0  0  0  0
 36 37  1  0  0  0  0
 38 37  1  0  0  0  0
 38 40  1  0  0  0  0
 40 39  1  0  0  0  0
 41 40  1  0  0  0  0
 42 43  1  0  0  0  0
 44 43  1  0  0  0  0
 44 45  1  0  0  0  0
 46 45  1  0  0  0  0
 47 46  1  1  0  0  0
 47 50  1  0  0  0  0
 47 49  1  0  0  0  0
 48 49  1  0  0  0  0
 50 51  1  1  0  0  0
 50 53  1  0  0  0  0
 53 52  1  1  0  0  0
 54 53  1  0  0  0  0
 54 55  2  0  0  0  0
 56 59  2  0  0  0  0
 57 59  1  0  0  0  0
 59 55  1  0  0  0  0
 59 58  1  0  0  0  0
M  END
>  <MODEL>
4

>  <REMARK>
 VINA RESULT:      -6.6      1.620      2.627
  Name = 
  22 active torsions:
  status: ('A' for Active; 'I' for Inactive)
    1  A    between atoms: C_1  and  C_34
    2  A    between atoms: C_3  and  C_33
    3  A    between atoms: C_3  and  C_41
    4  A    between atoms: C_3  and  O_54
    5  A    between atoms: C_4  and  C_8
    6  A    between atoms: C_4  and  N_47
    7  A    between atoms: N_9  and  C_16
    8  A    between atoms: C_12  and  C_16
    9  A    between atoms: C_12  and  S_59
   10  A    between atoms: C_14  and  C_33
   11  A    between atoms: C_14  and  C_49
   12  A    between atoms: C_16  and  N_47
   13  A    between atoms: N_19  and  C_35
   14  A    between atoms: N_19  and  C_48
   15  A    between atoms: C_23  and  N_26
   16  A    between atoms: C_27  and  C_29
   17  A    between atoms: C_29  and  C_56
   18  A    between atoms: C_31  and  C_40
   19  A    between atoms: C_31  and  C_41
   20  A    between atoms: C_34  and  C_56
   21  A    between atoms: N_44  and  P_45
   22  A    between atoms: C_49  and  S_59
                            x       y       z     vdW  Elec       q    Type
                         _______ _______ _______ _____ _____    ______ ____

>  <TORSDO>
F 22

$$$$
=
 OpenBabel10232409113D

 59 63  0  0  1  0  0  0  0  0999 V2000
  189.1140  176.6670  144.2460 N   0  0  0  0  0  2  0  0  0  0  0  0
  189.3680  177.9760  146.2130 N   0  0  0  0  0  0  0  0  0  0  0  0
  185.4760  177.2150  147.4300 N   0  0  0  0  0  1  0  0  0  0  0  0
  187.0870  177.5120  145.4970 C   0  0  2  0  0  3  0  0  0  0  0  0
  188.8380  178.7960  147.3030 C   0  0  0  0  0  2  0  0  0  0  0  0
  186.7240  177.6960  146.9480 C   0  0  0  0  0  0  0  0  0  0  0  0
  188.5790  177.3930  145.3570 C   0  0  0  0  0  0  0  0  0  0  0  0
  187.5560  178.2650  147.7680 N   0  0  0  0  0  0  0  0  0  0  0  0
  186.6260  178.6540  144.7190 N   0  0  0  0  0  2  0  0  0  0  0  0
  182.7390  178.8910  143.0430 C   0  0  0  0  0  0  0  0  0  0  0  0
  184.2350  179.2340  144.9280 C   0  0  0  0  0  3  0  0  0  0  0  0
  185.1020  178.3590  142.8460 C   0  0  0  0  0  3  0  0  0  0  0  0
  182.9550  179.2990  144.3680 C   0  0  0  0  0  3  0  0  0  0  0  0
  185.3140  178.7620  144.1650 C   0  0  0  0  0  0  0  0  0  0  0  0
  183.8220  178.4230  142.2870 C   0  0  0  0  0  3  0  0  0  0  0  0
  180.4390  179.4640  143.0840 O   0  0  0  0  0  0  0  0  0  0  0  0
  181.3890  178.9350  142.4480 C   0  0  0  0  0  0  0  0  0  0  0  0
  181.1070  178.3310  141.1060 C   0  0  0  0  0  2  0  0  0  0  0  0
  180.8270  180.4200  140.0090 O   0  0  0  0  0  0  0  0  0  0  0  0
  181.3320  179.3050  139.9860 C   0  0  0  0  0  0  0  0  0  0  0  0
  186.6750  177.5900  137.5100 C   0  0  0  0  0  2  0  0  0  0  0  0
  184.6600  178.0830  138.7350 C   0  0  2  0  0  3  0  0  0  0  0  0
  184.1170  180.4350  138.8250 O   0  0  0  0  0  1  0  0  0  0  0  0
  182.9190  177.0000  137.2840 C   0  0  2  0  0  3  0  0  0  0  0  0
  182.2600  178.9280  138.8750 C   0  0  1  0  0  3  0  0  0  0  0  0
  185.4770  177.0300  136.7440 C   0  0  0  0  0  2  0  0  0  0  0  0
  184.2710  177.7410  137.3240 C   0  0  2  0  0  3  0  0  0  0  0  0
  183.7290  179.1750  139.2840 C   0  0  1  0  0  3  0  0  0  0  0  0
  181.9800  177.4840  138.4140 C   0  0  0  0  0  2  0  0  0  0  0  0
  186.1270  178.4440  138.6490 C   0  0  0  0  0  2  0  0  0  0  0  0
  182.8270  174.8650  136.0940 C   0  0  1  0  0  0  0  0  0  0  0  0
  181.7840  174.9180  137.0980 C   0  0  0  0  0  2  0  0  0  0  0  0
  183.0980  175.5470  137.3830 N   0  0  2  0  0  0  0  0  0  0  0  0
  183.5800  173.5620  135.9190 C   0  0  0  0  0  1  0  0  0  0  0  0
  182.6560  175.7020  134.9870 O   0  0  0  0  0  1  0  0  0  0  0  0
  190.5250  176.6780  143.8860 C   0  0  2  0  0  3  0  0  0  0  0  0
  191.3290  177.0610  145.0400 N   0  0  0  0  0  2  0  0  0  0  0  0
  191.9040  175.8520  145.6090 C   0  0  0  0  0  2  0  0  0  0  0  0
  193.2060  175.4090  147.5290 F   0  0  0  0  0  0  0  0  0  0  0  0
  192.0270  175.9980  147.1080 C   0  0  0  0  0  3  0  0  0  0  0  0
  190.9590  175.3800  147.7300 F   0  0  0  0  0  0  0  0  0  0  0  0
  190.7610  177.6420  142.7240 C   0  0  0  0  0  2  0  0  0  0  0  0
  190.5050  176.8320  141.1120 S   0  0  0  0  0  0  0  0  0  0  0  0
  192.0210  177.5580  140.4340 C   0  0  0  0  0  2  0  0  0  0  0  0
  192.2920  176.9680  139.0640 C   0  0  0  0  0  2  0  0  0  0  0  0
  191.2470  175.9160  138.7320 C   0  0  0  0  0  2  0  0  0  0  0  0
  191.0820  175.7660  137.2160 C   0  0  1  0  0  3  0  0  0  0  0  0
  189.5240  176.3920  135.6330 C   0  0  0  0  0  1  0  0  0  0  0  0
  190.4290  176.8610  136.5990 O   0  0  0  0  0  0  0  0  0  0  0  0
  192.3680  175.2970  136.5030 C   0  0  2  0  0  3  0  0  0  0  0  0
  192.1370  174.9440  135.1710 O   0  0  0  0  0  1  0  0  0  0  0  0
  192.9820  172.9640  136.6070 O   0  0  0  0  0  1  0  0  0  0  0  0
  193.1470  174.2010  137.2360 C   0  0  1  0  0  3  0  0  0  0  0  0
  194.6020  174.5180  137.4320 C   0  0  0  0  0  3  0  0  0  0  0  0
  195.4360  174.4390  136.4600 N   0  0  0  0  0  0  0  0  0  0  0  0
  197.4010  176.1960  136.1060 O   0  0  0  0  0  1  0  0  0  0  0  0
  197.4300  174.8820  138.3680 O   0  0  0  0  0  1  0  0  0  0  0  0
  198.0840  173.6720  135.9750 O   0  0  0  0  0  0  0  0  0  0  0  0
  197.1070  174.8420  136.7100 P   0  0  0  0  0  0  0  0  0  0  0  0
  1  7  1  0  0  0  0
  2  5  1  0  0  0  0
  4  9  1  6  0  0  0
  4  6  1  0  0  0  0
  5  8  1  0  0  0  0
  6  3  1  0  0  0  0
  6  8  2  0  0  0  0
  7  4  1  0  0  0  0
  7  2  2  0  0  0  0
 10 13  1  0  0  0  0
 12 14  2  0  0  0  0
 13 11  2  0  0  0  0
 14  9  1  0  0  0  0
 14 11  1  0  0  0  0
 15 12  1  0  0  0  0
 15 10  2  0  0  0  0
 17 10  1  0  0  0  0
 17 16  2  0  0  0  0
 18 17  1  0  0  0  0
 20 19  2  0  0  0  0
 20 18  1  0  0  0  0
 21 30  1  0  0  0  0
 22 30  1  6  0  0  0
 22 28  1  0  0  0  0
 24 27  1  0  0  0  0
 24 33  1  0  0  0  0
 24 29  1  1  0  0  0
 25 28  1  0  0  0  0
 25 20  1  1  0  0  0
 26 21  1  0  0  0  0
 27 26  1  1  0  0  0
 27 22  1  0  0  0  0
 28 23  1  6  0  0  0
 29 25  1  0  0  0  0
 31 34  1  6  0  0  0
 31 32  1  0  0  0  0
 31 33  1  0  0  0  0
 33 32  1  1  0  0  0
 35 31  1  0  0  0  0
 36 42  1  6  0  0  0
 36  1  1  0  0  0  0
 36 37  1  0  0  0  0
 37 38  1  0  0  0  0
 38 40  1  0  0  0  0
 40 39  1  0  0  0  0
 40 41  1  0  0  0  0
 43 42  1  0  0  0  0
 44 43  1  0  0  0  0
 45 44  1  0  0  0  0
 46 45  1  0  0  0  0
 47 46  1  1  0  0  0
 48 49  1  0  0  0  0
 49 47  1  0  0  0  0
 50 51  1  6  0  0  0
 50 47  1  0  0  0  0
 50 53  1  0  0  0  0
 53 52  1  6  0  0  0
 53 54  1  0  0  0  0
 55 59  1  0  0  0  0
 55 54  2  0  0  0  0
 56 59  1  0  0  0  0
 58 59  2  0  0  0  0
 59 57  1  0  0  0  0
M  END
>  <MODEL>
5

>  <REMARK>
 VINA RESULT:      -6.5      3.846      8.627
  Name = 
  22 active torsions:
  status: ('A' for Active; 'I' for Inactive)
    1  A    between atoms: C_1  and  C_34
    2  A    between atoms: C_3  and  C_33
    3  A    between atoms: C_3  and  C_41
    4  A    between atoms: C_3  and  O_54
    5  A    between atoms: C_4  and  C_8
    6  A    between atoms: C_4  and  N_47
    7  A    between atoms: N_9  and  C_16
    8  A    between atoms: C_12  and  C_16
    9  A    between atoms: C_12  and  S_59
   10  A    between atoms: C_14  and  C_33
   11  A    between atoms: C_14  and  C_49
   12  A    between atoms: C_16  and  N_47
   13  A    between atoms: N_19  and  C_35
   14  A    between atoms: N_19  and  C_48
   15  A    between atoms: C_23  and  N_26
   16  A    between atoms: C_27  and  C_29
   17  A    between atoms: C_29  and  C_56
   18  A    between atoms: C_31  and  C_40
   19  A    between atoms: C_31  and  C_41
   20  A    between atoms: C_34  and  C_56
   21  A    between atoms: N_44  and  P_45
   22  A    between atoms: C_49  and  S_59
                            x       y       z     vdW  Elec       q    Type
                         _______ _______ _______ _____ _____    ______ ____

>  <TORSDO>
F 22

$$$$
=
 OpenBabel10232409113D

 59 63  0  0  1  0  0  0  0  0999 V2000
  189.8780  176.4970  139.3170 N   0  0  0  0  0  2  0  0  0  0  0  0
  191.3690  177.4300  140.9140 N   0  0  0  0  0  0  0  0  0  0  0  0
  188.8880  176.4130  144.0780 N   0  0  0  0  0  1  0  0  0  0  0  0
  189.0720  177.0760  141.6400 C   0  0  2  0  0  3  0  0  0  0  0  0
  191.6670  178.0320  142.2140 C   0  0  0  0  0  2  0  0  0  0  0  0
  189.6530  176.9890  143.0280 C   0  0  0  0  0  0  0  0  0  0  0  0
  190.1750  177.0020  140.6220 C   0  0  0  0  0  0  0  0  0  0  0  0
  190.8600  177.4100  143.2640 N   0  0  0  0  0  0  0  0  0  0  0  0
  188.3560  178.3340  141.4770 N   0  0  0  0  0  2  0  0  0  0  0  0
  184.1530  178.5680  140.9770 C   0  0  0  0  0  0  0  0  0  0  0  0
  186.0780  178.2200  142.4200 C   0  0  0  0  0  3  0  0  0  0  0  0
  186.4050  178.7110  140.0740 C   0  0  0  0  0  3  0  0  0  0  0  0
  184.6920  178.2900  142.2420 C   0  0  0  0  0  3  0  0  0  0  0  0
  186.9390  178.4310  141.3330 C   0  0  0  0  0  0  0  0  0  0  0  0
  185.0200  178.7790  139.8970 C   0  0  0  0  0  3  0  0  0  0  0  0
  181.9300  178.8630  141.7470 O   0  0  0  0  0  0  0  0  0  0  0  0
  182.6930  178.6240  140.7720 C   0  0  0  0  0  0  0  0  0  0  0  0
  182.0830  178.3690  139.4280 C   0  0  0  0  0  2  0  0  0  0  0  0
  181.3410  176.1520  139.8520 O   0  0  0  0  0  0  0  0  0  0  0  0
  181.9740  176.9030  139.1210 C   0  0  0  0  0  0  0  0  0  0  0  0
  185.8370  176.9090  134.3570 C   0  0  0  0  0  2  0  0  0  0  0  0
  184.5610  177.0350  136.3980 C   0  0  2  0  0  3  0  0  0  0  0  0
  182.3740  178.0250  136.1280 O   0  0  0  0  0  1  0  0  0  0  0  0
  184.1900  174.6020  136.9020 C   0  0  2  0  0  3  0  0  0  0  0  0
  182.5760  176.3820  137.8550 C   0  0  1  0  0  3  0  0  0  0  0  0
  185.4770  175.4940  134.8080 C   0  0  0  0  0  2  0  0  0  0  0  0
  184.3470  175.6720  135.8020 C   0  0  2  0  0  3  0  0  0  0  0  0
  183.2690  177.5200  137.0740 C   0  0  1  0  0  3  0  0  0  0  0  0
  183.4990  175.1860  138.1570 C   0  0  0  0  0  2  0  0  0  0  0  0
  185.0640  177.8790  135.2460 C   0  0  0  0  0  2  0  0  0  0  0  0
  185.6790  172.6730  136.6980 C   0  0  1  0  0  0  0  0  0  0  0  0
  185.2090  172.7930  138.0630 C   0  0  0  0  0  2  0  0  0  0  0  0
  185.4840  174.0240  137.2790 N   0  0  2  0  0  0  0  0  0  0  0  0
  187.1310  172.3030  136.4760 C   0  0  0  0  0  1  0  0  0  0  0  0
  184.7260  172.2730  135.7550 O   0  0  0  0  0  1  0  0  0  0  0  0
  190.8000  176.5900  138.1920 C   0  0  2  0  0  3  0  0  0  0  0  0
  190.0530  176.7550  136.9510 N   0  0  0  0  0  2  0  0  0  0  0  0
  188.6710  177.0510  137.2950 C   0  0  0  0  0  2  0  0  0  0  0  0
  188.6950  178.6200  135.5300 F   0  0  0  0  0  0  0  0  0  0  0  0
  188.3200  178.4520  136.8510 C   0  0  0  0  0  3  0  0  0  0  0  0
  188.9820  179.3750  137.6370 F   0  0  0  0  0  0  0  0  0  0  0  0
  191.6760  175.3390  138.1290 C   0  0  0  0  0  2  0  0  0  0  0  0
  193.3610  175.7220  137.5520 S   0  0  0  0  0  0  0  0  0  0  0  0
  193.8760  173.9900  137.7050 C   0  0  0  0  0  2  0  0  0  0  0  0
  195.3440  173.9340  138.0730 C   0  0  0  0  0  2  0  0  0  0  0  0
  196.1740  174.6590  137.0280 C   0  0  0  0  0  2  0  0  0  0  0  0
  197.6690  174.5750  137.3570 C   0  0  1  0  0  3  0  0  0  0  0  0
  198.6460  175.2540  139.3340 C   0  0  0  0  0  1  0  0  0  0  0  0
  197.9400  174.2180  138.7000 O   0  0  0  0  0  0  0  0  0  0  0  0
  198.4850  173.7940  136.3040 C   0  0  2  0  0  3  0  0  0  0  0  0
  197.8480  173.7560  135.0620 O   0  0  0  0  0  1  0  0  0  0  0  0
  199.9790  172.4600  137.6540 O   0  0  0  0  0  1  0  0  0  0  0  0
  198.9230  172.3920  136.7410 C   0  0  1  0  0  3  0  0  0  0  0  0
  197.8030  171.5440  137.2730 C   0  0  0  0  0  3  0  0  0  0  0  0
  197.7720  170.2780  137.0620 N   0  0  0  0  0  0  0  0  0  0  0  0
  195.7950  168.5590  136.6030 O   0  0  0  0  0  0  0  0  0  0  0  0
  197.1100  168.2240  138.8390 O   0  0  0  0  0  1  0  0  0  0  0  0
  195.3610  170.3280  138.4830 O   0  0  0  0  0  1  0  0  0  0  0  0
  196.4800  169.3180  137.7160 P   0  0  0  0  0  0  0  0  0  0  0  0
  1  7  1  0  0  0  0
  2  5  1  0  0  0  0
  4  9  1  1  0  0  0
  4  6  1  0  0  0  0
  5  8  1  0  0  0  0
  6  8  2  0  0  0  0
  6  3  1  0  0  0  0
  7  2  2  0  0  0  0
  7  4  1  0  0  0  0
 10 13  1  0  0  0  0
 12 14  2  0  0  0  0
 13 11  2  0  0  0  0
 14  9  1  0  0  0  0
 14 11  1  0  0  0  0
 15 12  1  0  0  0  0
 15 10  2  0  0  0  0
 17 10  1  0  0  0  0
 17 16  2  0  0  0  0
 18 17  1  0  0  0  0
 20 18  1  0  0  0  0
 20 19  2  0  0  0  0
 21 26  1  0  0  0  0
 21 30  1  0  0  0  0
 22 30  1  6  0  0  0
 22 28  1  0  0  0  0
 24 33  1  0  0  0  0
 24 29  1  1  0  0  0
 25 29  1  0  0  0  0
 25 20  1  1  0  0  0
 27 26  1  6  0  0  0
 27 22  1  0  0  0  0
 27 24  1  0  0  0  0
 28 23  1  6  0  0  0
 28 25  1  0  0  0  0
 31 34  1  6  0  0  0
 31 33  1  0  0  0  0
 31 32  1  0  0  0  0
 33 32  1  1  0  0  0
 35 31  1  0  0  0  0
 36 42  1  6  0  0  0
 36  1  1  0  0  0  0
 37 38  1  0  0  0  0
 37 36  1  0  0  0  0
 39 40  1  0  0  0  0
 40 38  1  0  0  0  0
 40 41  1  0  0  0  0
 43 44  1  0  0  0  0
 43 42  1  0  0  0  0
 44 45  1  0  0  0  0
 46 45  1  0  0  0  0
 47 46  1  6  0  0  0
 47 49  1  0  0  0  0
 49 48  1  0  0  0  0
 50 51  1  6  0  0  0
 50 53  1  0  0  0  0
 50 47  1  0  0  0  0
 53 54  1  0  0  0  0
 53 52  1  1  0  0  0
 55 54  2  0  0  0  0
 55 59  1  0  0  0  0
 56 59  2  0  0  0  0
 59 58  1  0  0  0  0
 59 57  1  0  0  0  0
M  END
>  <MODEL>
6

>  <REMARK>
 VINA RESULT:      -6.3      4.390      8.608
  Name = 
  22 active torsions:
  status: ('A' for Active; 'I' for Inactive)
    1  A    between atoms: C_1  and  C_34
    2  A    between atoms: C_3  and  C_33
    3  A    between atoms: C_3  and  C_41
    4  A    between atoms: C_3  and  O_54
    5  A    between atoms: C_4  and  C_8
    6  A    between atoms: C_4  and  N_47
    7  A    between atoms: N_9  and  C_16
    8  A    between atoms: C_12  and  C_16
    9  A    between atoms: C_12  and  S_59
   10  A    between atoms: C_14  and  C_33
   11  A    between atoms: C_14  and  C_49
   12  A    between atoms: C_16  and  N_47
   13  A    between atoms: N_19  and  C_35
   14  A    between atoms: N_19  and  C_48
   15  A    between atoms: C_23  and  N_26
   16  A    between atoms: C_27  and  C_29
   17  A    between atoms: C_29  and  C_56
   18  A    between atoms: C_31  and  C_40
   19  A    between atoms: C_31  and  C_41
   20  A    between atoms: C_34  and  C_56
   21  A    between atoms: N_44  and  P_45
   22  A    between atoms: C_49  and  S_59
                            x       y       z     vdW  Elec       q    Type
                         _______ _______ _______ _____ _____    ______ ____

>  <TORSDO>
F 22

$$$$
=
 OpenBabel10232409113D

 59 63  0  0  1  0  0  0  0  0999 V2000
  184.4890  177.5940  136.6690 N   0  0  0  0  0  2  0  0  0  0  0  0
  183.1360  175.7320  137.2600 N   0  0  0  0  0  0  0  0  0  0  0  0
  180.1850  176.7960  134.5480 N   0  0  0  0  0  1  0  0  0  0  0  0
  182.0260  177.5670  136.1090 C   0  0  2  0  0  3  0  0  0  0  0  0
  181.8470  175.0510  137.3780 C   0  0  0  0  0  2  0  0  0  0  0  0
  181.0440  176.5220  135.6470 C   0  0  0  0  0  0  0  0  0  0  0  0
  183.2370  176.9020  136.6980 C   0  0  0  0  0  0  0  0  0  0  0  0
  180.9970  175.3600  136.2270 N   0  0  0  0  0  0  0  0  0  0  0  0
  181.4110  178.4180  137.1190 N   0  0  0  0  0  2  0  0  0  0  0  0
  182.6050  178.5830  141.1830 C   0  0  0  0  0  0  0  0  0  0  0  0
  181.0640  177.7860  139.4800 C   0  0  0  0  0  3  0  0  0  0  0  0
  182.9490  179.1650  138.8480 C   0  0  0  0  0  3  0  0  0  0  0  0
  181.4630  177.8550  140.8200 C   0  0  0  0  0  3  0  0  0  0  0  0
  181.8100  178.4430  138.4900 C   0  0  0  0  0  0  0  0  0  0  0  0
  183.3450  179.2350  140.1870 C   0  0  0  0  0  3  0  0  0  0  0  0
  182.1860  179.0100  143.4770 O   0  0  0  0  0  0  0  0  0  0  0  0
  183.0230  178.6800  142.5940 C   0  0  0  0  0  0  0  0  0  0  0  0
  184.4410  178.4280  143.0080 C   0  0  0  0  0  2  0  0  0  0  0  0
  183.6740  178.3210  145.2540 O   0  0  0  0  0  0  0  0  0  0  0  0
  184.6200  178.4970  144.4970 C   0  0  0  0  0  0  0  0  0  0  0  0
  189.1500  177.8130  148.5760 C   0  0  0  0  0  2  0  0  0  0  0  0
  187.2830  177.7820  147.0510 C   0  0  2  0  0  3  0  0  0  0  0  0
  185.8560  179.7240  147.2070 O   0  0  0  0  0  1  0  0  0  0  0  0
  188.4530  177.9270  144.8330 C   0  0  2  0  0  3  0  0  0  0  0  0
  185.9940  178.6950  145.0520 C   0  0  1  0  0  3  0  0  0  0  0  0
  189.6720  177.9340  147.1450 C   0  0  0  0  0  2  0  0  0  0  0  0
  188.4700  178.3410  146.3180 C   0  0  2  0  0  3  0  0  0  0  0  0
  186.0000  178.4840  146.5820 C   0  0  1  0  0  3  0  0  0  0  0  0
  187.0050  177.8060  144.3010 C   0  0  0  0  0  2  0  0  0  0  0  0
  187.6300  177.9420  148.5160 C   0  0  0  0  0  2  0  0  0  0  0  0
  190.5150  176.8690  144.0500 C   0  0  1  0  0  0  0  0  0  0  0  0
  189.4190  176.5360  143.1620 C   0  0  0  0  0  2  0  0  0  0  0  0
  189.1610  176.6600  144.6190 N   0  0  2  0  0  0  0  0  0  0  0  0
  191.5030  175.7760  144.4000 C   0  0  0  0  0  1  0  0  0  0  0  0
  190.9570  178.1950  144.0060 O   0  0  0  0  0  1  0  0  0  0  0  0
  185.6670  177.1510  137.4030 C   0  0  2  0  0  3  0  0  0  0  0  0
  186.2990  178.2890  138.0590 N   0  0  0  0  0  2  0  0  0  0  0  0
  187.6480  177.9000  138.4360 C   0  0  0  0  0  2  0  0  0  0  0  0
  189.9100  178.0050  137.7650 F   0  0  0  0  0  0  0  0  0  0  0  0
  188.6320  178.3810  137.3940 C   0  0  0  0  0  3  0  0  0  0  0  0
  188.5700  179.7580  137.2890 F   0  0  0  0  0  0  0  0  0  0  0  0
  186.6490  176.4670  136.4520 C   0  0  0  0  0  2  0  0  0  0  0  0
  186.4910  177.0990  134.7500 S   0  0  0  0  0  0  0  0  0  0  0  0
  188.2050  176.6560  134.3580 C   0  0  0  0  0  2  0  0  0  0  0  0
  188.5760  175.3830  135.0920 C   0  0  0  0  0  2  0  0  0  0  0  0
  190.0250  175.0230  134.8140 C   0  0  0  0  0  2  0  0  0  0  0  0
  190.6080  174.1750  135.9510 C   0  0  1  0  0  3  0  0  0  0  0  0
  188.9320  172.9300  136.9340 C   0  0  0  0  0  1  0  0  0  0  0  0
  190.0300  172.8870  136.0590 O   0  0  0  0  0  0  0  0  0  0  0  0
  192.1500  174.1960  136.0020 C   0  0  2  0  0  3  0  0  0  0  0  0
  192.6900  172.9260  136.2130 O   0  0  0  0  0  1  0  0  0  0  0  0
  191.8140  175.5850  137.9500 O   0  0  0  0  0  1  0  0  0  0  0  0
  192.7470  175.2170  136.9760 C   0  0  1  0  0  3  0  0  0  0  0  0
  194.0380  174.7740  137.6050 C   0  0  0  0  0  3  0  0  0  0  0  0
  195.1290  174.7460  136.9300 N   0  0  0  0  0  0  0  0  0  0  0  0
  197.1040  172.9700  137.0740 O   0  0  0  0  0  0  0  0  0  0  0  0
  197.7750  175.4660  137.4740 O   0  0  0  0  0  1  0  0  0  0  0  0
  196.3460  174.0280  139.3460 O   0  0  0  0  0  1  0  0  0  0  0  0
  196.6120  174.2590  137.6910 P   0  0  0  0  0  0  0  0  0  0  0  0
  1  7  1  0  0  0  0
  1 36  1  0  0  0  0
  2  5  1  0  0  0  0
  3  6  1  0  0  0  0
  4  7  1  0  0  0  0
  4  9  1  1  0  0  0
  6  4  1  0  0  0  0
  6  8  2  0  0  0  0
  7  2  2  0  0  0  0
  8  5  1  0  0  0  0
  9 14  1  0  0  0  0
 10 17  1  0  0  0  0
 11 13  2  0  0  0  0
 12 15  1  0  0  0  0
 13 10  1  0  0  0  0
 14 12  2  0  0  0  0
 14 11  1  0  0  0  0
 15 10  2  0  0  0  0
 17 18  1  0  0  0  0
 17 16  2  0  0  0  0
 18 20  1  0  0  0  0
 20 19  2  0  0  0  0
 22 30  1  1  0  0  0
 24 29  1  1  0  0  0
 24 27  1  0  0  0  0
 25 20  1  6  0  0  0
 25 28  1  0  0  0  0
 26 21  1  0  0  0  0
 27 22  1  0  0  0  0
 27 26  1  1  0  0  0
 28 22  1  0  0  0  0
 28 23  1  1  0  0  0
 29 25  1  0  0  0  0
 30 21  1  0  0  0  0
 31 34  1  1  0  0  0
 31 33  1  0  0  0  0
 32 31  1  0  0  0  0
 33 32  1  6  0  0  0
 33 24  1  0  0  0  0
 35 31  1  0  0  0  0
 36 42  1  6  0  0  0
 36 37  1  0  0  0  0
 37 38  1  0  0  0  0
 40 39  1  0  0  0  0
 40 38  1  0  0  0  0
 41 40  1  0  0  0  0
 43 42  1  0  0  0  0
 44 43  1  0  0  0  0
 44 45  1  0  0  0  0
 46 45  1  0  0  0  0
 47 46  1  6  0  0  0
 47 50  1  0  0  0  0
 47 49  1  0  0  0  0
 49 48  1  0  0  0  0
 50 51  1  1  0  0  0
 50 53  1  0  0  0  0
 53 54  1  0  0  0  0
 53 52  1  1  0  0  0
 55 54  2  0  0  0  0
 55 59  1  0  0  0  0
 56 59  2  0  0  0  0
 57 59  1  0  0  0  0
 59 58  1  0  0  0  0
M  END
>  <MODEL>
7

>  <REMARK>
 VINA RESULT:      -6.3      2.695      4.198
  Name = 
  22 active torsions:
  status: ('A' for Active; 'I' for Inactive)
    1  A    between atoms: C_1  and  C_34
    2  A    between atoms: C_3  and  C_33
    3  A    between atoms: C_3  and  C_41
    4  A    between atoms: C_3  and  O_54
    5  A    between atoms: C_4  and  C_8
    6  A    between atoms: C_4  and  N_47
    7  A    between atoms: N_9  and  C_16
    8  A    between atoms: C_12  and  C_16
    9  A    between atoms: C_12  and  S_59
   10  A    between atoms: C_14  and  C_33
   11  A    between atoms: C_14  and  C_49
   12  A    between atoms: C_16  and  N_47
   13  A    between atoms: N_19  and  C_35
   14  A    between atoms: N_19  and  C_48
   15  A    between atoms: C_23  and  N_26
   16  A    between atoms: C_27  and  C_29
   17  A    between atoms: C_29  and  C_56
   18  A    between atoms: C_31  and  C_40
   19  A    between atoms: C_31  and  C_41
   20  A    between atoms: C_34  and  C_56
   21  A    between atoms: N_44  and  P_45
   22  A    between atoms: C_49  and  S_59
                            x       y       z     vdW  Elec       q    Type
                         _______ _______ _______ _____ _____    ______ ____

>  <TORSDO>
F 22

$$$$
=
 OpenBabel10232409113D

 59 63  0  0  1  0  0  0  0  0999 V2000
  186.2120  176.6170  137.1130 N   0  0  0  0  0  2  0  0  0  0  0  0
  185.0940  175.2560  135.5180 N   0  0  0  0  0  0  0  0  0  0  0  0
  182.1020  178.0730  134.9570 N   0  0  0  0  0  1  0  0  0  0  0  0
  183.7880  177.0390  136.5410 C   0  0  2  0  0  3  0  0  0  0  0  0
  183.9000  174.8240  134.7920 C   0  0  0  0  0  2  0  0  0  0  0  0
  182.9600  176.9870  135.2820 C   0  0  0  0  0  0  0  0  0  0  0  0
  185.0590  176.2620  136.3450 C   0  0  0  0  0  0  0  0  0  0  0  0
  183.0470  175.9710  134.4780 N   0  0  0  0  0  0  0  0  0  0  0  0
  183.0430  176.4620  137.6520 N   0  0  0  0  0  2  0  0  0  0  0  0
  182.7380  178.1580  141.5250 C   0  0  0  0  0  0  0  0  0  0  0  0
  184.1100  177.4500  139.6470 C   0  0  0  0  0  3  0  0  0  0  0  0
  181.7040  177.2160  139.5380 C   0  0  0  0  0  3  0  0  0  0  0  0
  183.9980  178.0000  140.9290 C   0  0  0  0  0  3  0  0  0  0  0  0
  182.9590  177.0560  138.9480 C   0  0  0  0  0  0  0  0  0  0  0  0
  181.5940  177.7640  140.8190 C   0  0  0  0  0  3  0  0  0  0  0  0
  181.5830  179.3790  143.1980 O   0  0  0  0  0  0  0  0  0  0  0  0
  182.6090  178.7170  142.8840 C   0  0  0  0  0  0  0  0  0  0  0  0
  183.6930  178.5460  143.9050 C   0  0  0  0  0  2  0  0  0  0  0  0
  184.9730  180.0460  142.5800 O   0  0  0  0  0  0  0  0  0  0  0  0
  184.9530  179.2650  143.5230 C   0  0  0  0  0  0  0  0  0  0  0  0
  188.2770  176.8980  148.1020 C   0  0  0  0  0  2  0  0  0  0  0  0
  186.8310  177.5390  146.2840 C   0  0  2  0  0  3  0  0  0  0  0  0
  185.6690  179.6260  146.6430 O   0  0  0  0  0  1  0  0  0  0  0  0
  188.4960  177.9520  144.4480 C   0  0  2  0  0  3  0  0  0  0  0  0
  186.1740  179.0850  144.3680 C   0  0  1  0  0  3  0  0  0  0  0  0
  189.1310  177.2330  146.8800 C   0  0  0  0  0  2  0  0  0  0  0  0
  188.2180  178.0220  145.9640 C   0  0  2  0  0  3  0  0  0  0  0  0
  185.7940  178.5470  145.7650 C   0  0  1  0  0  3  0  0  0  0  0  0
  187.2100  178.2150  143.6300 C   0  0  0  0  0  2  0  0  0  0  0  0
  186.8440  177.3100  147.7800 C   0  0  0  0  0  2  0  0  0  0  0  0
  190.4840  176.7740  143.6450 C   0  0  1  0  0  0  0  0  0  0  0  0
  189.4480  176.7460  142.6320 C   0  0  0  0  0  2  0  0  0  0  0  0
  189.0650  176.6560  144.0640 N   0  0  2  0  0  0  0  0  0  0  0  0
  191.2960  175.5150  143.8670 C   0  0  0  0  0  1  0  0  0  0  0  0
  191.0830  178.0170  143.8740 O   0  0  0  0  0  1  0  0  0  0  0  0
  187.4180  175.8020  137.1740 C   0  0  2  0  0  3  0  0  0  0  0  0
  188.3700  176.3940  138.1060 N   0  0  0  0  0  2  0  0  0  0  0  0
  187.8490  177.6880  138.5190 C   0  0  0  0  0  2  0  0  0  0  0  0
  189.3300  179.1320  137.3800 F   0  0  0  0  0  0  0  0  0  0  0  0
  188.9810  178.6830  138.6400 C   0  0  0  0  0  3  0  0  0  0  0  0
  190.0750  178.0810  139.2320 F   0  0  0  0  0  0  0  0  0  0  0  0
  188.0360  175.6770  135.7820 C   0  0  0  0  0  2  0  0  0  0  0  0
  188.1960  177.2980  134.9660 S   0  0  0  0  0  0  0  0  0  0  0  0
  189.9910  177.1090  134.7980 C   0  0  0  0  0  2  0  0  0  0  0  0
  190.3910  175.7120  135.2270 C   0  0  0  0  0  2  0  0  0  0  0  0
  191.2140  175.7720  136.5030 C   0  0  0  0  0  2  0  0  0  0  0  0
  192.6620  176.1770  136.2030 C   0  0  1  0  0  3  0  0  0  0  0  0
  192.5760  176.5380  138.4810 C   0  0  0  0  0  1  0  0  0  0  0  0
  193.4190  176.4910  137.3580 O   0  0  0  0  0  0  0  0  0  0  0  0
  193.3680  175.2330  135.2070 C   0  0  2  0  0  3  0  0  0  0  0  0
  193.4870  173.9330  135.7020 O   0  0  0  0  0  1  0  0  0  0  0  0
  194.6880  177.1340  134.5140 O   0  0  0  0  0  1  0  0  0  0  0  0
  194.7110  175.7460  134.6770 C   0  0  1  0  0  3  0  0  0  0  0  0
  195.8920  175.3190  135.5010 C   0  0  0  0  0  3  0  0  0  0  0  0
  197.0540  175.1770  134.9740 N   0  0  0  0  0  0  0  0  0  0  0  0
  199.6750  175.3200  135.4030 O   0  0  0  0  0  0  0  0  0  0  0  0
  198.1640  175.2600  137.5380 O   0  0  0  0  0  1  0  0  0  0  0  0
  198.5450  173.0250  135.9640 O   0  0  0  0  0  1  0  0  0  0  0  0
  198.4070  174.7110  135.9580 P   0  0  0  0  0  0  0  0  0  0  0  0
  1 36  1  0  0  0  0
  2  7  2  0  0  0  0
  3  6  1  0  0  0  0
  4  9  1  1  0  0  0
  5  2  1  0  0  0  0
  6  4  1  0  0  0  0
  7  4  1  0  0  0  0
  7  1  1  0  0  0  0
  8  5  1  0  0  0  0
  8  6  2  0  0  0  0
  9 14  1  0  0  0  0
 10 17  1  0  0  0  0
 11 13  2  0  0  0  0
 12 15  1  0  0  0  0
 13 10  1  0  0  0  0
 14 12  2  0  0  0  0
 14 11  1  0  0  0  0
 15 10  2  0  0  0  0
 17 16  2  0  0  0  0
 17 18  1  0  0  0  0
 19 20  2  0  0  0  0
 20 18  1  0  0  0  0
 22 30  1  1  0  0  0
 24 29  1  6  0  0  0
 24 27  1  0  0  0  0
 25 20  1  6  0  0  0
 25 28  1  0  0  0  0
 26 21  1  0  0  0  0
 27 22  1  0  0  0  0
 27 26  1  1  0  0  0
 28 22  1  0  0  0  0
 28 23  1  1  0  0  0
 29 25  1  0  0  0  0
 30 21  1  0  0  0  0
 31 34  1  1  0  0  0
 31 35  1  0  0  0  0
 31 33  1  0  0  0  0
 32 31  1  0  0  0  0
 33 32  1  6  0  0  0
 33 24  1  0  0  0  0
 36 42  1  6  0  0  0
 36 37  1  0  0  0  0
 37 38  1  0  0  0  0
 38 40  1  0  0  0  0
 39 40  1  0  0  0  0
 40 41  1  0  0  0  0
 43 42  1  0  0  0  0
 44 43  1  0  0  0  0
 44 45  1  0  0  0  0
 45 46  1  0  0  0  0
 47 46  1  1  0  0  0
 47 49  1  0  0  0  0
 49 48  1  0  0  0  0
 50 51  1  1  0  0  0
 50 47  1  0  0  0  0
 53 52  1  1  0  0  0
 53 50  1  0  0  0  0
 53 54  1  0  0  0  0
 55 54  2  0  0  0  0
 55 59  1  0  0  0  0
 56 59  2  0  0  0  0
 59 58  1  0  0  0  0
 59 57  1  0  0  0  0
M  END
>  <MODEL>
8

>  <REMARK>
 VINA RESULT:      -6.2      2.949      4.554
  Name = 
  22 active torsions:
  status: ('A' for Active; 'I' for Inactive)
    1  A    between atoms: C_1  and  C_34
    2  A    between atoms: C_3  and  C_33
    3  A    between atoms: C_3  and  C_41
    4  A    between atoms: C_3  and  O_54
    5  A    between atoms: C_4  and  C_8
    6  A    between atoms: C_4  and  N_47
    7  A    between atoms: N_9  and  C_16
    8  A    between atoms: C_12  and  C_16
    9  A    between atoms: C_12  and  S_59
   10  A    between atoms: C_14  and  C_33
   11  A    between atoms: C_14  and  C_49
   12  A    between atoms: C_16  and  N_47
   13  A    between atoms: N_19  and  C_35
   14  A    between atoms: N_19  and  C_48
   15  A    between atoms: C_23  and  N_26
   16  A    between atoms: C_27  and  C_29
   17  A    between atoms: C_29  and  C_56
   18  A    between atoms: C_31  and  C_40
   19  A    between atoms: C_31  and  C_41
   20  A    between atoms: C_34  and  C_56
   21  A    between atoms: N_44  and  P_45
   22  A    between atoms: C_49  and  S_59
                            x       y       z     vdW  Elec       q    Type
                         _______ _______ _______ _____ _____    ______ ____

>  <TORSDO>
F 22

$$$$
=
 OpenBabel10232409113D

 59 63  0  0  1  0  0  0  0  0999 V2000
  189.1350  176.6180  144.2630 N   0  0  0  0  0  2  0  0  0  0  0  0
  189.3320  177.9830  146.1970 N   0  0  0  0  0  0  0  0  0  0  0  0
  185.4400  177.1700  147.3780 N   0  0  0  0  0  1  0  0  0  0  0  0
  187.0730  177.4510  145.4610 C   0  0  2  0  0  3  0  0  0  0  0  0
  188.7690  178.8200  147.2570 C   0  0  0  0  0  2  0  0  0  0  0  0
  186.6840  177.6650  146.9010 C   0  0  0  0  0  0  0  0  0  0  0  0
  188.5680  177.3610  145.3460 C   0  0  0  0  0  0  0  0  0  0  0  0
  187.4920  178.2740  147.7180 N   0  0  0  0  0  0  0  0  0  0  0  0
  186.5980  178.5610  144.6460 N   0  0  0  0  0  2  0  0  0  0  0  0
  182.6240  178.8380  143.1950 C   0  0  0  0  0  0  0  0  0  0  0  0
  184.2250  179.1430  144.9990 C   0  0  0  0  0  3  0  0  0  0  0  0
  184.9710  178.3040  142.8560 C   0  0  0  0  0  3  0  0  0  0  0  0
  182.9150  179.2210  144.5130 C   0  0  0  0  0  3  0  0  0  0  0  0
  185.2580  178.6830  144.1690 C   0  0  0  0  0  0  0  0  0  0  0  0
  183.6620  178.3810  142.3720 C   0  0  0  0  0  3  0  0  0  0  0  0
  180.3440  179.4690  143.3500 O   0  0  0  0  0  0  0  0  0  0  0  0
  181.2440  178.8960  142.6780 C   0  0  0  0  0  0  0  0  0  0  0  0
  180.8710  178.2580  141.3750 C   0  0  0  0  0  2  0  0  0  0  0  0
  180.4510  180.3140  140.2610 O   0  0  0  0  0  0  0  0  0  0  0  0
  180.9820  179.2120  140.2210 C   0  0  0  0  0  0  0  0  0  0  0  0
  186.1560  177.5490  137.3780 C   0  0  0  0  0  2  0  0  0  0  0  0
  184.2290  178.0270  138.7430 C   0  0  2  0  0  3  0  0  0  0  0  0
  183.6530  180.3710  138.8420 O   0  0  0  0  0  1  0  0  0  0  0  0
  182.4040  176.8940  137.4390 C   0  0  2  0  0  3  0  0  0  0  0  0
  181.8320  178.8340  139.0500 C   0  0  1  0  0  3  0  0  0  0  0  0
  184.9140  176.9590  136.7110 C   0  0  0  0  0  2  0  0  0  0  0  0
  183.7420  177.6580  137.3700 C   0  0  2  0  0  3  0  0  0  0  0  0
  183.3220  179.1110  139.3460 C   0  0  1  0  0  3  0  0  0  0  0  0
  181.5430  177.3790  138.6300 C   0  0  0  0  0  2  0  0  0  0  0  0
  185.6790  178.4110  138.5430 C   0  0  0  0  0  2  0  0  0  0  0  0
  182.2220  174.7360  136.3030 C   0  0  1  0  0  0  0  0  0  0  0  0
  181.2890  174.7940  137.4100 C   0  0  0  0  0  2  0  0  0  0  0  0
  182.6150  175.4460  137.5440 N   0  0  2  0  0  0  0  0  0  0  0  0
  182.9720  173.4410  136.0720 C   0  0  0  0  0  1  0  0  0  0  0  0
  181.9210  175.5500  135.2060 O   0  0  0  0  0  1  0  0  0  0  0  0
  190.5510  176.6490  143.9220 C   0  0  2  0  0  3  0  0  0  0  0  0
  191.3450  176.8620  145.1250 N   0  0  0  0  0  2  0  0  0  0  0  0
  191.8750  175.5760  145.5480 C   0  0  0  0  0  2  0  0  0  0  0  0
  191.4850  176.7120  147.5810 F   0  0  0  0  0  0  0  0  0  0  0  0
  191.9900  175.5370  147.0550 C   0  0  0  0  0  3  0  0  0  0  0  0
  193.3160  175.4020  147.4220 F   0  0  0  0  0  0  0  0  0  0  0  0
  190.8180  177.7540  142.9000 C   0  0  0  0  0  2  0  0  0  0  0  0
  190.8990  177.0970  141.2020 S   0  0  0  0  0  0  0  0  0  0  0  0
  192.6080  177.6640  140.9950 C   0  0  0  0  0  2  0  0  0  0  0  0
  193.1000  177.2840  139.6130 C   0  0  0  0  0  2  0  0  0  0  0  0
  191.9820  176.6250  138.8230 C   0  0  0  0  0  2  0  0  0  0  0  0
  192.4800  176.1600  137.4500 C   0  0  1  0  0  3  0  0  0  0  0  0
  193.0310  173.9200  137.3820 C   0  0  0  0  0  1  0  0  0  0  0  0
  193.5400  175.2230  137.5130 O   0  0  0  0  0  0  0  0  0  0  0  0
  191.3400  175.7800  136.4820 C   0  0  2  0  0  3  0  0  0  0  0  0
  191.6330  176.1180  135.1590 O   0  0  0  0  0  1  0  0  0  0  0  0
  189.7550  177.6030  136.4450 O   0  0  0  0  0  1  0  0  0  0  0  0
  189.9540  176.2920  136.8870 C   0  0  1  0  0  3  0  0  0  0  0  0
  188.8260  175.3990  136.4550 C   0  0  0  0  0  3  0  0  0  0  0  0
  188.5980  174.2830  137.0460 N   0  0  0  0  0  0  0  0  0  0  0  0
  187.7270  171.8530  136.4040 O   0  0  0  0  0  1  0  0  0  0  0  0
  186.0370  173.3720  137.7000 O   0  0  0  0  0  1  0  0  0  0  0  0
  186.6800  173.8390  135.0570 O   0  0  0  0  0  0  0  0  0  0  0  0
  187.2670  173.2860  136.5440 P   0  0  0  0  0  0  0  0  0  0  0  0
  1  7  1  0  0  0  0
  2  5  1  0  0  0  0
  4  9  1  6  0  0  0
  4  6  1  0  0  0  0
  5  8  1  0  0  0  0
  6  3  1  0  0  0  0
  6  8  2  0  0  0  0
  7  4  1  0  0  0  0
  7  2  2  0  0  0  0
 10 13  1  0  0  0  0
 12 14  2  0  0  0  0
 13 11  2  0  0  0  0
 14  9  1  0  0  0  0
 14 11  1  0  0  0  0
 15 12  1  0  0  0  0
 15 10  2  0  0  0  0
 17 10  1  0  0  0  0
 17 16  2  0  0  0  0
 18 17  1  0  0  0  0
 20 19  2  0  0  0  0
 20 18  1  0  0  0  0
 21 30  1  0  0  0  0
 22 30  1  6  0  0  0
 22 28  1  0  0  0  0
 24 33  1  0  0  0  0
 24 29  1  1  0  0  0
 25 28  1  0  0  0  0
 25 20  1  1  0  0  0
 26 21  1  0  0  0  0
 27 26  1  1  0  0  0
 27 24  1  0  0  0  0
 27 22  1  0  0  0  0
 28 23  1  6  0  0  0
 29 25  1  0  0  0  0
 31 34  1  6  0  0  0
 31 32  1  0  0  0  0
 31 33  1  0  0  0  0
 33 32  1  1  0  0  0
 35 31  1  0  0  0  0
 36 42  1  6  0  0  0
 36  1  1  0  0  0  0
 36 37  1  0  0  0  0
 37 38  1  0  0  0  0
 38 40  1  0  0  0  0
 40 41  1  0  0  0  0
 40 39  1  0  0  0  0
 43 42  1  0  0  0  0
 44 43  1  0  0  0  0
 45 44  1  0  0  0  0
 46 45  1  0  0  0  0
 47 49  1  0  0  0  0
 47 46  1  1  0  0  0
 48 49  1  0  0  0  0
 50 51  1  6  0  0  0
 50 53  1  0  0  0  0
 50 47  1  0  0  0  0
 53 52  1  6  0  0  0
 54 53  1  0  0  0  0
 54 55  2  0  0  0  0
 56 59  1  0  0  0  0
 58 59  2  0  0  0  0
 59 55  1  0  0  0  0
 59 57  1  0  0  0  0
M  END
>  <MODEL>
9

>  <REMARK>
 VINA RESULT:      -6.2      4.170      9.124
  Name = 
  22 active torsions:
  status: ('A' for Active; 'I' for Inactive)
    1  A    between atoms: C_1  and  C_34
    2  A    between atoms: C_3  and  C_33
    3  A    between atoms: C_3  and  C_41
    4  A    between atoms: C_3  and  O_54
    5  A    between atoms: C_4  and  C_8
    6  A    between atoms: C_4  and  N_47
    7  A    between atoms: N_9  and  C_16
    8  A    between atoms: C_12  and  C_16
    9  A    between atoms: C_12  and  S_59
   10  A    between atoms: C_14  and  C_33
   11  A    between atoms: C_14  and  C_49
   12  A    between atoms: C_16  and  N_47
   13  A    between atoms: N_19  and  C_35
   14  A    between atoms: N_19  and  C_48
   15  A    between atoms: C_23  and  N_26
   16  A    between atoms: C_27  and  C_29
   17  A    between atoms: C_29  and  C_56
   18  A    between atoms: C_31  and  C_40
   19  A    between atoms: C_31  and  C_41
   20  A    between atoms: C_34  and  C_56
   21  A    between atoms: N_44  and  P_45
   22  A    between atoms: C_49  and  S_59
                            x       y       z     vdW  Elec       q    Type
                         _______ _______ _______ _____ _____    ______ ____

>  <TORSDO>
F 22

$$$$
