=
 OpenBabel10232407473D

 55 58  0  0  1  0  0  0  0  0999 V2000
  189.6520  176.9620  141.0420 S   0  0  0  0  0  0  0  0  0  0  0  0
  191.8410  177.6070  139.7520 N   0  0  0  0  0  0  0  0  0  0  0  0
  189.5110  177.6720  139.3700 C   0  0  1  0  0  3  0  0  0  0  0  0
  191.3910  177.3360  140.9330 C   0  0  0  0  0  0  0  0  0  0  0  0
  190.8710  177.4780  138.6850 C   0  0  2  0  0  3  0  0  0  0  0  0
  191.0950  176.1440  138.0040 C   0  0  0  0  0  0  0  0  0  0  0  0
  190.5380  175.0930  138.4320 O   0  0  0  0  0  0  0  0  0  0  0  0
  192.0540  176.0550  136.8770 C   0  0  0  0  0  0  0  0  0  0  0  0
  191.6270  175.8540  135.7130 O   0  0  0  0  0  0  0  0  0  0  0  0
  193.5340  176.2250  137.0670 C   0  0  1  0  0  3  0  0  0  0  0  0
  194.1500  175.0080  137.7410 C   0  0  0  0  0  1  0  0  0  0  0  0
  194.2150  176.5420  135.7450 C   0  0  0  0  0  2  0  0  0  0  0  0
  195.5780  176.2500  135.8320 O   0  0  0  0  0  1  0  0  0  0  0  0
  191.8420  177.7230  143.2860 N   0  0  0  0  0  0  0  0  0  0  0  0
  192.2140  177.3810  142.1090 N   0  0  0  0  0  0  0  0  0  0  0  0
  190.5220  179.4310  144.1800 O   0  0  0  0  0  1  0  0  0  0  0  0
  190.4920  178.1390  143.6580 C   0  0  2  0  0  3  0  0  0  0  0  0
  189.8680  177.1650  144.6760 C   0  0  2  0  0  3  0  0  0  0  0  0
  188.9340  177.8700  145.6920 C   0  0  2  0  0  3  0  0  0  0  0  0
  188.7740  177.1650  147.0170 C   0  0  0  0  0  2  0  0  0  0  0  0
  187.5830  178.1490  145.1820 N   0  0  0  0  0  0  0  0  0  0  0  0
  187.5070  177.7700  147.5760 C   0  0  0  0  0  2  0  0  0  0  0  0
  186.7730  178.3600  146.3780 C   0  0  0  0  0  2  0  0  0  0  0  0
  187.0230  176.9700  144.5200 C   0  0  0  0  0  2  0  0  0  0  0  0
  186.5890  177.3390  143.1140 C   0  0  0  0  0  2  0  0  0  0  0  0
  186.0690  178.7560  143.1000 C   0  0  0  0  0  2  0  0  0  0  0  0
  183.8600  178.7910  144.1980 N   0  0  0  0  0  0  0  0  0  0  0  0
  184.5800  178.7540  143.0420 C   0  0  0  0  0  0  0  0  0  0  0  0
  184.6210  178.7260  140.6100 O   0  0  0  0  0  1  0  0  0  0  0  0
  183.9140  178.7500  141.8060 C   0  0  0  0  0  0  0  0  0  0  0  0
  182.5170  178.7690  141.7840 C   0  0  0  0  0  3  0  0  0  0  0  0
  182.4990  178.8190  144.1910 C   0  0  0  0  0  3  0  0  0  0  0  0
  181.8010  178.8060  142.9810 C   0  0  0  0  0  3  0  0  0  0  0  0
  190.9230  176.2670  145.3450 C   0  0  1  0  0  3  0  0  0  0  0  0
  191.6240  175.3940  144.3140 C   0  0  0  0  0  1  0  0  0  0  0  0
  192.1910  176.2340  147.1660 C   0  0  0  0  0  1  0  0  0  0  0  0
  191.8650  177.0180  146.0600 O   0  0  0  0  0  0  0  0  0  0  0  0
  188.3930  177.0990  138.6340 N   0  0  0  0  0  2  0  0  0  0  0  0
  187.3670  178.0520  138.6380 N   0  0  0  0  0  2  0  0  0  0  0  0
  186.9970  178.2940  137.2480 C   0  0  2  0  0  3  0  0  0  0  0  0
  185.7120  177.5570  136.8710 C   0  0  1  0  0  3  0  0  0  0  0  0
  187.0570  176.9970  136.4660 C   0  0  0  0  0  2  0  0  0  0  0  0
  185.2000  176.8110  137.9390 O   0  0  0  0  0  0  0  0  0  0  0  0
  183.8430  176.6410  137.6480 C   0  0  1  0  0  3  0  0  0  0  0  0
  183.5140  177.2450  136.2880 C   0  0  0  0  0  2  0  0  0  0  0  0
  181.6990  178.4170  135.2680 O   0  0  0  0  0  0  0  0  0  0  0  0
  181.4810  178.0080  137.5190 O   0  0  0  0  0  1  0  0  0  0  0  0
  182.1790  177.9100  136.3210 C   0  0  0  0  0  0  0  0  0  0  0  0
  183.4870  175.1620  137.6690 C   0  0  0  0  0  2  0  0  0  0  0  0
  184.6400  174.3770  137.6080 O   0  0  0  0  0  0  0  0  0  0  0  0
  184.5640  173.7310  136.3730 C   0  0  0  0  0  2  0  0  0  0  0  0
  185.9620  173.5400  135.8010 C   0  0  0  0  0  2  0  0  0  0  0  0
  188.0440  172.7940  136.9520 C   0  0  0  0  0  1  0  0  0  0  0  0
  186.6680  172.3730  136.4710 C   0  0  0  0  0  3  0  0  0  0  0  0
  186.8070  171.2360  135.4850 C   0  0  0  0  0  1  0  0  0  0  0  0
  2  4  2  0  0  0  0
  3 38  1  6  0  0  0
  3  1  1  0  0  0  0
  4  1  1  0  0  0  0
  4 15  1  0  0  0  0
  5  6  1  1  0  0  0
  5  3  1  0  0  0  0
  5  2  1  0  0  0  0
  6  7  2  0  0  0  0
  8 10  1  0  0  0  0
  8  6  1  0  0  0  0
  9  8  2  0  0  0  0
 10 11  1  6  0  0  0
 12 13  1  0  0  0  0
 12 10  1  0  0  0  0
 14 17  1  0  0  0  0
 15 14  2  0  0  0  0
 17 16  1  1  0  0  0
 18 17  1  1  0  0  0
 18 34  1  0  0  0  0
 19 18  1  6  0  0  0
 19 20  1  0  0  0  0
 20 22  1  0  0  0  0
 21 19  1  0  0  0  0
 21 23  1  0  0  0  0
 23 22  1  0  0  0  0
 24 21  1  0  0  0  0
 25 24  1  0  0  0  0
 26 25  1  0  0  0  0
 28 26  1  0  0  0  0
 28 27  2  0  0  0  0
 29 30  1  0  0  0  0
 30 28  1  0  0  0  0
 31 30  2  0  0  0  0
 31 33  1  0  0  0  0
 32 27  1  0  0  0  0
 33 32  2  0  0  0  0
 34 35  1  6  0  0  0
 34 37  1  0  0  0  0
 37 36  1  0  0  0  0
 38 39  1  0  0  0  0
 40 39  1  1  0  0  0
 41 40  1  0  0  0  0
 41 43  1  1  0  0  0
 42 41  1  0  0  0  0
 42 40  1  0  0  0  0
 44 45  1  6  0  0  0
 44 49  1  0  0  0  0
 44 43  1  0  0  0  0
 45 48  1  0  0  0  0
 46 48  2  0  0  0  0
 48 47  1  0  0  0  0
 50 49  1  0  0  0  0
 51 50  1  0  0  0  0
 52 51  1  0  0  0  0
 52 54  1  0  0  0  0
 54 53  1  0  0  0  0
 55 54  1  0  0  0  0
M  END
>  <MODEL>
1

>  <REMARK>
 VINA RESULT:      -6.5      0.000      0.000
  Name = 
  26 active torsions:
  status: ('A' for Active; 'I' for Inactive)
    1  A    between atoms: C_4  and  C_54
    2  A    between atoms: C_5  and  O_26
    3  A    between atoms: C_5  and  C_44
    4  A    between atoms: C_7  and  C_20
    5  A    between atoms: C_8  and  C_15
    6  A    between atoms: C_8  and  C_50
    7  A    between atoms: O_9  and  C_32
    8  A    between atoms: O_9  and  C_49
    9  A    between atoms: C_11  and  O_45
   10  A    between atoms: C_11  and  C_54
   11  A    between atoms: C_12  and  C_18
   12  A    between atoms: C_12  and  C_41
   13  A    between atoms: N_14  and  C_33
   14  A    between atoms: C_15  and  C_20
   15  A    between atoms: C_16  and  C_44
   16  A    between atoms: C_18  and  C_19
   17  A    between atoms: C_24  and  N_25
   18  A    between atoms: N_25  and  N_31
   19  A    between atoms: O_26  and  C_47
   20  A    between atoms: N_31  and  C_36
   21  A    between atoms: C_32  and  C_47
   22  A    between atoms: C_32  and  C_52
   23  A    between atoms: C_33  and  C_54
   24  A    between atoms: N_39  and  C_41
   25  A    between atoms: C_40  and  N_53
   26  A    between atoms: C_48  and  C_52
                            x       y       z     vdW  Elec       q    Type
                         _______ _______ _______ _____ _____    ______ ____

>  <TORSDO>
F 26

$$$$
=
 OpenBabel10232407473D

 55 58  0  0  1  0  0  0  0  0999 V2000
  189.6380  176.6910  141.5440 S   0  0  0  0  0  0  0  0  0  0  0  0
  191.9610  177.5140  140.6510 N   0  0  0  0  0  0  0  0  0  0  0  0
  189.7000  177.6090  139.9720 C   0  0  1  0  0  3  0  0  0  0  0  0
  191.3660  177.0890  141.7170 C   0  0  0  0  0  0  0  0  0  0  0  0
  191.1420  177.5160  139.4550 C   0  0  2  0  0  3  0  0  0  0  0  0
  191.4880  176.2810  138.6480 C   0  0  0  0  0  0  0  0  0  0  0  0
  190.7560  175.2520  138.6870 O   0  0  0  0  0  0  0  0  0  0  0  0
  192.7510  176.2500  137.8730 C   0  0  0  0  0  0  0  0  0  0  0  0
  193.6550  177.0850  138.1250 O   0  0  0  0  0  0  0  0  0  0  0  0
  193.0110  175.2300  136.8020 C   0  0  1  0  0  3  0  0  0  0  0  0
  192.6980  175.7850  135.4200 C   0  0  0  0  0  1  0  0  0  0  0  0
  194.4360  174.7070  136.8890 C   0  0  0  0  0  2  0  0  0  0  0  0
  195.1740  175.1560  135.7920 O   0  0  0  0  0  1  0  0  0  0  0  0
  191.5110  177.2360  144.1350 N   0  0  0  0  0  0  0  0  0  0  0  0
  192.0260  176.9900  142.9880 N   0  0  0  0  0  0  0  0  0  0  0  0
  190.0650  179.0640  144.2940 O   0  0  0  0  0  1  0  0  0  0  0  0
  190.1370  177.6750  144.3680 C   0  0  2  0  0  3  0  0  0  0  0  0
  189.6180  177.1830  145.7330 C   0  0  2  0  0  3  0  0  0  0  0  0
  188.4600  178.0520  146.2870 C   0  0  2  0  0  3  0  0  0  0  0  0
  187.8690  177.5800  147.5930 C   0  0  0  0  0  2  0  0  0  0  0  0
  187.3450  178.2470  145.3480 N   0  0  0  0  0  0  0  0  0  0  0  0
  186.5270  178.2750  147.6320 C   0  0  0  0  0  2  0  0  0  0  0  0
  186.2240  178.6580  146.1890 C   0  0  0  0  0  2  0  0  0  0  0  0
  186.9470  176.9760  144.7420 C   0  0  0  0  0  2  0  0  0  0  0  0
  186.4850  177.2180  143.3180 C   0  0  0  0  0  2  0  0  0  0  0  0
  186.0240  178.6490  143.1730 C   0  0  0  0  0  2  0  0  0  0  0  0
  183.7040  178.8440  143.9890 N   0  0  0  0  0  0  0  0  0  0  0  0
  184.5530  178.6900  142.9350 C   0  0  0  0  0  0  0  0  0  0  0  0
  184.8800  178.4640  140.5350 O   0  0  0  0  0  1  0  0  0  0  0  0
  184.0390  178.6080  141.6310 C   0  0  0  0  0  0  0  0  0  0  0  0
  182.6560  178.6700  141.4390 C   0  0  0  0  0  3  0  0  0  0  0  0
  182.3550  178.9150  143.8150 C   0  0  0  0  0  3  0  0  0  0  0  0
  181.8050  178.8270  142.5340 C   0  0  0  0  0  3  0  0  0  0  0  0
  190.7560  176.9720  146.7470 C   0  0  1  0  0  3  0  0  0  0  0  0
  190.5410  177.8250  147.9880 C   0  0  0  0  0  1  0  0  0  0  0  0
  192.2360  175.4580  147.4150 C   0  0  0  0  0  1  0  0  0  0  0  0
  190.8860  175.6240  147.1050 O   0  0  0  0  0  0  0  0  0  0  0  0
  188.7040  177.1270  139.0270 N   0  0  0  0  0  2  0  0  0  0  0  0
  187.7850  178.1650  138.8320 N   0  0  0  0  0  2  0  0  0  0  0  0
  187.8160  178.5100  137.4150 C   0  0  2  0  0  3  0  0  0  0  0  0
  186.6860  177.8260  136.6450 C   0  0  1  0  0  3  0  0  0  0  0  0
  188.0900  177.2680  136.5900 C   0  0  0  0  0  2  0  0  0  0  0  0
  185.8970  177.0190  137.4740 O   0  0  0  0  0  0  0  0  0  0  0  0
  184.6950  176.8490  136.7800 C   0  0  1  0  0  3  0  0  0  0  0  0
  184.6260  175.4530  136.1730 C   0  0  0  0  0  2  0  0  0  0  0  0
  184.3090  173.7270  137.7940 O   0  0  0  0  0  1  0  0  0  0  0  0
  186.4930  174.2990  137.3630 O   0  0  0  0  0  0  0  0  0  0  0  0
  185.1270  174.4370  137.1440 C   0  0  0  0  0  0  0  0  0  0  0  0
  183.5170  177.0770  137.7150 C   0  0  0  0  0  2  0  0  0  0  0  0
  183.1850  178.4330  137.7690 O   0  0  0  0  0  0  0  0  0  0  0  0
  181.9050  178.5060  137.2190 C   0  0  0  0  0  2  0  0  0  0  0  0
  180.9940  179.3140  138.1330 C   0  0  0  0  0  2  0  0  0  0  0  0
  180.7570  180.4730  135.9390 C   0  0  0  0  0  1  0  0  0  0  0  0
  180.4870  180.5630  137.4290 C   0  0  0  0  0  3  0  0  0  0  0  0
  181.1860  181.7780  137.9950 C   0  0  0  0  0  1  0  0  0  0  0  0
  1  4  1  0  0  0  0
  2  4  2  0  0  0  0
  3 38  1  6  0  0  0
  3  1  1  0  0  0  0
  4 15  1  0  0  0  0
  5  6  1  1  0  0  0
  5  3  1  0  0  0  0
  5  2  1  0  0  0  0
  6  7  2  0  0  0  0
  8  9  2  0  0  0  0
  8  6  1  0  0  0  0
 10 11  1  6  0  0  0
 10 12  1  0  0  0  0
 10  8  1  0  0  0  0
 13 12  1  0  0  0  0
 14 17  1  0  0  0  0
 15 14  2  0  0  0  0
 17 16  1  1  0  0  0
 18 17  1  6  0  0  0
 18 34  1  0  0  0  0
 19 18  1  6  0  0  0
 19 20  1  0  0  0  0
 20 22  1  0  0  0  0
 21 23  1  0  0  0  0
 21 19  1  0  0  0  0
 23 22  1  0  0  0  0
 24 21  1  0  0  0  0
 25 24  1  0  0  0  0
 26 25  1  0  0  0  0
 28 26  1  0  0  0  0
 28 27  2  0  0  0  0
 29 30  1  0  0  0  0
 30 28  1  0  0  0  0
 31 30  2  0  0  0  0
 31 33  1  0  0  0  0
 32 27  1  0  0  0  0
 33 32  2  0  0  0  0
 34 37  1  0  0  0  0
 34 35  1  1  0  0  0
 37 36  1  0  0  0  0
 39 38  1  0  0  0  0
 40 39  1  1  0  0  0
 41 40  1  0  0  0  0
 41 43  1  1  0  0  0
 42 41  1  0  0  0  0
 42 40  1  0  0  0  0
 44 45  1  1  0  0  0
 44 43  1  0  0  0  0
 44 49  1  0  0  0  0
 45 48  1  0  0  0  0
 48 47  2  0  0  0  0
 48 46  1  0  0  0  0
 49 50  1  0  0  0  0
 51 50  1  0  0  0  0
 51 52  1  0  0  0  0
 53 54  1  0  0  0  0
 54 55  1  0  0  0  0
 54 52  1  0  0  0  0
M  END
>  <MODEL>
2

>  <REMARK>
 VINA RESULT:      -6.4      1.380      3.462
  Name = 
  26 active torsions:
  status: ('A' for Active; 'I' for Inactive)
    1  A    between atoms: C_4  and  C_54
    2  A    between atoms: C_5  and  O_26
    3  A    between atoms: C_5  and  C_44
    4  A    between atoms: C_7  and  C_20
    5  A    between atoms: C_8  and  C_15
    6  A    between atoms: C_8  and  C_50
    7  A    between atoms: O_9  and  C_32
    8  A    between atoms: O_9  and  C_49
    9  A    between atoms: C_11  and  O_45
   10  A    between atoms: C_11  and  C_54
   11  A    between atoms: C_12  and  C_18
   12  A    between atoms: C_12  and  C_41
   13  A    between atoms: N_14  and  C_33
   14  A    between atoms: C_15  and  C_20
   15  A    between atoms: C_16  and  C_44
   16  A    between atoms: C_18  and  C_19
   17  A    between atoms: C_24  and  N_25
   18  A    between atoms: N_25  and  N_31
   19  A    between atoms: O_26  and  C_47
   20  A    between atoms: N_31  and  C_36
   21  A    between atoms: C_32  and  C_47
   22  A    between atoms: C_32  and  C_52
   23  A    between atoms: C_33  and  C_54
   24  A    between atoms: N_39  and  C_41
   25  A    between atoms: C_40  and  N_53
   26  A    between atoms: C_48  and  C_52
                            x       y       z     vdW  Elec       q    Type
                         _______ _______ _______ _____ _____    ______ ____

>  <TORSDO>
F 26

$$$$
=
 OpenBabel10232407473D

 55 58  0  0  1  0  0  0  0  0999 V2000
  189.6450  176.9040  141.3690 S   0  0  0  0  0  0  0  0  0  0  0  0
  192.0920  177.3920  140.5670 N   0  0  0  0  0  0  0  0  0  0  0  0
  189.8950  177.7700  139.7860 C   0  0  1  0  0  3  0  0  0  0  0  0
  191.4020  177.0740  141.6120 C   0  0  0  0  0  0  0  0  0  0  0  0
  191.3330  177.4760  139.3360 C   0  0  2  0  0  3  0  0  0  0  0  0
  191.5450  176.1890  138.5660 C   0  0  0  0  0  0  0  0  0  0  0  0
  190.6860  175.2630  138.5950 O   0  0  0  0  0  0  0  0  0  0  0  0
  192.8210  175.9770  137.8410 C   0  0  0  0  0  0  0  0  0  0  0  0
  193.4720  176.9680  137.4270 O   0  0  0  0  0  0  0  0  0  0  0  0
  193.3910  174.6090  137.6020 C   0  0  1  0  0  3  0  0  0  0  0  0
  193.0450  174.0990  136.2100 C   0  0  0  0  0  1  0  0  0  0  0  0
  194.8920  174.5980  137.8470 C   0  0  0  0  0  2  0  0  0  0  0  0
  195.1650  175.0630  139.1350 O   0  0  0  0  0  1  0  0  0  0  0  0
  191.4790  177.2880  144.0280 N   0  0  0  0  0  0  0  0  0  0  0  0
  191.9890  176.9170  142.9130 N   0  0  0  0  0  0  0  0  0  0  0  0
  190.3780  179.3240  144.3490 O   0  0  0  0  0  1  0  0  0  0  0  0
  190.1870  177.9530  144.1870 C   0  0  2  0  0  3  0  0  0  0  0  0
  189.4060  177.3760  145.3830 C   0  0  2  0  0  3  0  0  0  0  0  0
  188.1710  178.2300  145.7660 C   0  0  2  0  0  3  0  0  0  0  0  0
  187.3870  177.7320  146.9570 C   0  0  0  0  0  2  0  0  0  0  0  0
  187.2130  178.4380  144.6700 N   0  0  0  0  0  0  0  0  0  0  0  0
  186.0510  178.4210  146.8000 C   0  0  0  0  0  2  0  0  0  0  0  0
  185.9720  178.8300  145.3340 C   0  0  0  0  0  2  0  0  0  0  0  0
  186.9220  177.1760  143.9880 C   0  0  0  0  0  2  0  0  0  0  0  0
  185.8080  177.3930  142.9810 C   0  0  0  0  0  2  0  0  0  0  0  0
  185.9080  178.7860  142.4070 C   0  0  0  0  0  2  0  0  0  0  0  0
  185.2250  179.2240  140.0770 N   0  0  0  0  0  0  0  0  0  0  0  0
  184.8590  178.9860  141.3670 C   0  0  0  0  0  0  0  0  0  0  0  0
  183.0930  178.6430  143.0060 O   0  0  0  0  0  1  0  0  0  0  0  0
  183.4980  178.8970  141.7010 C   0  0  0  0  0  0  0  0  0  0  0  0
  182.5390  179.0690  140.6990 C   0  0  0  0  0  3  0  0  0  0  0  0
  184.3010  179.3850  139.0900 C   0  0  0  0  0  3  0  0  0  0  0  0
  182.9380  179.3130  139.3840 C   0  0  0  0  0  3  0  0  0  0  0  0
  190.3210  177.0620  146.5800 C   0  0  1  0  0  3  0  0  0  0  0  0
  189.5620  176.3010  147.6570 C   0  0  0  0  0  1  0  0  0  0  0  0
  192.0580  175.9350  147.3810 C   0  0  0  0  0  1  0  0  0  0  0  0
  191.4560  176.3400  146.1900 O   0  0  0  0  0  0  0  0  0  0  0  0
  188.8840  177.4030  138.8050 N   0  0  0  0  0  2  0  0  0  0  0  0
  188.2200  178.5790  138.4390 N   0  0  0  0  0  2  0  0  0  0  0  0
  188.3630  178.7270  136.9950 C   0  0  2  0  0  3  0  0  0  0  0  0
  187.2370  178.0180  136.2420 C   0  0  1  0  0  3  0  0  0  0  0  0
  188.5980  177.3700  136.3610 C   0  0  0  0  0  2  0  0  0  0  0  0
  186.3420  177.3810  137.1110 O   0  0  0  0  0  0  0  0  0  0  0  0
  185.6520  176.4610  136.3140 C   0  0  1  0  0  3  0  0  0  0  0  0
  185.3160  175.2110  137.1190 C   0  0  0  0  0  2  0  0  0  0  0  0
  187.4860  174.2220  136.9850 O   0  0  0  0  0  1  0  0  0  0  0  0
  185.7570  172.9450  136.1710 O   0  0  0  0  0  0  0  0  0  0  0  0
  186.2470  174.1000  136.7700 C   0  0  0  0  0  0  0  0  0  0  0  0
  184.3820  177.0960  135.7680 C   0  0  0  0  0  2  0  0  0  0  0  0
  183.2730  176.2920  136.0400 O   0  0  0  0  0  0  0  0  0  0  0  0
  182.2160  177.1890  136.2010 C   0  0  0  0  0  2  0  0  0  0  0  0
  181.3420  176.7550  137.3690 C   0  0  0  0  0  2  0  0  0  0  0  0
  180.8360  174.3500  137.7910 C   0  0  0  0  0  1  0  0  0  0  0  0
  181.8540  175.4600  137.9790 C   0  0  0  0  0  3  0  0  0  0  0  0
  182.1070  175.6640  139.4550 C   0  0  0  0  0  1  0  0  0  0  0  0
  1  4  1  0  0  0  0
  2  4  2  0  0  0  0
  3 38  1  6  0  0  0
  3  1  1  0  0  0  0
  4 15  1  0  0  0  0
  5  6  1  1  0  0  0
  5  3  1  0  0  0  0
  5  2  1  0  0  0  0
  6  7  2  0  0  0  0
  8  6  1  0  0  0  0
  9  8  2  0  0  0  0
 10 11  1  6  0  0  0
 10  8  1  0  0  0  0
 10 12  1  0  0  0  0
 12 13  1  0  0  0  0
 14 17  1  0  0  0  0
 15 14  2  0  0  0  0
 17 16  1  1  0  0  0
 18 17  1  6  0  0  0
 18 34  1  0  0  0  0
 19 18  1  6  0  0  0
 19 20  1  0  0  0  0
 21 23  1  0  0  0  0
 21 19  1  0  0  0  0
 22 20  1  0  0  0  0
 23 22  1  0  0  0  0
 24 21  1  0  0  0  0
 25 24  1  0  0  0  0
 26 25  1  0  0  0  0
 27 28  1  0  0  0  0
 28 30  2  0  0  0  0
 28 26  1  0  0  0  0
 30 29  1  0  0  0  0
 31 30  1  0  0  0  0
 32 33  1  0  0  0  0
 32 27  2  0  0  0  0
 33 31  2  0  0  0  0
 34 35  1  1  0  0  0
 37 34  1  0  0  0  0
 37 36  1  0  0  0  0
 39 38  1  0  0  0  0
 40 39  1  1  0  0  0
 41 42  1  0  0  0  0
 41 40  1  0  0  0  0
 41 43  1  1  0  0  0
 42 40  1  0  0  0  0
 44 49  1  1  0  0  0
 44 43  1  0  0  0  0
 44 45  1  0  0  0  0
 47 48  2  0  0  0  0
 48 46  1  0  0  0  0
 48 45  1  0  0  0  0
 49 50  1  0  0  0  0
 50 51  1  0  0  0  0
 51 52  1  0  0  0  0
 52 54  1  0  0  0  0
 53 54  1  0  0  0  0
 54 55  1  0  0  0  0
M  END
>  <MODEL>
3

>  <REMARK>
 VINA RESULT:      -6.2      1.614      3.073
  Name = 
  26 active torsions:
  status: ('A' for Active; 'I' for Inactive)
    1  A    between atoms: C_4  and  C_54
    2  A    between atoms: C_5  and  O_26
    3  A    between atoms: C_5  and  C_44
    4  A    between atoms: C_7  and  C_20
    5  A    between atoms: C_8  and  C_15
    6  A    between atoms: C_8  and  C_50
    7  A    between atoms: O_9  and  C_32
    8  A    between atoms: O_9  and  C_49
    9  A    between atoms: C_11  and  O_45
   10  A    between atoms: C_11  and  C_54
   11  A    between atoms: C_12  and  C_18
   12  A    between atoms: C_12  and  C_41
   13  A    between atoms: N_14  and  C_33
   14  A    between atoms: C_15  and  C_20
   15  A    between atoms: C_16  and  C_44
   16  A    between atoms: C_18  and  C_19
   17  A    between atoms: C_24  and  N_25
   18  A    between atoms: N_25  and  N_31
   19  A    between atoms: O_26  and  C_47
   20  A    between atoms: N_31  and  C_36
   21  A    between atoms: C_32  and  C_47
   22  A    between atoms: C_32  and  C_52
   23  A    between atoms: C_33  and  C_54
   24  A    between atoms: N_39  and  C_41
   25  A    between atoms: C_40  and  N_53
   26  A    between atoms: C_48  and  C_52
                            x       y       z     vdW  Elec       q    Type
                         _______ _______ _______ _____ _____    ______ ____

>  <TORSDO>
F 26

$$$$
=
 OpenBabel10232407473D

 55 58  0  0  1  0  0  0  0  0999 V2000
  187.4230  177.7260  139.8850 S   0  0  0  0  0  0  0  0  0  0  0  0
  185.8380  179.4650  141.0400 N   0  0  0  0  0  0  0  0  0  0  0  0
  187.9660  178.5180  141.4330 C   0  0  1  0  0  3  0  0  0  0  0  0
  186.0480  178.8590  139.9190 C   0  0  0  0  0  0  0  0  0  0  0  0
  186.7080  179.0590  142.1260 C   0  0  2  0  0  3  0  0  0  0  0  0
  185.9470  178.0810  142.9960 C   0  0  0  0  0  0  0  0  0  0  0  0
  184.9560  177.4400  142.5430 O   0  0  0  0  0  0  0  0  0  0  0  0
  186.3150  177.9410  144.4250 C   0  0  0  0  0  0  0  0  0  0  0  0
  187.4530  177.5090  144.7340 O   0  0  0  0  0  0  0  0  0  0  0  0
  185.3810  178.3260  145.5360 C   0  0  1  0  0  3  0  0  0  0  0  0
  186.1440  178.6820  146.8030 C   0  0  0  0  0  1  0  0  0  0  0  0
  184.4580  179.4530  145.1000 C   0  0  0  0  0  2  0  0  0  0  0  0
  183.1570  179.1960  145.5350 O   0  0  0  0  0  1  0  0  0  0  0  0
  184.0110  178.8950  138.5990 N   0  0  0  0  0  0  0  0  0  0  0  0
  185.2660  179.1090  138.7400 N   0  0  0  0  0  0  0  0  0  0  0  0
  183.1980  176.9540  139.6130 O   0  0  0  0  0  1  0  0  0  0  0  0
  183.1270  178.3460  139.6240 C   0  0  2  0  0  3  0  0  0  0  0  0
  181.6730  178.8100  139.4130 C   0  0  2  0  0  3  0  0  0  0  0  0
  181.5680  180.1010  138.5620 C   0  0  2  0  0  3  0  0  0  0  0  0
  180.6720  181.1760  139.1280 C   0  0  0  0  0  2  0  0  0  0  0  0
  181.1540  179.8780  137.1690 N   0  0  0  0  0  0  0  0  0  0  0  0
  180.3850  182.0490  137.9290 C   0  0  0  0  0  2  0  0  0  0  0  0
  180.6800  181.1810  136.7110 C   0  0  0  0  0  2  0  0  0  0  0  0
  179.9960  178.9850  137.1070 C   0  0  0  0  0  2  0  0  0  0  0  0
  180.2770  177.8600  136.1300 C   0  0  0  0  0  2  0  0  0  0  0  0
  181.7570  177.8040  135.8340 C   0  0  0  0  0  2  0  0  0  0  0  0
  181.5110  175.5930  136.9020 N   0  0  0  0  0  0  0  0  0  0  0  0
  182.3290  176.5220  136.3330 C   0  0  0  0  0  0  0  0  0  0  0  0
  184.5580  177.1700  135.6020 O   0  0  0  0  0  1  0  0  0  0  0  0
  183.7000  176.2490  136.1890 C   0  0  0  0  0  0  0  0  0  0  0  0
  184.2020  175.0280  136.6480 C   0  0  0  0  0  3  0  0  0  0  0  0
  181.9860  174.3970  137.3450 C   0  0  0  0  0  3  0  0  0  0  0  0
  183.3450  174.0930  137.2290 C   0  0  0  0  0  3  0  0  0  0  0  0
  180.8900  178.8910  140.7350 C   0  0  1  0  0  3  0  0  0  0  0  0
  179.9880  177.6770  140.9060 C   0  0  0  0  0  1  0  0  0  0  0  0
  180.9020  179.1240  142.9430 C   0  0  0  0  0  1  0  0  0  0  0  0
  181.7450  179.0140  141.8370 O   0  0  0  0  0  0  0  0  0  0  0  0
  188.7480  177.6090  142.2590 N   0  0  0  0  0  2  0  0  0  0  0  0
  189.5460  176.8510  141.3940 N   0  0  0  0  0  2  0  0  0  0  0  0
  190.4930  177.7650  140.7670 C   0  0  2  0  0  3  0  0  0  0  0  0
  191.1450  177.1410  139.5320 C   0  0  1  0  0  3  0  0  0  0  0  0
  191.8930  177.1880  140.8460 C   0  0  0  0  0  2  0  0  0  0  0  0
  190.6920  175.8360  139.3020 O   0  0  0  0  0  0  0  0  0  0  0  0
  190.8310  175.6400  137.9240 C   0  0  1  0  0  3  0  0  0  0  0  0
  190.4980  176.9230  137.1710 C   0  0  0  0  0  2  0  0  0  0  0  0
  189.0930  177.4350  135.3080 O   0  0  0  0  0  0  0  0  0  0  0  0
  188.2910  175.8340  136.7500 O   0  0  0  0  0  1  0  0  0  0  0  0
  189.2670  176.7410  136.3490 C   0  0  0  0  0  0  0  0  0  0  0  0
  192.2490  175.1930  137.6020 C   0  0  0  0  0  2  0  0  0  0  0  0
  192.3030  174.5960  136.3400 O   0  0  0  0  0  0  0  0  0  0  0  0
  193.6410  174.6930  135.9590 C   0  0  0  0  0  2  0  0  0  0  0  0
  194.5230  174.8230  137.1940 C   0  0  0  0  0  2  0  0  0  0  0  0
  195.7320  173.1730  135.7690 C   0  0  0  0  0  1  0  0  0  0  0  0
  195.7620  173.9520  137.0700 C   0  0  0  0  0  3  0  0  0  0  0  0
  195.8170  172.9870  138.2320 C   0  0  0  0  0  1  0  0  0  0  0  0
  1  4  1  0  0  0  0
  1  3  1  0  0  0  0
  2  5  1  0  0  0  0
  3  5  1  0  0  0  0
  3 38  1  1  0  0  0
  4  2  2  0  0  0  0
  5  6  1  6  0  0  0
  6  8  1  0  0  0  0
  7  6  2  0  0  0  0
  8  9  2  0  0  0  0
  8 10  1  0  0  0  0
 10 11  1  1  0  0  0
 12 13  1  0  0  0  0
 12 10  1  0  0  0  0
 14 15  2  0  0  0  0
 14 17  1  0  0  0  0
 15  4  1  0  0  0  0
 17 16  1  6  0  0  0
 18 17  1  1  0  0  0
 18 34  1  0  0  0  0
 19 20  1  0  0  0  0
 19 18  1  1  0  0  0
 21 19  1  0  0  0  0
 22 20  1  0  0  0  0
 23 21  1  0  0  0  0
 23 22  1  0  0  0  0
 24 21  1  0  0  0  0
 25 24  1  0  0  0  0
 26 25  1  0  0  0  0
 26 28  1  0  0  0  0
 27 32  1  0  0  0  0
 28 27  2  0  0  0  0
 29 30  1  0  0  0  0
 30 28  1  0  0  0  0
 30 31  2  0  0  0  0
 31 33  1  0  0  0  0
 33 32  2  0  0  0  0
 34 35  1  1  0  0  0
 34 37  1  0  0  0  0
 37 36  1  0  0  0  0
 39 38  1  0  0  0  0
 40 42  1  0  0  0  0
 40 39  1  1  0  0  0
 41 43  1  1  0  0  0
 41 40  1  0  0  0  0
 41 42  1  0  0  0  0
 44 45  1  6  0  0  0
 44 43  1  0  0  0  0
 46 48  2  0  0  0  0
 48 47  1  0  0  0  0
 48 45  1  0  0  0  0
 49 44  1  0  0  0  0
 50 49  1  0  0  0  0
 51 50  1  0  0  0  0
 51 52  1  0  0  0  0
 53 54  1  0  0  0  0
 54 52  1  0  0  0  0
 54 55  1  0  0  0  0
M  END
>  <MODEL>
4

>  <REMARK>
 VINA RESULT:      -6.2      2.715      8.920
  Name = 
  26 active torsions:
  status: ('A' for Active; 'I' for Inactive)
    1  A    between atoms: C_4  and  C_54
    2  A    between atoms: C_5  and  O_26
    3  A    between atoms: C_5  and  C_44
    4  A    between atoms: C_7  and  C_20
    5  A    between atoms: C_8  and  C_15
    6  A    between atoms: C_8  and  C_50
    7  A    between atoms: O_9  and  C_32
    8  A    between atoms: O_9  and  C_49
    9  A    between atoms: C_11  and  O_45
   10  A    between atoms: C_11  and  C_54
   11  A    between atoms: C_12  and  C_18
   12  A    between atoms: C_12  and  C_41
   13  A    between atoms: N_14  and  C_33
   14  A    between atoms: C_15  and  C_20
   15  A    between atoms: C_16  and  C_44
   16  A    between atoms: C_18  and  C_19
   17  A    between atoms: C_24  and  N_25
   18  A    between atoms: N_25  and  N_31
   19  A    between atoms: O_26  and  C_47
   20  A    between atoms: N_31  and  C_36
   21  A    between atoms: C_32  and  C_47
   22  A    between atoms: C_32  and  C_52
   23  A    between atoms: C_33  and  C_54
   24  A    between atoms: N_39  and  C_41
   25  A    between atoms: C_40  and  N_53
   26  A    between atoms: C_48  and  C_52
                            x       y       z     vdW  Elec       q    Type
                         _______ _______ _______ _____ _____    ______ ____

>  <TORSDO>
F 26

$$$$
=
 OpenBabel10232407473D

 55 58  0  0  1  0  0  0  0  0999 V2000
  189.4880  178.4310  139.2820 S   0  0  0  0  0  0  0  0  0  0  0  0
  190.0820  176.5270  140.9830 N   0  0  0  0  0  0  0  0  0  0  0  0
  188.1390  177.6130  140.1940 C   0  0  1  0  0  3  0  0  0  0  0  0
  190.5630  177.1970  139.9880 C   0  0  0  0  0  0  0  0  0  0  0  0
  188.7690  176.9480  141.4260 C   0  0  2  0  0  3  0  0  0  0  0  0
  188.9440  177.8270  142.6470 C   0  0  0  0  0  0  0  0  0  0  0  0
  189.4000  179.0010  142.5440 O   0  0  0  0  0  0  0  0  0  0  0  0
  188.6620  177.2690  143.9910 C   0  0  0  0  0  0  0  0  0  0  0  0
  189.6100  176.8600  144.7050 O   0  0  0  0  0  0  0  0  0  0  0  0
  187.2720  177.1960  144.5540 C   0  0  1  0  0  3  0  0  0  0  0  0
  187.2450  177.6110  146.0180 C   0  0  0  0  0  1  0  0  0  0  0  0
  186.3060  178.0200  143.7180 C   0  0  0  0  0  2  0  0  0  0  0  0
  185.0670  178.0920  144.3570 O   0  0  0  0  0  1  0  0  0  0  0  0
  192.1140  176.3250  138.3380 N   0  0  0  0  0  0  0  0  0  0  0  0
  191.8620  176.9410  139.4320 N   0  0  0  0  0  0  0  0  0  0  0  0
  190.5430  174.6250  138.0170 O   0  0  0  0  0  1  0  0  0  0  0  0
  191.1130  175.7570  137.4380 C   0  0  2  0  0  3  0  0  0  0  0  0
  191.7290  175.4060  136.0700 C   0  0  2  0  0  3  0  0  0  0  0  0
  193.2250  175.7970  135.9630 C   0  0  2  0  0  3  0  0  0  0  0  0
  193.7140  176.0960  134.5660 C   0  0  0  0  0  2  0  0  0  0  0  0
  194.1520  174.8160  136.5480 N   0  0  0  0  0  0  0  0  0  0  0  0
  195.2140  175.9630  134.6930 C   0  0  0  0  0  2  0  0  0  0  0  0
  195.4460  175.1270  135.9460 C   0  0  0  0  0  2  0  0  0  0  0  0
  193.8200  173.4600  136.1100 C   0  0  0  0  0  2  0  0  0  0  0  0
  194.8440  172.4870  136.6620 C   0  0  0  0  0  2  0  0  0  0  0  0
  194.8420  171.2260  135.8320 C   0  0  0  0  0  2  0  0  0  0  0  0
  196.8700  170.4280  136.9890 N   0  0  0  0  0  0  0  0  0  0  0  0
  195.6190  170.1580  136.5240 C   0  0  0  0  0  0  0  0  0  0  0  0
  193.7780  168.5860  136.2800 O   0  0  0  0  0  1  0  0  0  0  0  0
  195.0570  168.8880  136.7310 C   0  0  0  0  0  0  0  0  0  0  0  0
  195.8020  167.9140  137.4010 C   0  0  0  0  0  3  0  0  0  0  0  0
  197.6040  169.4920  137.6510 C   0  0  0  0  0  3  0  0  0  0  0  0
  197.0830  168.2140  137.8670 C   0  0  0  0  0  3  0  0  0  0  0  0
  190.8800  175.9290  134.8980 C   0  0  1  0  0  3  0  0  0  0  0  0
  189.9450  174.8460  134.3800 C   0  0  0  0  0  1  0  0  0  0  0  0
  189.0760  177.1070  134.3640 C   0  0  0  0  0  1  0  0  0  0  0  0
  190.1470  177.0680  135.2560 O   0  0  0  0  0  0  0  0  0  0  0  0
  187.0630  178.5410  140.5110 N   0  0  0  0  0  2  0  0  0  0  0  0
  186.1920  178.5510  139.4150 N   0  0  0  0  0  2  0  0  0  0  0  0
  184.8350  178.6470  139.9410 C   0  0  2  0  0  3  0  0  0  0  0  0
  183.7990  178.1930  138.9120 C   0  0  1  0  0  3  0  0  0  0  0  0
  184.0470  179.6680  139.1440 C   0  0  0  0  0  2  0  0  0  0  0  0
  184.3920  177.8090  137.7030 O   0  0  0  0  0  0  0  0  0  0  0  0
  183.8310  176.5630  137.4030 C   0  0  1  0  0  3  0  0  0  0  0  0
  182.9980  176.6500  136.1300 C   0  0  0  0  0  2  0  0  0  0  0  0
  180.9480  176.2080  137.2750 O   0  0  0  0  0  1  0  0  0  0  0  0
  181.3480  174.9170  135.4160 O   0  0  0  0  0  0  0  0  0  0  0  0
  181.7040  175.9280  136.3030 C   0  0  0  0  0  0  0  0  0  0  0  0
  184.9290  175.5220  137.2440 C   0  0  0  0  0  2  0  0  0  0  0  0
  186.1340  176.1290  136.8810 O   0  0  0  0  0  0  0  0  0  0  0  0
  187.0360  175.0720  136.7460 C   0  0  0  0  0  2  0  0  0  0  0  0
  186.4520  174.0080  135.8270 C   0  0  0  0  0  2  0  0  0  0  0  0
  186.6250  171.6190  135.1370 C   0  0  0  0  0  1  0  0  0  0  0  0
  187.3600  172.7900  135.7620 C   0  0  0  0  0  3  0  0  0  0  0  0
  187.8040  172.4180  137.1570 C   0  0  0  0  0  1  0  0  0  0  0  0
  1  4  1  0  0  0  0
  1  3  1  0  0  0  0
  2  5  1  0  0  0  0
  3 38  1  1  0  0  0
  3  5  1  0  0  0  0
  4  2  2  0  0  0  0
  5  6  1  1  0  0  0
  6  8  1  0  0  0  0
  7  6  2  0  0  0  0
  8 10  1  0  0  0  0
  8  9  2  0  0  0  0
 10 11  1  1  0  0  0
 12 13  1  0  0  0  0
 12 10  1  0  0  0  0
 14 15  2  0  0  0  0
 15  4  1  0  0  0  0
 17 16  1  1  0  0  0
 17 14  1  0  0  0  0
 18 34  1  6  0  0  0
 18 17  1  0  0  0  0
 19 18  1  6  0  0  0
 19 21  1  0  0  0  0
 20 22  1  0  0  0  0
 20 19  1  0  0  0  0
 22 23  1  0  0  0  0
 23 21  1  0  0  0  0
 24 21  1  0  0  0  0
 24 25  1  0  0  0  0
 26 28  1  0  0  0  0
 26 25  1  0  0  0  0
 27 32  1  0  0  0  0
 28 30  1  0  0  0  0
 28 27  2  0  0  0  0
 29 30  1  0  0  0  0
 30 31  2  0  0  0  0
 31 33  1  0  0  0  0
 32 33  2  0  0  0  0
 34 35  1  1  0  0  0
 34 37  1  0  0  0  0
 36 37  1  0  0  0  0
 39 38  1  0  0  0  0
 40 39  1  6  0  0  0
 41 43  1  6  0  0  0
 41 42  1  0  0  0  0
 41 40  1  0  0  0  0
 42 40  1  0  0  0  0
 44 45  1  6  0  0  0
 44 43  1  0  0  0  0
 45 48  1  0  0  0  0
 47 48  2  0  0  0  0
 48 46  1  0  0  0  0
 49 44  1  0  0  0  0
 50 49  1  0  0  0  0
 51 50  1  0  0  0  0
 52 51  1  0  0  0  0
 53 54  1  0  0  0  0
 54 52  1  0  0  0  0
 54 55  1  0  0  0  0
M  END
>  <MODEL>
5

>  <REMARK>
 VINA RESULT:      -5.9      3.215      9.474
  Name = 
  26 active torsions:
  status: ('A' for Active; 'I' for Inactive)
    1  A    between atoms: C_4  and  C_54
    2  A    between atoms: C_5  and  O_26
    3  A    between atoms: C_5  and  C_44
    4  A    between atoms: C_7  and  C_20
    5  A    between atoms: C_8  and  C_15
    6  A    between atoms: C_8  and  C_50
    7  A    between atoms: O_9  and  C_32
    8  A    between atoms: O_9  and  C_49
    9  A    between atoms: C_11  and  O_45
   10  A    between atoms: C_11  and  C_54
   11  A    between atoms: C_12  and  C_18
   12  A    between atoms: C_12  and  C_41
   13  A    between atoms: N_14  and  C_33
   14  A    between atoms: C_15  and  C_20
   15  A    between atoms: C_16  and  C_44
   16  A    between atoms: C_18  and  C_19
   17  A    between atoms: C_24  and  N_25
   18  A    between atoms: N_25  and  N_31
   19  A    between atoms: O_26  and  C_47
   20  A    between atoms: N_31  and  C_36
   21  A    between atoms: C_32  and  C_47
   22  A    between atoms: C_32  and  C_52
   23  A    between atoms: C_33  and  C_54
   24  A    between atoms: N_39  and  C_41
   25  A    between atoms: C_40  and  N_53
   26  A    between atoms: C_48  and  C_52
                            x       y       z     vdW  Elec       q    Type
                         _______ _______ _______ _____ _____    ______ ____

>  <TORSDO>
F 26

$$$$
=
 OpenBabel10232407473D

 55 58  0  0  1  0  0  0  0  0999 V2000
  191.2010  177.4910  140.4590 S   0  0  0  0  0  0  0  0  0  0  0  0
  188.5850  177.5590  140.3060 N   0  0  0  0  0  0  0  0  0  0  0  0
  190.3560  176.3380  139.3300 C   0  0  1  0  0  3  0  0  0  0  0  0
  189.5770  177.9310  141.0460 C   0  0  0  0  0  0  0  0  0  0  0  0
  188.9590  176.9140  139.0640 C   0  0  2  0  0  3  0  0  0  0  0  0
  188.8560  177.9390  137.9530 C   0  0  0  0  0  0  0  0  0  0  0  0
  189.2040  179.1390  138.1410 O   0  0  0  0  0  0  0  0  0  0  0  0
  188.2540  177.5480  136.6570 C   0  0  0  0  0  0  0  0  0  0  0  0
  188.8660  177.7930  135.5880 O   0  0  0  0  0  0  0  0  0  0  0  0
  186.9350  176.8350  136.5670 C   0  0  1  0  0  3  0  0  0  0  0  0
  185.9520  177.5970  135.6890 C   0  0  0  0  0  1  0  0  0  0  0  0
  187.1250  175.4050  136.0870 C   0  0  0  0  0  2  0  0  0  0  0  0
  187.2650  174.5520  137.1830 O   0  0  0  0  0  1  0  0  0  0  0  0
  189.3750  178.0730  143.4600 N   0  0  0  0  0  0  0  0  0  0  0  0
  189.4020  178.6110  142.2990 N   0  0  0  0  0  0  0  0  0  0  0  0
  188.3650  175.9700  143.3300 O   0  0  0  0  0  1  0  0  0  0  0  0
  189.5160  176.6440  143.7330 C   0  0  2  0  0  3  0  0  0  0  0  0
  189.7930  176.3870  145.2270 C   0  0  2  0  0  3  0  0  0  0  0  0
  189.4600  177.6070  146.1220 C   0  0  2  0  0  3  0  0  0  0  0  0
  189.8350  177.4610  147.5770 C   0  0  0  0  0  2  0  0  0  0  0  0
  188.0510  178.0270  146.0760 N   0  0  0  0  0  0  0  0  0  0  0  0
  188.9960  178.5190  148.2550 C   0  0  0  0  0  2  0  0  0  0  0  0
  187.8660  178.8310  147.2810 C   0  0  0  0  0  2  0  0  0  0  0  0
  187.1600  176.8760  146.2200 C   0  0  0  0  0  2  0  0  0  0  0  0
  186.0940  176.9250  145.1430 C   0  0  0  0  0  2  0  0  0  0  0  0
  186.1070  178.2810  144.4790 C   0  0  0  0  0  2  0  0  0  0  0  0
  184.8350  178.2130  142.3650 N   0  0  0  0  0  0  0  0  0  0  0  0
  184.8510  178.4810  143.7010 C   0  0  0  0  0  0  0  0  0  0  0  0
  183.6570  179.1770  145.7030 O   0  0  0  0  0  1  0  0  0  0  0  0
  183.6760  178.9090  144.3400 C   0  0  0  0  0  0  0  0  0  0  0  0
  182.5100  179.0670  143.5870 C   0  0  0  0  0  3  0  0  0  0  0  0
  183.7040  178.3550  141.6220 C   0  0  0  0  0  3  0  0  0  0  0  0
  182.5180  178.7880  142.2200 C   0  0  0  0  0  3  0  0  0  0  0  0
  191.2050  175.8250  145.4690 C   0  0  1  0  0  3  0  0  0  0  0  0
  191.9550  175.6600  144.1550 C   0  0  0  0  0  1  0  0  0  0  0  0
  192.3900  175.7720  147.3460 C   0  0  0  0  0  1  0  0  0  0  0  0
  191.9410  176.6340  146.3450 O   0  0  0  0  0  0  0  0  0  0  0  0
  191.1330  176.0970  138.1230 N   0  0  0  0  0  2  0  0  0  0  0  0
  191.2330  174.7090  137.9680 N   0  0  0  0  0  2  0  0  0  0  0  0
  190.7420  174.3870  136.6330 C   0  0  2  0  0  3  0  0  0  0  0  0
  191.8620  173.8690  135.7310 C   0  0  1  0  0  3  0  0  0  0  0  0
  191.3900  175.3020  135.6130 C   0  0  0  0  0  2  0  0  0  0  0  0
  193.0980  173.8410  136.3900 O   0  0  0  0  0  0  0  0  0  0  0  0
  194.0400  173.5960  135.3850 C   0  0  1  0  0  3  0  0  0  0  0  0
  195.3000  174.4190  135.6300 C   0  0  0  0  0  2  0  0  0  0  0  0
  194.9440  176.7550  135.9830 O   0  0  0  0  0  0  0  0  0  0  0  0
  194.8010  175.4310  137.8570 O   0  0  0  0  0  1  0  0  0  0  0  0
  194.9930  175.5990  136.4900 C   0  0  0  0  0  0  0  0  0  0  0  0
  194.3790  172.1140  135.3400 C   0  0  0  0  0  2  0  0  0  0  0  0
  193.6380  171.4090  136.2920 O   0  0  0  0  0  0  0  0  0  0  0  0
  194.5880  170.9280  137.1940 C   0  0  0  0  0  2  0  0  0  0  0  0
  195.3380  169.7540  136.5780 C   0  0  0  0  0  2  0  0  0  0  0  0
  197.7060  169.1190  136.1260 C   0  0  0  0  0  1  0  0  0  0  0  0
  196.7320  169.6290  137.1720 C   0  0  0  0  0  3  0  0  0  0  0  0
  196.6980  168.6680  138.3380 C   0  0  0  0  0  1  0  0  0  0  0  0
  1  4  1  0  0  0  0
  2  4  2  0  0  0  0
  3 38  1  6  0  0  0
  3  1  1  0  0  0  0
  4 15  1  0  0  0  0
  5  6  1  6  0  0  0
  5  3  1  0  0  0  0
  5  2  1  0  0  0  0
  6  7  2  0  0  0  0
  8  6  1  0  0  0  0
  9  8  2  0  0  0  0
 10 11  1  6  0  0  0
 10  8  1  0  0  0  0
 12 10  1  0  0  0  0
 12 13  1  0  0  0  0
 14 17  1  0  0  0  0
 15 14  2  0  0  0  0
 17 16  1  1  0  0  0
 18 17  1  6  0  0  0
 18 34  1  0  0  0  0
 19 18  1  6  0  0  0
 19 20  1  0  0  0  0
 20 22  1  0  0  0  0
 21 19  1  0  0  0  0
 21 24  1  0  0  0  0
 21 23  1  0  0  0  0
 23 22  1  0  0  0  0
 25 24  1  0  0  0  0
 26 25  1  0  0  0  0
 27 28  1  0  0  0  0
 28 30  2  0  0  0  0
 28 26  1  0  0  0  0
 30 29  1  0  0  0  0
 31 30  1  0  0  0  0
 32 33  1  0  0  0  0
 32 27  2  0  0  0  0
 33 31  2  0  0  0  0
 34 35  1  6  0  0  0
 34 37  1  0  0  0  0
 37 36  1  0  0  0  0
 39 38  1  0  0  0  0
 40 39  1  1  0  0  0
 41 43  1  1  0  0  0
 41 40  1  0  0  0  0
 42 41  1  0  0  0  0
 42 40  1  0  0  0  0
 44 49  1  1  0  0  0
 44 45  1  0  0  0  0
 44 43  1  0  0  0  0
 45 48  1  0  0  0  0
 46 48  2  0  0  0  0
 48 47  1  0  0  0  0
 49 50  1  0  0  0  0
 50 51  1  0  0  0  0
 52 54  1  0  0  0  0
 52 51  1  0  0  0  0
 53 54  1  0  0  0  0
 54 55  1  0  0  0  0
M  END
>  <MODEL>
6

>  <REMARK>
 VINA RESULT:      -5.9      2.753      6.342
  Name = 
  26 active torsions:
  status: ('A' for Active; 'I' for Inactive)
    1  A    between atoms: C_4  and  C_54
    2  A    between atoms: C_5  and  O_26
    3  A    between atoms: C_5  and  C_44
    4  A    between atoms: C_7  and  C_20
    5  A    between atoms: C_8  and  C_15
    6  A    between atoms: C_8  and  C_50
    7  A    between atoms: O_9  and  C_32
    8  A    between atoms: O_9  and  C_49
    9  A    between atoms: C_11  and  O_45
   10  A    between atoms: C_11  and  C_54
   11  A    between atoms: C_12  and  C_18
   12  A    between atoms: C_12  and  C_41
   13  A    between atoms: N_14  and  C_33
   14  A    between atoms: C_15  and  C_20
   15  A    between atoms: C_16  and  C_44
   16  A    between atoms: C_18  and  C_19
   17  A    between atoms: C_24  and  N_25
   18  A    between atoms: N_25  and  N_31
   19  A    between atoms: O_26  and  C_47
   20  A    between atoms: N_31  and  C_36
   21  A    between atoms: C_32  and  C_47
   22  A    between atoms: C_32  and  C_52
   23  A    between atoms: C_33  and  C_54
   24  A    between atoms: N_39  and  C_41
   25  A    between atoms: C_40  and  N_53
   26  A    between atoms: C_48  and  C_52
                            x       y       z     vdW  Elec       q    Type
                         _______ _______ _______ _____ _____    ______ ____

>  <TORSDO>
F 26

$$$$
=
 OpenBabel10232407473D

 55 58  0  0  1  0  0  0  0  0999 V2000
  189.6130  178.6340  139.9790 S   0  0  0  0  0  0  0  0  0  0  0  0
  190.2660  176.4900  141.3380 N   0  0  0  0  0  0  0  0  0  0  0  0
  188.3160  177.7490  140.9020 C   0  0  1  0  0  3  0  0  0  0  0  0
  190.6850  177.2740  140.4000 C   0  0  0  0  0  0  0  0  0  0  0  0
  189.0240  176.8950  141.9630 C   0  0  2  0  0  3  0  0  0  0  0  0
  189.3580  177.5870  143.2680 C   0  0  0  0  0  0  0  0  0  0  0  0
  190.3560  178.3570  143.3590 O   0  0  0  0  0  0  0  0  0  0  0  0
  188.5560  177.2850  144.4770 C   0  0  0  0  0  0  0  0  0  0  0  0
  187.5560  176.5310  144.3870 O   0  0  0  0  0  0  0  0  0  0  0  0
  188.9100  177.8280  145.8320 C   0  0  1  0  0  3  0  0  0  0  0  0
  187.7010  177.8440  146.7560 C   0  0  0  0  0  1  0  0  0  0  0  0
  190.0710  177.0540  146.4380 C   0  0  0  0  0  2  0  0  0  0  0  0
  189.6570  176.4200  147.6110 O   0  0  0  0  0  1  0  0  0  0  0  0
  192.0310  176.5230  138.5250 N   0  0  0  0  0  0  0  0  0  0  0  0
  191.9110  177.0490  139.6870 N   0  0  0  0  0  0  0  0  0  0  0  0
  190.2390  175.0320  138.3650 O   0  0  0  0  0  1  0  0  0  0  0  0
  190.9280  176.0420  137.6970 C   0  0  2  0  0  3  0  0  0  0  0  0
  191.4340  175.5340  136.3330 C   0  0  2  0  0  3  0  0  0  0  0  0
  192.7770  176.1820  135.9090 C   0  0  2  0  0  3  0  0  0  0  0  0
  193.0440  176.1960  134.4230 C   0  0  0  0  0  2  0  0  0  0  0  0
  193.9620  175.6030  136.5590 N   0  0  0  0  0  0  0  0  0  0  0  0
  194.5380  176.4120  134.3460 C   0  0  0  0  0  2  0  0  0  0  0  0
  195.0810  176.0030  135.7100 C   0  0  0  0  0  2  0  0  0  0  0  0
  193.9220  174.1410  136.5090 C   0  0  0  0  0  2  0  0  0  0  0  0
  194.7090  173.5740  137.6740 C   0  0  0  0  0  2  0  0  0  0  0  0
  195.8820  172.7780  137.1540 C   0  0  0  0  0  2  0  0  0  0  0  0
  197.1310  174.4560  138.4630 N   0  0  0  0  0  0  0  0  0  0  0  0
  197.1600  173.3900  137.6150 C   0  0  0  0  0  0  0  0  0  0  0  0
  198.4570  171.7610  136.3560 O   0  0  0  0  0  1  0  0  0  0  0  0
  198.3940  172.8550  137.2100 C   0  0  0  0  0  0  0  0  0  0  0  0
  199.5750  173.4380  137.6770 C   0  0  0  0  0  3  0  0  0  0  0  0
  198.2740  175.0280  138.9320 C   0  0  0  0  0  3  0  0  0  0  0  0
  199.5200  174.5300  138.5440 C   0  0  0  0  0  3  0  0  0  0  0  0
  190.3510  175.6140  135.2430 C   0  0  1  0  0  3  0  0  0  0  0  0
  189.6560  174.2720  135.0700 C   0  0  0  0  0  1  0  0  0  0  0  0
  188.1840  176.0780  135.1230 C   0  0  0  0  0  1  0  0  0  0  0  0
  189.4090  176.6120  135.5210 O   0  0  0  0  0  0  0  0  0  0  0  0
  187.3240  178.6630  141.4480 N   0  0  0  0  0  2  0  0  0  0  0  0
  186.2150  178.6250  140.5940 N   0  0  0  0  0  2  0  0  0  0  0  0
  185.1280  177.9820  141.3250 C   0  0  2  0  0  3  0  0  0  0  0  0
  183.7770  178.6170  140.9970 C   0  0  1  0  0  3  0  0  0  0  0  0
  184.4940  178.9750  142.2800 C   0  0  0  0  0  2  0  0  0  0  0  0
  183.8980  179.6740  140.0870 O   0  0  0  0  0  0  0  0  0  0  0  0
  182.7990  179.5470  139.2310 C   0  0  1  0  0  3  0  0  0  0  0  0
  182.4910  180.8810  138.5630 C   0  0  0  0  0  2  0  0  0  0  0  0
  180.5650  182.2480  138.2020 O   0  0  0  0  0  0  0  0  0  0  0  0
  180.3610  180.6540  139.8450 O   0  0  0  0  0  1  0  0  0  0  0  0
  181.0860  181.2940  138.8450 C   0  0  0  0  0  0  0  0  0  0  0  0
  183.0780  178.4820  138.1810 C   0  0  0  0  0  2  0  0  0  0  0  0
  181.8860  177.9200  137.7200 O   0  0  0  0  0  0  0  0  0  0  0  0
  182.2780  177.0230  136.7260 C   0  0  0  0  0  2  0  0  0  0  0  0
  183.7430  176.6500  136.9130 C   0  0  0  0  0  2  0  0  0  0  0  0
  184.2530  177.2030  134.5370 C   0  0  0  0  0  1  0  0  0  0  0  0
  184.3440  176.1390  135.6140 C   0  0  0  0  0  3  0  0  0  0  0  0
  183.5970  174.9040  135.1660 C   0  0  0  0  0  1  0  0  0  0  0  0
  1  4  1  0  0  0  0
  1  3  1  0  0  0  0
  2  5  1  0  0  0  0
  3 38  1  1  0  0  0
  3  5  1  0  0  0  0
  4  2  2  0  0  0  0
  5  6  1  1  0  0  0
  6  7  2  0  0  0  0
  6  8  1  0  0  0  0
  8 10  1  0  0  0  0
  9  8  2  0  0  0  0
 10 12  1  0  0  0  0
 10 11  1  1  0  0  0
 12 13  1  0  0  0  0
 14 15  2  0  0  0  0
 15  4  1  0  0  0  0
 17 16  1  1  0  0  0
 17 14  1  0  0  0  0
 18 34  1  6  0  0  0
 18 17  1  0  0  0  0
 19 18  1  6  0  0  0
 19 21  1  0  0  0  0
 20 19  1  0  0  0  0
 22 20  1  0  0  0  0
 22 23  1  0  0  0  0
 23 21  1  0  0  0  0
 24 21  1  0  0  0  0
 24 25  1  0  0  0  0
 26 28  1  0  0  0  0
 26 25  1  0  0  0  0
 27 32  1  0  0  0  0
 28 27  2  0  0  0  0
 29 30  1  0  0  0  0
 30 28  1  0  0  0  0
 30 31  2  0  0  0  0
 31 33  1  0  0  0  0
 33 32  2  0  0  0  0
 34 35  1  1  0  0  0
 34 37  1  0  0  0  0
 36 37  1  0  0  0  0
 39 38  1  0  0  0  0
 40 39  1  6  0  0  0
 40 42  1  0  0  0  0
 41 43  1  6  0  0  0
 41 40  1  0  0  0  0
 41 42  1  0  0  0  0
 44 49  1  6  0  0  0
 44 43  1  0  0  0  0
 45 48  1  0  0  0  0
 45 44  1  0  0  0  0
 46 48  2  0  0  0  0
 48 47  1  0  0  0  0
 50 49  1  0  0  0  0
 51 52  1  0  0  0  0
 51 50  1  0  0  0  0
 53 54  1  0  0  0  0
 54 52  1  0  0  0  0
 55 54  1  0  0  0  0
M  END
>  <MODEL>
7

>  <REMARK>
 VINA RESULT:      -5.8      2.728      9.528
  Name = 
  26 active torsions:
  status: ('A' for Active; 'I' for Inactive)
    1  A    between atoms: C_4  and  C_54
    2  A    between atoms: C_5  and  O_26
    3  A    between atoms: C_5  and  C_44
    4  A    between atoms: C_7  and  C_20
    5  A    between atoms: C_8  and  C_15
    6  A    between atoms: C_8  and  C_50
    7  A    between atoms: O_9  and  C_32
    8  A    between atoms: O_9  and  C_49
    9  A    between atoms: C_11  and  O_45
   10  A    between atoms: C_11  and  C_54
   11  A    between atoms: C_12  and  C_18
   12  A    between atoms: C_12  and  C_41
   13  A    between atoms: N_14  and  C_33
   14  A    between atoms: C_15  and  C_20
   15  A    between atoms: C_16  and  C_44
   16  A    between atoms: C_18  and  C_19
   17  A    between atoms: C_24  and  N_25
   18  A    between atoms: N_25  and  N_31
   19  A    between atoms: O_26  and  C_47
   20  A    between atoms: N_31  and  C_36
   21  A    between atoms: C_32  and  C_47
   22  A    between atoms: C_32  and  C_52
   23  A    between atoms: C_33  and  C_54
   24  A    between atoms: N_39  and  C_41
   25  A    between atoms: C_40  and  N_53
   26  A    between atoms: C_48  and  C_52
                            x       y       z     vdW  Elec       q    Type
                         _______ _______ _______ _____ _____    ______ ____

>  <TORSDO>
F 26

$$$$
=
 OpenBabel10232407473D

 55 58  0  0  1  0  0  0  0  0999 V2000
  189.6710  178.6830  140.3310 S   0  0  0  0  0  0  0  0  0  0  0  0
  190.3880  176.6860  141.8690 N   0  0  0  0  0  0  0  0  0  0  0  0
  188.4120  177.8820  141.3760 C   0  0  1  0  0  3  0  0  0  0  0  0
  190.7690  177.3780  140.8470 C   0  0  0  0  0  0  0  0  0  0  0  0
  189.1620  177.1400  142.4910 C   0  0  2  0  0  3  0  0  0  0  0  0
  189.5290  177.9580  143.7120 C   0  0  0  0  0  0  0  0  0  0  0  0
  190.4290  178.8420  143.6560 O   0  0  0  0  0  0  0  0  0  0  0  0
  188.8860  177.6520  145.0120 C   0  0  0  0  0  0  0  0  0  0  0  0
  187.6490  177.4380  145.0580 O   0  0  0  0  0  0  0  0  0  0  0  0
  189.6660  177.5570  146.2910 C   0  0  1  0  0  3  0  0  0  0  0  0
  188.7500  177.3300  147.4850 C   0  0  0  0  0  1  0  0  0  0  0  0
  190.7380  176.4840  146.1930 C   0  0  0  0  0  2  0  0  0  0  0  0
  191.9450  176.9710  146.6980 O   0  0  0  0  0  1  0  0  0  0  0  0
  192.0550  176.6250  138.9310 N   0  0  0  0  0  0  0  0  0  0  0  0
  191.9750  177.0950  140.1200 N   0  0  0  0  0  0  0  0  0  0  0  0
  190.0290  175.4710  138.7820 O   0  0  0  0  0  1  0  0  0  0  0  0
  190.9190  176.2810  138.0800 C   0  0  2  0  0  3  0  0  0  0  0  0
  191.3810  175.5770  136.7900 C   0  0  2  0  0  3  0  0  0  0  0  0
  192.8570  175.8840  136.4300 C   0  0  2  0  0  3  0  0  0  0  0  0
  193.1210  176.1540  134.9690 C   0  0  0  0  0  2  0  0  0  0  0  0
  193.8140  174.8540  136.8620 N   0  0  0  0  0  0  0  0  0  0  0  0
  194.6110  175.9380  134.8440 C   0  0  0  0  0  2  0  0  0  0  0  0
  195.0040  175.0910  136.0490 C   0  0  0  0  0  2  0  0  0  0  0  0
  193.3390  173.5180  136.4990 C   0  0  0  0  0  2  0  0  0  0  0  0
  194.5270  172.6280  136.1890 C   0  0  0  0  0  2  0  0  0  0  0  0
  194.3080  171.2620  136.7940 C   0  0  0  0  0  2  0  0  0  0  0  0
  196.7530  171.3570  137.1140 N   0  0  0  0  0  0  0  0  0  0  0  0
  195.6190  170.6040  137.0580 C   0  0  0  0  0  0  0  0  0  0  0  0
  194.5490  168.4270  137.2460 O   0  0  0  0  0  1  0  0  0  0  0  0
  195.6900  169.2190  137.2840 C   0  0  0  0  0  0  0  0  0  0  0  0
  196.9310  168.6350  137.5490 C   0  0  0  0  0  3  0  0  0  0  0  0
  197.9670  170.8010  137.3810 C   0  0  0  0  0  3  0  0  0  0  0  0
  198.0790  169.4270  137.6010 C   0  0  0  0  0  3  0  0  0  0  0  0
  190.4110  175.8100  135.6190 C   0  0  1  0  0  3  0  0  0  0  0  0
  189.4920  174.6120  135.4290 C   0  0  0  0  0  1  0  0  0  0  0  0
  189.2170  177.3260  134.5210 C   0  0  0  0  0  1  0  0  0  0  0  0
  189.6520  176.9740  135.7980 O   0  0  0  0  0  0  0  0  0  0  0  0
  187.4280  178.8370  141.8630 N   0  0  0  0  0  2  0  0  0  0  0  0
  186.2030  178.5010  141.2740 N   0  0  0  0  0  2  0  0  0  0  0  0
  185.3300  178.0170  142.3380 C   0  0  2  0  0  3  0  0  0  0  0  0
  183.8610  178.0400  141.9160 C   0  0  1  0  0  3  0  0  0  0  0  0
  184.4150  179.1350  142.8000 C   0  0  0  0  0  2  0  0  0  0  0  0
  183.6950  178.5340  140.6160 O   0  0  0  0  0  0  0  0  0  0  0  0
  183.1180  177.4810  139.8980 C   0  0  1  0  0  3  0  0  0  0  0  0
  181.6060  177.6590  139.8210 C   0  0  0  0  0  2  0  0  0  0  0  0
  181.2740  179.4920  138.3250 O   0  0  0  0  0  0  0  0  0  0  0  0
  180.9680  179.9580  140.5550 O   0  0  0  0  0  1  0  0  0  0  0  0
  181.2620  179.0790  139.5190 C   0  0  0  0  0  0  0  0  0  0  0  0
  183.7140  177.4160  138.5000 C   0  0  0  0  0  2  0  0  0  0  0  0
  183.7240  176.1010  138.0290 O   0  0  0  0  0  0  0  0  0  0  0  0
  184.3760  176.1720  136.7970 C   0  0  0  0  0  2  0  0  0  0  0  0
  184.7880  174.7760  136.3480 C   0  0  0  0  0  2  0  0  0  0  0  0
  185.6610  172.8820  137.7140 C   0  0  0  0  0  1  0  0  0  0  0  0
  184.4490  173.7420  137.4100 C   0  0  0  0  0  3  0  0  0  0  0  0
  183.3210  172.8660  136.9160 C   0  0  0  0  0  1  0  0  0  0  0  0
  1  4  1  0  0  0  0
  1  3  1  0  0  0  0
  2  5  1  0  0  0  0
  3 38  1  1  0  0  0
  3  5  1  0  0  0  0
  4  2  2  0  0  0  0
  5  6  1  1  0  0  0
  6  8  1  0  0  0  0
  7  6  2  0  0  0  0
  8  9  2  0  0  0  0
  8 10  1  0  0  0  0
 10 11  1  1  0  0  0
 12 10  1  0  0  0  0
 12 13  1  0  0  0  0
 14 15  2  0  0  0  0
 15  4  1  0  0  0  0
 17 16  1  1  0  0  0
 17 14  1  0  0  0  0
 18 34  1  6  0  0  0
 18 17  1  0  0  0  0
 19 18  1  6  0  0  0
 19 21  1  0  0  0  0
 20 19  1  0  0  0  0
 22 20  1  0  0  0  0
 22 23  1  0  0  0  0
 23 21  1  0  0  0  0
 24 21  1  0  0  0  0
 25 24  1  0  0  0  0
 25 26  1  0  0  0  0
 26 28  1  0  0  0  0
 27 32  1  0  0  0  0
 28 27  2  0  0  0  0
 28 30  1  0  0  0  0
 29 30  1  0  0  0  0
 30 31  2  0  0  0  0
 31 33  1  0  0  0  0
 32 33  2  0  0  0  0
 34 35  1  1  0  0  0
 34 37  1  0  0  0  0
 36 37  1  0  0  0  0
 39 38  1  0  0  0  0
 40 39  1  6  0  0  0
 40 42  1  0  0  0  0
 41 43  1  6  0  0  0
 41 40  1  0  0  0  0
 41 42  1  0  0  0  0
 44 49  1  6  0  0  0
 44 43  1  0  0  0  0
 45 44  1  0  0  0  0
 46 48  2  0  0  0  0
 48 45  1  0  0  0  0
 48 47  1  0  0  0  0
 50 49  1  0  0  0  0
 51 50  1  0  0  0  0
 52 51  1  0  0  0  0
 52 54  1  0  0  0  0
 54 53  1  0  0  0  0
 55 54  1  0  0  0  0
M  END
>  <MODEL>
8

>  <REMARK>
 VINA RESULT:      -5.7      3.033      9.431
  Name = 
  26 active torsions:
  status: ('A' for Active; 'I' for Inactive)
    1  A    between atoms: C_4  and  C_54
    2  A    between atoms: C_5  and  O_26
    3  A    between atoms: C_5  and  C_44
    4  A    between atoms: C_7  and  C_20
    5  A    between atoms: C_8  and  C_15
    6  A    between atoms: C_8  and  C_50
    7  A    between atoms: O_9  and  C_32
    8  A    between atoms: O_9  and  C_49
    9  A    between atoms: C_11  and  O_45
   10  A    between atoms: C_11  and  C_54
   11  A    between atoms: C_12  and  C_18
   12  A    between atoms: C_12  and  C_41
   13  A    between atoms: N_14  and  C_33
   14  A    between atoms: C_15  and  C_20
   15  A    between atoms: C_16  and  C_44
   16  A    between atoms: C_18  and  C_19
   17  A    between atoms: C_24  and  N_25
   18  A    between atoms: N_25  and  N_31
   19  A    between atoms: O_26  and  C_47
   20  A    between atoms: N_31  and  C_36
   21  A    between atoms: C_32  and  C_47
   22  A    between atoms: C_32  and  C_52
   23  A    between atoms: C_33  and  C_54
   24  A    between atoms: N_39  and  C_41
   25  A    between atoms: C_40  and  N_53
   26  A    between atoms: C_48  and  C_52
                            x       y       z     vdW  Elec       q    Type
                         _______ _______ _______ _____ _____    ______ ____

>  <TORSDO>
F 26

$$$$
=
 OpenBabel10232407473D

 55 58  0  0  1  0  0  0  0  0999 V2000
  188.9610  178.7110  137.2290 S   0  0  0  0  0  0  0  0  0  0  0  0
  188.4980  176.2740  136.3820 N   0  0  0  0  0  0  0  0  0  0  0  0
  189.4870  177.3060  138.2630 C   0  0  1  0  0  3  0  0  0  0  0  0
  188.1510  177.5050  136.1980 C   0  0  0  0  0  0  0  0  0  0  0  0
  189.5630  176.0780  137.3450 C   0  0  2  0  0  3  0  0  0  0  0  0
  190.8570  175.8890  136.5810 C   0  0  0  0  0  0  0  0  0  0  0  0
  191.0570  176.4810  135.4830 O   0  0  0  0  0  0  0  0  0  0  0  0
  191.8650  174.9260  137.0860 C   0  0  0  0  0  0  0  0  0  0  0  0
  191.4890  173.9100  137.7210 O   0  0  0  0  0  0  0  0  0  0  0  0
  193.3360  175.1030  136.8430 C   0  0  1  0  0  3  0  0  0  0  0  0
  193.7910  176.5120  137.1940 C   0  0  0  0  0  1  0  0  0  0  0  0
  194.1380  174.0500  137.5920 C   0  0  0  0  0  2  0  0  0  0  0  0
  194.4980  173.0200  136.7220 O   0  0  0  0  0  1  0  0  0  0  0  0
  185.8680  177.7580  135.4110 N   0  0  0  0  0  0  0  0  0  0  0  0
  187.1330  177.8950  135.2620 N   0  0  0  0  0  0  0  0  0  0  0  0
  186.1640  176.8540  137.5450 O   0  0  0  0  0  1  0  0  0  0  0  0
  185.2140  177.1670  136.5760 C   0  0  2  0  0  3  0  0  0  0  0  0
  184.4100  175.9120  136.1880 C   0  0  2  0  0  3  0  0  0  0  0  0
  182.8780  176.1510  136.1900 C   0  0  2  0  0  3  0  0  0  0  0  0
  182.3390  176.8860  134.9870 C   0  0  0  0  0  2  0  0  0  0  0  0
  182.3730  176.8430  137.3860 N   0  0  0  0  0  0  0  0  0  0  0  0
  180.9960  177.3860  135.4650 C   0  0  0  0  0  2  0  0  0  0  0  0
  181.0690  177.3650  136.9870 C   0  0  0  0  0  2  0  0  0  0  0  0
  183.1960  178.0130  137.6960 C   0  0  0  0  0  2  0  0  0  0  0  0
  182.3880  178.9920  138.5250 C   0  0  0  0  0  2  0  0  0  0  0  0
  182.1220  178.4020  139.8890 C   0  0  0  0  0  2  0  0  0  0  0  0
  184.5500  178.6760  140.2350 N   0  0  0  0  0  0  0  0  0  0  0  0
  183.3010  178.6140  140.7760 C   0  0  0  0  0  0  0  0  0  0  0  0
  181.8690  178.7390  142.7390 O   0  0  0  0  0  1  0  0  0  0  0  0
  183.1310  178.7850  142.1600 C   0  0  0  0  0  0  0  0  0  0  0  0
  184.2550  179.0020  142.9620 C   0  0  0  0  0  3  0  0  0  0  0  0
  185.6510  178.8960  141.0040 C   0  0  0  0  0  3  0  0  0  0  0  0
  185.5240  179.0610  142.3850 C   0  0  0  0  0  3  0  0  0  0  0  0
  184.8310  174.6760  137.0020 C   0  0  1  0  0  3  0  0  0  0  0  0
  183.6470  173.7470  137.2280 C   0  0  0  0  0  1  0  0  0  0  0  0
  186.3910  173.1400  137.3710 C   0  0  0  0  0  1  0  0  0  0  0  0
  185.8770  173.9800  136.3830 O   0  0  0  0  0  0  0  0  0  0  0  0
  190.7280  177.5910  138.9680 N   0  0  0  0  0  2  0  0  0  0  0  0
  190.5800  177.1060  140.2730 N   0  0  0  0  0  2  0  0  0  0  0  0
  189.1820  177.2860  140.6460 C   0  0  2  0  0  3  0  0  0  0  0  0
  189.0440  178.0440  141.9660 C   0  0  1  0  0  3  0  0  0  0  0  0
  188.8920  176.5400  141.9330 C   0  0  0  0  0  2  0  0  0  0  0  0
  190.2890  178.3740  142.5170 O   0  0  0  0  0  0  0  0  0  0  0  0
  190.3650  177.6440  143.7080 C   0  0  1  0  0  3  0  0  0  0  0  0
  191.8200  177.3680  144.0670 C   0  0  0  0  0  2  0  0  0  0  0  0
  191.9830  174.9850  144.0870 O   0  0  0  0  0  0  0  0  0  0  0  0
  191.9830  176.0010  146.1490 O   0  0  0  0  0  1  0  0  0  0  0  0
  191.9460  176.0540  144.7600 C   0  0  0  0  0  0  0  0  0  0  0  0
  189.6790  178.4090  144.8300 C   0  0  0  0  0  2  0  0  0  0  0  0
  188.9620  177.5370  145.6530 O   0  0  0  0  0  0  0  0  0  0  0  0
  187.7270  177.3890  145.0210 C   0  0  0  0  0  2  0  0  0  0  0  0
  186.6220  177.2790  146.0630 C   0  0  0  0  0  2  0  0  0  0  0  0
  186.4190  179.2650  147.5550 C   0  0  0  0  0  1  0  0  0  0  0  0
  185.9350  178.6190  146.2710 C   0  0  0  0  0  3  0  0  0  0  0  0
  184.4400  178.4130  146.3440 C   0  0  0  0  0  1  0  0  0  0  0  0
  1  3  1  0  0  0  0
  2  5  1  0  0  0  0
  3 38  1  6  0  0  0
  4  2  2  0  0  0  0
  4  1  1  0  0  0  0
  5  6  1  6  0  0  0
  5  3  1  0  0  0  0
  6  8  1  0  0  0  0
  7  6  2  0  0  0  0
  8  9  2  0  0  0  0
 10  8  1  0  0  0  0
 10 11  1  1  0  0  0
 10 12  1  0  0  0  0
 13 12  1  0  0  0  0
 14 17  1  0  0  0  0
 15 14  2  0  0  0  0
 15  4  1  0  0  0  0
 17 16  1  1  0  0  0
 18 17  1  1  0  0  0
 18 34  1  0  0  0  0
 19 18  1  6  0  0  0
 19 21  1  0  0  0  0
 20 22  1  0  0  0  0
 20 19  1  0  0  0  0
 21 24  1  0  0  0  0
 22 23  1  0  0  0  0
 23 21  1  0  0  0  0
 24 25  1  0  0  0  0
 25 26  1  0  0  0  0
 26 28  1  0  0  0  0
 27 28  2  0  0  0  0
 27 32  1  0  0  0  0
 28 30  1  0  0  0  0
 30 29  1  0  0  0  0
 30 31  2  0  0  0  0
 32 33  2  0  0  0  0
 33 31  1  0  0  0  0
 34 35  1  6  0  0  0
 37 34  1  0  0  0  0
 37 36  1  0  0  0  0
 38 39  1  0  0  0  0
 40 39  1  1  0  0  0
 40 42  1  0  0  0  0
 40 41  1  0  0  0  0
 41 43  1  1  0  0  0
 42 41  1  0  0  0  0
 43 44  1  0  0  0  0
 44 45  1  1  0  0  0
 44 49  1  0  0  0  0
 45 48  1  0  0  0  0
 46 48  2  0  0  0  0
 48 47  1  0  0  0  0
 49 50  1  0  0  0  0
 51 50  1  0  0  0  0
 51 52  1  0  0  0  0
 52 54  1  0  0  0  0
 54 55  1  0  0  0  0
 54 53  1  0  0  0  0
M  END
>  <MODEL>
9

>  <REMARK>
 VINA RESULT:      -5.5      2.218      8.288
  Name = 
  26 active torsions:
  status: ('A' for Active; 'I' for Inactive)
    1  A    between atoms: C_4  and  C_54
    2  A    between atoms: C_5  and  O_26
    3  A    between atoms: C_5  and  C_44
    4  A    between atoms: C_7  and  C_20
    5  A    between atoms: C_8  and  C_15
    6  A    between atoms: C_8  and  C_50
    7  A    between atoms: O_9  and  C_32
    8  A    between atoms: O_9  and  C_49
    9  A    between atoms: C_11  and  O_45
   10  A    between atoms: C_11  and  C_54
   11  A    between atoms: C_12  and  C_18
   12  A    between atoms: C_12  and  C_41
   13  A    between atoms: N_14  and  C_33
   14  A    between atoms: C_15  and  C_20
   15  A    between atoms: C_16  and  C_44
   16  A    between atoms: C_18  and  C_19
   17  A    between atoms: C_24  and  N_25
   18  A    between atoms: N_25  and  N_31
   19  A    between atoms: O_26  and  C_47
   20  A    between atoms: N_31  and  C_36
   21  A    between atoms: C_32  and  C_47
   22  A    between atoms: C_32  and  C_52
   23  A    between atoms: C_33  and  C_54
   24  A    between atoms: N_39  and  C_41
   25  A    between atoms: C_40  and  N_53
   26  A    between atoms: C_48  and  C_52
                            x       y       z     vdW  Elec       q    Type
                         _______ _______ _______ _____ _____    ______ ____

>  <TORSDO>
F 26

$$$$
