=
 OpenBabel10232407523D

 26 30  0  0  1  0  0  0  0  0999 V2000
  184.9790  178.4790  143.4710 C   0  0  0  0  0  0  0  0  0  0  0  0
  187.2970  177.8910  143.7640 C   0  0  0  0  0  0  0  0  0  0  0  0
  185.2150  178.5920  142.0930 C   0  0  0  0  0  0  0  0  0  0  0  0
  186.4650  178.3500  141.6140 N   0  0  0  0  0  0  0  0  0  0  0  0
  186.0340  178.1260  144.3100 C   0  0  0  0  0  3  0  0  0  0  0  0
  183.6340  178.7260  144.0640 C   0  0  0  0  0  1  0  0  0  0  0  0
  187.4720  178.0130  142.4220 N   0  0  0  0  0  0  0  0  0  0  0  0
  189.5790  177.0610  146.2750 C   0  0  0  0  0  0  0  0  0  0  0  0
  190.1840  176.7880  147.4360 N   0  0  0  0  0  0  0  0  0  0  0  0
  188.4280  177.5180  144.6250 C   0  0  0  0  0  0  0  0  0  0  0  0
  189.6790  177.2460  144.1390 N   0  0  0  0  0  0  0  0  0  0  0  0
  191.5670  176.6160  145.6000 C   0  0  0  0  0  3  0  0  0  0  0  0
  190.3350  176.9710  145.2410 N   0  0  0  0  0  0  0  0  0  0  0  0
  188.3170  177.4110  145.9920 N   0  0  0  0  0  2  0  0  0  0  0  0
  191.4560  176.5040  147.0030 C   0  0  0  0  0  3  0  0  0  0  0  0
  183.3950  177.7240  140.6490 C   0  0  0  0  0  2  0  0  0  0  0  0
  184.6490  179.6700  139.9920 N   0  0  0  0  0  2  0  0  0  0  0  0
  183.1520  177.9750  139.1790 C   0  0  1  0  0  3  0  0  0  0  0  0
  183.7750  179.3260  138.8810 C   0  0  0  0  0  2  0  0  0  0  0  0
  184.1130  178.9610  141.1460 C   0  0  2  0  0  3  0  0  0  0  0  0
  184.6990  174.9350  136.7200 O   0  0  0  0  0  0  0  0  0  0  0  0
  183.7400  174.6300  137.6940 C   0  0  0  0  0  3  0  0  0  0  0  0
  183.7650  176.9270  138.3700 N   0  0  0  0  0  0  0  0  0  0  0  0
  183.2620  175.5890  138.4850 C   0  0  0  0  0  3  0  0  0  0  0  0
  184.9770  177.1800  137.5840 C   0  0  0  0  0  2  0  0  0  0  0  0
  184.9850  176.2850  136.3480 C   0  0  0  0  0  2  0  0  0  0  0  0
  1  6  1  0  0  0  0
  1  5  1  0  0  0  0
  2  5  2  0  0  0  0
  2 10  1  0  0  0  0
  3  1  2  0  0  0  0
  4  3  1  0  0  0  0
  4  7  2  0  0  0  0
  7  2  1  0  0  0  0
  8  9  2  0  0  0  0
 10 14  1  0  0  0  0
 11 10  2  0  0  0  0
 11 13  1  0  0  0  0
 12 15  2  0  0  0  0
 13 12  1  0  0  0  0
 13  8  1  0  0  0  0
 14  8  1  0  0  0  0
 15  9  1  0  0  0  0
 16 20  1  0  0  0  0
 17 20  1  0  0  0  0
 18 23  1  6  0  0  0
 18 16  1  0  0  0  0
 19 18  1  0  0  0  0
 19 17  1  0  0  0  0
 20  3  1  1  0  0  0
 21 22  1  0  0  0  0
 22 24  2  0  0  0  0
 23 24  1  0  0  0  0
 25 23  1  0  0  0  0
 26 21  1  0  0  0  0
 26 25  1  0  0  0  0
M  END
>  <MODEL>
1

>  <REMARK>
 VINA RESULT:      -8.2      0.000      0.000
  Name = 
  3 active torsions:
  status: ('A' for Active; 'I' for Inactive)
    1  A    between atoms: C_6  and  C_10
    2  A    between atoms: C_7  and  C_26
    3  A    between atoms: N_11  and  C_14
                            x       y       z     vdW  Elec       q    Type
                         _______ _______ _______ _____ _____    ______ ____

>  <TORSDO>
F 3

$$$$
=
 OpenBabel10232407523D

 26 30  0  0  1  0  0  0  0  0999 V2000
  187.4060  177.8200  145.1160 C   0  0  0  0  0  0  0  0  0  0  0  0
  185.5520  178.2350  143.6340 C   0  0  0  0  0  0  0  0  0  0  0  0
  188.2520  177.7920  143.9980 C   0  0  0  0  0  0  0  0  0  0  0  0
  187.7210  177.9880  142.7600 N   0  0  0  0  0  0  0  0  0  0  0  0
  186.0440  178.0420  144.9260 C   0  0  0  0  0  3  0  0  0  0  0  0
  187.9210  177.6160  146.5000 C   0  0  0  0  0  1  0  0  0  0  0  0
  186.4150  178.2000  142.5840 N   0  0  0  0  0  0  0  0  0  0  0  0
  182.1050  178.7880  143.7060 C   0  0  0  0  0  0  0  0  0  0  0  0
  180.8320  178.9880  144.0670 N   0  0  0  0  0  0  0  0  0  0  0  0
  184.1200  178.4710  143.4040 C   0  0  0  0  0  0  0  0  0  0  0  0
  183.5740  178.5930  142.1540 N   0  0  0  0  0  0  0  0  0  0  0  0
  181.1660  178.9950  141.7860 C   0  0  0  0  0  3  0  0  0  0  0  0
  182.3080  178.7880  142.4380 N   0  0  0  0  0  0  0  0  0  0  0  0
  183.2130  178.5910  144.4320 N   0  0  0  0  0  2  0  0  0  0  0  0
  180.2330  179.1190  142.8390 C   0  0  0  0  0  3  0  0  0  0  0  0
  190.5030  178.3980  143.1500 C   0  0  0  0  0  2  0  0  0  0  0  0
  190.0510  176.1630  143.9190 N   0  0  0  0  0  2  0  0  0  0  0  0
  191.6020  177.4910  142.6490 C   0  0  1  0  0  3  0  0  0  0  0  0
  191.3900  176.1600  143.3470 C   0  0  0  0  0  2  0  0  0  0  0  0
  189.7260  177.5640  144.1470 C   0  0  2  0  0  3  0  0  0  0  0  0
  191.4830  176.8230  138.5000 O   0  0  0  0  0  0  0  0  0  0  0  0
  192.7070  177.0590  139.1380 C   0  0  0  0  0  3  0  0  0  0  0  0
  191.5240  177.3400  141.2010 N   0  0  0  0  0  0  0  0  0  0  0  0
  192.7440  177.2890  140.4500 C   0  0  0  0  0  3  0  0  0  0  0  0
  190.2400  177.4090  140.4940 C   0  0  0  0  0  2  0  0  0  0  0  0
  190.2950  176.5390  139.2420 C   0  0  0  0  0  2  0  0  0  0  0  0
  1  6  1  0  0  0  0
  2  5  2  0  0  0  0
  3  1  2  0  0  0  0
  4  3  1  0  0  0  0
  5  1  1  0  0  0  0
  7  4  2  0  0  0  0
  7  2  1  0  0  0  0
  8  9  2  0  0  0  0
  8 14  1  0  0  0  0
 10  2  1  0  0  0  0
 10 14  1  0  0  0  0
 11 13  1  0  0  0  0
 11 10  2  0  0  0  0
 12 13  1  0  0  0  0
 12 15  2  0  0  0  0
 13  8  1  0  0  0  0
 15  9  1  0  0  0  0
 16 20  1  0  0  0  0
 17 20  1  0  0  0  0
 18 23  1  6  0  0  0
 18 16  1  0  0  0  0
 18 19  1  0  0  0  0
 19 17  1  0  0  0  0
 20  3  1  6  0  0  0
 21 22  1  0  0  0  0
 21 26  1  0  0  0  0
 22 24  2  0  0  0  0
 24 23  1  0  0  0  0
 25 23  1  0  0  0  0
 26 25  1  0  0  0  0
M  END
>  <MODEL>
2

>  <REMARK>
 VINA RESULT:      -8.1      3.471      7.286
  Name = 
  3 active torsions:
  status: ('A' for Active; 'I' for Inactive)
    1  A    between atoms: C_6  and  C_10
    2  A    between atoms: C_7  and  C_26
    3  A    between atoms: N_11  and  C_14
                            x       y       z     vdW  Elec       q    Type
                         _______ _______ _______ _____ _____    ______ ____

>  <TORSDO>
F 3

$$$$
=
 OpenBabel10232407523D

 26 30  0  0  1  0  0  0  0  0999 V2000
  187.8600  178.1890  141.4480 C   0  0  0  0  0  0  0  0  0  0  0  0
  189.6280  177.3890  142.8750 C   0  0  0  0  0  0  0  0  0  0  0  0
  188.6500  177.8610  140.3370 C   0  0  0  0  0  0  0  0  0  0  0  0
  189.8800  177.3140  140.5380 N   0  0  0  0  0  0  0  0  0  0  0  0
  188.3590  177.9500  142.7260 C   0  0  0  0  0  3  0  0  0  0  0  0
  186.5020  178.7880  141.3010 C   0  0  0  0  0  1  0  0  0  0  0  0
  190.3540  177.0870  141.7650 N   0  0  0  0  0  0  0  0  0  0  0  0
  191.4200  176.5180  145.7430 C   0  0  0  0  0  0  0  0  0  0  0  0
  192.3310  176.0730  146.6160 N   0  0  0  0  0  0  0  0  0  0  0  0
  190.1800  177.1250  144.2100 C   0  0  0  0  0  0  0  0  0  0  0  0
  189.5310  177.4650  145.3680 N   0  0  0  0  0  0  0  0  0  0  0  0
  190.4760  177.0190  147.6050 C   0  0  0  0  0  3  0  0  0  0  0  0
  190.3790  177.0470  146.2780 N   0  0  0  0  0  0  0  0  0  0  0  0
  191.3980  176.5140  144.4040 N   0  0  0  0  0  2  0  0  0  0  0  0
  191.7260  176.3930  147.8060 C   0  0  0  0  0  3  0  0  0  0  0  0
  188.2840  176.8310  138.1110 C   0  0  0  0  0  2  0  0  0  0  0  0
  188.9330  179.1410  138.2930 N   0  0  0  0  0  2  0  0  0  0  0  0
  188.7750  177.2960  136.7600 C   0  0  1  0  0  3  0  0  0  0  0  0
  188.9510  178.7980  136.8780 C   0  0  0  0  0  2  0  0  0  0  0  0
  188.1580  178.0910  138.9400 C   0  0  2  0  0  3  0  0  0  0  0  0
  192.4900  175.6480  135.6790 O   0  0  0  0  0  0  0  0  0  0  0  0
  191.5360  175.9350  134.6950 C   0  0  0  0  0  3  0  0  0  0  0  0
  190.0370  176.6470  136.4210 N   0  0  0  0  0  0  0  0  0  0  0  0
  190.3510  176.4410  135.0380 C   0  0  0  0  0  3  0  0  0  0  0  0
  190.8960  176.0600  137.4550 C   0  0  0  0  0  2  0  0  0  0  0  0
  192.3550  176.1360  137.0160 C   0  0  0  0  0  2  0  0  0  0  0  0
  1  5  1  0  0  0  0
  2 10  1  0  0  0  0
  3  4  1  0  0  0  0
  3  1  2  0  0  0  0
  4  7  2  0  0  0  0
  5  2  2  0  0  0  0
  6  1  1  0  0  0  0
  7  2  1  0  0  0  0
  8 13  1  0  0  0  0
  8  9  2  0  0  0  0
  9 15  1  0  0  0  0
 10 14  1  0  0  0  0
 10 11  2  0  0  0  0
 11 13  1  0  0  0  0
 12 15  2  0  0  0  0
 13 12  1  0  0  0  0
 14  8  1  0  0  0  0
 16 20  1  0  0  0  0
 17 20  1  0  0  0  0
 18 23  1  1  0  0  0
 18 19  1  0  0  0  0
 18 16  1  0  0  0  0
 19 17  1  0  0  0  0
 20  3  1  1  0  0  0
 21 26  1  0  0  0  0
 22 24  2  0  0  0  0
 22 21  1  0  0  0  0
 23 25  1  0  0  0  0
 24 23  1  0  0  0  0
 26 25  1  0  0  0  0
M  END
>  <MODEL>
3

>  <REMARK>
 VINA RESULT:      -7.9      3.962      4.768
  Name = 
  3 active torsions:
  status: ('A' for Active; 'I' for Inactive)
    1  A    between atoms: C_6  and  C_10
    2  A    between atoms: C_7  and  C_26
    3  A    between atoms: N_11  and  C_14
                            x       y       z     vdW  Elec       q    Type
                         _______ _______ _______ _____ _____    ______ ____

>  <TORSDO>
F 3

$$$$
=
 OpenBabel10232407523D

 26 30  0  0  1  0  0  0  0  0999 V2000
  187.6210  178.2720  141.2320 C   0  0  0  0  0  0  0  0  0  0  0  0
  189.3860  177.5510  142.7040 C   0  0  0  0  0  0  0  0  0  0  0  0
  188.4540  177.9830  140.1420 C   0  0  0  0  0  0  0  0  0  0  0  0
  189.7020  177.4930  140.3750 N   0  0  0  0  0  0  0  0  0  0  0  0
  188.0970  178.0530  142.5230 C   0  0  0  0  0  3  0  0  0  0  0  0
  186.2410  178.8080  141.0500 C   0  0  0  0  0  1  0  0  0  0  0  0
  190.1540  177.2850  141.6130 N   0  0  0  0  0  0  0  0  0  0  0  0
  191.1710  176.8360  145.6200 C   0  0  0  0  0  0  0  0  0  0  0  0
  192.1040  176.5040  146.5180 N   0  0  0  0  0  0  0  0  0  0  0  0
  189.9150  177.3100  144.0530 C   0  0  0  0  0  0  0  0  0  0  0  0
  189.1660  177.4700  145.1890 N   0  0  0  0  0  0  0  0  0  0  0  0
  190.0720  177.0650  147.4500 C   0  0  0  0  0  3  0  0  0  0  0  0
  190.0310  177.1510  146.1220 N   0  0  0  0  0  0  0  0  0  0  0  0
  191.2100  176.9050  144.2820 N   0  0  0  0  0  2  0  0  0  0  0  0
  191.4010  176.6500  147.6880 C   0  0  0  0  0  3  0  0  0  0  0  0
  187.8750  176.8720  138.0010 C   0  0  0  0  0  2  0  0  0  0  0  0
  188.9270  179.0360  138.0060 N   0  0  0  0  0  2  0  0  0  0  0  0
  188.4190  177.1410  136.6180 C   0  0  1  0  0  3  0  0  0  0  0  0
  188.8610  178.5920  136.6210 C   0  0  0  0  0  2  0  0  0  0  0  0
  187.9880  178.1930  138.7330 C   0  0  2  0  0  3  0  0  0  0  0  0
  191.4980  174.3870  135.8320 O   0  0  0  0  0  0  0  0  0  0  0  0
  191.0840  174.6210  137.1490 C   0  0  0  0  0  3  0  0  0  0  0  0
  189.5400  176.2540  136.3250 N   0  0  0  0  0  0  0  0  0  0  0  0
  190.1210  175.5060  137.4010 C   0  0  0  0  0  3  0  0  0  0  0  0
  190.1810  176.2440  135.0060 C   0  0  0  0  0  2  0  0  0  0  0  0
  190.7370  174.8530  134.7160 C   0  0  0  0  0  2  0  0  0  0  0  0
  1  5  1  0  0  0  0
  2 10  1  0  0  0  0
  3  4  1  0  0  0  0
  3  1  2  0  0  0  0
  4  7  2  0  0  0  0
  5  2  2  0  0  0  0
  6  1  1  0  0  0  0
  7  2  1  0  0  0  0
  8 13  1  0  0  0  0
  8  9  2  0  0  0  0
  9 15  1  0  0  0  0
 10 14  1  0  0  0  0
 10 11  2  0  0  0  0
 11 13  1  0  0  0  0
 12 15  2  0  0  0  0
 13 12  1  0  0  0  0
 14  8  1  0  0  0  0
 16 20  1  0  0  0  0
 17 20  1  0  0  0  0
 18 23  1  1  0  0  0
 18 19  1  0  0  0  0
 18 16  1  0  0  0  0
 19 17  1  0  0  0  0
 20  3  1  1  0  0  0
 21 22  1  0  0  0  0
 22 24  2  0  0  0  0
 23 24  1  0  0  0  0
 25 23  1  0  0  0  0
 26 25  1  0  0  0  0
 26 21  1  0  0  0  0
M  END
>  <MODEL>
4

>  <REMARK>
 VINA RESULT:      -7.8      3.671      4.410
  Name = 
  3 active torsions:
  status: ('A' for Active; 'I' for Inactive)
    1  A    between atoms: C_6  and  C_10
    2  A    between atoms: C_7  and  C_26
    3  A    between atoms: N_11  and  C_14
                            x       y       z     vdW  Elec       q    Type
                         _______ _______ _______ _____ _____    ______ ____

>  <TORSDO>
F 3

$$$$
=
 OpenBabel10232407523D

 26 30  0  0  1  0  0  0  0  0999 V2000
  188.0060  178.0430  140.7440 C   0  0  0  0  0  0  0  0  0  0  0  0
  185.6740  178.6260  140.9100 C   0  0  0  0  0  0  0  0  0  0  0  0
  188.0320  177.8820  142.1370 C   0  0  0  0  0  0  0  0  0  0  0  0
  186.8920  178.0940  142.8490 N   0  0  0  0  0  0  0  0  0  0  0  0
  186.8140  178.4200  140.1310 C   0  0  0  0  0  3  0  0  0  0  0  0
  189.2170  177.8240  139.9020 C   0  0  0  0  0  1  0  0  0  0  0  0
  185.7520  178.4550  142.2560 N   0  0  0  0  0  0  0  0  0  0  0  0
  183.0070  179.9240  139.0670 C   0  0  0  0  0  0  0  0  0  0  0  0
  182.2320  180.5820  138.1980 N   0  0  0  0  0  0  0  0  0  0  0  0
  184.4030  179.0240  140.2900 C   0  0  0  0  0  0  0  0  0  0  0  0
  183.1880  178.5430  140.7000 N   0  0  0  0  0  0  0  0  0  0  0  0
  181.0620  179.2200  139.6430 C   0  0  0  0  0  3  0  0  0  0  0  0
  182.3700  179.1600  139.8810 N   0  0  0  0  0  0  0  0  0  0  0  0
  184.3350  179.9130  139.2420 N   0  0  0  0  0  2  0  0  0  0  0  0
  180.9890  180.1320  138.5670 C   0  0  0  0  0  3  0  0  0  0  0  0
  188.9730  176.5380  143.9980 C   0  0  0  0  0  2  0  0  0  0  0  0
  189.9770  178.6360  143.3810 N   0  0  0  0  0  2  0  0  0  0  0  0
  189.8790  176.9820  145.1220 C   0  0  1  0  0  3  0  0  0  0  0  0
  190.6490  178.1760  144.5860 C   0  0  0  0  0  2  0  0  0  0  0  0
  189.2870  177.4700  142.8470 C   0  0  2  0  0  3  0  0  0  0  0  0
  187.7350  178.2730  148.5010 O   0  0  0  0  0  0  0  0  0  0  0  0
  189.1130  178.0390  148.5910 C   0  0  0  0  0  3  0  0  0  0  0  0
  189.0980  177.3490  146.2980 N   0  0  0  0  0  0  0  0  0  0  0  0
  189.7900  177.6120  147.5260 C   0  0  0  0  0  3  0  0  0  0  0  0
  187.6320  177.2880  146.2900 C   0  0  0  0  0  2  0  0  0  0  0  0
  187.0690  178.3430  147.2380 C   0  0  0  0  0  2  0  0  0  0  0  0
  1  3  1  0  0  0  0
  2  7  2  0  0  0  0
  3  4  2  0  0  0  0
  5  1  2  0  0  0  0
  5  2  1  0  0  0  0
  6  1  1  0  0  0  0
  7  4  1  0  0  0  0
  8 14  1  0  0  0  0
  8 13  1  0  0  0  0
  9 15  1  0  0  0  0
  9  8  2  0  0  0  0
 10 11  2  0  0  0  0
 10  2  1  0  0  0  0
 12 13  1  0  0  0  0
 13 11  1  0  0  0  0
 14 10  1  0  0  0  0
 15 12  2  0  0  0  0
 17 19  1  0  0  0  0
 18 16  1  6  0  0  0
 18 23  1  0  0  0  0
 19 18  1  0  0  0  0
 20  3  1  1  0  0  0
 20 17  1  0  0  0  0
 20 16  1  0  0  0  0
 21 22  1  0  0  0  0
 23 24  1  0  0  0  0
 24 22  2  0  0  0  0
 25 23  1  0  0  0  0
 25 26  1  0  0  0  0
 26 21  1  0  0  0  0
M  END
>  <MODEL>
5

>  <REMARK>
 VINA RESULT:      -7.7      3.436      8.786
  Name = 
  3 active torsions:
  status: ('A' for Active; 'I' for Inactive)
    1  A    between atoms: C_6  and  C_10
    2  A    between atoms: C_7  and  C_26
    3  A    between atoms: N_11  and  C_14
                            x       y       z     vdW  Elec       q    Type
                         _______ _______ _______ _____ _____    ______ ____

>  <TORSDO>
F 3

$$$$
=
 OpenBabel10232407523D

 26 30  0  0  1  0  0  0  0  0999 V2000
  191.0410  177.4590  141.4140 C   0  0  0  0  0  0  0  0  0  0  0  0
  189.4160  177.5320  143.1920 C   0  0  0  0  0  0  0  0  0  0  0  0
  189.9860  177.3420  140.4980 C   0  0  0  0  0  0  0  0  0  0  0  0
  188.7060  177.3280  140.9600 N   0  0  0  0  0  0  0  0  0  0  0  0
  190.7470  177.5530  142.7730 C   0  0  0  0  0  3  0  0  0  0  0  0
  192.4660  177.4830  140.9770 C   0  0  0  0  0  1  0  0  0  0  0  0
  188.4300  177.4190  142.2630 N   0  0  0  0  0  0  0  0  0  0  0  0
  189.2200  177.6900  146.6750 C   0  0  0  0  0  0  0  0  0  0  0  0
  189.4790  177.7110  147.9870 N   0  0  0  0  0  0  0  0  0  0  0  0
  189.0780  177.6300  144.6180 C   0  0  0  0  0  0  0  0  0  0  0  0
  187.7990  177.8140  145.0720 N   0  0  0  0  0  0  0  0  0  0  0  0
  187.2480  177.9810  147.4730 C   0  0  0  0  0  3  0  0  0  0  0  0
  187.9810  177.8390  146.3710 N   0  0  0  0  0  0  0  0  0  0  0  0
  190.0240  177.5460  145.6140 N   0  0  0  0  0  2  0  0  0  0  0  0
  188.2180  177.8960  148.4970 C   0  0  0  0  0  3  0  0  0  0  0  0
  189.3310  178.1730  138.2550 C   0  0  0  0  0  2  0  0  0  0  0  0
  190.0140  175.8850  138.5550 N   0  0  0  0  0  2  0  0  0  0  0  0
  188.8990  177.3830  137.0410 C   0  0  1  0  0  3  0  0  0  0  0  0
  189.5490  176.0190  137.1820 C   0  0  0  0  0  2  0  0  0  0  0  0
  190.2450  177.2440  139.0250 C   0  0  2  0  0  3  0  0  0  0  0  0
  184.7000  177.2950  136.8420 O   0  0  0  0  0  0  0  0  0  0  0  0
  185.3390  177.9590  137.8960 C   0  0  0  0  0  3  0  0  0  0  0  0
  187.4460  177.2670  136.9940 N   0  0  0  0  0  0  0  0  0  0  0  0
  186.6690  177.9730  137.9700 C   0  0  0  0  0  3  0  0  0  0  0  0
  186.7850  176.3210  136.0870 C   0  0  0  0  0  2  0  0  0  0  0  0
  185.4180  176.8660  135.6830 C   0  0  0  0  0  2  0  0  0  0  0  0
  1  5  1  0  0  0  0
  2 10  1  0  0  0  0
  3  4  1  0  0  0  0
  3  1  2  0  0  0  0
  4  7  2  0  0  0  0
  5  2  2  0  0  0  0
  6  1  1  0  0  0  0
  7  2  1  0  0  0  0
  8  9  2  0  0  0  0
  9 15  1  0  0  0  0
 10 11  2  0  0  0  0
 10 14  1  0  0  0  0
 11 13  1  0  0  0  0
 12 15  2  0  0  0  0
 13  8  1  0  0  0  0
 13 12  1  0  0  0  0
 14  8  1  0  0  0  0
 16 20  1  0  0  0  0
 17 20  1  0  0  0  0
 18 23  1  1  0  0  0
 18 19  1  0  0  0  0
 18 16  1  0  0  0  0
 19 17  1  0  0  0  0
 20  3  1  1  0  0  0
 21 22  1  0  0  0  0
 22 24  2  0  0  0  0
 23 24  1  0  0  0  0
 25 23  1  0  0  0  0
 26 25  1  0  0  0  0
 26 21  1  0  0  0  0
M  END
>  <MODEL>
6

>  <REMARK>
 VINA RESULT:      -7.7      3.033      4.509
  Name = 
  3 active torsions:
  status: ('A' for Active; 'I' for Inactive)
    1  A    between atoms: C_6  and  C_10
    2  A    between atoms: C_7  and  C_26
    3  A    between atoms: N_11  and  C_14
                            x       y       z     vdW  Elec       q    Type
                         _______ _______ _______ _____ _____    ______ ____

>  <TORSDO>
F 3

$$$$
=
 OpenBabel10232407523D

 26 30  0  0  1  0  0  0  0  0999 V2000
  183.5950  178.7580  143.2860 C   0  0  0  0  0  0  0  0  0  0  0  0
  185.7900  178.2350  144.1290 C   0  0  0  0  0  0  0  0  0  0  0  0
  184.0730  178.5280  141.9880 C   0  0  0  0  0  0  0  0  0  0  0  0
  185.3730  178.1620  141.8160 N   0  0  0  0  0  0  0  0  0  0  0  0
  184.4660  178.6100  144.3620 C   0  0  0  0  0  3  0  0  0  0  0  0
  182.1820  179.1580  143.5460 C   0  0  0  0  0  1  0  0  0  0  0  0
  186.2030  178.0220  142.8510 N   0  0  0  0  0  0  0  0  0  0  0  0
  188.4330  177.6830  146.3430 C   0  0  0  0  0  0  0  0  0  0  0  0
  189.6120  177.3980  146.9070 N   0  0  0  0  0  0  0  0  0  0  0  0
  186.7310  178.0710  145.2450 C   0  0  0  0  0  0  0  0  0  0  0  0
  186.3900  178.3040  146.5510 N   0  0  0  0  0  0  0  0  0  0  0  0
  187.9860  178.0280  148.4140 C   0  0  0  0  0  3  0  0  0  0  0  0
  187.5150  178.0350  147.1690 N   0  0  0  0  0  0  0  0  0  0  0  0
  188.0350  177.6710  145.0640 N   0  0  0  0  0  2  0  0  0  0  0  0
  189.3250  177.6180  148.2320 C   0  0  0  0  0  3  0  0  0  0  0  0
  183.1730  177.3940  139.9730 C   0  0  0  0  0  2  0  0  0  0  0  0
  183.6250  179.7580  139.9420 N   0  0  0  0  0  2  0  0  0  0  0  0
  183.2030  177.8550  138.5350 C   0  0  1  0  0  3  0  0  0  0  0  0
  183.2620  179.3710  138.5870 C   0  0  0  0  0  2  0  0  0  0  0  0
  183.1760  178.6660  140.7950 C   0  0  2  0  0  3  0  0  0  0  0  0
  186.6660  176.2460  136.7740 O   0  0  0  0  0  0  0  0  0  0  0  0
  186.7050  177.5120  137.3700 C   0  0  0  0  0  3  0  0  0  0  0  0
  184.3670  177.3100  137.8450 N   0  0  0  0  0  0  0  0  0  0  0  0
  185.6040  178.0310  137.9120 C   0  0  0  0  0  3  0  0  0  0  0  0
  184.2530  176.1470  136.9570 C   0  0  0  0  0  2  0  0  0  0  0  0
  185.5600  175.3610  136.9700 C   0  0  0  0  0  2  0  0  0  0  0  0
  1  6  1  0  0  0  0
  1  5  1  0  0  0  0
  2  5  2  0  0  0  0
  2 10  1  0  0  0  0
  3  1  2  0  0  0  0
  4  3  1  0  0  0  0
  4  7  2  0  0  0  0
  7  2  1  0  0  0  0
  8  9  2  0  0  0  0
  8 13  1  0  0  0  0
  9 15  1  0  0  0  0
 10 11  2  0  0  0  0
 11 13  1  0  0  0  0
 13 12  1  0  0  0  0
 14 10  1  0  0  0  0
 14  8  1  0  0  0  0
 15 12  2  0  0  0  0
 16 20  1  0  0  0  0
 17 20  1  0  0  0  0
 18 23  1  1  0  0  0
 18 19  1  0  0  0  0
 18 16  1  0  0  0  0
 19 17  1  0  0  0  0
 20  3  1  1  0  0  0
 21 26  1  0  0  0  0
 21 22  1  0  0  0  0
 22 24  2  0  0  0  0
 23 24  1  0  0  0  0
 25 26  1  0  0  0  0
 25 23  1  0  0  0  0
M  END
>  <MODEL>
7

>  <REMARK>
 VINA RESULT:      -7.6      1.519      2.188
  Name = 
  3 active torsions:
  status: ('A' for Active; 'I' for Inactive)
    1  A    between atoms: C_6  and  C_10
    2  A    between atoms: C_7  and  C_26
    3  A    between atoms: N_11  and  C_14
                            x       y       z     vdW  Elec       q    Type
                         _______ _______ _______ _____ _____    ______ ____

>  <TORSDO>
F 3

$$$$
=
 OpenBabel10232407523D

 26 30  0  0  1  0  0  0  0  0999 V2000
  191.4320  177.2950  140.1320 C   0  0  0  0  0  0  0  0  0  0  0  0
  189.2720  177.3710  139.0660 C   0  0  0  0  0  0  0  0  0  0  0  0
  190.7830  177.2810  141.3750 C   0  0  0  0  0  0  0  0  0  0  0  0
  189.4230  177.3090  141.4120 N   0  0  0  0  0  0  0  0  0  0  0  0
  190.6640  177.3420  138.9700 C   0  0  0  0  0  3  0  0  0  0  0  0
  192.9180  177.2630  140.0170 C   0  0  0  0  0  1  0  0  0  0  0  0
  188.6920  177.3540  140.2960 N   0  0  0  0  0  0  0  0  0  0  0  0
  186.8140  177.4270  136.5870 C   0  0  0  0  0  0  0  0  0  0  0  0
  185.6650  177.4170  135.9020 N   0  0  0  0  0  0  0  0  0  0  0  0
  188.4380  177.4210  137.8580 C   0  0  0  0  0  0  0  0  0  0  0  0
  188.9550  177.5610  136.5970 N   0  0  0  0  0  0  0  0  0  0  0  0
  187.5380  177.6470  134.5780 C   0  0  0  0  0  3  0  0  0  0  0  0
  187.8680  177.5540  135.8640 N   0  0  0  0  0  0  0  0  0  0  0  0
  187.0660  177.3320  137.8990 N   0  0  0  0  0  2  0  0  0  0  0  0
  186.1280  177.5570  134.6180 C   0  0  0  0  0  3  0  0  0  0  0  0
  190.9460  176.2260  143.6140 C   0  0  0  0  0  2  0  0  0  0  0  0
  191.5750  178.5280  143.3020 N   0  0  0  0  0  2  0  0  0  0  0  0
  191.0160  176.8880  144.9690 C   0  0  1  0  0  3  0  0  0  0  0  0
  191.6310  178.2550  144.7310 C   0  0  0  0  0  2  0  0  0  0  0  0
  191.5610  177.2230  142.6550 C   0  0  2  0  0  3  0  0  0  0  0  0
  187.2500  177.4630  146.7470 O   0  0  0  0  0  0  0  0  0  0  0  0
  188.3650  177.1730  147.5430 C   0  0  0  0  0  3  0  0  0  0  0  0
  189.6850  177.0090  145.5530 N   0  0  0  0  0  0  0  0  0  0  0  0
  189.5560  176.9730  146.9800 C   0  0  0  0  0  3  0  0  0  0  0  0
  188.4800  176.9960  144.7150 C   0  0  0  0  0  2  0  0  0  0  0  0
  187.3870  177.8320  145.3730 C   0  0  0  0  0  2  0  0  0  0  0  0
  1  3  1  0  0  0  0
  2  7  2  0  0  0  0
  3  4  2  0  0  0  0
  5  2  1  0  0  0  0
  5  1  2  0  0  0  0
  6  1  1  0  0  0  0
  7  4  1  0  0  0  0
  8 14  1  0  0  0  0
  9  8  2  0  0  0  0
 10 14  1  0  0  0  0
 10  2  1  0  0  0  0
 11 10  2  0  0  0  0
 12 15  2  0  0  0  0
 12 13  1  0  0  0  0
 13  8  1  0  0  0  0
 13 11  1  0  0  0  0
 15  9  1  0  0  0  0
 17 19  1  0  0  0  0
 18 16  1  6  0  0  0
 18 23  1  0  0  0  0
 19 18  1  0  0  0  0
 20  3  1  6  0  0  0
 20 17  1  0  0  0  0
 20 16  1  0  0  0  0
 21 22  1  0  0  0  0
 23 24  1  0  0  0  0
 24 22  2  0  0  0  0
 25 26  1  0  0  0  0
 25 23  1  0  0  0  0
 26 21  1  0  0  0  0
M  END
>  <MODEL>
8

>  <REMARK>
 VINA RESULT:      -7.6      3.913      8.990
  Name = 
  3 active torsions:
  status: ('A' for Active; 'I' for Inactive)
    1  A    between atoms: C_6  and  C_10
    2  A    between atoms: C_7  and  C_26
    3  A    between atoms: N_11  and  C_14
                            x       y       z     vdW  Elec       q    Type
                         _______ _______ _______ _____ _____    ______ ____

>  <TORSDO>
F 3

$$$$
=
 OpenBabel10232407523D

 26 30  0  0  1  0  0  0  0  0999 V2000
  190.9400  177.4390  141.2020 C   0  0  0  0  0  0  0  0  0  0  0  0
  189.3790  177.5900  143.0310 C   0  0  0  0  0  0  0  0  0  0  0  0
  189.8600  177.5400  140.3140 C   0  0  0  0  0  0  0  0  0  0  0  0
  188.6000  177.6630  140.8150 N   0  0  0  0  0  0  0  0  0  0  0  0
  190.6910  177.4640  142.5730 C   0  0  0  0  0  3  0  0  0  0  0  0
  192.3450  177.3040  140.7230 C   0  0  0  0  0  1  0  0  0  0  0  0
  188.3680  177.6860  142.1280 N   0  0  0  0  0  0  0  0  0  0  0  0
  188.0920  177.6650  146.2770 C   0  0  0  0  0  0  0  0  0  0  0  0
  187.3030  177.6920  147.3570 N   0  0  0  0  0  0  0  0  0  0  0  0
  189.0880  177.6200  144.4710 C   0  0  0  0  0  0  0  0  0  0  0  0
  190.0640  177.6200  145.4320 N   0  0  0  0  0  0  0  0  0  0  0  0
  189.5560  177.6650  147.8480 C   0  0  0  0  0  3  0  0  0  0  0  0
  189.3510  177.6510  146.5320 N   0  0  0  0  0  0  0  0  0  0  0  0
  187.8050  177.6470  144.9690 N   0  0  0  0  0  2  0  0  0  0  0  0
  188.2400  177.6920  148.3610 C   0  0  0  0  0  3  0  0  0  0  0  0
  189.0650  178.4150  138.1340 C   0  0  0  0  0  2  0  0  0  0  0  0
  189.9250  176.1750  138.3060 N   0  0  0  0  0  2  0  0  0  0  0  0
  188.6490  177.6490  136.9000 C   0  0  1  0  0  3  0  0  0  0  0  0
  189.4020  176.3330  136.9580 C   0  0  0  0  0  2  0  0  0  0  0  0
  190.0730  177.5260  138.8300 C   0  0  2  0  0  3  0  0  0  0  0  0
  184.4630  177.2540  136.8330 O   0  0  0  0  0  0  0  0  0  0  0  0
  185.0880  177.9300  137.8890 C   0  0  0  0  0  3  0  0  0  0  0  0
  187.2070  177.4260  136.8960 N   0  0  0  0  0  0  0  0  0  0  0  0
  186.4150  178.0400  137.9210 C   0  0  0  0  0  3  0  0  0  0  0  0
  186.5870  176.4640  135.9780 C   0  0  0  0  0  2  0  0  0  0  0  0
  185.1710  176.9180  135.6380 C   0  0  0  0  0  2  0  0  0  0  0  0
  1  5  1  0  0  0  0
  2 10  1  0  0  0  0
  3  4  1  0  0  0  0
  3  1  2  0  0  0  0
  4  7  2  0  0  0  0
  5  2  2  0  0  0  0
  6  1  1  0  0  0  0
  7  2  1  0  0  0  0
  8 13  1  0  0  0  0
  8  9  2  0  0  0  0
  9 15  1  0  0  0  0
 10 14  1  0  0  0  0
 10 11  2  0  0  0  0
 11 13  1  0  0  0  0
 12 15  2  0  0  0  0
 13 12  1  0  0  0  0
 14  8  1  0  0  0  0
 16 20  1  0  0  0  0
 17 20  1  0  0  0  0
 18 23  1  1  0  0  0
 18 19  1  0  0  0  0
 18 16  1  0  0  0  0
 19 17  1  0  0  0  0
 20  3  1  1  0  0  0
 21 22  1  0  0  0  0
 22 24  2  0  0  0  0
 23 24  1  0  0  0  0
 25 23  1  0  0  0  0
 26 25  1  0  0  0  0
 26 21  1  0  0  0  0
M  END
>  <MODEL>
9

>  <REMARK>
 VINA RESULT:      -7.6      2.984      4.367
  Name = 
  3 active torsions:
  status: ('A' for Active; 'I' for Inactive)
    1  A    between atoms: C_6  and  C_10
    2  A    between atoms: C_7  and  C_26
    3  A    between atoms: N_11  and  C_14
                            x       y       z     vdW  Elec       q    Type
                         _______ _______ _______ _____ _____    ______ ____

>  <TORSDO>
F 3

$$$$
