=
 OpenBabel10232407533D

 26 27  0  0  1  0  0  0  0  0999 V2000
  190.7700  176.4540  140.3240 N   0  0  0  0  0  2  0  0  0  0  0  0
  190.6970  175.6690  137.9040 C   0  0  1  0  0  3  0  0  0  0  0  0
  187.9420  176.4990  137.8840 C   0  0  0  0  0  2  0  0  0  0  0  0
  190.0200  176.2560  139.1200 C   0  0  0  0  0  0  0  0  0  0  0  0
  189.9830  176.9370  135.9260 N   0  0  0  0  0  2  0  0  0  0  0  0
  188.9940  177.9000  136.1820 N   0  0  0  0  0  0  0  0  0  0  0  0
  191.0860  176.7060  136.8480 C   0  0  0  0  0  2  0  0  0  0  0  0
  188.0570  177.7490  137.0730 C   0  0  0  0  0  0  0  0  0  0  0  0
  188.7690  176.6080  139.0770 N   0  0  0  0  0  0  0  0  0  0  0  0
  188.7010  176.2750  143.4120 C   0  0  0  0  0  2  0  0  0  0  0  0
  189.8640  175.8610  142.5150 C   0  0  0  0  0  2  0  0  0  0  0  0
  189.0950  177.2710  144.5060 C   0  0  2  0  0  3  0  0  0  0  0  0
  191.0840  178.1070  143.5970 N   0  0  0  0  0  0  0  0  0  0  0  0
  190.1920  176.9930  141.5450 C   0  0  1  0  0  3  0  0  0  0  0  0
  191.1520  178.0310  142.1400 C   0  0  0  0  0  2  0  0  0  0  0  0
  191.9400  179.2100  143.9950 C   0  0  0  0  0  1  0  0  0  0  0  0
  189.7730  178.4590  143.9670 N   0  0  0  0  0  2  0  0  0  0  0  0
  189.8750  176.5990  145.6370 C   0  0  0  0  0  2  0  0  0  0  0  0
  189.6960  177.3380  146.9570 C   0  0  0  0  0  2  0  0  0  0  0  0
  188.2250  177.5630  147.2680 C   0  0  0  0  0  2  0  0  0  0  0  0
  188.0550  178.1200  148.6690 C   0  0  0  0  0  1  0  0  0  0  0  0
  187.1290  178.7680  137.2990 O   0  0  0  0  0  0  0  0  0  0  0  0
  185.8740  178.5280  137.9210 C   0  0  0  0  0  1  0  0  0  0  0  0
  191.7070  174.7240  138.2050 O   0  0  0  0  0  0  0  0  0  0  0  0
  192.6600  174.7100  137.1720 C   0  0  0  0  0  2  0  0  0  0  0  0
  194.0430  174.5370  137.7640 C   0  0  0  0  0  1  0  0  0  0  0  0
  2 24  1  1  0  0  0
  2  4  1  0  0  0  0
  3  9  1  0  0  0  0
  4  1  1  0  0  0  0
  5  6  1  0  0  0  0
  5  7  1  0  0  0  0
  6  8  2  0  0  0  0
  7  2  1  0  0  0  0
  8 22  1  0  0  0  0
  8  3  1  0  0  0  0
  9  4  2  0  0  0  0
 10 12  1  0  0  0  0
 11 10  1  0  0  0  0
 12 18  1  1  0  0  0
 13 17  1  0  0  0  0
 13 16  1  0  0  0  0
 14  1  1  6  0  0  0
 14 15  1  0  0  0  0
 14 11  1  0  0  0  0
 15 13  1  0  0  0  0
 17 12  1  0  0  0  0
 18 19  1  0  0  0  0
 19 20  1  0  0  0  0
 20 21  1  0  0  0  0
 22 23  1  0  0  0  0
 25 26  1  0  0  0  0
 25 24  1  0  0  0  0
M  END
>  <MODEL>
1

>  <REMARK>
 VINA RESULT:      -6.5      0.000      0.000
  Name = 
  7 active torsions:
  status: ('A' for Active; 'I' for Inactive)
    1  A    between atoms: N_1  and  C_11
    2  A    between atoms: O_2  and  C_7
    3  A    between atoms: O_2  and  C_13
    4  A    between atoms: O_5  and  C_23
    5  A    between atoms: C_6  and  C_12
    6  A    between atoms: C_6  and  C_22
    7  A    between atoms: C_8  and  C_12
                            x       y       z     vdW  Elec       q    Type
                         _______ _______ _______ _____ _____    ______ ____

>  <TORSDO>
F 7

$$$$
=
 OpenBabel10232407533D

 26 27  0  0  1  0  0  0  0  0999 V2000
  183.8600  178.1570  142.8800 N   0  0  0  0  0  2  0  0  0  0  0  0
  182.4660  178.2250  140.7510 C   0  0  1  0  0  3  0  0  0  0  0  0
  184.7080  179.5380  139.5140 C   0  0  0  0  0  2  0  0  0  0  0  0
  183.7340  178.5470  141.5080 C   0  0  0  0  0  0  0  0  0  0  0  0
  183.0790  177.4070  138.5190 N   0  0  0  0  0  2  0  0  0  0  0  0
  184.4520  177.4740  138.2340 N   0  0  0  0  0  0  0  0  0  0  0  0
  182.5850  177.0090  139.8300 C   0  0  0  0  0  2  0  0  0  0  0  0
  185.2320  178.4160  138.6780 C   0  0  0  0  0  0  0  0  0  0  0  0
  184.7210  179.1540  140.9190 N   0  0  0  0  0  0  0  0  0  0  0  0
  185.6100  179.1640  146.0060 C   0  0  0  0  0  2  0  0  0  0  0  0
  184.7150  178.2550  145.1670 C   0  0  0  0  0  2  0  0  0  0  0  0
  187.0530  178.6650  146.1220 C   0  0  2  0  0  3  0  0  0  0  0  0
  187.1350  177.2240  144.2780 N   0  0  0  0  0  0  0  0  0  0  0  0
  185.0360  178.4460  143.6870 C   0  0  1  0  0  3  0  0  0  0  0  0
  186.2010  177.5710  143.2100 C   0  0  0  0  0  2  0  0  0  0  0  0
  188.2370  176.5160  143.6530 C   0  0  0  0  0  1  0  0  0  0  0  0
  187.6670  178.4130  144.8100 N   0  0  0  0  0  2  0  0  0  0  0  0
  187.1730  177.4760  147.0770 C   0  0  0  0  0  2  0  0  0  0  0  0
  187.8550  177.8710  148.3800 C   0  0  0  0  0  2  0  0  0  0  0  0
  189.3540  178.0380  148.1910 C   0  0  0  0  0  2  0  0  0  0  0  0
  189.9170  176.9050  147.3550 C   0  0  0  0  0  1  0  0  0  0  0  0
  186.5980  178.3970  138.3840 O   0  0  0  0  0  0  0  0  0  0  0  0
  187.0890  178.2740  137.0570 C   0  0  0  0  0  1  0  0  0  0  0  0
  181.2960  178.2520  141.5470 O   0  0  0  0  0  0  0  0  0  0  0  0
  180.7310  179.5380  141.5060 C   0  0  0  0  0  2  0  0  0  0  0  0
  180.1000  179.8550  142.8460 C   0  0  0  0  0  1  0  0  0  0  0  0
  2  4  1  0  0  0  0
  2 24  1  1  0  0  0
  3  9  1  0  0  0  0
  4  1  1  0  0  0  0
  5  7  1  0  0  0  0
  6  5  1  0  0  0  0
  6  8  2  0  0  0  0
  7  2  1  0  0  0  0
  8  3  1  0  0  0  0
  9  4  2  0  0  0  0
 10 12  1  0  0  0  0
 11 10  1  0  0  0  0
 12 18  1  1  0  0  0
 13 17  1  0  0  0  0
 14  1  1  6  0  0  0
 14 11  1  0  0  0  0
 15 14  1  0  0  0  0
 15 13  1  0  0  0  0
 16 13  1  0  0  0  0
 17 12  1  0  0  0  0
 18 19  1  0  0  0  0
 20 19  1  0  0  0  0
 21 20  1  0  0  0  0
 22  8  1  0  0  0  0
 23 22  1  0  0  0  0
 25 24  1  0  0  0  0
 25 26  1  0  0  0  0
M  END
>  <MODEL>
2

>  <REMARK>
 VINA RESULT:      -6.5      3.954      6.734
  Name = 
  7 active torsions:
  status: ('A' for Active; 'I' for Inactive)
    1  A    between atoms: N_1  and  C_11
    2  A    between atoms: O_2  and  C_7
    3  A    between atoms: O_2  and  C_13
    4  A    between atoms: O_5  and  C_23
    5  A    between atoms: C_6  and  C_12
    6  A    between atoms: C_6  and  C_22
    7  A    between atoms: C_8  and  C_12
                            x       y       z     vdW  Elec       q    Type
                         _______ _______ _______ _____ _____    ______ ____

>  <TORSDO>
F 7

$$$$
=
 OpenBabel10232407533D

 26 27  0  0  1  0  0  0  0  0999 V2000
  185.8450  178.5680  141.0630 N   0  0  0  0  0  2  0  0  0  0  0  0
  184.3860  179.0250  139.0280 C   0  0  1  0  0  3  0  0  0  0  0  0
  182.3840  177.3910  140.2950 C   0  0  0  0  0  2  0  0  0  0  0  0
  184.6120  178.3590  140.3650 C   0  0  0  0  0  0  0  0  0  0  0  0
  182.0990  179.9170  138.9790 N   0  0  0  0  0  2  0  0  0  0  0  0
  181.3240  179.5830  140.1010 N   0  0  0  0  0  0  0  0  0  0  0  0
  183.5060  180.2740  139.0970 C   0  0  0  0  0  2  0  0  0  0  0  0
  181.4300  178.4540  140.7380 C   0  0  0  0  0  0  0  0  0  0  0  0
  183.6890  177.6160  140.9010 N   0  0  0  0  0  0  0  0  0  0  0  0
  188.0240  176.7310  143.4560 C   0  0  0  0  0  2  0  0  0  0  0  0
  187.6640  177.9110  142.5570 C   0  0  0  0  0  2  0  0  0  0  0  0
  187.6910  176.9610  144.9320 C   0  0  2  0  0  3  0  0  0  0  0  0
  186.1220  178.6870  144.7320 N   0  0  0  0  0  0  0  0  0  0  0  0
  186.1530  177.9500  142.3440 C   0  0  1  0  0  3  0  0  0  0  0  0
  185.4100  178.6990  143.4560 C   0  0  0  0  0  2  0  0  0  0  0  0
  185.2430  179.3130  145.7030 C   0  0  0  0  0  1  0  0  0  0  0  0
  186.2880  177.3500  145.1380 N   0  0  0  0  0  2  0  0  0  0  0  0
  188.6810  177.9170  145.6000 C   0  0  0  0  0  2  0  0  0  0  0  0
  189.5910  177.1870  146.5790 C   0  0  0  0  0  2  0  0  0  0  0  0
  190.9490  176.8960  145.9590 C   0  0  0  0  0  2  0  0  0  0  0  0
  191.8310  176.1400  146.9350 C   0  0  0  0  0  1  0  0  0  0  0  0
  180.6510  178.2060  141.8710 O   0  0  0  0  0  0  0  0  0  0  0  0
  180.9880  178.7180  143.1530 C   0  0  0  0  0  1  0  0  0  0  0  0
  185.5590  179.1690  138.2490 O   0  0  0  0  0  0  0  0  0  0  0  0
  185.8370  177.9600  137.5900 C   0  0  0  0  0  2  0  0  0  0  0  0
  187.2830  177.5780  137.8240 C   0  0  0  0  0  1  0  0  0  0  0  0
  2 24  1  1  0  0  0
  2  7  1  0  0  0  0
  2  4  1  0  0  0  0
  3  8  1  0  0  0  0
  3  9  1  0  0  0  0
  4  9  2  0  0  0  0
  4  1  1  0  0  0  0
  5  7  1  0  0  0  0
  5  6  1  0  0  0  0
  6  8  2  0  0  0  0
  8 22  1  0  0  0  0
 10 12  1  0  0  0  0
 11 10  1  0  0  0  0
 12 17  1  0  0  0  0
 12 18  1  6  0  0  0
 13 17  1  0  0  0  0
 13 16  1  0  0  0  0
 14  1  1  6  0  0  0
 14 11  1  0  0  0  0
 14 15  1  0  0  0  0
 15 13  1  0  0  0  0
 18 19  1  0  0  0  0
 20 19  1  0  0  0  0
 20 21  1  0  0  0  0
 22 23  1  0  0  0  0
 25 26  1  0  0  0  0
 25 24  1  0  0  0  0
M  END
>  <MODEL>
3

>  <REMARK>
 VINA RESULT:      -6.5      4.121      6.035
  Name = 
  7 active torsions:
  status: ('A' for Active; 'I' for Inactive)
    1  A    between atoms: N_1  and  C_11
    2  A    between atoms: O_2  and  C_7
    3  A    between atoms: O_2  and  C_13
    4  A    between atoms: O_5  and  C_23
    5  A    between atoms: C_6  and  C_12
    6  A    between atoms: C_6  and  C_22
    7  A    between atoms: C_8  and  C_12
                            x       y       z     vdW  Elec       q    Type
                         _______ _______ _______ _____ _____    ______ ____

>  <TORSDO>
F 7

$$$$
=
 OpenBabel10232407533D

 26 27  0  0  1  0  0  0  0  0999 V2000
  189.8830  176.6350  140.0860 N   0  0  0  0  0  2  0  0  0  0  0  0
  190.4100  176.0580  137.6640 C   0  0  1  0  0  3  0  0  0  0  0  0
  193.1110  176.8810  138.2230 C   0  0  0  0  0  2  0  0  0  0  0  0
  190.8350  176.5790  139.0170 C   0  0  0  0  0  0  0  0  0  0  0  0
  192.1710  174.5730  136.8150 N   0  0  0  0  0  2  0  0  0  0  0  0
  193.3230  174.5240  137.6150 N   0  0  0  0  0  0  0  0  0  0  0  0
  190.8360  174.6140  137.3930 C   0  0  0  0  0  2  0  0  0  0  0  0
  193.7780  175.5440  138.2840 C   0  0  0  0  0  0  0  0  0  0  0  0
  192.0610  176.9550  139.2290 N   0  0  0  0  0  0  0  0  0  0  0  0
  189.1620  178.5240  143.2110 C   0  0  0  0  0  2  0  0  0  0  0  0
  188.9170  177.4150  142.1920 C   0  0  0  0  0  2  0  0  0  0  0  0
  189.9600  178.0670  144.4350 C   0  0  2  0  0  3  0  0  0  0  0  0
  190.9570  176.1320  143.5710 N   0  0  0  0  0  0  0  0  0  0  0  0
  190.2010  177.1420  141.4130 C   0  0  1  0  0  3  0  0  0  0  0  0
  191.1310  176.1490  142.1200 C   0  0  0  0  0  2  0  0  0  0  0  0
  191.9830  175.2540  144.1020 C   0  0  0  0  0  1  0  0  0  0  0  0
  191.2290  177.4200  144.0680 N   0  0  0  0  0  2  0  0  0  0  0  0
  189.1130  177.2240  145.3890 C   0  0  0  0  0  2  0  0  0  0  0  0
  187.9770  178.0370  145.9960 C   0  0  0  0  0  2  0  0  0  0  0  0
  186.6220  177.4570  145.6230 C   0  0  0  0  0  2  0  0  0  0  0  0
  185.5450  178.5230  145.6980 C   0  0  0  0  0  1  0  0  0  0  0  0
  194.9100  175.4110  139.0910 O   0  0  0  0  0  0  0  0  0  0  0  0
  195.7460  174.2630  139.0450 C   0  0  0  0  0  1  0  0  0  0  0  0
  189.0680  176.3540  137.3260 O   0  0  0  0  0  0  0  0  0  0  0  0
  189.0410  177.3590  136.3450 C   0  0  0  0  0  2  0  0  0  0  0  0
  188.8490  178.7070  137.0070 C   0  0  0  0  0  1  0  0  0  0  0  0
  2 24  1  1  0  0  0
  2  4  1  0  0  0  0
  3  8  1  0  0  0  0
  3  9  1  0  0  0  0
  4  9  2  0  0  0  0
  4  1  1  0  0  0  0
  5  7  1  0  0  0  0
  5  6  1  0  0  0  0
  6  8  2  0  0  0  0
  7  2  1  0  0  0  0
  8 22  1  0  0  0  0
 10 12  1  0  0  0  0
 11 10  1  0  0  0  0
 12 18  1  6  0  0  0
 13 17  1  0  0  0  0
 13 16  1  0  0  0  0
 14  1  1  6  0  0  0
 14 15  1  0  0  0  0
 14 11  1  0  0  0  0
 15 13  1  0  0  0  0
 17 12  1  0  0  0  0
 18 19  1  0  0  0  0
 20 21  1  0  0  0  0
 20 19  1  0  0  0  0
 23 22  1  0  0  0  0
 25 26  1  0  0  0  0
 25 24  1  0  0  0  0
M  END
>  <MODEL>
4

>  <REMARK>
 VINA RESULT:      -6.3      2.064      4.195
  Name = 
  7 active torsions:
  status: ('A' for Active; 'I' for Inactive)
    1  A    between atoms: N_1  and  C_11
    2  A    between atoms: O_2  and  C_7
    3  A    between atoms: O_2  and  C_13
    4  A    between atoms: O_5  and  C_23
    5  A    between atoms: C_6  and  C_12
    6  A    between atoms: C_6  and  C_22
    7  A    between atoms: C_8  and  C_12
                            x       y       z     vdW  Elec       q    Type
                         _______ _______ _______ _____ _____    ______ ____

>  <TORSDO>
F 7

$$$$
=
 OpenBabel10232407533D

 26 27  0  0  1  0  0  0  0  0999 V2000
  186.9530  178.4630  142.0440 N   0  0  0  0  0  2  0  0  0  0  0  0
  184.5950  178.0710  142.9170 C   0  0  1  0  0  3  0  0  0  0  0  0
  185.8150  177.3100  145.4100 C   0  0  0  0  0  2  0  0  0  0  0  0
  186.0930  178.0520  143.1130 C   0  0  0  0  0  0  0  0  0  0  0  0
  183.5580  179.0050  144.9370 N   0  0  0  0  0  2  0  0  0  0  0  0
  184.4560  179.2570  145.9860 N   0  0  0  0  0  0  0  0  0  0  0  0
  183.9010  179.2790  143.5490 C   0  0  0  0  0  2  0  0  0  0  0  0
  185.5030  178.5220  146.2280 C   0  0  0  0  0  0  0  0  0  0  0  0
  186.6090  177.6890  144.2500 N   0  0  0  0  0  0  0  0  0  0  0  0
  190.1870  178.4300  143.8860 C   0  0  0  0  0  2  0  0  0  0  0  0
  188.8400  177.8460  143.4700 C   0  0  0  0  0  2  0  0  0  0  0  0
  191.3700  177.8680  143.0930 C   0  0  2  0  0  3  0  0  0  0  0  0
  190.2440  177.0380  141.2150 N   0  0  0  0  0  0  0  0  0  0  0  0
  188.4050  178.4560  142.1400 C   0  0  1  0  0  3  0  0  0  0  0  0
  188.9850  177.7210  140.9260 C   0  0  0  0  0  2  0  0  0  0  0  0
  190.7280  176.5090  139.9530 C   0  0  0  0  0  1  0  0  0  0  0  0
  191.1840  177.9950  141.6400 N   0  0  0  0  0  2  0  0  0  0  0  0
  191.7260  176.4450  143.5280 C   0  0  0  0  0  2  0  0  0  0  0  0
  191.0220  176.0630  144.8230 C   0  0  0  0  0  2  0  0  0  0  0  0
  191.8900  176.3650  146.0340 C   0  0  0  0  0  2  0  0  0  0  0  0
  191.0320  176.6040  147.2610 C   0  0  0  0  0  1  0  0  0  0  0  0
  186.3750  178.8560  147.2660 O   0  0  0  0  0  0  0  0  0  0  0  0
  187.4490  178.0130  147.6580 C   0  0  0  0  0  1  0  0  0  0  0  0
  184.1810  177.7750  141.5970 O   0  0  0  0  0  0  0  0  0  0  0  0
  183.4790  178.8710  141.0670 C   0  0  0  0  0  2  0  0  0  0  0  0
  184.1010  179.2790  139.7480 C   0  0  0  0  0  1  0  0  0  0  0  0
  1  4  1  0  0  0  0
  2 24  1  6  0  0  0
  2  4  1  0  0  0  0
  2  7  1  0  0  0  0
  3  8  1  0  0  0  0
  4  9  2  0  0  0  0
  5  6  1  0  0  0  0
  6  8  2  0  0  0  0
  7  5  1  0  0  0  0
  8 22  1  0  0  0  0
  9  3  1  0  0  0  0
 11 10  1  0  0  0  0
 12 18  1  6  0  0  0
 12 10  1  0  0  0  0
 13 17  1  0  0  0  0
 14  1  1  6  0  0  0
 14 11  1  0  0  0  0
 15 13  1  0  0  0  0
 15 14  1  0  0  0  0
 16 13  1  0  0  0  0
 17 12  1  0  0  0  0
 18 19  1  0  0  0  0
 19 20  1  0  0  0  0
 20 21  1  0  0  0  0
 22 23  1  0  0  0  0
 25 24  1  0  0  0  0
 26 25  1  0  0  0  0
M  END
>  <MODEL>
5

>  <REMARK>
 VINA RESULT:      -6.1      3.730      7.052
  Name = 
  7 active torsions:
  status: ('A' for Active; 'I' for Inactive)
    1  A    between atoms: N_1  and  C_11
    2  A    between atoms: O_2  and  C_7
    3  A    between atoms: O_2  and  C_13
    4  A    between atoms: O_5  and  C_23
    5  A    between atoms: C_6  and  C_12
    6  A    between atoms: C_6  and  C_22
    7  A    between atoms: C_8  and  C_12
                            x       y       z     vdW  Elec       q    Type
                         _______ _______ _______ _____ _____    ______ ____

>  <TORSDO>
F 7

$$$$
=
 OpenBabel10232407533D

 26 27  0  0  1  0  0  0  0  0999 V2000
  191.1640  176.8000  139.0200 N   0  0  0  0  0  2  0  0  0  0  0  0
  191.9900  176.0130  136.7450 C   0  0  1  0  0  3  0  0  0  0  0  0
  190.1520  173.8150  137.0160 C   0  0  0  0  0  2  0  0  0  0  0  0
  191.1190  175.8320  137.9660 C   0  0  0  0  0  0  0  0  0  0  0  0
  190.6540  175.4920  134.7520 N   0  0  0  0  0  2  0  0  0  0  0  0
  189.3690  175.0000  135.0280 N   0  0  0  0  0  0  0  0  0  0  0  0
  191.2470  176.5700  135.5290 C   0  0  0  0  0  2  0  0  0  0  0  0
  189.0920  174.2480  136.0540 C   0  0  0  0  0  0  0  0  0  0  0  0
  190.3090  174.8180  138.0590 N   0  0  0  0  0  0  0  0  0  0  0  0
  190.7100  176.3270  142.6830 C   0  0  0  0  0  2  0  0  0  0  0  0
  191.2290  177.0600  141.4490 C   0  0  0  0  0  2  0  0  0  0  0  0
  189.4180  176.9210  143.2510 C   0  0  2  0  0  3  0  0  0  0  0  0
  188.6580  178.1050  141.3790 N   0  0  0  0  0  0  0  0  0  0  0  0
  190.3760  176.6930  140.2390 C   0  0  1  0  0  3  0  0  0  0  0  0
  189.1210  177.5640  140.1040 C   0  0  0  0  0  2  0  0  0  0  0  0
  187.4060  178.7870  141.1100 C   0  0  0  0  0  1  0  0  0  0  0  0
  188.3580  177.0320  142.2380 N   0  0  0  0  0  2  0  0  0  0  0  0
  189.6710  178.2320  143.9970 C   0  0  0  0  0  2  0  0  0  0  0  0
  189.6710  178.0270  145.5060 C   0  0  0  0  0  2  0  0  0  0  0  0
  188.4140  177.3060  145.9660 C   0  0  0  0  0  2  0  0  0  0  0  0
  188.1550  177.5690  147.4370 C   0  0  0  0  0  1  0  0  0  0  0  0
  187.7810  173.8260  136.2870 O   0  0  0  0  0  0  0  0  0  0  0  0
  187.4810  172.6080  136.9540 C   0  0  0  0  0  1  0  0  0  0  0  0
  193.2360  176.6280  137.0110 O   0  0  0  0  0  0  0  0  0  0  0  0
  194.2300  176.0410  136.2090 C   0  0  0  0  0  2  0  0  0  0  0  0
  194.5570  174.6610  136.7380 C   0  0  0  0  0  1  0  0  0  0  0  0
  2 24  1  1  0  0  0
  2  4  1  0  0  0  0
  3  9  1  0  0  0  0
  4  9  2  0  0  0  0
  4  1  1  0  0  0  0
  5  6  1  0  0  0  0
  5  7  1  0  0  0  0
  6  8  2  0  0  0  0
  7  2  1  0  0  0  0
  8 22  1  0  0  0  0
  8  3  1  0  0  0  0
 10 12  1  0  0  0  0
 11 10  1  0  0  0  0
 12 18  1  6  0  0  0
 13 17  1  0  0  0  0
 14  1  1  6  0  0  0
 14 11  1  0  0  0  0
 15 14  1  0  0  0  0
 15 13  1  0  0  0  0
 16 13  1  0  0  0  0
 17 12  1  0  0  0  0
 18 19  1  0  0  0  0
 19 20  1  0  0  0  0
 20 21  1  0  0  0  0
 22 23  1  0  0  0  0
 25 26  1  0  0  0  0
 25 24  1  0  0  0  0
M  END
>  <MODEL>
6

>  <REMARK>
 VINA RESULT:      -6.1      2.219      2.877
  Name = 
  7 active torsions:
  status: ('A' for Active; 'I' for Inactive)
    1  A    between atoms: N_1  and  C_11
    2  A    between atoms: O_2  and  C_7
    3  A    between atoms: O_2  and  C_13
    4  A    between atoms: O_5  and  C_23
    5  A    between atoms: C_6  and  C_12
    6  A    between atoms: C_6  and  C_22
    7  A    between atoms: C_8  and  C_12
                            x       y       z     vdW  Elec       q    Type
                         _______ _______ _______ _____ _____    ______ ____

>  <TORSDO>
F 7

$$$$
=
 OpenBabel10232407533D

 26 27  0  0  1  0  0  0  0  0999 V2000
  185.4830  178.1910  141.6950 N   0  0  0  0  0  2  0  0  0  0  0  0
  185.5630  179.0490  139.3010 C   0  0  1  0  0  3  0  0  0  0  0  0
  188.3750  178.4400  139.3440 C   0  0  0  0  0  2  0  0  0  0  0  0
  186.2500  178.4820  140.5210 C   0  0  0  0  0  0  0  0  0  0  0  0
  186.4330  177.9000  137.3130 N   0  0  0  0  0  2  0  0  0  0  0  0
  187.4880  177.0110  137.5740 N   0  0  0  0  0  0  0  0  0  0  0  0
  185.2890  178.0160  138.2060 C   0  0  0  0  0  2  0  0  0  0  0  0
  188.3840  177.2090  138.4970 C   0  0  0  0  0  0  0  0  0  0  0  0
  187.5250  178.2320  140.5080 N   0  0  0  0  0  0  0  0  0  0  0  0
  188.1890  176.6140  143.7060 C   0  0  0  0  0  2  0  0  0  0  0  0
  187.5900  177.7200  142.8410 C   0  0  0  0  0  2  0  0  0  0  0  0
  188.1260  176.9090  145.2070 C   0  0  2  0  0  3  0  0  0  0  0  0
  186.4400  178.5330  145.2330 N   0  0  0  0  0  0  0  0  0  0  0  0
  186.0670  177.6640  142.9200 C   0  0  1  0  0  3  0  0  0  0  0  0
  185.5010  178.4340  144.1190 C   0  0  0  0  0  2  0  0  0  0  0  0
  185.7220  179.1630  146.3260 C   0  0  0  0  0  1  0  0  0  0  0  0
  186.7660  177.2320  145.6600 N   0  0  0  0  0  2  0  0  0  0  0  0
  189.1610  177.9540  145.6290 C   0  0  0  0  0  2  0  0  0  0  0  0
  190.5610  177.3590  145.7010 C   0  0  0  0  0  2  0  0  0  0  0  0
  191.4560  177.9160  144.6060 C   0  0  0  0  0  2  0  0  0  0  0  0
  190.9160  179.2380  144.0950 C   0  0  0  0  0  1  0  0  0  0  0  0
  189.3840  176.2610  138.7250 O   0  0  0  0  0  0  0  0  0  0  0  0
  190.6350  176.6000  139.3070 C   0  0  0  0  0  1  0  0  0  0  0  0
  184.4730  179.9030  139.5950 O   0  0  0  0  0  0  0  0  0  0  0  0
  183.3410  179.4830  138.8770 C   0  0  0  0  0  2  0  0  0  0  0  0
  182.3300  180.6100  138.8250 C   0  0  0  0  0  1  0  0  0  0  0  0
  2 24  1  1  0  0  0
  2  4  1  0  0  0  0
  3  9  1  0  0  0  0
  4  1  1  0  0  0  0
  5  6  1  0  0  0  0
  5  7  1  0  0  0  0
  6  8  2  0  0  0  0
  7  2  1  0  0  0  0
  8 22  1  0  0  0  0
  8  3  1  0  0  0  0
  9  4  2  0  0  0  0
 10 12  1  0  0  0  0
 11 14  1  0  0  0  0
 11 10  1  0  0  0  0
 12 18  1  6  0  0  0
 12 17  1  0  0  0  0
 13 17  1  0  0  0  0
 13 16  1  0  0  0  0
 14  1  1  6  0  0  0
 14 15  1  0  0  0  0
 15 13  1  0  0  0  0
 18 19  1  0  0  0  0
 20 19  1  0  0  0  0
 21 20  1  0  0  0  0
 22 23  1  0  0  0  0
 25 24  1  0  0  0  0
 26 25  1  0  0  0  0
M  END
>  <MODEL>
7

>  <REMARK>
 VINA RESULT:      -6.1      2.589      5.468
  Name = 
  7 active torsions:
  status: ('A' for Active; 'I' for Inactive)
    1  A    between atoms: N_1  and  C_11
    2  A    between atoms: O_2  and  C_7
    3  A    between atoms: O_2  and  C_13
    4  A    between atoms: O_5  and  C_23
    5  A    between atoms: C_6  and  C_12
    6  A    between atoms: C_6  and  C_22
    7  A    between atoms: C_8  and  C_12
                            x       y       z     vdW  Elec       q    Type
                         _______ _______ _______ _____ _____    ______ ____

>  <TORSDO>
F 7

$$$$
=
 OpenBabel10232407533D

 26 27  0  0  1  0  0  0  0  0999 V2000
  186.8950  177.8190  143.3840 N   0  0  0  0  0  2  0  0  0  0  0  0
  184.7590  179.2000  143.4840 C   0  0  1  0  0  3  0  0  0  0  0  0
  184.8230  179.2170  140.6070 C   0  0  0  0  0  2  0  0  0  0  0  0
  185.8590  178.5290  142.6950 C   0  0  0  0  0  0  0  0  0  0  0  0
  182.6180  178.7520  142.3710 N   0  0  0  0  0  2  0  0  0  0  0  0
  182.7320  178.0750  141.1470 N   0  0  0  0  0  0  0  0  0  0  0  0
  183.4490  178.4110  143.5170 C   0  0  0  0  0  2  0  0  0  0  0  0
  183.7240  178.2440  140.3220 C   0  0  0  0  0  0  0  0  0  0  0  0
  185.8620  178.5690  141.3960 N   0  0  0  0  0  0  0  0  0  0  0  0
  189.2010  177.2540  140.5180 C   0  0  0  0  0  2  0  0  0  0  0  0
  188.5840  178.0870  141.6370 C   0  0  0  0  0  2  0  0  0  0  0  0
  190.5470  176.6260  140.8920 C   0  0  2  0  0  3  0  0  0  0  0  0
  190.4060  176.7240  143.2280 N   0  0  0  0  0  0  0  0  0  0  0  0
  188.0020  177.1630  142.7030 C   0  0  1  0  0  3  0  0  0  0  0  0
  189.0380  176.7200  143.7420 C   0  0  0  0  0  2  0  0  0  0  0  0
  191.2440  176.1620  144.2710 C   0  0  0  0  0  1  0  0  0  0  0  0
  190.4740  175.8410  142.1340 N   0  0  0  0  0  2  0  0  0  0  0  0
  191.6770  177.6560  140.9010 C   0  0  0  0  0  2  0  0  0  0  0  0
  192.7800  177.2870  139.9180 C   0  0  0  0  0  2  0  0  0  0  0  0
  192.2210  176.5440  138.7150 C   0  0  0  0  0  2  0  0  0  0  0  0
  193.3350  176.1610  137.7590 C   0  0  0  0  0  1  0  0  0  0  0  0
  183.7910  177.5070  139.1380 O   0  0  0  0  0  0  0  0  0  0  0  0
  182.9850  176.3590  138.9090 C   0  0  0  0  0  1  0  0  0  0  0  0
  185.1760  179.7080  144.7380 O   0  0  0  0  0  0  0  0  0  0  0  0
  184.7530  178.8420  145.7600 C   0  0  0  0  0  2  0  0  0  0  0  0
  185.8120  178.7800  146.8400 C   0  0  0  0  0  1  0  0  0  0  0  0
  2  7  1  0  0  0  0
  2 24  1  1  0  0  0
  3  9  1  0  0  0  0
  4  1  1  0  0  0  0
  4  2  1  0  0  0  0
  5  7  1  0  0  0  0
  6  5  1  0  0  0  0
  8  3  1  0  0  0  0
  8  6  2  0  0  0  0
  9  4  2  0  0  0  0
 10 12  1  0  0  0  0
 10 11  1  0  0  0  0
 11 14  1  0  0  0  0
 12 18  1  1  0  0  0
 12 17  1  0  0  0  0
 13 15  1  0  0  0  0
 13 16  1  0  0  0  0
 14  1  1  1  0  0  0
 14 15  1  0  0  0  0
 17 13  1  0  0  0  0
 19 18  1  0  0  0  0
 20 19  1  0  0  0  0
 21 20  1  0  0  0  0
 22  8  1  0  0  0  0
 23 22  1  0  0  0  0
 24 25  1  0  0  0  0
 25 26  1  0  0  0  0
M  END
>  <MODEL>
8

>  <REMARK>
 VINA RESULT:      -6.0      3.725      7.179
  Name = 
  7 active torsions:
  status: ('A' for Active; 'I' for Inactive)
    1  A    between atoms: N_1  and  C_11
    2  A    between atoms: O_2  and  C_7
    3  A    between atoms: O_2  and  C_13
    4  A    between atoms: O_5  and  C_23
    5  A    between atoms: C_6  and  C_12
    6  A    between atoms: C_6  and  C_22
    7  A    between atoms: C_8  and  C_12
                            x       y       z     vdW  Elec       q    Type
                         _______ _______ _______ _____ _____    ______ ____

>  <TORSDO>
F 7

$$$$
=
 OpenBabel10232407533D

 26 27  0  0  1  0  0  0  0  0999 V2000
  190.9230  176.6700  140.1050 N   0  0  0  0  0  2  0  0  0  0  0  0
  190.7120  175.6860  137.7670 C   0  0  1  0  0  3  0  0  0  0  0  0
  187.9410  176.4580  137.8640 C   0  0  0  0  0  2  0  0  0  0  0  0
  190.1010  176.3590  138.9740 C   0  0  0  0  0  0  0  0  0  0  0  0
  189.8390  176.7710  135.7450 N   0  0  0  0  0  2  0  0  0  0  0  0
  188.8450  177.7330  135.9870 N   0  0  0  0  0  0  0  0  0  0  0  0
  191.0050  176.6380  136.6070 C   0  0  0  0  0  2  0  0  0  0  0  0
  187.9720  177.6380  136.9480 C   0  0  0  0  0  0  0  0  0  0  0  0
  188.8410  176.6810  138.9870 N   0  0  0  0  0  0  0  0  0  0  0  0
  188.2370  178.0110  142.3030 C   0  0  0  0  0  2  0  0  0  0  0  0
  188.9540  176.9060  141.5330 C   0  0  0  0  0  2  0  0  0  0  0  0
  188.5850  178.0450  143.7940 C   0  0  2  0  0  3  0  0  0  0  0  0
  190.6010  176.8530  143.7670 N   0  0  0  0  0  0  0  0  0  0  0  0
  190.4130  177.2970  141.3150 C   0  0  1  0  0  3  0  0  0  0  0  0
  191.3160  176.9220  142.4950 C   0  0  0  0  0  2  0  0  0  0  0  0
  191.6010  176.6220  144.7930 C   0  0  0  0  0  1  0  0  0  0  0  0
  190.0350  178.1140  144.0300 N   0  0  0  0  0  2  0  0  0  0  0  0
  187.9070  176.9120  144.5660 C   0  0  0  0  0  2  0  0  0  0  0  0
  186.5280  177.3210  145.0640 C   0  0  0  0  0  2  0  0  0  0  0  0
  186.6260  178.2110  146.2930 C   0  0  0  0  0  2  0  0  0  0  0  0
  185.2500  178.4710  146.8760 C   0  0  0  0  0  1  0  0  0  0  0  0
  187.0360  178.6540  137.1530 O   0  0  0  0  0  0  0  0  0  0  0  0
  185.7790  178.4160  137.7710 C   0  0  0  0  0  1  0  0  0  0  0  0
  191.7610  174.7880  138.0760 O   0  0  0  0  0  0  0  0  0  0  0  0
  192.9010  175.1220  137.3250 C   0  0  0  0  0  2  0  0  0  0  0  0
  194.1400  174.6170  138.0350 C   0  0  0  0  0  1  0  0  0  0  0  0
  2 24  1  1  0  0  0
  2  4  1  0  0  0  0
  3  9  1  0  0  0  0
  4  9  2  0  0  0  0
  4  1  1  0  0  0  0
  5  6  1  0  0  0  0
  5  7  1  0  0  0  0
  6  8  2  0  0  0  0
  7  2  1  0  0  0  0
  8 22  1  0  0  0  0
  8  3  1  0  0  0  0
 10 12  1  0  0  0  0
 11 10  1  0  0  0  0
 12 17  1  0  0  0  0
 12 18  1  1  0  0  0
 13 17  1  0  0  0  0
 13 16  1  0  0  0  0
 14  1  1  6  0  0  0
 14 11  1  0  0  0  0
 14 15  1  0  0  0  0
 15 13  1  0  0  0  0
 18 19  1  0  0  0  0
 19 20  1  0  0  0  0
 20 21  1  0  0  0  0
 22 23  1  0  0  0  0
 25 26  1  0  0  0  0
 25 24  1  0  0  0  0
M  END
>  <MODEL>
9

>  <REMARK>
 VINA RESULT:      -5.9      1.274      1.449
  Name = 
  7 active torsions:
  status: ('A' for Active; 'I' for Inactive)
    1  A    between atoms: N_1  and  C_11
    2  A    between atoms: O_2  and  C_7
    3  A    between atoms: O_2  and  C_13
    4  A    between atoms: O_5  and  C_23
    5  A    between atoms: C_6  and  C_12
    6  A    between atoms: C_6  and  C_22
    7  A    between atoms: C_8  and  C_12
                            x       y       z     vdW  Elec       q    Type
                         _______ _______ _______ _____ _____    ______ ____

>  <TORSDO>
F 7

$$$$
