=
 OpenBabel10232411263D

 36 39  0  0  1  0  0  0  0  0999 V2000
  189.9300  175.5210  137.9000 C   0  0  0  0  0  0  0  0  0  0  0  0
  187.8570  176.7690  137.6360 C   0  0  0  0  0  0  0  0  0  0  0  0
  189.3380  174.4100  137.3030 C   0  0  0  0  0  3  0  0  0  0  0  0
  188.0140  174.4580  136.8680 C   0  0  0  0  0  0  0  0  0  0  0  0
  187.2800  175.6390  137.0340 C   0  0  0  0  0  3  0  0  0  0  0  0
  191.2640  175.4460  138.2920 O   0  0  0  0  0  1  0  0  0  0  0  0
  189.2010  176.7080  138.0800 C   0  0  0  0  0  0  0  0  0  0  0  0
  185.7670  178.0250  137.8080 C   0  0  0  0  0  0  0  0  0  0  0  0
  187.0730  178.0070  137.7970 C   0  0  0  0  0  3  0  0  0  0  0  0
  184.4660  178.0190  137.8400 C   0  0  0  0  0  3  0  0  0  0  0  0
  183.7640  178.6060  141.5530 C   0  0  0  0  0  2  0  0  0  0  0  0
  184.3180  178.7130  140.2370 O   0  0  0  0  0  0  0  0  0  0  0  0
  181.7970  177.6680  140.4410 N   0  0  0  0  0  2  0  0  0  0  0  0
  183.7450  178.0740  139.1210 C   0  0  0  0  0  0  0  0  0  0  0  0
  182.2380  178.6060  141.4760 C   0  0  0  0  0  2  0  0  0  0  0  0
  182.5290  177.5350  139.2150 C   0  0  0  0  0  3  0  0  0  0  0  0
  189.8750  177.8740  138.7610 C   0  0  0  0  0  2  0  0  0  0  0  0
  190.0030  177.6730  140.2450 C   0  0  0  0  0  0  0  0  0  0  0  0
  187.6510  178.4090  140.8730 C   0  0  0  0  0  1  0  0  0  0  0  0
  191.6130  177.9460  143.2250 N   0  0  0  0  0  0  0  0  0  0  0  0
  190.4770  177.1550  145.2790 C   0  0  0  0  0  0  0  0  0  0  0  0
  191.4740  177.9640  144.5180 C   0  0  0  0  0  3  0  0  0  0  0  0
  189.2330  176.9130  144.8370 C   0  0  0  0  0  3  0  0  0  0  0  0
  191.1310  177.3850  140.8970 C   0  0  0  0  0  0  0  0  0  0  0  0
  189.4120  177.3610  142.4120 C   0  0  0  0  0  0  0  0  0  0  0  0
  190.8720  177.0510  142.3410 C   0  0  2  0  0  3  0  0  0  0  0  0
  188.6770  177.2640  143.5160 C   0  0  0  0  0  3  0  0  0  0  0  0
  188.8920  177.6950  141.1270 N   0  0  0  0  0  0  0  0  0  0  0  0
  192.4140  177.3210  140.2740 N   0  0  0  0  0  1  0  0  0  0  0  0
  190.8000  176.6720  146.5450 O   0  0  0  0  0  0  0  0  0  0  0  0
  192.0190  175.9950  146.8210 C   0  0  0  0  0  1  0  0  0  0  0  0
  187.4540  173.3100  136.2260 N   0  0  0  0  0  2  0  0  0  0  0  0
  185.3210  172.9050  138.0390 N   0  0  0  0  0  1  0  0  0  0  0  0
  184.9200  173.8020  135.5840 O   0  0  0  0  0  0  0  0  0  0  0  0
  185.5970  171.4400  135.8630 O   0  0  0  0  0  0  0  0  0  0  0  0
  185.7810  172.8490  136.3710 S   0  0  0  0  0  0  0  0  0  0  0  0
  1  7  1  0  0  0  0
  1  6  1  0  0  0  0
  2  9  1  0  0  0  0
  2  7  2  0  0  0  0
  3  1  2  0  0  0  0
  4  5  2  0  0  0  0
  4  3  1  0  0  0  0
  5  2  1  0  0  0  0
  7 17  1  0  0  0  0
  8 10  2  0  0  0  0
  9  8  2  0  0  0  0
 10 14  1  0  0  0  0
 12 11  1  0  0  0  0
 13 15  1  0  0  0  0
 14 16  2  0  0  0  0
 14 12  1  0  0  0  0
 15 11  1  0  0  0  0
 16 13  1  0  0  0  0
 17 18  1  0  0  0  0
 18 24  2  0  0  0  0
 18 28  1  0  0  0  0
 19 28  1  0  0  0  0
 20 22  2  0  0  0  0
 21 30  1  0  0  0  0
 22 21  1  0  0  0  0
 23 21  2  0  0  0  0
 25 27  2  0  0  0  0
 26 24  1  6  0  0  0
 26 25  1  0  0  0  0
 26 20  1  0  0  0  0
 27 23  1  0  0  0  0
 28 25  1  0  0  0  0
 29 24  1  0  0  0  0
 30 31  1  0  0  0  0
 32 36  1  0  0  0  0
 32  4  1  0  0  0  0
 34 36  2  0  0  0  0
 35 36  2  0  0  0  0
 36 33  1  0  0  0  0
M  END
>  <MODEL>
1

>  <REMARK>
 VINA RESULT:      -7.9      0.000      0.000
  Name = 
  7 active torsions:
  status: ('A' for Active; 'I' for Inactive)
    1  A    between atoms: C_1  and  C_13
    2  A    between atoms: O_3  and  C_5
    3  A    between atoms: C_13  and  C_33
    4  A    between atoms: C_16  and  C_31
    5  A    between atoms: C_20  and  C_22
    6  A    between atoms: N_21  and  C_25
    7  A    between atoms: N_21  and  S_35
                            x       y       z     vdW  Elec       q    Type
                         _______ _______ _______ _____ _____    ______ ____

>  <TORSDO>
F 7

$$$$
=
 OpenBabel10232411263D

 36 39  0  0  1  0  0  0  0  0999 V2000
  187.2170  177.3280  137.8150 C   0  0  0  0  0  0  0  0  0  0  0  0
  189.3080  176.0970  138.0010 C   0  0  0  0  0  0  0  0  0  0  0  0
  186.6910  176.3160  137.0150 C   0  0  0  0  0  3  0  0  0  0  0  0
  187.4530  175.1920  136.6990 C   0  0  0  0  0  0  0  0  0  0  0  0
  188.7580  175.0860  137.1960 C   0  0  0  0  0  3  0  0  0  0  0  0
  186.4140  178.4200  138.1360 O   0  0  0  0  0  1  0  0  0  0  0  0
  188.5270  177.2370  138.3120 C   0  0  0  0  0  0  0  0  0  0  0  0
  191.6020  175.2550  137.9310 C   0  0  0  0  0  0  0  0  0  0  0  0
  190.6810  175.9680  138.5220 C   0  0  0  0  0  3  0  0  0  0  0  0
  192.5120  174.5590  137.3130 C   0  0  0  0  0  3  0  0  0  0  0  0
  194.0380  176.4260  134.3460 C   0  0  0  0  0  2  0  0  0  0  0  0
  193.1080  175.9550  135.3270 O   0  0  0  0  0  0  0  0  0  0  0  0
  195.7630  175.8490  135.9820 N   0  0  0  0  0  0  0  0  0  0  0  0
  193.5100  175.2170  136.4570 C   0  0  1  0  0  3  0  0  0  0  0  0
  195.3310  176.8730  135.0270 C   0  0  0  0  0  2  0  0  0  0  0  0
  194.8030  175.1340  136.7710 C   0  0  0  0  0  3  0  0  0  0  0  0
  189.0640  178.3750  139.1460 C   0  0  0  0  0  2  0  0  0  0  0  0
  188.9750  178.0940  140.6200 C   0  0  0  0  0  0  0  0  0  0  0  0
  186.5850  178.8930  140.9570 C   0  0  0  0  0  1  0  0  0  0  0  0
  190.1590  178.1480  143.8040 N   0  0  0  0  0  0  0  0  0  0  0  0
  188.7210  177.3010  145.6340 C   0  0  0  0  0  0  0  0  0  0  0  0
  189.8420  178.1060  145.0650 C   0  0  0  0  0  3  0  0  0  0  0  0
  187.5430  177.1330  145.0120 C   0  0  0  0  0  3  0  0  0  0  0  0
  189.9900  177.7270  141.4040 C   0  0  0  0  0  0  0  0  0  0  0  0
  188.0770  177.6960  142.6640 C   0  0  0  0  0  0  0  0  0  0  0  0
  189.5200  177.3300  142.7780 C   0  0  2  0  0  3  0  0  0  0  0  0
  187.1900  177.5740  143.6480 C   0  0  0  0  0  3  0  0  0  0  0  0
  187.7530  178.1160  141.3400 N   0  0  0  0  0  0  0  0  0  0  0  0
  191.3450  177.6420  140.9620 N   0  0  0  0  0  1  0  0  0  0  0  0
  188.8470  176.7410  146.9040 O   0  0  0  0  0  0  0  0  0  0  0  0
  188.2680  177.3260  148.0620 C   0  0  0  0  0  1  0  0  0  0  0  0
  186.8660  174.1560  135.9070 N   0  0  0  0  0  2  0  0  0  0  0  0
  184.0980  173.6040  136.0950 N   0  0  0  0  0  1  0  0  0  0  0  0
  185.9000  171.6780  135.9040 O   0  0  0  0  0  0  0  0  0  0  0  0
  185.7820  172.9540  138.0190 O   0  0  0  0  0  0  0  0  0  0  0  0
  185.6790  173.0370  136.5150 S   0  0  0  0  0  0  0  0  0  0  0  0
  1  6  1  0  0  0  0
  1  7  1  0  0  0  0
  2  7  2  0  0  0  0
  2  9  1  0  0  0  0
  3  1  2  0  0  0  0
  4  3  1  0  0  0  0
  4  5  2  0  0  0  0
  5  2  1  0  0  0  0
  7 17  1  0  0  0  0
  8  9  2  0  0  0  0
 10  8  2  0  0  0  0
 11 15  1  0  0  0  0
 11 12  1  0  0  0  0
 12 14  1  0  0  0  0
 13 16  2  0  0  0  0
 14 16  1  0  0  0  0
 14 10  1  1  0  0  0
 15 13  1  0  0  0  0
 17 18  1  0  0  0  0
 18 28  1  0  0  0  0
 18 24  2  0  0  0  0
 19 28  1  0  0  0  0
 20 22  2  0  0  0  0
 21 30  1  0  0  0  0
 22 21  1  0  0  0  0
 23 21  2  0  0  0  0
 25 26  1  0  0  0  0
 25 27  2  0  0  0  0
 26 24  1  6  0  0  0
 26 20  1  0  0  0  0
 27 23  1  0  0  0  0
 28 25  1  0  0  0  0
 29 24  1  0  0  0  0
 30 31  1  0  0  0  0
 32 36  1  0  0  0  0
 32  4  1  0  0  0  0
 33 36  1  0  0  0  0
 34 36  2  0  0  0  0
 36 35  2  0  0  0  0
M  END
>  <MODEL>
2

>  <REMARK>
 VINA RESULT:      -7.8      2.516      5.876
  Name = 
  7 active torsions:
  status: ('A' for Active; 'I' for Inactive)
    1  A    between atoms: C_1  and  C_13
    2  A    between atoms: O_3  and  C_5
    3  A    between atoms: C_13  and  C_33
    4  A    between atoms: C_16  and  C_31
    5  A    between atoms: C_20  and  C_22
    6  A    between atoms: N_21  and  C_25
    7  A    between atoms: N_21  and  S_35
                            x       y       z     vdW  Elec       q    Type
                         _______ _______ _______ _____ _____    ______ ____

>  <TORSDO>
F 7

$$$$
=
 OpenBabel10232411263D

 36 39  0  0  1  0  0  0  0  0999 V2000
  188.0500  177.9690  139.5390 C   0  0  0  0  0  0  0  0  0  0  0  0
  190.0230  176.9370  138.5540 C   0  0  0  0  0  0  0  0  0  0  0  0
  188.6840  177.9980  140.7790 C   0  0  0  0  0  3  0  0  0  0  0  0
  189.9800  177.5050  140.9270 C   0  0  0  0  0  0  0  0  0  0  0  0
  190.6450  176.9800  139.8130 C   0  0  0  0  0  3  0  0  0  0  0  0
  186.7680  178.5000  139.4230 O   0  0  0  0  0  1  0  0  0  0  0  0
  188.7040  177.4350  138.4160 C   0  0  0  0  0  0  0  0  0  0  0  0
  192.0410  176.3900  137.2880 C   0  0  0  0  0  0  0  0  0  0  0  0
  190.7380  176.3870  137.3890 C   0  0  0  0  0  3  0  0  0  0  0  0
  193.3400  176.3800  137.2190 C   0  0  0  0  0  3  0  0  0  0  0  0
  195.9490  174.0830  138.8120 C   0  0  0  0  0  2  0  0  0  0  0  0
  195.0300  175.1610  138.5990 O   0  0  0  0  0  0  0  0  0  0  0  0
  194.5730  172.8460  137.2120 N   0  0  0  0  0  0  0  0  0  0  0  0
  194.1020  175.1640  137.5400 C   0  0  1  0  0  3  0  0  0  0  0  0
  195.2700  172.7510  138.4970 C   0  0  0  0  0  2  0  0  0  0  0  0
  193.8900  174.0500  136.8380 C   0  0  0  0  0  3  0  0  0  0  0  0
  187.9640  177.3950  137.1010 C   0  0  0  0  0  2  0  0  0  0  0  0
  186.9050  176.3290  137.0730 C   0  0  0  0  0  0  0  0  0  0  0  0
  188.4570  174.3440  136.7280 C   0  0  0  0  0  1  0  0  0  0  0  0
  183.9210  175.0290  136.0980 N   0  0  0  0  0  0  0  0  0  0  0  0
  183.3210  172.7350  136.8110 C   0  0  0  0  0  0  0  0  0  0  0  0
  183.2310  173.9390  135.9350 C   0  0  0  0  0  3  0  0  0  0  0  0
  184.4720  172.2960  137.3470 C   0  0  0  0  0  3  0  0  0  0  0  0
  185.5880  176.5410  137.0480 C   0  0  0  0  0  0  0  0  0  0  0  0
  185.9380  174.2820  137.2010 C   0  0  0  0  0  0  0  0  0  0  0  0
  184.8130  175.2640  137.2300 C   0  0  2  0  0  3  0  0  0  0  0  0
  185.7870  172.9640  137.2890 C   0  0  0  0  0  3  0  0  0  0  0  0
  187.2000  174.9440  137.1490 N   0  0  0  0  0  0  0  0  0  0  0  0
  184.9940  177.8350  136.9450 N   0  0  0  0  0  1  0  0  0  0  0  0
  182.1840  171.9660  137.0490 O   0  0  0  0  0  0  0  0  0  0  0  0
  180.9240  172.5380  137.3740 C   0  0  0  0  0  1  0  0  0  0  0  0
  190.6110  177.5870  142.2080 N   0  0  0  0  0  2  0  0  0  0  0  0
  191.5350  176.6400  144.7070 N   0  0  0  0  0  1  0  0  0  0  0  0
  188.9590  176.7660  144.1230 O   0  0  0  0  0  0  0  0  0  0  0  0
  190.3270  175.0560  142.9760 O   0  0  0  0  0  0  0  0  0  0  0  0
  190.3000  176.4690  143.5050 S   0  0  0  0  0  0  0  0  0  0  0  0
  1  3  1  0  0  0  0
  2  5  2  0  0  0  0
  3  4  2  0  0  0  0
  4 32  1  0  0  0  0
  5  4  1  0  0  0  0
  6  1  1  0  0  0  0
  7  2  1  0  0  0  0
  7  1  2  0  0  0  0
  8  9  2  0  0  0  0
  9  2  1  0  0  0  0
 10  8  2  0  0  0  0
 12 11  1  0  0  0  0
 13 15  1  0  0  0  0
 14 10  1  1  0  0  0
 14 12  1  0  0  0  0
 15 11  1  0  0  0  0
 16 13  2  0  0  0  0
 16 14  1  0  0  0  0
 17  7  1  0  0  0  0
 18 17  1  0  0  0  0
 18 28  1  0  0  0  0
 19 28  1  0  0  0  0
 21 30  1  0  0  0  0
 21 23  2  0  0  0  0
 22 20  2  0  0  0  0
 22 21  1  0  0  0  0
 24 18  2  0  0  0  0
 24 26  1  0  0  0  0
 25 26  1  0  0  0  0
 25 27  2  0  0  0  0
 26 20  1  6  0  0  0
 27 23  1  0  0  0  0
 28 25  1  0  0  0  0
 29 24  1  0  0  0  0
 30 31  1  0  0  0  0
 32 36  1  0  0  0  0
 35 36  2  0  0  0  0
 36 34  2  0  0  0  0
 36 33  1  0  0  0  0
M  END
>  <MODEL>
3

>  <REMARK>
 VINA RESULT:      -7.5      3.625      9.110
  Name = 
  7 active torsions:
  status: ('A' for Active; 'I' for Inactive)
    1  A    between atoms: C_1  and  C_13
    2  A    between atoms: O_3  and  C_5
    3  A    between atoms: C_13  and  C_33
    4  A    between atoms: C_16  and  C_31
    5  A    between atoms: C_20  and  C_22
    6  A    between atoms: N_21  and  C_25
    7  A    between atoms: N_21  and  S_35
                            x       y       z     vdW  Elec       q    Type
                         _______ _______ _______ _____ _____    ______ ____

>  <TORSDO>
F 7

$$$$
=
 OpenBabel10232411263D

 36 39  0  0  1  0  0  0  0  0999 V2000
  185.7030  178.4060  143.1640 C   0  0  0  0  0  0  0  0  0  0  0  0
  187.3770  178.2020  141.4100 C   0  0  0  0  0  0  0  0  0  0  0  0
  186.5540  177.7540  144.0530 C   0  0  0  0  0  3  0  0  0  0  0  0
  187.8140  177.3210  143.6440 C   0  0  0  0  0  0  0  0  0  0  0  0
  188.2210  177.5500  142.3240 C   0  0  0  0  0  3  0  0  0  0  0  0
  184.4650  178.8530  143.6190 O   0  0  0  0  0  1  0  0  0  0  0  0
  186.0970  178.6330  141.8360 C   0  0  0  0  0  0  0  0  0  0  0  0
  188.9180  177.9270  139.5320 C   0  0  0  0  0  0  0  0  0  0  0  0
  187.8230  178.4410  140.0260 C   0  0  0  0  0  3  0  0  0  0  0  0
  189.9990  177.3850  139.0520 C   0  0  0  0  0  3  0  0  0  0  0  0
  191.0420  174.1380  137.3220 C   0  0  0  0  0  2  0  0  0  0  0  0
  190.9500  175.2110  138.2670 O   0  0  0  0  0  0  0  0  0  0  0  0
  188.7710  174.7720  136.6700 N   0  0  0  0  0  0  0  0  0  0  0  0
  189.9280  176.1790  138.2150 C   0  0  1  0  0  3  0  0  0  0  0  0
  189.6430  173.6340  136.9710 C   0  0  0  0  0  2  0  0  0  0  0  0
  188.8750  175.9910  137.4190 C   0  0  0  0  0  3  0  0  0  0  0  0
  185.1270  179.3130  140.9010 C   0  0  0  0  0  2  0  0  0  0  0  0
  184.1770  178.3430  140.2560 C   0  0  0  0  0  0  0  0  0  0  0  0
  185.4500  178.0500  138.0740 C   0  0  0  0  0  1  0  0  0  0  0  0
  181.0860  177.2330  139.3880 N   0  0  0  0  0  0  0  0  0  0  0  0
  180.8900  175.1900  138.0010 C   0  0  0  0  0  0  0  0  0  0  0  0
  180.4090  176.4850  138.5670 C   0  0  0  0  0  3  0  0  0  0  0  0
  182.1650  174.9710  137.6420 C   0  0  0  0  0  3  0  0  0  0  0  0
  182.9790  177.9970  140.7290 C   0  0  0  0  0  0  0  0  0  0  0  0
  183.3920  176.7380  138.8600 C   0  0  0  0  0  0  0  0  0  0  0  0
  182.3790  176.8570  139.9510 C   0  0  2  0  0  3  0  0  0  0  0  0
  183.3140  175.8740  137.8520 C   0  0  0  0  0  3  0  0  0  0  0  0
  184.4950  177.6140  139.0820 N   0  0  0  0  0  0  0  0  0  0  0  0
  182.3810  178.5840  141.8850 N   0  0  0  0  0  1  0  0  0  0  0  0
  179.9820  174.1620  137.7570 O   0  0  0  0  0  0  0  0  0  0  0  0
  180.3590  172.7920  137.7360 C   0  0  0  0  0  1  0  0  0  0  0  0
  188.6740  176.6900  144.5950 N   0  0  0  0  0  2  0  0  0  0  0  0
  191.2590  176.5180  145.7300 N   0  0  0  0  0  1  0  0  0  0  0  0
  190.2960  178.7890  144.7780 O   0  0  0  0  0  0  0  0  0  0  0  0
  189.3260  177.9030  146.8720 O   0  0  0  0  0  0  0  0  0  0  0  0
  189.8810  177.5440  145.5150 S   0  0  0  0  0  0  0  0  0  0  0  0
  1  6  1  0  0  0  0
  1  3  1  0  0  0  0
  2  7  1  0  0  0  0
  2  5  2  0  0  0  0
  4  3  2  0  0  0  0
  4 32  1  0  0  0  0
  5  4  1  0  0  0  0
  7  1  2  0  0  0  0
  8  9  2  0  0  0  0
  9  2  1  0  0  0  0
 10  8  2  0  0  0  0
 11 12  1  0  0  0  0
 13 15  1  0  0  0  0
 13 16  2  0  0  0  0
 14 12  1  0  0  0  0
 14 10  1  1  0  0  0
 15 11  1  0  0  0  0
 16 14  1  0  0  0  0
 17  7  1  0  0  0  0
 18 24  2  0  0  0  0
 18 17  1  0  0  0  0
 19 28  1  0  0  0  0
 20 26  1  0  0  0  0
 21 22  1  0  0  0  0
 22 20  2  0  0  0  0
 23 27  1  0  0  0  0
 23 21  2  0  0  0  0
 24 29  1  0  0  0  0
 25 28  1  0  0  0  0
 26 25  1  6  0  0  0
 26 24  1  0  0  0  0
 27 25  2  0  0  0  0
 28 18  1  0  0  0  0
 30 21  1  0  0  0  0
 31 30  1  0  0  0  0
 32 36  1  0  0  0  0
 34 36  2  0  0  0  0
 36 33  1  0  0  0  0
 36 35  2  0  0  0  0
M  END
>  <MODEL>
4

>  <REMARK>
 VINA RESULT:      -7.3      3.247      8.907
  Name = 
  7 active torsions:
  status: ('A' for Active; 'I' for Inactive)
    1  A    between atoms: C_1  and  C_13
    2  A    between atoms: O_3  and  C_5
    3  A    between atoms: C_13  and  C_33
    4  A    between atoms: C_16  and  C_31
    5  A    between atoms: C_20  and  C_22
    6  A    between atoms: N_21  and  C_25
    7  A    between atoms: N_21  and  S_35
                            x       y       z     vdW  Elec       q    Type
                         _______ _______ _______ _____ _____    ______ ____

>  <TORSDO>
F 7

$$$$
=
 OpenBabel10232411263D

 36 39  0  0  1  0  0  0  0  0999 V2000
  186.1760  178.7490  140.6820 C   0  0  0  0  0  0  0  0  0  0  0  0
  188.0950  177.9520  141.9500 C   0  0  0  0  0  0  0  0  0  0  0  0
  185.3440  178.4690  141.7640 C   0  0  0  0  0  3  0  0  0  0  0  0
  185.8650  177.9350  142.9410 C   0  0  0  0  0  0  0  0  0  0  0  0
  187.2390  177.6810  143.0300 C   0  0  0  0  0  3  0  0  0  0  0  0
  185.6250  179.3130  139.5340 O   0  0  0  0  0  1  0  0  0  0  0  0
  187.5540  178.4900  140.7560 C   0  0  0  0  0  0  0  0  0  0  0  0
  190.2430  178.0110  143.1130 C   0  0  0  0  0  0  0  0  0  0  0  0
  189.5400  177.6870  142.0610 C   0  0  0  0  0  3  0  0  0  0  0  0
  190.9210  178.3210  144.1800 C   0  0  0  0  0  3  0  0  0  0  0  0
  192.1300  175.0420  145.7320 C   0  0  0  0  0  2  0  0  0  0  0  0
  191.9850  176.1600  144.8490 O   0  0  0  0  0  0  0  0  0  0  0  0
  191.2150  176.5230  147.4500 N   0  0  0  0  0  2  0  0  0  0  0  0
  191.2360  177.3020  145.1930 C   0  0  0  0  0  0  0  0  0  0  0  0
  192.2570  175.5310  147.1740 C   0  0  0  0  0  2  0  0  0  0  0  0
  190.8310  177.4770  146.4510 C   0  0  0  0  0  3  0  0  0  0  0  0
  188.4090  178.7790  139.5470 C   0  0  0  0  0  2  0  0  0  0  0  0
  188.6130  177.5640  138.6870 C   0  0  0  0  0  0  0  0  0  0  0  0
  191.0620  177.1780  139.2530 C   0  0  0  0  0  1  0  0  0  0  0  0
  188.2970  175.7840  135.8100 N   0  0  0  0  0  0  0  0  0  0  0  0
  189.3590  173.5520  135.6580 C   0  0  0  0  0  0  0  0  0  0  0  0
  188.7770  174.8070  135.0980 C   0  0  0  0  0  3  0  0  0  0  0  0
  190.1050  173.5180  136.7730 C   0  0  0  0  0  3  0  0  0  0  0  0
  187.7390  177.0800  137.8040 C   0  0  0  0  0  0  0  0  0  0  0  0
  189.5240  175.6470  137.8890 C   0  0  0  0  0  0  0  0  0  0  0  0
  188.1700  175.7440  137.2640 C   0  0  2  0  0  3  0  0  0  0  0  0
  190.3690  174.6380  137.6980 C   0  0  0  0  0  3  0  0  0  0  0  0
  189.7600  176.7340  138.7800 N   0  0  0  0  0  0  0  0  0  0  0  0
  186.5030  177.7180  137.4780 N   0  0  0  0  0  1  0  0  0  0  0  0
  189.1960  172.3490  134.9730 O   0  0  0  0  0  0  0  0  0  0  0  0
  188.2220  171.3820  135.3400 C   0  0  0  0  0  1  0  0  0  0  0  0
  184.9850  177.6960  144.0430 N   0  0  0  0  0  2  0  0  0  0  0  0
  182.3810  178.7810  144.2510 N   0  0  0  0  0  1  0  0  0  0  0  0
  184.0700  178.7930  146.2860 O   0  0  0  0  0  0  0  0  0  0  0  0
  184.5370  180.2970  144.3810 O   0  0  0  0  0  0  0  0  0  0  0  0
  184.0200  178.9390  144.7880 S   0  0  0  0  0  0  0  0  0  0  0  0
  1  7  2  0  0  0  0
  1  3  1  0  0  0  0
  2  9  1  0  0  0  0
  2  5  2  0  0  0  0
  3  4  2  0  0  0  0
  4  5  1  0  0  0  0
  4 32  1  0  0  0  0
  6  1  1  0  0  0  0
  7  2  1  0  0  0  0
  8 10  2  0  0  0  0
  9  8  2  0  0  0  0
 10 14  1  0  0  0  0
 11 15  1  0  0  0  0
 12 14  1  0  0  0  0
 12 11  1  0  0  0  0
 14 16  2  0  0  0  0
 15 13  1  0  0  0  0
 16 13  1  0  0  0  0
 17  7  1  0  0  0  0
 18 28  1  0  0  0  0
 18 17  1  0  0  0  0
 21 23  2  0  0  0  0
 22 21  1  0  0  0  0
 22 20  2  0  0  0  0
 23 27  1  0  0  0  0
 24 18  2  0  0  0  0
 25 28  1  0  0  0  0
 26 20  1  6  0  0  0
 26 24  1  0  0  0  0
 26 25  1  0  0  0  0
 27 25  2  0  0  0  0
 28 19  1  0  0  0  0
 29 24  1  0  0  0  0
 30 31  1  0  0  0  0
 30 21  1  0  0  0  0
 32 36  1  0  0  0  0
 33 36  1  0  0  0  0
 35 36  2  0  0  0  0
 36 34  2  0  0  0  0
M  END
>  <MODEL>
5

>  <REMARK>
 VINA RESULT:      -7.2      3.061      8.415
  Name = 
  7 active torsions:
  status: ('A' for Active; 'I' for Inactive)
    1  A    between atoms: C_1  and  C_13
    2  A    between atoms: O_3  and  C_5
    3  A    between atoms: C_13  and  C_33
    4  A    between atoms: C_16  and  C_31
    5  A    between atoms: C_20  and  C_22
    6  A    between atoms: N_21  and  C_25
    7  A    between atoms: N_21  and  S_35
                            x       y       z     vdW  Elec       q    Type
                         _______ _______ _______ _____ _____    ______ ____

>  <TORSDO>
F 7

$$$$
=
 OpenBabel10232411263D

 36 39  0  0  1  0  0  0  0  0999 V2000
  189.9970  176.0300  138.0720 C   0  0  0  0  0  0  0  0  0  0  0  0
  187.7230  176.7920  137.6610 C   0  0  0  0  0  0  0  0  0  0  0  0
  189.7390  174.8680  137.3470 C   0  0  0  0  0  3  0  0  0  0  0  0
  188.4880  174.6510  136.7730 C   0  0  0  0  0  0  0  0  0  0  0  0
  187.4850  175.6160  136.9300 C   0  0  0  0  0  3  0  0  0  0  0  0
  191.2700  176.2260  138.6030 O   0  0  0  0  0  1  0  0  0  0  0  0
  188.9970  177.0000  138.2440 C   0  0  0  0  0  0  0  0  0  0  0  0
  185.4490  177.6340  137.3500 C   0  0  0  0  0  0  0  0  0  0  0  0
  186.6600  177.8020  137.8110 C   0  0  0  0  0  3  0  0  0  0  0  0
  184.2430  177.4360  136.9040 C   0  0  0  0  0  3  0  0  0  0  0  0
  180.8080  176.2690  138.1130 C   0  0  0  0  0  2  0  0  0  0  0  0
  181.9590  176.4970  137.2920 O   0  0  0  0  0  0  0  0  0  0  0  0
  182.3350  176.5580  140.0020 N   0  0  0  0  0  2  0  0  0  0  0  0
  183.1680  177.0020  137.8080 C   0  0  0  0  0  0  0  0  0  0  0  0
  181.2410  175.7370  139.4780 C   0  0  0  0  0  2  0  0  0  0  0  0
  183.3530  177.0630  139.1270 C   0  0  0  0  0  3  0  0  0  0  0  0
  189.3140  178.2260  139.0660 C   0  0  0  0  0  2  0  0  0  0  0  0
  189.1500  177.9840  140.5400 C   0  0  0  0  0  0  0  0  0  0  0  0
  186.7300  178.7440  140.7230 C   0  0  0  0  0  1  0  0  0  0  0  0
  190.1570  178.1520  143.7810 N   0  0  0  0  0  0  0  0  0  0  0  0
  188.6370  177.3270  145.5530 C   0  0  0  0  0  0  0  0  0  0  0  0
  189.7720  178.1380  145.0230 C   0  0  0  0  0  3  0  0  0  0  0  0
  187.4990  177.1170  144.8740 C   0  0  0  0  0  3  0  0  0  0  0  0
  190.1270  177.6610  141.3880 C   0  0  0  0  0  0  0  0  0  0  0  0
  188.1490  177.6260  142.5430 C   0  0  0  0  0  0  0  0  0  0  0  0
  189.5910  177.2930  142.7450 C   0  0  2  0  0  3  0  0  0  0  0  0
  187.2130  177.5130  143.4800 C   0  0  0  0  0  3  0  0  0  0  0  0
  187.8900  178.0020  141.1920 N   0  0  0  0  0  0  0  0  0  0  0  0
  191.5060  177.5910  141.0220 N   0  0  0  0  0  1  0  0  0  0  0  0
  188.7040  176.8050  146.8440 O   0  0  0  0  0  0  0  0  0  0  0  0
  188.9780  177.6080  147.9840 C   0  0  0  0  0  1  0  0  0  0  0  0
  188.2730  173.4650  136.0050 N   0  0  0  0  0  2  0  0  0  0  0  0
  185.6390  173.0490  135.0630 N   0  0  0  0  0  1  0  0  0  0  0  0
  187.1940  171.0430  135.8040 O   0  0  0  0  0  0  0  0  0  0  0  0
  186.3210  172.5470  137.5620 O   0  0  0  0  0  0  0  0  0  0  0  0
  186.8540  172.4680  136.1520 S   0  0  0  0  0  0  0  0  0  0  0  0
  1  7  1  0  0  0  0
  1  6  1  0  0  0  0
  2  9  1  0  0  0  0
  2  7  2  0  0  0  0
  3  1  2  0  0  0  0
  4  5  2  0  0  0  0
  4  3  1  0  0  0  0
  5  2  1  0  0  0  0
  7 17  1  0  0  0  0
  8  9  2  0  0  0  0
 10  8  2  0  0  0  0
 10 14  1  0  0  0  0
 11 15  1  0  0  0  0
 12 14  1  0  0  0  0
 12 11  1  0  0  0  0
 14 16  2  0  0  0  0
 15 13  1  0  0  0  0
 16 13  1  0  0  0  0
 17 18  1  0  0  0  0
 18 28  1  0  0  0  0
 18 24  2  0  0  0  0
 19 28  1  0  0  0  0
 20 22  2  0  0  0  0
 21 30  1  0  0  0  0
 22 21  1  0  0  0  0
 23 21  2  0  0  0  0
 25 26  1  0  0  0  0
 25 27  2  0  0  0  0
 26 24  1  6  0  0  0
 26 20  1  0  0  0  0
 27 23  1  0  0  0  0
 28 25  1  0  0  0  0
 29 24  1  0  0  0  0
 30 31  1  0  0  0  0
 32 36  1  0  0  0  0
 32  4  1  0  0  0  0
 33 36  1  0  0  0  0
 34 36  2  0  0  0  0
 36 35  2  0  0  0  0
M  END
>  <MODEL>
6

>  <REMARK>
 VINA RESULT:      -7.2      1.673      1.962
  Name = 
  7 active torsions:
  status: ('A' for Active; 'I' for Inactive)
    1  A    between atoms: C_1  and  C_13
    2  A    between atoms: O_3  and  C_5
    3  A    between atoms: C_13  and  C_33
    4  A    between atoms: C_16  and  C_31
    5  A    between atoms: C_20  and  C_22
    6  A    between atoms: N_21  and  C_25
    7  A    between atoms: N_21  and  S_35
                            x       y       z     vdW  Elec       q    Type
                         _______ _______ _______ _____ _____    ______ ____

>  <TORSDO>
F 7

$$$$
=
 OpenBabel10232411263D

 36 39  0  0  1  0  0  0  0  0999 V2000
  189.2780  177.6530  142.1820 C   0  0  0  0  0  0  0  0  0  0  0  0
  186.9900  178.4340  141.9020 C   0  0  0  0  0  0  0  0  0  0  0  0
  188.9660  177.1980  143.4620 C   0  0  0  0  0  3  0  0  0  0  0  0
  187.6790  177.3500  143.9770 C   0  0  0  0  0  0  0  0  0  0  0  0
  186.6960  177.9650  143.1930 C   0  0  0  0  0  3  0  0  0  0  0  0
  190.5650  177.4530  141.6900 O   0  0  0  0  0  1  0  0  0  0  0  0
  188.3020  178.2790  141.3910 C   0  0  0  0  0  0  0  0  0  0  0  0
  184.7720  178.5300  140.8790 C   0  0  0  0  0  0  0  0  0  0  0  0
  185.9420  179.0730  141.0860 C   0  0  0  0  0  3  0  0  0  0  0  0
  183.6040  177.9830  140.7040 C   0  0  0  0  0  3  0  0  0  0  0  0
  181.4930  179.0080  143.7230 C   0  0  0  0  0  2  0  0  0  0  0  0
  182.6060  178.7950  142.8470 O   0  0  0  0  0  0  0  0  0  0  0  0
  180.1300  178.9650  141.6920 N   0  0  0  0  0  2  0  0  0  0  0  0
  182.4460  178.4120  141.5010 C   0  0  0  0  0  0  0  0  0  0  0  0
  180.3480  179.6690  142.9580 C   0  0  0  0  0  2  0  0  0  0  0  0
  181.2400  178.4630  140.9340 C   0  0  0  0  0  3  0  0  0  0  0  0
  188.6960  178.7850  140.0240 C   0  0  0  0  0  2  0  0  0  0  0  0
  188.4990  177.7490  138.9530 C   0  0  0  0  0  0  0  0  0  0  0  0
  190.8180  176.7140  139.0760 C   0  0  0  0  0  1  0  0  0  0  0  0
  187.4500  176.6930  135.8990 N   0  0  0  0  0  0  0  0  0  0  0  0
  187.8980  174.3540  135.2190 C   0  0  0  0  0  0  0  0  0  0  0  0
  187.5930  175.7930  134.9700 C   0  0  0  0  0  3  0  0  0  0  0  0
  188.7230  173.9310  136.1900 C   0  0  0  0  0  3  0  0  0  0  0  0
  187.4440  177.6610  138.1410 C   0  0  0  0  0  0  0  0  0  0  0  0
  188.8120  175.8730  137.7190 C   0  0  0  0  0  0  0  0  0  0  0  0
  187.4690  176.3950  137.3280 C   0  0  2  0  0  3  0  0  0  0  0  0
  189.3540  174.7570  137.2390 C   0  0  0  0  0  3  0  0  0  0  0  0
  189.4050  176.6800  138.7350 N   0  0  0  0  0  0  0  0  0  0  0  0
  186.3800  178.6140  138.1140 N   0  0  0  0  0  1  0  0  0  0  0  0
  187.3690  173.3790  134.3750 O   0  0  0  0  0  0  0  0  0  0  0  0
  186.7280  172.2080  134.8610 C   0  0  0  0  0  1  0  0  0  0  0  0
  187.3880  176.8370  145.2790 N   0  0  0  0  0  2  0  0  0  0  0  0
  186.6860  178.6350  147.3460 N   0  0  0  0  0  1  0  0  0  0  0  0
  188.2290  176.5330  147.7840 O   0  0  0  0  0  0  0  0  0  0  0  0
  189.1670  178.4110  146.4780 O   0  0  0  0  0  0  0  0  0  0  0  0
  187.9310  177.5890  146.7520 S   0  0  0  0  0  0  0  0  0  0  0  0
  1  3  1  0  0  0  0
  2  5  2  0  0  0  0
  3  4  2  0  0  0  0
  4 32  1  0  0  0  0
  5  4  1  0  0  0  0
  6  1  1  0  0  0  0
  7  2  1  0  0  0  0
  7  1  2  0  0  0  0
  8  9  2  0  0  0  0
  9  2  1  0  0  0  0
 10  8  2  0  0  0  0
 10 14  1  0  0  0  0
 12 11  1  0  0  0  0
 13 15  1  0  0  0  0
 14 12  1  0  0  0  0
 15 11  1  0  0  0  0
 16 14  2  0  0  0  0
 16 13  1  0  0  0  0
 17  7  1  0  0  0  0
 18 17  1  0  0  0  0
 21 23  2  0  0  0  0
 22 21  1  0  0  0  0
 22 20  2  0  0  0  0
 23 27  1  0  0  0  0
 24 18  2  0  0  0  0
 25 28  1  0  0  0  0
 26 20  1  6  0  0  0
 26 25  1  0  0  0  0
 26 24  1  0  0  0  0
 27 25  2  0  0  0  0
 28 18  1  0  0  0  0
 28 19  1  0  0  0  0
 29 24  1  0  0  0  0
 30 31  1  0  0  0  0
 30 21  1  0  0  0  0
 32 36  1  0  0  0  0
 35 36  2  0  0  0  0
 36 33  1  0  0  0  0
 36 34  2  0  0  0  0
M  END
>  <MODEL>
7

>  <REMARK>
 VINA RESULT:      -7.0      3.078      7.334
  Name = 
  7 active torsions:
  status: ('A' for Active; 'I' for Inactive)
    1  A    between atoms: C_1  and  C_13
    2  A    between atoms: O_3  and  C_5
    3  A    between atoms: C_13  and  C_33
    4  A    between atoms: C_16  and  C_31
    5  A    between atoms: C_20  and  C_22
    6  A    between atoms: N_21  and  C_25
    7  A    between atoms: N_21  and  S_35
                            x       y       z     vdW  Elec       q    Type
                         _______ _______ _______ _____ _____    ______ ____

>  <TORSDO>
F 7

$$$$
=
 OpenBabel10232411263D

 36 39  0  0  1  0  0  0  0  0999 V2000
  187.3580  177.9820  136.8270 C   0  0  0  0  0  0  0  0  0  0  0  0
  188.7380  176.0400  137.3240 C   0  0  0  0  0  0  0  0  0  0  0  0
  186.4970  177.1810  136.0810 C   0  0  0  0  0  3  0  0  0  0  0  0
  186.7370  175.8140  135.9450 C   0  0  0  0  0  0  0  0  0  0  0  0
  187.8550  175.2490  136.5700 C   0  0  0  0  0  3  0  0  0  0  0  0
  187.0680  179.3370  136.9660 O   0  0  0  0  0  1  0  0  0  0  0  0
  188.4880  177.4280  137.4500 C   0  0  0  0  0  0  0  0  0  0  0  0
  190.7960  174.7210  137.3380 C   0  0  0  0  0  0  0  0  0  0  0  0
  189.9070  175.4290  137.9820 C   0  0  0  0  0  3  0  0  0  0  0  0
  191.6830  174.0390  136.6730 C   0  0  0  0  0  3  0  0  0  0  0  0
  194.5180  175.2940  134.4360 C   0  0  0  0  0  2  0  0  0  0  0  0
  193.2220  174.9040  134.9040 O   0  0  0  0  0  0  0  0  0  0  0  0
  195.0430  175.6840  136.7930 N   0  0  0  0  0  2  0  0  0  0  0  0
  192.9540  174.6560  136.2640 C   0  0  0  0  0  0  0  0  0  0  0  0
  195.1730  176.2380  135.4430 C   0  0  0  0  0  2  0  0  0  0  0  0
  193.8450  175.0050  137.1920 C   0  0  0  0  0  3  0  0  0  0  0  0
  189.4090  178.3430  138.2200 C   0  0  0  0  0  2  0  0  0  0  0  0
  189.3370  178.1110  139.7030 C   0  0  0  0  0  0  0  0  0  0  0  0
  191.7130  177.2590  140.0120 C   0  0  0  0  0  1  0  0  0  0  0  0
  187.8410  176.9790  142.5360 N   0  0  0  0  0  0  0  0  0  0  0  0
  189.0510  177.1680  144.6890 C   0  0  0  0  0  0  0  0  0  0  0  0
  188.0280  176.5960  143.7650 C   0  0  0  0  0  3  0  0  0  0  0  0
  190.2770  177.5430  144.2920 C   0  0  0  0  0  3  0  0  0  0  0  0
  188.2330  178.1860  140.4490 C   0  0  0  0  0  0  0  0  0  0  0  0
  190.0070  177.8020  141.8470 C   0  0  0  0  0  0  0  0  0  0  0  0
  188.5450  178.0990  141.9190 C   0  0  2  0  0  3  0  0  0  0  0  0
  190.7840  177.5900  142.9060 C   0  0  0  0  0  3  0  0  0  0  0  0
  190.4800  177.8550  140.5030 N   0  0  0  0  0  0  0  0  0  0  0  0
  186.9270  178.4070  139.9160 N   0  0  0  0  0  1  0  0  0  0  0  0
  188.7740  177.2660  146.0520 O   0  0  0  0  0  0  0  0  0  0  0  0
  189.7200  176.9230  147.0540 C   0  0  0  0  0  1  0  0  0  0  0  0
  185.8100  175.0170  135.2030 N   0  0  0  0  0  2  0  0  0  0  0  0
  183.0140  174.7230  135.5120 N   0  0  0  0  0  1  0  0  0  0  0  0
  184.6430  172.6410  135.4550 O   0  0  0  0  0  0  0  0  0  0  0  0
  184.7010  174.1080  137.4440 O   0  0  0  0  0  0  0  0  0  0  0  0
  184.5550  174.0630  135.9430 S   0  0  0  0  0  0  0  0  0  0  0  0
  1  6  1  0  0  0  0
  1  7  1  0  0  0  0
  2  7  2  0  0  0  0
  2  9  1  0  0  0  0
  3  1  2  0  0  0  0
  4  3  1  0  0  0  0
  4  5  2  0  0  0  0
  5  2  1  0  0  0  0
  7 17  1  0  0  0  0
  8  9  2  0  0  0  0
 10  8  2  0  0  0  0
 11 12  1  0  0  0  0
 11 15  1  0  0  0  0
 12 14  1  0  0  0  0
 13 16  1  0  0  0  0
 14 10  1  0  0  0  0
 14 16  2  0  0  0  0
 15 13  1  0  0  0  0
 17 18  1  0  0  0  0
 18 24  2  0  0  0  0
 18 28  1  0  0  0  0
 19 28  1  0  0  0  0
 20 22  2  0  0  0  0
 21 30  1  0  0  0  0
 22 21  1  0  0  0  0
 23 21  2  0  0  0  0
 25 26  1  0  0  0  0
 25 27  2  0  0  0  0
 26 24  1  6  0  0  0
 26 20  1  0  0  0  0
 27 23  1  0  0  0  0
 28 25  1  0  0  0  0
 29 24  1  0  0  0  0
 30 31  1  0  0  0  0
 32 36  1  0  0  0  0
 32  4  1  0  0  0  0
 33 36  1  0  0  0  0
 34 36  2  0  0  0  0
 36 35  2  0  0  0  0
M  END
>  <MODEL>
8

>  <REMARK>
 VINA RESULT:      -6.8      2.598      6.001
  Name = 
  7 active torsions:
  status: ('A' for Active; 'I' for Inactive)
    1  A    between atoms: C_1  and  C_13
    2  A    between atoms: O_3  and  C_5
    3  A    between atoms: C_13  and  C_33
    4  A    between atoms: C_16  and  C_31
    5  A    between atoms: C_20  and  C_22
    6  A    between atoms: N_21  and  C_25
    7  A    between atoms: N_21  and  S_35
                            x       y       z     vdW  Elec       q    Type
                         _______ _______ _______ _____ _____    ______ ____

>  <TORSDO>
F 7

$$$$
=
 OpenBabel10232411263D

 36 39  0  0  1  0  0  0  0  0999 V2000
  188.3340  178.0490  140.3290 C   0  0  0  0  0  0  0  0  0  0  0  0
  190.1450  176.9300  139.1470 C   0  0  0  0  0  0  0  0  0  0  0  0
  188.9390  177.7420  141.5460 C   0  0  0  0  0  3  0  0  0  0  0  0
  190.1390  177.0350  141.5850 C   0  0  0  0  0  0  0  0  0  0  0  0
  190.7390  176.6340  140.3850 C   0  0  0  0  0  3  0  0  0  0  0  0
  187.1520  178.7850  140.3280 O   0  0  0  0  0  1  0  0  0  0  0  0
  188.9220  177.6450  139.1190 C   0  0  0  0  0  0  0  0  0  0  0  0
  192.0860  176.5330  137.7160 C   0  0  0  0  0  0  0  0  0  0  0  0
  190.7910  176.5080  137.8920 C   0  0  0  0  0  3  0  0  0  0  0  0
  193.3790  176.5430  137.5690 C   0  0  0  0  0  3  0  0  0  0  0  0
  195.9240  174.0400  138.9380 C   0  0  0  0  0  2  0  0  0  0  0  0
  194.9810  175.1130  138.8480 O   0  0  0  0  0  0  0  0  0  0  0  0
  194.7730  173.1190  136.9860 N   0  0  0  0  0  0  0  0  0  0  0  0
  194.1620  175.3070  137.7190 C   0  0  1  0  0  3  0  0  0  0  0  0
  195.3440  172.7820  138.2920 C   0  0  0  0  0  2  0  0  0  0  0  0
  194.0740  174.3550  136.7900 C   0  0  0  0  0  3  0  0  0  0  0  0
  188.2130  177.9720  137.8270 C   0  0  0  0  0  2  0  0  0  0  0  0
  187.1020  177.0060  137.5240 C   0  0  0  0  0  0  0  0  0  0  0  0
  185.1920  178.4170  138.4340 C   0  0  0  0  0  1  0  0  0  0  0  0
  185.6890  173.9170  137.4620 N   0  0  0  0  0  0  0  0  0  0  0  0
  183.3600  173.6790  136.6540 C   0  0  0  0  0  0  0  0  0  0  0  0
  184.5720  173.2520  137.4120 C   0  0  0  0  0  3  0  0  0  0  0  0
  182.9640  174.9580  136.5550 C   0  0  0  0  0  3  0  0  0  0  0  0
  187.2570  175.7530  137.0940 C   0  0  0  0  0  0  0  0  0  0  0  0
  185.0130  176.2150  137.1340 C   0  0  0  0  0  0  0  0  0  0  0  0
  185.9450  175.1320  136.6960 C   0  0  2  0  0  3  0  0  0  0  0  0
  183.6880  176.1500  137.0380 C   0  0  0  0  0  3  0  0  0  0  0  0
  185.7300  177.3580  137.5930 N   0  0  0  0  0  0  0  0  0  0  0  0
  188.5260  175.1130  136.9500 N   0  0  0  0  0  1  0  0  0  0  0  0
  182.5390  172.7190  136.0650 O   0  0  0  0  0  0  0  0  0  0  0  0
  181.3820  172.2000  136.7070 C   0  0  0  0  0  1  0  0  0  0  0  0
  190.7480  176.7710  142.8520 N   0  0  0  0  0  2  0  0  0  0  0  0
  189.0610  177.7620  144.8950 N   0  0  0  0  0  1  0  0  0  0  0  0
  191.6640  177.4650  145.2510 O   0  0  0  0  0  0  0  0  0  0  0  0
  190.8960  179.2720  143.7490 O   0  0  0  0  0  0  0  0  0  0  0  0
  190.6480  177.8560  144.2100 S   0  0  0  0  0  0  0  0  0  0  0  0
  1  3  1  0  0  0  0
  2  5  2  0  0  0  0
  3  4  2  0  0  0  0
  4 32  1  0  0  0  0
  5  4  1  0  0  0  0
  6  1  1  0  0  0  0
  7  2  1  0  0  0  0
  7  1  2  0  0  0  0
  8  9  2  0  0  0  0
  9  2  1  0  0  0  0
 10  8  2  0  0  0  0
 12 11  1  0  0  0  0
 13 15  1  0  0  0  0
 14 10  1  1  0  0  0
 14 12  1  0  0  0  0
 15 11  1  0  0  0  0
 16 13  2  0  0  0  0
 16 14  1  0  0  0  0
 17  7  1  0  0  0  0
 18 28  1  0  0  0  0
 18 17  1  0  0  0  0
 21 22  1  0  0  0  0
 22 20  2  0  0  0  0
 23 21  2  0  0  0  0
 23 27  1  0  0  0  0
 24 18  2  0  0  0  0
 25 28  1  0  0  0  0
 26 24  1  1  0  0  0
 26 25  1  0  0  0  0
 26 20  1  0  0  0  0
 27 25  2  0  0  0  0
 28 19  1  0  0  0  0
 29 24  1  0  0  0  0
 30 21  1  0  0  0  0
 30 31  1  0  0  0  0
 32 36  1  0  0  0  0
 35 36  2  0  0  0  0
 36 33  1  0  0  0  0
 36 34  2  0  0  0  0
M  END
>  <MODEL>
9

>  <REMARK>
 VINA RESULT:      -6.8      3.593      9.142
  Name = 
  7 active torsions:
  status: ('A' for Active; 'I' for Inactive)
    1  A    between atoms: C_1  and  C_13
    2  A    between atoms: O_3  and  C_5
    3  A    between atoms: C_13  and  C_33
    4  A    between atoms: C_16  and  C_31
    5  A    between atoms: C_20  and  C_22
    6  A    between atoms: N_21  and  C_25
    7  A    between atoms: N_21  and  S_35
                            x       y       z     vdW  Elec       q    Type
                         _______ _______ _______ _____ _____    ______ ____

>  <TORSDO>
F 7

$$$$
