=
 OpenBabel10232410193D

 41 45  0  0  1  0  0  0  0  0999 V2000
  185.2120  178.2200  138.6790 C   0  0  2  0  0  3  0  0  0  0  0  0
  186.1460  176.1360  134.3520 Cl  0  0  0  0  0  0  0  0  0  0  0  0
  186.2550  175.9460  136.0800 N   0  0  0  0  0  0  0  0  0  0  0  0
  188.5270  177.9640  137.2390 C   0  0  0  0  0  2  0  0  0  0  0  0
  187.2030  177.4440  137.7790 C   0  0  2  0  0  3  0  0  0  0  0  0
  183.8580  176.6720  137.3460 N   0  0  0  0  0  2  0  0  0  0  0  0
  186.1950  177.3010  136.6610 C   0  0  2  0  0  3  0  0  0  0  0  0
  184.4980  175.4740  137.6880 N   0  0  0  0  0  2  0  0  0  0  0  0
  186.6580  178.4100  138.7260 N   0  0  2  0  0  0  0  0  0  0  0  0
  188.5800  178.4230  140.2480 C   0  0  0  0  0  2  0  0  0  0  0  0
  189.7350  177.5890  138.1100 C   0  0  0  0  0  2  0  0  0  0  0  0
  187.1110  178.0570  140.0670 C   0  0  0  0  0  2  0  0  0  0  0  0
  185.1780  175.0280  136.4790 C   0  0  2  0  0  3  0  0  0  0  0  0
  189.4550  177.3540  139.6040 C   0  0  1  0  0  3  0  0  0  0  0  0
  184.8610  177.7360  137.2810 C   0  0  2  0  0  3  0  0  0  0  0  0
  184.5130  171.8980  136.4120 N   0  0  0  0  0  0  0  0  0  0  0  0
  184.8650  172.7760  137.4030 O   0  0  0  0  0  0  0  0  0  0  0  0
  185.2140  172.6850  135.4200 C   0  0  0  0  0  2  0  0  0  0  0  0
  185.6600  173.5610  136.5460 C   0  0  1  0  0  3  0  0  0  0  0  0
  182.0440  171.4740  137.3500 O   0  0  0  0  0  1  0  0  0  0  0  0
  182.3680  171.0970  134.7900 O   0  0  0  0  0  0  0  0  0  0  0  0
  182.7760  172.0190  136.1470 P   0  0  0  0  0  0  0  0  0  0  0  0
  182.3010  173.6210  135.8810 O   0  0  0  0  0  1  0  0  0  0  0  0
  190.7520  177.1470  140.3840 C   0  0  0  0  0  2  0  0  0  0  0  0
  190.5710  175.4670  142.7170 O   0  0  0  0  0  0  0  0  0  0  0  0
  190.6270  177.6040  141.7630 N   0  0  0  0  0  2  0  0  0  0  0  0
  190.4690  176.7150  142.8720 C   0  0  0  0  0  0  0  0  0  0  0  0
  190.1250  177.3640  144.4630 S   0  0  0  0  0  0  0  0  0  0  0  0
  191.1120  176.8090  145.4540 O   0  0  0  0  0  0  0  0  0  0  0  0
  190.2470  178.8630  144.4230 O   0  0  0  0  0  0  0  0  0  0  0  0
  188.5130  176.9250  144.9160 N   0  0  0  0  0  2  0  0  0  0  0  0
  187.6090  177.4590  143.9060 C   0  0  0  0  0  2  0  0  0  0  0  0
  186.3640  177.6650  146.0500 C   0  0  0  0  0  1  0  0  0  0  0  0
  186.3290  177.9470  144.5610 C   0  0  0  0  0  2  0  0  0  0  0  0
  184.5040  179.5350  138.9850 C   0  0  0  0  0  2  0  0  0  0  0  0
  181.0860  179.5500  140.3610 C   0  0  0  0  0  1  0  0  0  0  0  0
  182.2260  178.8290  139.6700 C   0  0  2  0  0  3  0  0  0  0  0  0
  183.6750  178.3240  142.1930 N   0  0  0  0  0  1  0  0  0  0  0  0
  182.5320  177.5970  140.3810 N   0  0  0  0  0  2  0  0  0  0  0  0
  183.7780  178.1010  140.8120 N   0  0  0  0  0  0  0  0  0  0  0  0
  183.5370  179.3740  140.1510 C   0  0  1  0  0  3  0  0  0  0  0  0
  1  9  1  0  0  0  0
  1 35  1  6  0  0  0
  2  3  1  0  0  0  0
  3 13  1  0  0  0  0
  4 11  1  0  0  0  0
  5  4  1  6  0  0  0
  5  9  1  0  0  0  0
  6  8  1  0  0  0  0
  7  3  1  1  0  0  0
  7 15  1  0  0  0  0
  7  5  1  0  0  0  0
  9 12  1  1  0  0  0
 11 14  1  0  0  0  0
 12 10  1  0  0  0  0
 13 19  1  0  0  0  0
 13  8  1  1  0  0  0
 14 10  1  0  0  0  0
 14 24  1  1  0  0  0
 15  6  1  1  0  0  0
 15  1  1  0  0  0  0
 16 17  1  0  0  0  0
 18 16  1  0  0  0  0
 19 18  1  6  0  0  0
 19 17  1  0  0  0  0
 21 22  2  0  0  0  0
 22 16  1  0  0  0  0
 22 20  1  0  0  0  0
 23 22  1  0  0  0  0
 24 26  1  0  0  0  0
 25 27  2  0  0  0  0
 26 27  1  0  0  0  0
 27 28  1  0  0  0  0
 28 31  1  0  0  0  0
 28 29  2  0  0  0  0
 30 28  2  0  0  0  0
 32 34  1  0  0  0  0
 32 31  1  0  0  0  0
 34 33  1  0  0  0  0
 37 41  1  0  0  0  0
 37 36  1  1  0  0  0
 37 39  1  0  0  0  0
 39 40  1  0  0  0  0
 40 38  1  0  0  0  0
 41 35  1  6  0  0  0
 41 40  1  0  0  0  0
M  END
>  <MODEL>
1

>  <REMARK>
 VINA RESULT:      -7.1      0.000      0.000
  Name = 
  10 active torsions:
  status: ('A' for Active; 'I' for Inactive)
    1  A    between atoms: C_1  and  C_30
    2  A    between atoms: S_7  and  N_21
    3  A    between atoms: S_7  and  C_41
    4  A    between atoms: N_10  and  P_29
    5  A    between atoms: N_16  and  C_18
    6  A    between atoms: C_18  and  C_37
    7  A    between atoms: N_21  and  C_40
    8  A    between atoms: C_24  and  C_40
    9  A    between atoms: C_30  and  C_34
   10  A    between atoms: C_36  and  C_39
                            x       y       z     vdW  Elec       q    Type
                         _______ _______ _______ _____ _____    ______ ____

>  <TORSDO>
F 10

$$$$
=
 OpenBabel10232410193D

 41 45  0  0  1  0  0  0  0  0999 V2000
  191.7200  175.0730  137.4710 C   0  0  2  0  0  3  0  0  0  0  0  0
  189.2700  179.2820  137.9340 Cl  0  0  0  0  0  0  0  0  0  0  0  0
  189.2940  177.5920  138.3540 N   0  0  0  0  0  0  0  0  0  0  0  0
  188.6470  175.8210  135.7040 C   0  0  0  0  0  2  0  0  0  0  0  0
  189.5320  175.6110  136.9240 C   0  0  2  0  0  3  0  0  0  0  0  0
  191.8380  176.7850  139.2200 N   0  0  0  0  0  2  0  0  0  0  0  0
  190.1520  176.9190  137.3600 C   0  0  2  0  0  3  0  0  0  0  0  0
  190.7000  176.4260  139.9530 N   0  0  0  0  0  2  0  0  0  0  0  0
  190.6290  174.7140  136.5730 N   0  0  2  0  0  0  0  0  0  0  0  0
  189.2300  172.8360  135.8460 C   0  0  0  0  0  2  0  0  0  0  0  0
  187.5500  174.7570  135.5530 C   0  0  0  0  0  2  0  0  0  0  0  0
  190.2290  173.3460  136.8800 C   0  0  0  0  0  2  0  0  0  0  0  0
  189.7410  177.5040  139.7520 C   0  0  2  0  0  3  0  0  0  0  0  0
  187.8420  173.3780  136.1690 C   0  0  1  0  0  3  0  0  0  0  0  0
  191.5740  176.5500  137.8010 C   0  0  2  0  0  3  0  0  0  0  0  0
  188.6540  177.4870  142.7620 N   0  0  0  0  0  0  0  0  0  0  0  0
  188.7500  176.5390  141.7790 O   0  0  0  0  0  0  0  0  0  0  0  0
  188.5480  178.5440  141.7790 C   0  0  0  0  0  2  0  0  0  0  0  0
  188.5540  177.4690  140.7410 C   0  0  1  0  0  3  0  0  0  0  0  0
  190.6860  176.2110  143.9450 O   0  0  0  0  0  1  0  0  0  0  0  0
  190.0060  178.4950  145.0060 O   0  0  0  0  0  1  0  0  0  0  0  0
  190.2070  177.5980  143.5870 P   0  0  0  0  0  0  0  0  0  0  0  0
  191.3680  178.3590  142.6200 O   0  0  0  0  0  0  0  0  0  0  0  0
  186.7510  172.3700  135.8130 C   0  0  0  0  0  2  0  0  0  0  0  0
  184.8890  172.8520  137.9580 O   0  0  0  0  0  0  0  0  0  0  0  0
  185.4470  173.0130  135.6910 N   0  0  0  0  0  2  0  0  0  0  0  0
  184.5390  173.1580  136.7850 C   0  0  0  0  0  0  0  0  0  0  0  0
  182.9190  173.7600  136.4950 S   0  0  0  0  0  0  0  0  0  0  0  0
  182.6350  173.7380  135.0180 O   0  0  0  0  0  0  0  0  0  0  0  0
  181.9280  172.8790  137.2060 O   0  0  0  0  0  0  0  0  0  0  0  0
  182.7990  175.3760  137.1030 N   0  0  0  0  0  2  0  0  0  0  0  0
  183.9090  176.1400  136.5490 C   0  0  0  0  0  2  0  0  0  0  0  0
  185.7850  177.4660  137.5010 C   0  0  0  0  0  1  0  0  0  0  0  0
  184.2830  177.2700  137.4910 C   0  0  0  0  0  2  0  0  0  0  0  0
  193.0600  174.8050  136.7950 C   0  0  0  0  0  2  0  0  0  0  0  0
  195.5500  172.3150  137.8830 C   0  0  0  0  0  1  0  0  0  0  0  0
  195.1860  173.5610  137.1000 C   0  0  2  0  0  3  0  0  0  0  0  0
  195.2930  175.3080  139.4800 N   0  0  0  0  0  1  0  0  0  0  0  0
  196.0810  174.6500  137.4630 N   0  0  0  0  0  2  0  0  0  0  0  0
  195.0380  175.3560  138.1010 N   0  0  0  0  0  0  0  0  0  0  0  0
  194.0860  174.2990  137.8020 C   0  0  1  0  0  3  0  0  0  0  0  0
  1 35  1  6  0  0  0
  1 15  1  0  0  0  0
  2  3  1  0  0  0  0
  3 13  1  0  0  0  0
  5  4  1  6  0  0  0
  5  7  1  0  0  0  0
  6  8  1  0  0  0  0
  7 15  1  0  0  0  0
  7  3  1  1  0  0  0
  9 12  1  1  0  0  0
  9  5  1  0  0  0  0
  9  1  1  0  0  0  0
 10 14  1  0  0  0  0
 10 12  1  0  0  0  0
 11  4  1  0  0  0  0
 11 14  1  0  0  0  0
 13  8  1  6  0  0  0
 13 19  1  0  0  0  0
 14 24  1  6  0  0  0
 15  6  1  1  0  0  0
 16 22  1  0  0  0  0
 17 16  1  0  0  0  0
 18 16  1  0  0  0  0
 19 18  1  1  0  0  0
 19 17  1  0  0  0  0
 22 20  1  0  0  0  0
 22 21  1  0  0  0  0
 23 22  2  0  0  0  0
 26 24  1  0  0  0  0
 26 27  1  0  0  0  0
 27 25  2  0  0  0  0
 28 27  1  0  0  0  0
 28 31  1  0  0  0  0
 28 30  2  0  0  0  0
 29 28  2  0  0  0  0
 32 31  1  0  0  0  0
 32 34  1  0  0  0  0
 34 33  1  0  0  0  0
 37 39  1  0  0  0  0
 37 41  1  0  0  0  0
 37 36  1  1  0  0  0
 39 40  1  0  0  0  0
 40 38  1  0  0  0  0
 41 35  1  6  0  0  0
 41 40  1  0  0  0  0
M  END
>  <MODEL>
2

>  <REMARK>
 VINA RESULT:      -6.6      4.207      9.487
  Name = 
  10 active torsions:
  status: ('A' for Active; 'I' for Inactive)
    1  A    between atoms: C_1  and  C_30
    2  A    between atoms: S_7  and  N_21
    3  A    between atoms: S_7  and  C_41
    4  A    between atoms: N_10  and  P_29
    5  A    between atoms: N_16  and  C_18
    6  A    between atoms: C_18  and  C_37
    7  A    between atoms: N_21  and  C_40
    8  A    between atoms: C_24  and  C_40
    9  A    between atoms: C_30  and  C_34
   10  A    between atoms: C_36  and  C_39
                            x       y       z     vdW  Elec       q    Type
                         _______ _______ _______ _____ _____    ______ ____

>  <TORSDO>
F 10

$$$$
=
 OpenBabel10232410193D

 41 45  0  0  1  0  0  0  0  0999 V2000
  190.3460  176.3650  137.8320 C   0  0  2  0  0  3  0  0  0  0  0  0
  188.3960  179.5490  140.9950 Cl  0  0  0  0  0  0  0  0  0  0  0  0
  188.4400  177.8820  140.4930 N   0  0  0  0  0  0  0  0  0  0  0  0
  186.9420  177.5870  137.6220 C   0  0  0  0  0  2  0  0  0  0  0  0
  188.1300  176.8910  138.2680 C   0  0  2  0  0  3  0  0  0  0  0  0
  191.0730  177.0000  140.0850 N   0  0  0  0  0  2  0  0  0  0  0  0
  188.9280  177.8690  139.1010 C   0  0  2  0  0  3  0  0  0  0  0  0
  190.1780  176.2210  140.8290 N   0  0  0  0  0  2  0  0  0  0  0  0
  189.0210  176.3920  137.2250 N   0  0  2  0  0  0  0  0  0  0  0  0
  187.3600  174.9890  136.0910 C   0  0  0  0  0  2  0  0  0  0  0  0
  185.7860  176.6360  137.2790 C   0  0  0  0  0  2  0  0  0  0  0  0
  188.6460  175.0180  136.9100 C   0  0  0  0  0  2  0  0  0  0  0  0
  189.2690  177.1610  141.4700 C   0  0  2  0  0  3  0  0  0  0  0  0
  186.1620  175.1680  137.0170 C   0  0  1  0  0  3  0  0  0  0  0  0
  190.3920  177.4690  138.8780 C   0  0  2  0  0  3  0  0  0  0  0  0
  188.7900  176.6230  144.5890 N   0  0  0  0  0  0  0  0  0  0  0  0
  189.2140  175.8480  143.5430 O   0  0  0  0  0  0  0  0  0  0  0  0
  188.0190  177.4630  143.6970 C   0  0  0  0  0  2  0  0  0  0  0  0
  188.4230  176.5320  142.6000 C   0  0  1  0  0  3  0  0  0  0  0  0
  189.8760  177.9810  146.6210 O   0  0  0  0  0  1  0  0  0  0  0  0
  190.4140  178.8830  144.2330 O   0  0  0  0  0  0  0  0  0  0  0  0
  190.1680  177.5260  145.2110 P   0  0  0  0  0  0  0  0  0  0  0  0
  191.5760  176.5870  145.2060 O   0  0  0  0  0  1  0  0  0  0  0  0
  184.9560  174.3650  136.5330 C   0  0  0  0  0  2  0  0  0  0  0  0
  182.4460  175.6130  135.8690 O   0  0  0  0  0  0  0  0  0  0  0  0
  183.8130  174.5240  137.4250 N   0  0  0  0  0  2  0  0  0  0  0  0
  182.6190  175.2190  137.0540 C   0  0  0  0  0  0  0  0  0  0  0  0
  181.3860  175.5310  138.2600 S   0  0  0  0  0  0  0  0  0  0  0  0
  180.4460  176.5890  137.7520 O   0  0  0  0  0  0  0  0  0  0  0  0
  180.6170  174.2640  138.5210 O   0  0  0  0  0  0  0  0  0  0  0  0
  182.1470  176.0590  139.7230 N   0  0  0  0  0  2  0  0  0  0  0  0
  182.8720  177.2870  139.4240 C   0  0  0  0  0  2  0  0  0  0  0  0
  184.6580  178.7150  140.4040 C   0  0  0  0  0  1  0  0  0  0  0  0
  183.4230  177.8880  140.7050 C   0  0  0  0  0  2  0  0  0  0  0  0
  191.4120  176.5930  136.7650 C   0  0  0  0  0  2  0  0  0  0  0  0
  193.9610  174.1630  135.6820 C   0  0  0  0  0  1  0  0  0  0  0  0
  193.4630  175.5910  135.7950 C   0  0  2  0  0  3  0  0  0  0  0  0
  194.3330  175.8620  138.6050 N   0  0  0  0  0  1  0  0  0  0  0  0
  194.4850  176.4200  136.4170 N   0  0  0  0  0  2  0  0  0  0  0  0
  193.7050  176.5880  137.5810 N   0  0  0  0  0  0  0  0  0  0  0  0
  192.6480  175.7470  137.0420 C   0  0  1  0  0  3  0  0  0  0  0  0
  1 35  1  6  0  0  0
  1 15  1  0  0  0  0
  3  2  1  0  0  0  0
  3 13  1  0  0  0  0
  5  4  1  6  0  0  0
  5  7  1  0  0  0  0
  6  8  1  0  0  0  0
  7  3  1  1  0  0  0
  9 12  1  1  0  0  0
  9  1  1  0  0  0  0
  9  5  1  0  0  0  0
 10 12  1  0  0  0  0
 10 14  1  0  0  0  0
 11  4  1  0  0  0  0
 13  8  1  6  0  0  0
 13 19  1  0  0  0  0
 14 24  1  6  0  0  0
 14 11  1  0  0  0  0
 15  7  1  0  0  0  0
 15  6  1  1  0  0  0
 16 22  1  0  0  0  0
 17 16  1  0  0  0  0
 18 16  1  0  0  0  0
 19 17  1  0  0  0  0
 19 18  1  1  0  0  0
 21 22  2  0  0  0  0
 22 20  1  0  0  0  0
 23 22  1  0  0  0  0
 24 26  1  0  0  0  0
 25 27  2  0  0  0  0
 27 26  1  0  0  0  0
 27 28  1  0  0  0  0
 28 30  2  0  0  0  0
 28 31  1  0  0  0  0
 29 28  2  0  0  0  0
 32 31  1  0  0  0  0
 32 34  1  0  0  0  0
 33 34  1  0  0  0  0
 37 36  1  1  0  0  0
 37 39  1  0  0  0  0
 37 41  1  0  0  0  0
 39 40  1  0  0  0  0
 40 38  1  0  0  0  0
 41 35  1  6  0  0  0
 41 40  1  0  0  0  0
M  END
>  <MODEL>
3

>  <REMARK>
 VINA RESULT:      -6.3      3.919      9.096
  Name = 
  10 active torsions:
  status: ('A' for Active; 'I' for Inactive)
    1  A    between atoms: C_1  and  C_30
    2  A    between atoms: S_7  and  N_21
    3  A    between atoms: S_7  and  C_41
    4  A    between atoms: N_10  and  P_29
    5  A    between atoms: N_16  and  C_18
    6  A    between atoms: C_18  and  C_37
    7  A    between atoms: N_21  and  C_40
    8  A    between atoms: C_24  and  C_40
    9  A    between atoms: C_30  and  C_34
   10  A    between atoms: C_36  and  C_39
                            x       y       z     vdW  Elec       q    Type
                         _______ _______ _______ _____ _____    ______ ____

>  <TORSDO>
F 10

$$$$
=
 OpenBabel10232410193D

 41 45  0  0  1  0  0  0  0  0999 V2000
  188.5160  174.7820  135.6000 C   0  0  2  0  0  3  0  0  0  0  0  0
  193.1010  176.3840  135.0050 Cl  0  0  0  0  0  0  0  0  0  0  0  0
  191.9500  175.7410  136.1440 N   0  0  0  0  0  0  0  0  0  0  0  0
  189.6970  177.9980  136.7810 C   0  0  0  0  0  2  0  0  0  0  0  0
  189.6710  176.4800  136.6780 C   0  0  2  0  0  3  0  0  0  0  0  0
  190.5650  173.5450  135.0790 N   0  0  0  0  0  2  0  0  0  0  0  0
  190.6090  176.0070  135.5910 C   0  0  2  0  0  3  0  0  0  0  0  0
  191.1100  173.4740  136.3670 N   0  0  0  0  0  2  0  0  0  0  0  0
  188.3280  176.0470  136.3030 N   0  0  2  0  0  0  0  0  0  0  0  0
  187.1640  177.0790  138.1980 C   0  0  0  0  0  2  0  0  0  0  0  0
  189.2860  178.5260  138.1630 C   0  0  0  0  0  2  0  0  0  0  0  0
  187.5690  175.7750  137.5180 C   0  0  0  0  0  2  0  0  0  0  0  0
  192.2920  174.3250  136.3470 C   0  0  2  0  0  3  0  0  0  0  0  0
  188.3460  177.6300  138.9870 C   0  0  1  0  0  3  0  0  0  0  0  0
  189.8800  174.8300  134.9310 C   0  0  2  0  0  3  0  0  0  0  0  0
  195.2480  174.1190  137.5570 N   0  0  0  0  0  0  0  0  0  0  0  0
  194.2620  173.2070  137.2920 O   0  0  0  0  0  0  0  0  0  0  0  0
  194.2710  175.1680  137.7560 C   0  0  0  0  0  2  0  0  0  0  0  0
  193.2240  174.1200  137.5620 C   0  0  1  0  0  3  0  0  0  0  0  0
  197.4760  173.7080  136.1340 O   0  0  0  0  0  1  0  0  0  0  0  0
  196.4160  176.0820  135.9270 O   0  0  0  0  0  1  0  0  0  0  0  0
  196.1460  174.4190  136.0710 P   0  0  0  0  0  0  0  0  0  0  0  0
  195.2890  173.8860  134.7120 O   0  0  0  0  0  0  0  0  0  0  0  0
  187.8880  178.3340  140.2630 C   0  0  0  0  0  2  0  0  0  0  0  0
  187.7270  176.8700  142.7380 O   0  0  0  0  0  0  0  0  0  0  0  0
  188.9130  178.2850  141.3000 N   0  0  0  0  0  2  0  0  0  0  0  0
  188.7400  177.5940  142.5400 C   0  0  0  0  0  0  0  0  0  0  0  0
  189.9450  177.7620  143.8020 S   0  0  0  0  0  0  0  0  0  0  0  0
  190.7690  176.5050  143.8760 O   0  0  0  0  0  0  0  0  0  0  0  0
  190.8400  178.9270  143.4800 O   0  0  0  0  0  0  0  0  0  0  0  0
  189.1470  178.0430  145.3120 N   0  0  0  0  0  2  0  0  0  0  0  0
  189.7870  177.1990  146.3130 C   0  0  0  0  0  2  0  0  0  0  0  0
  188.1110  178.1030  147.9140 C   0  0  0  0  0  1  0  0  0  0  0  0
  188.7940  176.8490  147.4070 C   0  0  0  0  0  2  0  0  0  0  0  0
  187.4150  174.5970  134.5620 C   0  0  0  0  0  2  0  0  0  0  0  0
  187.6250  171.0800  135.6410 C   0  0  0  0  0  1  0  0  0  0  0  0
  187.2320  172.5200  135.9070 C   0  0  2  0  0  3  0  0  0  0  0  0
  184.7330  172.3140  134.3460 N   0  0  0  0  0  1  0  0  0  0  0  0
  185.8340  172.5830  136.3050 N   0  0  0  0  0  2  0  0  0  0  0  0
  185.4740  173.2330  135.1050 N   0  0  0  0  0  0  0  0  0  0  0  0
  186.8440  173.1860  134.6210 C   0  0  1  0  0  3  0  0  0  0  0  0
  1 35  1  6  0  0  0
  1  9  1  0  0  0  0
  2  3  1  0  0  0  0
  3 13  1  0  0  0  0
  4 11  1  0  0  0  0
  5  4  1  6  0  0  0
  6  8  1  0  0  0  0
  7  3  1  1  0  0  0
  7  5  1  0  0  0  0
  9  5  1  0  0  0  0
  9 12  1  1  0  0  0
 10 14  1  0  0  0  0
 11 14  1  0  0  0  0
 12 10  1  0  0  0  0
 13  8  1  1  0  0  0
 13 19  1  0  0  0  0
 14 24  1  1  0  0  0
 15  6  1  1  0  0  0
 15  7  1  0  0  0  0
 15  1  1  0  0  0  0
 16 18  1  0  0  0  0
 17 16  1  0  0  0  0
 17 19  1  0  0  0  0
 19 18  1  6  0  0  0
 21 22  1  0  0  0  0
 22 20  1  0  0  0  0
 22 16  1  0  0  0  0
 23 22  2  0  0  0  0
 24 26  1  0  0  0  0
 26 27  1  0  0  0  0
 27 25  2  0  0  0  0
 27 28  1  0  0  0  0
 28 29  2  0  0  0  0
 28 31  1  0  0  0  0
 30 28  2  0  0  0  0
 31 32  1  0  0  0  0
 32 34  1  0  0  0  0
 34 33  1  0  0  0  0
 37 36  1  6  0  0  0
 37 39  1  0  0  0  0
 38 40  1  0  0  0  0
 40 39  1  0  0  0  0
 41 35  1  1  0  0  0
 41 40  1  0  0  0  0
 41 37  1  0  0  0  0
M  END
>  <MODEL>
4

>  <REMARK>
 VINA RESULT:      -6.0      4.756      7.312
  Name = 
  10 active torsions:
  status: ('A' for Active; 'I' for Inactive)
    1  A    between atoms: C_1  and  C_30
    2  A    between atoms: S_7  and  N_21
    3  A    between atoms: S_7  and  C_41
    4  A    between atoms: N_10  and  P_29
    5  A    between atoms: N_16  and  C_18
    6  A    between atoms: C_18  and  C_37
    7  A    between atoms: N_21  and  C_40
    8  A    between atoms: C_24  and  C_40
    9  A    between atoms: C_30  and  C_34
   10  A    between atoms: C_36  and  C_39
                            x       y       z     vdW  Elec       q    Type
                         _______ _______ _______ _____ _____    ______ ____

>  <TORSDO>
F 10

$$$$
=
 OpenBabel10232410193D

 41 45  0  0  1  0  0  0  0  0999 V2000
  191.2370  177.4230  139.5090 C   0  0  2  0  0  3  0  0  0  0  0  0
  192.6180  173.3360  137.2000 Cl  0  0  0  0  0  0  0  0  0  0  0  0
  192.2060  175.0170  137.0030 N   0  0  0  0  0  0  0  0  0  0  0  0
  189.0130  175.4020  137.4850 C   0  0  0  0  0  2  0  0  0  0  0  0
  190.2350  176.2630  137.7690 C   0  0  2  0  0  3  0  0  0  0  0  0
  193.4770  176.6190  138.9240 N   0  0  0  0  0  2  0  0  0  0  0  0
  191.4070  175.4010  138.1810 C   0  0  2  0  0  3  0  0  0  0  0  0
  193.4960  176.9920  137.5750 N   0  0  0  0  0  2  0  0  0  0  0  0
  189.9450  177.1540  138.8890 N   0  0  2  0  0  0  0  0  0  0  0  0
  187.9960  178.2450  137.8770 C   0  0  0  0  0  2  0  0  0  0  0  0
  188.0100  176.0600  136.5260 C   0  0  0  0  0  2  0  0  0  0  0  0
  189.4320  178.4130  138.3620 C   0  0  0  0  0  2  0  0  0  0  0  0
  193.4680  175.7480  136.8170 C   0  0  2  0  0  3  0  0  0  0  0  0
  187.9970  177.5970  136.4970 C   0  0  1  0  0  3  0  0  0  0  0  0
  192.1180  176.2060  139.2760 C   0  0  2  0  0  3  0  0  0  0  0  0
  195.6290  175.6180  134.4600 N   0  0  0  0  0  0  0  0  0  0  0  0
  195.0240  176.6400  135.1410 O   0  0  0  0  0  0  0  0  0  0  0  0
  194.4900  174.7530  134.6770 C   0  0  0  0  0  2  0  0  0  0  0  0
  193.8250  175.9250  135.3240 C   0  0  1  0  0  3  0  0  0  0  0  0
  197.6210  176.2090  136.1460 O   0  0  0  0  0  1  0  0  0  0  0  0
  198.1460  174.3800  134.3620 O   0  0  0  0  0  0  0  0  0  0  0  0
  196.9980  175.0460  135.4100 P   0  0  0  0  0  0  0  0  0  0  0  0
  196.5270  173.8640  136.5250 O   0  0  0  0  0  1  0  0  0  0  0  0
  186.8540  178.1250  135.6310 C   0  0  0  0  0  2  0  0  0  0  0  0
  184.6190  177.8800  137.4310 O   0  0  0  0  0  0  0  0  0  0  0  0
  185.7690  177.1560  135.5270 N   0  0  0  0  0  2  0  0  0  0  0  0
  184.7240  177.0410  136.4960 C   0  0  0  0  0  0  0  0  0  0  0  0
  183.5820  175.7160  136.3890 S   0  0  0  0  0  0  0  0  0  0  0  0
  182.1870  176.2670  136.2780 O   0  0  0  0  0  0  0  0  0  0  0  0
  183.8920  174.8930  135.1680 O   0  0  0  0  0  0  0  0  0  0  0  0
  183.7250  174.7300  137.8040 N   0  0  0  0  0  2  0  0  0  0  0  0
  184.0050  173.3690  137.3680 C   0  0  0  0  0  2  0  0  0  0  0  0
  186.1950  172.5730  136.4970 C   0  0  0  0  0  1  0  0  0  0  0  0
  185.4270  172.9870  137.7370 C   0  0  0  0  0  2  0  0  0  0  0  0
  191.0550  177.6740  141.0020 C   0  0  0  0  0  2  0  0  0  0  0  0
  188.8170  175.5990  143.0680 C   0  0  0  0  0  1  0  0  0  0  0  0
  189.6810  176.8310  142.8890 C   0  0  2  0  0  3  0  0  0  0  0  0
  187.6020  178.2940  141.3850 N   0  0  0  0  0  1  0  0  0  0  0  0
  188.9110  178.0230  143.2110 N   0  0  0  0  0  2  0  0  0  0  0  0
  188.9130  178.4440  141.8640 N   0  0  0  0  0  0  0  0  0  0  0  0
  189.6590  177.2650  141.4550 C   0  0  1  0  0  3  0  0  0  0  0  0
  1 35  1  1  0  0  0
  3  2  1  0  0  0  0
  5  4  1  1  0  0  0
  5  7  1  0  0  0  0
  5  9  1  0  0  0  0
  7  3  1  6  0  0  0
  7 15  1  0  0  0  0
  8  6  1  0  0  0  0
  9 12  1  6  0  0  0
  9  1  1  0  0  0  0
 10 12  1  0  0  0  0
 11  4  1  0  0  0  0
 13  3  1  0  0  0  0
 13  8  1  6  0  0  0
 14 24  1  1  0  0  0
 14 11  1  0  0  0  0
 14 10  1  0  0  0  0
 15  6  1  6  0  0  0
 15  1  1  0  0  0  0
 16 18  1  0  0  0  0
 16 17  1  0  0  0  0
 16 22  1  0  0  0  0
 17 19  1  0  0  0  0
 19 18  1  1  0  0  0
 19 13  1  0  0  0  0
 21 22  2  0  0  0  0
 22 20  1  0  0  0  0
 22 23  1  0  0  0  0
 26 24  1  0  0  0  0
 26 27  1  0  0  0  0
 27 25  2  0  0  0  0
 28 27  1  0  0  0  0
 28 31  1  0  0  0  0
 29 28  2  0  0  0  0
 30 28  2  0  0  0  0
 32 34  1  0  0  0  0
 32 31  1  0  0  0  0
 33 34  1  0  0  0  0
 37 36  1  6  0  0  0
 37 39  1  0  0  0  0
 38 40  1  0  0  0  0
 40 39  1  0  0  0  0
 41 35  1  1  0  0  0
 41 40  1  0  0  0  0
 41 37  1  0  0  0  0
M  END
>  <MODEL>
5

>  <REMARK>
 VINA RESULT:      -5.5      5.212      8.899
  Name = 
  10 active torsions:
  status: ('A' for Active; 'I' for Inactive)
    1  A    between atoms: C_1  and  C_30
    2  A    between atoms: S_7  and  N_21
    3  A    between atoms: S_7  and  C_41
    4  A    between atoms: N_10  and  P_29
    5  A    between atoms: N_16  and  C_18
    6  A    between atoms: C_18  and  C_37
    7  A    between atoms: N_21  and  C_40
    8  A    between atoms: C_24  and  C_40
    9  A    between atoms: C_30  and  C_34
   10  A    between atoms: C_36  and  C_39
                            x       y       z     vdW  Elec       q    Type
                         _______ _______ _______ _____ _____    ______ ____

>  <TORSDO>
F 10

$$$$
=
 OpenBabel10232410193D

 41 45  0  0  1  0  0  0  0  0999 V2000
  189.0310  176.9970  138.5210 C   0  0  2  0  0  3  0  0  0  0  0  0
  187.0120  178.5560  134.3460 Cl  0  0  0  0  0  0  0  0  0  0  0  0
  187.3400  177.1630  135.3390 N   0  0  0  0  0  0  0  0  0  0  0  0
  190.5260  176.5150  135.2560 C   0  0  0  0  0  2  0  0  0  0  0  0
  189.4500  176.3850  136.3240 C   0  0  2  0  0  3  0  0  0  0  0  0
  186.7210  177.6520  138.0320 N   0  0  0  0  0  2  0  0  0  0  0  0
  188.4640  177.5270  136.2230 C   0  0  2  0  0  3  0  0  0  0  0  0
  186.2860  176.4730  137.4140 N   0  0  0  0  0  2  0  0  0  0  0  0
  190.0690  176.4700  137.6430 N   0  0  2  0  0  0  0  0  0  0  0  0
  191.6110  174.5860  137.3470 C   0  0  0  0  0  2  0  0  0  0  0  0
  191.1850  175.1790  134.8840 C   0  0  0  0  0  2  0  0  0  0  0  0
  190.3930  175.1210  138.0930 C   0  0  0  0  0  2  0  0  0  0  0  0
  186.0820  176.8110  136.0120 C   0  0  2  0  0  3  0  0  0  0  0  0
  191.1860  174.0890  135.9700 C   0  0  1  0  0  3  0  0  0  0  0  0
  188.1220  177.8770  137.6770 C   0  0  2  0  0  3  0  0  0  0  0  0
  183.4310  175.0510  135.6630 N   0  0  0  0  0  0  0  0  0  0  0  0
  184.7070  174.7780  136.0760 O   0  0  0  0  0  0  0  0  0  0  0  0
  183.8970  176.1410  134.8320 C   0  0  0  0  0  2  0  0  0  0  0  0
  185.2820  175.7440  135.2290 C   0  0  1  0  0  3  0  0  0  0  0  0
  183.0060  175.0380  138.3040 O   0  0  0  0  0  1  0  0  0  0  0  0
  180.8870  175.3360  136.8130 O   0  0  0  0  0  0  0  0  0  0  0  0
  182.5250  175.6930  137.0310 P   0  0  0  0  0  0  0  0  0  0  0  0
  182.7060  177.3700  137.1600 O   0  0  0  0  0  1  0  0  0  0  0  0
  192.0050  172.8760  135.5350 C   0  0  0  0  0  2  0  0  0  0  0  0
  193.6020  170.6070  136.3110 O   0  0  0  0  0  0  0  0  0  0  0  0
  193.3600  172.9230  136.0730 N   0  0  0  0  0  2  0  0  0  0  0  0
  194.0720  171.7610  136.5070 C   0  0  0  0  0  0  0  0  0  0  0  0
  195.6120  171.9410  137.3240 S   0  0  0  0  0  0  0  0  0  0  0  0
  196.2240  170.5840  137.5410 O   0  0  0  0  0  0  0  0  0  0  0  0
  196.5310  172.7720  136.4700 O   0  0  0  0  0  0  0  0  0  0  0  0
  195.3570  172.7320  138.8420 N   0  0  0  0  0  2  0  0  0  0  0  0
  195.5720  174.1580  138.6390 C   0  0  0  0  0  2  0  0  0  0  0  0
  197.9910  174.6670  138.9150 C   0  0  0  0  0  1  0  0  0  0  0  0
  196.6370  174.6650  139.5950 C   0  0  0  0  0  2  0  0  0  0  0  0
  189.6640  177.8050  139.6490 C   0  0  0  0  0  2  0  0  0  0  0  0
  190.1590  176.0320  142.8410 C   0  0  0  0  0  1  0  0  0  0  0  0
  190.2760  177.2850  141.9970 C   0  0  2  0  0  3  0  0  0  0  0  0
  187.4430  178.0260  142.3810 N   0  0  0  0  0  1  0  0  0  0  0  0
  189.6530  178.4040  142.6880 N   0  0  0  0  0  2  0  0  0  0  0  0
  188.6090  178.4680  141.7390 N   0  0  0  0  0  0  0  0  0  0  0  0
  189.1530  177.3370  141.0050 C   0  0  1  0  0  3  0  0  0  0  0  0
  1 35  1  1  0  0  0
  2  3  1  0  0  0  0
  3 13  1  0  0  0  0
  5  4  1  6  0  0  0
  5  9  1  0  0  0  0
  7  3  1  6  0  0  0
  7  5  1  0  0  0  0
  7 15  1  0  0  0  0
  8  6  1  0  0  0  0
  9 12  1  1  0  0  0
  9  1  1  0  0  0  0
 10 12  1  0  0  0  0
 11  4  1  0  0  0  0
 11 14  1  0  0  0  0
 13  8  1  1  0  0  0
 14 24  1  6  0  0  0
 14 10  1  0  0  0  0
 15  6  1  1  0  0  0
 15  1  1  0  0  0  0
 16 17  1  0  0  0  0
 16 22  1  0  0  0  0
 18 16  1  0  0  0  0
 19 18  1  1  0  0  0
 19 13  1  0  0  0  0
 19 17  1  0  0  0  0
 21 22  2  0  0  0  0
 22 23  1  0  0  0  0
 22 20  1  0  0  0  0
 24 26  1  0  0  0  0
 25 27  2  0  0  0  0
 26 27  1  0  0  0  0
 27 28  1  0  0  0  0
 28 29  2  0  0  0  0
 28 31  1  0  0  0  0
 30 28  2  0  0  0  0
 32 31  1  0  0  0  0
 32 34  1  0  0  0  0
 33 34  1  0  0  0  0
 37 39  1  0  0  0  0
 37 36  1  1  0  0  0
 40 38  1  0  0  0  0
 40 39  1  0  0  0  0
 41 35  1  6  0  0  0
 41 40  1  0  0  0  0
 41 37  1  0  0  0  0
M  END
>  <MODEL>
6

>  <REMARK>
 VINA RESULT:      -5.4      4.624      6.650
  Name = 
  10 active torsions:
  status: ('A' for Active; 'I' for Inactive)
    1  A    between atoms: C_1  and  C_30
    2  A    between atoms: S_7  and  N_21
    3  A    between atoms: S_7  and  C_41
    4  A    between atoms: N_10  and  P_29
    5  A    between atoms: N_16  and  C_18
    6  A    between atoms: C_18  and  C_37
    7  A    between atoms: N_21  and  C_40
    8  A    between atoms: C_24  and  C_40
    9  A    between atoms: C_30  and  C_34
   10  A    between atoms: C_36  and  C_39
                            x       y       z     vdW  Elec       q    Type
                         _______ _______ _______ _____ _____    ______ ____

>  <TORSDO>
F 10

$$$$
=
 OpenBabel10232410193D

 41 45  0  0  1  0  0  0  0  0999 V2000
  188.7000  177.1760  138.6700 C   0  0  2  0  0  3  0  0  0  0  0  0
  186.7780  178.4220  134.3460 Cl  0  0  0  0  0  0  0  0  0  0  0  0
  187.2570  177.0930  135.3650 N   0  0  0  0  0  0  0  0  0  0  0  0
  190.5030  176.9840  135.5320 C   0  0  0  0  0  2  0  0  0  0  0  0
  189.3840  176.6660  136.5130 C   0  0  2  0  0  3  0  0  0  0  0  0
  186.3580  177.4440  138.0000 N   0  0  0  0  0  2  0  0  0  0  0  0
  188.2320  177.6290  136.3330 C   0  0  2  0  0  3  0  0  0  0  0  0
  186.1760  176.2150  137.3540 N   0  0  0  0  0  2  0  0  0  0  0  0
  189.8770  176.8390  137.8760 N   0  0  2  0  0  0  0  0  0  0  0  0
  191.7290  175.2410  137.7060 C   0  0  0  0  0  2  0  0  0  0  0  0
  191.4020  175.7800  135.2160 C   0  0  0  0  0  2  0  0  0  0  0  0
  190.3860  175.5580  138.3540 C   0  0  0  0  0  2  0  0  0  0  0  0
  186.0260  176.5280  135.9390 C   0  0  2  0  0  3  0  0  0  0  0  0
  191.5010  174.6950  136.3010 C   0  0  1  0  0  3  0  0  0  0  0  0
  187.7260  177.9020  137.7550 C   0  0  2  0  0  3  0  0  0  0  0  0
  185.9270  173.3900  135.3160 N   0  0  0  0  0  0  0  0  0  0  0  0
  186.4950  174.4680  134.6910 O   0  0  0  0  0  0  0  0  0  0  0  0
  184.8860  174.2240  135.8790 C   0  0  0  0  0  2  0  0  0  0  0  0
  185.4780  175.3520  135.0990 C   0  0  1  0  0  3  0  0  0  0  0  0
  188.1890  173.7900  136.6860 O   0  0  0  0  0  1  0  0  0  0  0  0
  187.5720  171.3000  136.2110 O   0  0  0  0  0  0  0  0  0  0  0  0
  187.0110  172.8490  136.5940 P   0  0  0  0  0  0  0  0  0  0  0  0
  186.2230  172.7900  138.0900 O   0  0  0  0  0  1  0  0  0  0  0  0
  192.5420  173.6400  135.9350 C   0  0  0  0  0  2  0  0  0  0  0  0
  195.1500  174.8570  135.8200 O   0  0  0  0  0  0  0  0  0  0  0  0
  193.5830  173.5380  136.9510 N   0  0  0  0  0  2  0  0  0  0  0  0
  194.8850  174.1090  136.8000 C   0  0  0  0  0  0  0  0  0  0  0  0
  196.1290  173.7620  137.9850 S   0  0  0  0  0  0  0  0  0  0  0  0
  196.8500  175.0330  138.3410 O   0  0  0  0  0  0  0  0  0  0  0  0
  195.4890  173.1890  139.2210 O   0  0  0  0  0  0  0  0  0  0  0  0
  197.2380  172.6110  137.3200 N   0  0  0  0  0  2  0  0  0  0  0  0
  196.5850  171.3090  137.3340 C   0  0  0  0  0  2  0  0  0  0  0  0
  195.6690  170.7600  135.0870 C   0  0  0  0  0  1  0  0  0  0  0  0
  196.8460  170.5830  136.0260 C   0  0  0  0  0  2  0  0  0  0  0  0
  189.1010  178.0670  139.8410 C   0  0  0  0  0  2  0  0  0  0  0  0
  190.2600  175.9870  142.6540 C   0  0  0  0  0  1  0  0  0  0  0  0
  190.1030  177.3420  141.9930 C   0  0  2  0  0  3  0  0  0  0  0  0
  187.2860  177.6270  142.8340 N   0  0  0  0  0  1  0  0  0  0  0  0
  189.4550  178.2660  142.9120 N   0  0  0  0  0  2  0  0  0  0  0  0
  188.2860  178.3050  142.1220 N   0  0  0  0  0  0  0  0  0  0  0  0
  188.8510  177.3630  141.1690 C   0  0  1  0  0  3  0  0  0  0  0  0
  1 35  1  1  0  0  0
  2  3  1  0  0  0  0
  3 13  1  0  0  0  0
  5  4  1  6  0  0  0
  5  9  1  0  0  0  0
  7  3  1  6  0  0  0
  7  5  1  0  0  0  0
  7 15  1  0  0  0  0
  8  6  1  0  0  0  0
  9 12  1  1  0  0  0
  9  1  1  0  0  0  0
 10 12  1  0  0  0  0
 11  4  1  0  0  0  0
 11 14  1  0  0  0  0
 13  8  1  1  0  0  0
 14 24  1  6  0  0  0
 14 10  1  0  0  0  0
 15  6  1  6  0  0  0
 15  1  1  0  0  0  0
 16 18  1  0  0  0  0
 16 22  1  0  0  0  0
 17 19  1  0  0  0  0
 17 16  1  0  0  0  0
 19 18  1  1  0  0  0
 19 13  1  0  0  0  0
 21 22  2  0  0  0  0
 22 20  1  0  0  0  0
 22 23  1  0  0  0  0
 24 26  1  0  0  0  0
 25 27  2  0  0  0  0
 27 26  1  0  0  0  0
 27 28  1  0  0  0  0
 28 29  2  0  0  0  0
 28 30  2  0  0  0  0
 31 32  1  0  0  0  0
 31 28  1  0  0  0  0
 33 34  1  0  0  0  0
 34 32  1  0  0  0  0
 37 36  1  1  0  0  0
 37 39  1  0  0  0  0
 40 38  1  0  0  0  0
 40 39  1  0  0  0  0
 41 35  1  6  0  0  0
 41 37  1  0  0  0  0
 41 40  1  0  0  0  0
M  END
>  <MODEL>
7

>  <REMARK>
 VINA RESULT:      -5.4      4.690      6.816
  Name = 
  10 active torsions:
  status: ('A' for Active; 'I' for Inactive)
    1  A    between atoms: C_1  and  C_30
    2  A    between atoms: S_7  and  N_21
    3  A    between atoms: S_7  and  C_41
    4  A    between atoms: N_10  and  P_29
    5  A    between atoms: N_16  and  C_18
    6  A    between atoms: C_18  and  C_37
    7  A    between atoms: N_21  and  C_40
    8  A    between atoms: C_24  and  C_40
    9  A    between atoms: C_30  and  C_34
   10  A    between atoms: C_36  and  C_39
                            x       y       z     vdW  Elec       q    Type
                         _______ _______ _______ _____ _____    ______ ____

>  <TORSDO>
F 10

$$$$
=
 OpenBabel10232410193D

 41 45  0  0  1  0  0  0  0  0999 V2000
  191.3330  177.6140  140.0710 C   0  0  2  0  0  3  0  0  0  0  0  0
  192.8430  173.5990  137.7180 Cl  0  0  0  0  0  0  0  0  0  0  0  0
  192.2990  175.2430  137.5300 N   0  0  0  0  0  0  0  0  0  0  0  0
  189.1270  175.4080  138.2290 C   0  0  0  0  0  2  0  0  0  0  0  0
  190.3000  176.3580  138.4180 C   0  0  2  0  0  3  0  0  0  0  0  0
  193.5800  176.9620  139.3410 N   0  0  0  0  0  2  0  0  0  0  0  0
  191.5560  175.5880  138.7570 C   0  0  2  0  0  3  0  0  0  0  0  0
  193.4790  177.3140  137.9890 N   0  0  0  0  0  2  0  0  0  0  0  0
  190.0240  177.2440  139.5450 N   0  0  2  0  0  0  0  0  0  0  0  0
  187.9370  178.1770  138.6590 C   0  0  0  0  0  2  0  0  0  0  0  0
  188.0150  175.9770  137.3350 C   0  0  0  0  0  2  0  0  0  0  0  0
  189.3870  178.4550  139.0410 C   0  0  0  0  0  2  0  0  0  0  0  0
  193.4890  176.0590  137.2500 C   0  0  2  0  0  3  0  0  0  0  0  0
  187.8890  177.5090  137.2900 C   0  0  1  0  0  3  0  0  0  0  0  0
  192.2810  176.4590  139.7910 C   0  0  2  0  0  3  0  0  0  0  0  0
  195.4320  175.8340  134.7160 N   0  0  0  0  0  0  0  0  0  0  0  0
  194.9500  176.8800  135.4560 O   0  0  0  0  0  0  0  0  0  0  0  0
  194.2640  175.0360  135.0210 C   0  0  0  0  0  2  0  0  0  0  0  0
  193.7290  176.2360  135.7330 C   0  0  1  0  0  3  0  0  0  0  0  0
  197.9760  176.1570  135.4780 O   0  0  0  0  0  1  0  0  0  0  0  0
  197.3040  173.7430  134.7540 O   0  0  0  0  0  0  0  0  0  0  0  0
  196.8380  175.1660  135.5410 P   0  0  0  0  0  0  0  0  0  0  0  0
  196.4940  174.8080  137.1580 O   0  0  0  0  0  1  0  0  0  0  0  0
  186.6550  177.9400  136.4990 C   0  0  0  0  0  2  0  0  0  0  0  0
  184.5090  176.4190  137.6730 O   0  0  0  0  0  0  0  0  0  0  0  0
  185.6120  178.4610  137.3760 N   0  0  0  0  0  2  0  0  0  0  0  0
  184.5320  177.6650  137.8690 C   0  0  0  0  0  0  0  0  0  0  0  0
  183.2220  178.4280  138.7470 S   0  0  0  0  0  0  0  0  0  0  0  0
  182.3290  179.1570  137.7800 O   0  0  0  0  0  0  0  0  0  0  0  0
  182.4240  177.3720  139.4630 O   0  0  0  0  0  0  0  0  0  0  0  0
  183.8840  179.5360  139.9010 N   0  0  0  0  0  2  0  0  0  0  0  0
  184.8110  178.7930  140.7440 C   0  0  0  0  0  2  0  0  0  0  0  0
  185.3750  178.2700  143.1100 C   0  0  0  0  0  1  0  0  0  0  0  0
  184.2810  178.7270  142.1660 C   0  0  0  0  0  2  0  0  0  0  0  0
  191.2350  177.8760  141.5700 C   0  0  0  0  0  2  0  0  0  0  0  0
  191.7110  175.0930  143.9380 C   0  0  0  0  0  1  0  0  0  0  0  0
  191.3480  176.5370  143.6560 C   0  0  2  0  0  3  0  0  0  0  0  0
  188.6040  175.8680  142.7920 N   0  0  0  0  0  1  0  0  0  0  0  0
  190.0490  176.8400  144.2370 N   0  0  0  0  0  2  0  0  0  0  0  0
  189.4570  176.9690  142.9620 N   0  0  0  0  0  0  0  0  0  0  0  0
  190.7130  176.6470  142.3030 C   0  0  1  0  0  3  0  0  0  0  0  0
  1 35  1  1  0  0  0
  3  2  1  0  0  0  0
  5  4  1  1  0  0  0
  5  7  1  0  0  0  0
  5  9  1  0  0  0  0
  7  3  1  6  0  0  0
  7 15  1  0  0  0  0
  8  6  1  0  0  0  0
  9 12  1  6  0  0  0
  9  1  1  0  0  0  0
 10 12  1  0  0  0  0
 11  4  1  0  0  0  0
 13  3  1  0  0  0  0
 13  8  1  1  0  0  0
 14 24  1  1  0  0  0
 14 11  1  0  0  0  0
 14 10  1  0  0  0  0
 15  6  1  6  0  0  0
 15  1  1  0  0  0  0
 16 18  1  0  0  0  0
 16 17  1  0  0  0  0
 16 22  1  0  0  0  0
 17 19  1  0  0  0  0
 19 18  1  6  0  0  0
 19 13  1  0  0  0  0
 20 22  1  0  0  0  0
 21 22  2  0  0  0  0
 22 23  1  0  0  0  0
 24 26  1  0  0  0  0
 25 27  2  0  0  0  0
 26 27  1  0  0  0  0
 27 28  1  0  0  0  0
 28 30  2  0  0  0  0
 28 31  1  0  0  0  0
 29 28  2  0  0  0  0
 31 32  1  0  0  0  0
 32 34  1  0  0  0  0
 34 33  1  0  0  0  0
 37 36  1  1  0  0  0
 37 39  1  0  0  0  0
 38 40  1  0  0  0  0
 40 39  1  0  0  0  0
 41 35  1  6  0  0  0
 41 40  1  0  0  0  0
 41 37  1  0  0  0  0
M  END
>  <MODEL>
8

>  <REMARK>
 VINA RESULT:      -5.4      5.110      8.565
  Name = 
  10 active torsions:
  status: ('A' for Active; 'I' for Inactive)
    1  A    between atoms: C_1  and  C_30
    2  A    between atoms: S_7  and  N_21
    3  A    between atoms: S_7  and  C_41
    4  A    between atoms: N_10  and  P_29
    5  A    between atoms: N_16  and  C_18
    6  A    between atoms: C_18  and  C_37
    7  A    between atoms: N_21  and  C_40
    8  A    between atoms: C_24  and  C_40
    9  A    between atoms: C_30  and  C_34
   10  A    between atoms: C_36  and  C_39
                            x       y       z     vdW  Elec       q    Type
                         _______ _______ _______ _____ _____    ______ ____

>  <TORSDO>
F 10

$$$$
=
 OpenBabel10232410193D

 41 45  0  0  1  0  0  0  0  0999 V2000
  191.3450  175.2490  136.3150 C   0  0  2  0  0  3  0  0  0  0  0  0
  196.2290  175.0780  136.0680 Cl  0  0  0  0  0  0  0  0  0  0  0  0
  194.8310  174.6270  137.0040 N   0  0  0  0  0  0  0  0  0  0  0  0
  193.5400  177.2910  138.3510 C   0  0  0  0  0  2  0  0  0  0  0  0
  192.9570  175.9950  137.8060 C   0  0  2  0  0  3  0  0  0  0  0  0
  192.8200  173.5280  135.3850 N   0  0  0  0  0  2  0  0  0  0  0  0
  193.7380  175.5300  136.5980 C   0  0  2  0  0  3  0  0  0  0  0  0
  193.1890  172.8910  136.5770 N   0  0  0  0  0  2  0  0  0  0  0  0
  191.5860  176.2330  137.3650 N   0  0  2  0  0  0  0  0  0  0  0  0
  190.7380  177.0450  139.5170 C   0  0  0  0  0  2  0  0  0  0  0  0
  193.2420  177.5180  139.8400 C   0  0  0  0  0  2  0  0  0  0  0  0
  190.6820  175.9380  138.4700 C   0  0  0  0  0  2  0  0  0  0  0  0
  194.6010  173.1940  136.7690 C   0  0  2  0  0  3  0  0  0  0  0  0
  191.9700  176.8550  140.3940 C   0  0  1  0  0  3  0  0  0  0  0  0
  192.6790  174.9600  135.6450 C   0  0  2  0  0  3  0  0  0  0  0  0
  196.1040  170.4820  137.5630 N   0  0  0  0  0  0  0  0  0  0  0  0
  194.8460  170.9750  137.7880 O   0  0  0  0  0  0  0  0  0  0  0  0
  196.6510  171.8200  137.4920 C   0  0  0  0  0  2  0  0  0  0  0  0
  195.2830  172.3120  137.8390 C   0  0  1  0  0  3  0  0  0  0  0  0
  195.1420  168.6070  135.9160 O   0  0  0  0  0  1  0  0  0  0  0  0
  197.6880  169.1250  135.6860 O   0  0  0  0  0  1  0  0  0  0  0  0
  196.1380  169.7410  135.9660 P   0  0  0  0  0  0  0  0  0  0  0  0
  195.7700  170.8640  134.7550 O   0  0  0  0  0  0  0  0  0  0  0  0
  191.7030  177.2860  141.8350 C   0  0  0  0  0  2  0  0  0  0  0  0
  190.2110  178.7470  143.8180 O   0  0  0  0  0  0  0  0  0  0  0  0
  190.3180  177.0410  142.2210 N   0  0  0  0  0  2  0  0  0  0  0  0
  189.6570  177.7580  143.2660 C   0  0  0  0  0  0  0  0  0  0  0  0
  188.0620  177.2550  143.7890 S   0  0  0  0  0  0  0  0  0  0  0  0
  187.0210  178.0960  143.1020 O   0  0  0  0  0  0  0  0  0  0  0  0
  187.8550  175.8090  143.4250 O   0  0  0  0  0  0  0  0  0  0  0  0
  187.9440  177.4430  145.5060 N   0  0  0  0  0  2  0  0  0  0  0  0
  186.5310  177.5540  145.8420 C   0  0  0  0  0  2  0  0  0  0  0  0
  187.4810  178.1500  148.0630 C   0  0  0  0  0  1  0  0  0  0  0  0
  186.3580  178.4160  147.0800 C   0  0  0  0  0  2  0  0  0  0  0  0
  190.3460  175.8010  135.3040 C   0  0  0  0  0  2  0  0  0  0  0  0
  189.0130  172.3680  135.4200 C   0  0  0  0  0  1  0  0  0  0  0  0
  189.2420  173.7170  136.0730 C   0  0  2  0  0  3  0  0  0  0  0  0
  186.9730  174.9830  134.6690 N   0  0  0  0  0  1  0  0  0  0  0  0
  187.9770  174.2490  136.5590 N   0  0  0  0  0  2  0  0  0  0  0  0
  187.9860  175.2780  135.5930 N   0  0  0  0  0  0  0  0  0  0  0  0
  189.2370  174.7930  135.0310 C   0  0  1  0  0  3  0  0  0  0  0  0
  1 35  1  6  0  0  0
  1  9  1  0  0  0  0
  2  3  1  0  0  0  0
  4 11  1  0  0  0  0
  5  4  1  6  0  0  0
  6  8  1  0  0  0  0
  7  3  1  1  0  0  0
  7  5  1  0  0  0  0
  9  5  1  0  0  0  0
  9 12  1  1  0  0  0
 10 14  1  0  0  0  0
 11 14  1  0  0  0  0
 12 10  1  0  0  0  0
 13  8  1  1  0  0  0
 13  3  1  0  0  0  0
 13 19  1  0  0  0  0
 14 24  1  1  0  0  0
 15  6  1  1  0  0  0
 15  1  1  0  0  0  0
 15  7  1  0  0  0  0
 16 17  1  0  0  0  0
 17 19  1  0  0  0  0
 18 16  1  0  0  0  0
 19 18  1  6  0  0  0
 20 22  1  0  0  0  0
 21 22  1  0  0  0  0
 22 16  1  0  0  0  0
 23 22  2  0  0  0  0
 24 26  1  0  0  0  0
 26 27  1  0  0  0  0
 27 28  1  0  0  0  0
 27 25  2  0  0  0  0
 28 31  1  0  0  0  0
 29 28  2  0  0  0  0
 30 28  2  0  0  0  0
 31 32  1  0  0  0  0
 32 34  1  0  0  0  0
 34 33  1  0  0  0  0
 37 36  1  6  0  0  0
 37 39  1  0  0  0  0
 38 40  1  0  0  0  0
 40 39  1  0  0  0  0
 41 35  1  1  0  0  0
 41 40  1  0  0  0  0
 41 37  1  0  0  0  0
M  END
>  <MODEL>
9

>  <REMARK>
 VINA RESULT:      -5.4      5.755      8.086
  Name = 
  10 active torsions:
  status: ('A' for Active; 'I' for Inactive)
    1  A    between atoms: C_1  and  C_30
    2  A    between atoms: S_7  and  N_21
    3  A    between atoms: S_7  and  C_41
    4  A    between atoms: N_10  and  P_29
    5  A    between atoms: N_16  and  C_18
    6  A    between atoms: C_18  and  C_37
    7  A    between atoms: N_21  and  C_40
    8  A    between atoms: C_24  and  C_40
    9  A    between atoms: C_30  and  C_34
   10  A    between atoms: C_36  and  C_39
                            x       y       z     vdW  Elec       q    Type
                         _______ _______ _______ _____ _____    ______ ____

>  <TORSDO>
F 10

$$$$
