=
 OpenBabel10232410393D

 50 55  0  0  1  0  0  0  0  0999 V2000
  189.6920  177.6160  139.2570 C   0  0  0  0  0  0  0  0  0  0  0  0
  188.5700  178.2320  138.8850 C   0  0  0  0  0  3  0  0  0  0  0  0
  190.5590  177.0580  138.2590 N   0  0  0  0  0  2  0  0  0  0  0  0
  189.4640  175.0080  137.9530 O   0  0  0  0  0  0  0  0  0  0  0  0
  190.4560  175.7420  137.7020 C   0  0  0  0  0  0  0  0  0  0  0  0
  191.4950  175.2500  136.8540 N   0  0  0  0  0  2  0  0  0  0  0  0
  192.5720  176.0130  136.5380 O   0  0  0  0  0  0  0  0  0  0  0  0
  193.0020  175.5490  135.2840 C   0  0  1  0  0  0  0  0  0  0  0  0
  194.3010  176.1010  134.9110 N   0  0  0  0  0  2  0  0  0  0  0  0
  194.1820  174.7240  135.4000 C   0  0  2  0  0  0  0  0  0  0  0  0
  192.1530  173.0500  134.9440 O   0  0  0  0  0  0  0  0  0  0  0  0
  192.8390  174.0450  135.1130 C   0  0  0  0  0  0  0  0  0  0  0  0
  195.5740  172.8710  138.1930 C   0  0  0  0  0  2  0  0  0  0  0  0
  194.4520  173.2010  137.2320 C   0  0  0  0  0  2  0  0  0  0  0  0
  196.0700  174.8100  136.8560 C   0  0  0  0  0  2  0  0  0  0  0  0
  196.6460  173.8960  137.9180 C   0  0  2  0  0  3  0  0  0  0  0  0
  194.6270  174.5880  136.8020 N   0  0  1  0  0  0  0  0  0  0  0  0
  197.8480  173.2340  137.4010 C   0  0  0  0  0  0  0  0  0  0  0  0
  198.7990  172.7120  136.9960 N   0  0  0  0  0  0  0  0  0  0  0  0
  188.1580  178.3270  137.4540 C   0  0  0  0  0  2  0  0  0  0  0  0
  186.8690  178.8510  137.3690 O   0  0  0  0  0  0  0  0  0  0  0  0
  186.1700  178.2440  138.4150 C   0  0  0  0  0  2  0  0  0  0  0  0
  184.3180  178.9530  139.9790 C   0  0  1  0  0  3  0  0  0  0  0  0
  184.7720  178.8420  138.5330 C   0  0  2  0  0  3  0  0  0  0  0  0
  183.7750  177.8670  137.9810 C   0  0  0  0  0  2  0  0  0  0  0  0
  183.1790  177.1920  139.2050 C   0  0  0  0  0  2  0  0  0  0  0  0
  183.7800  177.7170  140.3620 O   0  0  0  0  0  0  0  0  0  0  0  0
  185.3970  179.3420  140.8830 N   0  0  0  0  0  2  0  0  0  0  0  0
  186.3400  177.5630  144.0900 C   0  0  1  0  0  3  0  0  0  0  0  0
  185.4630  178.1290  146.3610 C   0  0  0  0  0  1  0  0  0  0  0  0
  184.3980  178.9600  144.3960 O   0  0  0  0  0  0  0  0  0  0  0  0
  185.1810  178.6520  142.1480 C   0  0  2  0  0  3  0  0  0  0  0  0
  184.6360  179.6340  143.1850 C   0  0  0  0  0  2  0  0  0  0  0  0
  185.6550  178.6380  144.9440 C   0  0  2  0  0  3  0  0  0  0  0  0
  186.5020  178.0790  142.6600 C   0  0  0  0  0  2  0  0  0  0  0  0
  187.5850  177.2620  144.6090 F   0  0  0  0  0  0  0  0  0  0  0  0
  190.0570  177.5570  140.6400 N   0  0  0  0  0  2  0  0  0  0  0  0
  191.4260  177.4200  141.1180 C   0  0  0  0  0  2  0  0  0  0  0  0
  190.6470  176.4810  143.1980 N   0  0  0  0  0  0  0  0  0  0  0  0
  191.4260  177.3230  142.6020 C   0  0  0  0  0  3  0  0  0  0  0  0
  190.6720  176.3660  144.5700 O   0  0  0  0  0  0  0  0  0  0  0  0
  191.4020  177.2910  145.3620 C   0  0  0  0  0  2  0  0  0  0  0  0
  191.1810  177.0120  146.8410 C   0  0  2  0  0  3  0  0  0  0  0  0
  192.1850  176.0140  147.3240 C   0  0  0  0  0  0  0  0  0  0  0  0
  192.8680  176.2280  148.5180 O   0  0  0  0  0  1  0  0  0  0  0  0
  192.3820  174.9530  146.6690 O   0  0  0  0  0  0  0  0  0  0  0  0
  189.8850  176.5350  147.0460 O   0  0  0  0  0  0  0  0  0  0  0  0
  189.4030  178.2620  148.6040 C   0  0  0  0  0  2  0  0  0  0  0  0
  189.1050  177.6770  147.2400 C   0  0  0  0  0  3  0  0  0  0  0  0
  188.1510  177.4440  148.3940 C   0  0  0  0  0  2  0  0  0  0  0  0
  1 37  1  0  0  0  0
  2  1  2  0  0  0  0
  3  1  1  0  0  0  0
  5  4  2  0  0  0  0
  5  3  1  0  0  0  0
  6  5  1  0  0  0  0
  7  6  1  0  0  0  0
  8 10  1  0  0  0  0
  8  7  1  1  0  0  0
  9  8  1  0  0  0  0
 10  9  1  6  0  0  0
 10 17  1  0  0  0  0
 11 12  2  0  0  0  0
 12  8  1  0  0  0  0
 12 10  1  0  0  0  0
 14 13  1  0  0  0  0
 15 16  1  0  0  0  0
 16 18  1  6  0  0  0
 16 13  1  0  0  0  0
 17 15  1  6  0  0  0
 17 14  1  0  0  0  0
 19 18  3  0  0  0  0
 20  2  1  0  0  0  0
 21 20  1  0  0  0  0
 21 22  1  0  0  0  0
 23 27  1  0  0  0  0
 23 28  1  1  0  0  0
 24 22  1  1  0  0  0
 24 23  1  0  0  0  0
 25 24  1  0  0  0  0
 25 26  1  0  0  0  0
 26 27  1  0  0  0  0
 29 36  1  1  0  0  0
 29 34  1  0  0  0  0
 31 34  1  0  0  0  0
 32 28  1  6  0  0  0
 32 35  1  0  0  0  0
 32 33  1  0  0  0  0
 33 31  1  0  0  0  0
 34 30  1  1  0  0  0
 35 29  1  0  0  0  0
 37 38  1  0  0  0  0
 38 40  1  0  0  0  0
 39 41  1  0  0  0  0
 40 39  2  0  0  0  0
 41 42  1  0  0  0  0
 43 42  1  6  0  0  0
 43 47  1  0  0  0  0
 43 44  1  0  0  0  0
 44 45  1  0  0  0  0
 46 44  2  0  0  0  0
 47 49  1  0  0  0  0
 49 50  1  0  0  0  0
 49 48  1  0  0  0  0
 50 48  1  0  0  0  0
M  END
>  <MODEL>
1

>  <REMARK>
 VINA RESULT:      -7.6      0.000      0.000
  Name = 
  20 active torsions:
  status: ('A' for Active; 'I' for Inactive)
    1  A    between atoms: N_1  and  O_28
    2  A    between atoms: C_2  and  O_25
    3  A    between atoms: C_6  and  N_48
    4  A    between atoms: C_7  and  C_10
    5  A    between atoms: C_7  and  O_44
    6  A    between atoms: C_8  and  C_41
    7  A    between atoms: N_11  and  C_40
    8  A    between atoms: C_13  and  C_39
    9  A    between atoms: C_14  and  N_45
   10  A    between atoms: C_19  and  C_23
   11  A    between atoms: C_23  and  C_26
   12  A    between atoms: C_23  and  O_27
   13  A    between atoms: C_24  and  O_27
   14  A    between atoms: O_25  and  N_49
   15  A    between atoms: C_26  and  O_28
   16  A    between atoms: N_30  and  C_39
   17  A    between atoms: N_30  and  C_40
   18  A    between atoms: C_31  and  N_48
   19  A    between atoms: C_32  and  C_43
   20  A    between atoms: C_32  and  O_44
                            x       y       z     vdW  Elec       q    Type
                         _______ _______ _______ _____ _____    ______ ____

>  <TORSDO>
F 20

$$$$
=
 OpenBabel10232410393D

 50 55  0  0  1  0  0  0  0  0999 V2000
  189.6100  177.5640  139.3810 C   0  0  0  0  0  0  0  0  0  0  0  0
  189.9810  177.7720  140.6440 C   0  0  0  0  0  3  0  0  0  0  0  0
  189.7820  176.2660  138.7960 N   0  0  0  0  0  2  0  0  0  0  0  0
  192.0490  176.4370  138.2260 O   0  0  0  0  0  0  0  0  0  0  0  0
  190.9750  175.7810  138.1690 C   0  0  0  0  0  0  0  0  0  0  0  0
  190.9500  174.5390  137.4640 N   0  0  0  0  0  2  0  0  0  0  0  0
  189.8230  173.7880  137.3940 O   0  0  0  0  0  0  0  0  0  0  0  0
  189.5940  173.5860  136.0230 C   0  0  1  0  0  0  0  0  0  0  0  0
  188.8790  172.3390  135.7640 N   0  0  0  0  0  2  0  0  0  0  0  0
  188.1840  173.6290  135.7080 C   0  0  2  0  0  0  0  0  0  0  0  0
  189.2040  175.9430  134.8510 O   0  0  0  0  0  0  0  0  0  0  0  0
  189.0600  174.8240  135.3150 C   0  0  0  0  0  0  0  0  0  0  0  0
  185.0760  174.4550  137.3870 C   0  0  0  0  0  2  0  0  0  0  0  0
  186.3010  174.8280  136.5820 C   0  0  0  0  0  2  0  0  0  0  0  0
  186.6460  172.6370  137.2380 C   0  0  0  0  0  2  0  0  0  0  0  0
  185.2820  173.0140  137.7800 C   0  0  2  0  0  3  0  0  0  0  0  0
  187.3570  173.8700  136.9080 N   0  0  1  0  0  0  0  0  0  0  0  0
  184.2540  172.1740  137.1560 C   0  0  0  0  0  0  0  0  0  0  0  0
  183.4440  171.5110  136.6600 N   0  0  0  0  0  0  0  0  0  0  0  0
  190.6140  176.7010  141.4670 C   0  0  0  0  0  2  0  0  0  0  0  0
  191.7820  177.1860  142.0540 O   0  0  0  0  0  0  0  0  0  0  0  0
  191.3790  177.6620  143.3030 C   0  0  0  0  0  2  0  0  0  0  0  0
  189.4770  177.0230  144.8370 C   0  0  1  0  0  3  0  0  0  0  0  0
  190.7190  176.5450  144.1060 C   0  0  2  0  0  3  0  0  0  0  0  0
  191.6140  176.1710  145.2500 C   0  0  0  0  0  2  0  0  0  0  0  0
  191.0140  176.8760  146.4540 C   0  0  0  0  0  2  0  0  0  0  0  0
  189.8800  177.6020  146.0480 O   0  0  0  0  0  0  0  0  0  0  0  0
  188.6900  177.9730  144.0560 N   0  0  0  0  0  2  0  0  0  0  0  0
  185.3460  178.1960  145.8190 C   0  0  1  0  0  3  0  0  0  0  0  0
  183.1590  178.6560  144.7030 C   0  0  0  0  0  1  0  0  0  0  0  0
  185.0720  178.0200  143.4300 O   0  0  0  0  0  0  0  0  0  0  0  0
  187.2830  177.6910  144.3040 C   0  0  2  0  0  3  0  0  0  0  0  0
  186.4280  178.3220  143.2060 C   0  0  0  0  0  2  0  0  0  0  0  0
  184.6670  178.7530  144.5620 C   0  0  2  0  0  3  0  0  0  0  0  0
  186.8650  178.2760  145.6520 C   0  0  0  0  0  2  0  0  0  0  0  0
  184.9720  178.9290  146.9300 F   0  0  0  0  0  0  0  0  0  0  0  0
  188.9940  178.6150  138.6290 N   0  0  0  0  0  2  0  0  0  0  0  0
  188.2970  178.4160  137.3670 C   0  0  0  0  0  2  0  0  0  0  0  0
  186.3720  178.4250  138.8210 N   0  0  0  0  0  0  0  0  0  0  0  0
  186.8330  178.3290  137.6170 C   0  0  0  0  0  3  0  0  0  0  0  0
  185.0150  178.3800  139.0490 O   0  0  0  0  0  0  0  0  0  0  0  0
  184.1140  178.0610  137.9990 C   0  0  0  0  0  2  0  0  0  0  0  0
  182.8790  177.3660  138.5550 C   0  0  2  0  0  3  0  0  0  0  0  0
  182.1370  176.6890  137.4470 C   0  0  0  0  0  0  0  0  0  0  0  0
  181.9630  177.3310  136.2240 O   0  0  0  0  0  0  0  0  0  0  0  0
  181.7030  175.5150  137.6060 O   0  0  0  0  0  1  0  0  0  0  0  0
  182.0570  178.2960  139.1930 O   0  0  0  0  0  0  0  0  0  0  0  0
  180.5300  177.8380  140.9540 C   0  0  0  0  0  2  0  0  0  0  0  0
  181.9790  177.8610  140.5180 C   0  0  0  0  0  3  0  0  0  0  0  0
  181.4260  178.9770  141.3810 C   0  0  0  0  0  2  0  0  0  0  0  0
  1  2  2  0  0  0  0
  2 20  1  0  0  0  0
  3  1  1  0  0  0  0
  5  4  2  0  0  0  0
  5  3  1  0  0  0  0
  6  5  1  0  0  0  0
  7  6  1  0  0  0  0
  8  7  1  1  0  0  0
  9  8  1  0  0  0  0
 10 12  1  6  0  0  0
 10  9  1  0  0  0  0
 10  8  1  0  0  0  0
 10 17  1  0  0  0  0
 11 12  2  0  0  0  0
 12  8  1  0  0  0  0
 13 16  1  0  0  0  0
 14 13  1  0  0  0  0
 15 16  1  0  0  0  0
 16 18  1  6  0  0  0
 17 14  1  6  0  0  0
 17 15  1  0  0  0  0
 19 18  3  0  0  0  0
 20 21  1  0  0  0  0
 21 22  1  0  0  0  0
 23 28  1  6  0  0  0
 23 27  1  0  0  0  0
 24 22  1  1  0  0  0
 24 23  1  0  0  0  0
 24 25  1  0  0  0  0
 25 26  1  0  0  0  0
 27 26  1  0  0  0  0
 29 36  1  1  0  0  0
 31 34  1  0  0  0  0
 32 28  1  6  0  0  0
 32 35  1  0  0  0  0
 33 31  1  0  0  0  0
 33 32  1  0  0  0  0
 34 30  1  1  0  0  0
 34 29  1  0  0  0  0
 35 29  1  0  0  0  0
 37  1  1  0  0  0  0
 38 40  1  0  0  0  0
 38 37  1  0  0  0  0
 39 41  1  0  0  0  0
 40 39  2  0  0  0  0
 42 41  1  0  0  0  0
 43 42  1  6  0  0  0
 43 47  1  0  0  0  0
 44 46  1  0  0  0  0
 44 43  1  0  0  0  0
 45 44  2  0  0  0  0
 47 49  1  0  0  0  0
 48 50  1  0  0  0  0
 49 48  1  0  0  0  0
 49 50  1  0  0  0  0
M  END
>  <MODEL>
2

>  <REMARK>
 VINA RESULT:      -7.5      3.037      8.034
  Name = 
  20 active torsions:
  status: ('A' for Active; 'I' for Inactive)
    1  A    between atoms: N_1  and  O_28
    2  A    between atoms: C_2  and  O_25
    3  A    between atoms: C_6  and  N_48
    4  A    between atoms: C_7  and  C_10
    5  A    between atoms: C_7  and  O_44
    6  A    between atoms: C_8  and  C_41
    7  A    between atoms: N_11  and  C_40
    8  A    between atoms: C_13  and  C_39
    9  A    between atoms: C_14  and  N_45
   10  A    between atoms: C_19  and  C_23
   11  A    between atoms: C_23  and  C_26
   12  A    between atoms: C_23  and  O_27
   13  A    between atoms: C_24  and  O_27
   14  A    between atoms: O_25  and  N_49
   15  A    between atoms: C_26  and  O_28
   16  A    between atoms: N_30  and  C_39
   17  A    between atoms: N_30  and  C_40
   18  A    between atoms: C_31  and  N_48
   19  A    between atoms: C_32  and  C_43
   20  A    between atoms: C_32  and  O_44
                            x       y       z     vdW  Elec       q    Type
                         _______ _______ _______ _____ _____    ______ ____

>  <TORSDO>
F 20

$$$$
=
 OpenBabel10232410393D

 50 55  0  0  1  0  0  0  0  0999 V2000
  189.7940  177.8130  139.3990 C   0  0  0  0  0  0  0  0  0  0  0  0
  188.9170  178.6440  138.8370 C   0  0  0  0  0  3  0  0  0  0  0  0
  190.6910  177.0620  138.5690 N   0  0  0  0  0  2  0  0  0  0  0  0
  192.6390  177.3040  139.8520 O   0  0  0  0  0  0  0  0  0  0  0  0
  192.0980  176.9030  138.7870 C   0  0  0  0  0  0  0  0  0  0  0  0
  192.9040  176.2850  137.7830 N   0  0  0  0  0  2  0  0  0  0  0  0
  192.3630  175.8170  136.6290 O   0  0  0  0  0  0  0  0  0  0  0  0
  192.4140  174.4170  136.7350 C   0  0  1  0  0  0  0  0  0  0  0  0
  191.4650  173.9080  137.7210 N   0  0  0  0  0  2  0  0  0  0  0  0
  191.1830  173.8070  136.2860 C   0  0  2  0  0  0  0  0  0  0  0  0
  192.9690  173.3850  134.3460 O   0  0  0  0  0  0  0  0  0  0  0  0
  192.4190  173.7140  135.3850 C   0  0  0  0  0  0  0  0  0  0  0  0
  188.1100  174.8270  134.6480 C   0  0  0  0  0  2  0  0  0  0  0  0
  189.5420  174.3370  134.6210 C   0  0  0  0  0  2  0  0  0  0  0  0
  189.1270  174.8880  136.8280 C   0  0  0  0  0  2  0  0  0  0  0  0
  187.8270  175.1470  136.0940 C   0  0  2  0  0  3  0  0  0  0  0  0
  190.1980  174.8130  135.8370 N   0  0  1  0  0  0  0  0  0  0  0  0
  186.7840  174.2540  136.6080 C   0  0  0  0  0  0  0  0  0  0  0  0
  185.9600  173.5490  137.0170 N   0  0  0  0  0  0  0  0  0  0  0  0
  188.8040  178.7900  137.3570 C   0  0  0  0  0  2  0  0  0  0  0  0
  187.4810  179.0630  137.0090 O   0  0  0  0  0  0  0  0  0  0  0  0
  186.7180  178.3290  137.9190 C   0  0  0  0  0  2  0  0  0  0  0  0
  184.4170  178.6450  138.9110 C   0  0  1  0  0  3  0  0  0  0  0  0
  185.2310  178.5200  137.6350 C   0  0  2  0  0  3  0  0  0  0  0  0
  184.6790  177.2530  137.0510 C   0  0  0  0  0  2  0  0  0  0  0  0
  183.9830  176.5660  138.2140 C   0  0  0  0  0  2  0  0  0  0  0  0
  184.1240  177.3540  139.3700 O   0  0  0  0  0  0  0  0  0  0  0  0
  185.1040  179.4110  139.9480 N   0  0  0  0  0  2  0  0  0  0  0  0
  186.3450  178.0080  143.2380 C   0  0  1  0  0  3  0  0  0  0  0  0
  185.0780  178.0520  145.3910 C   0  0  0  0  0  1  0  0  0  0  0  0
  183.9820  178.4780  143.3180 O   0  0  0  0  0  0  0  0  0  0  0  0
  185.0560  178.6300  141.1770 C   0  0  2  0  0  3  0  0  0  0  0  0
  184.0490  179.2510  142.1450 C   0  0  0  0  0  2  0  0  0  0  0  0
  185.1950  178.6660  144.0080 C   0  0  2  0  0  3  0  0  0  0  0  0
  186.4330  178.6170  141.8380 C   0  0  0  0  0  2  0  0  0  0  0  0
  187.5420  178.2120  143.8990 F   0  0  0  0  0  0  0  0  0  0  0  0
  189.8780  177.7110  140.8240 N   0  0  0  0  0  2  0  0  0  0  0  0
  189.9290  176.4500  141.5510 C   0  0  0  0  0  2  0  0  0  0  0  0
  190.5530  177.5510  143.6040 N   0  0  0  0  0  0  0  0  0  0  0  0
  190.7880  176.6050  142.7550 C   0  0  0  0  0  3  0  0  0  0  0  0
  191.3260  177.6740  144.7360 O   0  0  0  0  0  0  0  0  0  0  0  0
  191.6150  176.5410  145.5430 C   0  0  0  0  0  2  0  0  0  0  0  0
  191.3460  176.8520  147.0080 C   0  0  2  0  0  3  0  0  0  0  0  0
  192.2610  176.0460  147.8740 C   0  0  0  0  0  0  0  0  0  0  0  0
  193.0210  176.6680  148.8610 O   0  0  0  0  0  1  0  0  0  0  0  0
  192.3140  174.7930  147.7380 O   0  0  0  0  0  0  0  0  0  0  0  0
  190.0130  176.5710  147.3160 O   0  0  0  0  0  0  0  0  0  0  0  0
  188.2120  177.4950  148.5580 C   0  0  0  0  0  2  0  0  0  0  0  0
  189.4930  177.7720  147.8010 C   0  0  0  0  0  3  0  0  0  0  0  0
  188.1510  178.0380  147.1490 C   0  0  0  0  0  2  0  0  0  0  0  0
  1 37  1  0  0  0  0
  2  1  2  0  0  0  0
  3  5  1  0  0  0  0
  3  1  1  0  0  0  0
  5  4  2  0  0  0  0
  6  5  1  0  0  0  0
  7  6  1  0  0  0  0
  8  7  1  6  0  0  0
  8  9  1  0  0  0  0
 10 12  1  6  0  0  0
 10  8  1  0  0  0  0
 10  9  1  0  0  0  0
 11 12  2  0  0  0  0
 12  8  1  0  0  0  0
 13 16  1  0  0  0  0
 14 13  1  0  0  0  0
 16 18  1  1  0  0  0
 16 15  1  0  0  0  0
 17 14  1  6  0  0  0
 17 10  1  0  0  0  0
 17 15  1  0  0  0  0
 18 19  3  0  0  0  0
 20  2  1  0  0  0  0
 21 20  1  0  0  0  0
 21 22  1  0  0  0  0
 23 27  1  0  0  0  0
 23 28  1  1  0  0  0
 24 22  1  1  0  0  0
 24 23  1  0  0  0  0
 25 24  1  0  0  0  0
 25 26  1  0  0  0  0
 26 27  1  0  0  0  0
 29 36  1  1  0  0  0
 29 34  1  0  0  0  0
 31 34  1  0  0  0  0
 32 28  1  6  0  0  0
 32 35  1  0  0  0  0
 32 33  1  0  0  0  0
 33 31  1  0  0  0  0
 34 30  1  1  0  0  0
 35 29  1  0  0  0  0
 37 38  1  0  0  0  0
 38 40  1  0  0  0  0
 39 41  1  0  0  0  0
 40 39  2  0  0  0  0
 41 42  1  0  0  0  0
 43 42  1  6  0  0  0
 43 47  1  0  0  0  0
 43 44  1  0  0  0  0
 44 45  1  0  0  0  0
 46 44  2  0  0  0  0
 47 49  1  0  0  0  0
 49 48  1  0  0  0  0
 50 49  1  0  0  0  0
 50 48  1  0  0  0  0
M  END
>  <MODEL>
3

>  <REMARK>
 VINA RESULT:      -7.2      2.033      3.593
  Name = 
  20 active torsions:
  status: ('A' for Active; 'I' for Inactive)
    1  A    between atoms: N_1  and  O_28
    2  A    between atoms: C_2  and  O_25
    3  A    between atoms: C_6  and  N_48
    4  A    between atoms: C_7  and  C_10
    5  A    between atoms: C_7  and  O_44
    6  A    between atoms: C_8  and  C_41
    7  A    between atoms: N_11  and  C_40
    8  A    between atoms: C_13  and  C_39
    9  A    between atoms: C_14  and  N_45
   10  A    between atoms: C_19  and  C_23
   11  A    between atoms: C_23  and  C_26
   12  A    between atoms: C_23  and  O_27
   13  A    between atoms: C_24  and  O_27
   14  A    between atoms: O_25  and  N_49
   15  A    between atoms: C_26  and  O_28
   16  A    between atoms: N_30  and  C_39
   17  A    between atoms: N_30  and  C_40
   18  A    between atoms: C_31  and  N_48
   19  A    between atoms: C_32  and  C_43
   20  A    between atoms: C_32  and  O_44
                            x       y       z     vdW  Elec       q    Type
                         _______ _______ _______ _____ _____    ______ ____

>  <TORSDO>
F 20

$$$$
=
 OpenBabel10232410393D

 50 55  0  0  1  0  0  0  0  0999 V2000
  190.3160  176.3750  139.0420 C   0  0  0  0  0  0  0  0  0  0  0  0
  189.3950  177.1110  138.4200 C   0  0  0  0  0  3  0  0  0  0  0  0
  190.7080  176.7130  140.3800 N   0  0  0  0  0  2  0  0  0  0  0  0
  192.8400  177.5690  139.9120 O   0  0  0  0  0  0  0  0  0  0  0  0
  191.9870  177.2240  140.7730 C   0  0  0  0  0  0  0  0  0  0  0  0
  192.3060  177.3420  142.1600 N   0  0  0  0  0  2  0  0  0  0  0  0
  191.4120  177.0040  143.1230 O   0  0  0  0  0  0  0  0  0  0  0  0
  191.4620  178.0490  144.0610 C   0  0  1  0  0  0  0  0  0  0  0  0
  190.6200  179.1760  143.6710 N   0  0  0  0  0  2  0  0  0  0  0  0
  190.1860  178.2380  144.7120 C   0  0  2  0  0  0  0  0  0  0  0  0
  191.7520  177.0170  146.4970 O   0  0  0  0  0  0  0  0  0  0  0  0
  191.3190  177.5710  145.4990 C   0  0  0  0  0  0  0  0  0  0  0  0
  186.7720  177.1020  144.2480 C   0  0  0  0  0  2  0  0  0  0  0  0
  188.0010  177.3320  145.1000 C   0  0  0  0  0  2  0  0  0  0  0  0
  188.6730  177.7640  142.9290 C   0  0  0  0  0  2  0  0  0  0  0  0
  187.2000  177.4240  142.8380 C   0  0  2  0  0  3  0  0  0  0  0  0
  189.1680  177.2880  144.2200 N   0  0  1  0  0  0  0  0  0  0  0  0
  186.4540  178.5850  142.3430 C   0  0  0  0  0  0  0  0  0  0  0  0
  185.8630  179.5010  141.9510 N   0  0  0  0  0  0  0  0  0  0  0  0
  188.7820  178.3130  139.0570 C   0  0  0  0  0  2  0  0  0  0  0  0
  187.7350  178.7840  138.2660 O   0  0  0  0  0  0  0  0  0  0  0  0
  186.9030  177.6780  138.0850 C   0  0  0  0  0  2  0  0  0  0  0  0
  186.2190  176.3140  136.0710 C   0  0  1  0  0  3  0  0  0  0  0  0
  186.2910  177.7010  136.6880 C   0  0  2  0  0  3  0  0  0  0  0  0
  187.2350  178.3950  135.7520 C   0  0  0  0  0  2  0  0  0  0  0  0
  187.9410  177.2710  135.0140 C   0  0  0  0  0  2  0  0  0  0  0  0
  187.4600  176.0350  135.4820 O   0  0  0  0  0  0  0  0  0  0  0  0
  185.8730  175.2800  137.0430 N   0  0  0  0  0  2  0  0  0  0  0  0
  183.3830  172.4410  136.7660 C   0  0  1  0  0  3  0  0  0  0  0  0
  180.9000  172.7060  136.6810 C   0  0  0  0  0  1  0  0  0  0  0  0
  182.3430  174.5700  136.3200 O   0  0  0  0  0  0  0  0  0  0  0  0
  184.7360  174.5400  136.5130 C   0  0  2  0  0  3  0  0  0  0  0  0
  183.4380  175.2690  136.8600 C   0  0  0  0  0  2  0  0  0  0  0  0
  182.2070  173.3790  137.0600 C   0  0  2  0  0  3  0  0  0  0  0  0
  184.6940  173.1410  137.1270 C   0  0  0  0  0  2  0  0  0  0  0  0
  183.2680  171.2810  137.5090 F   0  0  0  0  0  0  0  0  0  0  0  0
  190.8700  175.2230  138.4000 N   0  0  0  0  0  2  0  0  0  0  0  0
  190.2910  174.5830  137.2280 C   0  0  0  0  0  2  0  0  0  0  0  0
  192.5300  173.7400  136.9260 N   0  0  0  0  0  0  0  0  0  0  0  0
  191.3740  173.9830  136.4030 C   0  0  0  0  0  3  0  0  0  0  0  0
  193.5220  173.1530  136.1720 O   0  0  0  0  0  0  0  0  0  0  0  0
  194.5650  173.9360  135.6110 C   0  0  0  0  0  2  0  0  0  0  0  0
  194.7960  175.1870  136.4470 C   0  0  2  0  0  3  0  0  0  0  0  0
  194.4850  176.4040  135.6350 C   0  0  0  0  0  0  0  0  0  0  0  0
  195.3120  177.5210  135.7000 O   0  0  0  0  0  1  0  0  0  0  0  0
  193.4930  176.4020  134.8550 O   0  0  0  0  0  0  0  0  0  0  0  0
  196.1190  175.2250  136.8910 O   0  0  0  0  0  0  0  0  0  0  0  0
  195.6980  174.4120  139.0830 C   0  0  0  0  0  2  0  0  0  0  0  0
  196.2570  174.1030  137.7110 C   0  0  0  0  0  3  0  0  0  0  0  0
  197.1920  174.4300  138.8570 C   0  0  0  0  0  2  0  0  0  0  0  0
  1  3  1  0  0  0  0
  2  1  2  0  0  0  0
  2 20  1  0  0  0  0
  3  5  1  0  0  0  0
  4  5  2  0  0  0  0
  5  6  1  0  0  0  0
  6  7  1  0  0  0  0
  8  7  1  6  0  0  0
  8 10  1  0  0  0  0
  8 12  1  0  0  0  0
  9  8  1  0  0  0  0
 10  9  1  1  0  0  0
 10 12  1  0  0  0  0
 12 11  2  0  0  0  0
 13 14  1  0  0  0  0
 16 18  1  1  0  0  0
 16 15  1  0  0  0  0
 16 13  1  0  0  0  0
 17 15  1  6  0  0  0
 17 10  1  0  0  0  0
 17 14  1  0  0  0  0
 19 18  3  0  0  0  0
 21 20  1  0  0  0  0
 22 21  1  0  0  0  0
 23 24  1  0  0  0  0
 23 28  1  1  0  0  0
 24 22  1  1  0  0  0
 25 24  1  0  0  0  0
 26 27  1  0  0  0  0
 26 25  1  0  0  0  0
 27 23  1  0  0  0  0
 29 34  1  0  0  0  0
 29 35  1  0  0  0  0
 29 36  1  1  0  0  0
 31 33  1  0  0  0  0
 31 34  1  0  0  0  0
 32 33  1  0  0  0  0
 32 28  1  1  0  0  0
 32 35  1  0  0  0  0
 34 30  1  6  0  0  0
 37  1  1  0  0  0  0
 38 37  1  0  0  0  0
 40 39  2  0  0  0  0
 40 38  1  0  0  0  0
 41 39  1  0  0  0  0
 42 41  1  0  0  0  0
 43 42  1  6  0  0  0
 43 47  1  0  0  0  0
 44 45  1  0  0  0  0
 44 43  1  0  0  0  0
 46 44  2  0  0  0  0
 47 49  1  0  0  0  0
 49 50  1  0  0  0  0
 49 48  1  0  0  0  0
 50 48  1  0  0  0  0
M  END
>  <MODEL>
4

>  <REMARK>
 VINA RESULT:      -7.1      2.944      9.053
  Name = 
  20 active torsions:
  status: ('A' for Active; 'I' for Inactive)
    1  A    between atoms: N_1  and  O_28
    2  A    between atoms: C_2  and  O_25
    3  A    between atoms: C_6  and  N_48
    4  A    between atoms: C_7  and  C_10
    5  A    between atoms: C_7  and  O_44
    6  A    between atoms: C_8  and  C_41
    7  A    between atoms: N_11  and  C_40
    8  A    between atoms: C_13  and  C_39
    9  A    between atoms: C_14  and  N_45
   10  A    between atoms: C_19  and  C_23
   11  A    between atoms: C_23  and  C_26
   12  A    between atoms: C_23  and  O_27
   13  A    between atoms: C_24  and  O_27
   14  A    between atoms: O_25  and  N_49
   15  A    between atoms: C_26  and  O_28
   16  A    between atoms: N_30  and  C_39
   17  A    between atoms: N_30  and  C_40
   18  A    between atoms: C_31  and  N_48
   19  A    between atoms: C_32  and  C_43
   20  A    between atoms: C_32  and  O_44
                            x       y       z     vdW  Elec       q    Type
                         _______ _______ _______ _____ _____    ______ ____

>  <TORSDO>
F 20

$$$$
=
 OpenBabel10232410393D

 50 55  0  0  1  0  0  0  0  0999 V2000
  190.3510  176.2870  138.5940 C   0  0  0  0  0  0  0  0  0  0  0  0
  189.7340  177.1520  137.7900 C   0  0  0  0  0  3  0  0  0  0  0  0
  190.5830  176.6350  139.9660 N   0  0  0  0  0  2  0  0  0  0  0  0
  192.8550  177.1900  139.8060 O   0  0  0  0  0  0  0  0  0  0  0  0
  191.8460  176.9980  140.5350 C   0  0  0  0  0  0  0  0  0  0  0  0
  191.9690  177.1400  141.9510 N   0  0  0  0  0  2  0  0  0  0  0  0
  190.9060  176.9640  142.7760 O   0  0  0  0  0  0  0  0  0  0  0  0
  190.2870  178.2230  142.8600 C   0  0  1  0  0  0  0  0  0  0  0  0
  188.8330  178.1150  142.9330 N   0  0  0  0  0  2  0  0  0  0  0  0
  189.6270  178.4050  144.1320 C   0  0  2  0  0  0  0  0  0  0  0  0
  191.8560  179.8710  144.2400 O   0  0  0  0  0  0  0  0  0  0  0  0
  190.9430  179.1470  143.8770 C   0  0  0  0  0  0  0  0  0  0  0  0
  190.5760  176.7580  147.2220 C   0  0  0  0  0  2  0  0  0  0  0  0
  190.9080  177.4240  145.9050 C   0  0  0  0  0  2  0  0  0  0  0  0
  188.6110  177.1520  145.8900 C   0  0  0  0  0  2  0  0  0  0  0  0
  189.0740  176.6180  147.2300 C   0  0  2  0  0  3  0  0  0  0  0  0
  189.7720  177.2230  145.0050 N   0  0  1  0  0  0  0  0  0  0  0  0
  188.5020  177.4300  148.3090 C   0  0  0  0  0  0  0  0  0  0  0  0
  188.0530  178.0690  149.1640 N   0  0  0  0  0  0  0  0  0  0  0  0
  189.3080  178.5030  138.2610 C   0  0  0  0  0  2  0  0  0  0  0  0
  188.1430  178.8870  137.5980 O   0  0  0  0  0  0  0  0  0  0  0  0
  187.2520  177.8330  137.8090 C   0  0  0  0  0  2  0  0  0  0  0  0
  184.8300  178.3080  138.3480 C   0  0  1  0  0  3  0  0  0  0  0  0
  185.8760  178.1860  137.2530 C   0  0  2  0  0  3  0  0  0  0  0  0
  185.3520  177.0200  136.4680 C   0  0  0  0  0  2  0  0  0  0  0  0
  184.3780  176.3310  137.4090 C   0  0  0  0  0  2  0  0  0  0  0  0
  184.3450  177.0240  138.6310 O   0  0  0  0  0  0  0  0  0  0  0  0
  185.3510  178.9340  139.5600 N   0  0  0  0  0  2  0  0  0  0  0  0
  184.4330  178.3780  143.1920 C   0  0  1  0  0  3  0  0  0  0  0  0
  182.1600  178.7220  144.1710 C   0  0  0  0  0  1  0  0  0  0  0  0
  182.4680  178.5920  141.8110 O   0  0  0  0  0  0  0  0  0  0  0  0
  184.5830  178.4210  140.6870 C   0  0  2  0  0  3  0  0  0  0  0  0
  183.2210  179.1120  140.7410 C   0  0  0  0  0  2  0  0  0  0  0  0
  183.0680  179.0500  143.0000 C   0  0  2  0  0  3  0  0  0  0  0  0
  185.3280  178.6950  141.9930 C   0  0  0  0  0  2  0  0  0  0  0  0
  185.0370  178.8430  144.3450 F   0  0  0  0  0  0  0  0  0  0  0  0
  190.7320  174.9960  138.1060 N   0  0  0  0  0  2  0  0  0  0  0  0
  190.2300  174.4090  136.8720 C   0  0  0  0  0  2  0  0  0  0  0  0
  192.2230  173.2490  136.1630 N   0  0  0  0  0  0  0  0  0  0  0  0
  191.3620  174.1850  135.9330 C   0  0  0  0  0  3  0  0  0  0  0  0
  193.2510  173.0190  135.2760 O   0  0  0  0  0  0  0  0  0  0  0  0
  194.5670  173.4700  135.5600 C   0  0  0  0  0  2  0  0  0  0  0  0
  194.8420  173.3940  137.0550 C   0  0  2  0  0  3  0  0  0  0  0  0
  194.9190  174.7740  137.6270 C   0  0  0  0  0  0  0  0  0  0  0  0
  195.2900  174.9640  138.9550 O   0  0  0  0  0  1  0  0  0  0  0  0
  194.6900  175.7730  136.8900 O   0  0  0  0  0  0  0  0  0  0  0  0
  196.0340  172.7050  137.2860 O   0  0  0  0  0  0  0  0  0  0  0  0
  195.3740  170.5130  137.9200 C   0  0  0  0  0  2  0  0  0  0  0  0
  195.8110  171.4200  136.7890 C   0  0  0  0  0  3  0  0  0  0  0  0
  196.7980  170.4590  137.4190 C   0  0  0  0  0  2  0  0  0  0  0  0
  1  3  1  0  0  0  0
  2 20  1  0  0  0  0
  2  1  2  0  0  0  0
  3  5  1  0  0  0  0
  4  5  2  0  0  0  0
  5  6  1  0  0  0  0
  6  7  1  0  0  0  0
  8  7  1  6  0  0  0
  8  9  1  0  0  0  0
  8 12  1  0  0  0  0
  8 10  1  0  0  0  0
 10  9  1  1  0  0  0
 10 17  1  0  0  0  0
 12 10  1  0  0  0  0
 12 11  2  0  0  0  0
 13 16  1  0  0  0  0
 14 13  1  0  0  0  0
 15 16  1  0  0  0  0
 16 18  1  1  0  0  0
 17 15  1  1  0  0  0
 17 14  1  0  0  0  0
 18 19  3  0  0  0  0
 21 22  1  0  0  0  0
 21 20  1  0  0  0  0
 23 27  1  0  0  0  0
 23 28  1  1  0  0  0
 24 22  1  1  0  0  0
 24 23  1  0  0  0  0
 25 24  1  0  0  0  0
 25 26  1  0  0  0  0
 26 27  1  0  0  0  0
 29 36  1  1  0  0  0
 31 34  1  0  0  0  0
 32 28  1  6  0  0  0
 32 33  1  0  0  0  0
 32 35  1  0  0  0  0
 33 31  1  0  0  0  0
 34 29  1  0  0  0  0
 34 30  1  1  0  0  0
 35 29  1  0  0  0  0
 37  1  1  0  0  0  0
 38 37  1  0  0  0  0
 40 39  2  0  0  0  0
 40 38  1  0  0  0  0
 41 42  1  0  0  0  0
 41 39  1  0  0  0  0
 43 42  1  6  0  0  0
 43 47  1  0  0  0  0
 43 44  1  0  0  0  0
 44 45  1  0  0  0  0
 46 44  2  0  0  0  0
 49 47  1  0  0  0  0
 49 50  1  0  0  0  0
 49 48  1  0  0  0  0
 50 48  1  0  0  0  0
M  END
>  <MODEL>
5

>  <REMARK>
 VINA RESULT:      -7.1      2.358      8.326
  Name = 
  20 active torsions:
  status: ('A' for Active; 'I' for Inactive)
    1  A    between atoms: N_1  and  O_28
    2  A    between atoms: C_2  and  O_25
    3  A    between atoms: C_6  and  N_48
    4  A    between atoms: C_7  and  C_10
    5  A    between atoms: C_7  and  O_44
    6  A    between atoms: C_8  and  C_41
    7  A    between atoms: N_11  and  C_40
    8  A    between atoms: C_13  and  C_39
    9  A    between atoms: C_14  and  N_45
   10  A    between atoms: C_19  and  C_23
   11  A    between atoms: C_23  and  C_26
   12  A    between atoms: C_23  and  O_27
   13  A    between atoms: C_24  and  O_27
   14  A    between atoms: O_25  and  N_49
   15  A    between atoms: C_26  and  O_28
   16  A    between atoms: N_30  and  C_39
   17  A    between atoms: N_30  and  C_40
   18  A    between atoms: C_31  and  N_48
   19  A    between atoms: C_32  and  C_43
   20  A    between atoms: C_32  and  O_44
                            x       y       z     vdW  Elec       q    Type
                         _______ _______ _______ _____ _____    ______ ____

>  <TORSDO>
F 20

$$$$
=
 OpenBabel10232410393D

 50 55  0  0  1  0  0  0  0  0999 V2000
  190.0770  177.2400  139.1720 C   0  0  0  0  0  0  0  0  0  0  0  0
  189.2140  178.2160  138.8910 C   0  0  0  0  0  3  0  0  0  0  0  0
  190.8010  176.6060  138.1070 N   0  0  0  0  0  2  0  0  0  0  0  0
  189.1540  175.0820  137.4260 O   0  0  0  0  0  0  0  0  0  0  0  0
  190.3400  175.4960  137.3270 C   0  0  0  0  0  0  0  0  0  0  0  0
  191.2360  174.8450  136.4250 N   0  0  0  0  0  2  0  0  0  0  0  0
  192.5150  175.2700  136.2680 O   0  0  0  0  0  0  0  0  0  0  0  0
  192.9610  174.6760  135.0760 C   0  0  1  0  0  0  0  0  0  0  0  0
  194.0720  175.4110  134.4790 N   0  0  0  0  0  2  0  0  0  0  0  0
  194.3050  174.1620  135.2090 C   0  0  2  0  0  0  0  0  0  0  0  0
  192.6910  172.0360  135.2660 O   0  0  0  0  0  0  0  0  0  0  0  0
  193.1390  173.1680  135.1860 C   0  0  0  0  0  0  0  0  0  0  0  0
  196.3440  173.2760  138.0770 C   0  0  0  0  0  2  0  0  0  0  0  0
  195.1180  173.1120  137.2060 C   0  0  0  0  0  2  0  0  0  0  0  0
  196.1730  175.0160  136.4240 C   0  0  0  0  0  2  0  0  0  0  0  0
  197.0530  174.4940  137.5400 C   0  0  2  0  0  3  0  0  0  0  0  0
  194.8550  174.3980  136.5600 N   0  0  1  0  0  0  0  0  0  0  0  0
  198.3620  174.1110  136.9990 C   0  0  0  0  0  0  0  0  0  0  0  0
  199.3940  173.8100  136.5680 N   0  0  0  0  0  0  0  0  0  0  0  0
  188.9400  178.6490  137.4890 C   0  0  0  0  0  2  0  0  0  0  0  0
  187.6080  179.0450  137.3700 O   0  0  0  0  0  0  0  0  0  0  0  0
  186.8730  177.9570  137.8450 C   0  0  0  0  0  2  0  0  0  0  0  0
  184.3570  177.8620  137.6360 C   0  0  1  0  0  3  0  0  0  0  0  0
  185.6870  177.6800  136.9250 C   0  0  2  0  0  3  0  0  0  0  0  0
  185.6540  176.2160  136.5990 C   0  0  0  0  0  2  0  0  0  0  0  0
  184.5900  175.6420  137.5190 C   0  0  0  0  0  2  0  0  0  0  0  0
  184.0600  176.6720  138.3150 O   0  0  0  0  0  0  0  0  0  0  0  0
  184.3600  178.9900  138.5630 N   0  0  0  0  0  2  0  0  0  0  0  0
  184.4920  178.6230  142.3300 C   0  0  1  0  0  3  0  0  0  0  0  0
  182.5240  178.7800  143.8610 C   0  0  0  0  0  1  0  0  0  0  0  0
  182.2270  178.4990  141.5130 O   0  0  0  0  0  0  0  0  0  0  0  0
  183.9840  178.4830  139.8760 C   0  0  2  0  0  3  0  0  0  0  0  0
  182.6030  179.0150  140.2590 C   0  0  0  0  0  2  0  0  0  0  0  0
  183.0480  179.1160  142.4770 C   0  0  2  0  0  3  0  0  0  0  0  0
  184.9970  178.9440  140.9220 C   0  0  0  0  0  2  0  0  0  0  0  0
  185.3070  179.2450  143.2580 F   0  0  0  0  0  0  0  0  0  0  0  0
  190.3200  176.8620  140.5310 N   0  0  0  0  0  2  0  0  0  0  0  0
  191.4840  177.2800  141.2980 C   0  0  0  0  0  2  0  0  0  0  0  0
  190.1680  178.2970  143.0440 N   0  0  0  0  0  0  0  0  0  0  0  0
  191.1000  177.4620  142.7230 C   0  0  0  0  0  3  0  0  0  0  0  0
  189.7870  178.4410  144.3590 O   0  0  0  0  0  0  0  0  0  0  0  0
  189.2450  177.3440  145.0810 C   0  0  0  0  0  2  0  0  0  0  0  0
  188.5860  177.8280  146.3630 C   0  0  2  0  0  3  0  0  0  0  0  0
  189.4300  177.4550  147.5400 C   0  0  0  0  0  0  0  0  0  0  0  0
  189.2340  178.0770  148.7700 O   0  0  0  0  0  1  0  0  0  0  0  0
  190.2950  176.5420  147.4290 O   0  0  0  0  0  0  0  0  0  0  0  0
  187.3120  177.2690  146.4830 O   0  0  0  0  0  0  0  0  0  0  0  0
  185.9660  179.1630  146.9790 C   0  0  0  0  0  2  0  0  0  0  0  0
  186.4500  178.2070  145.9100 C   0  0  0  0  0  3  0  0  0  0  0  0
  185.0660  178.0470  146.5050 C   0  0  0  0  0  2  0  0  0  0  0  0
  1 37  1  0  0  0  0
  2  1  2  0  0  0  0
  3  1  1  0  0  0  0
  5  4  2  0  0  0  0
  5  3  1  0  0  0  0
  6  5  1  0  0  0  0
  7  6  1  0  0  0  0
  8 12  1  0  0  0  0
  8 10  1  0  0  0  0
  8  7  1  1  0  0  0
  9  8  1  0  0  0  0
 10  9  1  6  0  0  0
 10 17  1  0  0  0  0
 12 10  1  0  0  0  0
 12 11  2  0  0  0  0
 14 13  1  0  0  0  0
 15 16  1  0  0  0  0
 16 18  1  6  0  0  0
 16 13  1  0  0  0  0
 17 15  1  6  0  0  0
 17 14  1  0  0  0  0
 19 18  3  0  0  0  0
 20  2  1  0  0  0  0
 21 20  1  0  0  0  0
 21 22  1  0  0  0  0
 23 27  1  0  0  0  0
 23 28  1  1  0  0  0
 24 23  1  0  0  0  0
 24 22  1  1  0  0  0
 25 24  1  0  0  0  0
 25 26  1  0  0  0  0
 26 27  1  0  0  0  0
 29 34  1  0  0  0  0
 29 36  1  1  0  0  0
 31 34  1  0  0  0  0
 32 28  1  6  0  0  0
 32 33  1  0  0  0  0
 32 35  1  0  0  0  0
 33 31  1  0  0  0  0
 34 30  1  1  0  0  0
 35 29  1  0  0  0  0
 37 38  1  0  0  0  0
 38 40  1  0  0  0  0
 39 41  1  0  0  0  0
 40 39  2  0  0  0  0
 41 42  1  0  0  0  0
 43 42  1  6  0  0  0
 43 47  1  0  0  0  0
 43 44  1  0  0  0  0
 44 45  1  0  0  0  0
 46 44  2  0  0  0  0
 49 47  1  0  0  0  0
 49 50  1  0  0  0  0
 49 48  1  0  0  0  0
 50 48  1  0  0  0  0
M  END
>  <MODEL>
6

>  <REMARK>
 VINA RESULT:      -6.9      1.512      2.191
  Name = 
  20 active torsions:
  status: ('A' for Active; 'I' for Inactive)
    1  A    between atoms: N_1  and  O_28
    2  A    between atoms: C_2  and  O_25
    3  A    between atoms: C_6  and  N_48
    4  A    between atoms: C_7  and  C_10
    5  A    between atoms: C_7  and  O_44
    6  A    between atoms: C_8  and  C_41
    7  A    between atoms: N_11  and  C_40
    8  A    between atoms: C_13  and  C_39
    9  A    between atoms: C_14  and  N_45
   10  A    between atoms: C_19  and  C_23
   11  A    between atoms: C_23  and  C_26
   12  A    between atoms: C_23  and  O_27
   13  A    between atoms: C_24  and  O_27
   14  A    between atoms: O_25  and  N_49
   15  A    between atoms: C_26  and  O_28
   16  A    between atoms: N_30  and  C_39
   17  A    between atoms: N_30  and  C_40
   18  A    between atoms: C_31  and  N_48
   19  A    between atoms: C_32  and  C_43
   20  A    between atoms: C_32  and  O_44
                            x       y       z     vdW  Elec       q    Type
                         _______ _______ _______ _____ _____    ______ ____

>  <TORSDO>
F 20

$$$$
=
 OpenBabel10232410393D

 50 55  0  0  1  0  0  0  0  0999 V2000
  184.8790  178.7120  142.0230 C   0  0  0  0  0  0  0  0  0  0  0  0
  185.8270  178.8230  141.0930 C   0  0  0  0  0  3  0  0  0  0  0  0
  185.2370  178.7710  143.4110 N   0  0  0  0  0  2  0  0  0  0  0  0
  183.1110  179.2050  144.3010 O   0  0  0  0  0  0  0  0  0  0  0  0
  184.3520  179.0940  144.4900 C   0  0  0  0  0  0  0  0  0  0  0  0
  184.8800  179.3000  145.8010 N   0  0  0  0  0  2  0  0  0  0  0  0
  186.2070  179.1700  146.0580 O   0  0  0  0  0  0  0  0  0  0  0  0
  186.3270  177.9870  146.8070 C   0  0  1  0  0  0  0  0  0  0  0  0
  186.2920  176.7970  145.9620 N   0  0  0  0  0  2  0  0  0  0  0  0
  187.5590  177.2930  146.5090 C   0  0  2  0  0  0  0  0  0  0  0  0
  187.9150  178.4390  148.8940 O   0  0  0  0  0  0  0  0  0  0  0  0
  187.4440  178.0430  147.8410 C   0  0  0  0  0  0  0  0  0  0  0  0
  190.6390  177.9910  144.7230 C   0  0  0  0  0  2  0  0  0  0  0  0
  189.7530  178.0790  145.9460 C   0  0  0  0  0  2  0  0  0  0  0  0
  188.4120  177.1920  144.2830 C   0  0  0  0  0  2  0  0  0  0  0  0
  189.7760  177.3740  143.6500 C   0  0  2  0  0  3  0  0  0  0  0  0
  188.3640  178.0060  145.4960 N   0  0  1  0  0  0  0  0  0  0  0  0
  190.3190  176.0690  143.2620 C   0  0  0  0  0  0  0  0  0  0  0  0
  190.7510  175.0390  142.9540 N   0  0  0  0  0  0  0  0  0  0  0  0
  187.2690  178.9650  141.4490 C   0  0  0  0  0  2  0  0  0  0  0  0
  188.0010  177.9260  140.8760 O   0  0  0  0  0  0  0  0  0  0  0  0
  188.4350  178.4330  139.6500 C   0  0  0  0  0  2  0  0  0  0  0  0
  189.1690  177.3720  137.4780 C   0  0  1  0  0  3  0  0  0  0  0  0
  188.0700  177.4720  138.5220 C   0  0  2  0  0  3  0  0  0  0  0  0
  186.9490  178.0630  137.7210 C   0  0  0  0  0  2  0  0  0  0  0  0
  187.6230  178.6510  136.4920 C   0  0  0  0  0  2  0  0  0  0  0  0
  189.0090  178.4320  136.5750 O   0  0  0  0  0  0  0  0  0  0  0  0
  190.5080  177.3970  138.0600 N   0  0  0  0  0  2  0  0  0  0  0  0
  190.9100  173.8530  136.7890 C   0  0  1  0  0  3  0  0  0  0  0  0
  193.0920  172.7460  136.2770 C   0  0  0  0  0  1  0  0  0  0  0  0
  193.0100  174.7560  137.5570 O   0  0  0  0  0  0  0  0  0  0  0  0
  191.0340  176.0390  138.0160 C   0  0  2  0  0  3  0  0  0  0  0  0
  192.4950  176.0660  137.5680 C   0  0  0  0  0  2  0  0  0  0  0  0
  192.3960  174.0790  136.4860 C   0  0  2  0  0  3  0  0  0  0  0  0
  190.2290  175.2020  137.0230 C   0  0  0  0  0  2  0  0  0  0  0  0
  190.2970  173.2110  135.7300 F   0  0  0  0  0  0  0  0  0  0  0  0
  183.5050  178.5880  141.6400 N   0  0  0  0  0  2  0  0  0  0  0  0
  183.0410  178.5620  140.2600 C   0  0  0  0  0  2  0  0  0  0  0  0
  183.2360  176.5750  138.9060 N   0  0  0  0  0  0  0  0  0  0  0  0
  182.6550  177.1730  139.8930 C   0  0  0  0  0  3  0  0  0  0  0  0
  182.9040  175.2770  138.5890 O   0  0  0  0  0  0  0  0  0  0  0  0
  182.4950  174.9360  137.2720 C   0  0  0  0  0  2  0  0  0  0  0  0
  183.3350  173.7830  136.7400 C   0  0  2  0  0  3  0  0  0  0  0  0
  182.5440  172.5140  136.7910 C   0  0  0  0  0  0  0  0  0  0  0  0
  181.2900  172.4450  136.1900 O   0  0  0  0  0  0  0  0  0  0  0  0
  183.0340  171.4900  137.3430 O   0  0  0  0  0  1  0  0  0  0  0  0
  184.5030  173.6580  137.4950 O   0  0  0  0  0  0  0  0  0  0  0  0
  186.7300  172.8880  137.1920 C   0  0  0  0  0  2  0  0  0  0  0  0
  185.5310  173.5590  136.5550 C   0  0  0  0  0  3  0  0  0  0  0  0
  186.7130  174.3890  137.0150 C   0  0  0  0  0  2  0  0  0  0  0  0
  1  3  1  0  0  0  0
  2 20  1  0  0  0  0
  2  1  2  0  0  0  0
  3  5  1  0  0  0  0
  4  5  2  0  0  0  0
  5  6  1  0  0  0  0
  6  7  1  0  0  0  0
  8  7  1  6  0  0  0
  8 12  1  0  0  0  0
  9  8  1  0  0  0  0
 10  9  1  1  0  0  0
 10  8  1  0  0  0  0
 10 12  1  0  0  0  0
 12 11  2  0  0  0  0
 13 14  1  0  0  0  0
 16 18  1  1  0  0  0
 16 15  1  0  0  0  0
 16 13  1  0  0  0  0
 17 15  1  6  0  0  0
 17 14  1  0  0  0  0
 17 10  1  0  0  0  0
 19 18  3  0  0  0  0
 21 20  1  0  0  0  0
 22 21  1  0  0  0  0
 23 28  1  1  0  0  0
 23 24  1  0  0  0  0
 24 22  1  1  0  0  0
 25 24  1  0  0  0  0
 26 27  1  0  0  0  0
 26 25  1  0  0  0  0
 27 23  1  0  0  0  0
 29 36  1  6  0  0  0
 29 35  1  0  0  0  0
 31 33  1  0  0  0  0
 32 28  1  6  0  0  0
 33 32  1  0  0  0  0
 34 30  1  1  0  0  0
 34 29  1  0  0  0  0
 34 31  1  0  0  0  0
 35 32  1  0  0  0  0
 37  1  1  0  0  0  0
 38 37  1  0  0  0  0
 39 40  2  0  0  0  0
 40 38  1  0  0  0  0
 41 39  1  0  0  0  0
 42 41  1  0  0  0  0
 43 44  1  0  0  0  0
 43 42  1  1  0  0  0
 43 47  1  0  0  0  0
 44 46  1  0  0  0  0
 45 44  2  0  0  0  0
 49 50  1  0  0  0  0
 49 48  1  0  0  0  0
 49 47  1  0  0  0  0
 50 48  1  0  0  0  0
M  END
>  <MODEL>
7

>  <REMARK>
 VINA RESULT:      -6.8      3.342     10.376
  Name = 
  20 active torsions:
  status: ('A' for Active; 'I' for Inactive)
    1  A    between atoms: N_1  and  O_28
    2  A    between atoms: C_2  and  O_25
    3  A    between atoms: C_6  and  N_48
    4  A    between atoms: C_7  and  C_10
    5  A    between atoms: C_7  and  O_44
    6  A    between atoms: C_8  and  C_41
    7  A    between atoms: N_11  and  C_40
    8  A    between atoms: C_13  and  C_39
    9  A    between atoms: C_14  and  N_45
   10  A    between atoms: C_19  and  C_23
   11  A    between atoms: C_23  and  C_26
   12  A    between atoms: C_23  and  O_27
   13  A    between atoms: C_24  and  O_27
   14  A    between atoms: O_25  and  N_49
   15  A    between atoms: C_26  and  O_28
   16  A    between atoms: N_30  and  C_39
   17  A    between atoms: N_30  and  C_40
   18  A    between atoms: C_31  and  N_48
   19  A    between atoms: C_32  and  C_43
   20  A    between atoms: C_32  and  O_44
                            x       y       z     vdW  Elec       q    Type
                         _______ _______ _______ _____ _____    ______ ____

>  <TORSDO>
F 20

$$$$
=
 OpenBabel10232410393D

 50 55  0  0  1  0  0  0  0  0999 V2000
  183.6220  178.3910  141.1330 C   0  0  0  0  0  0  0  0  0  0  0  0
  182.3770  178.0900  140.7620 C   0  0  0  0  0  3  0  0  0  0  0  0
  184.7050  178.1800  140.2170 N   0  0  0  0  0  2  0  0  0  0  0  0
  186.3080  179.5400  141.2550 O   0  0  0  0  0  0  0  0  0  0  0  0
  185.9830  178.8260  140.2690 C   0  0  0  0  0  0  0  0  0  0  0  0
  186.9020  178.6640  139.1890 N   0  0  0  0  0  2  0  0  0  0  0  0
  186.6050  177.8870  138.1160 O   0  0  0  0  0  0  0  0  0  0  0  0
  187.1200  178.5750  137.0040 C   0  0  1  0  0  0  0  0  0  0  0  0
  188.4190  179.1790  137.2870 N   0  0  0  0  0  2  0  0  0  0  0  0
  188.3190  177.9450  136.5010 C   0  0  2  0  0  0  0  0  0  0  0  0
  186.3770  177.3130  134.7830 O   0  0  0  0  0  0  0  0  0  0  0  0
  187.0180  177.7810  135.7090 C   0  0  0  0  0  0  0  0  0  0  0  0
  190.2620  174.9420  137.1120 C   0  0  0  0  0  2  0  0  0  0  0  0
  189.1810  175.7110  136.3840 C   0  0  0  0  0  2  0  0  0  0  0  0
  189.8380  177.0820  138.1270 C   0  0  0  0  0  2  0  0  0  0  0  0
  190.7190  175.8540  138.2230 C   0  0  2  0  0  3  0  0  0  0  0  0
  188.6890  176.7500  137.2870 N   0  0  1  0  0  0  0  0  0  0  0  0
  192.1200  176.2330  138.0140 C   0  0  0  0  0  0  0  0  0  0  0  0
  193.2260  176.5310  137.8440 N   0  0  0  0  0  0  0  0  0  0  0  0
  182.0730  177.4960  139.4270 C   0  0  0  0  0  2  0  0  0  0  0  0
  181.7500  176.1470  139.5740 O   0  0  0  0  0  0  0  0  0  0  0  0
  181.0430  175.8250  138.4140 C   0  0  0  0  0  2  0  0  0  0  0  0
  182.0610  174.4810  136.5330 C   0  0  1  0  0  3  0  0  0  0  0  0
  181.4440  174.4380  137.9200 C   0  0  2  0  0  3  0  0  0  0  0  0
  180.2050  173.6310  137.6720 C   0  0  0  0  0  2  0  0  0  0  0  0
  180.0010  173.6930  136.1670 C   0  0  0  0  0  2  0  0  0  0  0  0
  181.0210  174.4730  135.5940 O   0  0  0  0  0  0  0  0  0  0  0  0
  182.9200  175.6450  136.3310 N   0  0  0  0  0  2  0  0  0  0  0  0
  185.9630  173.5460  137.1510 C   0  0  1  0  0  3  0  0  0  0  0  0
  187.3270  172.2770  135.4860 C   0  0  0  0  0  1  0  0  0  0  0  0
  185.7900  173.9580  134.7820 O   0  0  0  0  0  0  0  0  0  0  0  0
  184.2910  175.1670  136.2140 C   0  0  2  0  0  3  0  0  0  0  0  0
  184.4570  174.3910  134.9080 C   0  0  0  0  0  2  0  0  0  0  0  0
  185.9880  172.9460  135.7410 C   0  0  2  0  0  3  0  0  0  0  0  0
  184.6190  174.2390  137.3830 C   0  0  0  0  0  2  0  0  0  0  0  0
  186.1310  172.5530  138.0980 F   0  0  0  0  0  0  0  0  0  0  0  0
  183.8700  178.9700  142.4180 N   0  0  0  0  0  2  0  0  0  0  0  0
  182.9080  178.9740  143.5120 C   0  0  0  0  0  2  0  0  0  0  0  0
  184.1550  179.1900  145.5650 N   0  0  0  0  0  0  0  0  0  0  0  0
  183.5450  178.4120  144.7330 C   0  0  0  0  0  3  0  0  0  0  0  0
  184.7140  178.6750  146.7130 O   0  0  0  0  0  0  0  0  0  0  0  0
  186.0480  178.9990  147.0780 C   0  0  0  0  0  2  0  0  0  0  0  0
  186.9940  177.8800  146.6670 C   0  0  2  0  0  3  0  0  0  0  0  0
  188.1210  177.7840  147.6460 C   0  0  0  0  0  0  0  0  0  0  0  0
  189.4370  177.9240  147.2170 O   0  0  0  0  0  0  0  0  0  0  0  0
  187.8750  177.6170  148.8730 O   0  0  0  0  0  1  0  0  0  0  0  0
  187.4860  178.1210  145.3830 O   0  0  0  0  0  0  0  0  0  0  0  0
  188.6100  176.5590  143.9900 C   0  0  0  0  0  2  0  0  0  0  0  0
  187.3210  176.9140  144.7000 C   0  0  0  0  0  3  0  0  0  0  0  0
  187.4620  177.1570  143.2110 C   0  0  0  0  0  2  0  0  0  0  0  0
  1 37  1  0  0  0  0
  2  1  2  0  0  0  0
  3  5  1  0  0  0  0
  3  1  1  0  0  0  0
  5  4  2  0  0  0  0
  6  5  1  0  0  0  0
  7  6  1  0  0  0  0
  8  9  1  0  0  0  0
  8  7  1  1  0  0  0
 10 12  1  6  0  0  0
 10  8  1  0  0  0  0
 10  9  1  0  0  0  0
 10 17  1  0  0  0  0
 11 12  2  0  0  0  0
 12  8  1  0  0  0  0
 13 16  1  0  0  0  0
 14 13  1  0  0  0  0
 15 16  1  0  0  0  0
 16 18  1  6  0  0  0
 17 14  1  6  0  0  0
 17 15  1  0  0  0  0
 19 18  3  0  0  0  0
 20 21  1  0  0  0  0
 20  2  1  0  0  0  0
 22 21  1  0  0  0  0
 23 28  1  1  0  0  0
 23 24  1  0  0  0  0
 24 22  1  6  0  0  0
 25 24  1  0  0  0  0
 26 25  1  0  0  0  0
 27 26  1  0  0  0  0
 27 23  1  0  0  0  0
 29 35  1  0  0  0  0
 29 36  1  1  0  0  0
 31 33  1  0  0  0  0
 31 34  1  0  0  0  0
 32 28  1  1  0  0  0
 32 35  1  0  0  0  0
 33 32  1  0  0  0  0
 34 30  1  6  0  0  0
 34 29  1  0  0  0  0
 37 38  1  0  0  0  0
 38 40  1  0  0  0  0
 39 41  1  0  0  0  0
 40 39  2  0  0  0  0
 41 42  1  0  0  0  0
 43 42  1  1  0  0  0
 43 44  1  0  0  0  0
 44 46  1  0  0  0  0
 45 44  2  0  0  0  0
 47 43  1  0  0  0  0
 48 49  1  0  0  0  0
 49 47  1  0  0  0  0
 50 48  1  0  0  0  0
 50 49  1  0  0  0  0
M  END
>  <MODEL>
8

>  <REMARK>
 VINA RESULT:      -6.8      3.513      6.824
  Name = 
  20 active torsions:
  status: ('A' for Active; 'I' for Inactive)
    1  A    between atoms: N_1  and  O_28
    2  A    between atoms: C_2  and  O_25
    3  A    between atoms: C_6  and  N_48
    4  A    between atoms: C_7  and  C_10
    5  A    between atoms: C_7  and  O_44
    6  A    between atoms: C_8  and  C_41
    7  A    between atoms: N_11  and  C_40
    8  A    between atoms: C_13  and  C_39
    9  A    between atoms: C_14  and  N_45
   10  A    between atoms: C_19  and  C_23
   11  A    between atoms: C_23  and  C_26
   12  A    between atoms: C_23  and  O_27
   13  A    between atoms: C_24  and  O_27
   14  A    between atoms: O_25  and  N_49
   15  A    between atoms: C_26  and  O_28
   16  A    between atoms: N_30  and  C_39
   17  A    between atoms: N_30  and  C_40
   18  A    between atoms: C_31  and  N_48
   19  A    between atoms: C_32  and  C_43
   20  A    between atoms: C_32  and  O_44
                            x       y       z     vdW  Elec       q    Type
                         _______ _______ _______ _____ _____    ______ ____

>  <TORSDO>
F 20

$$$$
=
 OpenBabel10232410393D

 50 55  0  0  1  0  0  0  0  0999 V2000
  189.9920  176.5140  138.7980 C   0  0  0  0  0  0  0  0  0  0  0  0
  190.4720  176.4990  140.0410 C   0  0  0  0  0  3  0  0  0  0  0  0
  188.6350  176.9170  138.5660 N   0  0  0  0  0  2  0  0  0  0  0  0
  188.9870  179.2270  138.3690 O   0  0  0  0  0  0  0  0  0  0  0  0
  188.1740  178.2670  138.4390 C   0  0  0  0  0  0  0  0  0  0  0  0
  186.7710  178.5350  138.3960 N   0  0  0  0  0  2  0  0  0  0  0  0
  185.8580  177.5320  138.4470 O   0  0  0  0  0  0  0  0  0  0  0  0
  185.1050  177.6550  137.2670 C   0  0  1  0  0  0  0  0  0  0  0  0
  185.8300  177.1600  136.1000 N   0  0  0  0  0  2  0  0  0  0  0  0
  184.7670  176.3620  136.7170 C   0  0  2  0  0  0  0  0  0  0  0  0
  182.5310  177.2960  137.8370 O   0  0  0  0  0  0  0  0  0  0  0  0
  183.6700  177.1700  137.4180 C   0  0  0  0  0  0  0  0  0  0  0  0
  184.9760  172.8810  137.7200 C   0  0  0  0  0  2  0  0  0  0  0  0
  184.2770  174.2220  137.6820 C   0  0  0  0  0  2  0  0  0  0  0  0
  186.3780  174.6030  136.7920 C   0  0  0  0  0  2  0  0  0  0  0  0
  186.3310  173.1210  137.1020 C   0  0  2  0  0  3  0  0  0  0  0  0
  185.3020  175.2550  137.5360 N   0  0  1  0  0  0  0  0  0  0  0  0
  186.4560  172.3530  135.8590 C   0  0  0  0  0  0  0  0  0  0  0  0
  186.5580  171.7470  134.8770 N   0  0  0  0  0  0  0  0  0  0  0  0
  189.6240  176.8500  141.2190 C   0  0  0  0  0  2  0  0  0  0  0  0
  190.0420  178.0680  141.7530 O   0  0  0  0  0  0  0  0  0  0  0  0
  190.9490  177.7220  142.7560 C   0  0  0  0  0  2  0  0  0  0  0  0
  189.7500  176.9290  144.8330 C   0  0  1  0  0  3  0  0  0  0  0  0
  190.4350  176.5190  143.5410 C   0  0  2  0  0  3  0  0  0  0  0  0
  191.6060  175.7370  144.0590 C   0  0  0  0  0  2  0  0  0  0  0  0
  191.7330  176.1540  145.5140 C   0  0  0  0  0  2  0  0  0  0  0  0
  190.7360  177.1000  145.8140 O   0  0  0  0  0  0  0  0  0  0  0  0
  188.9580  178.1480  144.6920 N   0  0  0  0  0  2  0  0  0  0  0  0
  185.4230  178.0510  146.0480 C   0  0  1  0  0  3  0  0  0  0  0  0
  183.3560  178.4700  144.7090 C   0  0  0  0  0  1  0  0  0  0  0  0
  185.4410  178.0400  143.6370 O   0  0  0  0  0  0  0  0  0  0  0  0
  187.5520  177.7690  144.7480 C   0  0  2  0  0  3  0  0  0  0  0  0
  186.7920  178.4320  143.5990 C   0  0  0  0  0  2  0  0  0  0  0  0
  184.8610  178.6620  144.7590 C   0  0  2  0  0  3  0  0  0  0  0  0
  186.9420  178.2280  146.0720 C   0  0  0  0  0  2  0  0  0  0  0  0
  184.8750  178.6750  147.1520 F   0  0  0  0  0  0  0  0  0  0  0  0
  190.8420  176.1810  137.6950 N   0  0  0  0  0  2  0  0  0  0  0  0
  190.5600  175.1210  136.7380 C   0  0  0  0  0  2  0  0  0  0  0  0
  192.9150  174.6660  136.9880 N   0  0  0  0  0  0  0  0  0  0  0  0
  191.8370  174.4990  136.2960 C   0  0  0  0  0  3  0  0  0  0  0  0
  194.0890  174.0620  136.5990 O   0  0  0  0  0  0  0  0  0  0  0  0
  195.3390  174.5190  137.0950 C   0  0  0  0  0  2  0  0  0  0  0  0
  195.5780  173.9850  138.5000 C   0  0  2  0  0  3  0  0  0  0  0  0
  196.7570  174.6730  139.1100 C   0  0  0  0  0  0  0  0  0  0  0  0
  197.7320  175.2470  138.2990 O   0  0  0  0  0  0  0  0  0  0  0  0
  196.8480  174.7710  140.3650 O   0  0  0  0  0  1  0  0  0  0  0  0
  195.7900  172.6060  138.4540 O   0  0  0  0  0  0  0  0  0  0  0  0
  195.9780  171.0390  136.6790 C   0  0  0  0  0  2  0  0  0  0  0  0
  196.4210  172.3770  137.2300 C   0  0  0  0  0  3  0  0  0  0  0  0
  197.3260  171.1680  137.3490 C   0  0  0  0  0  2  0  0  0  0  0  0
  1  2  2  0  0  0  0
  2 20  1  0  0  0  0
  3  1  1  0  0  0  0
  4  5  2  0  0  0  0
  5  3  1  0  0  0  0
  6  5  1  0  0  0  0
  6  7  1  0  0  0  0
  8 12  1  0  0  0  0
  8  7  1  1  0  0  0
  9  8  1  0  0  0  0
 10  9  1  6  0  0  0
 10  8  1  0  0  0  0
 10 12  1  0  0  0  0
 10 17  1  0  0  0  0
 12 11  2  0  0  0  0
 14 13  1  0  0  0  0
 15 16  1  0  0  0  0
 16 18  1  6  0  0  0
 16 13  1  0  0  0  0
 17 15  1  6  0  0  0
 17 14  1  0  0  0  0
 19 18  3  0  0  0  0
 20 21  1  0  0  0  0
 21 22  1  0  0  0  0
 23 28  1  6  0  0  0
 23 27  1  0  0  0  0
 24 22  1  1  0  0  0
 24 25  1  0  0  0  0
 24 23  1  0  0  0  0
 25 26  1  0  0  0  0
 26 27  1  0  0  0  0
 29 35  1  0  0  0  0
 29 36  1  1  0  0  0
 31 34  1  0  0  0  0
 32 28  1  1  0  0  0
 32 35  1  0  0  0  0
 33 31  1  0  0  0  0
 33 32  1  0  0  0  0
 34 30  1  6  0  0  0
 34 29  1  0  0  0  0
 37  1  1  0  0  0  0
 38 37  1  0  0  0  0
 40 38  1  0  0  0  0
 40 39  2  0  0  0  0
 41 39  1  0  0  0  0
 41 42  1  0  0  0  0
 43 42  1  6  0  0  0
 43 44  1  0  0  0  0
 44 46  1  0  0  0  0
 45 44  2  0  0  0  0
 47 43  1  0  0  0  0
 48 49  1  0  0  0  0
 48 50  1  0  0  0  0
 49 50  1  0  0  0  0
 49 47  1  0  0  0  0
M  END
>  <MODEL>
9

>  <REMARK>
 VINA RESULT:      -6.7      2.939      8.303
  Name = 
  20 active torsions:
  status: ('A' for Active; 'I' for Inactive)
    1  A    between atoms: N_1  and  O_28
    2  A    between atoms: C_2  and  O_25
    3  A    between atoms: C_6  and  N_48
    4  A    between atoms: C_7  and  C_10
    5  A    between atoms: C_7  and  O_44
    6  A    between atoms: C_8  and  C_41
    7  A    between atoms: N_11  and  C_40
    8  A    between atoms: C_13  and  C_39
    9  A    between atoms: C_14  and  N_45
   10  A    between atoms: C_19  and  C_23
   11  A    between atoms: C_23  and  C_26
   12  A    between atoms: C_23  and  O_27
   13  A    between atoms: C_24  and  O_27
   14  A    between atoms: O_25  and  N_49
   15  A    between atoms: C_26  and  O_28
   16  A    between atoms: N_30  and  C_39
   17  A    between atoms: N_30  and  C_40
   18  A    between atoms: C_31  and  N_48
   19  A    between atoms: C_32  and  C_43
   20  A    between atoms: C_32  and  O_44
                            x       y       z     vdW  Elec       q    Type
                         _______ _______ _______ _____ _____    ______ ____

>  <TORSDO>
F 20

$$$$
