=
 OpenBabel10232412403D

 37 39  0  0  1  0  0  0  0  0999 V2000
  185.8210  178.9850  141.7190 C   0  0  0  0  0  0  0  0  0  0  0  0
  189.5080  177.5510  143.2340 C   0  0  1  0  0  3  0  0  0  0  0  0
  185.7540  179.6300  140.6360 O   0  0  0  0  0  0  0  0  0  0  0  0
  188.1580  177.4540  143.9430 C   0  0  0  0  0  2  0  0  0  0  0  0
  189.4960  178.7840  142.3310 C   0  0  0  0  0  2  0  0  0  0  0  0
  187.0740  178.3900  142.1060 N   0  0  0  0  0  0  0  0  0  0  0  0
  187.0930  177.2690  142.9600 N   0  0  0  0  0  2  0  0  0  0  0  0
  188.2960  178.7620  141.3840 C   0  0  2  0  0  3  0  0  0  0  0  0
  188.7330  176.5460  137.3790 C   0  0  0  0  0  0  0  0  0  0  0  0
  187.6330  177.8910  139.1790 C   0  0  0  0  0  3  0  0  0  0  0  0
  187.6480  177.0610  137.9580 C   0  0  0  0  0  3  0  0  0  0  0  0
  188.5330  177.8960  140.1780 C   0  0  0  0  0  0  0  0  0  0  0  0
  188.5350  175.5560  135.9490 Cl  0  0  0  0  0  0  0  0  0  0  0  0
  190.3500  176.4560  139.2390 C   0  0  0  0  0  3  0  0  0  0  0  0
  190.1150  176.8810  137.8300 C   0  0  0  0  0  2  0  0  0  0  0  0
  189.6610  176.9450  140.2700 C   0  0  0  0  0  3  0  0  0  0  0  0
  183.3530  178.6800  141.9590 C   0  0  0  0  0  3  0  0  0  0  0  0
  183.4920  178.9270  144.7150 C   0  0  0  0  0  3  0  0  0  0  0  0
  182.2710  178.7210  144.0720 C   0  0  0  0  0  3  0  0  0  0  0  0
  182.2270  178.6030  142.7190 N   0  0  0  0  0  0  0  0  0  0  0  0
  184.6050  178.8770  142.5600 C   0  0  0  0  0  0  0  0  0  0  0  0
  184.6580  179.0070  143.9530 C   0  0  0  0  0  3  0  0  0  0  0  0
  190.6560  177.6100  144.2490 C   0  0  2  0  0  3  0  0  0  0  0  0
  191.9250  179.4360  144.3350 C   0  0  0  0  0  1  0  0  0  0  0  0
  191.7840  178.2140  143.6730 O   0  0  0  0  0  0  0  0  0  0  0  0
  191.5340  175.3710  143.6530 N   0  0  0  0  0  1  0  0  0  0  0  0
  191.0020  176.1920  144.7300 C   0  0  1  0  0  3  0  0  0  0  0  0
  191.9080  176.1540  145.9630 C   0  0  0  0  0  2  0  0  0  0  0  0
  192.0050  177.0780  148.1640 O   0  0  0  0  0  0  0  0  0  0  0  0
  191.2770  176.7210  147.2020 C   0  0  0  0  0  0  0  0  0  0  0  0
  189.8890  176.8360  147.3220 O   0  0  0  0  0  0  0  0  0  0  0  0
  189.2430  178.0450  147.7040 C   0  0  2  0  0  3  0  0  0  0  0  0
  189.8730  178.6030  148.8030 F   0  0  0  0  0  0  0  0  0  0  0  0
  187.8090  177.7730  148.0270 C   0  0  0  0  0  0  0  0  0  0  0  0
  187.4960  177.3640  149.1330 O   0  0  0  0  0  0  0  0  0  0  0  0
  186.7560  177.9760  146.9910 C   0  0  0  0  0  2  0  0  0  0  0  0
  186.0100  179.1190  147.2880 O   0  0  0  0  0  1  0  0  0  0  0  0
  1  6  1  0  0  0  0
  1 21  1  0  0  0  0
  2  4  1  0  0  0  0
  2 23  1  1  0  0  0
  3  1  2  0  0  0  0
  5  2  1  0  0  0  0
  6  7  1  0  0  0  0
  7  4  1  0  0  0  0
  8 12  1  6  0  0  0
  8  6  1  0  0  0  0
  8  5  1  0  0  0  0
  9 15  1  0  0  0  0
  9 11  2  0  0  0  0
 10 12  2  0  0  0  0
 11 10  1  0  0  0  0
 12 16  1  0  0  0  0
 13  9  1  0  0  0  0
 14 16  2  0  0  0  0
 15 14  1  0  0  0  0
 17 21  2  0  0  0  0
 17 20  1  0  0  0  0
 19 18  1  0  0  0  0
 20 19  2  0  0  0  0
 21 22  1  0  0  0  0
 22 18  2  0  0  0  0
 23 25  1  6  0  0  0
 23 27  1  0  0  0  0
 25 24  1  0  0  0  0
 27 26  1  6  0  0  0
 27 28  1  0  0  0  0
 28 30  1  0  0  0  0
 30 31  1  0  0  0  0
 30 29  2  0  0  0  0
 31 32  1  0  0  0  0
 32 34  1  0  0  0  0
 32 33  1  1  0  0  0
 34 35  2  0  0  0  0
 36 37  1  0  0  0  0
 36 34  1  0  0  0  0
M  END
>  <MODEL>
1

>  <REMARK>
 VINA RESULT:      -8.4      0.000      0.000
  Name = 
  11 active torsions:
  status: ('A' for Active; 'I' for Inactive)
    1  A    between atoms: C_5  and  C_30
    2  A    between atoms: C_8  and  C_31
    3  A    between atoms: C_8  and  C_36
    4  A    between atoms: O_10  and  C_32
    5  A    between atoms: C_11  and  O_13
    6  A    between atoms: C_11  and  C_30
    7  A    between atoms: C_12  and  C_14
    8  A    between atoms: O_13  and  C_31
    9  A    between atoms: C_16  and  C_35
   10  A    between atoms: C_18  and  C_32
   11  A    between atoms: C_32  and  C_36
                            x       y       z     vdW  Elec       q    Type
                         _______ _______ _______ _____ _____    ______ ____

>  <TORSDO>
F 11

$$$$
=
 OpenBabel10232412403D

 37 39  0  0  1  0  0  0  0  0999 V2000
  192.8940  176.5630  138.6310 C   0  0  0  0  0  0  0  0  0  0  0  0
  188.6730  176.5450  138.2690 C   0  0  1  0  0  3  0  0  0  0  0  0
  193.4990  177.4380  139.3100 O   0  0  0  0  0  0  0  0  0  0  0  0
  189.6310  175.6010  137.5440 C   0  0  0  0  0  2  0  0  0  0  0  0
  189.3980  177.8640  138.5360 C   0  0  0  0  0  2  0  0  0  0  0  0
  191.4550  176.5140  138.6700 N   0  0  0  0  0  0  0  0  0  0  0  0
  190.7790  175.3070  138.3980 N   0  0  0  0  0  2  0  0  0  0  0  0
  190.7160  177.6290  139.2740 C   0  0  2  0  0  3  0  0  0  0  0  0
  189.6200  176.7740  143.6570 C   0  0  0  0  0  0  0  0  0  0  0  0
  189.2760  177.3890  141.2560 C   0  0  0  0  0  3  0  0  0  0  0  0
  188.8810  177.2940  142.6760 C   0  0  0  0  0  3  0  0  0  0  0  0
  190.5220  177.4500  140.7540 C   0  0  0  0  0  0  0  0  0  0  0  0
  188.9830  176.7850  145.2860 Cl  0  0  0  0  0  0  0  0  0  0  0  0
  191.9150  176.9860  142.7780 C   0  0  0  0  0  3  0  0  0  0  0  0
  190.9120  176.0740  143.3990 C   0  0  0  0  0  2  0  0  0  0  0  0
  191.7380  177.5580  141.5880 C   0  0  0  0  0  3  0  0  0  0  0  0
  193.7160  175.7650  136.4110 C   0  0  0  0  0  3  0  0  0  0  0  0
  195.1260  173.6820  137.5730 C   0  0  0  0  0  3  0  0  0  0  0  0
  195.1250  173.8670  136.1900 C   0  0  0  0  0  3  0  0  0  0  0  0
  194.4260  174.8960  135.6420 N   0  0  0  0  0  0  0  0  0  0  0  0
  193.6920  175.6250  137.8060 C   0  0  0  0  0  0  0  0  0  0  0  0
  194.4040  174.5640  138.3790 C   0  0  0  0  0  3  0  0  0  0  0  0
  187.3950  176.7640  137.4500 C   0  0  2  0  0  3  0  0  0  0  0  0
  186.7400  175.8510  135.5290 C   0  0  0  0  0  1  0  0  0  0  0  0
  187.6840  176.7210  136.0780 O   0  0  0  0  0  0  0  0  0  0  0  0
  187.0290  179.1280  136.8060 N   0  0  0  0  0  1  0  0  0  0  0  0
  186.7640  178.1150  137.8160 C   0  0  1  0  0  3  0  0  0  0  0  0
  185.2730  178.0390  138.1540 C   0  0  0  0  0  2  0  0  0  0  0  0
  184.5310  180.1160  139.0720 O   0  0  0  0  0  0  0  0  0  0  0  0
  184.8590  178.9210  139.2960 C   0  0  0  0  0  0  0  0  0  0  0  0
  184.8570  178.4520  140.6120 O   0  0  0  0  0  0  0  0  0  0  0  0
  185.2550  179.2510  141.7190 C   0  0  2  0  0  3  0  0  0  0  0  0
  186.6320  179.3980  141.7390 F   0  0  0  0  0  0  0  0  0  0  0  0
  184.7970  178.6160  142.9940 C   0  0  0  0  0  0  0  0  0  0  0  0
  185.5360  177.8610  143.6030 O   0  0  0  0  0  0  0  0  0  0  0  0
  183.4250  178.8830  143.5130 C   0  0  0  0  0  2  0  0  0  0  0  0
  183.4360  178.8850  144.9090 O   0  0  0  0  0  1  0  0  0  0  0  0
  1  6  1  0  0  0  0
  1  3  2  0  0  0  0
  2 23  1  6  0  0  0
  2  5  1  0  0  0  0
  4  2  1  0  0  0  0
  4  7  1  0  0  0  0
  5  8  1  0  0  0  0
  6  8  1  0  0  0  0
  7  6  1  0  0  0  0
  8 12  1  1  0  0  0
  9 13  1  0  0  0  0
 10 11  1  0  0  0  0
 11  9  2  0  0  0  0
 12 10  2  0  0  0  0
 12 16  1  0  0  0  0
 14 15  1  0  0  0  0
 15  9  1  0  0  0  0
 16 14  2  0  0  0  0
 17 21  1  0  0  0  0
 18 22  1  0  0  0  0
 19 18  2  0  0  0  0
 20 19  1  0  0  0  0
 20 17  2  0  0  0  0
 21 22  2  0  0  0  0
 21  1  1  0  0  0  0
 23 25  1  6  0  0  0
 23 27  1  0  0  0  0
 24 25  1  0  0  0  0
 27 26  1  6  0  0  0
 27 28  1  0  0  0  0
 28 30  1  0  0  0  0
 29 30  2  0  0  0  0
 30 31  1  0  0  0  0
 31 32  1  0  0  0  0
 32 33  1  1  0  0  0
 32 34  1  0  0  0  0
 34 36  1  0  0  0  0
 34 35  2  0  0  0  0
 36 37  1  0  0  0  0
M  END
>  <MODEL>
2

>  <REMARK>
 VINA RESULT:      -8.0      4.003      8.494
  Name = 
  11 active torsions:
  status: ('A' for Active; 'I' for Inactive)
    1  A    between atoms: C_5  and  C_30
    2  A    between atoms: C_8  and  C_31
    3  A    between atoms: C_8  and  C_36
    4  A    between atoms: O_10  and  C_32
    5  A    between atoms: C_11  and  O_13
    6  A    between atoms: C_11  and  C_30
    7  A    between atoms: C_12  and  C_14
    8  A    between atoms: O_13  and  C_31
    9  A    between atoms: C_16  and  C_35
   10  A    between atoms: C_18  and  C_32
   11  A    between atoms: C_32  and  C_36
                            x       y       z     vdW  Elec       q    Type
                         _______ _______ _______ _____ _____    ______ ____

>  <TORSDO>
F 11

$$$$
=
 OpenBabel10232412403D

 37 39  0  0  1  0  0  0  0  0999 V2000
  185.4470  177.7300  137.8050 C   0  0  0  0  0  0  0  0  0  0  0  0
  183.9500  178.8240  141.6150 C   0  0  1  0  0  3  0  0  0  0  0  0
  184.7010  177.2310  136.9170 O   0  0  0  0  0  0  0  0  0  0  0  0
  185.4160  178.8790  141.1860 C   0  0  0  0  0  2  0  0  0  0  0  0
  183.2530  177.7160  140.8240 C   0  0  0  0  0  2  0  0  0  0  0  0
  184.8560  178.2250  139.0210 N   0  0  0  0  0  0  0  0  0  0  0  0
  185.5060  179.2270  139.7700 N   0  0  0  0  0  2  0  0  0  0  0  0
  183.4550  177.9030  139.3200 C   0  0  2  0  0  3  0  0  0  0  0  0
  181.0250  181.3180  137.4290 C   0  0  0  0  0  0  0  0  0  0  0  0
  182.7610  180.2190  138.8570 C   0  0  0  0  0  3  0  0  0  0  0  0
  181.9170  181.3490  138.4190 C   0  0  0  0  0  3  0  0  0  0  0  0
  182.5010  178.9060  138.7330 C   0  0  0  0  0  0  0  0  0  0  0  0
  180.0960  182.7610  137.0870 Cl  0  0  0  0  0  0  0  0  0  0  0  0
  180.4680  178.9200  137.2760 C   0  0  0  0  0  3  0  0  0  0  0  0
  180.8760  180.1410  136.5240 C   0  0  0  0  0  2  0  0  0  0  0  0
  181.2200  178.3680  138.2280 C   0  0  0  0  0  3  0  0  0  0  0  0
  187.7410  176.7940  138.1210 C   0  0  0  0  0  3  0  0  0  0  0  0
  188.8830  178.8310  136.6320 C   0  0  0  0  0  3  0  0  0  0  0  0
  189.6690  177.8270  137.2000 C   0  0  0  0  0  3  0  0  0  0  0  0
  189.0870  176.8380  137.9270 N   0  0  0  0  0  0  0  0  0  0  0  0
  186.9080  177.7750  137.5640 C   0  0  0  0  0  0  0  0  0  0  0  0
  187.5010  178.8030  136.8200 C   0  0  0  0  0  3  0  0  0  0  0  0
  183.8300  178.5940  143.1260 C   0  0  2  0  0  3  0  0  0  0  0  0
  181.7980  178.5960  144.0330 C   0  0  0  0  0  1  0  0  0  0  0  0
  182.8510  179.4380  143.6700 O   0  0  0  0  0  0  0  0  0  0  0  0
  185.1150  179.9450  144.7580 N   0  0  0  0  0  1  0  0  0  0  0  0
  185.1860  178.8500  143.8030 C   0  0  1  0  0  3  0  0  0  0  0  0
  185.8190  177.6030  144.4260 C   0  0  0  0  0  2  0  0  0  0  0  0
  187.5490  176.6770  143.0630 O   0  0  0  0  0  0  0  0  0  0  0  0
  187.2590  177.3990  144.0520 C   0  0  0  0  0  0  0  0  0  0  0  0
  188.2910  177.9730  144.8000 O   0  0  0  0  0  0  0  0  0  0  0  0
  189.1320  177.2180  145.6640 C   0  0  2  0  0  3  0  0  0  0  0  0
  188.9010  177.5630  146.9850 F   0  0  0  0  0  0  0  0  0  0  0  0
  190.5660  177.4680  145.3210 C   0  0  0  0  0  0  0  0  0  0  0  0
  190.8730  178.4160  144.6170 O   0  0  0  0  0  0  0  0  0  0  0  0
  191.6270  176.5430  145.8150 C   0  0  0  0  0  2  0  0  0  0  0  0
  191.9400  176.8440  147.1420 O   0  0  0  0  0  1  0  0  0  0  0  0
  1  6  1  0  0  0  0
  2 23  1  1  0  0  0
  3  1  2  0  0  0  0
  4  2  1  0  0  0  0
  5  2  1  0  0  0  0
  6  8  1  0  0  0  0
  6  7  1  0  0  0  0
  7  4  1  0  0  0  0
  8 12  1  1  0  0  0
  8  5  1  0  0  0  0
  9 11  2  0  0  0  0
 11 10  1  0  0  0  0
 12 10  2  0  0  0  0
 13  9  1  0  0  0  0
 14 16  2  0  0  0  0
 15 14  1  0  0  0  0
 15  9  1  0  0  0  0
 16 12  1  0  0  0  0
 18 22  2  0  0  0  0
 18 19  1  0  0  0  0
 19 20  2  0  0  0  0
 20 17  1  0  0  0  0
 21  1  1  0  0  0  0
 21 17  2  0  0  0  0
 22 21  1  0  0  0  0
 23 25  1  1  0  0  0
 23 27  1  0  0  0  0
 25 24  1  0  0  0  0
 27 28  1  0  0  0  0
 27 26  1  1  0  0  0
 29 30  2  0  0  0  0
 30 28  1  0  0  0  0
 30 31  1  0  0  0  0
 31 32  1  0  0  0  0
 32 33  1  1  0  0  0
 34 32  1  0  0  0  0
 34 36  1  0  0  0  0
 35 34  2  0  0  0  0
 36 37  1  0  0  0  0
M  END
>  <MODEL>
3

>  <REMARK>
 VINA RESULT:      -7.9      3.543      6.952
  Name = 
  11 active torsions:
  status: ('A' for Active; 'I' for Inactive)
    1  A    between atoms: C_5  and  C_30
    2  A    between atoms: C_8  and  C_31
    3  A    between atoms: C_8  and  C_36
    4  A    between atoms: O_10  and  C_32
    5  A    between atoms: C_11  and  O_13
    6  A    between atoms: C_11  and  C_30
    7  A    between atoms: C_12  and  C_14
    8  A    between atoms: O_13  and  C_31
    9  A    between atoms: C_16  and  C_35
   10  A    between atoms: C_18  and  C_32
   11  A    between atoms: C_32  and  C_36
                            x       y       z     vdW  Elec       q    Type
                         _______ _______ _______ _____ _____    ______ ____

>  <TORSDO>
F 11

$$$$
=
 OpenBabel10232412403D

 37 39  0  0  1  0  0  0  0  0999 V2000
  185.2960  179.0470  140.9010 C   0  0  0  0  0  0  0  0  0  0  0  0
  189.1750  177.4290  141.4300 C   0  0  1  0  0  3  0  0  0  0  0  0
  184.9730  179.6700  139.8510 O   0  0  0  0  0  0  0  0  0  0  0  0
  188.0620  177.4300  142.4770 C   0  0  0  0  0  2  0  0  0  0  0  0
  188.9850  178.6400  140.5160 C   0  0  0  0  0  2  0  0  0  0  0  0
  186.5740  178.3870  140.9620 N   0  0  0  0  0  0  0  0  0  0  0  0
  186.7640  177.2870  141.8220 N   0  0  0  0  0  2  0  0  0  0  0  0
  187.5750  178.6680  139.9250 C   0  0  2  0  0  3  0  0  0  0  0  0
  187.4430  175.4820  136.6110 C   0  0  0  0  0  0  0  0  0  0  0  0
  188.3980  176.8620  138.4670 C   0  0  0  0  0  3  0  0  0  0  0  0
  188.4780  175.9440  137.3140 C   0  0  0  0  0  3  0  0  0  0  0  0
  187.4340  177.7610  138.7340 C   0  0  0  0  0  0  0  0  0  0  0  0
  187.7530  174.4250  135.2520 Cl  0  0  0  0  0  0  0  0  0  0  0  0
  185.7090  177.1900  137.0150 C   0  0  0  0  0  3  0  0  0  0  0  0
  186.0280  175.7340  137.0140 C   0  0  0  0  0  2  0  0  0  0  0  0
  186.3200  178.0670  137.8120 C   0  0  0  0  0  3  0  0  0  0  0  0
  182.9920  178.7460  141.8180 C   0  0  0  0  0  3  0  0  0  0  0  0
  183.8330  179.3420  144.3900 C   0  0  0  0  0  3  0  0  0  0  0  0
  182.4970  179.0430  144.1210 C   0  0  0  0  0  3  0  0  0  0  0  0
  182.1070  178.7540  142.8510 N   0  0  0  0  0  0  0  0  0  0  0  0
  184.3470  179.0330  142.0390 C   0  0  0  0  0  0  0  0  0  0  0  0
  184.7560  179.3390  143.3430 C   0  0  0  0  0  3  0  0  0  0  0  0
  190.5550  177.4430  142.0990 C   0  0  2  0  0  3  0  0  0  0  0  0
  192.3830  177.7020  140.8560 C   0  0  0  0  0  1  0  0  0  0  0  0
  191.4820  176.7390  141.3150 O   0  0  0  0  0  0  0  0  0  0  0  0
  191.1490  175.5360  143.5660 N   0  0  0  0  0  1  0  0  0  0  0  0
  190.4640  176.8180  143.4990 C   0  0  1  0  0  3  0  0  0  0  0  0
  190.9070  177.7500  144.6300 C   0  0  0  0  0  2  0  0  0  0  0  0
  191.5850  177.0290  146.8050 O   0  0  0  0  0  0  0  0  0  0  0  0
  190.6300  177.2150  146.0060 C   0  0  0  0  0  0  0  0  0  0  0  0
  189.3330  176.8910  146.4110 O   0  0  0  0  0  0  0  0  0  0  0  0
  188.5400  177.7470  147.2250 C   0  0  2  0  0  3  0  0  0  0  0  0
  188.4120  177.2200  148.4990 F   0  0  0  0  0  0  0  0  0  0  0  0
  187.1870  177.9200  146.6120 C   0  0  0  0  0  0  0  0  0  0  0  0
  186.8520  177.2340  145.6610 O   0  0  0  0  0  0  0  0  0  0  0  0
  186.2500  178.9510  147.1440 C   0  0  0  0  0  2  0  0  0  0  0  0
  184.9650  178.4160  147.2520 O   0  0  0  0  0  1  0  0  0  0  0  0
  1  6  1  0  0  0  0
  1 21  1  0  0  0  0
  2 23  1  1  0  0  0
  2  4  1  0  0  0  0
  3  1  2  0  0  0  0
  5  2  1  0  0  0  0
  6  7  1  0  0  0  0
  7  4  1  0  0  0  0
  8 12  1  6  0  0  0
  8  5  1  0  0  0  0
  8  6  1  0  0  0  0
  9 15  1  0  0  0  0
  9 11  2  0  0  0  0
 10 12  2  0  0  0  0
 11 10  1  0  0  0  0
 13  9  1  0  0  0  0
 14 16  2  0  0  0  0
 15 14  1  0  0  0  0
 16 12  1  0  0  0  0
 17 21  2  0  0  0  0
 17 20  1  0  0  0  0
 19 18  1  0  0  0  0
 20 19  2  0  0  0  0
 21 22  1  0  0  0  0
 22 18  2  0  0  0  0
 23 25  1  6  0  0  0
 23 27  1  0  0  0  0
 24 25  1  0  0  0  0
 27 26  1  6  0  0  0
 27 28  1  0  0  0  0
 28 30  1  0  0  0  0
 30 31  1  0  0  0  0
 30 29  2  0  0  0  0
 31 32  1  0  0  0  0
 32 33  1  1  0  0  0
 34 36  1  0  0  0  0
 34 32  1  0  0  0  0
 35 34  2  0  0  0  0
 36 37  1  0  0  0  0
M  END
>  <MODEL>
4

>  <REMARK>
 VINA RESULT:      -7.7      1.407      2.078
  Name = 
  11 active torsions:
  status: ('A' for Active; 'I' for Inactive)
    1  A    between atoms: C_5  and  C_30
    2  A    between atoms: C_8  and  C_31
    3  A    between atoms: C_8  and  C_36
    4  A    between atoms: O_10  and  C_32
    5  A    between atoms: C_11  and  O_13
    6  A    between atoms: C_11  and  C_30
    7  A    between atoms: C_12  and  C_14
    8  A    between atoms: O_13  and  C_31
    9  A    between atoms: C_16  and  C_35
   10  A    between atoms: C_18  and  C_32
   11  A    between atoms: C_32  and  C_36
                            x       y       z     vdW  Elec       q    Type
                         _______ _______ _______ _____ _____    ______ ____

>  <TORSDO>
F 11

$$$$
=
 OpenBabel10232412403D

 37 39  0  0  1  0  0  0  0  0999 V2000
  181.5600  179.6310  139.3030 C   0  0  0  0  0  0  0  0  0  0  0  0
  185.6280  178.4950  138.9650 C   0  0  1  0  0  3  0  0  0  0  0  0
  180.7480  178.9850  140.0220 O   0  0  0  0  0  0  0  0  0  0  0  0
  184.9530  179.6250  138.1880 C   0  0  0  0  0  2  0  0  0  0  0  0
  184.5770  177.4340  139.2920 C   0  0  0  0  0  2  0  0  0  0  0  0
  182.9590  179.2940  139.3470 N   0  0  0  0  0  0  0  0  0  0  0  0
  183.9330  180.2590  139.0200 N   0  0  0  0  0  2  0  0  0  0  0  0
  183.3760  178.0520  140.0100 C   0  0  2  0  0  3  0  0  0  0  0  0
  184.6740  178.8610  144.3470 C   0  0  0  0  0  0  0  0  0  0  0  0
  184.8720  178.1220  141.9640 C   0  0  0  0  0  3  0  0  0  0  0  0
  185.3020  178.1990  143.3750 C   0  0  0  0  0  3  0  0  0  0  0  0
  183.6230  178.2440  141.4810 C   0  0  0  0  0  0  0  0  0  0  0  0
  185.3300  178.8000  145.9670 Cl  0  0  0  0  0  0  0  0  0  0  0  0
  182.3580  178.9880  143.5060 C   0  0  0  0  0  3  0  0  0  0  0  0
  183.5040  179.7490  144.0820 C   0  0  0  0  0  2  0  0  0  0  0  0
  182.4210  178.3580  142.3330 C   0  0  0  0  0  3  0  0  0  0  0  0
  180.5000  181.8720  138.9950 C   0  0  0  0  0  3  0  0  0  0  0  0
  180.5000  181.6010  136.2380 C   0  0  0  0  0  3  0  0  0  0  0  0
  179.9840  182.7450  136.8490 C   0  0  0  0  0  3  0  0  0  0  0  0
  179.9940  182.8560  138.2030 N   0  0  0  0  0  0  0  0  0  0  0  0
  181.0370  180.7070  138.4280 C   0  0  0  0  0  0  0  0  0  0  0  0
  181.0230  180.5810  137.0340 C   0  0  0  0  0  3  0  0  0  0  0  0
  186.7930  177.9010  138.1640 C   0  0  2  0  0  3  0  0  0  0  0  0
  187.6760  176.1080  137.1850 C   0  0  0  0  0  1  0  0  0  0  0  0
  186.5940  176.5270  137.9620 O   0  0  0  0  0  0  0  0  0  0  0  0
  188.9220  179.1660  138.2640 N   0  0  0  0  0  1  0  0  0  0  0  0
  188.1150  178.1420  138.9090 C   0  0  1  0  0  3  0  0  0  0  0  0
  187.9480  178.4210  140.4050 C   0  0  0  0  0  2  0  0  0  0  0  0
  189.7120  176.8480  140.7580 O   0  0  0  0  0  0  0  0  0  0  0  0
  188.9120  177.6690  141.2780 C   0  0  0  0  0  0  0  0  0  0  0  0
  188.9200  177.8400  142.6640 O   0  0  0  0  0  0  0  0  0  0  0  0
  189.1200  176.7660  143.5760 C   0  0  2  0  0  3  0  0  0  0  0  0
  187.9030  176.2700  144.0120 F   0  0  0  0  0  0  0  0  0  0  0  0
  189.9220  177.2360  144.7460 C   0  0  0  0  0  0  0  0  0  0  0  0
  189.3940  177.8920  145.6290 O   0  0  0  0  0  0  0  0  0  0  0  0
  191.3790  176.9280  144.8280 C   0  0  0  0  0  2  0  0  0  0  0  0
  191.8170  177.0440  146.1490 O   0  0  0  0  0  1  0  0  0  0  0  0
  1  6  1  0  0  0  0
  1  3  2  0  0  0  0
  2 23  1  6  0  0  0
  2  5  1  0  0  0  0
  4  2  1  0  0  0  0
  4  7  1  0  0  0  0
  5  8  1  0  0  0  0
  6  8  1  0  0  0  0
  7  6  1  0  0  0  0
  8 12  1  1  0  0  0
  9 13  1  0  0  0  0
 10 11  1  0  0  0  0
 11  9  2  0  0  0  0
 12 10  2  0  0  0  0
 12 16  1  0  0  0  0
 14 15  1  0  0  0  0
 15  9  1  0  0  0  0
 16 14  2  0  0  0  0
 18 19  2  0  0  0  0
 18 22  1  0  0  0  0
 19 20  1  0  0  0  0
 20 17  2  0  0  0  0
 21 17  1  0  0  0  0
 21  1  1  0  0  0  0
 22 21  2  0  0  0  0
 23 25  1  1  0  0  0
 23 27  1  0  0  0  0
 24 25  1  0  0  0  0
 27 26  1  6  0  0  0
 27 28  1  0  0  0  0
 28 30  1  0  0  0  0
 29 30  2  0  0  0  0
 30 31  1  0  0  0  0
 31 32  1  0  0  0  0
 32 33  1  1  0  0  0
 32 34  1  0  0  0  0
 34 36  1  0  0  0  0
 34 35  2  0  0  0  0
 36 37  1  0  0  0  0
M  END
>  <MODEL>
5

>  <REMARK>
 VINA RESULT:      -7.5      3.900      6.793
  Name = 
  11 active torsions:
  status: ('A' for Active; 'I' for Inactive)
    1  A    between atoms: C_5  and  C_30
    2  A    between atoms: C_8  and  C_31
    3  A    between atoms: C_8  and  C_36
    4  A    between atoms: O_10  and  C_32
    5  A    between atoms: C_11  and  O_13
    6  A    between atoms: C_11  and  C_30
    7  A    between atoms: C_12  and  C_14
    8  A    between atoms: O_13  and  C_31
    9  A    between atoms: C_16  and  C_35
   10  A    between atoms: C_18  and  C_32
   11  A    between atoms: C_32  and  C_36
                            x       y       z     vdW  Elec       q    Type
                         _______ _______ _______ _____ _____    ______ ____

>  <TORSDO>
F 11

$$$$
=
 OpenBabel10232412403D

 37 39  0  0  1  0  0  0  0  0999 V2000
  193.3050  176.0240  138.1870 C   0  0  0  0  0  0  0  0  0  0  0  0
  189.2140  175.4380  137.2540 C   0  0  1  0  0  3  0  0  0  0  0  0
  193.7250  177.1070  138.6810 O   0  0  0  0  0  0  0  0  0  0  0  0
  190.3440  174.4530  136.9550 C   0  0  0  0  0  2  0  0  0  0  0  0
  189.7900  176.8540  137.2510 C   0  0  0  0  0  2  0  0  0  0  0  0
  191.8870  175.8240  138.0350 N   0  0  0  0  0  0  0  0  0  0  0  0
  191.3520  174.5200  138.0100 N   0  0  0  0  0  2  0  0  0  0  0  0
  190.9810  176.9670  138.2020 C   0  0  2  0  0  3  0  0  0  0  0  0
  189.2010  177.2050  142.4360 C   0  0  0  0  0  0  0  0  0  0  0  0
  189.2480  177.2110  139.9340 C   0  0  0  0  0  3  0  0  0  0  0  0
  188.6380  177.4640  141.2550 C   0  0  0  0  0  3  0  0  0  0  0  0
  190.5570  177.1550  139.6330 C   0  0  0  0  0  0  0  0  0  0  0  0
  188.3240  177.6110  143.8940 Cl  0  0  0  0  0  0  0  0  0  0  0  0
  191.6090  177.2110  141.9010 C   0  0  0  0  0  3  0  0  0  0  0  0
  190.4950  176.4720  142.5610 C   0  0  0  0  0  2  0  0  0  0  0  0
  191.6340  177.4720  140.5940 C   0  0  0  0  0  3  0  0  0  0  0  0
  194.5200  174.7600  136.4070 C   0  0  0  0  0  3  0  0  0  0  0  0
  195.8990  173.2550  138.2800 C   0  0  0  0  0  3  0  0  0  0  0  0
  196.0950  173.0580  136.9120 C   0  0  0  0  0  3  0  0  0  0  0  0
  195.4070  173.8080  136.0120 N   0  0  0  0  0  0  0  0  0  0  0  0
  194.2940  175.0010  137.7700 C   0  0  0  0  0  0  0  0  0  0  0  0
  194.9930  174.2280  138.7050 C   0  0  0  0  0  3  0  0  0  0  0  0
  188.0780  175.2930  136.2350 C   0  0  2  0  0  3  0  0  0  0  0  0
  187.9610  173.6560  134.7310 C   0  0  0  0  0  1  0  0  0  0  0  0
  188.5860  174.8760  134.9950 O   0  0  0  0  0  0  0  0  0  0  0  0
  186.7080  176.7540  134.7750 N   0  0  0  0  0  1  0  0  0  0  0  0
  187.3380  176.6310  136.0810 C   0  0  1  0  0  3  0  0  0  0  0  0
  186.3500  176.9320  137.2100 C   0  0  0  0  0  2  0  0  0  0  0  0
  186.9730  179.2360  137.0920 O   0  0  0  0  0  0  0  0  0  0  0  0
  186.4920  178.3090  137.7940 C   0  0  0  0  0  0  0  0  0  0  0  0
  186.1270  178.5770  139.1160 O   0  0  0  0  0  0  0  0  0  0  0  0
  184.7780  178.7850  139.5190 C   0  0  2  0  0  3  0  0  0  0  0  0
  184.2500  179.8960  138.8840 F   0  0  0  0  0  0  0  0  0  0  0  0
  184.7140  178.9730  141.0010 C   0  0  0  0  0  0  0  0  0  0  0  0
  185.5850  179.6020  141.5780 O   0  0  0  0  0  0  0  0  0  0  0  0
  183.5990  178.3680  141.7850 C   0  0  0  0  0  2  0  0  0  0  0  0
  182.4990  178.1440  140.9540 O   0  0  0  0  0  1  0  0  0  0  0  0
  1  3  2  0  0  0  0
  2 23  1  6  0  0  0
  4  2  1  0  0  0  0
  4  7  1  0  0  0  0
  5  2  1  0  0  0  0
  5  8  1  0  0  0  0
  6  1  1  0  0  0  0
  6  8  1  0  0  0  0
  7  6  1  0  0  0  0
  8 12  1  1  0  0  0
  9 15  1  0  0  0  0
  9 13  1  0  0  0  0
 10 11  1  0  0  0  0
 11  9  2  0  0  0  0
 12 10  2  0  0  0  0
 12 16  1  0  0  0  0
 14 15  1  0  0  0  0
 16 14  2  0  0  0  0
 17 21  1  0  0  0  0
 18 22  1  0  0  0  0
 19 18  2  0  0  0  0
 20 17  2  0  0  0  0
 20 19  1  0  0  0  0
 21  1  1  0  0  0  0
 21 22  2  0  0  0  0
 23 25  1  6  0  0  0
 24 25  1  0  0  0  0
 27 26  1  6  0  0  0
 27 23  1  0  0  0  0
 27 28  1  0  0  0  0
 28 30  1  0  0  0  0
 29 30  2  0  0  0  0
 30 31  1  0  0  0  0
 31 32  1  0  0  0  0
 32 33  1  6  0  0  0
 32 34  1  0  0  0  0
 34 35  2  0  0  0  0
 34 36  1  0  0  0  0
 37 36  1  0  0  0  0
M  END
>  <MODEL>
6

>  <REMARK>
 VINA RESULT:      -7.4      4.884      9.236
  Name = 
  11 active torsions:
  status: ('A' for Active; 'I' for Inactive)
    1  A    between atoms: C_5  and  C_30
    2  A    between atoms: C_8  and  C_31
    3  A    between atoms: C_8  and  C_36
    4  A    between atoms: O_10  and  C_32
    5  A    between atoms: C_11  and  O_13
    6  A    between atoms: C_11  and  C_30
    7  A    between atoms: C_12  and  C_14
    8  A    between atoms: O_13  and  C_31
    9  A    between atoms: C_16  and  C_35
   10  A    between atoms: C_18  and  C_32
   11  A    between atoms: C_32  and  C_36
                            x       y       z     vdW  Elec       q    Type
                         _______ _______ _______ _____ _____    ______ ____

>  <TORSDO>
F 11

$$$$
=
 OpenBabel10232412403D

 37 39  0  0  1  0  0  0  0  0999 V2000
  192.9250  176.5390  138.5100 C   0  0  0  0  0  0  0  0  0  0  0  0
  188.7070  176.3520  138.1640 C   0  0  1  0  0  3  0  0  0  0  0  0
  193.4960  177.4300  139.1980 O   0  0  0  0  0  0  0  0  0  0  0  0
  189.6990  175.4570  137.4230 C   0  0  0  0  0  2  0  0  0  0  0  0
  189.3780  177.6960  138.4450 C   0  0  0  0  0  2  0  0  0  0  0  0
  191.4900  176.4300  138.5530 N   0  0  0  0  0  0  0  0  0  0  0  0
  190.8620  175.2000  138.2690 N   0  0  0  0  0  2  0  0  0  0  0  0
  190.7080  177.5060  139.1740 C   0  0  2  0  0  3  0  0  0  0  0  0
  190.6430  177.2360  143.7640 C   0  0  0  0  0  0  0  0  0  0  0  0
  191.6070  177.2830  141.4560 C   0  0  0  0  0  3  0  0  0  0  0  0
  191.6430  177.0220  142.9090 C   0  0  0  0  0  3  0  0  0  0  0  0
  190.5280  177.3010  140.6530 C   0  0  0  0  0  0  0  0  0  0  0  0
  190.8760  176.8290  145.4500 Cl  0  0  0  0  0  0  0  0  0  0  0  0
  188.6560  177.1600  142.3050 C   0  0  0  0  0  3  0  0  0  0  0  0
  189.3800  177.9220  143.3630 C   0  0  0  0  0  2  0  0  0  0  0  0
  189.1690  176.9260  141.0980 C   0  0  0  0  0  3  0  0  0  0  0  0
  194.4850  174.6030  138.2630 C   0  0  0  0  0  3  0  0  0  0  0  0
  194.6890  174.9920  135.5270 C   0  0  0  0  0  3  0  0  0  0  0  0
  195.3860  173.9630  136.1620 C   0  0  0  0  0  3  0  0  0  0  0  0
  195.2720  173.7920  137.5050 N   0  0  0  0  0  0  0  0  0  0  0  0
  193.7580  175.6450  137.6700 C   0  0  0  0  0  0  0  0  0  0  0  0
  193.8760  175.8340  136.2870 C   0  0  0  0  0  3  0  0  0  0  0  0
  187.4170  176.5280  137.3530 C   0  0  2  0  0  3  0  0  0  0  0  0
  186.5720  175.2320  135.7540 C   0  0  0  0  0  1  0  0  0  0  0  0
  187.6180  176.1160  136.0270 O   0  0  0  0  0  0  0  0  0  0  0  0
  187.1870  178.6600  136.1110 N   0  0  0  0  0  1  0  0  0  0  0  0
  186.9730  177.9980  137.3900 C   0  0  1  0  0  3  0  0  0  0  0  0
  185.5440  178.2070  137.8960 C   0  0  0  0  0  2  0  0  0  0  0  0
  186.3650  178.7420  140.0750 O   0  0  0  0  0  0  0  0  0  0  0  0
  185.4620  178.9180  139.2160 C   0  0  0  0  0  0  0  0  0  0  0  0
  184.3850  179.7540  139.5240 O   0  0  0  0  0  0  0  0  0  0  0  0
  183.1130  179.6380  138.8990 C   0  0  2  0  0  3  0  0  0  0  0  0
  182.4860  180.8720  138.8470 F   0  0  0  0  0  0  0  0  0  0  0  0
  182.2610  178.6710  139.6570 C   0  0  0  0  0  0  0  0  0  0  0  0
  181.8380  178.9610  140.7630 O   0  0  0  0  0  0  0  0  0  0  0  0
  181.9450  177.3350  139.0740 C   0  0  0  0  0  2  0  0  0  0  0  0
  182.8320  176.3770  139.5700 O   0  0  0  0  0  1  0  0  0  0  0  0
  1  6  1  0  0  0  0
  1  3  2  0  0  0  0
  2 23  1  6  0  0  0
  2  5  1  0  0  0  0
  4  2  1  0  0  0  0
  4  7  1  0  0  0  0
  5  8  1  0  0  0  0
  6  8  1  0  0  0  0
  7  6  1  0  0  0  0
  8 12  1  1  0  0  0
  9 13  1  0  0  0  0
 10 11  1  0  0  0  0
 11  9  2  0  0  0  0
 12 16  1  0  0  0  0
 12 10  2  0  0  0  0
 14 15  1  0  0  0  0
 15  9  1  0  0  0  0
 16 14  2  0  0  0  0
 18 19  2  0  0  0  0
 18 22  1  0  0  0  0
 19 20  1  0  0  0  0
 20 17  2  0  0  0  0
 21 17  1  0  0  0  0
 21  1  1  0  0  0  0
 22 21  2  0  0  0  0
 23 25  1  6  0  0  0
 23 27  1  0  0  0  0
 24 25  1  0  0  0  0
 27 26  1  6  0  0  0
 27 28  1  0  0  0  0
 28 30  1  0  0  0  0
 30 31  1  0  0  0  0
 30 29  2  0  0  0  0
 32 33  1  1  0  0  0
 32 31  1  0  0  0  0
 32 34  1  0  0  0  0
 34 35  2  0  0  0  0
 36 37  1  0  0  0  0
 36 34  1  0  0  0  0
M  END
>  <MODEL>
7

>  <REMARK>
 VINA RESULT:      -7.3      5.053      9.265
  Name = 
  11 active torsions:
  status: ('A' for Active; 'I' for Inactive)
    1  A    between atoms: C_5  and  C_30
    2  A    between atoms: C_8  and  C_31
    3  A    between atoms: C_8  and  C_36
    4  A    between atoms: O_10  and  C_32
    5  A    between atoms: C_11  and  O_13
    6  A    between atoms: C_11  and  C_30
    7  A    between atoms: C_12  and  C_14
    8  A    between atoms: O_13  and  C_31
    9  A    between atoms: C_16  and  C_35
   10  A    between atoms: C_18  and  C_32
   11  A    between atoms: C_32  and  C_36
                            x       y       z     vdW  Elec       q    Type
                         _______ _______ _______ _____ _____    ______ ____

>  <TORSDO>
F 11

$$$$
=
 OpenBabel10232412403D

 37 39  0  0  1  0  0  0  0  0999 V2000
  192.9740  176.3000  138.4690 C   0  0  0  0  0  0  0  0  0  0  0  0
  188.8010  176.2630  137.7360 C   0  0  1  0  0  3  0  0  0  0  0  0
  193.5200  177.2120  139.1510 O   0  0  0  0  0  0  0  0  0  0  0  0
  189.8150  175.2800  137.1510 C   0  0  0  0  0  2  0  0  0  0  0  0
  189.5060  177.5940  137.9940 C   0  0  0  0  0  2  0  0  0  0  0  0
  191.5370  176.2530  138.3830 N   0  0  0  0  0  0  0  0  0  0  0  0
  190.8820  175.0330  138.1190 N   0  0  0  0  0  2  0  0  0  0  0  0
  190.7520  177.3990  138.8570 C   0  0  2  0  0  3  0  0  0  0  0  0
  189.2590  176.7980  143.1650 C   0  0  0  0  0  0  0  0  0  0  0  0
  189.1410  177.2980  140.7160 C   0  0  0  0  0  3  0  0  0  0  0  0
  188.6240  177.2860  142.0990 C   0  0  0  0  0  3  0  0  0  0  0  0
  190.4270  177.3020  140.3220 C   0  0  0  0  0  0  0  0  0  0  0  0
  188.4860  176.9090  144.7300 Cl  0  0  0  0  0  0  0  0  0  0  0  0
  191.6270  176.9080  142.4800 C   0  0  0  0  0  3  0  0  0  0  0  0
  190.5480  176.0540  143.0550 C   0  0  0  0  0  2  0  0  0  0  0  0
  191.5690  177.4220  141.2520 C   0  0  0  0  0  3  0  0  0  0  0  0
  194.7440  174.5380  138.5030 C   0  0  0  0  0  3  0  0  0  0  0  0
  194.6520  174.2570  135.7480 C   0  0  0  0  0  3  0  0  0  0  0  0
  195.5310  173.4960  136.5200 C   0  0  0  0  0  3  0  0  0  0  0  0
  195.5590  173.6510  137.8700 N   0  0  0  0  0  0  0  0  0  0  0  0
  193.8380  175.3190  137.7710 C   0  0  0  0  0  0  0  0  0  0  0  0
  193.8080  175.1710  136.3790 C   0  0  0  0  0  3  0  0  0  0  0  0
  187.6020  176.4360  136.7960 C   0  0  2  0  0  3  0  0  0  0  0  0
  187.5810  176.4830  134.5710 C   0  0  0  0  0  1  0  0  0  0  0  0
  187.9600  177.2250  135.6920 O   0  0  0  0  0  0  0  0  0  0  0  0
  186.3230  178.5050  137.2660 N   0  0  0  0  0  1  0  0  0  0  0  0
  186.4330  177.0830  137.5530 C   0  0  1  0  0  3  0  0  0  0  0  0
  185.0930  176.3680  137.3640 C   0  0  0  0  0  2  0  0  0  0  0  0
  183.7280  177.6620  135.8900 O   0  0  0  0  0  0  0  0  0  0  0  0
  183.9440  177.2910  137.0730 C   0  0  0  0  0  0  0  0  0  0  0  0
  183.1230  177.7720  138.0960 O   0  0  0  0  0  0  0  0  0  0  0  0
  183.4910  177.7260  139.4690 C   0  0  2  0  0  3  0  0  0  0  0  0
  182.3970  177.4030  140.2530 F   0  0  0  0  0  0  0  0  0  0  0  0
  184.0400  179.0520  139.8920 C   0  0  0  0  0  0  0  0  0  0  0  0
  183.8400  180.0440  139.2110 O   0  0  0  0  0  0  0  0  0  0  0  0
  184.8560  179.1630  141.1350 C   0  0  0  0  0  2  0  0  0  0  0  0
  186.2140  179.2010  140.8120 O   0  0  0  0  0  1  0  0  0  0  0  0
  1  3  2  0  0  0  0
  2 23  1  6  0  0  0
  2  5  1  0  0  0  0
  4  2  1  0  0  0  0
  4  7  1  0  0  0  0
  5  8  1  0  0  0  0
  6  1  1  0  0  0  0
  6  8  1  0  0  0  0
  7  6  1  0  0  0  0
  8 12  1  1  0  0  0
  9 13  1  0  0  0  0
 10 11  1  0  0  0  0
 11  9  2  0  0  0  0
 12 10  2  0  0  0  0
 12 16  1  0  0  0  0
 14 15  1  0  0  0  0
 15  9  1  0  0  0  0
 16 14  2  0  0  0  0
 18 22  2  0  0  0  0
 18 19  1  0  0  0  0
 19 20  2  0  0  0  0
 20 17  1  0  0  0  0
 21  1  1  0  0  0  0
 21 17  2  0  0  0  0
 22 21  1  0  0  0  0
 23 25  1  6  0  0  0
 23 27  1  0  0  0  0
 24 25  1  0  0  0  0
 27 26  1  6  0  0  0
 28 27  1  0  0  0  0
 29 30  2  0  0  0  0
 30 28  1  0  0  0  0
 30 31  1  0  0  0  0
 31 32  1  0  0  0  0
 32 34  1  0  0  0  0
 32 33  1  1  0  0  0
 34 36  1  0  0  0  0
 35 34  2  0  0  0  0
 37 36  1  0  0  0  0
M  END
>  <MODEL>
8

>  <REMARK>
 VINA RESULT:      -6.9      4.677      9.349
  Name = 
  11 active torsions:
  status: ('A' for Active; 'I' for Inactive)
    1  A    between atoms: C_5  and  C_30
    2  A    between atoms: C_8  and  C_31
    3  A    between atoms: C_8  and  C_36
    4  A    between atoms: O_10  and  C_32
    5  A    between atoms: C_11  and  O_13
    6  A    between atoms: C_11  and  C_30
    7  A    between atoms: C_12  and  C_14
    8  A    between atoms: O_13  and  C_31
    9  A    between atoms: C_16  and  C_35
   10  A    between atoms: C_18  and  C_32
   11  A    between atoms: C_32  and  C_36
                            x       y       z     vdW  Elec       q    Type
                         _______ _______ _______ _____ _____    ______ ____

>  <TORSDO>
F 11

$$$$
=
 OpenBabel10232412403D

 37 39  0  0  1  0  0  0  0  0999 V2000
  186.3820  177.2510  144.4500 C   0  0  0  0  0  0  0  0  0  0  0  0
  189.7360  177.2530  141.8610 C   0  0  1  0  0  3  0  0  0  0  0  0
  186.3000  176.4610  145.4310 O   0  0  0  0  0  0  0  0  0  0  0  0
  188.4740  178.0960  141.6810 C   0  0  0  0  0  2  0  0  0  0  0  0
  189.3630  175.9710  142.6060 C   0  0  0  0  0  2  0  0  0  0  0  0
  187.6090  177.3140  143.6990 N   0  0  0  0  0  0  0  0  0  0  0  0
  187.9460  178.4840  142.9870 N   0  0  0  0  0  2  0  0  0  0  0  0
  188.6340  176.2860  143.9130 C   0  0  2  0  0  3  0  0  0  0  0  0
  191.0580  177.2750  147.6930 C   0  0  0  0  0  0  0  0  0  0  0  0
  189.1030  177.2440  146.1310 C   0  0  0  0  0  3  0  0  0  0  0  0
  189.8740  177.7370  147.2900 C   0  0  0  0  0  3  0  0  0  0  0  0
  189.5790  176.6430  145.0260 C   0  0  0  0  0  0  0  0  0  0  0  0
  191.8270  178.0200  149.0760 Cl  0  0  0  0  0  0  0  0  0  0  0  0
  191.9750  176.2680  145.6360 C   0  0  0  0  0  3  0  0  0  0  0  0
  191.6930  176.0680  147.0860 C   0  0  0  0  0  2  0  0  0  0  0  0
  191.0190  176.4870  144.7330 C   0  0  0  0  0  3  0  0  0  0  0  0
  184.5910  178.8750  145.0790 C   0  0  0  0  0  3  0  0  0  0  0  0
  183.5130  178.8240  142.5270 C   0  0  0  0  0  3  0  0  0  0  0  0
  182.9470  179.6090  143.5320 C   0  0  0  0  0  3  0  0  0  0  0  0
  183.4920  179.6190  144.7770 N   0  0  0  0  0  0  0  0  0  0  0  0
  185.2010  178.0770  144.1010 C   0  0  0  0  0  0  0  0  0  0  0  0
  184.6410  178.0560  142.8180 C   0  0  0  0  0  3  0  0  0  0  0  0
  190.3860  176.9450  140.5070 C   0  0  2  0  0  3  0  0  0  0  0  0
  192.2120  177.5920  141.6020 C   0  0  0  0  0  1  0  0  0  0  0  0
  191.5760  177.6740  140.3620 O   0  0  0  0  0  0  0  0  0  0  0  0
  189.7510  178.5510  138.7300 N   0  0  0  0  0  1  0  0  0  0  0  0
  189.4120  177.2890  139.3700 C   0  0  1  0  0  3  0  0  0  0  0  0
  189.2320  176.1700  138.3410 C   0  0  0  0  0  2  0  0  0  0  0  0
  188.7200  176.6900  136.0660 O   0  0  0  0  0  0  0  0  0  0  0  0
  188.2790  176.5090  137.2310 C   0  0  0  0  0  0  0  0  0  0  0  0
  186.9100  176.6570  137.4690 O   0  0  0  0  0  0  0  0  0  0  0  0
  186.1970  177.8500  137.1670 C   0  0  2  0  0  3  0  0  0  0  0  0
  187.0620  178.8270  136.7060 F   0  0  0  0  0  0  0  0  0  0  0  0
  185.4870  178.3400  138.3880 C   0  0  0  0  0  0  0  0  0  0  0  0
  186.1210  178.6650  139.3780 O   0  0  0  0  0  0  0  0  0  0  0  0
  183.9970  178.4090  138.4120 C   0  0  0  0  0  2  0  0  0  0  0  0
  183.4880  177.4210  139.2580 O   0  0  0  0  0  1  0  0  0  0  0  0
  1  3  2  0  0  0  0
  2 23  1  6  0  0  0
  2  5  1  0  0  0  0
  4  2  1  0  0  0  0
  4  7  1  0  0  0  0
  5  8  1  0  0  0  0
  6  8  1  0  0  0  0
  6  1  1  0  0  0  0
  7  6  1  0  0  0  0
  8 12  1  1  0  0  0
  9 13  1  0  0  0  0
 10 11  1  0  0  0  0
 11  9  2  0  0  0  0
 12 10  2  0  0  0  0
 14 15  1  0  0  0  0
 15  9  1  0  0  0  0
 16 12  1  0  0  0  0
 16 14  2  0  0  0  0
 18 22  2  0  0  0  0
 18 19  1  0  0  0  0
 19 20  2  0  0  0  0
 20 17  1  0  0  0  0
 21  1  1  0  0  0  0
 21 17  2  0  0  0  0
 22 21  1  0  0  0  0
 23 25  1  6  0  0  0
 25 24  1  0  0  0  0
 27 26  1  6  0  0  0
 27 23  1  0  0  0  0
 28 27  1  0  0  0  0
 29 30  2  0  0  0  0
 30 31  1  0  0  0  0
 30 28  1  0  0  0  0
 32 33  1  1  0  0  0
 32 31  1  0  0  0  0
 32 34  1  0  0  0  0
 34 36  1  0  0  0  0
 34 35  2  0  0  0  0
 36 37  1  0  0  0  0
M  END
>  <MODEL>
9

>  <REMARK>
 VINA RESULT:      -6.8      3.760      7.176
  Name = 
  11 active torsions:
  status: ('A' for Active; 'I' for Inactive)
    1  A    between atoms: C_5  and  C_30
    2  A    between atoms: C_8  and  C_31
    3  A    between atoms: C_8  and  C_36
    4  A    between atoms: O_10  and  C_32
    5  A    between atoms: C_11  and  O_13
    6  A    between atoms: C_11  and  C_30
    7  A    between atoms: C_12  and  C_14
    8  A    between atoms: O_13  and  C_31
    9  A    between atoms: C_16  and  C_35
   10  A    between atoms: C_18  and  C_32
   11  A    between atoms: C_32  and  C_36
                            x       y       z     vdW  Elec       q    Type
                         _______ _______ _______ _____ _____    ______ ____

>  <TORSDO>
F 11

$$$$
