=
 OpenBabel10232411103D

 36 42  0  0  1  0  0  0  0  0999 V2000
  191.2520  176.9240  141.6730 C   0  0  2  0  0  3  0  0  0  0  0  0
  189.7570  177.3270  141.5100 C   0  0  2  0  0  3  0  0  0  0  0  0
  189.8140  177.7330  145.9090 N   0  0  0  0  0  2  0  0  0  0  0  0
  185.3540  177.8280  143.6920 C   0  0  2  0  0  3  0  0  0  0  0  0
  186.7020  177.9480  146.2390 C   0  0  0  0  0  0  0  0  0  0  0  0
  187.7090  177.5670  148.5450 O   0  0  0  0  0  0  0  0  0  0  0  0
  191.0150  177.6130  145.3460 N   0  0  0  0  0  0  0  0  0  0  0  0
  188.8730  176.6730  142.5970 C   0  0  2  0  0  3  0  0  0  0  0  0
  190.8390  177.0650  144.1280 C   0  0  0  0  0  0  0  0  0  0  0  0
  185.4570  179.8490  145.2620 C   0  0  0  0  0  2  0  0  0  0  0  0
  188.8930  177.2640  145.0370 C   0  0  0  0  0  0  0  0  0  0  0  0
  187.2180  177.7510  147.4240 C   0  0  0  0  0  0  0  0  0  0  0  0
  185.3670  178.6340  146.1760 C   0  0  1  0  0  3  0  0  0  0  0  0
  184.6660  178.6310  144.8160 C   0  0  2  0  0  3  0  0  0  0  0  0
  191.7400  177.2070  143.0300 N   0  0  0  0  0  2  0  0  0  0  0  0
  192.1220  177.6650  140.6750 C   0  0  0  0  0  1  0  0  0  0  0  0
  187.5570  177.2530  142.6310 O   0  0  0  0  0  0  0  0  0  0  0  0
  186.8350  177.5580  143.8140 C   0  0  0  0  0  0  0  0  0  0  0  0
  187.4490  177.5680  145.0180 C   0  0  0  0  0  0  0  0  0  0  0  0
  189.5230  176.8250  143.9220 C   0  0  0  0  0  0  0  0  0  0  0  0
  185.0220  179.5900  140.5870 N   0  0  0  0  0  0  0  0  0  0  0  0
  185.0010  178.3730  142.3440 C   0  0  0  0  0  0  0  0  0  0  0  0
  184.1770  178.5500  140.4450 C   0  0  0  0  0  0  0  0  0  0  0  0
  184.1620  177.7970  141.5170 O   0  0  0  0  0  0  0  0  0  0  0  0
  185.5470  179.4780  141.7980 N   0  0  0  0  0  0  0  0  0  0  0  0
  181.9440  178.5060  139.2880 N   0  0  0  0  0  0  0  0  0  0  0  0
  183.3820  178.2590  139.2010 C   0  0  1  0  0  3  0  0  0  0  0  0
  182.8310  179.4010  138.7080 O   0  0  0  0  0  0  0  0  0  0  0  0
  181.5000  179.1170  140.5400 C   0  0  0  0  0  2  0  0  0  0  0  0
  180.3040  178.3600  141.0790 C   0  0  0  0  0  1  0  0  0  0  0  0
  189.2400  176.9410  140.1300 C   0  0  0  0  0  2  0  0  0  0  0  0
  188.6360  178.1370  139.4590 C   0  0  0  0  0  3  0  0  0  0  0  0
  188.8690  178.4490  138.1800 C   0  0  0  0  0  3  0  0  0  0  0  0
  189.7670  177.6490  137.2830 C   0  0  0  0  0  2  0  0  0  0  0  0
  188.9770  176.9060  136.2540 C   0  0  0  0  0  3  0  0  0  0  0  0
  188.1880  176.0350  136.5850 O   0  0  0  0  0  0  0  0  0  0  0  0
  1 16  1  6  0  0  0
  1 15  1  0  0  0  0
  2 31  1  6  0  0  0
  2  1  1  0  0  0  0
  2  8  1  0  0  0  0
  4 22  1  6  0  0  0
  4 18  1  0  0  0  0
  4 14  1  0  0  0  0
  5 12  2  0  0  0  0
  7  3  1  0  0  0  0
  8 17  1  1  0  0  0
  8 20  1  0  0  0  0
  9  7  2  0  0  0  0
 11  3  1  0  0  0  0
 12  6  2  0  0  0  0
 13 10  1  6  0  0  0
 13  5  1  0  0  0  0
 14 10  1  6  0  0  0
 14 13  1  0  0  0  0
 15  9  1  0  0  0  0
 17 18  1  0  0  0  0
 18 19  2  0  0  0  0
 19 11  1  0  0  0  0
 19  5  1  0  0  0  0
 20  9  1  0  0  0  0
 20 11  2  0  0  0  0
 21 25  1  0  0  0  0
 23 21  2  0  0  0  0
 23 24  1  0  0  0  0
 24 22  1  0  0  0  0
 25 22  2  0  0  0  0
 26 29  1  0  0  0  0
 27 26  1  0  0  0  0
 27 23  1  1  0  0  0
 28 27  1  0  0  0  0
 28 26  1  0  0  0  0
 29 30  1  0  0  0  0
 32 31  1  0  0  0  0
 33 32  2  0  0  0  0
 34 33  1  0  0  0  0
 35 36  2  0  0  0  0
 35 34  1  0  0  0  0
M  END
>  <MODEL>
1

>  <REMARK>
 VINA RESULT:      -9.7      0.000      0.000
  Name = 
  7 active torsions:
  status: ('A' for Active; 'I' for Inactive)
    1  A    between atoms: C_3  and  C_6
    2  A    between atoms: C_4  and  C_29
    3  A    between atoms: C_11  and  C_23
    4  A    between atoms: C_12  and  C_22
    5  A    between atoms: N_16  and  C_28
    6  A    between atoms: C_23  and  C_36
    7  A    between atoms: C_29  and  C_33
                            x       y       z     vdW  Elec       q    Type
                         _______ _______ _______ _____ _____    ______ ____

>  <TORSDO>
F 7

$$$$
=
 OpenBabel10232411103D

 36 42  0  0  1  0  0  0  0  0999 V2000
  187.5800  177.8500  144.0870 C   0  0  2  0  0  3  0  0  0  0  0  0
  186.9120  177.9560  142.6850 C   0  0  2  0  0  3  0  0  0  0  0  0
  190.7210  176.2810  141.2010 N   0  0  0  0  0  2  0  0  0  0  0  0
  187.5840  178.1160  137.7940 C   0  0  2  0  0  3  0  0  0  0  0  0
  190.1610  176.8760  138.1730 C   0  0  0  0  0  0  0  0  0  0  0  0
  192.6200  176.2620  138.4070 O   0  0  0  0  0  0  0  0  0  0  0  0
  190.5610  176.2130  142.5210 N   0  0  0  0  0  0  0  0  0  0  0  0
  187.9050  178.4860  141.6250 C   0  0  2  0  0  3  0  0  0  0  0  0
  189.6250  177.1200  142.8640 C   0  0  0  0  0  0  0  0  0  0  0  0
  188.2780  175.7840  136.9980 C   0  0  0  0  0  2  0  0  0  0  0  0
  189.8810  177.2270  140.7240 C   0  0  0  0  0  0  0  0  0  0  0  0
  191.4240  176.5630  138.2920 C   0  0  0  0  0  0  0  0  0  0  0  0
  189.5200  176.6500  136.8330 C   0  0  1  0  0  3  0  0  0  0  0  0
  188.1270  177.2510  136.6370 C   0  0  2  0  0  3  0  0  0  0  0  0
  188.8140  177.0550  144.0360 N   0  0  0  0  0  2  0  0  0  0  0  0
  186.6310  177.2170  145.0890 C   0  0  0  0  0  1  0  0  0  0  0  0
  187.3940  178.3230  140.2900 O   0  0  0  0  0  0  0  0  0  0  0  0
  188.1620  177.9050  139.1730 C   0  0  0  0  0  0  0  0  0  0  0  0
  189.3920  177.3680  139.3390 C   0  0  0  0  0  0  0  0  0  0  0  0
  189.1990  177.7750  141.7580 C   0  0  0  0  0  0  0  0  0  0  0  0
  184.0730  178.6710  138.2590 N   0  0  0  0  0  0  0  0  0  0  0  0
  186.0880  178.1150  137.8160 C   0  0  0  0  0  0  0  0  0  0  0  0
  184.1120  177.6870  137.3390 C   0  0  0  0  0  0  0  0  0  0  0  0
  185.3450  177.3430  137.0600 O   0  0  0  0  0  0  0  0  0  0  0  0
  185.3320  178.9440  138.5630 N   0  0  0  0  0  0  0  0  0  0  0  0
  182.3000  175.9420  137.3670 N   0  0  0  0  0  0  0  0  0  0  0  0
  182.9000  177.0840  136.6810 C   0  0  1  0  0  3  0  0  0  0  0  0
  181.8030  177.2320  137.4720 O   0  0  0  0  0  0  0  0  0  0  0  0
  182.8960  175.6220  138.6630 C   0  0  0  0  0  2  0  0  0  0  0  0
  181.8890  175.8810  139.7630 C   0  0  0  0  0  1  0  0  0  0  0  0
  185.6870  178.8590  142.7360 C   0  0  0  0  0  2  0  0  0  0  0  0
  184.5230  178.1790  142.0820 C   0  0  0  0  0  3  0  0  0  0  0  0
  183.2530  178.4140  142.4290 C   0  0  0  0  0  3  0  0  0  0  0  0
  182.8550  179.3710  143.5140 C   0  0  0  0  0  2  0  0  0  0  0  0
  182.9350  178.7220  144.8590 C   0  0  0  0  0  3  0  0  0  0  0  0
  183.7220  179.1280  145.7000 O   0  0  0  0  0  0  0  0  0  0  0  0
  1 16  1  1  0  0  0
  2 31  1  1  0  0  0
  2  1  1  0  0  0  0
  3  7  1  0  0  0  0
  4 22  1  1  0  0  0
  4 18  1  0  0  0  0
  5 12  2  0  0  0  0
  5 19  1  0  0  0  0
  7  9  2  0  0  0  0
  8 17  1  6  0  0  0
  8 20  1  0  0  0  0
  8  2  1  0  0  0  0
  9 15  1  0  0  0  0
 11  3  1  0  0  0  0
 11 20  2  0  0  0  0
 12  6  2  0  0  0  0
 13 10  1  1  0  0  0
 13  5  1  0  0  0  0
 14 13  1  0  0  0  0
 14 10  1  1  0  0  0
 14  4  1  0  0  0  0
 15  1  1  0  0  0  0
 18 19  2  0  0  0  0
 18 17  1  0  0  0  0
 19 11  1  0  0  0  0
 20  9  1  0  0  0  0
 21 25  1  0  0  0  0
 22 25  2  0  0  0  0
 23 21  2  0  0  0  0
 24 23  1  0  0  0  0
 24 22  1  0  0  0  0
 26 28  1  0  0  0  0
 26 29  1  0  0  0  0
 27 23  1  1  0  0  0
 27 26  1  0  0  0  0
 27 28  1  0  0  0  0
 29 30  1  0  0  0  0
 32 33  2  0  0  0  0
 32 31  1  0  0  0  0
 33 34  1  0  0  0  0
 34 35  1  0  0  0  0
 35 36  2  0  0  0  0
M  END
>  <MODEL>
2

>  <REMARK>
 VINA RESULT:      -8.2      2.186      6.221
  Name = 
  7 active torsions:
  status: ('A' for Active; 'I' for Inactive)
    1  A    between atoms: C_3  and  C_6
    2  A    between atoms: C_4  and  C_29
    3  A    between atoms: C_11  and  C_23
    4  A    between atoms: C_12  and  C_22
    5  A    between atoms: N_16  and  C_28
    6  A    between atoms: C_23  and  C_36
    7  A    between atoms: C_29  and  C_33
                            x       y       z     vdW  Elec       q    Type
                         _______ _______ _______ _____ _____    ______ ____

>  <TORSDO>
F 7

$$$$
=
 OpenBabel10232411103D

 36 42  0  0  1  0  0  0  0  0999 V2000
  188.2890  177.8580  143.5390 C   0  0  2  0  0  3  0  0  0  0  0  0
  187.2590  177.9930  142.3790 C   0  0  2  0  0  3  0  0  0  0  0  0
  190.4880  176.3210  139.8690 N   0  0  0  0  0  2  0  0  0  0  0  0
  186.5480  178.2340  137.4970 C   0  0  2  0  0  3  0  0  0  0  0  0
  189.1150  176.9730  137.1250 C   0  0  0  0  0  0  0  0  0  0  0  0
  191.5360  176.3400  136.6580 O   0  0  0  0  0  0  0  0  0  0  0  0
  190.7000  176.2310  141.1810 N   0  0  0  0  0  0  0  0  0  0  0  0
  187.9240  178.5360  141.0930 C   0  0  2  0  0  3  0  0  0  0  0  0
  189.9060  177.1370  141.7840 C   0  0  0  0  0  0  0  0  0  0  0  0
  186.9690  175.9120  136.5040 C   0  0  0  0  0  2  0  0  0  0  0  0
  189.5590  177.2810  139.6590 C   0  0  0  0  0  0  0  0  0  0  0  0
  190.3590  176.6500  136.8840 C   0  0  0  0  0  0  0  0  0  0  0  0
  188.1250  176.7730  136.0130 C   0  0  1  0  0  3  0  0  0  0  0  0
  186.7390  177.3860  136.2220 C   0  0  2  0  0  3  0  0  0  0  0  0
  189.4520  177.0570  143.1340 N   0  0  0  0  0  2  0  0  0  0  0  0
  187.6490  177.2130  144.7550 C   0  0  0  0  0  1  0  0  0  0  0  0
  187.0600  178.3980  139.9500 O   0  0  0  0  0  0  0  0  0  0  0  0
  187.4840  177.9950  138.6570 C   0  0  0  0  0  0  0  0  0  0  0  0
  188.7050  177.4490  138.4670 C   0  0  0  0  0  0  0  0  0  0  0  0
  189.1970  177.8140  140.8500 C   0  0  0  0  0  0  0  0  0  0  0  0
  183.1240  177.5830  138.3380 N   0  0  0  0  0  0  0  0  0  0  0  0
  185.1170  178.2410  137.9340 C   0  0  0  0  0  0  0  0  0  0  0  0
  183.3320  178.8230  138.8220 C   0  0  0  0  0  0  0  0  0  0  0  0
  184.5520  179.2320  138.5810 O   0  0  0  0  0  0  0  0  0  0  0  0
  184.2620  177.2110  137.7710 N   0  0  0  0  0  0  0  0  0  0  0  0
  181.3110  180.3210  138.7710 N   0  0  0  0  0  0  0  0  0  0  0  0
  182.3090  179.6260  139.5810 C   0  0  1  0  0  3  0  0  0  0  0  0
  181.0640  179.1090  139.3990 O   0  0  0  0  0  0  0  0  0  0  0  0
  181.3780  180.0390  137.3390 C   0  0  0  0  0  2  0  0  0  0  0  0
  180.7270  181.1670  136.5670 C   0  0  0  0  0  1  0  0  0  0  0  0
  186.1060  178.9020  142.7820 C   0  0  0  0  0  2  0  0  0  0  0  0
  184.7990  178.2180  142.5180 C   0  0  0  0  0  3  0  0  0  0  0  0
  183.6960  178.4540  143.2350 C   0  0  0  0  0  3  0  0  0  0  0  0
  183.6470  179.4150  144.3860 C   0  0  0  0  0  2  0  0  0  0  0  0
  184.0450  178.7460  145.6620 C   0  0  0  0  0  3  0  0  0  0  0  0
  184.9920  179.1600  146.3130 O   0  0  0  0  0  0  0  0  0  0  0  0
  1 16  1  1  0  0  0
  2 31  1  1  0  0  0
  2  1  1  0  0  0  0
  3  7  1  0  0  0  0
  4 22  1  1  0  0  0
  4 18  1  0  0  0  0
  5 19  1  0  0  0  0
  6 12  2  0  0  0  0
  7  9  2  0  0  0  0
  8 17  1  6  0  0  0
  8  2  1  0  0  0  0
  9 15  1  0  0  0  0
 11  3  1  0  0  0  0
 11 20  2  0  0  0  0
 12  5  2  0  0  0  0
 13 14  1  0  0  0  0
 13 10  1  1  0  0  0
 13  5  1  0  0  0  0
 14 10  1  1  0  0  0
 14  4  1  0  0  0  0
 15  1  1  0  0  0  0
 18 17  1  0  0  0  0
 19 18  2  0  0  0  0
 19 11  1  0  0  0  0
 20  8  1  0  0  0  0
 20  9  1  0  0  0  0
 21 23  2  0  0  0  0
 22 24  1  0  0  0  0
 24 23  1  0  0  0  0
 25 22  2  0  0  0  0
 25 21  1  0  0  0  0
 26 28  1  0  0  0  0
 26 27  1  0  0  0  0
 27 23  1  6  0  0  0
 28 27  1  0  0  0  0
 29 26  1  0  0  0  0
 30 29  1  0  0  0  0
 32 31  1  0  0  0  0
 32 33  2  0  0  0  0
 33 34  1  0  0  0  0
 34 35  1  0  0  0  0
 35 36  2  0  0  0  0
M  END
>  <MODEL>
3

>  <REMARK>
 VINA RESULT:      -8.0      2.162      6.436
  Name = 
  7 active torsions:
  status: ('A' for Active; 'I' for Inactive)
    1  A    between atoms: C_3  and  C_6
    2  A    between atoms: C_4  and  C_29
    3  A    between atoms: C_11  and  C_23
    4  A    between atoms: C_12  and  C_22
    5  A    between atoms: N_16  and  C_28
    6  A    between atoms: C_23  and  C_36
    7  A    between atoms: C_29  and  C_33
                            x       y       z     vdW  Elec       q    Type
                         _______ _______ _______ _____ _____    ______ ____

>  <TORSDO>
F 7

$$$$
=
 OpenBabel10232411103D

 36 42  0  0  1  0  0  0  0  0999 V2000
  183.3480  178.9370  141.6370 C   0  0  2  0  0  3  0  0  0  0  0  0
  184.7130  178.5950  140.9710 C   0  0  2  0  0  3  0  0  0  0  0  0
  186.0230  177.6750  145.0890 N   0  0  0  0  0  2  0  0  0  0  0  0
  189.5700  177.9580  141.6030 C   0  0  2  0  0  3  0  0  0  0  0  0
  189.0800  177.5050  144.4100 C   0  0  0  0  0  0  0  0  0  0  0  0
  188.8450  177.5880  146.9430 O   0  0  0  0  0  0  0  0  0  0  0  0
  184.7080  177.8290  144.9450 N   0  0  0  0  0  0  0  0  0  0  0  0
  185.8990  179.1400  141.8000 C   0  0  2  0  0  3  0  0  0  0  0  0
  184.5020  178.5200  143.8070 C   0  0  0  0  0  0  0  0  0  0  0  0
  189.9380  175.7660  142.8740 C   0  0  0  0  0  2  0  0  0  0  0  0
  186.6320  178.2670  144.0370 C   0  0  0  0  0  0  0  0  0  0  0  0
  188.9600  177.5490  145.7110 C   0  0  0  0  0  0  0  0  0  0  0  0
  190.3210  176.8670  143.8540 C   0  0  1  0  0  3  0  0  0  0  0  0
  190.5640  177.0480  142.3550 C   0  0  2  0  0  3  0  0  0  0  0  0
  183.3030  178.4850  143.0340 N   0  0  0  0  0  2  0  0  0  0  0  0
  182.2020  178.2950  140.8770 C   0  0  0  0  0  1  0  0  0  0  0  0
  187.1530  178.5950  141.3540 O   0  0  0  0  0  0  0  0  0  0  0  0
  188.2040  178.1730  142.2100 C   0  0  0  0  0  0  0  0  0  0  0  0
  187.9950  178.0060  143.5350 C   0  0  0  0  0  0  0  0  0  0  0  0
  185.6910  178.8170  143.2330 C   0  0  0  0  0  0  0  0  0  0  0  0
  189.2190  177.7410  138.0420 N   0  0  0  0  0  0  0  0  0  0  0  0
  189.4800  177.5840  140.1570 C   0  0  0  0  0  0  0  0  0  0  0  0
  189.6410  176.5090  138.3880 C   0  0  0  0  0  0  0  0  0  0  0  0
  189.8070  176.4070  139.6830 O   0  0  0  0  0  0  0  0  0  0  0  0
  189.1160  178.4270  139.1700 N   0  0  0  0  0  0  0  0  0  0  0  0
  191.2960  175.3350  136.9000 N   0  0  0  0  0  0  0  0  0  0  0  0
  189.9290  175.3990  137.4120 C   0  0  1  0  0  3  0  0  0  0  0  0
  190.8380  174.5300  137.9310 O   0  0  0  0  0  0  0  0  0  0  0  0
  192.2230  176.2910  137.5030 C   0  0  0  0  0  2  0  0  0  0  0  0
  193.5630  176.2130  136.8020 C   0  0  0  0  0  1  0  0  0  0  0  0
  184.7790  179.1530  139.5550 C   0  0  0  0  0  2  0  0  0  0  0  0
  185.5010  178.1930  138.6610 C   0  0  0  0  0  3  0  0  0  0  0  0
  184.8880  177.4840  137.7070 C   0  0  0  0  0  3  0  0  0  0  0  0
  183.4140  177.5620  137.4360 C   0  0  0  0  0  2  0  0  0  0  0  0
  182.7340  176.2780  137.7860 C   0  0  0  0  0  3  0  0  0  0  0  0
  183.1570  175.5760  138.6910 O   0  0  0  0  0  0  0  0  0  0  0  0
  1 16  1  6  0  0  0
  1 15  1  0  0  0  0
  2 31  1  6  0  0  0
  2  1  1  0  0  0  0
  2  8  1  0  0  0  0
  4 22  1  6  0  0  0
  4 18  1  0  0  0  0
  4 14  1  0  0  0  0
  5 12  2  0  0  0  0
  7  3  1  0  0  0  0
  8 17  1  6  0  0  0
  8 20  1  0  0  0  0
  9  7  2  0  0  0  0
 11  3  1  0  0  0  0
 12  6  2  0  0  0  0
 13 10  1  6  0  0  0
 13  5  1  0  0  0  0
 14 10  1  6  0  0  0
 14 13  1  0  0  0  0
 15  9  1  0  0  0  0
 17 18  1  0  0  0  0
 18 19  2  0  0  0  0
 19 11  1  0  0  0  0
 19  5  1  0  0  0  0
 20  9  1  0  0  0  0
 20 11  2  0  0  0  0
 21 23  2  0  0  0  0
 21 25  1  0  0  0  0
 23 24  1  0  0  0  0
 24 22  1  0  0  0  0
 25 22  2  0  0  0  0
 26 27  1  0  0  0  0
 26 29  1  0  0  0  0
 26 28  1  0  0  0  0
 27 28  1  0  0  0  0
 27 23  1  1  0  0  0
 30 29  1  0  0  0  0
 32 31  1  0  0  0  0
 33 32  2  0  0  0  0
 34 33  1  0  0  0  0
 34 35  1  0  0  0  0
 35 36  2  0  0  0  0
M  END
>  <MODEL>
4

>  <REMARK>
 VINA RESULT:      -7.9      2.585      6.383
  Name = 
  7 active torsions:
  status: ('A' for Active; 'I' for Inactive)
    1  A    between atoms: C_3  and  C_6
    2  A    between atoms: C_4  and  C_29
    3  A    between atoms: C_11  and  C_23
    4  A    between atoms: C_12  and  C_22
    5  A    between atoms: N_16  and  C_28
    6  A    between atoms: C_23  and  C_36
    7  A    between atoms: C_29  and  C_33
                            x       y       z     vdW  Elec       q    Type
                         _______ _______ _______ _____ _____    ______ ____

>  <TORSDO>
F 7

$$$$
=
 OpenBabel10232411103D

 36 42  0  0  1  0  0  0  0  0999 V2000
  188.2790  177.7330  143.8310 C   0  0  2  0  0  3  0  0  0  0  0  0
  187.2860  177.9160  142.6460 C   0  0  2  0  0  3  0  0  0  0  0  0
  190.5800  176.3100  140.1780 N   0  0  0  0  0  2  0  0  0  0  0  0
  186.7250  178.3340  137.7560 C   0  0  2  0  0  3  0  0  0  0  0  0
  189.2950  177.0670  137.4180 C   0  0  0  0  0  0  0  0  0  0  0  0
  191.7250  176.4340  137.0020 O   0  0  0  0  0  0  0  0  0  0  0  0
  190.7510  176.1730  141.4910 N   0  0  0  0  0  0  0  0  0  0  0  0
  187.9930  178.4990  141.4010 C   0  0  2  0  0  3  0  0  0  0  0  0
  189.9450  177.0630  142.1010 C   0  0  0  0  0  0  0  0  0  0  0  0
  187.1620  176.0440  136.6950 C   0  0  0  0  0  2  0  0  0  0  0  0
  189.6630  177.2830  139.9740 C   0  0  0  0  0  0  0  0  0  0  0  0
  190.5430  176.7430  137.2040 C   0  0  0  0  0  0  0  0  0  0  0  0
  188.3380  176.9140  136.2710 C   0  0  1  0  0  3  0  0  0  0  0  0
  186.9500  177.5300  136.4580 C   0  0  2  0  0  3  0  0  0  0  0  0
  189.4490  176.9380  143.4340 N   0  0  0  0  0  2  0  0  0  0  0  0
  187.5980  177.0510  145.0040 C   0  0  0  0  0  1  0  0  0  0  0  0
  187.1640  178.4080  140.2280 O   0  0  0  0  0  0  0  0  0  0  0  0
  187.6240  178.0470  138.9350 C   0  0  0  0  0  0  0  0  0  0  0  0
  188.8470  177.4990  138.7630 C   0  0  0  0  0  0  0  0  0  0  0  0
  189.2680  177.7770  141.1720 C   0  0  0  0  0  0  0  0  0  0  0  0
  183.3720  179.0170  138.8250 N   0  0  0  0  0  0  0  0  0  0  0  0
  185.2820  178.3350  138.1490 C   0  0  0  0  0  0  0  0  0  0  0  0
  183.3050  177.7430  138.3890 C   0  0  0  0  0  0  0  0  0  0  0  0
  184.4720  177.3200  137.9700 O   0  0  0  0  0  0  0  0  0  0  0  0
  184.6320  179.3950  138.6720 N   0  0  0  0  0  0  0  0  0  0  0  0
  181.2080  177.0920  137.1610 N   0  0  0  0  0  0  0  0  0  0  0  0
  182.0460  176.9200  138.3460 C   0  0  1  0  0  3  0  0  0  0  0  0
  182.0900  176.0320  137.3160 O   0  0  0  0  0  0  0  0  0  0  0  0
  181.7770  177.9550  136.1270 C   0  0  0  0  0  2  0  0  0  0  0  0
  180.8790  179.1550  135.9150 C   0  0  0  0  0  1  0  0  0  0  0  0
  186.1270  178.8190  143.0460 C   0  0  0  0  0  2  0  0  0  0  0  0
  184.8250  178.1640  142.6980 C   0  0  0  0  0  3  0  0  0  0  0  0
  183.6770  178.4490  143.3210 C   0  0  0  0  0  3  0  0  0  0  0  0
  183.5670  179.4440  144.4390 C   0  0  0  0  0  2  0  0  0  0  0  0
  183.7950  178.7910  145.7640 C   0  0  0  0  0  3  0  0  0  0  0  0
  184.8160  179.0090  146.3980 O   0  0  0  0  0  0  0  0  0  0  0  0
  1 16  1  1  0  0  0
  2 31  1  1  0  0  0
  2  1  1  0  0  0  0
  3  7  1  0  0  0  0
  4 22  1  1  0  0  0
  4 18  1  0  0  0  0
  5 19  1  0  0  0  0
  6 12  2  0  0  0  0
  7  9  2  0  0  0  0
  8 17  1  6  0  0  0
  8  2  1  0  0  0  0
  9 15  1  0  0  0  0
 11  3  1  0  0  0  0
 11 20  2  0  0  0  0
 12  5  2  0  0  0  0
 13 14  1  0  0  0  0
 13 10  1  1  0  0  0
 13  5  1  0  0  0  0
 14 10  1  1  0  0  0
 14  4  1  0  0  0  0
 15  1  1  0  0  0  0
 18 17  1  0  0  0  0
 19 18  2  0  0  0  0
 19 11  1  0  0  0  0
 20  8  1  0  0  0  0
 20  9  1  0  0  0  0
 22 25  2  0  0  0  0
 23 21  2  0  0  0  0
 24 22  1  0  0  0  0
 24 23  1  0  0  0  0
 25 21  1  0  0  0  0
 26 28  1  0  0  0  0
 26 27  1  0  0  0  0
 27 23  1  6  0  0  0
 28 27  1  0  0  0  0
 29 26  1  0  0  0  0
 30 29  1  0  0  0  0
 32 31  1  0  0  0  0
 32 33  2  0  0  0  0
 33 34  1  0  0  0  0
 34 35  1  0  0  0  0
 35 36  2  0  0  0  0
M  END
>  <MODEL>
5

>  <REMARK>
 VINA RESULT:      -7.8      2.151      6.372
  Name = 
  7 active torsions:
  status: ('A' for Active; 'I' for Inactive)
    1  A    between atoms: C_3  and  C_6
    2  A    between atoms: C_4  and  C_29
    3  A    between atoms: C_11  and  C_23
    4  A    between atoms: C_12  and  C_22
    5  A    between atoms: N_16  and  C_28
    6  A    between atoms: C_23  and  C_36
    7  A    between atoms: C_29  and  C_33
                            x       y       z     vdW  Elec       q    Type
                         _______ _______ _______ _____ _____    ______ ____

>  <TORSDO>
F 7

$$$$
=
 OpenBabel10232411103D

 36 42  0  0  1  0  0  0  0  0999 V2000
  188.8830  175.5600  136.3070 C   0  0  2  0  0  3  0  0  0  0  0  0
  189.0280  175.8930  137.8210 C   0  0  2  0  0  3  0  0  0  0  0  0
  184.9790  177.6120  137.4100 N   0  0  0  0  0  2  0  0  0  0  0  0
  187.4450  178.6270  141.6180 C   0  0  2  0  0  3  0  0  0  0  0  0
  184.9860  179.0840  140.1800 C   0  0  0  0  0  0  0  0  0  0  0  0
  183.0160  179.9650  138.8310 O   0  0  0  0  0  0  0  0  0  0  0  0
  185.3760  176.8690  136.3780 N   0  0  0  0  0  0  0  0  0  0  0  0
  188.4930  177.3080  138.1430 C   0  0  2  0  0  3  0  0  0  0  0  0
  186.7200  176.7940  136.4240 C   0  0  0  0  0  0  0  0  0  0  0  0
  185.1160  177.8020  142.2910 C   0  0  0  0  0  2  0  0  0  0  0  0
  186.0790  177.9930  138.0990 C   0  0  0  0  0  0  0  0  0  0  0  0
  183.9750  179.5380  139.4870 C   0  0  0  0  0  0  0  0  0  0  0  0
  184.8920  179.1760  141.6760 C   0  0  1  0  0  3  0  0  0  0  0  0
  186.1740  178.8790  142.4560 C   0  0  2  0  0  3  0  0  0  0  0  0
  187.5010  175.7490  135.8460 N   0  0  0  0  0  2  0  0  0  0  0  0
  189.3010  174.1280  136.0280 C   0  0  0  0  0  1  0  0  0  0  0  0
  188.3610  177.5160  139.5610 O   0  0  0  0  0  0  0  0  0  0  0  0
  187.2750  178.1820  140.1850 C   0  0  0  0  0  0  0  0  0  0  0  0
  186.1380  178.4440  139.5030 C   0  0  0  0  0  0  0  0  0  0  0  0
  187.1800  177.5030  137.4820 C   0  0  0  0  0  0  0  0  0  0  0  0
  189.3290  176.0350  143.2240 N   0  0  0  0  0  0  0  0  0  0  0  0
  188.4160  177.7600  142.3550 C   0  0  0  0  0  0  0  0  0  0  0  0
  190.1420  177.1060  143.3080 C   0  0  0  0  0  0  0  0  0  0  0  0
  189.5910  178.1670  142.7730 O   0  0  0  0  0  0  0  0  0  0  0  0
  188.2290  176.4510  142.6170 N   0  0  0  0  0  0  0  0  0  0  0  0
  191.6060  177.2640  145.3480 N   0  0  0  0  0  0  0  0  0  0  0  0
  191.5260  177.0850  143.9000 C   0  0  1  0  0  3  0  0  0  0  0  0
  191.6720  176.0210  144.7360 O   0  0  0  0  0  0  0  0  0  0  0  0
  190.3150  177.3210  146.0320 C   0  0  0  0  0  2  0  0  0  0  0  0
  190.4470  176.7220  147.4170 C   0  0  0  0  0  1  0  0  0  0  0  0
  190.4820  175.7840  138.2620 C   0  0  0  0  0  2  0  0  0  0  0  0
  191.3490  176.6290  137.3790 C   0  0  0  0  0  3  0  0  0  0  0  0
  192.4470  176.1630  136.7750 C   0  0  0  0  0  3  0  0  0  0  0  0
  192.9390  174.7530  136.9240 C   0  0  0  0  0  2  0  0  0  0  0  0
  194.1570  174.6960  137.7890 C   0  0  0  0  0  3  0  0  0  0  0  0
  194.4860  175.6580  138.4640 O   0  0  0  0  0  0  0  0  0  0  0  0
  1 16  1  1  0  0  0
  1  2  1  0  0  0  0
  2  8  1  0  0  0  0
  2 31  1  6  0  0  0
  3 11  1  0  0  0  0
  4 22  1  1  0  0  0
  4 14  1  0  0  0  0
  5 13  1  0  0  0  0
  6 12  2  0  0  0  0
  7  9  2  0  0  0  0
  7  3  1  0  0  0  0
  8 20  1  6  0  0  0
  8 17  1  0  0  0  0
  9 20  1  0  0  0  0
 11 19  1  0  0  0  0
 12  5  2  0  0  0  0
 13 10  1  1  0  0  0
 13 14  1  0  0  0  0
 14 10  1  6  0  0  0
 15  1  1  0  0  0  0
 15  9  1  0  0  0  0
 17 18  1  0  0  0  0
 18  4  1  0  0  0  0
 19  5  1  0  0  0  0
 19 18  2  0  0  0  0
 20 11  2  0  0  0  0
 21 23  2  0  0  0  0
 22 25  2  0  0  0  0
 22 24  1  0  0  0  0
 24 23  1  0  0  0  0
 25 21  1  0  0  0  0
 26 29  1  0  0  0  0
 27 23  1  1  0  0  0
 27 28  1  0  0  0  0
 27 26  1  0  0  0  0
 28 26  1  0  0  0  0
 29 30  1  0  0  0  0
 32 31  1  0  0  0  0
 33 34  1  0  0  0  0
 33 32  2  0  0  0  0
 34 35  1  0  0  0  0
 35 36  2  0  0  0  0
M  END
>  <MODEL>
6

>  <REMARK>
 VINA RESULT:      -7.6      2.916      7.086
  Name = 
  7 active torsions:
  status: ('A' for Active; 'I' for Inactive)
    1  A    between atoms: C_3  and  C_6
    2  A    between atoms: C_4  and  C_29
    3  A    between atoms: C_11  and  C_23
    4  A    between atoms: C_12  and  C_22
    5  A    between atoms: N_16  and  C_28
    6  A    between atoms: C_23  and  C_36
    7  A    between atoms: C_29  and  C_33
                            x       y       z     vdW  Elec       q    Type
                         _______ _______ _______ _____ _____    ______ ____

>  <TORSDO>
F 7

$$$$
=
 OpenBabel10232411103D

 36 42  0  0  1  0  0  0  0  0999 V2000
  189.9010  177.6670  142.4960 C   0  0  2  0  0  3  0  0  0  0  0  0
  188.5250  177.8610  141.7950 C   0  0  2  0  0  3  0  0  0  0  0  0
  190.6110  176.3690  138.1980 N   0  0  0  0  0  2  0  0  0  0  0  0
  186.1060  178.3840  137.5200 C   0  0  2  0  0  3  0  0  0  0  0  0
  188.3510  177.1690  136.1760 C   0  0  0  0  0  0  0  0  0  0  0  0
  190.4330  176.5870  134.8320 O   0  0  0  0  0  0  0  0  0  0  0  0
  191.2800  176.2040  139.3380 N   0  0  0  0  0  0  0  0  0  0  0  0
  188.6890  178.4850  140.3900 C   0  0  2  0  0  3  0  0  0  0  0  0
  190.7690  177.0660  140.2380 C   0  0  0  0  0  0  0  0  0  0  0  0
  186.1110  176.1280  136.3090 C   0  0  0  0  0  2  0  0  0  0  0  0
  189.6810  177.3310  138.3940 C   0  0  0  0  0  0  0  0  0  0  0  0
  189.4200  176.8720  135.4850 C   0  0  0  0  0  0  0  0  0  0  0  0
  187.0240  177.0270  135.4860 C   0  0  1  0  0  3  0  0  0  0  0  0
  185.8140  177.6150  136.2150 C   0  0  2  0  0  3  0  0  0  0  0  0
  190.8300  176.9020  141.6540 N   0  0  0  0  0  2  0  0  0  0  0  0
  189.7340  176.9470  143.8220 C   0  0  0  0  0  1  0  0  0  0  0  0
  187.4700  178.4080  139.6290 O   0  0  0  0  0  0  0  0  0  0  0  0
  187.3940  178.0850  138.2490 C   0  0  0  0  0  0  0  0  0  0  0  0
  188.4580  177.5620  137.6010 C   0  0  0  0  0  0  0  0  0  0  0  0
  189.7800  177.7900  139.6640 C   0  0  0  0  0  0  0  0  0  0  0  0
  183.4260  178.9860  139.8230 N   0  0  0  0  0  0  0  0  0  0  0  0
  184.9290  178.3530  138.4430 C   0  0  0  0  0  0  0  0  0  0  0  0
  183.2060  177.7210  139.4150 C   0  0  0  0  0  0  0  0  0  0  0  0
  184.1210  177.3270  138.5660 O   0  0  0  0  0  0  0  0  0  0  0  0
  184.5250  179.3890  139.2040 N   0  0  0  0  0  0  0  0  0  0  0  0
  180.9500  176.7460  138.8720 N   0  0  0  0  0  0  0  0  0  0  0  0
  182.0350  176.8770  139.8430 C   0  0  1  0  0  3  0  0  0  0  0  0
  181.9250  175.7760  139.0510 O   0  0  0  0  0  0  0  0  0  0  0  0
  181.2130  177.3610  137.5720 C   0  0  0  0  0  2  0  0  0  0  0  0
  180.0000  178.1510  137.1290 C   0  0  0  0  0  1  0  0  0  0  0  0
  187.6060  178.7350  142.6390 C   0  0  0  0  0  2  0  0  0  0  0  0
  186.3310  178.0040  142.9300 C   0  0  0  0  0  3  0  0  0  0  0  0
  185.9150  177.7320  144.1710 C   0  0  0  0  0  3  0  0  0  0  0  0
  186.6810  178.1140  145.4040 C   0  0  0  0  0  2  0  0  0  0  0  0
  185.7850  178.7480  146.4180 C   0  0  0  0  0  3  0  0  0  0  0  0
  184.5740  178.7560  146.2620 O   0  0  0  0  0  0  0  0  0  0  0  0
  1 16  1  1  0  0  0
  2  1  1  0  0  0  0
  2 31  1  1  0  0  0
  3 11  1  0  0  0  0
  3  7  1  0  0  0  0
  4 18  1  0  0  0  0
  4 22  1  1  0  0  0
  5 19  1  0  0  0  0
  6 12  2  0  0  0  0
  7  9  2  0  0  0  0
  8 17  1  6  0  0  0
  8  2  1  0  0  0  0
  9 15  1  0  0  0  0
 11 20  2  0  0  0  0
 12  5  2  0  0  0  0
 13  5  1  0  0  0  0
 13 14  1  0  0  0  0
 13 10  1  1  0  0  0
 14 10  1  1  0  0  0
 14  4  1  0  0  0  0
 15  1  1  0  0  0  0
 18 17  1  0  0  0  0
 19 18  2  0  0  0  0
 19 11  1  0  0  0  0
 20  9  1  0  0  0  0
 20  8  1  0  0  0  0
 22 24  1  0  0  0  0
 22 25  2  0  0  0  0
 23 21  2  0  0  0  0
 24 23  1  0  0  0  0
 25 21  1  0  0  0  0
 26 28  1  0  0  0  0
 26 27  1  0  0  0  0
 27 23  1  6  0  0  0
 28 27  1  0  0  0  0
 29 26  1  0  0  0  0
 30 29  1  0  0  0  0
 31 32  1  0  0  0  0
 32 33  2  0  0  0  0
 33 34  1  0  0  0  0
 34 35  1  0  0  0  0
 36 35  2  0  0  0  0
M  END
>  <MODEL>
7

>  <REMARK>
 VINA RESULT:      -7.4      2.295      6.577
  Name = 
  7 active torsions:
  status: ('A' for Active; 'I' for Inactive)
    1  A    between atoms: C_3  and  C_6
    2  A    between atoms: C_4  and  C_29
    3  A    between atoms: C_11  and  C_23
    4  A    between atoms: C_12  and  C_22
    5  A    between atoms: N_16  and  C_28
    6  A    between atoms: C_23  and  C_36
    7  A    between atoms: C_29  and  C_33
                            x       y       z     vdW  Elec       q    Type
                         _______ _______ _______ _____ _____    ______ ____

>  <TORSDO>
F 7

$$$$
=
 OpenBabel10232411103D

 36 42  0  0  1  0  0  0  0  0999 V2000
  190.4820  176.7280  141.9140 C   0  0  2  0  0  3  0  0  0  0  0  0
  188.9880  177.1630  141.9590 C   0  0  2  0  0  3  0  0  0  0  0  0
  189.1150  176.5800  137.5810 N   0  0  0  0  0  2  0  0  0  0  0  0
  185.1180  178.9060  139.4330 C   0  0  2  0  0  3  0  0  0  0  0  0
  186.3730  177.9880  137.0030 C   0  0  0  0  0  0  0  0  0  0  0  0
  187.5800  177.6860  134.7830 O   0  0  0  0  0  0  0  0  0  0  0  0
  190.1640  176.0890  138.2390 N   0  0  0  0  0  0  0  0  0  0  0  0
  188.6450  178.1270  140.8000 C   0  0  2  0  0  3  0  0  0  0  0  0
  190.2180  176.7050  139.4350 C   0  0  0  0  0  0  0  0  0  0  0  0
  184.2610  177.0520  137.8880 C   0  0  0  0  0  2  0  0  0  0  0  0
  188.5160  177.4970  138.3740 C   0  0  0  0  0  0  0  0  0  0  0  0
  186.9930  177.8350  135.8620 C   0  0  0  0  0  0  0  0  0  0  0  0
  184.8750  178.0940  136.9630 C   0  0  1  0  0  3  0  0  0  0  0  0
  184.1900  178.5230  138.2610 C   0  0  2  0  0  3  0  0  0  0  0  0
  190.8400  176.1700  140.6030 N   0  0  0  0  0  2  0  0  0  0  0  0
  190.7740  175.6910  142.9840 C   0  0  0  0  0  1  0  0  0  0  0  0
  187.2240  178.3100  140.6640 O   0  0  0  0  0  0  0  0  0  0  0  0
  186.5280  178.3670  139.4290 C   0  0  0  0  0  0  0  0  0  0  0  0
  187.1260  177.9850  138.2780 C   0  0  0  0  0  0  0  0  0  0  0  0
  189.2080  177.6000  139.5330 C   0  0  0  0  0  0  0  0  0  0  0  0
  183.3860  177.7370  142.3450 N   0  0  0  0  0  0  0  0  0  0  0  0
  184.4460  178.6860  140.7510 C   0  0  0  0  0  0  0  0  0  0  0  0
  183.8360  178.9510  142.7190 C   0  0  0  0  0  0  0  0  0  0  0  0
  184.4900  179.5370  141.7480 O   0  0  0  0  0  0  0  0  0  0  0  0
  183.7740  177.5680  141.0910 N   0  0  0  0  0  0  0  0  0  0  0  0
  184.4990  178.9960  145.1460 N   0  0  0  0  0  0  0  0  0  0  0  0
  183.6510  179.5460  144.0890 C   0  0  1  0  0  3  0  0  0  0  0  0
  184.7840  180.1840  144.4890 O   0  0  0  0  0  0  0  0  0  0  0  0
  185.4930  178.0250  144.6920 C   0  0  0  0  0  2  0  0  0  0  0  0
  186.2790  177.5090  145.8790 C   0  0  0  0  0  1  0  0  0  0  0  0
  188.6570  177.8240  143.2910 C   0  0  0  0  0  2  0  0  0  0  0  0
  189.8600  178.5480  143.8140 C   0  0  0  0  0  3  0  0  0  0  0  0
  190.3480  178.3540  145.0440 C   0  0  0  0  0  3  0  0  0  0  0  0
  189.7420  177.4030  146.0350 C   0  0  0  0  0  2  0  0  0  0  0  0
  190.7940  176.7740  146.8890 C   0  0  0  0  0  3  0  0  0  0  0  0
  191.9770  176.9050  146.6180 O   0  0  0  0  0  0  0  0  0  0  0  0
  1  2  1  0  0  0  0
  1 16  1  1  0  0  0
  2 31  1  1  0  0  0
  3  7  1  0  0  0  0
  3 11  1  0  0  0  0
  4 22  1  1  0  0  0
  5 19  1  0  0  0  0
  6 12  2  0  0  0  0
  7  9  2  0  0  0  0
  8 20  1  6  0  0  0
  8  2  1  0  0  0  0
  9 20  1  0  0  0  0
  9 15  1  0  0  0  0
 11 20  2  0  0  0  0
 12  5  2  0  0  0  0
 13  5  1  0  0  0  0
 13 10  1  1  0  0  0
 13 14  1  0  0  0  0
 14 10  1  1  0  0  0
 14  4  1  0  0  0  0
 15  1  1  0  0  0  0
 17  8  1  0  0  0  0
 18  4  1  0  0  0  0
 18 17  1  0  0  0  0
 19 11  1  0  0  0  0
 19 18  2  0  0  0  0
 21 23  2  0  0  0  0
 22 25  2  0  0  0  0
 22 24  1  0  0  0  0
 24 23  1  0  0  0  0
 25 21  1  0  0  0  0
 27 23  1  6  0  0  0
 27 28  1  0  0  0  0
 27 26  1  0  0  0  0
 28 26  1  0  0  0  0
 29 26  1  0  0  0  0
 29 30  1  0  0  0  0
 31 32  1  0  0  0  0
 32 33  2  0  0  0  0
 33 34  1  0  0  0  0
 34 35  1  0  0  0  0
 36 35  2  0  0  0  0
M  END
>  <MODEL>
8

>  <REMARK>
 VINA RESULT:      -7.3      2.445      6.551
  Name = 
  7 active torsions:
  status: ('A' for Active; 'I' for Inactive)
    1  A    between atoms: C_3  and  C_6
    2  A    between atoms: C_4  and  C_29
    3  A    between atoms: C_11  and  C_23
    4  A    between atoms: C_12  and  C_22
    5  A    between atoms: N_16  and  C_28
    6  A    between atoms: C_23  and  C_36
    7  A    between atoms: C_29  and  C_33
                            x       y       z     vdW  Elec       q    Type
                         _______ _______ _______ _____ _____    ______ ____

>  <TORSDO>
F 7

$$$$
=
 OpenBabel10232411103D

 36 42  0  0  1  0  0  0  0  0999 V2000
  189.5660  176.4980  137.3450 C   0  0  2  0  0  3  0  0  0  0  0  0
  188.5360  177.1150  138.3350 C   0  0  2  0  0  3  0  0  0  0  0  0
  185.5220  175.1050  135.8070 N   0  0  0  0  0  2  0  0  0  0  0  0
  183.8370  178.4160  139.1260 C   0  0  2  0  0  3  0  0  0  0  0  0
  183.0480  176.5900  137.0370 C   0  0  0  0  0  0  0  0  0  0  0  0
  182.2790  175.4150  134.9140 O   0  0  0  0  0  0  0  0  0  0  0  0
  186.7790  174.7260  135.5820 N   0  0  0  0  0  0  0  0  0  0  0  0
  187.3030  177.6780  137.5910 C   0  0  2  0  0  3  0  0  0  0  0  0
  187.5860  175.6910  136.0640 C   0  0  0  0  0  0  0  0  0  0  0  0
  182.4470  176.2850  139.4170 C   0  0  0  0  0  2  0  0  0  0  0  0
  185.5510  176.3030  136.4330 C   0  0  0  0  0  0  0  0  0  0  0  0
  182.6520  175.9880  135.9460 C   0  0  0  0  0  0  0  0  0  0  0  0
  182.0070  176.8720  138.0830 C   0  0  1  0  0  3  0  0  0  0  0  0
  182.4300  177.7920  139.2290 C   0  0  2  0  0  3  0  0  0  0  0  0
  188.9390  175.4960  136.4720 N   0  0  0  0  0  2  0  0  0  0  0  0
  190.7120  175.8440  138.0970 C   0  0  0  0  0  1  0  0  0  0  0  0
  186.2320  177.9900  138.4990 O   0  0  0  0  0  0  0  0  0  0  0  0
  184.8590  177.7260  138.2540 C   0  0  0  0  0  0  0  0  0  0  0  0
  184.4790  176.9100  137.2460 C   0  0  0  0  0  0  0  0  0  0  0  0
  186.8390  176.6920  136.5850 C   0  0  0  0  0  0  0  0  0  0  0  0
  185.5830  179.6120  142.0190 N   0  0  0  0  0  0  0  0  0  0  0  0
  184.3890  178.7350  140.4790 C   0  0  0  0  0  0  0  0  0  0  0  0
  184.6000  178.8540  142.5420 C   0  0  0  0  0  0  0  0  0  0  0  0
  183.8610  178.3160  141.6040 O   0  0  0  0  0  0  0  0  0  0  0  0
  185.4500  179.5360  140.7040 N   0  0  0  0  0  0  0  0  0  0  0  0
  185.3930  177.9810  144.7640 N   0  0  0  0  0  0  0  0  0  0  0  0
  184.3490  178.6780  144.0160 C   0  0  1  0  0  3  0  0  0  0  0  0
  185.2730  179.3620  144.7430 O   0  0  0  0  0  0  0  0  0  0  0  0
  186.5910  177.6580  143.9910 C   0  0  0  0  0  2  0  0  0  0  0  0
  187.7280  177.3220  144.9330 C   0  0  0  0  0  1  0  0  0  0  0  0
  189.1790  178.2170  139.1680 C   0  0  0  0  0  2  0  0  0  0  0  0
  188.6840  178.1450  140.5800 C   0  0  0  0  0  3  0  0  0  0  0  0
  189.4460  177.7320  141.5980 C   0  0  0  0  0  3  0  0  0  0  0  0
  190.8700  177.2870  141.4390 C   0  0  0  0  0  2  0  0  0  0  0  0
  191.5880  177.2990  142.7500 C   0  0  0  0  0  3  0  0  0  0  0  0
  191.4420  178.2260  143.5310 O   0  0  0  0  0  0  0  0  0  0  0  0
  1 16  1  1  0  0  0
  1  2  1  0  0  0  0
  2 31  1  6  0  0  0
  3 11  1  0  0  0  0
  4 14  1  0  0  0  0
  4 22  1  1  0  0  0
  5 19  1  0  0  0  0
  5 13  1  0  0  0  0
  6 12  2  0  0  0  0
  7  3  1  0  0  0  0
  7  9  2  0  0  0  0
  8 20  1  6  0  0  0
  8  2  1  0  0  0  0
  8 17  1  0  0  0  0
  9 15  1  0  0  0  0
  9 20  1  0  0  0  0
 11 20  2  0  0  0  0
 11 19  1  0  0  0  0
 12  5  2  0  0  0  0
 13 14  1  0  0  0  0
 13 10  1  1  0  0  0
 14 10  1  1  0  0  0
 15  1  1  0  0  0  0
 18 17  1  0  0  0  0
 18  4  1  0  0  0  0
 19 18  2  0  0  0  0
 21 23  2  0  0  0  0
 22 25  2  0  0  0  0
 22 24  1  0  0  0  0
 24 23  1  0  0  0  0
 25 21  1  0  0  0  0
 27 23  1  6  0  0  0
 27 28  1  0  0  0  0
 27 26  1  0  0  0  0
 28 26  1  0  0  0  0
 29 26  1  0  0  0  0
 29 30  1  0  0  0  0
 31 32  1  0  0  0  0
 32 33  2  0  0  0  0
 34 33  1  0  0  0  0
 34 35  1  0  0  0  0
 35 36  2  0  0  0  0
M  END
>  <MODEL>
9

>  <REMARK>
 VINA RESULT:      -7.2      2.905      7.026
  Name = 
  7 active torsions:
  status: ('A' for Active; 'I' for Inactive)
    1  A    between atoms: C_3  and  C_6
    2  A    between atoms: C_4  and  C_29
    3  A    between atoms: C_11  and  C_23
    4  A    between atoms: C_12  and  C_22
    5  A    between atoms: N_16  and  C_28
    6  A    between atoms: C_23  and  C_36
    7  A    between atoms: C_29  and  C_33
                            x       y       z     vdW  Elec       q    Type
                         _______ _______ _______ _____ _____    ______ ____

>  <TORSDO>
F 7

$$$$
