=
 OpenBabel10232410383D

 50 58  0  0  1  0  0  0  0  0999 V2000
  190.2700  177.1320  146.5070 C   0  0  0  0  0  3  0  0  0  0  0  0
  187.3820  178.6840  141.7200 O   0  0  0  0  0  1  0  0  0  0  0  0
  185.1010  178.6110  142.4450 C   0  0  0  0  0  0  0  0  0  0  0  0
  185.8900  177.6020  145.0670 C   0  0  1  0  0  3  0  0  0  0  0  0
  184.0120  179.2060  143.3550 C   0  0  0  0  0  2  0  0  0  0  0  0
  186.9260  177.6380  143.8990 C   0  0  1  0  0  3  0  0  0  0  0  0
  188.9450  176.8500  146.8500 C   0  0  0  0  0  3  0  0  0  0  0  0
  189.5640  177.9500  144.3170 C   0  0  0  0  0  0  0  0  0  0  0  0
  185.8360  179.5290  146.5370 O   0  0  0  0  0  0  0  0  0  0  0  0
  184.7530  177.9250  141.4090 N   0  0  0  0  0  0  0  0  0  0  0  0
  187.9590  177.1200  145.9150 C   0  0  0  0  0  0  0  0  0  0  0  0
  186.5760  176.9500  146.1610 N   0  0  0  0  0  2  0  0  0  0  0  0
  184.5220  179.7350  144.6140 N   0  0  0  0  0  2  0  0  0  0  0  0
  185.4200  178.9950  145.4700 C   0  0  0  0  0  0  0  0  0  0  0  0
  186.5690  178.7150  142.8540 C   0  0  1  0  0  3  0  0  0  0  0  0
  190.5720  177.7010  145.2600 C   0  0  0  0  0  3  0  0  0  0  0  0
  188.2320  177.6610  144.6680 C   0  0  0  0  0  0  0  0  0  0  0  0
  181.5550  177.7200  139.5480 N   0  0  0  0  0  0  0  0  0  0  0  0
  182.4090  178.7900  141.5910 C   0  0  0  0  0  2  0  0  0  0  0  0
  183.4860  176.3890  139.0890 O   0  0  0  0  0  1  0  0  0  0  0  0
  183.3300  177.6990  141.1350 C   0  0  1  0  0  3  0  0  0  0  0  0
  183.0220  177.5890  139.6680 C   0  0  2  0  0  3  0  0  0  0  0  0
  181.1710  178.5170  140.7420 C   0  0  0  0  0  2  0  0  0  0  0  0
  180.7930  176.4380  139.5710 C   0  0  1  0  0  3  0  0  0  0  0  0
  179.9830  176.1920  140.8680 C   0  0  0  0  0  1  0  0  0  0  0  0
  179.9940  176.1510  138.2740 C   0  0  2  0  0  3  0  0  0  0  0  0
  180.7320  176.5340  136.0350 C   0  0  0  0  0  2  0  0  0  0  0  0
  180.3350  174.8620  137.6560 N   0  0  0  0  0  2  0  0  0  0  0  0
  180.2790  177.2330  137.2870 C   0  0  0  0  0  2  0  0  0  0  0  0
  180.3420  175.1080  136.2320 C   0  0  0  0  0  2  0  0  0  0  0  0
  190.0450  178.7340  142.7610 S   0  0  0  0  0  0  0  0  0  0  0  0
  190.3500  176.6460  137.9490 C   0  0  0  0  0  2  0  0  0  0  0  0
  191.7790  176.8610  138.1470 N   0  0  0  0  0  0  0  0  0  0  0  0
  190.9510  177.3870  140.4480 C   0  0  1  0  0  0  0  0  0  0  0  0
  191.0700  177.4040  141.9770 C   0  0  2  0  0  3  0  0  0  0  0  0
  189.4990  177.7190  138.6470 C   0  0  1  0  0  3  0  0  0  0  0  0
  192.0720  176.7650  139.5830 C   0  0  0  0  0  2  0  0  0  0  0  0
  190.2390  176.3270  141.2750 C   0  0  0  0  0  2  0  0  0  0  0  0
  188.0810  177.1930  138.9050 C   0  0  0  0  0  1  0  0  0  0  0  0
  190.0470  178.2950  139.8240 O   0  0  0  0  0  0  0  0  0  0  0  0
  192.3960  175.7540  137.5000 N   0  0  0  0  0  2  0  0  0  0  0  0
  193.8370  175.9520  137.3180 C   0  0  1  0  0  3  0  0  0  0  0  0
  194.6530  174.7160  137.7770 C   0  0  2  0  0  3  0  0  0  0  0  0
  195.4700  175.1790  135.6830 C   0  0  2  0  0  3  0  0  0  0  0  0
  195.9100  174.8990  137.0630 N   0  0  0  0  0  0  0  0  0  0  0  0
  194.2850  176.1420  135.8610 C   0  0  0  0  0  2  0  0  0  0  0  0
  193.7670  173.2900  135.8090 C   0  0  0  0  0  2  0  0  0  0  0  0
  194.9340  173.8970  135.0040 C   0  0  0  0  0  2  0  0  0  0  0  0
  196.8520  173.7760  137.2050 C   0  0  0  0  0  1  0  0  0  0  0  0
  193.9900  173.3690  137.3360 C   0  0  0  0  0  2  0  0  0  0  0  0
  1  7  1  0  0  0  0
  3 15  1  0  0  0  0
  3  5  1  0  0  0  0
  4 14  1  1  0  0  0
  4 12  1  0  0  0  0
  5 13  1  0  0  0  0
  6 17  1  1  0  0  0
  6  4  1  0  0  0  0
  8 17  2  0  0  0  0
  8 16  1  0  0  0  0
 10  3  2  0  0  0  0
 11 12  1  0  0  0  0
 11  7  2  0  0  0  0
 13 14  1  0  0  0  0
 14  9  2  0  0  0  0
 15  2  1  6  0  0  0
 15  6  1  0  0  0  0
 16  1  2  0  0  0  0
 17 11  1  0  0  0  0
 18 24  1  0  0  0  0
 18 22  1  0  0  0  0
 18 23  1  0  0  0  0
 21 10  1  6  0  0  0
 21 19  1  0  0  0  0
 22 20  1  1  0  0  0
 22 21  1  0  0  0  0
 23 19  1  0  0  0  0
 24 25  1  1  0  0  0
 26 24  1  1  0  0  0
 27 30  1  0  0  0  0
 27 29  1  0  0  0  0
 28 26  1  0  0  0  0
 29 26  1  0  0  0  0
 30 28  1  0  0  0  0
 31  8  1  0  0  0  0
 32 33  1  0  0  0  0
 32 36  1  0  0  0  0
 33 37  1  0  0  0  0
 34 37  1  6  0  0  0
 34 38  1  0  0  0  0
 34 35  1  0  0  0  0
 35 31  1  1  0  0  0
 36 39  1  1  0  0  0
 36 40  1  0  0  0  0
 38 35  1  0  0  0  0
 40 34  1  0  0  0  0
 41 33  1  0  0  0  0
 42 41  1  6  0  0  0
 42 43  1  0  0  0  0
 43 50  1  6  0  0  0
 44 48  1  1  0  0  0
 44 46  1  0  0  0  0
 44 45  1  0  0  0  0
 45 49  1  0  0  0  0
 45 43  1  0  0  0  0
 46 42  1  0  0  0  0
 47 50  1  0  0  0  0
 48 47  1  0  0  0  0
M  END
>  <MODEL>
1

>  <REMARK>
 VINA RESULT:      -8.6      0.000      0.000
  Name = 
  7 active torsions:
  status: ('A' for Active; 'I' for Inactive)
    1  A    between atoms: C_1  and  C_28
    2  A    between atoms: N_3  and  C_28
    3  A    between atoms: C_5  and  N_12
    4  A    between atoms: N_6  and  N_12
    5  A    between atoms: C_10  and  S_21
    6  A    between atoms: C_20  and  S_21
    7  A    between atoms: N_27  and  C_38
                            x       y       z     vdW  Elec       q    Type
                         _______ _______ _______ _____ _____    ______ ____

>  <TORSDO>
F 7

$$$$
=
 OpenBabel10232410383D

 50 58  0  0  1  0  0  0  0  0999 V2000
  191.9150  173.4460  134.3460 C   0  0  0  0  0  3  0  0  0  0  0  0
  189.2620  176.9890  138.0970 O   0  0  0  0  0  1  0  0  0  0  0  0
  190.8730  177.1790  139.8580 C   0  0  0  0  0  0  0  0  0  0  0  0
  192.6380  175.2590  138.5500 C   0  0  1  0  0  3  0  0  0  0  0  0
  192.2620  177.6770  140.2940 C   0  0  0  0  0  2  0  0  0  0  0  0
  191.1700  175.4370  138.0500 C   0  0  1  0  0  3  0  0  0  0  0  0
  192.7360  173.3580  135.4740 C   0  0  0  0  0  3  0  0  0  0  0  0
  190.4570  175.0370  135.4880 C   0  0  0  0  0  0  0  0  0  0  0  0
  194.3350  176.5960  137.4500 O   0  0  0  0  0  0  0  0  0  0  0  0
  189.9770  176.9410  140.7560 N   0  0  0  0  0  0  0  0  0  0  0  0
  192.3930  174.1100  136.5870 C   0  0  0  0  0  0  0  0  0  0  0  0
  193.1750  174.1680  137.7660 N   0  0  0  0  0  2  0  0  0  0  0  0
  193.2530  177.6660  139.2250 N   0  0  0  0  0  2  0  0  0  0  0  0
  193.4720  176.5230  138.3690 C   0  0  0  0  0  0  0  0  0  0  0  0
  190.6170  176.8360  138.3920 C   0  0  1  0  0  3  0  0  0  0  0  0
  190.8010  174.2980  134.3470 C   0  0  0  0  0  3  0  0  0  0  0  0
  191.2850  174.9420  136.6220 C   0  0  0  0  0  0  0  0  0  0  0  0
  189.5840  177.7740  144.3450 N   0  0  0  0  0  0  0  0  0  0  0  0
  191.1000  178.3490  142.4960 C   0  0  0  0  0  2  0  0  0  0  0  0
  188.3760  176.0560  143.2050 O   0  0  0  0  0  1  0  0  0  0  0  0
  190.3070  177.1190  142.1740 C   0  0  1  0  0  3  0  0  0  0  0  0
  189.0940  177.2600  143.0490 C   0  0  2  0  0  3  0  0  0  0  0  0
  190.8300  178.5010  143.9900 C   0  0  0  0  0  2  0  0  0  0  0  0
  189.9150  176.7350  145.3620 C   0  0  1  0  0  3  0  0  0  0  0  0
  191.4020  176.7060  145.7930 C   0  0  0  0  0  1  0  0  0  0  0  0
  188.9210  176.6710  146.5510 C   0  0  2  0  0  3  0  0  0  0  0  0
  188.8170  178.1810  148.3990 C   0  0  0  0  0  2  0  0  0  0  0  0
  187.7580  177.5530  146.3820 N   0  0  0  0  0  2  0  0  0  0  0  0
  189.6380  177.0750  147.7950 C   0  0  0  0  0  2  0  0  0  0  0  0
  187.5050  178.1110  147.6910 C   0  0  0  0  0  2  0  0  0  0  0  0
  189.0350  176.1470  135.3740 S   0  0  0  0  0  0  0  0  0  0  0  0
  183.8180  176.1560  136.0030 C   0  0  0  0  0  2  0  0  0  0  0  0
  183.8330  175.7460  134.6030 N   0  0  0  0  0  0  0  0  0  0  0  0
  186.2770  175.5870  135.1150 C   0  0  1  0  0  0  0  0  0  0  0  0
  187.6690  174.9590  134.9750 C   0  0  2  0  0  3  0  0  0  0  0  0
  184.9840  177.0960  136.3460 C   0  0  1  0  0  3  0  0  0  0  0  0
  185.0710  174.9960  134.3490 C   0  0  0  0  0  2  0  0  0  0  0  0
  186.7830  174.6220  136.1770 C   0  0  0  0  0  2  0  0  0  0  0  0
  185.2760  177.0600  137.8520 C   0  0  0  0  0  1  0  0  0  0  0  0
  186.1780  176.9250  135.5950 O   0  0  0  0  0  0  0  0  0  0  0  0
  182.7430  174.8400  134.4870 N   0  0  0  0  0  2  0  0  0  0  0  0
  182.2650  174.3800  135.7930 C   0  0  1  0  0  3  0  0  0  0  0  0
  181.0050  173.4850  135.6670 C   0  0  2  0  0  3  0  0  0  0  0  0
  182.4130  172.2790  137.0190 C   0  0  2  0  0  3  0  0  0  0  0  0
  181.0200  172.7560  136.9290 N   0  0  0  0  0  0  0  0  0  0  0  0
  183.2480  173.4860  136.5650 C   0  0  0  0  0  2  0  0  0  0  0  0
  182.3640  171.5760  134.5720 C   0  0  0  0  0  2  0  0  0  0  0  0
  182.6680  171.1290  136.0170 C   0  0  0  0  0  2  0  0  0  0  0  0
  179.9900  171.7100  137.0320 C   0  0  0  0  0  1  0  0  0  0  0  0
  181.1120  172.4750  134.4760 C   0  0  0  0  0  2  0  0  0  0  0  0
  1 16  2  0  0  0  0
  1  7  1  0  0  0  0
  3  5  1  0  0  0  0
  3 10  2  0  0  0  0
  4 12  1  6  0  0  0
  6 17  1  6  0  0  0
  6 15  1  0  0  0  0
  6  4  1  0  0  0  0
  7 11  2  0  0  0  0
  8 17  2  0  0  0  0
  9 14  2  0  0  0  0
 11 17  1  0  0  0  0
 11 12  1  0  0  0  0
 13  5  1  0  0  0  0
 14  4  1  0  0  0  0
 14 13  1  0  0  0  0
 15  2  1  1  0  0  0
 15  3  1  0  0  0  0
 16  8  1  0  0  0  0
 18 24  1  0  0  0  0
 19 23  1  0  0  0  0
 21 10  1  6  0  0  0
 21 19  1  0  0  0  0
 21 22  1  0  0  0  0
 22 20  1  1  0  0  0
 22 18  1  0  0  0  0
 23 18  1  0  0  0  0
 24 25  1  1  0  0  0
 26 24  1  6  0  0  0
 26 29  1  0  0  0  0
 28 26  1  0  0  0  0
 28 30  1  0  0  0  0
 29 27  1  0  0  0  0
 30 27  1  0  0  0  0
 31  8  1  0  0  0  0
 32 36  1  0  0  0  0
 33 32  1  0  0  0  0
 34 37  1  6  0  0  0
 34 40  1  0  0  0  0
 34 38  1  0  0  0  0
 35 34  1  0  0  0  0
 35 31  1  1  0  0  0
 35 38  1  0  0  0  0
 36 39  1  1  0  0  0
 37 33  1  0  0  0  0
 40 36  1  0  0  0  0
 41 33  1  0  0  0  0
 42 41  1  6  0  0  0
 42 46  1  0  0  0  0
 43 50  1  6  0  0  0
 43 42  1  0  0  0  0
 43 45  1  0  0  0  0
 44 48  1  6  0  0  0
 45 44  1  0  0  0  0
 45 49  1  0  0  0  0
 46 44  1  0  0  0  0
 47 48  1  0  0  0  0
 50 47  1  0  0  0  0
M  END
>  <MODEL>
2

>  <REMARK>
 VINA RESULT:      -7.1      3.343     10.404
  Name = 
  7 active torsions:
  status: ('A' for Active; 'I' for Inactive)
    1  A    between atoms: C_1  and  C_28
    2  A    between atoms: N_3  and  C_28
    3  A    between atoms: C_5  and  N_12
    4  A    between atoms: N_6  and  N_12
    5  A    between atoms: C_10  and  S_21
    6  A    between atoms: C_20  and  S_21
    7  A    between atoms: N_27  and  C_38
                            x       y       z     vdW  Elec       q    Type
                         _______ _______ _______ _____ _____    ______ ____

>  <TORSDO>
F 7

$$$$
=
 OpenBabel10232410383D

 50 58  0  0  1  0  0  0  0  0999 V2000
  192.7800  177.6250  140.4300 C   0  0  0  0  0  3  0  0  0  0  0  0
  190.7350  175.1660  135.5890 O   0  0  0  0  0  1  0  0  0  0  0  0
  188.3720  175.4970  135.7990 C   0  0  0  0  0  0  0  0  0  0  0  0
  188.6990  176.6860  138.4430 C   0  0  1  0  0  3  0  0  0  0  0  0
  187.2040  176.4970  135.8440 C   0  0  0  0  0  2  0  0  0  0  0  0
  189.8950  175.9450  137.7660 C   0  0  1  0  0  3  0  0  0  0  0  0
  191.4030  177.5930  140.6680 C   0  0  0  0  0  3  0  0  0  0  0  0
  192.4590  176.6120  138.2320 C   0  0  0  0  0  0  0  0  0  0  0  0
  188.5590  179.0800  138.0900 O   0  0  0  0  0  0  0  0  0  0  0  0
  188.1350  174.2610  135.5150 N   0  0  0  0  0  0  0  0  0  0  0  0
  190.5850  177.0650  139.6810 C   0  0  0  0  0  0  0  0  0  0  0  0
  189.1720  177.0400  139.7640 N   0  0  0  0  0  2  0  0  0  0  0  0
  187.5580  177.7900  136.4170 N   0  0  0  0  0  2  0  0  0  0  0  0
  188.2690  177.9260  137.6670 C   0  0  0  0  0  0  0  0  0  0  0  0
  189.7690  175.9430  136.2300 C   0  0  1  0  0  3  0  0  0  0  0  0
  193.2980  177.1610  139.2120 C   0  0  0  0  0  3  0  0  0  0  0  0
  191.0730  176.5800  138.4780 C   0  0  0  0  0  0  0  0  0  0  0  0
  184.8440  172.6460  136.0590 N   0  0  0  0  0  0  0  0  0  0  0  0
  186.6080  172.6560  134.3460 C   0  0  0  0  0  2  0  0  0  0  0  0
  185.7310  174.4150  137.3990 O   0  0  0  0  0  1  0  0  0  0  0  0
  186.7560  173.8260  135.2710 C   0  0  1  0  0  3  0  0  0  0  0  0
  186.0530  173.3630  136.5160 C   0  0  2  0  0  3  0  0  0  0  0  0
  185.2100  172.1610  134.7030 C   0  0  0  0  0  2  0  0  0  0  0  0
  183.6110  173.4760  135.9480 C   0  0  1  0  0  3  0  0  0  0  0  0
  182.9900  173.5220  134.5290 C   0  0  0  0  0  1  0  0  0  0  0  0
  182.5730  173.2280  137.0730 C   0  0  2  0  0  3  0  0  0  0  0  0
  180.2600  173.8180  137.0290 C   0  0  0  0  0  2  0  0  0  0  0  0
  181.7750  172.0120  136.8660 N   0  0  0  0  0  2  0  0  0  0  0  0
  181.6450  174.3930  137.1330 C   0  0  0  0  0  2  0  0  0  0  0  0
  180.4340  172.3580  137.2800 C   0  0  0  0  0  2  0  0  0  0  0  0
  193.2140  176.0900  136.6740 S   0  0  0  0  0  0  0  0  0  0  0  0
  197.8550  173.6660  136.2440 C   0  0  0  0  0  2  0  0  0  0  0  0
  197.6000  173.3280  137.6410 N   0  0  0  0  0  0  0  0  0  0  0  0
  195.3840  174.3160  137.0350 C   0  0  1  0  0  0  0  0  0  0  0  0
  193.8550  174.4090  137.1180 C   0  0  2  0  0  3  0  0  0  0  0  0
  197.2730  175.0360  135.8620 C   0  0  1  0  0  3  0  0  0  0  0  0
  196.1480  173.2430  137.8440 C   0  0  0  0  0  2  0  0  0  0  0  0
  194.5260  173.6840  135.9500 C   0  0  0  0  0  2  0  0  0  0  0  0
  197.0520  175.1200  134.3460 C   0  0  0  0  0  1  0  0  0  0  0  0
  196.1110  175.4490  136.5660 O   0  0  0  0  0  0  0  0  0  0  0  0
  198.1400  172.0210  137.7930 N   0  0  0  0  0  2  0  0  0  0  0  0
  197.7640  171.1340  136.6890 C   0  0  1  0  0  3  0  0  0  0  0  0
  199.0030  170.5050  136.0030 C   0  0  2  0  0  3  0  0  0  0  0  0
  197.6250  168.7170  136.4150 C   0  0  2  0  0  3  0  0  0  0  0  0
  198.4280  169.3380  135.3460 N   0  0  0  0  0  0  0  0  0  0  0  0
  196.9330  169.9080  137.0980 C   0  0  0  0  0  2  0  0  0  0  0  0
  199.5230  169.0520  138.0790 C   0  0  0  0  0  2  0  0  0  0  0  0
  198.5350  168.0390  137.4660 C   0  0  0  0  0  2  0  0  0  0  0  0
  199.4210  168.4540  134.7130 C   0  0  0  0  0  1  0  0  0  0  0  0
  200.0840  170.0450  137.0380 C   0  0  0  0  0  2  0  0  0  0  0  0
  1  7  1  0  0  0  0
  3  5  1  0  0  0  0
  3 15  1  0  0  0  0
  4 14  1  6  0  0  0
  4 12  1  0  0  0  0
  5 13  1  0  0  0  0
  6  4  1  0  0  0  0
  6 17  1  6  0  0  0
  8 17  2  0  0  0  0
  8 16  1  0  0  0  0
 10  3  2  0  0  0  0
 11 12  1  0  0  0  0
 11  7  2  0  0  0  0
 13 14  1  0  0  0  0
 14  9  2  0  0  0  0
 15  2  1  6  0  0  0
 15  6  1  0  0  0  0
 16  1  2  0  0  0  0
 17 11  1  0  0  0  0
 18 22  1  0  0  0  0
 19 23  1  0  0  0  0
 19 21  1  0  0  0  0
 21 10  1  1  0  0  0
 21 22  1  0  0  0  0
 22 20  1  1  0  0  0
 23 18  1  0  0  0  0
 24 25  1  6  0  0  0
 24 18  1  0  0  0  0
 26 24  1  6  0  0  0
 26 29  1  0  0  0  0
 27 29  1  0  0  0  0
 27 30  1  0  0  0  0
 28 26  1  0  0  0  0
 28 30  1  0  0  0  0
 31  8  1  0  0  0  0
 32 33  1  0  0  0  0
 33 41  1  0  0  0  0
 33 37  1  0  0  0  0
 34 38  1  6  0  0  0
 34 35  1  0  0  0  0
 34 37  1  0  0  0  0
 35 31  1  6  0  0  0
 36 39  1  6  0  0  0
 36 32  1  0  0  0  0
 36 40  1  0  0  0  0
 38 35  1  0  0  0  0
 40 34  1  0  0  0  0
 42 46  1  0  0  0  0
 42 41  1  1  0  0  0
 43 42  1  0  0  0  0
 43 50  1  1  0  0  0
 44 46  1  1  0  0  0
 44 48  1  0  0  0  0
 45 43  1  0  0  0  0
 45 44  1  0  0  0  0
 48 47  1  0  0  0  0
 49 45  1  0  0  0  0
 50 47  1  0  0  0  0
M  END
>  <MODEL>
3

>  <REMARK>
 VINA RESULT:      -6.6      4.496      7.078
  Name = 
  7 active torsions:
  status: ('A' for Active; 'I' for Inactive)
    1  A    between atoms: C_1  and  C_28
    2  A    between atoms: N_3  and  C_28
    3  A    between atoms: C_5  and  N_12
    4  A    between atoms: N_6  and  N_12
    5  A    between atoms: C_10  and  S_21
    6  A    between atoms: C_20  and  S_21
    7  A    between atoms: N_27  and  C_38
                            x       y       z     vdW  Elec       q    Type
                         _______ _______ _______ _____ _____    ______ ____

>  <TORSDO>
F 7

$$$$
=
 OpenBabel10232410383D

 50 58  0  0  1  0  0  0  0  0999 V2000
  192.3770  177.5470  142.0550 C   0  0  0  0  0  3  0  0  0  0  0  0
  190.3090  176.1660  136.8130 O   0  0  0  0  0  1  0  0  0  0  0  0
  187.9420  176.3580  137.1230 C   0  0  0  0  0  0  0  0  0  0  0  0
  188.2870  176.9340  139.9630 C   0  0  1  0  0  3  0  0  0  0  0  0
  186.7440  177.2810  137.4080 C   0  0  0  0  0  2  0  0  0  0  0  0
  189.4910  176.4070  139.1200 C   0  0  1  0  0  3  0  0  0  0  0  0
  191.0080  177.4140  142.2980 C   0  0  0  0  0  3  0  0  0  0  0  0
  192.0420  177.0420  139.6900 C   0  0  0  0  0  0  0  0  0  0  0  0
  188.0650  179.3400  140.1590 O   0  0  0  0  0  0  0  0  0  0  0  0
  187.7380  175.2100  136.5720 N   0  0  0  0  0  0  0  0  0  0  0  0
  190.1860  177.0920  141.2290 C   0  0  0  0  0  0  0  0  0  0  0  0
  188.7770  176.9990  141.3230 N   0  0  0  0  0  2  0  0  0  0  0  0
  187.0700  178.4240  138.2530 N   0  0  0  0  0  2  0  0  0  0  0  0
  187.8020  178.3010  139.4920 C   0  0  0  0  0  0  0  0  0  0  0  0
  189.3330  176.7460  137.6240 C   0  0  1  0  0  3  0  0  0  0  0  0
  192.8840  177.3870  140.7570 C   0  0  0  0  0  3  0  0  0  0  0  0
  190.6630  176.9070  139.9410 C   0  0  0  0  0  0  0  0  0  0  0  0
  184.8730  173.0170  135.7260 N   0  0  0  0  0  0  0  0  0  0  0  0
  185.9300  175.0550  134.8460 C   0  0  0  0  0  2  0  0  0  0  0  0
  186.1390  172.8850  137.7490 O   0  0  0  0  0  1  0  0  0  0  0  0
  186.3680  174.7920  136.2540 C   0  0  1  0  0  3  0  0  0  0  0  0
  186.1520  173.3130  136.4050 C   0  0  2  0  0  3  0  0  0  0  0  0
  184.7530  174.0940  134.7100 C   0  0  0  0  0  2  0  0  0  0  0  0
  183.6630  173.0500  136.5970 C   0  0  1  0  0  3  0  0  0  0  0  0
  182.7180  174.2500  136.3410 C   0  0  0  0  0  1  0  0  0  0  0  0
  182.9260  171.6910  136.7130 C   0  0  2  0  0  3  0  0  0  0  0  0
  181.8550  170.4990  134.9420 C   0  0  0  0  0  2  0  0  0  0  0  0
  183.7630  170.5440  136.3350 N   0  0  0  0  0  2  0  0  0  0  0  0
  181.7340  171.7160  135.8170 C   0  0  0  0  0  2  0  0  0  0  0  0
  182.8890  169.6530  135.6070 C   0  0  0  0  0  2  0  0  0  0  0  0
  192.7800  176.9110  138.0450 S   0  0  0  0  0  0  0  0  0  0  0  0
  194.4590  173.2710  134.6480 C   0  0  0  0  0  2  0  0  0  0  0  0
  195.7180  173.4490  135.3640 N   0  0  0  0  0  0  0  0  0  0  0  0
  194.2040  174.7910  136.8340 C   0  0  1  0  0  0  0  0  0  0  0  0
  193.7330  175.3290  138.1920 C   0  0  2  0  0  3  0  0  0  0  0  0
  193.6430  174.5710  134.5760 C   0  0  1  0  0  3  0  0  0  0  0  0
  195.4180  173.8380  136.7480 C   0  0  0  0  0  2  0  0  0  0  0  0
  193.0320  174.1310  137.5460 C   0  0  0  0  0  2  0  0  0  0  0  0
  192.1580  174.2590  134.3460 C   0  0  0  0  0  1  0  0  0  0  0  0
  193.8070  175.4830  135.6530 O   0  0  0  0  0  0  0  0  0  0  0  0
  196.2960  172.1490  135.3910 N   0  0  0  0  0  2  0  0  0  0  0  0
  196.3770  171.6070  136.7500 C   0  0  1  0  0  3  0  0  0  0  0  0
  195.2820  170.5420  137.0150 C   0  0  2  0  0  3  0  0  0  0  0  0
  197.2220  169.5330  137.7110 C   0  0  2  0  0  3  0  0  0  0  0  0
  195.8380  169.8060  138.1430 N   0  0  0  0  0  0  0  0  0  0  0  0
  197.6770  170.8540  137.0700 C   0  0  0  0  0  2  0  0  0  0  0  0
  196.4000  168.8630  135.3950 C   0  0  0  0  0  2  0  0  0  0  0  0
  197.2520  168.4450  136.6120 C   0  0  0  0  0  2  0  0  0  0  0  0
  195.0570  168.6210  138.5320 C   0  0  0  0  0  1  0  0  0  0  0  0
  195.0900  169.5740  135.8000 C   0  0  0  0  0  2  0  0  0  0  0  0
  1  7  1  0  0  0  0
  3  5  1  0  0  0  0
  3 15  1  0  0  0  0
  4 14  1  6  0  0  0
  4 12  1  0  0  0  0
  5 13  1  0  0  0  0
  6 17  1  1  0  0  0
  6  4  1  0  0  0  0
  8 17  2  0  0  0  0
  8 16  1  0  0  0  0
 10  3  2  0  0  0  0
 11 12  1  0  0  0  0
 11  7  2  0  0  0  0
 13 14  1  0  0  0  0
 14  9  2  0  0  0  0
 15  2  1  6  0  0  0
 15  6  1  0  0  0  0
 16  1  2  0  0  0  0
 17 11  1  0  0  0  0
 18 22  1  0  0  0  0
 18 24  1  0  0  0  0
 19 21  1  0  0  0  0
 21 22  1  0  0  0  0
 21 10  1  6  0  0  0
 22 20  1  1  0  0  0
 23 19  1  0  0  0  0
 23 18  1  0  0  0  0
 24 25  1  6  0  0  0
 26 24  1  6  0  0  0
 27 30  1  0  0  0  0
 27 29  1  0  0  0  0
 28 26  1  0  0  0  0
 29 26  1  0  0  0  0
 30 28  1  0  0  0  0
 31  8  1  0  0  0  0
 32 33  1  0  0  0  0
 33 41  1  0  0  0  0
 33 37  1  0  0  0  0
 34 37  1  6  0  0  0
 34 38  1  0  0  0  0
 34 35  1  0  0  0  0
 35 31  1  6  0  0  0
 36 39  1  1  0  0  0
 36 32  1  0  0  0  0
 36 40  1  0  0  0  0
 38 35  1  0  0  0  0
 40 34  1  0  0  0  0
 42 41  1  6  0  0  0
 42 43  1  0  0  0  0
 42 46  1  0  0  0  0
 43 50  1  6  0  0  0
 43 45  1  0  0  0  0
 44 48  1  6  0  0  0
 44 45  1  0  0  0  0
 45 49  1  0  0  0  0
 46 44  1  0  0  0  0
 47 50  1  0  0  0  0
 47 48  1  0  0  0  0
M  END
>  <MODEL>
4

>  <REMARK>
 VINA RESULT:      -6.4      3.931      5.934
  Name = 
  7 active torsions:
  status: ('A' for Active; 'I' for Inactive)
    1  A    between atoms: C_1  and  C_28
    2  A    between atoms: N_3  and  C_28
    3  A    between atoms: C_5  and  N_12
    4  A    between atoms: N_6  and  N_12
    5  A    between atoms: C_10  and  S_21
    6  A    between atoms: C_20  and  S_21
    7  A    between atoms: N_27  and  C_38
                            x       y       z     vdW  Elec       q    Type
                         _______ _______ _______ _____ _____    ______ ____

>  <TORSDO>
F 7

$$$$
