=
 OpenBabel10232408363D

 28 33  0  0  1  0  0  0  0  0999 V2000
  195.2250  174.0910  135.5320 O   0  0  0  0  0  1  0  0  0  0  0  0
  188.7000  178.4760  139.7290 C   0  0  0  0  0  2  0  0  0  0  0  0
  192.1490  174.6730  137.3840 C   0  0  0  0  0  0  0  0  0  0  0  0
  187.5200  177.2940  135.5830 C   0  0  0  0  0  0  0  0  0  0  0  0
  194.1490  174.7260  136.1360 C   0  0  0  0  0  0  0  0  0  0  0  0
  190.8390  175.9650  138.0670 C   0  0  1  0  0  0  0  0  0  0  0  0
  189.0780  177.7630  137.3960 C   0  0  0  0  0  0  0  0  0  0  0  0
  189.4340  177.6090  140.7530 C   0  0  2  0  0  3  0  0  0  0  0  0
  193.1790  173.9470  136.8180 C   0  0  0  0  0  3  0  0  0  0  0  0
  188.0690  176.0230  135.4360 C   0  0  0  0  0  3  0  0  0  0  0  0
  189.1150  175.6160  136.2600 C   0  0  0  0  0  3  0  0  0  0  0  0
  192.9730  176.8640  136.6480 C   0  0  0  0  0  3  0  0  0  0  0  0
  189.9110  176.3000  140.1430 C   0  0  0  0  0  2  0  0  0  0  0  0
  186.4750  177.6910  134.7570 O   0  0  0  0  0  1  0  0  0  0  0  0
  189.6320  176.4600  137.2580 C   0  0  0  0  0  0  0  0  0  0  0  0
  187.4530  179.4290  136.6970 O   0  0  0  0  0  1  0  0  0  0  0  0
  189.5270  178.7100  138.4690 C   0  0  0  0  0  2  0  0  0  0  0  0
  188.0180  178.1640  136.5590 C   0  0  0  0  0  0  0  0  0  0  0  0
  194.0450  176.1520  136.0560 C   0  0  0  0  0  3  0  0  0  0  0  0
  190.9120  174.5440  138.1550 N   0  0  0  0  0  2  0  0  0  0  0  0
  192.0490  176.0720  137.3020 C   0  0  0  0  0  0  0  0  0  0  0  0
  191.0280  176.5640  139.3340 O   0  0  0  0  0  0  0  0  0  0  0  0
  188.5170  177.3080  141.9230 C   0  0  0  0  0  2  0  0  0  0  0  0
  189.8520  178.2220  143.6190 C   0  0  1  0  0  3  0  0  0  0  0  0
  189.3030  176.9630  143.0960 N   0  0  0  0  0  0  0  0  0  0  0  0
  189.4550  177.3270  145.5000 C   0  0  0  0  0  2  0  0  0  0  0  0
  188.6690  177.6300  144.2420 C   0  0  1  0  0  3  0  0  0  0  0  0
  190.6750  177.9370  144.8580 C   0  0  0  0  0  2  0  0  0  0  0  0
  1  5  1  0  0  0  0
  2  8  1  0  0  0  0
  3 20  1  0  0  0  0
  4 18  1  0  0  0  0
  5  9  1  0  0  0  0
  6 15  1  6  0  0  0
  6 20  1  0  0  0  0
  6 22  1  0  0  0  0
  7 17  1  0  0  0  0
  8 23  1  1  0  0  0
  9  3  2  0  0  0  0
 10  4  2  0  0  0  0
 10 11  1  0  0  0  0
 11 15  2  0  0  0  0
 12 21  2  0  0  0  0
 13  8  1  0  0  0  0
 14  4  1  0  0  0  0
 15  7  1  0  0  0  0
 17  2  1  0  0  0  0
 18 16  1  0  0  0  0
 18  7  2  0  0  0  0
 19  5  2  0  0  0  0
 19 12  1  0  0  0  0
 21  3  1  0  0  0  0
 21  6  1  0  0  0  0
 22 13  1  0  0  0  0
 23 25  1  0  0  0  0
 24 27  1  0  0  0  0
 24 28  1  1  0  0  0
 25 24  1  0  0  0  0
 25 27  1  0  0  0  0
 27 26  1  1  0  0  0
 28 26  1  0  0  0  0
M  END
>  <MODEL>
1

>  <REMARK>
 VINA RESULT:      -6.8      0.000      0.000
  Name = 
  2 active torsions:
  status: ('A' for Active; 'I' for Inactive)
    1  A    between atoms: N_3  and  C_10
    2  A    between atoms: C_10  and  C_12
                            x       y       z     vdW  Elec       q    Type
                         _______ _______ _______ _____ _____    ______ ____

>  <TORSDO>
F 2

$$$$
=
 OpenBabel10232408363D

 28 33  0  0  1  0  0  0  0  0999 V2000
  195.1000  173.9810  134.6490 O   0  0  0  0  0  1  0  0  0  0  0  0
  187.8090  177.7260  138.1460 C   0  0  0  0  0  2  0  0  0  0  0  0
  192.4380  174.6990  137.0210 C   0  0  0  0  0  0  0  0  0  0  0  0
  186.9450  173.7050  136.3980 C   0  0  0  0  0  0  0  0  0  0  0  0
  193.9330  174.4800  135.2120 C   0  0  0  0  0  0  0  0  0  0  0  0
  190.7360  175.6050  137.3860 C   0  0  1  0  0  0  0  0  0  0  0  0
  188.2210  175.7540  136.7200 C   0  0  0  0  0  0  0  0  0  0  0  0
  189.0090  178.1080  139.0130 C   0  0  2  0  0  3  0  0  0  0  0  0
  193.6180  174.1530  136.5560 C   0  0  0  0  0  3  0  0  0  0  0  0
  188.0630  172.9510  136.7430 C   0  0  0  0  0  3  0  0  0  0  0  0
  189.2560  173.5860  137.0760 C   0  0  0  0  0  3  0  0  0  0  0  0
  191.8720  175.8560  134.9320 C   0  0  0  0  0  3  0  0  0  0  0  0
  190.0320  176.9840  139.0850 C   0  0  0  0  0  2  0  0  0  0  0  0
  185.7580  173.0620  136.0680 O   0  0  0  0  0  1  0  0  0  0  0  0
  189.3620  174.9880  137.0870 C   0  0  0  0  0  0  0  0  0  0  0  0
  185.8890  175.8410  136.0460 O   0  0  0  0  0  1  0  0  0  0  0  0
  188.2240  177.2540  136.7570 C   0  0  0  0  0  2  0  0  0  0  0  0
  187.0180  175.1020  136.3870 C   0  0  0  0  0  0  0  0  0  0  0  0
  193.0780  175.3130  134.4210 C   0  0  0  0  0  3  0  0  0  0  0  0
  191.5630  174.7710  138.1920 N   0  0  0  0  0  2  0  0  0  0  0  0
  191.5990  175.5140  136.2420 C   0  0  0  0  0  0  0  0  0  0  0  0
  190.7290  176.9350  137.8660 O   0  0  0  0  0  0  0  0  0  0  0  0
  188.5430  178.4470  140.4170 C   0  0  0  0  0  2  0  0  0  0  0  0
  189.2310  177.8710  142.5830 C   0  0  1  0  0  3  0  0  0  0  0  0
  188.7670  177.3170  141.3020 N   0  0  0  0  0  0  0  0  0  0  0  0
  188.0300  176.3280  143.4030 C   0  0  0  0  0  2  0  0  0  0  0  0
  187.8330  177.4690  142.4270 C   0  0  1  0  0  3  0  0  0  0  0  0
  189.4700  176.7420  143.5630 C   0  0  0  0  0  2  0  0  0  0  0  0
  1  5  1  0  0  0  0
  2  8  1  0  0  0  0
  3 20  1  0  0  0  0
  4 10  1  0  0  0  0
  5  9  2  0  0  0  0
  6 21  1  6  0  0  0
  6 22  1  0  0  0  0
  6 20  1  0  0  0  0
  7 17  1  0  0  0  0
  7 15  2  0  0  0  0
  8 13  1  0  0  0  0
  8 23  1  1  0  0  0
  9  3  1  0  0  0  0
 10 11  2  0  0  0  0
 11 15  1  0  0  0  0
 12 21  1  0  0  0  0
 14  4  1  0  0  0  0
 15  6  1  0  0  0  0
 16 18  1  0  0  0  0
 17  2  1  0  0  0  0
 18  4  2  0  0  0  0
 18  7  1  0  0  0  0
 19 12  2  0  0  0  0
 19  5  1  0  0  0  0
 21  3  2  0  0  0  0
 22 13  1  0  0  0  0
 23 25  1  0  0  0  0
 24 28  1  1  0  0  0
 25 27  1  0  0  0  0
 25 24  1  0  0  0  0
 26 28  1  0  0  0  0
 27 24  1  0  0  0  0
 27 26  1  1  0  0  0
M  END
>  <MODEL>
2

>  <REMARK>
 VINA RESULT:      -6.7      1.773      2.271
  Name = 
  2 active torsions:
  status: ('A' for Active; 'I' for Inactive)
    1  A    between atoms: N_3  and  C_10
    2  A    between atoms: C_10  and  C_12
                            x       y       z     vdW  Elec       q    Type
                         _______ _______ _______ _____ _____    ______ ____

>  <TORSDO>
F 2

$$$$
=
 OpenBabel10232408363D

 28 33  0  0  1  0  0  0  0  0999 V2000
  195.4090  175.1350  136.4340 O   0  0  0  0  0  1  0  0  0  0  0  0
  186.7480  177.2120  136.7310 C   0  0  0  0  0  2  0  0  0  0  0  0
  191.9950  175.3580  137.6700 C   0  0  0  0  0  0  0  0  0  0  0  0
  187.4050  172.9710  135.4830 C   0  0  0  0  0  0  0  0  0  0  0  0
  194.0420  175.3720  136.5010 C   0  0  0  0  0  0  0  0  0  0  0  0
  190.1250  175.8360  137.3130 C   0  0  1  0  0  0  0  0  0  0  0  0
  188.0330  175.2940  135.8580 C   0  0  0  0  0  0  0  0  0  0  0  0
  187.4590  177.9530  137.8630 C   0  0  2  0  0  3  0  0  0  0  0  0
  193.3490  175.0880  137.7060 C   0  0  0  0  0  3  0  0  0  0  0  0
  188.4610  172.5530  136.2880 C   0  0  0  0  0  3  0  0  0  0  0  0
  189.3020  173.4920  136.8790 C   0  0  0  0  0  3  0  0  0  0  0  0
  191.9750  176.1590  135.3500 C   0  0  0  0  0  3  0  0  0  0  0  0
  188.6000  177.1300  138.4440 C   0  0  0  0  0  2  0  0  0  0  0  0
  186.5710  172.0260  134.8980 O   0  0  0  0  0  1  0  0  0  0  0  0
  189.1040  174.8720  136.6930 C   0  0  0  0  0  0  0  0  0  0  0  0
  186.1230  174.7380  134.4630 O   0  0  0  0  0  1  0  0  0  0  0  0
  187.7130  176.7450  135.6470 C   0  0  0  0  0  2  0  0  0  0  0  0
  187.1870  174.3360  135.2660 C   0  0  0  0  0  0  0  0  0  0  0  0
  193.3670  175.8950  135.3520 C   0  0  0  0  0  3  0  0  0  0  0  0
  190.7700  175.3060  138.4680 N   0  0  0  0  0  2  0  0  0  0  0  0
  191.3350  175.8700  136.5400 C   0  0  0  0  0  0  0  0  0  0  0  0
  189.6750  177.1570  137.5410 O   0  0  0  0  0  0  0  0  0  0  0  0
  186.4700  178.2800  138.9660 C   0  0  0  0  0  2  0  0  0  0  0  0
  184.1450  177.9810  139.0150 C   0  0  1  0  0  3  0  0  0  0  0  0
  185.2250  178.7610  138.3920 N   0  0  0  0  0  0  0  0  0  0  0  0
  183.1150  179.8340  138.9670 C   0  0  0  0  0  2  0  0  0  0  0  0
  184.4400  179.3300  139.4980 C   0  0  1  0  0  3  0  0  0  0  0  0
  182.8110  178.4440  138.4700 C   0  0  0  0  0  2  0  0  0  0  0  0
  1  5  1  0  0  0  0
  2  8  1  0  0  0  0
  3  9  1  0  0  0  0
  3 20  1  0  0  0  0
  4 10  1  0  0  0  0
  5  9  2  0  0  0  0
  6 21  1  6  0  0  0
  6 22  1  0  0  0  0
  6 20  1  0  0  0  0
  7 15  2  0  0  0  0
  8 13  1  0  0  0  0
  8 23  1  1  0  0  0
 10 11  2  0  0  0  0
 12 19  2  0  0  0  0
 12 21  1  0  0  0  0
 14  4  1  0  0  0  0
 15 11  1  0  0  0  0
 15  6  1  0  0  0  0
 16 18  1  0  0  0  0
 17  7  1  0  0  0  0
 17  2  1  0  0  0  0
 18  4  2  0  0  0  0
 18  7  1  0  0  0  0
 19  5  1  0  0  0  0
 21  3  2  0  0  0  0
 22 13  1  0  0  0  0
 24 28  1  6  0  0  0
 24 27  1  0  0  0  0
 25 23  1  0  0  0  0
 25 24  1  0  0  0  0
 25 27  1  0  0  0  0
 27 26  1  6  0  0  0
 28 26  1  0  0  0  0
M  END
>  <MODEL>
3

>  <REMARK>
 VINA RESULT:      -5.7      3.039      4.380
  Name = 
  2 active torsions:
  status: ('A' for Active; 'I' for Inactive)
    1  A    between atoms: N_3  and  C_10
    2  A    between atoms: C_10  and  C_12
                            x       y       z     vdW  Elec       q    Type
                         _______ _______ _______ _____ _____    ______ ____

>  <TORSDO>
F 2

$$$$
=
 OpenBabel10232408363D

 28 33  0  0  1  0  0  0  0  0999 V2000
  192.3530  176.8960  146.8090 O   0  0  0  0  0  1  0  0  0  0  0  0
  186.2410  179.0930  140.7070 C   0  0  0  0  0  2  0  0  0  0  0  0
  189.6570  176.5280  144.3970 C   0  0  0  0  0  0  0  0  0  0  0  0
  189.9030  177.3350  138.8440 C   0  0  0  0  0  0  0  0  0  0  0  0
  191.4330  177.1700  145.8060 C   0  0  0  0  0  0  0  0  0  0  0  0
  188.5640  177.3460  142.9860 C   0  0  1  0  0  0  0  0  0  0  0  0
  188.6100  178.4070  140.6070 C   0  0  0  0  0  0  0  0  0  0  0  0
  185.5160  178.5860  141.9540 C   0  0  2  0  0  3  0  0  0  0  0  0
  190.5300  176.1550  145.3980 C   0  0  0  0  0  3  0  0  0  0  0  0
  190.2590  176.3140  139.7210 C   0  0  0  0  0  3  0  0  0  0  0  0
  189.7970  176.3310  141.0350 C   0  0  0  0  0  3  0  0  0  0  0  0
  190.5070  178.8190  144.1810 C   0  0  0  0  0  3  0  0  0  0  0  0
  186.2950  177.4770  142.6450 C   0  0  0  0  0  2  0  0  0  0  0  0
  190.3680  177.3080  137.5350 O   0  0  0  0  0  1  0  0  0  0  0  0
  188.9600  177.3590  141.5030 C   0  0  0  0  0  0  0  0  0  0  0  0
  188.7290  179.3880  138.3880 O   0  0  0  0  0  1  0  0  0  0  0  0
  187.6770  179.5140  141.0020 C   0  0  0  0  0  2  0  0  0  0  0  0
  189.0800  178.3790  139.2800 C   0  0  0  0  0  0  0  0  0  0  0  0
  191.4190  178.4720  145.2090 C   0  0  0  0  0  3  0  0  0  0  0  0
  188.5620  176.0400  143.5560 N   0  0  0  0  0  2  0  0  0  0  0  0
  189.6460  177.8050  143.8110 C   0  0  0  0  0  0  0  0  0  0  0  0
  187.3840  178.0500  143.3210 O   0  0  0  0  0  0  0  0  0  0  0  0
  184.1410  178.0680  141.5750 C   0  0  0  0  0  2  0  0  0  0  0  0
  182.9180  177.7660  139.5980 C   0  0  1  0  0  3  0  0  0  0  0  0
  183.6580  178.7580  140.3910 N   0  0  0  0  0  0  0  0  0  0  0  0
  181.6190  179.3990  139.2210 C   0  0  0  0  0  2  0  0  0  0  0  0
  182.1890  178.7110  140.4440 C   0  0  1  0  0  3  0  0  0  0  0  0
  182.3700  178.4250  138.3500 C   0  0  0  0  0  2  0  0  0  0  0  0
  2 17  1  0  0  0  0
  2  8  1  0  0  0  0
  3  9  1  0  0  0  0
  4 18  2  0  0  0  0
  4 10  1  0  0  0  0
  5  1  1  0  0  0  0
  6 15  1  6  0  0  0
  6 22  1  0  0  0  0
  6 20  1  0  0  0  0
  6 21  1  0  0  0  0
  7 17  1  0  0  0  0
  7 15  2  0  0  0  0
  8 23  1  6  0  0  0
  8 13  1  0  0  0  0
  9  5  2  0  0  0  0
 10 11  2  0  0  0  0
 11 15  1  0  0  0  0
 12 19  2  0  0  0  0
 13 22  1  0  0  0  0
 14  4  1  0  0  0  0
 16 18  1  0  0  0  0
 18  7  1  0  0  0  0
 19  5  1  0  0  0  0
 20  3  1  0  0  0  0
 21 12  1  0  0  0  0
 21  3  2  0  0  0  0
 24 28  1  6  0  0  0
 24 25  1  0  0  0  0
 24 27  1  0  0  0  0
 25 27  1  0  0  0  0
 25 23  1  0  0  0  0
 27 26  1  6  0  0  0
 28 26  1  0  0  0  0
M  END
>  <MODEL>
4

>  <REMARK>
 VINA RESULT:      -5.5      3.612      6.800
  Name = 
  2 active torsions:
  status: ('A' for Active; 'I' for Inactive)
    1  A    between atoms: N_3  and  C_10
    2  A    between atoms: C_10  and  C_12
                            x       y       z     vdW  Elec       q    Type
                         _______ _______ _______ _____ _____    ______ ____

>  <TORSDO>
F 2

$$$$
=
 OpenBabel10232408363D

 28 33  0  0  1  0  0  0  0  0999 V2000
  190.3040  178.0880  144.7360 O   0  0  0  0  0  1  0  0  0  0  0  0
  190.2930  174.6000  136.5360 C   0  0  0  0  0  2  0  0  0  0  0  0
  191.1850  177.5820  141.2440 C   0  0  0  0  0  0  0  0  0  0  0  0
  187.9200  178.3810  136.7440 C   0  0  0  0  0  0  0  0  0  0  0  0
  190.2950  177.6300  143.4260 C   0  0  0  0  0  0  0  0  0  0  0  0
  190.7920  176.6850  139.5430 C   0  0  1  0  0  0  0  0  0  0  0  0
  189.0310  176.4090  137.6430 C   0  0  0  0  0  0  0  0  0  0  0  0
  191.6630  174.3440  137.1660 C   0  0  2  0  0  3  0  0  0  0  0  0
  191.2810  178.0980  142.5210 C   0  0  0  0  0  3  0  0  0  0  0  0
  188.6710  179.1930  137.5890 C   0  0  0  0  0  3  0  0  0  0  0  0
  189.5990  178.6250  138.4580 C   0  0  0  0  0  3  0  0  0  0  0  0
  189.2190  176.1870  141.6990 C   0  0  0  0  0  3  0  0  0  0  0  0
  192.0900  175.4910  138.0690 C   0  0  0  0  0  2  0  0  0  0  0  0
  186.9970  178.9570  135.8800 O   0  0  0  0  0  1  0  0  0  0  0  0
  189.8100  177.2360  138.4980 C   0  0  0  0  0  0  0  0  0  0  0  0
  187.3420  176.1960  135.9100 O   0  0  0  0  0  1  0  0  0  0  0  0
  189.2270  174.9230  137.5770 C   0  0  0  0  0  2  0  0  0  0  0  0
  188.0970  176.9930  136.7660 C   0  0  0  0  0  0  0  0  0  0  0  0
  189.2880  176.6950  143.0200 C   0  0  0  0  0  3  0  0  0  0  0  0
  191.7990  177.6220  139.9160 N   0  0  0  0  0  2  0  0  0  0  0  0
  190.1950  176.6670  140.8480 C   0  0  0  0  0  0  0  0  0  0  0  0
  191.3530  175.4180  139.2620 O   0  0  0  0  0  0  0  0  0  0  0  0
  192.7030  174.1530  136.0780 C   0  0  0  0  0  2  0  0  0  0  0  0
  194.8580  174.7170  135.3470 C   0  0  1  0  0  3  0  0  0  0  0  0
  193.7500  175.1520  136.2100 N   0  0  0  0  0  0  0  0  0  0  0  0
  195.0330  176.7920  134.9450 C   0  0  0  0  0  2  0  0  0  0  0  0
  193.9350  175.7510  134.8800 C   0  0  1  0  0  3  0  0  0  0  0  0
  195.9840  175.7260  135.4250 C   0  0  0  0  0  2  0  0  0  0  0  0
  2  8  1  0  0  0  0
  2 17  1  0  0  0  0
  3  9  1  0  0  0  0
  4 18  2  0  0  0  0
  4 10  1  0  0  0  0
  5  1  1  0  0  0  0
  6 15  1  6  0  0  0
  6 20  1  0  0  0  0
  6 21  1  0  0  0  0
  7 15  2  0  0  0  0
  8 23  1  6  0  0  0
  8 13  1  0  0  0  0
  9  5  2  0  0  0  0
 10 11  2  0  0  0  0
 11 15  1  0  0  0  0
 12 19  2  0  0  0  0
 13 22  1  0  0  0  0
 14  4  1  0  0  0  0
 16 18  1  0  0  0  0
 17  7  1  0  0  0  0
 18  7  1  0  0  0  0
 19  5  1  0  0  0  0
 20  3  1  0  0  0  0
 21  3  2  0  0  0  0
 21 12  1  0  0  0  0
 22  6  1  0  0  0  0
 23 25  1  0  0  0  0
 24 28  1  1  0  0  0
 24 25  1  0  0  0  0
 26 28  1  0  0  0  0
 27 26  1  1  0  0  0
 27 24  1  0  0  0  0
 27 25  1  0  0  0  0
M  END
>  <MODEL>
5

>  <REMARK>
 VINA RESULT:      -5.4      1.918      6.488
  Name = 
  2 active torsions:
  status: ('A' for Active; 'I' for Inactive)
    1  A    between atoms: N_3  and  C_10
    2  A    between atoms: C_10  and  C_12
                            x       y       z     vdW  Elec       q    Type
                         _______ _______ _______ _____ _____    ______ ____

>  <TORSDO>
F 2

$$$$
=
 OpenBabel10232408363D

 28 33  0  0  1  0  0  0  0  0999 V2000
  192.6810  175.9370  135.0770 O   0  0  0  0  0  1  0  0  0  0  0  0
  184.2310  177.6480  137.3310 C   0  0  0  0  0  2  0  0  0  0  0  0
  189.6840  176.2070  137.1200 C   0  0  0  0  0  0  0  0  0  0  0  0
  184.9110  173.2940  136.5890 C   0  0  0  0  0  0  0  0  0  0  0  0
  191.3610  176.1200  135.4650 C   0  0  0  0  0  0  0  0  0  0  0  0
  187.7510  176.5370  137.2000 C   0  0  1  0  0  0  0  0  0  0  0  0
  185.4130  175.6730  136.4420 C   0  0  0  0  0  0  0  0  0  0  0  0
  185.1390  178.5950  138.1160 C   0  0  2  0  0  3  0  0  0  0  0  0
  191.0210  176.0070  136.8380 C   0  0  0  0  0  3  0  0  0  0  0  0
  186.1680  173.0600  137.1410 C   0  0  0  0  0  3  0  0  0  0  0  0
  187.0470  174.1200  137.3470 C   0  0  0  0  0  3  0  0  0  0  0  0
  189.0110  176.6160  134.7960 C   0  0  0  0  0  3  0  0  0  0  0  0
  186.4550  177.9300  138.4900 C   0  0  0  0  0  2  0  0  0  0  0  0
  184.0410  172.2300  136.3890 O   0  0  0  0  0  1  0  0  0  0  0  0
  186.6920  175.4400  137.0180 C   0  0  0  0  0  0  0  0  0  0  0  0
  183.2680  174.8110  135.6950 O   0  0  0  0  0  1  0  0  0  0  0  0
  184.9280  177.0530  136.1120 C   0  0  0  0  0  2  0  0  0  0  0  0
  184.5300  174.5940  136.2400 C   0  0  0  0  0  0  0  0  0  0  0  0
  190.3750  176.4180  134.4700 C   0  0  0  0  0  3  0  0  0  0  0  0
  188.7090  176.2320  138.2110 N   0  0  0  0  0  2  0  0  0  0  0  0
  188.7190  176.4980  136.1410 C   0  0  0  0  0  0  0  0  0  0  0  0
  187.2610  177.8560  137.3430 O   0  0  0  0  0  0  0  0  0  0  0  0
  184.4360  179.0540  139.3800 C   0  0  0  0  0  2  0  0  0  0  0  0
  185.3000  179.4940  141.5140 C   0  0  1  0  0  3  0  0  0  0  0  0
  185.0390  178.4230  140.5420 N   0  0  0  0  0  0  0  0  0  0  0  0
  184.7010  178.0250  142.9210 C   0  0  0  0  0  2  0  0  0  0  0  0
  184.1200  178.6440  141.6680 C   0  0  1  0  0  3  0  0  0  0  0  0
  185.9170  178.9020  142.7630 C   0  0  0  0  0  2  0  0  0  0  0  0
  1  5  1  0  0  0  0
  2  8  1  0  0  0  0
  3 20  1  0  0  0  0
  4 10  1  0  0  0  0
  5  9  2  0  0  0  0
  6 21  1  6  0  0  0
  6 22  1  0  0  0  0
  6 20  1  0  0  0  0
  7 15  2  0  0  0  0
  8 13  1  0  0  0  0
  8 23  1  1  0  0  0
  9  3  1  0  0  0  0
 10 11  2  0  0  0  0
 12 21  1  0  0  0  0
 14  4  1  0  0  0  0
 15  6  1  0  0  0  0
 15 11  1  0  0  0  0
 16 18  1  0  0  0  0
 17  7  1  0  0  0  0
 17  2  1  0  0  0  0
 18  7  1  0  0  0  0
 18  4  2  0  0  0  0
 19 12  2  0  0  0  0
 19  5  1  0  0  0  0
 21  3  2  0  0  0  0
 22 13  1  0  0  0  0
 23 25  1  0  0  0  0
 24 27  1  0  0  0  0
 24 28  1  1  0  0  0
 25 24  1  0  0  0  0
 25 27  1  0  0  0  0
 27 26  1  1  0  0  0
 28 26  1  0  0  0  0
M  END
>  <MODEL>
6

>  <REMARK>
 VINA RESULT:      -5.2      3.331      4.502
  Name = 
  2 active torsions:
  status: ('A' for Active; 'I' for Inactive)
    1  A    between atoms: N_3  and  C_10
    2  A    between atoms: C_10  and  C_12
                            x       y       z     vdW  Elec       q    Type
                         _______ _______ _______ _____ _____    ______ ____

>  <TORSDO>
F 2

$$$$
=
 OpenBabel10232408363D

 28 33  0  0  1  0  0  0  0  0999 V2000
  185.7520  177.4100  134.8940 O   0  0  0  0  0  1  0  0  0  0  0  0
  193.9320  175.1980  137.6530 C   0  0  0  0  0  2  0  0  0  0  0  0
  188.4070  175.5660  136.5610 C   0  0  0  0  0  0  0  0  0  0  0  0
  191.6060  177.2960  140.8410 C   0  0  0  0  0  0  0  0  0  0  0  0
  186.9930  177.0590  135.4080 C   0  0  0  0  0  0  0  0  0  0  0  0
  190.2920  175.4900  137.1040 C   0  0  1  0  0  0  0  0  0  0  0  0
  192.1310  176.6210  138.5600 C   0  0  0  0  0  0  0  0  0  0  0  0
  193.4230  174.0950  136.7250 C   0  0  2  0  0  3  0  0  0  0  0  0
  187.1350  175.8220  136.0880 C   0  0  0  0  0  3  0  0  0  0  0  0
  190.3200  176.7820  140.7000 C   0  0  0  0  0  3  0  0  0  0  0  0
  189.9340  176.1890  139.5000 C   0  0  0  0  0  3  0  0  0  0  0  0
  189.3900  177.6590  135.7400 C   0  0  0  0  0  3  0  0  0  0  0  0
  191.9230  173.8870  136.8690 C   0  0  0  0  0  2  0  0  0  0  0  0
  191.9820  177.8850  142.0420 O   0  0  0  0  0  1  0  0  0  0  0  0
  190.8230  176.0830  138.4170 C   0  0  0  0  0  0  0  0  0  0  0  0
  193.7970  177.7310  139.9380 O   0  0  0  0  0  1  0  0  0  0  0  0
  193.1640  176.5040  137.4780 C   0  0  0  0  0  2  0  0  0  0  0  0
  192.5130  177.2170  139.7780 C   0  0  0  0  0  0  0  0  0  0  0  0
  188.0980  177.9540  135.2400 C   0  0  0  0  0  3  0  0  0  0  0  0
  189.2080  174.5840  137.2940 N   0  0  0  0  0  2  0  0  0  0  0  0
  189.4890  176.4470  136.3960 C   0  0  0  0  0  0  0  0  0  0  0  0
  191.2610  174.9480  136.2290 O   0  0  0  0  0  0  0  0  0  0  0  0
  194.1370  172.7930  137.0320 C   0  0  0  0  0  2  0  0  0  0  0  0
  196.3670  172.5510  137.7140 C   0  0  1  0  0  3  0  0  0  0  0  0
  195.5100  172.8540  136.5590 N   0  0  0  0  0  0  0  0  0  0  0  0
  197.5200  171.5080  136.2720 C   0  0  0  0  0  2  0  0  0  0  0  0
  196.0770  171.5080  136.7300 C   0  0  1  0  0  3  0  0  0  0  0  0
  197.8190  172.5820  137.2860 C   0  0  0  0  0  2  0  0  0  0  0  0
  1  5  1  0  0  0  0
  3 20  1  0  0  0  0
  4 14  1  0  0  0  0
  5  9  1  0  0  0  0
  6 22  1  6  0  0  0
  6 20  1  0  0  0  0
  6 15  1  0  0  0  0
  7 18  1  0  0  0  0
  8 13  1  0  0  0  0
  8 23  1  1  0  0  0
  8  2  1  0  0  0  0
  9  3  2  0  0  0  0
 10  4  1  0  0  0  0
 11 10  2  0  0  0  0
 12 21  2  0  0  0  0
 15  7  2  0  0  0  0
 15 11  1  0  0  0  0
 17  2  1  0  0  0  0
 17  7  1  0  0  0  0
 18 16  1  0  0  0  0
 18  4  2  0  0  0  0
 19  5  2  0  0  0  0
 19 12  1  0  0  0  0
 21  3  1  0  0  0  0
 21  6  1  0  0  0  0
 22 13  1  0  0  0  0
 24 28  1  6  0  0  0
 25 27  1  0  0  0  0
 25 23  1  0  0  0  0
 25 24  1  0  0  0  0
 26 28  1  0  0  0  0
 27 26  1  6  0  0  0
 27 24  1  0  0  0  0
M  END
>  <MODEL>
7

>  <REMARK>
 VINA RESULT:      -5.2      2.569      7.185
  Name = 
  2 active torsions:
  status: ('A' for Active; 'I' for Inactive)
    1  A    between atoms: N_3  and  C_10
    2  A    between atoms: C_10  and  C_12
                            x       y       z     vdW  Elec       q    Type
                         _______ _______ _______ _____ _____    ______ ____

>  <TORSDO>
F 2

$$$$
=
 OpenBabel10232408363D

 28 33  0  0  1  0  0  0  0  0999 V2000
  184.8110  177.3040  135.8250 O   0  0  0  0  0  1  0  0  0  0  0  0
  193.1130  174.1150  135.2540 C   0  0  0  0  0  2  0  0  0  0  0  0
  187.7250  175.2370  136.5060 C   0  0  0  0  0  0  0  0  0  0  0  0
  192.6130  176.8510  138.7520 C   0  0  0  0  0  0  0  0  0  0  0  0
  186.1100  176.8140  135.8270 C   0  0  0  0  0  0  0  0  0  0  0  0
  189.6410  174.9190  136.2240 C   0  0  1  0  0  0  0  0  0  0  0  0
  192.0320  175.8840  136.5930 C   0  0  0  0  0  0  0  0  0  0  0  0
  192.1450  173.0210  134.8030 C   0  0  2  0  0  3  0  0  0  0  0  0
  186.4060  175.6420  136.5690 C   0  0  0  0  0  3  0  0  0  0  0  0
  191.3470  176.5340  139.2380 C   0  0  0  0  0  3  0  0  0  0  0  0
  190.4240  175.8950  138.4140 C   0  0  0  0  0  3  0  0  0  0  0  0
  188.4630  177.0600  135.0390 C   0  0  0  0  0  3  0  0  0  0  0  0
  190.8410  173.0660  135.5850 C   0  0  0  0  0  2  0  0  0  0  0  0
  193.5270  177.4870  139.5830 O   0  0  0  0  0  1  0  0  0  0  0  0
  190.7430  175.5460  137.0900 C   0  0  0  0  0  0  0  0  0  0  0  0
  194.2320  176.8470  136.9680 O   0  0  0  0  0  1  0  0  0  0  0  0
  192.4800  175.5020  135.2130 C   0  0  0  0  0  2  0  0  0  0  0  0
  192.9600  176.5280  137.4360 C   0  0  0  0  0  0  0  0  0  0  0  0
  187.1180  177.5040  135.0800 C   0  0  0  0  0  3  0  0  0  0  0  0
  188.6600  174.2180  136.9840 N   0  0  0  0  0  2  0  0  0  0  0  0
  188.7120  175.9170  135.7730 C   0  0  0  0  0  0  0  0  0  0  0  0
  190.0780  174.1500  135.1210 O   0  0  0  0  0  0  0  0  0  0  0  0
  192.7870  171.6590  134.9840 C   0  0  0  0  0  2  0  0  0  0  0  0
  193.9280  170.3380  136.5500 C   0  0  1  0  0  3  0  0  0  0  0  0
  193.7750  171.7120  136.0490 N   0  0  0  0  0  0  0  0  0  0  0  0
  195.9730  170.8810  136.6930 C   0  0  0  0  0  2  0  0  0  0  0  0
  194.9100  170.8850  135.6140 C   0  0  1  0  0  3  0  0  0  0  0  0
  194.9600  170.3170  137.6570 C   0  0  0  0  0  2  0  0  0  0  0  0
  1  5  1  0  0  0  0
  3  9  1  0  0  0  0
  3 20  1  0  0  0  0
  4 10  1  0  0  0  0
  4 14  1  0  0  0  0
  5  9  2  0  0  0  0
  6 22  1  6  0  0  0
  6 20  1  0  0  0  0
  6 15  1  0  0  0  0
  7 15  2  0  0  0  0
  7 18  1  0  0  0  0
  8 23  1  1  0  0  0
  8  2  1  0  0  0  0
  8 13  1  0  0  0  0
 11 10  2  0  0  0  0
 12 19  2  0  0  0  0
 12 21  1  0  0  0  0
 15 11  1  0  0  0  0
 16 18  1  0  0  0  0
 17  2  1  0  0  0  0
 17  7  1  0  0  0  0
 18  4  2  0  0  0  0
 19  5  1  0  0  0  0
 21  6  1  0  0  0  0
 21  3  2  0  0  0  0
 22 13  1  0  0  0  0
 23 25  1  0  0  0  0
 24 28  1  1  0  0  0
 25 24  1  0  0  0  0
 26 28  1  0  0  0  0
 27 25  1  0  0  0  0
 27 24  1  0  0  0  0
 27 26  1  1  0  0  0
M  END
>  <MODEL>
8

>  <REMARK>
 VINA RESULT:      -5.1      3.226      7.501
  Name = 
  2 active torsions:
  status: ('A' for Active; 'I' for Inactive)
    1  A    between atoms: N_3  and  C_10
    2  A    between atoms: C_10  and  C_12
                            x       y       z     vdW  Elec       q    Type
                         _______ _______ _______ _____ _____    ______ ____

>  <TORSDO>
F 2

$$$$
=
 OpenBabel10232408363D

 28 33  0  0  1  0  0  0  0  0999 V2000
  184.7450  179.4720  144.8460 O   0  0  0  0  0  1  0  0  0  0  0  0
  182.6220  176.9300  136.5730 C   0  0  0  0  0  2  0  0  0  0  0  0
  184.8890  179.1860  141.2230 C   0  0  0  0  0  0  0  0  0  0  0  0
  181.1170  181.0360  137.4950 C   0  0  0  0  0  0  0  0  0  0  0  0
  184.4170  179.1640  143.5320 C   0  0  0  0  0  0  0  0  0  0  0  0
  184.0370  178.5610  139.5690 C   0  0  1  0  0  0  0  0  0  0  0  0
  181.9540  178.8110  138.0240 C   0  0  0  0  0  0  0  0  0  0  0  0
  184.0010  176.3640  136.9110 C   0  0  2  0  0  3  0  0  0  0  0  0
  185.3050  179.5380  142.4910 C   0  0  0  0  0  3  0  0  0  0  0  0
  182.1490  181.6040  138.2370 C   0  0  0  0  0  3  0  0  0  0  0  0
  183.0820  180.7880  138.8710 C   0  0  0  0  0  3  0  0  0  0  0  0
  182.7940  178.1310  141.9450 C   0  0  0  0  0  3  0  0  0  0  0  0
  184.7970  177.3130  137.7950 C   0  0  0  0  0  2  0  0  0  0  0  0
  180.1910  181.8580  136.8650 O   0  0  0  0  0  1  0  0  0  0  0  0
  183.0180  179.3870  138.7720 C   0  0  0  0  0  0  0  0  0  0  0  0
  179.9820  179.0930  136.6340 O   0  0  0  0  0  1  0  0  0  0  0  0
  181.8380  177.3290  137.8180 C   0  0  0  0  0  2  0  0  0  0  0  0
  181.0160  179.6450  137.3850 C   0  0  0  0  0  0  0  0  0  0  0  0
  183.1910  178.4760  143.2610 C   0  0  0  0  0  3  0  0  0  0  0  0
  185.2590  179.2540  139.8080 N   0  0  0  0  0  2  0  0  0  0  0  0
  183.6840  178.5130  140.9600 C   0  0  0  0  0  0  0  0  0  0  0  0
  184.2790  177.2490  139.0980 O   0  0  0  0  0  0  0  0  0  0  0  0
  184.7790  176.1040  135.6340 C   0  0  0  0  0  2  0  0  0  0  0  0
  186.8720  175.4620  134.7970 C   0  0  1  0  0  3  0  0  0  0  0  0
  186.2060  176.1740  135.8970 N   0  0  0  0  0  0  0  0  0  0  0  0
  188.3030  177.0150  134.9860 C   0  0  0  0  0  2  0  0  0  0  0  0
  186.8060  176.9230  134.7820 C   0  0  1  0  0  3  0  0  0  0  0  0
  188.3720  175.5100  135.0010 C   0  0  0  0  0  2  0  0  0  0  0  0
  2  8  1  0  0  0  0
  2 17  1  0  0  0  0
  3  9  1  0  0  0  0
  4 10  1  0  0  0  0
  5  1  1  0  0  0  0
  6 15  1  6  0  0  0
  6 20  1  0  0  0  0
  6 21  1  0  0  0  0
  7 15  2  0  0  0  0
  8 23  1  6  0  0  0
  8 13  1  0  0  0  0
  9  5  2  0  0  0  0
 10 11  2  0  0  0  0
 12 19  2  0  0  0  0
 13 22  1  0  0  0  0
 14  4  1  0  0  0  0
 15 11  1  0  0  0  0
 16 18  1  0  0  0  0
 17  7  1  0  0  0  0
 18  4  2  0  0  0  0
 18  7  1  0  0  0  0
 19  5  1  0  0  0  0
 20  3  1  0  0  0  0
 21  3  2  0  0  0  0
 21 12  1  0  0  0  0
 22  6  1  0  0  0  0
 23 25  1  0  0  0  0
 24 28  1  1  0  0  0
 24 25  1  0  0  0  0
 26 28  1  0  0  0  0
 27 24  1  0  0  0  0
 27 26  1  1  0  0  0
 27 25  1  0  0  0  0
M  END
>  <MODEL>
9

>  <REMARK>
 VINA RESULT:      -5.1      5.335      9.175
  Name = 
  2 active torsions:
  status: ('A' for Active; 'I' for Inactive)
    1  A    between atoms: N_3  and  C_10
    2  A    between atoms: C_10  and  C_12
                            x       y       z     vdW  Elec       q    Type
                         _______ _______ _______ _____ _____    ______ ____

>  <TORSDO>
F 2

$$$$
