=
 OpenBabel10232410343D

 50 57  0  0  1  0  0  0  0  0999 V2000
  190.1510  175.3100  137.5860 C   0  0  1  0  0  3  0  0  0  0  0  0
  190.3490  176.9100  139.2680 C   0  0  2  0  0  3  0  0  0  0  0  0
  189.7170  175.1420  136.1510 C   0  0  0  0  0  0  0  0  0  0  0  0
  188.3420  175.5600  135.7570 C   0  0  0  0  0  2  0  0  0  0  0  0
  191.5870  175.6470  137.7820 C   0  0  0  0  0  0  0  0  0  0  0  0
  189.3690  176.3300  138.3330 N   0  0  1  0  0  0  0  0  0  0  0  0
  187.9360  176.9240  136.3200 C   0  0  1  0  0  0  0  0  0  0  0  0
  190.4240  174.5620  135.3420 O   0  0  0  0  0  0  0  0  0  0  0  0
  188.9020  177.4150  137.4380 C   0  0  1  0  0  3  0  0  0  0  0  0
  191.6920  176.5370  138.7490 C   0  0  0  0  0  0  0  0  0  0  0  0
  187.9790  177.8350  135.2630 O   0  0  0  0  0  1  0  0  0  0  0  0
  192.7300  174.9690  137.0790 C   0  0  1  0  0  3  0  0  0  0  0  0
  193.5210  175.9540  136.3230 N   0  0  0  0  0  2  0  0  0  0  0  0
  196.6900  174.5540  135.9870 O   0  0  0  0  0  0  0  0  0  0  0  0
  196.7260  175.5360  134.9780 C   0  0  0  0  0  2  0  0  0  0  0  0
  195.3290  176.1280  134.8620 C   0  0  0  0  0  2  0  0  0  0  0  0
  195.4880  174.8310  136.6440 C   0  0  1  0  0  3  0  0  0  0  0  0
  194.5230  175.2370  135.6490 N   0  0  1  0  0  0  0  0  0  0  0  0
  193.6070  174.1740  138.0740 C   0  0  0  0  0  2  0  0  0  0  0  0
  194.9000  173.6640  137.4190 C   0  0  2  0  0  3  0  0  0  0  0  0
  195.7910  173.2440  138.4080 O   0  0  0  0  0  0  0  0  0  0  0  0
  195.9090  174.3390  139.2650 C   0  0  0  0  0  1  0  0  0  0  0  0
  186.5630  176.7890  136.8130 N   0  0  0  0  0  2  0  0  0  0  0  0
  184.3010  176.0950  136.6230 N   0  0  0  0  0  0  0  0  0  0  0  0
  184.1640  175.0520  134.5330 N   0  0  2  0  0  0  0  0  0  0  0  0
  185.5340  175.5350  134.7750 C   0  0  0  0  0  2  0  0  0  0  0  0
  185.4710  176.1770  136.1180 C   0  0  0  0  0  0  0  0  0  0  0  0
  183.4890  175.4330  135.7080 N   0  0  0  0  0  2  0  0  0  0  0  0
  182.9840  172.9980  135.2210 C   0  0  0  0  0  2  0  0  0  0  0  0
  185.4620  173.0500  135.1520 C   0  0  0  0  0  2  0  0  0  0  0  0
  182.9980  171.5400  135.1160 N   0  0  0  0  0  2  0  0  0  0  0  0
  185.4440  171.5240  135.1670 C   0  0  0  0  0  2  0  0  0  0  0  0
  184.1920  173.5880  134.4860 C   0  0  2  0  0  3  0  0  0  0  0  0
  184.1650  171.0350  135.8370 C   0  0  0  0  0  2  0  0  0  0  0  0
  188.3730  178.6420  138.1990 C   0  0  0  0  0  2  0  0  0  0  0  0
  188.8850  179.8220  137.6570 O   0  0  0  0  0  1  0  0  0  0  0  0
  192.9300  177.0890  139.2440 C   0  0  0  0  0  0  0  0  0  0  0  0
  193.9660  177.5480  139.6550 C   0  0  0  0  0  3  0  0  0  0  0  0
  190.1260  176.3370  140.6610 C   0  0  0  0  0  2  0  0  0  0  0  0
  189.9880  177.4580  141.6720 C   0  0  0  0  0  2  0  0  0  0  0  0
  188.8210  177.1690  142.5930 C   0  0  0  0  0  2  0  0  0  0  0  0
  190.7240  177.0060  144.3080 C   0  0  0  0  0  3  0  0  0  0  0  0
  188.8850  177.3510  146.3620 N   0  0  0  0  0  0  0  0  0  0  0  0
  186.9870  177.5130  144.9700 C   0  0  0  0  0  3  0  0  0  0  0  0
  189.2850  177.1450  144.0120 C   0  0  0  0  0  0  0  0  0  0  0  0
  186.6350  177.7070  146.4540 C   0  0  0  0  0  3  0  0  0  0  0  0
  191.1770  176.9550  145.5690 C   0  0  0  0  0  3  0  0  0  0  0  0
  187.8410  177.5080  147.2790 N   0  0  0  0  0  0  0  0  0  0  0  0
  190.2470  176.9920  146.7610 C   0  0  0  0  0  3  0  0  0  0  0  0
  188.4390  177.3150  145.0320 C   0  0  0  0  0  0  0  0  0  0  0  0
  1  3  1  6  0  0  0
  1  5  1  0  0  0  0
  1  6  1  0  0  0  0
  2 39  1  1  0  0  0
  4  3  1  0  0  0  0
  4  7  1  0  0  0  0
  5 10  2  0  0  0  0
  6  2  1  0  0  0  0
  7 23  1  0  0  0  0
  7  9  1  0  0  0  0
  8  3  2  0  0  0  0
  9 35  1  0  0  0  0
  9  6  1  0  0  0  0
 10 37  1  0  0  0  0
 10  2  1  0  0  0  0
 11  7  1  0  0  0  0
 12  5  1  0  0  0  0
 12 19  1  0  0  0  0
 13 12  1  0  0  0  0
 14 17  1  0  0  0  0
 15 14  1  0  0  0  0
 16 15  1  0  0  0  0
 16 18  1  0  0  0  0
 17 20  1  0  0  0  0
 18 13  1  0  0  0  0
 18 17  1  0  0  0  0
 20 19  1  0  0  0  0
 20 21  1  0  0  0  0
 21 22  1  0  0  0  0
 25 26  1  0  0  0  0
 25 28  1  0  0  0  0
 26 27  1  0  0  0  0
 27 24  2  0  0  0  0
 27 23  1  0  0  0  0
 28 24  1  0  0  0  0
 30 32  1  0  0  0  0
 31 29  1  0  0  0  0
 31 34  1  0  0  0  0
 32 34  1  0  0  0  0
 33 25  1  0  0  0  0
 33 30  1  0  0  0  0
 33 29  1  0  0  0  0
 36 35  1  0  0  0  0
 37 38  3  0  0  0  0
 39 40  1  0  0  0  0
 40 41  1  0  0  0  0
 41 45  1  0  0  0  0
 42 47  1  0  0  0  0
 43 49  1  0  0  0  0
 43 48  1  0  0  0  0
 44 50  2  0  0  0  0
 44 46  1  0  0  0  0
 45 42  2  0  0  0  0
 45 50  1  0  0  0  0
 46 48  2  0  0  0  0
 47 49  2  0  0  0  0
 50 43  1  0  0  0  0
M  END
>  <MODEL>
1

>  <REMARK>
 VINA RESULT:      -7.6      0.000      0.000
  Name = 
  10 active torsions:
  status: ('A' for Active; 'I' for Inactive)
    1  A    between atoms: C_1  and  C_44
    2  A    between atoms: C_3  and  C_46
    3  A    between atoms: C_4  and  C_27
    4  A    between atoms: N_5  and  C_29
    5  A    between atoms: C_9  and  C_26
    6  A    between atoms: C_12  and  C_27
    7  A    between atoms: C_12  and  C_31
    8  A    between atoms: N_18  and  C_41
    9  A    between atoms: C_20  and  C_31
   10  A    between atoms: O_33  and  C_49
                            x       y       z     vdW  Elec       q    Type
                         _______ _______ _______ _____ _____    ______ ____

>  <TORSDO>
F 10

$$$$
=
 OpenBabel10232410343D

 50 57  0  0  1  0  0  0  0  0999 V2000
  192.3110  176.8920  137.8310 C   0  0  1  0  0  3  0  0  0  0  0  0
  190.6790  175.8670  136.5240 C   0  0  2  0  0  3  0  0  0  0  0  0
  192.7610  177.0510  139.2630 C   0  0  0  0  0  0  0  0  0  0  0  0
  191.7920  177.5670  140.2720 C   0  0  0  0  0  2  0  0  0  0  0  0
  192.9130  175.7430  137.1000 C   0  0  0  0  0  0  0  0  0  0  0  0
  190.8390  176.7730  137.6750 N   0  0  1  0  0  0  0  0  0  0  0  0
  190.4100  176.9160  140.1750 C   0  0  1  0  0  0  0  0  0  0  0  0
  193.9270  176.8830  139.5810 O   0  0  0  0  0  0  0  0  0  0  0  0
  190.2220  176.1180  138.8530 C   0  0  1  0  0  3  0  0  0  0  0  0
  191.9870  175.1820  136.3470 C   0  0  0  0  0  0  0  0  0  0  0  0
  190.2960  176.0320  141.2500 O   0  0  0  0  0  1  0  0  0  0  0  0
  194.3710  175.3830  137.1200 C   0  0  1  0  0  3  0  0  0  0  0  0
  194.5480  173.9920  137.5710 N   0  0  0  0  0  2  0  0  0  0  0  0
  197.6060  172.9640  136.2650 O   0  0  0  0  0  0  0  0  0  0  0  0
  197.4120  172.0010  137.2760 C   0  0  0  0  0  2  0  0  0  0  0  0
  196.1910  172.4200  138.0820 C   0  0  0  0  0  2  0  0  0  0  0  0
  196.3890  173.6510  136.2570 C   0  0  1  0  0  3  0  0  0  0  0  0
  195.9310  173.7560  137.6230 N   0  0  1  0  0  0  0  0  0  0  0  0
  195.0270  175.6250  135.7410 C   0  0  0  0  0  2  0  0  0  0  0  0
  196.4530  175.0530  135.6750 C   0  0  2  0  0  3  0  0  0  0  0  0
  196.8750  175.0050  134.3460 O   0  0  0  0  0  0  0  0  0  0  0  0
  198.1470  175.5790  134.3580 C   0  0  0  0  0  1  0  0  0  0  0  0
  189.4240  177.9920  140.3030 N   0  0  0  0  0  2  0  0  0  0  0  0
  187.5630  179.0520  141.3270 N   0  0  0  0  0  0  0  0  0  0  0  0
  186.9650  177.6420  143.0960 N   0  0  2  0  0  0  0  0  0  0  0  0
  188.1210  177.0900  142.3700 C   0  0  0  0  0  2  0  0  0  0  0  0
  188.3810  178.0720  141.2800 C   0  0  0  0  0  0  0  0  0  0  0  0
  186.6980  178.8320  142.3950 N   0  0  0  0  0  2  0  0  0  0  0  0
  188.6190  177.1790  144.8670 C   0  0  0  0  0  2  0  0  0  0  0  0
  186.2790  177.7450  145.4610 C   0  0  0  0  0  2  0  0  0  0  0  0
  189.0710  177.5910  146.1940 N   0  0  0  0  0  2  0  0  0  0  0  0
  186.7660  178.0510  146.8740 C   0  0  0  0  0  2  0  0  0  0  0  0
  187.3980  178.0040  144.4480 C   0  0  2  0  0  3  0  0  0  0  0  0
  188.0310  177.2500  147.1640 C   0  0  0  0  0  2  0  0  0  0  0  0
  188.7660  175.6830  138.6100 C   0  0  0  0  0  2  0  0  0  0  0  0
  188.0160  176.7340  138.0780 O   0  0  0  0  0  1  0  0  0  0  0  0
  192.1960  174.0550  135.4710 C   0  0  0  0  0  0  0  0  0  0  0  0
  192.3720  173.1140  134.7380 C   0  0  0  0  0  3  0  0  0  0  0  0
  190.3170  176.6760  135.2850 C   0  0  0  0  0  2  0  0  0  0  0  0
  189.4660  175.8440  134.3470 C   0  0  0  0  0  2  0  0  0  0  0  0
  188.0370  175.8130  134.8500 C   0  0  0  0  0  2  0  0  0  0  0  0
  188.5570  173.2980  134.8740 C   0  0  0  0  0  3  0  0  0  0  0  0
  186.2320  172.8460  136.3280 N   0  0  0  0  0  0  0  0  0  0  0  0
  185.5520  175.1030  136.4150 C   0  0  0  0  0  3  0  0  0  0  0  0
  187.6590  174.4170  135.2230 C   0  0  0  0  0  0  0  0  0  0  0  0
  184.5990  174.1820  137.1940 C   0  0  0  0  0  3  0  0  0  0  0  0
  188.2400  172.0300  135.1700 C   0  0  0  0  0  3  0  0  0  0  0  0
  185.0250  172.7790  137.0310 N   0  0  0  0  0  0  0  0  0  0  0  0
  186.9330  171.6600  135.8340 C   0  0  0  0  0  3  0  0  0  0  0  0
  186.5560  174.1520  135.9280 C   0  0  0  0  0  0  0  0  0  0  0  0
  1  5  1  1  0  0  0
  1  3  1  0  0  0  0
  2 39  1  6  0  0  0
  2  6  1  0  0  0  0
  3  8  2  0  0  0  0
  3  4  1  0  0  0  0
  5 12  1  0  0  0  0
  6  1  1  0  0  0  0
  6  9  1  0  0  0  0
  7  4  1  0  0  0  0
  7 23  1  0  0  0  0
  7 11  1  0  0  0  0
  9  7  1  0  0  0  0
 10  2  1  0  0  0  0
 10  5  2  0  0  0  0
 12 13  1  0  0  0  0
 13 18  1  0  0  0  0
 14 15  1  0  0  0  0
 15 16  1  0  0  0  0
 17 14  1  0  0  0  0
 17 18  1  0  0  0  0
 18 16  1  0  0  0  0
 19 12  1  0  0  0  0
 20 19  1  0  0  0  0
 20 17  1  0  0  0  0
 21 22  1  0  0  0  0
 21 20  1  0  0  0  0
 23 27  1  0  0  0  0
 24 28  1  0  0  0  0
 25 33  1  0  0  0  0
 26 25  1  0  0  0  0
 27 24  2  0  0  0  0
 27 26  1  0  0  0  0
 28 25  1  0  0  0  0
 29 31  1  0  0  0  0
 30 32  1  0  0  0  0
 31 34  1  0  0  0  0
 32 34  1  0  0  0  0
 33 29  1  0  0  0  0
 33 30  1  0  0  0  0
 35  9  1  0  0  0  0
 36 35  1  0  0  0  0
 37 10  1  0  0  0  0
 38 37  3  0  0  0  0
 40 41  1  0  0  0  0
 40 39  1  0  0  0  0
 41 45  1  0  0  0  0
 42 47  1  0  0  0  0
 42 45  2  0  0  0  0
 43 48  1  0  0  0  0
 44 46  1  0  0  0  0
 45 50  1  0  0  0  0
 47 49  2  0  0  0  0
 48 46  2  0  0  0  0
 49 43  1  0  0  0  0
 50 43  1  0  0  0  0
 50 44  2  0  0  0  0
M  END
>  <MODEL>
2

>  <REMARK>
 VINA RESULT:      -7.1      2.256      7.599
  Name = 
  10 active torsions:
  status: ('A' for Active; 'I' for Inactive)
    1  A    between atoms: C_1  and  C_44
    2  A    between atoms: C_3  and  C_46
    3  A    between atoms: C_4  and  C_27
    4  A    between atoms: N_5  and  C_29
    5  A    between atoms: C_9  and  C_26
    6  A    between atoms: C_12  and  C_27
    7  A    between atoms: C_12  and  C_31
    8  A    between atoms: N_18  and  C_41
    9  A    between atoms: C_20  and  C_31
   10  A    between atoms: O_33  and  C_49
                            x       y       z     vdW  Elec       q    Type
                         _______ _______ _______ _____ _____    ______ ____

>  <TORSDO>
F 10

$$$$
=
 OpenBabel10232410343D

 50 57  0  0  1  0  0  0  0  0999 V2000
  187.5840  178.6230  138.4160 C   0  0  1  0  0  3  0  0  0  0  0  0
  187.9460  178.2490  140.6870 C   0  0  2  0  0  3  0  0  0  0  0  0
  187.7090  177.9590  137.0670 C   0  0  0  0  0  0  0  0  0  0  0  0
  189.0320  177.4130  136.6490 C   0  0  0  0  0  2  0  0  0  0  0  0
  186.2760  178.4320  139.1010 C   0  0  0  0  0  0  0  0  0  0  0  0
  188.6350  178.2160  139.3850 N   0  0  1  0  0  0  0  0  0  0  0  0
  189.7340  176.6130  137.7480 C   0  0  1  0  0  0  0  0  0  0  0  0
  186.7850  177.9690  136.2710 O   0  0  0  0  0  0  0  0  0  0  0  0
  189.0810  176.8230  139.1450 C   0  0  1  0  0  3  0  0  0  0  0  0
  186.4900  178.2420  140.3880 C   0  0  0  0  0  0  0  0  0  0  0  0
  189.6290  175.2630  137.4060 O   0  0  0  0  0  1  0  0  0  0  0  0
  184.9340  178.5760  138.4400 C   0  0  1  0  0  3  0  0  0  0  0  0
  184.2190  177.2890  138.4510 N   0  0  0  0  0  2  0  0  0  0  0  0
  180.8400  178.0920  138.2160 O   0  0  0  0  0  0  0  0  0  0  0  0
  180.8160  176.7340  137.8400 C   0  0  0  0  0  2  0  0  0  0  0  0
  182.2590  176.2700  137.7070 C   0  0  0  0  0  2  0  0  0  0  0  0
  182.1620  178.2740  138.6330 C   0  0  1  0  0  3  0  0  0  0  0  0
  183.0110  177.4930  137.7640 N   0  0  1  0  0  0  0  0  0  0  0  0
  184.1020  179.6980  139.1030 C   0  0  0  0  0  2  0  0  0  0  0  0
  182.6500  179.7110  138.5970 C   0  0  2  0  0  3  0  0  0  0  0  0
  181.8700  180.5070  139.4370 O   0  0  0  0  0  0  0  0  0  0  0  0
  181.4310  181.5540  138.6260 C   0  0  0  0  0  1  0  0  0  0  0  0
  191.1400  177.0240  137.7420 N   0  0  0  0  0  2  0  0  0  0  0  0
  193.4750  176.5950  137.7240 N   0  0  0  0  0  0  0  0  0  0  0  0
  193.6580  174.2620  137.6880 N   0  0  2  0  0  0  0  0  0  0  0  0
  192.2410  174.6630  137.7030 C   0  0  0  0  0  2  0  0  0  0  0  0
  192.2760  176.1530  137.7350 C   0  0  0  0  0  0  0  0  0  0  0  0
  194.3310  175.4980  137.6990 N   0  0  0  0  0  2  0  0  0  0  0  0
  192.6620  173.0090  135.8110 C   0  0  0  0  0  2  0  0  0  0  0  0
  194.9540  172.4760  136.5910 C   0  0  0  0  0  2  0  0  0  0  0  0
  192.9510  172.4090  134.5090 N   0  0  0  0  0  2  0  0  0  0  0  0
  195.1810  171.7510  135.2670 C   0  0  0  0  0  2  0  0  0  0  0  0
  193.9400  173.6080  136.4080 C   0  0  2  0  0  3  0  0  0  0  0  0
  193.8450  171.2710  134.7120 C   0  0  0  0  0  2  0  0  0  0  0  0
  189.9200  176.2490  140.2990 C   0  0  0  0  0  2  0  0  0  0  0  0
  190.9390  177.1330  140.6600 O   0  0  0  0  0  1  0  0  0  0  0  0
  185.4620  178.0460  141.3830 C   0  0  0  0  0  0  0  0  0  0  0  0
  184.6060  177.8830  142.2150 C   0  0  0  0  0  3  0  0  0  0  0  0
  188.3400  179.5120  141.4400 C   0  0  0  0  0  2  0  0  0  0  0  0
  188.9740  179.1530  142.7690 C   0  0  0  0  0  2  0  0  0  0  0  0
  188.6250  177.7230  143.1280 C   0  0  0  0  0  2  0  0  0  0  0  0
  187.1460  177.7450  145.2270 C   0  0  0  0  0  3  0  0  0  0  0  0
  189.3570  177.0840  146.7750 N   0  0  0  0  0  0  0  0  0  0  0  0
  190.8990  177.0240  144.9900 C   0  0  0  0  0  3  0  0  0  0  0  0
  188.4770  177.5900  144.6080 C   0  0  0  0  0  0  0  0  0  0  0  0
  191.5480  176.6370  146.3290 C   0  0  0  0  0  3  0  0  0  0  0  0
  186.9780  177.6570  146.5530 C   0  0  0  0  0  3  0  0  0  0  0  0
  190.5620  176.7770  147.4160 N   0  0  0  0  0  0  0  0  0  0  0  0
  188.1370  177.4400  147.5000 C   0  0  0  0  0  3  0  0  0  0  0  0
  189.5090  177.2660  145.3910 C   0  0  0  0  0  0  0  0  0  0  0  0
  1  3  1  6  0  0  0
  1  5  1  0  0  0  0
  1  6  1  0  0  0  0
  2 39  1  6  0  0  0
  4  3  1  0  0  0  0
  4  7  1  0  0  0  0
  5 10  2  0  0  0  0
  6  2  1  0  0  0  0
  7  9  1  0  0  0  0
  8  3  2  0  0  0  0
  9  6  1  0  0  0  0
  9 35  1  0  0  0  0
 10  2  1  0  0  0  0
 10 37  1  0  0  0  0
 11  7  1  0  0  0  0
 12 13  1  0  0  0  0
 12  5  1  0  0  0  0
 12 19  1  0  0  0  0
 14 17  1  0  0  0  0
 15 14  1  0  0  0  0
 16 18  1  0  0  0  0
 16 15  1  0  0  0  0
 18 13  1  0  0  0  0
 18 17  1  0  0  0  0
 20 17  1  0  0  0  0
 20 19  1  0  0  0  0
 20 21  1  0  0  0  0
 22 21  1  0  0  0  0
 23  7  1  0  0  0  0
 24 27  2  0  0  0  0
 25 28  1  0  0  0  0
 25 26  1  0  0  0  0
 26 27  1  0  0  0  0
 27 23  1  0  0  0  0
 28 24  1  0  0  0  0
 29 33  1  0  0  0  0
 31 34  1  0  0  0  0
 31 29  1  0  0  0  0
 32 30  1  0  0  0  0
 33 30  1  0  0  0  0
 33 25  1  0  0  0  0
 34 32  1  0  0  0  0
 35 36  1  0  0  0  0
 37 38  3  0  0  0  0
 39 40  1  0  0  0  0
 40 41  1  0  0  0  0
 41 45  1  0  0  0  0
 42 47  1  0  0  0  0
 43 48  1  0  0  0  0
 43 49  1  0  0  0  0
 44 50  2  0  0  0  0
 44 46  1  0  0  0  0
 45 42  2  0  0  0  0
 45 50  1  0  0  0  0
 46 48  2  0  0  0  0
 47 49  2  0  0  0  0
 50 43  1  0  0  0  0
M  END
>  <MODEL>
3

>  <REMARK>
 VINA RESULT:      -6.8      3.031      8.378
  Name = 
  10 active torsions:
  status: ('A' for Active; 'I' for Inactive)
    1  A    between atoms: C_1  and  C_44
    2  A    between atoms: C_3  and  C_46
    3  A    between atoms: C_4  and  C_27
    4  A    between atoms: N_5  and  C_29
    5  A    between atoms: C_9  and  C_26
    6  A    between atoms: C_12  and  C_27
    7  A    between atoms: C_12  and  C_31
    8  A    between atoms: N_18  and  C_41
    9  A    between atoms: C_20  and  C_31
   10  A    between atoms: O_33  and  C_49
                            x       y       z     vdW  Elec       q    Type
                         _______ _______ _______ _____ _____    ______ ____

>  <TORSDO>
F 10

$$$$
=
 OpenBabel10232410343D

 50 57  0  0  1  0  0  0  0  0999 V2000
  192.3380  176.9050  137.9110 C   0  0  1  0  0  3  0  0  0  0  0  0
  190.8070  176.0030  136.4050 C   0  0  2  0  0  3  0  0  0  0  0  0
  192.6820  176.9380  139.3800 C   0  0  0  0  0  0  0  0  0  0  0  0
  191.6410  177.3680  140.3570 C   0  0  0  0  0  2  0  0  0  0  0  0
  192.9930  175.8210  137.1290 C   0  0  0  0  0  0  0  0  0  0  0  0
  190.8810  176.8050  137.6380 N   0  0  1  0  0  0  0  0  0  0  0  0
  190.2710  176.7340  140.1040 C   0  0  1  0  0  0  0  0  0  0  0  0
  193.8220  176.7390  139.7660 O   0  0  0  0  0  0  0  0  0  0  0  0
  190.1810  176.0540  138.7070 C   0  0  1  0  0  3  0  0  0  0  0  0
  192.1260  175.3310  136.2640 C   0  0  0  0  0  0  0  0  0  0  0  0
  190.0810  175.7610  141.0870 O   0  0  0  0  0  1  0  0  0  0  0  0
  194.4480  175.4550  137.2240 C   0  0  1  0  0  3  0  0  0  0  0  0
  194.5940  174.0300  137.5640 N   0  0  0  0  0  2  0  0  0  0  0  0
  197.7420  173.1070  136.4000 O   0  0  0  0  0  0  0  0  0  0  0  0
  197.4770  172.0600  137.3060 C   0  0  0  0  0  2  0  0  0  0  0  0
  196.2000  172.4130  138.0540 C   0  0  0  0  0  2  0  0  0  0  0  0
  196.5280  173.7970  136.3630 C   0  0  1  0  0  3  0  0  0  0  0  0
  195.9710  173.7850  137.6960 N   0  0  1  0  0  0  0  0  0  0  0  0
  195.2020  175.8130  135.9230 C   0  0  0  0  0  2  0  0  0  0  0  0
  196.6300  175.2440  135.9110 C   0  0  2  0  0  3  0  0  0  0  0  0
  197.1480  175.3100  134.6170 O   0  0  0  0  0  0  0  0  0  0  0  0
  197.2500  176.6750  134.3460 C   0  0  0  0  0  1  0  0  0  0  0  0
  189.2760  177.7990  140.2520 N   0  0  0  0  0  2  0  0  0  0  0  0
  187.4540  178.8620  141.3420 N   0  0  0  0  0  0  0  0  0  0  0  0
  186.9740  177.4980  143.1810 N   0  0  2  0  0  0  0  0  0  0  0  0
  188.0990  176.9410  142.4120 C   0  0  0  0  0  2  0  0  0  0  0  0
  188.2840  177.8930  141.2810 C   0  0  0  0  0  0  0  0  0  0  0  0
  186.6510  178.6620  142.4600 N   0  0  0  0  0  2  0  0  0  0  0  0
  188.6810  177.0610  144.9080 C   0  0  0  0  0  2  0  0  0  0  0  0
  186.3870  177.7350  145.5640 C   0  0  0  0  0  2  0  0  0  0  0  0
  189.1990  177.5200  146.1960 N   0  0  0  0  0  2  0  0  0  0  0  0
  186.9390  178.0900  146.9410 C   0  0  0  0  0  2  0  0  0  0  0  0
  187.4720  177.9080  144.4970 C   0  0  2  0  0  3  0  0  0  0  0  0
  188.1870  177.2610  147.2200 C   0  0  0  0  0  2  0  0  0  0  0  0
  188.7480  175.6470  138.3230 C   0  0  0  0  0  2  0  0  0  0  0  0
  188.7380  174.4070  137.6810 O   0  0  0  0  0  1  0  0  0  0  0  0
  192.4010  174.2830  135.3120 C   0  0  0  0  0  0  0  0  0  0  0  0
  192.6340  173.4070  134.5170 C   0  0  0  0  0  3  0  0  0  0  0  0
  190.5350  176.9170  135.2180 C   0  0  0  0  0  2  0  0  0  0  0  0
  189.2680  176.4860  134.5040 C   0  0  0  0  0  2  0  0  0  0  0  0
  188.3420  177.6750  134.3500 C   0  0  0  0  0  2  0  0  0  0  0  0
  187.5990  178.5680  136.6400 C   0  0  0  0  0  3  0  0  0  0  0  0
  185.2610  177.0780  136.4470 N   0  0  0  0  0  0  0  0  0  0  0  0
  185.7490  176.1230  134.3460 C   0  0  0  0  0  3  0  0  0  0  0  0
  187.3560  177.7000  135.4710 C   0  0  0  0  0  0  0  0  0  0  0  0
  184.3650  175.7030  134.8650 C   0  0  0  0  0  3  0  0  0  0  0  0
  186.7490  178.5990  137.6760 C   0  0  0  0  0  3  0  0  0  0  0  0
  184.1530  176.2570  136.2150 N   0  0  0  0  0  0  0  0  0  0  0  0
  185.5190  177.7230  137.7350 C   0  0  0  0  0  3  0  0  0  0  0  0
  186.2150  177.0070  135.4190 C   0  0  0  0  0  0  0  0  0  0  0  0
  1  5  1  1  0  0  0
  1  3  1  0  0  0  0
  2 39  1  6  0  0  0
  2  6  1  0  0  0  0
  3  8  2  0  0  0  0
  3  4  1  0  0  0  0
  5 12  1  0  0  0  0
  6  1  1  0  0  0  0
  6  9  1  0  0  0  0
  7 23  1  0  0  0  0
  7  4  1  0  0  0  0
  7 11  1  0  0  0  0
  9  7  1  0  0  0  0
 10  2  1  0  0  0  0
 10  5  2  0  0  0  0
 12 13  1  0  0  0  0
 13 18  1  0  0  0  0
 14 15  1  0  0  0  0
 15 16  1  0  0  0  0
 17 14  1  0  0  0  0
 17 18  1  0  0  0  0
 18 16  1  0  0  0  0
 19 12  1  0  0  0  0
 20 19  1  0  0  0  0
 20 17  1  0  0  0  0
 21 20  1  0  0  0  0
 22 21  1  0  0  0  0
 23 27  1  0  0  0  0
 24 28  1  0  0  0  0
 25 33  1  0  0  0  0
 26 25  1  0  0  0  0
 27 24  2  0  0  0  0
 27 26  1  0  0  0  0
 28 25  1  0  0  0  0
 29 31  1  0  0  0  0
 30 32  1  0  0  0  0
 31 34  1  0  0  0  0
 32 34  1  0  0  0  0
 33 29  1  0  0  0  0
 33 30  1  0  0  0  0
 35  9  1  0  0  0  0
 36 35  1  0  0  0  0
 37 10  1  0  0  0  0
 38 37  3  0  0  0  0
 40 39  1  0  0  0  0
 41 40  1  0  0  0  0
 41 45  1  0  0  0  0
 42 47  1  0  0  0  0
 43 49  1  0  0  0  0
 44 46  1  0  0  0  0
 44 50  2  0  0  0  0
 45 42  2  0  0  0  0
 46 48  2  0  0  0  0
 47 49  2  0  0  0  0
 48 43  1  0  0  0  0
 50 45  1  0  0  0  0
 50 43  1  0  0  0  0
M  END
>  <MODEL>
4

>  <REMARK>
 VINA RESULT:      -6.8      2.205      7.507
  Name = 
  10 active torsions:
  status: ('A' for Active; 'I' for Inactive)
    1  A    between atoms: C_1  and  C_44
    2  A    between atoms: C_3  and  C_46
    3  A    between atoms: C_4  and  C_27
    4  A    between atoms: N_5  and  C_29
    5  A    between atoms: C_9  and  C_26
    6  A    between atoms: C_12  and  C_27
    7  A    between atoms: C_12  and  C_31
    8  A    between atoms: N_18  and  C_41
    9  A    between atoms: C_20  and  C_31
   10  A    between atoms: O_33  and  C_49
                            x       y       z     vdW  Elec       q    Type
                         _______ _______ _______ _____ _____    ______ ____

>  <TORSDO>
F 10

$$$$
=
 OpenBabel10232410343D

 50 57  0  0  1  0  0  0  0  0999 V2000
  185.0820  179.2010  139.5430 C   0  0  1  0  0  3  0  0  0  0  0  0
  182.7540  179.1350  139.5500 C   0  0  2  0  0  3  0  0  0  0  0  0
  186.2910  178.5890  140.2070 C   0  0  0  0  0  0  0  0  0  0  0  0
  186.4090  178.6490  141.6920 C   0  0  0  0  0  2  0  0  0  0  0  0
  184.6030  178.4980  138.3210 C   0  0  0  0  0  0  0  0  0  0  0  0
  183.9090  179.3380  140.4430 N   0  0  1  0  0  0  0  0  0  0  0  0
  185.1120  178.2870  142.4190 C   0  0  1  0  0  0  0  0  0  0  0  0
  187.2230  178.1580  139.5470 O   0  0  0  0  0  0  0  0  0  0  0  0
  183.8830  178.2640  141.4650 C   0  0  1  0  0  3  0  0  0  0  0  0
  183.2850  178.4840  138.3240 C   0  0  0  0  0  0  0  0  0  0  0  0
  185.2830  177.0100  142.9550 O   0  0  0  0  0  1  0  0  0  0  0  0
  185.4890  178.0140  137.2080 C   0  0  1  0  0  3  0  0  0  0  0  0
  186.8430  178.5730  137.3520 N   0  0  0  0  0  2  0  0  0  0  0  0
  188.9510  176.3740  135.6690 O   0  0  0  0  0  0  0  0  0  0  0  0
  189.7700  177.5180  135.7470 C   0  0  0  0  0  2  0  0  0  0  0  0
  188.9210  178.6540  136.2990 C   0  0  0  0  0  2  0  0  0  0  0  0
  187.8540  176.7250  136.4600 C   0  0  1  0  0  3  0  0  0  0  0  0
  187.5860  178.1280  136.2460 N   0  0  1  0  0  0  0  0  0  0  0  0
  185.5120  176.4700  137.1410 C   0  0  0  0  0  2  0  0  0  0  0  0
  186.5800  175.9530  136.1640 C   0  0  2  0  0  3  0  0  0  0  0  0
  186.7840  174.5880  136.3740 O   0  0  0  0  0  0  0  0  0  0  0  0
  185.7590  174.2070  137.2410 C   0  0  0  0  0  1  0  0  0  0  0  0
  184.9410  179.2650  143.4960 N   0  0  0  0  0  2  0  0  0  0  0  0
  185.1670  180.0110  145.7390 N   0  0  0  0  0  0  0  0  0  0  0  0
  186.2510  178.2590  146.8490 N   0  0  2  0  0  0  0  0  0  0  0  0
  186.0480  177.9170  145.4320 C   0  0  0  0  0  2  0  0  0  0  0  0
  185.3480  179.1020  144.8600 C   0  0  0  0  0  0  0  0  0  0  0  0
  185.6890  179.5460  146.9420 N   0  0  0  0  0  2  0  0  0  0  0  0
  188.4830  177.5110  146.1110 C   0  0  0  0  0  2  0  0  0  0  0  0
  188.0370  177.9240  148.5150 C   0  0  0  0  0  2  0  0  0  0  0  0
  189.9170  177.6850  146.3330 N   0  0  0  0  0  2  0  0  0  0  0  0
  189.5460  177.9780  148.7330 C   0  0  0  0  0  2  0  0  0  0  0  0
  187.6900  178.3790  147.0940 C   0  0  2  0  0  3  0  0  0  0  0  0
  190.2480  177.1590  147.6560 C   0  0  0  0  0  2  0  0  0  0  0  0
  182.5400  178.1690  142.2090 C   0  0  0  0  0  2  0  0  0  0  0  0
  182.1870  179.4030  142.7570 O   0  0  0  0  0  1  0  0  0  0  0  0
  182.4560  177.9130  137.2890 C   0  0  0  0  0  0  0  0  0  0  0  0
  181.7650  177.4360  136.4240 C   0  0  0  0  0  3  0  0  0  0  0  0
  182.1220  180.4810  139.2210 C   0  0  0  0  0  2  0  0  0  0  0  0
  180.6150  180.4000  139.3640 C   0  0  0  0  0  2  0  0  0  0  0  0
  179.9880  181.6860  138.8660 C   0  0  0  0  0  2  0  0  0  0  0  0
  179.9820  180.6240  136.5290 C   0  0  0  0  0  3  0  0  0  0  0  0
  180.5710  183.1010  135.4160 N   0  0  0  0  0  0  0  0  0  0  0  0
  180.6430  184.2790  137.4590 C   0  0  0  0  0  3  0  0  0  0  0  0
  180.1760  181.8070  137.3900 C   0  0  0  0  0  0  0  0  0  0  0  0
  180.8580  185.2040  136.2500 C   0  0  0  0  0  3  0  0  0  0  0  0
  180.1660  180.6870  135.2030 C   0  0  0  0  0  3  0  0  0  0  0  0
  180.8910  184.4010  135.0120 N   0  0  0  0  0  0  0  0  0  0  0  0
  180.6240  181.9510  134.5120 C   0  0  0  0  0  3  0  0  0  0  0  0
  180.4520  182.9780  136.8100 C   0  0  0  0  0  0  0  0  0  0  0  0
  1  5  1  6  0  0  0
  1  3  1  0  0  0  0
  1  6  1  0  0  0  0
  2 39  1  6  0  0  0
  2  6  1  0  0  0  0
  3  4  1  0  0  0  0
  4  7  1  0  0  0  0
  5 10  2  0  0  0  0
  6  9  1  0  0  0  0
  7 11  1  0  0  0  0
  7 23  1  0  0  0  0
  8  3  2  0  0  0  0
  9 35  1  0  0  0  0
  9  7  1  0  0  0  0
 10  2  1  0  0  0  0
 12 13  1  0  0  0  0
 12  5  1  0  0  0  0
 14 15  1  0  0  0  0
 14 17  1  0  0  0  0
 15 16  1  0  0  0  0
 18 16  1  0  0  0  0
 18 17  1  0  0  0  0
 18 13  1  0  0  0  0
 19 12  1  0  0  0  0
 20 21  1  0  0  0  0
 20 17  1  0  0  0  0
 20 19  1  0  0  0  0
 21 22  1  0  0  0  0
 23 27  1  0  0  0  0
 24 28  1  0  0  0  0
 25 28  1  0  0  0  0
 25 33  1  0  0  0  0
 26 25  1  0  0  0  0
 27 26  1  0  0  0  0
 27 24  2  0  0  0  0
 29 31  1  0  0  0  0
 29 33  1  0  0  0  0
 30 32  1  0  0  0  0
 31 34  1  0  0  0  0
 33 30  1  0  0  0  0
 34 32  1  0  0  0  0
 35 36  1  0  0  0  0
 37 10  1  0  0  0  0
 38 37  3  0  0  0  0
 39 40  1  0  0  0  0
 41 40  1  0  0  0  0
 42 45  2  0  0  0  0
 43 50  1  0  0  0  0
 45 41  1  0  0  0  0
 46 44  1  0  0  0  0
 47 42  1  0  0  0  0
 48 43  1  0  0  0  0
 48 46  2  0  0  0  0
 49 47  2  0  0  0  0
 49 43  1  0  0  0  0
 50 45  1  0  0  0  0
 50 44  2  0  0  0  0
M  END
>  <MODEL>
5

>  <REMARK>
 VINA RESULT:      -6.5      4.979     10.704
  Name = 
  10 active torsions:
  status: ('A' for Active; 'I' for Inactive)
    1  A    between atoms: C_1  and  C_44
    2  A    between atoms: C_3  and  C_46
    3  A    between atoms: C_4  and  C_27
    4  A    between atoms: N_5  and  C_29
    5  A    between atoms: C_9  and  C_26
    6  A    between atoms: C_12  and  C_27
    7  A    between atoms: C_12  and  C_31
    8  A    between atoms: N_18  and  C_41
    9  A    between atoms: C_20  and  C_31
   10  A    between atoms: O_33  and  C_49
                            x       y       z     vdW  Elec       q    Type
                         _______ _______ _______ _____ _____    ______ ____

>  <TORSDO>
F 10

$$$$
=
 OpenBabel10232410343D

 50 57  0  0  1  0  0  0  0  0999 V2000
  189.2130  176.4270  139.1580 C   0  0  1  0  0  3  0  0  0  0  0  0
  191.0670  175.7860  137.9030 C   0  0  2  0  0  3  0  0  0  0  0  0
  188.7770  177.4030  140.2230 C   0  0  0  0  0  0  0  0  0  0  0  0
  189.5220  177.4450  141.5140 C   0  0  0  0  0  2  0  0  0  0  0  0
  189.0480  176.8990  137.7560 C   0  0  0  0  0  0  0  0  0  0  0  0
  190.6230  175.9800  139.2950 N   0  0  1  0  0  0  0  0  0  0  0  0
  191.0420  177.4280  141.3400 C   0  0  1  0  0  0  0  0  0  0  0  0
  187.7620  178.0680  140.0940 O   0  0  0  0  0  0  0  0  0  0  0  0
  191.4700  177.0380  139.8950 C   0  0  1  0  0  3  0  0  0  0  0  0
  190.0920  176.5140  137.0490 C   0  0  0  0  0  0  0  0  0  0  0  0
  191.5010  178.7190  141.6060 O   0  0  0  0  0  1  0  0  0  0  0  0
  187.8210  177.5800  137.2190 C   0  0  1  0  0  3  0  0  0  0  0  0
  187.3370  176.8850  136.0150 N   0  0  0  0  0  2  0  0  0  0  0  0
  183.9510  177.6580  135.7840 O   0  0  0  0  0  0  0  0  0  0  0  0
  184.2120  177.2180  134.4710 C   0  0  0  0  0  2  0  0  0  0  0  0
  185.7140  177.0140  134.3460 C   0  0  0  0  0  2  0  0  0  0  0  0
  185.1420  177.3610  136.4520 C   0  0  1  0  0  3  0  0  0  0  0  0
  186.2340  177.6160  135.5420 N   0  0  1  0  0  0  0  0  0  0  0  0
  186.7210  177.6860  138.3000 C   0  0  0  0  0  2  0  0  0  0  0  0
  185.3850  178.1710  137.7140 C   0  0  2  0  0  3  0  0  0  0  0  0
  184.3620  177.9450  138.6360 O   0  0  0  0  0  0  0  0  0  0  0  0
  184.4780  178.9880  139.5560 C   0  0  0  0  0  1  0  0  0  0  0  0
  191.5740  176.4910  142.3320 N   0  0  0  0  0  2  0  0  0  0  0  0
  191.9820  175.7620  144.5550 N   0  0  0  0  0  0  0  0  0  0  0  0
  191.0170  177.4040  145.9140 N   0  0  2  0  0  0  0  0  0  0  0  0
  190.8320  177.7430  144.4930 C   0  0  0  0  0  2  0  0  0  0  0  0
  191.4960  176.6320  143.7550 C   0  0  0  0  0  0  0  0  0  0  0  0
  191.7200  176.1870  145.8530 N   0  0  0  0  0  2  0  0  0  0  0  0
  188.5840  177.6630  145.5940 C   0  0  0  0  0  2  0  0  0  0  0  0
  189.5680  177.8150  147.8650 C   0  0  0  0  0  2  0  0  0  0  0  0
  187.2790  177.3360  146.1660 N   0  0  0  0  0  2  0  0  0  0  0  0
  188.1680  177.5930  148.4300 C   0  0  0  0  0  2  0  0  0  0  0  0
  189.7010  177.1340  146.5000 C   0  0  2  0  0  3  0  0  0  0  0  0
  187.1280  178.0680  147.4220 C   0  0  0  0  0  2  0  0  0  0  0  0
  192.9760  176.7540  139.7650 C   0  0  0  0  0  2  0  0  0  0  0  0
  193.6920  177.9410  139.5990 O   0  0  0  0  0  1  0  0  0  0  0  0
  190.2810  176.7620  135.6400 C   0  0  0  0  0  0  0  0  0  0  0  0
  190.4390  176.9720  134.4630 C   0  0  0  0  0  3  0  0  0  0  0  0
  191.0740  174.2990  137.5730 C   0  0  0  0  0  2  0  0  0  0  0  0
  192.2100  173.9790  136.6220 C   0  0  0  0  0  2  0  0  0  0  0  0
  193.5350  174.1750  137.3300 C   0  0  0  0  0  2  0  0  0  0  0  0
  193.8860  175.9140  135.4730 C   0  0  0  0  0  3  0  0  0  0  0  0
  196.6300  175.7870  135.8920 N   0  0  0  0  0  0  0  0  0  0  0  0
  196.5440  174.1750  137.6120 C   0  0  0  0  0  3  0  0  0  0  0  0
  194.4500  174.9950  136.4800 C   0  0  0  0  0  0  0  0  0  0  0  0
  197.9790  174.6570  137.3420 C   0  0  0  0  0  3  0  0  0  0  0  0
  194.6750  176.6470  134.6760 C   0  0  0  0  0  3  0  0  0  0  0  0
  197.9800  175.5940  136.2020 N   0  0  0  0  0  0  0  0  0  0  0  0
  196.1830  176.5490  134.7240 C   0  0  0  0  0  3  0  0  0  0  0  0
  195.7750  174.9720  136.6500 C   0  0  0  0  0  0  0  0  0  0  0  0
  1  5  1  6  0  0  0
  1  6  1  0  0  0  0
  1  3  1  0  0  0  0
  2 39  1  6  0  0  0
  2  6  1  0  0  0  0
  3  4  1  0  0  0  0
  6  9  1  0  0  0  0
  7  4  1  0  0  0  0
  7 11  1  0  0  0  0
  7 23  1  0  0  0  0
  8  3  2  0  0  0  0
  9  7  1  0  0  0  0
 10  5  2  0  0  0  0
 10  2  1  0  0  0  0
 12  5  1  0  0  0  0
 12 19  1  0  0  0  0
 13 12  1  0  0  0  0
 14 17  1  0  0  0  0
 15 14  1  0  0  0  0
 16 15  1  0  0  0  0
 16 18  1  0  0  0  0
 17 20  1  0  0  0  0
 18 13  1  0  0  0  0
 18 17  1  0  0  0  0
 20 19  1  0  0  0  0
 20 21  1  0  0  0  0
 21 22  1  0  0  0  0
 23 27  1  0  0  0  0
 24 28  1  0  0  0  0
 25 33  1  0  0  0  0
 26 25  1  0  0  0  0
 27 26  1  0  0  0  0
 27 24  2  0  0  0  0
 28 25  1  0  0  0  0
 29 31  1  0  0  0  0
 29 33  1  0  0  0  0
 30 32  1  0  0  0  0
 31 34  1  0  0  0  0
 33 30  1  0  0  0  0
 34 32  1  0  0  0  0
 35  9  1  0  0  0  0
 36 35  1  0  0  0  0
 37 10  1  0  0  0  0
 38 37  3  0  0  0  0
 40 41  1  0  0  0  0
 40 39  1  0  0  0  0
 42 45  2  0  0  0  0
 43 48  1  0  0  0  0
 43 50  1  0  0  0  0
 45 50  1  0  0  0  0
 45 41  1  0  0  0  0
 46 44  1  0  0  0  0
 47 49  2  0  0  0  0
 47 42  1  0  0  0  0
 48 46  2  0  0  0  0
 49 43  1  0  0  0  0
 50 44  2  0  0  0  0
M  END
>  <MODEL>
6

>  <REMARK>
 VINA RESULT:      -6.4      2.820      9.906
  Name = 
  10 active torsions:
  status: ('A' for Active; 'I' for Inactive)
    1  A    between atoms: C_1  and  C_44
    2  A    between atoms: C_3  and  C_46
    3  A    between atoms: C_4  and  C_27
    4  A    between atoms: N_5  and  C_29
    5  A    between atoms: C_9  and  C_26
    6  A    between atoms: C_12  and  C_27
    7  A    between atoms: C_12  and  C_31
    8  A    between atoms: N_18  and  C_41
    9  A    between atoms: C_20  and  C_31
   10  A    between atoms: O_33  and  C_49
                            x       y       z     vdW  Elec       q    Type
                         _______ _______ _______ _____ _____    ______ ____

>  <TORSDO>
F 10

$$$$
=
 OpenBabel10232410343D

 50 57  0  0  1  0  0  0  0  0999 V2000
  186.1460  174.8780  137.3210 C   0  0  1  0  0  3  0  0  0  0  0  0
  185.8610  176.6940  135.8910 C   0  0  2  0  0  3  0  0  0  0  0  0
  185.9330  173.3860  137.4060 C   0  0  0  0  0  0  0  0  0  0  0  0
  184.5690  172.8360  137.1640 C   0  0  0  0  0  2  0  0  0  0  0  0
  187.4700  175.3030  136.7910 C   0  0  0  0  0  0  0  0  0  0  0  0
  185.1180  175.5850  136.5160 N   0  0  1  0  0  0  0  0  0  0  0  0
  183.8760  173.4440  135.9440 C   0  0  1  0  0  0  0  0  0  0  0  0
  186.8230  172.6420  137.7840 O   0  0  0  0  0  0  0  0  0  0  0  0
  184.5960  174.7240  135.4280 C   0  0  1  0  0  3  0  0  0  0  0  0
  187.3020  176.3440  136.0000 C   0  0  0  0  0  0  0  0  0  0  0  0
  183.9010  172.4810  134.9330 O   0  0  0  0  0  1  0  0  0  0  0  0
  188.7900  174.7180  137.2110 C   0  0  1  0  0  3  0  0  0  0  0  0
  189.4280  174.0310  136.0760 N   0  0  0  0  0  2  0  0  0  0  0  0
  192.8350  174.0090  136.7880 O   0  0  0  0  0  0  0  0  0  0  0  0
  192.7630  172.9990  135.8070 C   0  0  0  0  0  2  0  0  0  0  0  0
  191.2910  172.7460  135.5160 C   0  0  0  0  0  2  0  0  0  0  0  0
  191.5450  174.5470  136.7720 C   0  0  1  0  0  3  0  0  0  0  0  0
  190.6160  173.4620  136.5630 N   0  0  1  0  0  0  0  0  0  0  0  0
  189.7130  175.7980  137.8180 C   0  0  0  0  0  2  0  0  0  0  0  0
  191.1410  175.2730  138.0430 C   0  0  2  0  0  3  0  0  0  0  0  0
  192.0010  176.3460  138.2810 O   0  0  0  0  0  0  0  0  0  0  0  0
  191.4870  176.9650  139.4210 C   0  0  0  0  0  1  0  0  0  0  0  0
  182.4920  173.7240  136.3360 N   0  0  0  0  0  2  0  0  0  0  0  0
  180.8390  174.6380  137.7750 N   0  0  0  0  0  0  0  0  0  0  0  0
  182.0430  175.6550  139.5040 N   0  0  2  0  0  0  0  0  0  0  0  0
  182.9640  175.0410  138.5330 C   0  0  0  0  0  2  0  0  0  0  0  0
  182.0710  174.4300  137.5080 C   0  0  0  0  0  0  0  0  0  0  0  0
  180.7780  175.3630  138.9600 N   0  0  0  0  0  2  0  0  0  0  0  0
  181.1460  177.8170  140.2850 C   0  0  0  0  0  2  0  0  0  0  0  0
  182.1370  177.6210  138.0200 C   0  0  0  0  0  2  0  0  0  0  0  0
  181.3760  179.2600  140.2760 N   0  0  0  0  0  2  0  0  0  0  0  0
  182.2500  179.1420  137.9940 C   0  0  0  0  0  2  0  0  0  0  0  0
  182.2260  177.1080  139.4610 C   0  0  2  0  0  3  0  0  0  0  0  0
  181.1940  179.7490  138.9100 C   0  0  0  0  0  2  0  0  0  0  0  0
  183.7780  175.4990  134.3810 C   0  0  0  0  0  2  0  0  0  0  0  0
  182.9350  176.4270  134.9970 O   0  0  0  0  0  1  0  0  0  0  0  0
  188.3590  177.0530  135.3190 C   0  0  0  0  0  0  0  0  0  0  0  0
  189.2420  177.6470  134.7530 C   0  0  0  0  0  3  0  0  0  0  0  0
  185.5600  177.9900  136.6330 C   0  0  0  0  0  2  0  0  0  0  0  0
  186.4880  178.1400  137.8220 C   0  0  0  0  0  2  0  0  0  0  0  0
  185.7040  178.6400  139.0180 C   0  0  0  0  0  2  0  0  0  0  0  0
  187.9520  178.2720  140.2030 C   0  0  0  0  0  3  0  0  0  0  0  0
  186.6390  178.2350  142.6520 N   0  0  0  0  0  0  0  0  0  0  0  0
  184.4720  178.5510  141.7750 C   0  0  0  0  0  3  0  0  0  0  0  0
  186.4840  178.4100  140.2700 C   0  0  0  0  0  0  0  0  0  0  0  0
  184.4730  178.5010  143.3120 C   0  0  0  0  0  3  0  0  0  0  0  0
  188.6830  178.0410  141.3020 C   0  0  0  0  0  3  0  0  0  0  0  0
  185.8360  178.2140  143.7970 N   0  0  0  0  0  0  0  0  0  0  0  0
  188.0540  177.8620  142.6650 C   0  0  0  0  0  3  0  0  0  0  0  0
  185.8970  178.3920  141.4700 C   0  0  0  0  0  0  0  0  0  0  0  0
  1  5  1  6  0  0  0
  1  3  1  0  0  0  0
  2 10  1  0  0  0  0
  2  6  1  0  0  0  0
  2 39  1  1  0  0  0
  3  8  2  0  0  0  0
  4  3  1  0  0  0  0
  5 12  1  0  0  0  0
  6  1  1  0  0  0  0
  7 23  1  0  0  0  0
  7  4  1  0  0  0  0
  9  7  1  0  0  0  0
  9  6  1  0  0  0  0
 10  5  2  0  0  0  0
 11  7  1  0  0  0  0
 12 19  1  0  0  0  0
 13 18  1  0  0  0  0
 13 12  1  0  0  0  0
 15 14  1  0  0  0  0
 16 15  1  0  0  0  0
 16 18  1  0  0  0  0
 17 14  1  0  0  0  0
 17 20  1  0  0  0  0
 18 17  1  0  0  0  0
 19 20  1  0  0  0  0
 20 21  1  0  0  0  0
 21 22  1  0  0  0  0
 23 27  1  0  0  0  0
 24 28  1  0  0  0  0
 26 25  1  0  0  0  0
 27 24  2  0  0  0  0
 27 26  1  0  0  0  0
 28 25  1  0  0  0  0
 30 33  1  0  0  0  0
 31 29  1  0  0  0  0
 32 30  1  0  0  0  0
 32 34  1  0  0  0  0
 33 25  1  0  0  0  0
 33 29  1  0  0  0  0
 34 31  1  0  0  0  0
 35 36  1  0  0  0  0
 35  9  1  0  0  0  0
 37 10  1  0  0  0  0
 38 37  3  0  0  0  0
 39 40  1  0  0  0  0
 40 41  1  0  0  0  0
 41 45  1  0  0  0  0
 42 45  2  0  0  0  0
 42 47  1  0  0  0  0
 43 49  1  0  0  0  0
 43 48  1  0  0  0  0
 44 46  1  0  0  0  0
 45 50  1  0  0  0  0
 46 48  2  0  0  0  0
 47 49  2  0  0  0  0
 50 44  2  0  0  0  0
 50 43  1  0  0  0  0
M  END
>  <MODEL>
7

>  <REMARK>
 VINA RESULT:      -6.3      3.281      5.455
  Name = 
  10 active torsions:
  status: ('A' for Active; 'I' for Inactive)
    1  A    between atoms: C_1  and  C_44
    2  A    between atoms: C_3  and  C_46
    3  A    between atoms: C_4  and  C_27
    4  A    between atoms: N_5  and  C_29
    5  A    between atoms: C_9  and  C_26
    6  A    between atoms: C_12  and  C_27
    7  A    between atoms: C_12  and  C_31
    8  A    between atoms: N_18  and  C_41
    9  A    between atoms: C_20  and  C_31
   10  A    between atoms: O_33  and  C_49
                            x       y       z     vdW  Elec       q    Type
                         _______ _______ _______ _____ _____    ______ ____

>  <TORSDO>
F 10

$$$$
=
 OpenBabel10232410343D

 50 57  0  0  1  0  0  0  0  0999 V2000
  186.0120  175.7950  137.7560 C   0  0  1  0  0  3  0  0  0  0  0  0
  185.6490  177.9690  137.0030 C   0  0  2  0  0  3  0  0  0  0  0  0
  186.0080  174.3590  137.2900 C   0  0  0  0  0  0  0  0  0  0  0  0
  184.7780  173.8100  136.6510 C   0  0  0  0  0  2  0  0  0  0  0  0
  187.3170  176.4990  137.6320 C   0  0  0  0  0  0  0  0  0  0  0  0
  185.0010  176.6470  137.0780 N   0  0  1  0  0  0  0  0  0  0  0  0
  184.1620  174.7500  135.6120 C   0  0  1  0  0  0  0  0  0  0  0  0
  186.9410  173.6130  137.5370 O   0  0  0  0  0  0  0  0  0  0  0  0
  184.7490  176.1890  135.6920 C   0  0  1  0  0  3  0  0  0  0  0  0
  187.1010  177.7350  137.2260 C   0  0  0  0  0  0  0  0  0  0  0  0
  184.4520  174.2200  134.3530 O   0  0  0  0  0  1  0  0  0  0  0  0
  188.6440  175.9250  138.0420 C   0  0  1  0  0  3  0  0  0  0  0  0
  189.5130  175.7560  136.8660 N   0  0  0  0  0  2  0  0  0  0  0  0
  192.7700  175.7900  138.0940 O   0  0  0  0  0  0  0  0  0  0  0  0
  192.9700  175.2000  136.8290 C   0  0  0  0  0  2  0  0  0  0  0  0
  191.5990  174.9360  136.2240 C   0  0  0  0  0  2  0  0  0  0  0  0
  191.4280  176.1770  138.0450 C   0  0  1  0  0  3  0  0  0  0  0  0
  190.7000  175.1600  137.3220 N   0  0  1  0  0  0  0  0  0  0  0  0
  189.3170  176.7930  139.1310 C   0  0  0  0  0  2  0  0  0  0  0  0
  190.7660  176.3540  139.4000 C   0  0  2  0  0  3  0  0  0  0  0  0
  191.4240  177.3420  140.1340 O   0  0  0  0  0  0  0  0  0  0  0  0
  191.0000  177.1480  141.4490 C   0  0  0  0  0  1  0  0  0  0  0  0
  182.7150  174.7430  135.8380 N   0  0  0  0  0  2  0  0  0  0  0  0
  180.7800  174.9400  137.2000 N   0  0  0  0  0  0  0  0  0  0  0  0
  181.5980  175.4020  139.3430 N   0  0  2  0  0  0  0  0  0  0  0  0
  182.7120  175.2540  138.3920 C   0  0  0  0  0  2  0  0  0  0  0  0
  182.0530  174.9560  137.0900 C   0  0  0  0  0  0  0  0  0  0  0  0
  180.4670  175.1990  138.5310 N   0  0  0  0  0  2  0  0  0  0  0  0
  180.3470  177.0410  140.6980 C   0  0  0  0  0  2  0  0  0  0  0  0
  181.5060  177.7590  138.6270 C   0  0  0  0  0  2  0  0  0  0  0  0
  180.3660  178.4130  141.2010 N   0  0  0  0  0  2  0  0  0  0  0  0
  181.3990  179.1970  139.1270 C   0  0  0  0  0  2  0  0  0  0  0  0
  181.5710  176.7900  139.8120 C   0  0  2  0  0  3  0  0  0  0  0  0
  180.2070  179.3230  140.0680 C   0  0  0  0  0  2  0  0  0  0  0  0
  183.9650  177.2100  134.8500 C   0  0  0  0  0  2  0  0  0  0  0  0
  182.8440  177.6700  135.5430 O   0  0  0  0  0  1  0  0  0  0  0  0
  188.1210  178.7340  137.0150 C   0  0  0  0  0  0  0  0  0  0  0  0
  188.9720  179.5690  136.8370 C   0  0  0  0  0  3  0  0  0  0  0  0
  185.0740  178.8800  138.0790 C   0  0  0  0  0  2  0  0  0  0  0  0
  184.9620  178.1320  139.3930 C   0  0  0  0  0  2  0  0  0  0  0  0
  185.9080  178.7420  140.4070 C   0  0  0  0  0  2  0  0  0  0  0  0
  183.9060  178.9110  142.0070 C   0  0  0  0  0  3  0  0  0  0  0  0
  185.5070  177.9910  144.0840 N   0  0  0  0  0  0  0  0  0  0  0  0
  187.4750  177.7740  142.8020 C   0  0  0  0  0  3  0  0  0  0  0  0
  185.3340  178.6140  141.7800 C   0  0  0  0  0  0  0  0  0  0  0  0
  187.6740  177.3050  144.2530 C   0  0  0  0  0  3  0  0  0  0  0  0
  183.3620  178.8310  143.2290 C   0  0  0  0  0  3  0  0  0  0  0  0
  186.4410  177.5450  145.0250 N   0  0  0  0  0  0  0  0  0  0  0  0
  184.1760  178.4770  144.4520 C   0  0  0  0  0  3  0  0  0  0  0  0
  186.0630  178.1680  142.8070 C   0  0  0  0  0  0  0  0  0  0  0  0
  1  3  1  6  0  0  0
  2  6  1  0  0  0  0
  2 10  1  0  0  0  0
  2 39  1  1  0  0  0
  3  8  2  0  0  0  0
  4  3  1  0  0  0  0
  5  1  1  0  0  0  0
  5 12  1  0  0  0  0
  6  1  1  0  0  0  0
  7  9  1  0  0  0  0
  7 23  1  0  0  0  0
  7  4  1  0  0  0  0
  9  6  1  0  0  0  0
 10  5  2  0  0  0  0
 11  7  1  0  0  0  0
 12 19  1  0  0  0  0
 13 18  1  0  0  0  0
 13 12  1  0  0  0  0
 15 14  1  0  0  0  0
 16 15  1  0  0  0  0
 16 18  1  0  0  0  0
 17 14  1  0  0  0  0
 17 20  1  0  0  0  0
 18 17  1  0  0  0  0
 19 20  1  0  0  0  0
 20 21  1  0  0  0  0
 21 22  1  0  0  0  0
 23 27  1  0  0  0  0
 24 28  1  0  0  0  0
 25 33  1  0  0  0  0
 26 25  1  0  0  0  0
 27 24  2  0  0  0  0
 27 26  1  0  0  0  0
 28 25  1  0  0  0  0
 29 31  1  0  0  0  0
 30 32  1  0  0  0  0
 30 33  1  0  0  0  0
 32 34  1  0  0  0  0
 33 29  1  0  0  0  0
 34 31  1  0  0  0  0
 35 36  1  0  0  0  0
 35  9  1  0  0  0  0
 37 10  1  0  0  0  0
 38 37  3  0  0  0  0
 39 40  1  0  0  0  0
 40 41  1  0  0  0  0
 41 45  1  0  0  0  0
 42 47  1  0  0  0  0
 43 49  1  0  0  0  0
 43 48  1  0  0  0  0
 44 50  2  0  0  0  0
 44 46  1  0  0  0  0
 45 42  2  0  0  0  0
 45 50  1  0  0  0  0
 46 48  2  0  0  0  0
 47 49  2  0  0  0  0
 50 43  1  0  0  0  0
M  END
>  <MODEL>
8

>  <REMARK>
 VINA RESULT:      -6.1      3.399      5.490
  Name = 
  10 active torsions:
  status: ('A' for Active; 'I' for Inactive)
    1  A    between atoms: C_1  and  C_44
    2  A    between atoms: C_3  and  C_46
    3  A    between atoms: C_4  and  C_27
    4  A    between atoms: N_5  and  C_29
    5  A    between atoms: C_9  and  C_26
    6  A    between atoms: C_12  and  C_27
    7  A    between atoms: C_12  and  C_31
    8  A    between atoms: N_18  and  C_41
    9  A    between atoms: C_20  and  C_31
   10  A    between atoms: O_33  and  C_49
                            x       y       z     vdW  Elec       q    Type
                         _______ _______ _______ _____ _____    ______ ____

>  <TORSDO>
F 10

$$$$
=
 OpenBabel10232410343D

 50 57  0  0  1  0  0  0  0  0999 V2000
  186.9980  177.5560  139.0660 C   0  0  1  0  0  3  0  0  0  0  0  0
  185.2250  177.9280  137.6020 C   0  0  2  0  0  3  0  0  0  0  0  0
  188.4230  177.9720  139.3380 C   0  0  0  0  0  0  0  0  0  0  0  0
  189.4370  177.8270  138.2540 C   0  0  0  0  0  2  0  0  0  0  0  0
  185.9560  178.3720  139.7480 C   0  0  0  0  0  0  0  0  0  0  0  0
  186.6440  177.5330  137.6230 N   0  0  1  0  0  0  0  0  0  0  0  0
  188.9460  178.3220  136.8920 C   0  0  1  0  0  0  0  0  0  0  0  0
  188.7810  178.3070  140.4550 O   0  0  0  0  0  0  0  0  0  0  0  0
  187.4070  178.5520  136.8630 C   0  0  1  0  0  3  0  0  0  0  0  0
  184.9480  178.5600  138.9190 C   0  0  0  0  0  0  0  0  0  0  0  0
  189.5820  179.5390  136.6420 O   0  0  0  0  0  1  0  0  0  0  0  0
  186.0010  178.7870  141.1910 C   0  0  1  0  0  3  0  0  0  0  0  0
  184.6410  178.8250  141.7540 N   0  0  0  0  0  2  0  0  0  0  0  0
  185.0340  178.4170  145.1880 O   0  0  0  0  0  0  0  0  0  0  0  0
  183.7320  178.9530  145.1330 C   0  0  0  0  0  2  0  0  0  0  0  0
  183.4680  179.3710  143.6940 C   0  0  0  0  0  2  0  0  0  0  0  0
  185.3340  178.1960  143.8410 C   0  0  1  0  0  3  0  0  0  0  0  0
  184.7620  179.2800  143.0770 N   0  0  1  0  0  0  0  0  0  0  0  0
  186.9330  177.8650  142.0110 C   0  0  0  0  0  2  0  0  0  0  0  0
  186.8170  178.1280  143.5210 C   0  0  2  0  0  3  0  0  0  0  0  0
  187.4150  177.0810  144.2240 O   0  0  0  0  0  0  0  0  0  0  0  0
  188.2190  176.4370  143.2830 C   0  0  0  0  0  1  0  0  0  0  0  0
  189.3620  177.3260  135.9020 N   0  0  0  0  0  2  0  0  0  0  0  0
  189.8130  175.1070  135.1870 N   0  0  0  0  0  0  0  0  0  0  0  0
  189.3330  173.7670  137.0440 N   0  0  2  0  0  0  0  0  0  0  0  0
  189.0920  175.1840  137.3610 C   0  0  0  0  0  2  0  0  0  0  0  0
  189.4450  175.9110  136.1090 C   0  0  0  0  0  0  0  0  0  0  0  0
  189.7630  173.8170  135.7050 N   0  0  0  0  0  2  0  0  0  0  0  0
  187.7840  172.3520  135.7440 C   0  0  0  0  0  2  0  0  0  0  0  0
  186.9000  174.0430  137.3280 C   0  0  0  0  0  2  0  0  0  0  0  0
  186.5270  171.6090  135.8140 N   0  0  0  0  0  2  0  0  0  0  0  0
  185.5620  173.3110  137.2830 C   0  0  0  0  0  2  0  0  0  0  0  0
  188.0490  173.0620  137.0770 C   0  0  2  0  0  3  0  0  0  0  0  0
  185.4320  172.5660  135.9590 C   0  0  0  0  0  2  0  0  0  0  0  0
  186.8560  178.7880  135.4470 C   0  0  0  0  0  2  0  0  0  0  0  0
  186.6830  177.5770  134.7730 O   0  0  0  0  0  1  0  0  0  0  0  0
  183.7380  179.2820  139.2290 C   0  0  0  0  0  0  0  0  0  0  0  0
  182.7260  179.8850  139.4900 C   0  0  0  0  0  3  0  0  0  0  0  0
  184.3560  176.6930  137.3990 C   0  0  0  0  0  2  0  0  0  0  0  0
  183.5650  176.8170  136.1110 C   0  0  0  0  0  2  0  0  0  0  0  0
  182.0900  176.9390  136.4310 C   0  0  0  0  0  2  0  0  0  0  0  0
  181.7050  174.4290  136.0480 C   0  0  0  0  0  3  0  0  0  0  0  0
  180.5690  174.2320  138.5770 N   0  0  0  0  0  0  0  0  0  0  0  0
  180.8090  176.5120  139.1340 C   0  0  0  0  0  3  0  0  0  0  0  0
  181.5600  175.6250  136.9020 C   0  0  0  0  0  0  0  0  0  0  0  0
  180.2110  175.6940  140.2900 C   0  0  0  0  0  3  0  0  0  0  0  0
  181.2210  173.2380  136.4260 C   0  0  0  0  0  3  0  0  0  0  0  0
  180.0030  174.3000  139.8540 N   0  0  0  0  0  0  0  0  0  0  0  0
  180.4610  173.0510  137.7200 C   0  0  0  0  0  3  0  0  0  0  0  0
  181.0130  175.4800  138.1120 C   0  0  0  0  0  0  0  0  0  0  0  0
  1  3  1  6  0  0  0
  1  5  1  0  0  0  0
  2 39  1  1  0  0  0
  2  6  1  0  0  0  0
  2 10  1  0  0  0  0
  3  8  2  0  0  0  0
  4  3  1  0  0  0  0
  5 12  1  0  0  0  0
  6  1  1  0  0  0  0
  7  4  1  0  0  0  0
  9  7  1  0  0  0  0
  9  6  1  0  0  0  0
 10 37  1  0  0  0  0
 10  5  2  0  0  0  0
 11  7  1  0  0  0  0
 12 13  1  0  0  0  0
 12 19  1  0  0  0  0
 13 18  1  0  0  0  0
 15 14  1  0  0  0  0
 16 15  1  0  0  0  0
 17 14  1  0  0  0  0
 18 16  1  0  0  0  0
 18 17  1  0  0  0  0
 19 20  1  0  0  0  0
 20 17  1  0  0  0  0
 20 21  1  0  0  0  0
 22 21  1  0  0  0  0
 23 27  1  0  0  0  0
 23  7  1  0  0  0  0
 24 28  1  0  0  0  0
 24 27  2  0  0  0  0
 25 33  1  0  0  0  0
 25 26  1  0  0  0  0
 27 26  1  0  0  0  0
 28 25  1  0  0  0  0
 29 31  1  0  0  0  0
 29 33  1  0  0  0  0
 31 34  1  0  0  0  0
 32 30  1  0  0  0  0
 33 30  1  0  0  0  0
 34 32  1  0  0  0  0
 35  9  1  0  0  0  0
 36 35  1  0  0  0  0
 37 38  3  0  0  0  0
 40 41  1  0  0  0  0
 40 39  1  0  0  0  0
 41 45  1  0  0  0  0
 42 47  1  0  0  0  0
 42 45  2  0  0  0  0
 43 48  1  0  0  0  0
 44 46  1  0  0  0  0
 45 50  1  0  0  0  0
 47 49  2  0  0  0  0
 48 46  2  0  0  0  0
 49 43  1  0  0  0  0
 50 43  1  0  0  0  0
 50 44  2  0  0  0  0
M  END
>  <MODEL>
9

>  <REMARK>
 VINA RESULT:      -5.5      3.893      8.692
  Name = 
  10 active torsions:
  status: ('A' for Active; 'I' for Inactive)
    1  A    between atoms: C_1  and  C_44
    2  A    between atoms: C_3  and  C_46
    3  A    between atoms: C_4  and  C_27
    4  A    between atoms: N_5  and  C_29
    5  A    between atoms: C_9  and  C_26
    6  A    between atoms: C_12  and  C_27
    7  A    between atoms: C_12  and  C_31
    8  A    between atoms: N_18  and  C_41
    9  A    between atoms: C_20  and  C_31
   10  A    between atoms: O_33  and  C_49
                            x       y       z     vdW  Elec       q    Type
                         _______ _______ _______ _____ _____    ______ ____

>  <TORSDO>
F 10

$$$$
