=
 OpenBabel10232408483D

 55 59  0  0  1  0  0  0  0  0999 V2000
  189.9430  175.6200  137.2010 O   0  0  0  0  0  0  0  0  0  0  0  0
  191.3380  175.8700  137.2200 C   0  0  2  0  0  3  0  0  0  0  0  0
  190.8140  173.5620  137.0950 N   0  0  0  0  0  0  0  0  0  0  0  0
  191.9530  174.4660  137.1870 C   0  0  1  0  0  3  0  0  0  0  0  0
  189.7310  174.2600  137.1250 C   0  0  0  0  0  0  0  0  0  0  0  0
  192.9950  176.7760  138.8290 C   0  0  0  0  0  2  0  0  0  0  0  0
  191.7140  176.6280  138.4650 C   0  0  0  0  0  0  0  0  0  0  0  0
  190.6390  177.3480  139.2200 C   0  0  0  0  0  2  0  0  0  0  0  0
  190.5530  176.8770  140.5990 N   0  0  0  0  0  2  0  0  0  0  0  0
  189.1850  177.0380  141.0770 C   0  0  0  0  0  2  0  0  0  0  0  0
  187.2500  176.6820  144.0900 O   0  0  0  0  0  0  0  0  0  0  0  0
  187.8320  177.4670  143.0820 C   0  0  0  0  0  2  0  0  0  0  0  0
  189.0930  176.7980  142.5750 C   0  0  2  0  0  3  0  0  0  0  0  0
  188.3590  177.3540  146.1760 C   0  0  0  0  0  2  0  0  0  0  0  0
  187.1240  177.4450  145.2760 C   0  0  1  0  0  3  0  0  0  0  0  0
  189.5920  178.0100  145.5690 C   0  0  0  0  0  2  0  0  0  0  0  0
  190.3740  177.0080  144.7360 C   0  0  0  0  0  2  0  0  0  0  0  0
  190.3220  177.3790  143.2610 C   0  0  0  0  0  2  0  0  0  0  0  0
  186.7190  178.7820  145.0580 O   0  0  0  0  0  0  0  0  0  0  0  0
  185.4830  179.0130  145.7070 C   0  0  2  0  0  3  0  0  0  0  0  0
  185.2640  178.1460  146.9440 C   0  0  0  0  0  1  0  0  0  0  0  0
  184.5200  178.7590  143.3840 N   0  0  0  0  0  2  0  0  0  0  0  0
  183.1500  179.2650  145.2040 O   0  0  0  0  0  0  0  0  0  0  0  0
  183.4210  178.6870  142.4380 C   0  0  0  0  0  1  0  0  0  0  0  0
  184.3120  179.0420  144.7680 C   0  0  0  0  0  0  0  0  0  0  0  0
  192.8720  174.2900  135.9910 C   0  0  0  0  0  2  0  0  0  0  0  0
  194.2670  172.4450  136.9270 C   0  0  0  0  0  0  0  0  0  0  0  0
  196.1460  173.1050  138.4140 N   0  0  1  0  0  0  0  0  0  0  0  0
  196.4960  174.8630  140.0730 C   0  0  0  0  0  1  0  0  0  0  0  0
  196.2460  174.4130  137.7020 C   0  0  2  0  0  3  0  0  0  0  0  0
  193.7020  171.4890  136.3350 O   0  0  0  0  0  0  0  0  0  0  0  0
  195.5720  174.3400  138.9910 C   0  0  1  0  0  3  0  0  0  0  0  0
  194.1510  173.7690  136.4430 N   0  0  0  0  0  0  0  0  0  0  0  0
  195.3100  174.6440  136.4960 C   0  0  0  0  0  2  0  0  0  0  0  0
  194.9930  172.2170  138.2010 C   0  0  0  0  0  2  0  0  0  0  0  0
  188.3740  173.6520  137.0590 C   0  0  0  0  0  2  0  0  0  0  0  0
  187.3720  174.6910  136.9080 N   0  0  0  0  0  2  0  0  0  0  0  0
  186.3050  174.1180  136.1020 C   0  0  1  0  0  3  0  0  0  0  0  0
  183.1550  176.3390  137.2900 C   0  0  2  0  0  3  0  0  0  0  0  0
  184.2920  175.4740  136.8480 N   0  0  0  0  0  0  0  0  0  0  0  0
  184.9880  174.2310  136.8250 C   0  0  0  0  0  0  0  0  0  0  0  0
  184.1160  176.9100  136.4810 C   0  0  0  0  0  2  0  0  0  0  0  0
  184.5140  173.2530  137.4630 O   0  0  0  0  0  0  0  0  0  0  0  0
  183.3710  176.7750  138.7360 C   0  0  1  0  0  3  0  0  0  0  0  0
  184.4430  179.0380  138.9450 C   0  0  0  0  0  0  0  0  0  0  0  0
  184.3550  180.2880  139.0610 O   0  0  0  0  0  0  0  0  0  0  0  0
  183.2560  178.2300  138.8640 N   0  0  0  0  0  0  0  0  0  0  0  0
  185.8030  178.4200  138.8830 C   0  0  0  0  0  1  0  0  0  0  0  0
  181.9350  178.8640  138.8170 C   0  0  0  0  0  2  0  0  0  0  0  0
  181.5680  179.2580  137.3900 C   0  0  0  0  0  2  0  0  0  0  0  0
  181.0850  180.6270  137.3500 N   0  0  0  0  0  1  0  0  0  0  0  0
  181.4620  175.3660  138.9380 O   0  0  0  0  0  1  0  0  0  0  0  0
  182.4110  176.0680  139.6820 C   0  0  0  0  0  2  0  0  0  0  0  0
  186.2810  174.8020  134.7380 C   0  0  0  0  0  2  0  0  0  0  0  0
  187.2130  176.0000  134.7400 C   0  0  0  0  0  1  0  0  0  0  0  0
  1  2  1  0  0  0  0
  2  7  1  1  0  0  0
  3  5  2  0  0  0  0
  3  4  1  0  0  0  0
  4 26  1  6  0  0  0
  4  2  1  0  0  0  0
  5  1  1  0  0  0  0
  7  6  2  0  0  0  0
  7  8  1  0  0  0  0
  8  9  1  0  0  0  0
  9 10  1  0  0  0  0
 11 15  1  0  0  0  0
 12 11  1  0  0  0  0
 13 10  1  6  0  0  0
 13 12  1  0  0  0  0
 13 18  1  0  0  0  0
 15 19  1  6  0  0  0
 15 14  1  0  0  0  0
 16 14  1  0  0  0  0
 17 16  1  0  0  0  0
 18 17  1  0  0  0  0
 19 20  1  0  0  0  0
 20 21  1  1  0  0  0
 22 25  1  0  0  0  0
 24 22  1  0  0  0  0
 25 23  2  0  0  0  0
 25 20  1  0  0  0  0
 26 33  1  0  0  0  0
 27 35  1  0  0  0  0
 28 35  1  6  0  0  0
 28 32  1  0  0  0  0
 30 34  1  6  0  0  0
 30 28  1  0  0  0  0
 30 32  1  0  0  0  0
 31 27  2  0  0  0  0
 32 29  1  1  0  0  0
 33 34  1  0  0  0  0
 33 27  1  0  0  0  0
 36  5  1  0  0  0  0
 37 36  1  0  0  0  0
 38 54  1  6  0  0  0
 38 41  1  0  0  0  0
 38 37  1  0  0  0  0
 39 44  1  1  0  0  0
 40 39  1  0  0  0  0
 41 40  1  0  0  0  0
 41 43  2  0  0  0  0
 42 40  1  0  0  0  0
 42 39  1  0  0  0  0
 44 47  1  0  0  0  0
 44 53  1  1  0  0  0
 45 46  2  0  0  0  0
 47 45  1  0  0  0  0
 48 45  1  0  0  0  0
 49 47  1  0  0  0  0
 50 49  1  0  0  0  0
 51 50  1  0  0  0  0
 52 53  1  0  0  0  0
 54 55  1  0  0  0  0
M  END
>  <MODEL>
1

>  <REMARK>
 VINA RESULT:      -7.2      0.000      0.000
  Name = 
  20 active torsions:
  status: ('A' for Active; 'I' for Inactive)
    1  A    between atoms: C_3  and  C_12
    2  A    between atoms: C_3  and  N_25
    3  A    between atoms: C_5  and  C_37
    4  A    between atoms: C_5  and  O_38
    5  A    between atoms: C_8  and  C_10
    6  A    between atoms: C_8  and  N_31
    7  A    between atoms: C_9  and  N_25
    8  A    between atoms: C_9  and  C_28
    9  A    between atoms: C_9  and  C_41
   10  A    between atoms: C_15  and  N_19
   11  A    between atoms: C_15  and  C_43
   12  A    between atoms: C_18  and  N_33
   13  A    between atoms: C_18  and  C_42
   14  A    between atoms: N_19  and  C_26
   15  A    between atoms: C_22  and  C_26
   16  A    between atoms: C_26  and  C_47
   17  A    between atoms: N_31  and  C_39
   18  A    between atoms: C_34  and  C_35
   19  A    between atoms: C_34  and  C_39
   20  A    between atoms: O_38  and  C_44
                            x       y       z     vdW  Elec       q    Type
                         _______ _______ _______ _____ _____    ______ ____

>  <TORSDO>
F 20

$$$$
=
 OpenBabel10232408483D

 55 59  0  0  1  0  0  0  0  0999 V2000
  190.0710  176.3410  137.5040 O   0  0  0  0  0  0  0  0  0  0  0  0
  191.4760  176.2290  137.6510 C   0  0  2  0  0  3  0  0  0  0  0  0
  190.4110  174.1380  137.3180 N   0  0  0  0  0  0  0  0  0  0  0  0
  191.7240  174.7180  137.5650 C   0  0  1  0  0  3  0  0  0  0  0  0
  189.5370  175.0850  137.3130 C   0  0  0  0  0  0  0  0  0  0  0  0
  193.2030  176.8750  139.3110 C   0  0  0  0  0  2  0  0  0  0  0  0
  191.9080  176.8040  138.9740 C   0  0  0  0  0  0  0  0  0  0  0  0
  190.8750  177.4370  139.8540 C   0  0  0  0  0  2  0  0  0  0  0  0
  191.3480  177.5460  141.2310 N   0  0  0  0  0  2  0  0  0  0  0  0
  190.5660  176.6540  142.0790 C   0  0  0  0  0  2  0  0  0  0  0  0
  189.3640  178.3410  145.0230 O   0  0  0  0  0  0  0  0  0  0  0  0
  189.6700  177.1720  144.3080 C   0  0  0  0  0  2  0  0  0  0  0  0
  189.4800  177.4140  142.8240 C   0  0  2  0  0  3  0  0  0  0  0  0
  186.9380  178.2740  145.3960 C   0  0  0  0  0  2  0  0  0  0  0  0
  188.3440  178.0710  145.9660 C   0  0  1  0  0  3  0  0  0  0  0  0
  186.5770  177.2620  144.3170 C   0  0  0  0  0  2  0  0  0  0  0  0
  186.9880  177.7730  142.9460 C   0  0  0  0  0  2  0  0  0  0  0  0
  188.1120  176.9230  142.3710 C   0  0  0  0  0  2  0  0  0  0  0  0
  188.4810  176.8240  146.6180 O   0  0  0  0  0  0  0  0  0  0  0  0
  189.1200  177.0110  147.8660 C   0  0  2  0  0  3  0  0  0  0  0  0
  188.6420  178.2460  148.6260 C   0  0  0  0  0  1  0  0  0  0  0  0
  191.1850  175.6510  147.3420 N   0  0  0  0  0  2  0  0  0  0  0  0
  191.3550  177.8560  148.0880 O   0  0  0  0  0  0  0  0  0  0  0  0
  192.6180  175.4840  147.1710 C   0  0  0  0  0  1  0  0  0  0  0  0
  190.6140  176.8780  147.7970 C   0  0  0  0  0  0  0  0  0  0  0  0
  192.6800  174.3760  136.4360 C   0  0  0  0  0  2  0  0  0  0  0  0
  194.9980  175.2950  136.3420 C   0  0  0  0  0  0  0  0  0  0  0  0
  196.8440  173.7460  136.9480 N   0  0  1  0  0  0  0  0  0  0  0  0
  197.2600  171.3580  136.6450 C   0  0  0  0  0  1  0  0  0  0  0  0
  195.9120  172.9870  137.8340 C   0  0  2  0  0  3  0  0  0  0  0  0
  194.6980  176.4800  136.0390 O   0  0  0  0  0  0  0  0  0  0  0  0
  196.2370  172.4690  136.5130 C   0  0  1  0  0  3  0  0  0  0  0  0
  194.0450  174.4320  136.9320 N   0  0  0  0  0  0  0  0  0  0  0  0
  194.4720  173.5220  137.9820 C   0  0  0  0  0  2  0  0  0  0  0  0
  196.3340  174.7480  136.0000 C   0  0  0  0  0  2  0  0  0  0  0  0
  188.0840  174.8440  137.0960 C   0  0  0  0  0  2  0  0  0  0  0  0
  187.3320  176.0500  137.3940 N   0  0  0  0  0  2  0  0  0  0  0  0
  186.5910  176.3800  136.1860 C   0  0  1  0  0  3  0  0  0  0  0  0
  182.7350  176.9790  137.2070 C   0  0  2  0  0  3  0  0  0  0  0  0
  184.1490  176.7240  136.7920 N   0  0  0  0  0  0  0  0  0  0  0  0
  185.1760  175.8730  136.2900 C   0  0  0  0  0  0  0  0  0  0  0  0
  183.6320  178.0210  137.3180 C   0  0  0  0  0  2  0  0  0  0  0  0
  184.8910  174.6820  135.9930 O   0  0  0  0  0  0  0  0  0  0  0  0
  182.4830  176.3650  138.5810 C   0  0  1  0  0  3  0  0  0  0  0  0
  182.4710  177.9750  140.5110 C   0  0  0  0  0  0  0  0  0  0  0  0
  181.8660  178.7790  141.2650 O   0  0  0  0  0  0  0  0  0  0  0  0
  181.7690  177.3050  139.4480 N   0  0  0  0  0  0  0  0  0  0  0  0
  183.9300  177.7410  140.7380 C   0  0  0  0  0  1  0  0  0  0  0  0
  180.3650  177.6300  139.1740 C   0  0  0  0  0  2  0  0  0  0  0  0
  180.2400  179.0030  138.5230 C   0  0  0  0  0  2  0  0  0  0  0  0
  179.9820  178.8670  137.0990 N   0  0  0  0  0  1  0  0  0  0  0  0
  182.2150  174.3260  137.3810 O   0  0  0  0  0  1  0  0  0  0  0  0
  181.7320  175.0460  138.4740 C   0  0  0  0  0  2  0  0  0  0  0  0
  186.6540  177.8860  135.9510 C   0  0  0  0  0  2  0  0  0  0  0  0
  187.5380  178.5400  136.9960 C   0  0  0  0  0  1  0  0  0  0  0  0
  1  2  1  0  0  0  0
  2  7  1  1  0  0  0
  3  4  1  0  0  0  0
  4 26  1  6  0  0  0
  4  2  1  0  0  0  0
  5  3  2  0  0  0  0
  5  1  1  0  0  0  0
  7  6  2  0  0  0  0
  7  8  1  0  0  0  0
  8  9  1  0  0  0  0
  9 10  1  0  0  0  0
 11 15  1  0  0  0  0
 12 11  1  0  0  0  0
 13 10  1  6  0  0  0
 13 12  1  0  0  0  0
 14 15  1  0  0  0  0
 15 19  1  6  0  0  0
 16 14  1  0  0  0  0
 17 16  1  0  0  0  0
 18 13  1  0  0  0  0
 18 17  1  0  0  0  0
 19 20  1  0  0  0  0
 20 21  1  6  0  0  0
 22 25  1  0  0  0  0
 24 22  1  0  0  0  0
 25 20  1  0  0  0  0
 25 23  2  0  0  0  0
 26 33  1  0  0  0  0
 27 33  1  0  0  0  0
 28 35  1  6  0  0  0
 28 30  1  0  0  0  0
 30 34  1  6  0  0  0
 31 27  2  0  0  0  0
 32 29  1  1  0  0  0
 32 28  1  0  0  0  0
 32 30  1  0  0  0  0
 33 34  1  0  0  0  0
 35 27  1  0  0  0  0
 36  5  1  0  0  0  0
 36 37  1  0  0  0  0
 38 54  1  1  0  0  0
 38 41  1  0  0  0  0
 38 37  1  0  0  0  0
 39 42  1  0  0  0  0
 39 44  1  1  0  0  0
 40 39  1  0  0  0  0
 40 42  1  0  0  0  0
 41 40  1  0  0  0  0
 43 41  2  0  0  0  0
 44 53  1  6  0  0  0
 44 47  1  0  0  0  0
 45 48  1  0  0  0  0
 45 46  2  0  0  0  0
 47 45  1  0  0  0  0
 49 47  1  0  0  0  0
 50 49  1  0  0  0  0
 51 50  1  0  0  0  0
 52 53  1  0  0  0  0
 54 55  1  0  0  0  0
M  END
>  <MODEL>
2

>  <REMARK>
 VINA RESULT:      -6.2      2.163      3.334
  Name = 
  20 active torsions:
  status: ('A' for Active; 'I' for Inactive)
    1  A    between atoms: C_3  and  C_12
    2  A    between atoms: C_3  and  N_25
    3  A    between atoms: C_5  and  C_37
    4  A    between atoms: C_5  and  O_38
    5  A    between atoms: C_8  and  C_10
    6  A    between atoms: C_8  and  N_31
    7  A    between atoms: C_9  and  N_25
    8  A    between atoms: C_9  and  C_28
    9  A    between atoms: C_9  and  C_41
   10  A    between atoms: C_15  and  N_19
   11  A    between atoms: C_15  and  C_43
   12  A    between atoms: C_18  and  N_33
   13  A    between atoms: C_18  and  C_42
   14  A    between atoms: N_19  and  C_26
   15  A    between atoms: C_22  and  C_26
   16  A    between atoms: C_26  and  C_47
   17  A    between atoms: N_31  and  C_39
   18  A    between atoms: C_34  and  C_35
   19  A    between atoms: C_34  and  C_39
   20  A    between atoms: O_38  and  C_44
                            x       y       z     vdW  Elec       q    Type
                         _______ _______ _______ _____ _____    ______ ____

>  <TORSDO>
F 20

$$$$
=
 OpenBabel10232408483D

 55 59  0  0  1  0  0  0  0  0999 V2000
  188.3410  176.9680  136.9510 O   0  0  0  0  0  0  0  0  0  0  0  0
  187.1530  176.2810  137.3020 C   0  0  2  0  0  3  0  0  0  0  0  0
  188.4510  175.1200  135.6950 N   0  0  0  0  0  0  0  0  0  0  0  0
  187.1910  175.0270  136.4210 C   0  0  1  0  0  3  0  0  0  0  0  0
  189.0320  176.2240  136.0190 C   0  0  0  0  0  0  0  0  0  0  0  0
  185.5440  177.3750  135.7630 C   0  0  0  0  0  2  0  0  0  0  0  0
  185.9510  177.1410  137.0180 C   0  0  0  0  0  0  0  0  0  0  0  0
  185.1180  177.6170  138.1690 C   0  0  0  0  0  2  0  0  0  0  0  0
  185.9160  178.3920  139.1150 N   0  0  0  0  0  2  0  0  0  0  0  0
  185.0260  179.0920  140.0330 C   0  0  0  0  0  2  0  0  0  0  0  0
  187.7870  178.8290  142.3260 O   0  0  0  0  0  0  0  0  0  0  0  0
  186.8470  178.2560  141.4550 C   0  0  0  0  0  2  0  0  0  0  0  0
  185.5800  179.0890  141.4480 C   0  0  2  0  0  3  0  0  0  0  0  0
  187.2670  177.9260  144.5500 C   0  0  0  0  0  2  0  0  0  0  0  0
  188.1640  177.8840  143.3100 C   0  0  1  0  0  3  0  0  0  0  0  0
  185.8420  177.4670  144.2740 C   0  0  0  0  0  2  0  0  0  0  0  0
  184.9740  178.6420  143.8540 C   0  0  0  0  0  2  0  0  0  0  0  0
  184.5470  178.5020  142.4000 C   0  0  0  0  0  2  0  0  0  0  0  0
  188.3260  176.5710  142.8120 O   0  0  0  0  0  0  0  0  0  0  0  0
  189.7040  176.2540  142.7540 C   0  0  2  0  0  3  0  0  0  0  0  0
  190.4740  176.6130  144.0230 C   0  0  0  0  0  1  0  0  0  0  0  0
  191.7290  177.1430  141.5310 N   0  0  0  0  0  2  0  0  0  0  0  0
  189.7490  176.6670  140.3910 O   0  0  0  0  0  0  0  0  0  0  0  0
  192.4570  177.5180  140.3310 C   0  0  0  0  0  1  0  0  0  0  0  0
  190.3680  176.7110  141.4880 C   0  0  0  0  0  0  0  0  0  0  0  0
  187.1480  173.7600  137.2560 C   0  0  0  0  0  2  0  0  0  0  0  0
  185.8240  172.1950  135.8330 C   0  0  0  0  0  0  0  0  0  0  0  0
  183.3820  172.6270  135.6670 N   0  0  1  0  0  0  0  0  0  0  0  0
  181.9850  174.6300  135.6100 C   0  0  0  0  0  1  0  0  0  0  0  0
  183.4040  173.2570  137.0200 C   0  0  2  0  0  3  0  0  0  0  0  0
  186.7600  171.4110  135.5290 O   0  0  0  0  0  0  0  0  0  0  0  0
  183.3870  174.0970  135.8300 C   0  0  1  0  0  3  0  0  0  0  0  0
  185.9220  173.0370  136.9660 N   0  0  0  0  0  0  0  0  0  0  0  0
  184.7430  173.2530  137.7890 C   0  0  0  0  0  2  0  0  0  0  0  0
  184.6330  172.3210  134.9570 C   0  0  0  0  0  2  0  0  0  0  0  0
  190.3430  176.6450  135.4520 C   0  0  0  0  0  2  0  0  0  0  0  0
  191.4080  176.3400  136.3900 N   0  0  0  0  0  2  0  0  0  0  0  0
  192.5160  175.8250  135.5990 C   0  0  1  0  0  3  0  0  0  0  0  0
  196.4710  175.0990  135.9130 C   0  0  2  0  0  3  0  0  0  0  0  0
  195.0110  175.4100  135.8260 N   0  0  0  0  0  0  0  0  0  0  0  0
  193.7990  175.9110  136.3840 C   0  0  0  0  0  0  0  0  0  0  0  0
  195.8190  174.7860  134.7380 C   0  0  0  0  0  2  0  0  0  0  0  0
  193.8110  176.3700  137.5580 O   0  0  0  0  0  0  0  0  0  0  0  0
  196.6810  173.8360  136.7410 C   0  0  1  0  0  3  0  0  0  0  0  0
  196.9910  171.4930  135.8870 C   0  0  0  0  0  0  0  0  0  0  0  0
  197.6570  170.6340  135.2530 O   0  0  0  0  0  0  0  0  0  0  0  0
  197.4630  172.8470  135.9930 N   0  0  0  0  0  0  0  0  0  0  0  0
  195.7000  171.0740  136.5140 C   0  0  0  0  0  1  0  0  0  0  0  0
  198.6750  173.2620  135.2810 C   0  0  0  0  0  2  0  0  0  0  0  0
  199.8280  173.4910  136.2530 C   0  0  0  0  0  2  0  0  0  0  0  0
  200.2260  174.8880  136.2480 N   0  0  0  0  0  1  0  0  0  0  0  0
  196.5990  175.1330  138.7360 O   0  0  0  0  0  1  0  0  0  0  0  0
  197.3350  174.1480  138.0790 C   0  0  0  0  0  2  0  0  0  0  0  0
  192.1990  174.4000  135.1560 C   0  0  0  0  0  2  0  0  0  0  0  0
  192.0460  173.4990  136.3670 C   0  0  0  0  0  1  0  0  0  0  0  0
  1  2  1  0  0  0  0
  2  7  1  6  0  0  0
  3  5  2  0  0  0  0
  3  4  1  0  0  0  0
  4 26  1  1  0  0  0
  4  2  1  0  0  0  0
  5  1  1  0  0  0  0
  6  7  2  0  0  0  0
  7  8  1  0  0  0  0
  8  9  1  0  0  0  0
  9 10  1  0  0  0  0
 11 15  1  0  0  0  0
 12 11  1  0  0  0  0
 13 10  1  6  0  0  0
 13 12  1  0  0  0  0
 13 18  1  0  0  0  0
 15 19  1  6  0  0  0
 15 14  1  0  0  0  0
 16 14  1  0  0  0  0
 17 16  1  0  0  0  0
 18 17  1  0  0  0  0
 20 19  1  0  0  0  0
 20 21  1  1  0  0  0
 23 25  2  0  0  0  0
 24 22  1  0  0  0  0
 25 22  1  0  0  0  0
 25 20  1  0  0  0  0
 27 33  1  0  0  0  0
 28 35  1  6  0  0  0
 28 32  1  0  0  0  0
 28 30  1  0  0  0  0
 30 34  1  6  0  0  0
 31 27  2  0  0  0  0
 32 29  1  1  0  0  0
 32 30  1  0  0  0  0
 33 26  1  0  0  0  0
 33 34  1  0  0  0  0
 35 27  1  0  0  0  0
 36  5  1  0  0  0  0
 36 37  1  0  0  0  0
 38 54  1  1  0  0  0
 38 41  1  0  0  0  0
 38 37  1  0  0  0  0
 39 44  1  1  0  0  0
 40 39  1  0  0  0  0
 40 41  1  0  0  0  0
 41 43  2  0  0  0  0
 42 40  1  0  0  0  0
 42 39  1  0  0  0  0
 44 53  1  1  0  0  0
 45 47  1  0  0  0  0
 45 48  1  0  0  0  0
 46 45  2  0  0  0  0
 47 44  1  0  0  0  0
 49 47  1  0  0  0  0
 49 50  1  0  0  0  0
 51 50  1  0  0  0  0
 53 52  1  0  0  0  0
 54 55  1  0  0  0  0
M  END
>  <MODEL>
3

>  <REMARK>
 VINA RESULT:      -6.1      2.662      9.830
  Name = 
  20 active torsions:
  status: ('A' for Active; 'I' for Inactive)
    1  A    between atoms: C_3  and  C_12
    2  A    between atoms: C_3  and  N_25
    3  A    between atoms: C_5  and  C_37
    4  A    between atoms: C_5  and  O_38
    5  A    between atoms: C_8  and  C_10
    6  A    between atoms: C_8  and  N_31
    7  A    between atoms: C_9  and  N_25
    8  A    between atoms: C_9  and  C_28
    9  A    between atoms: C_9  and  C_41
   10  A    between atoms: C_15  and  N_19
   11  A    between atoms: C_15  and  C_43
   12  A    between atoms: C_18  and  N_33
   13  A    between atoms: C_18  and  C_42
   14  A    between atoms: N_19  and  C_26
   15  A    between atoms: C_22  and  C_26
   16  A    between atoms: C_26  and  C_47
   17  A    between atoms: N_31  and  C_39
   18  A    between atoms: C_34  and  C_35
   19  A    between atoms: C_34  and  C_39
   20  A    between atoms: O_38  and  C_44
                            x       y       z     vdW  Elec       q    Type
                         _______ _______ _______ _____ _____    ______ ____

>  <TORSDO>
F 20

$$$$
=
 OpenBabel10232408483D

 55 59  0  0  1  0  0  0  0  0999 V2000
  188.0800  176.3010  137.3000 O   0  0  0  0  0  0  0  0  0  0  0  0
  189.4290  176.4880  136.9120 C   0  0  2  0  0  3  0  0  0  0  0  0
  188.6650  174.2730  136.5590 N   0  0  0  0  0  0  0  0  0  0  0  0
  189.8610  175.0960  136.4370 C   0  0  1  0  0  3  0  0  0  0  0  0
  187.7200  174.9930  137.0580 C   0  0  0  0  0  0  0  0  0  0  0  0
  191.4840  176.5110  138.3020 C   0  0  0  0  0  2  0  0  0  0  0  0
  190.2450  176.9690  138.0830 C   0  0  0  0  0  0  0  0  0  0  0  0
  189.7060  178.0860  138.9240 C   0  0  0  0  0  2  0  0  0  0  0  0
  189.1990  177.5910  140.2000 N   0  0  0  0  0  2  0  0  0  0  0  0
  187.9050  178.2050  140.4730 C   0  0  0  0  0  2  0  0  0  0  0  0
  189.2500  178.6280  143.7840 O   0  0  0  0  0  0  0  0  0  0  0  0
  188.8820  177.8230  142.6950 C   0  0  0  0  0  2  0  0  0  0  0  0
  187.7170  178.4550  141.9600 C   0  0  2  0  0  3  0  0  0  0  0  0
  187.7970  177.9380  145.6410 C   0  0  0  0  0  2  0  0  0  0  0  0
  189.1780  177.8750  144.9810 C   0  0  1  0  0  3  0  0  0  0  0  0
  186.7130  177.2460  144.8260 C   0  0  0  0  0  2  0  0  0  0  0  0
  186.0700  178.2220  143.8550 C   0  0  0  0  0  2  0  0  0  0  0  0
  186.3990  177.8450  142.4170 C   0  0  0  0  0  2  0  0  0  0  0  0
  189.6500  176.5490  144.8540 O   0  0  0  0  0  0  0  0  0  0  0  0
  191.0260  176.5040  145.1750 C   0  0  2  0  0  3  0  0  0  0  0  0
  191.8240  175.5070  144.3380 C   0  0  0  0  0  1  0  0  0  0  0  0
  192.5570  175.9250  147.1010 N   0  0  0  0  0  2  0  0  0  0  0  0
  190.4280  176.8030  147.4800 O   0  0  0  0  0  0  0  0  0  0  0  0
  192.9100  175.8880  148.5100 C   0  0  0  0  0  1  0  0  0  0  0  0
  191.2920  176.4100  146.6500 C   0  0  0  0  0  0  0  0  0  0  0  0
  190.3440  175.1270  134.9970 C   0  0  0  0  0  2  0  0  0  0  0  0
  191.6900  173.0250  134.9860 C   0  0  0  0  0  0  0  0  0  0  0  0
  193.9700  173.1500  135.9680 N   0  0  1  0  0  0  0  0  0  0  0  0
  194.9790  174.3590  137.8350 C   0  0  0  0  0  1  0  0  0  0  0  0
  194.0410  174.5970  135.6100 C   0  0  2  0  0  3  0  0  0  0  0  0
  190.8670  172.3010  134.3680 O   0  0  0  0  0  0  0  0  0  0  0  0
  193.7370  174.2040  136.9790 C   0  0  1  0  0  3  0  0  0  0  0  0
  191.6190  174.4360  134.9060 N   0  0  0  0  0  0  0  0  0  0  0  0
  192.8520  175.2010  134.8320 C   0  0  0  0  0  2  0  0  0  0  0  0
  192.6970  172.4160  135.8890 C   0  0  0  0  0  2  0  0  0  0  0  0
  186.3550  174.4620  137.3270 C   0  0  0  0  0  2  0  0  0  0  0  0
  185.5810  174.4410  136.0990 N   0  0  0  0  0  2  0  0  0  0  0  0
  184.4540  173.5520  136.3400 C   0  0  1  0  0  3  0  0  0  0  0  0
  182.5620  177.1130  136.4360 C   0  0  2  0  0  3  0  0  0  0  0  0
  183.2200  175.7720  136.3810 N   0  0  0  0  0  0  0  0  0  0  0  0
  183.1830  174.3500  136.4750 C   0  0  0  0  0  0  0  0  0  0  0  0
  183.9150  177.0750  136.1710 C   0  0  0  0  0  2  0  0  0  0  0  0
  182.0860  173.7830  136.7290 O   0  0  0  0  0  0  0  0  0  0  0  0
  182.3300  177.5150  137.8890 C   0  0  1  0  0  3  0  0  0  0  0  0
  183.4400  179.5860  138.7790 C   0  0  0  0  0  0  0  0  0  0  0  0
  183.4820  180.8350  138.9200 O   0  0  0  0  0  0  0  0  0  0  0  0
  182.3710  178.9720  138.0390 N   0  0  0  0  0  0  0  0  0  0  0  0
  184.5290  178.7620  139.3880 C   0  0  0  0  0  1  0  0  0  0  0  0
  181.3730  179.8040  137.3600 C   0  0  0  0  0  2  0  0  0  0  0  0
  180.6030  180.6590  138.3600 C   0  0  0  0  0  2  0  0  0  0  0  0
  180.4020  181.9980  137.8340 N   0  0  0  0  0  1  0  0  0  0  0  0
  181.2900  176.0980  139.4960 O   0  0  0  0  0  1  0  0  0  0  0  0
  181.0220  176.9490  138.4240 C   0  0  0  0  0  2  0  0  0  0  0  0
  184.3760  172.5200  135.2200 C   0  0  0  0  0  2  0  0  0  0  0  0
  184.7540  171.1480  135.7470 C   0  0  0  0  0  1  0  0  0  0  0  0
  2  1  1  0  0  0  0
  2  7  1  1  0  0  0
  3  5  2  0  0  0  0
  4 26  1  6  0  0  0
  4  3  1  0  0  0  0
  4  2  1  0  0  0  0
  5  1  1  0  0  0  0
  5 36  1  0  0  0  0
  7  6  2  0  0  0  0
  7  8  1  0  0  0  0
  8  9  1  0  0  0  0
  9 10  1  0  0  0  0
 11 15  1  0  0  0  0
 12 11  1  0  0  0  0
 13 10  1  6  0  0  0
 13 18  1  0  0  0  0
 13 12  1  0  0  0  0
 15 19  1  6  0  0  0
 15 14  1  0  0  0  0
 16 14  1  0  0  0  0
 17 16  1  0  0  0  0
 18 17  1  0  0  0  0
 19 20  1  0  0  0  0
 20 21  1  6  0  0  0
 20 25  1  0  0  0  0
 22 24  1  0  0  0  0
 25 22  1  0  0  0  0
 25 23  2  0  0  0  0
 27 35  1  0  0  0  0
 28 35  1  6  0  0  0
 28 32  1  0  0  0  0
 30 34  1  6  0  0  0
 30 28  1  0  0  0  0
 30 32  1  0  0  0  0
 31 27  2  0  0  0  0
 32 29  1  1  0  0  0
 33 27  1  0  0  0  0
 33 26  1  0  0  0  0
 34 33  1  0  0  0  0
 37 38  1  0  0  0  0
 37 36  1  0  0  0  0
 38 54  1  6  0  0  0
 38 41  1  0  0  0  0
 39 44  1  1  0  0  0
 40 39  1  0  0  0  0
 40 41  1  0  0  0  0
 41 43  2  0  0  0  0
 42 40  1  0  0  0  0
 42 39  1  0  0  0  0
 44 47  1  0  0  0  0
 44 53  1  6  0  0  0
 45 46  2  0  0  0  0
 45 48  1  0  0  0  0
 47 45  1  0  0  0  0
 49 47  1  0  0  0  0
 49 50  1  0  0  0  0
 51 50  1  0  0  0  0
 53 52  1  0  0  0  0
 54 55  1  0  0  0  0
M  END
>  <MODEL>
4

>  <REMARK>
 VINA RESULT:      -6.1      2.106      3.666
  Name = 
  20 active torsions:
  status: ('A' for Active; 'I' for Inactive)
    1  A    between atoms: C_3  and  C_12
    2  A    between atoms: C_3  and  N_25
    3  A    between atoms: C_5  and  C_37
    4  A    between atoms: C_5  and  O_38
    5  A    between atoms: C_8  and  C_10
    6  A    between atoms: C_8  and  N_31
    7  A    between atoms: C_9  and  N_25
    8  A    between atoms: C_9  and  C_28
    9  A    between atoms: C_9  and  C_41
   10  A    between atoms: C_15  and  N_19
   11  A    between atoms: C_15  and  C_43
   12  A    between atoms: C_18  and  N_33
   13  A    between atoms: C_18  and  C_42
   14  A    between atoms: N_19  and  C_26
   15  A    between atoms: C_22  and  C_26
   16  A    between atoms: C_26  and  C_47
   17  A    between atoms: N_31  and  C_39
   18  A    between atoms: C_34  and  C_35
   19  A    between atoms: C_34  and  C_39
   20  A    between atoms: O_38  and  C_44
                            x       y       z     vdW  Elec       q    Type
                         _______ _______ _______ _____ _____    ______ ____

>  <TORSDO>
F 20

$$$$
=
 OpenBabel10232408483D

 55 59  0  0  1  0  0  0  0  0999 V2000
  188.7560  176.3200  137.1730 O   0  0  0  0  0  0  0  0  0  0  0  0
  187.3460  176.4570  137.2020 C   0  0  2  0  0  3  0  0  0  0  0  0
  188.2550  176.7170  135.0290 N   0  0  0  0  0  0  0  0  0  0  0  0
  186.9870  176.7680  135.7450 C   0  0  1  0  0  3  0  0  0  0  0  0
  189.1960  176.4820  135.8770 C   0  0  0  0  0  0  0  0  0  0  0  0
  187.8190  178.0710  139.0260 C   0  0  0  0  0  2  0  0  0  0  0  0
  186.9510  177.5680  138.1370 C   0  0  0  0  0  0  0  0  0  0  0  0
  185.6110  178.2140  137.9620 C   0  0  0  0  0  2  0  0  0  0  0  0
  185.2430  178.9990  139.1360 N   0  0  0  0  0  2  0  0  0  0  0  0
  184.0340  178.4380  139.7280 C   0  0  0  0  0  2  0  0  0  0  0  0
  185.2360  179.5330  142.9390 O   0  0  0  0  0  0  0  0  0  0  0  0
  184.8910  178.5210  142.0300 C   0  0  0  0  0  2  0  0  0  0  0  0
  183.7850  179.0080  141.1150 C   0  0  2  0  0  3  0  0  0  0  0  0
  183.6740  179.2950  144.8200 C   0  0  0  0  0  2  0  0  0  0  0  0
  185.0810  179.0580  144.2640 C   0  0  1  0  0  3  0  0  0  0  0  0
  182.6060  178.4700  144.1160 C   0  0  0  0  0  2  0  0  0  0  0  0
  182.0440  179.2300  142.9250 C   0  0  0  0  0  2  0  0  0  0  0  0
  182.4270  178.5440  141.6210 C   0  0  0  0  0  2  0  0  0  0  0  0
  185.5110  177.7240  144.4490 O   0  0  0  0  0  0  0  0  0  0  0  0
  186.4380  177.6690  145.5170 C   0  0  2  0  0  3  0  0  0  0  0  0
  186.2130  178.7380  146.5830 C   0  0  0  0  0  1  0  0  0  0  0  0
  188.1620  177.6300  143.6700 N   0  0  0  0  0  2  0  0  0  0  0  0
  188.7930  177.4310  145.9080 O   0  0  0  0  0  0  0  0  0  0  0  0
  189.5260  177.6070  143.1710 C   0  0  0  0  0  1  0  0  0  0  0  0
  187.8640  177.5500  145.0640 C   0  0  0  0  0  0  0  0  0  0  0  0
  186.0140  175.7470  135.1820 C   0  0  0  0  0  2  0  0  0  0  0  0
  186.7150  173.4020  135.6700 C   0  0  0  0  0  0  0  0  0  0  0  0
  185.0890  171.9800  136.8980 N   0  0  1  0  0  0  0  0  0  0  0  0
  182.6550  171.7710  136.9230 C   0  0  0  0  0  1  0  0  0  0  0  0
  184.5170  173.1970  137.5450 C   0  0  2  0  0  3  0  0  0  0  0  0
  187.8790  173.4730  135.1970 O   0  0  0  0  0  0  0  0  0  0  0  0
  183.8280  172.5860  136.4160 C   0  0  1  0  0  3  0  0  0  0  0  0
  186.0080  174.5720  136.0360 N   0  0  0  0  0  0  0  0  0  0  0  0
  185.1870  174.5530  137.2350 C   0  0  0  0  0  2  0  0  0  0  0  0
  186.0200  172.0950  135.7650 C   0  0  0  0  0  2  0  0  0  0  0  0
  190.6290  176.3730  135.4850 C   0  0  0  0  0  2  0  0  0  0  0  0
  191.2840  175.3520  136.2830 N   0  0  0  0  0  2  0  0  0  0  0  0
  192.5520  175.0700  135.6270 C   0  0  1  0  0  3  0  0  0  0  0  0
  196.4700  174.9150  136.5730 C   0  0  2  0  0  3  0  0  0  0  0  0
  195.0160  175.0200  136.2400 N   0  0  0  0  0  0  0  0  0  0  0  0
  193.6990  175.4960  136.5060 C   0  0  0  0  0  0  0  0  0  0  0  0
  196.0200  174.2490  135.4510 C   0  0  0  0  0  2  0  0  0  0  0  0
  193.5050  176.2250  137.5160 O   0  0  0  0  0  0  0  0  0  0  0  0
  196.6670  173.9250  137.7170 C   0  0  1  0  0  3  0  0  0  0  0  0
  197.7040  171.6720  137.3150 C   0  0  0  0  0  0  0  0  0  0  0  0
  198.7140  170.9470  137.1240 O   0  0  0  0  0  0  0  0  0  0  0  0
  197.8500  173.0930  137.4870 N   0  0  0  0  0  0  0  0  0  0  0  0
  196.3570  171.0250  137.3490 C   0  0  0  0  0  1  0  0  0  0  0  0
  199.1670  173.7200  137.3430 C   0  0  0  0  0  2  0  0  0  0  0  0
  199.6160  173.7170  135.8850 C   0  0  0  0  0  2  0  0  0  0  0  0
  200.2320  174.9880  135.5410 N   0  0  0  0  0  1  0  0  0  0  0  0
  195.4870  174.6780  139.6430 O   0  0  0  0  0  1  0  0  0  0  0  0
  196.7530  174.6350  139.0600 C   0  0  0  0  0  2  0  0  0  0  0  0
  192.6140  173.5890  135.2660 C   0  0  0  0  0  2  0  0  0  0  0  0
  191.3450  172.8890  135.7180 C   0  0  0  0  0  1  0  0  0  0  0  0
  1  2  1  0  0  0  0
  2  7  1  1  0  0  0
  3  4  1  0  0  0  0
  3  5  2  0  0  0  0
  4 26  1  6  0  0  0
  4  2  1  0  0  0  0
  5  1  1  0  0  0  0
  7  6  2  0  0  0  0
  8  7  1  0  0  0  0
  8  9  1  0  0  0  0
  9 10  1  0  0  0  0
 11 15  1  0  0  0  0
 12 11  1  0  0  0  0
 13 10  1  6  0  0  0
 13 18  1  0  0  0  0
 13 12  1  0  0  0  0
 15 19  1  6  0  0  0
 15 14  1  0  0  0  0
 16 14  1  0  0  0  0
 17 16  1  0  0  0  0
 18 17  1  0  0  0  0
 19 20  1  0  0  0  0
 20 21  1  6  0  0  0
 22 25  1  0  0  0  0
 24 22  1  0  0  0  0
 25 20  1  0  0  0  0
 25 23  2  0  0  0  0
 26 33  1  0  0  0  0
 27 35  1  0  0  0  0
 27 33  1  0  0  0  0
 28 35  1  6  0  0  0
 28 30  1  0  0  0  0
 30 34  1  6  0  0  0
 31 27  2  0  0  0  0
 32 28  1  0  0  0  0
 32 29  1  1  0  0  0
 32 30  1  0  0  0  0
 33 34  1  0  0  0  0
 36  5  1  0  0  0  0
 36 37  1  0  0  0  0
 38 54  1  1  0  0  0
 38 37  1  0  0  0  0
 38 41  1  0  0  0  0
 39 44  1  1  0  0  0
 40 41  1  0  0  0  0
 40 39  1  0  0  0  0
 41 43  2  0  0  0  0
 42 40  1  0  0  0  0
 42 39  1  0  0  0  0
 44 53  1  1  0  0  0
 45 48  1  0  0  0  0
 45 47  1  0  0  0  0
 46 45  2  0  0  0  0
 47 44  1  0  0  0  0
 49 47  1  0  0  0  0
 50 49  1  0  0  0  0
 51 50  1  0  0  0  0
 53 52  1  0  0  0  0
 54 55  1  0  0  0  0
M  END
>  <MODEL>
5

>  <REMARK>
 VINA RESULT:      -5.9      2.448      9.557
  Name = 
  20 active torsions:
  status: ('A' for Active; 'I' for Inactive)
    1  A    between atoms: C_3  and  C_12
    2  A    between atoms: C_3  and  N_25
    3  A    between atoms: C_5  and  C_37
    4  A    between atoms: C_5  and  O_38
    5  A    between atoms: C_8  and  C_10
    6  A    between atoms: C_8  and  N_31
    7  A    between atoms: C_9  and  N_25
    8  A    between atoms: C_9  and  C_28
    9  A    between atoms: C_9  and  C_41
   10  A    between atoms: C_15  and  N_19
   11  A    between atoms: C_15  and  C_43
   12  A    between atoms: C_18  and  N_33
   13  A    between atoms: C_18  and  C_42
   14  A    between atoms: N_19  and  C_26
   15  A    between atoms: C_22  and  C_26
   16  A    between atoms: C_26  and  C_47
   17  A    between atoms: N_31  and  C_39
   18  A    between atoms: C_34  and  C_35
   19  A    between atoms: C_34  and  C_39
   20  A    between atoms: O_38  and  C_44
                            x       y       z     vdW  Elec       q    Type
                         _______ _______ _______ _____ _____    ______ ____

>  <TORSDO>
F 20

$$$$
=
 OpenBabel10232408483D

 55 59  0  0  1  0  0  0  0  0999 V2000
  188.5210  176.8650  137.0600 O   0  0  0  0  0  0  0  0  0  0  0  0
  187.2790  176.3110  137.4580 C   0  0  2  0  0  3  0  0  0  0  0  0
  188.2200  175.2150  135.5800 N   0  0  0  0  0  0  0  0  0  0  0  0
  187.0360  175.2010  136.4290 C   0  0  1  0  0  3  0  0  0  0  0  0
  188.9950  176.1680  135.9700 C   0  0  0  0  0  0  0  0  0  0  0  0
  185.4970  177.6010  136.3110 C   0  0  0  0  0  2  0  0  0  0  0  0
  186.2050  177.3660  137.4230 C   0  0  0  0  0  0  0  0  0  0  0  0
  185.8320  178.0540  138.7000 C   0  0  0  0  0  2  0  0  0  0  0  0
  186.9940  178.6780  139.3250 N   0  0  0  0  0  2  0  0  0  0  0  0
  186.9240  178.4850  140.7690 C   0  0  0  0  0  2  0  0  0  0  0  0
  188.5200  176.5810  143.3730 O   0  0  0  0  0  0  0  0  0  0  0  0
  188.1920  177.8000  142.7590 C   0  0  0  0  0  2  0  0  0  0  0  0
  188.0580  177.6010  141.2620 C   0  0  2  0  0  3  0  0  0  0  0  0
  190.9670  176.4130  143.2480 C   0  0  0  0  0  2  0  0  0  0  0  0
  189.7300  176.7200  144.0950 C   0  0  1  0  0  3  0  0  0  0  0  0
  191.2020  177.4300  142.1400 C   0  0  0  0  0  2  0  0  0  0  0  0
  190.4780  177.0140  140.8700 C   0  0  0  0  0  2  0  0  0  0  0  0
  189.3490  177.9840  140.5520 C   0  0  0  0  0  2  0  0  0  0  0  0
  189.8460  177.9470  144.7870 O   0  0  0  0  0  0  0  0  0  0  0  0
  190.0140  177.6970  146.1690 C   0  0  2  0  0  3  0  0  0  0  0  0
  190.8340  176.4460  146.4750 C   0  0  0  0  0  1  0  0  0  0  0  0
  187.5350  178.1720  146.2830 N   0  0  0  0  0  2  0  0  0  0  0  0
  188.7170  177.4990  148.1780 O   0  0  0  0  0  0  0  0  0  0  0  0
  186.2510  178.2050  146.9620 C   0  0  0  0  0  1  0  0  0  0  0  0
  188.7370  177.7950  146.9530 C   0  0  0  0  0  0  0  0  0  0  0  0
  186.8750  173.8480  137.0990 C   0  0  0  0  0  2  0  0  0  0  0  0
  185.1490  172.4280  135.9870 C   0  0  0  0  0  0  0  0  0  0  0  0
  182.8720  173.3990  135.7670 N   0  0  1  0  0  0  0  0  0  0  0  0
  181.9840  175.6390  135.3670 C   0  0  0  0  0  1  0  0  0  0  0  0
  183.1100  174.2270  136.9860 C   0  0  2  0  0  3  0  0  0  0  0  0
  185.8590  171.4020  135.8190 O   0  0  0  0  0  0  0  0  0  0  0  0
  183.2310  174.8310  135.6670 C   0  0  1  0  0  3  0  0  0  0  0  0
  185.5000  173.4030  136.9520 N   0  0  0  0  0  0  0  0  0  0  0  0
  184.4480  174.0330  137.7330 C   0  0  0  0  0  2  0  0  0  0  0  0
  183.9790  172.6860  135.1120 C   0  0  0  0  0  2  0  0  0  0  0  0
  190.2960  176.4730  135.3130 C   0  0  0  0  0  2  0  0  0  0  0  0
  191.3700  176.4090  136.2880 N   0  0  0  0  0  2  0  0  0  0  0  0
  192.4970  175.7800  135.6160 C   0  0  1  0  0  3  0  0  0  0  0  0
  196.4140  175.0190  136.2040 C   0  0  2  0  0  3  0  0  0  0  0  0
  194.9650  175.3390  136.0210 N   0  0  0  0  0  0  0  0  0  0  0  0
  193.7020  175.7730  136.5190 C   0  0  0  0  0  0  0  0  0  0  0  0
  195.8740  174.8450  134.9460 C   0  0  0  0  0  2  0  0  0  0  0  0
  193.6020  176.0910  137.7350 O   0  0  0  0  0  0  0  0  0  0  0  0
  196.5600  173.6670  136.8950 C   0  0  1  0  0  3  0  0  0  0  0  0
  197.8060  171.5880  136.2310 C   0  0  0  0  0  0  0  0  0  0  0  0
  198.8670  171.0080  135.8850 O   0  0  0  0  0  0  0  0  0  0  0  0
  197.8000  173.0040  136.4860 N   0  0  0  0  0  0  0  0  0  0  0  0
  196.5560  170.7770  136.3590 C   0  0  0  0  0  1  0  0  0  0  0  0
  199.0090  173.7990  136.2500 C   0  0  0  0  0  2  0  0  0  0  0  0
  199.6120  174.2800  137.5660 C   0  0  0  0  0  2  0  0  0  0  0  0
  200.0800  173.1520  138.3520 N   0  0  0  0  0  1  0  0  0  0  0  0
  195.3110  173.2200  138.8730 O   0  0  0  0  0  1  0  0  0  0  0  0
  196.4900  173.8040  138.4090 C   0  0  0  0  0  2  0  0  0  0  0  0
  192.0970  174.3780  135.1670 C   0  0  0  0  0  2  0  0  0  0  0  0
  192.3780  173.3770  136.2720 C   0  0  0  0  0  1  0  0  0  0  0  0
  1  2  1  0  0  0  0
  2  7  1  6  0  0  0
  3  5  2  0  0  0  0
  3  4  1  0  0  0  0
  4 26  1  1  0  0  0
  4  2  1  0  0  0  0
  5  1  1  0  0  0  0
  6  7  2  0  0  0  0
  7  8  1  0  0  0  0
  8  9  1  0  0  0  0
  9 10  1  0  0  0  0
 11 15  1  0  0  0  0
 12 11  1  0  0  0  0
 13 10  1  6  0  0  0
 13 12  1  0  0  0  0
 14 15  1  0  0  0  0
 15 19  1  6  0  0  0
 16 14  1  0  0  0  0
 17 16  1  0  0  0  0
 18 17  1  0  0  0  0
 18 13  1  0  0  0  0
 19 20  1  0  0  0  0
 20 21  1  6  0  0  0
 20 25  1  0  0  0  0
 22 25  1  0  0  0  0
 22 24  1  0  0  0  0
 25 23  2  0  0  0  0
 27 33  1  0  0  0  0
 28 35  1  6  0  0  0
 28 30  1  0  0  0  0
 30 34  1  6  0  0  0
 31 27  2  0  0  0  0
 32 29  1  1  0  0  0
 32 28  1  0  0  0  0
 32 30  1  0  0  0  0
 33 26  1  0  0  0  0
 33 34  1  0  0  0  0
 35 27  1  0  0  0  0
 36  5  1  0  0  0  0
 36 37  1  0  0  0  0
 38 54  1  1  0  0  0
 38 37  1  0  0  0  0
 38 41  1  0  0  0  0
 39 44  1  1  0  0  0
 40 39  1  0  0  0  0
 40 41  1  0  0  0  0
 41 43  2  0  0  0  0
 42 40  1  0  0  0  0
 42 39  1  0  0  0  0
 44 53  1  1  0  0  0
 45 48  1  0  0  0  0
 45 47  1  0  0  0  0
 46 45  2  0  0  0  0
 47 44  1  0  0  0  0
 49 47  1  0  0  0  0
 49 50  1  0  0  0  0
 50 51  1  0  0  0  0
 53 52  1  0  0  0  0
 54 55  1  0  0  0  0
M  END
>  <MODEL>
6

>  <REMARK>
 VINA RESULT:      -5.9      2.810      9.655
  Name = 
  20 active torsions:
  status: ('A' for Active; 'I' for Inactive)
    1  A    between atoms: C_3  and  C_12
    2  A    between atoms: C_3  and  N_25
    3  A    between atoms: C_5  and  C_37
    4  A    between atoms: C_5  and  O_38
    5  A    between atoms: C_8  and  C_10
    6  A    between atoms: C_8  and  N_31
    7  A    between atoms: C_9  and  N_25
    8  A    between atoms: C_9  and  C_28
    9  A    between atoms: C_9  and  C_41
   10  A    between atoms: C_15  and  N_19
   11  A    between atoms: C_15  and  C_43
   12  A    between atoms: C_18  and  N_33
   13  A    between atoms: C_18  and  C_42
   14  A    between atoms: N_19  and  C_26
   15  A    between atoms: C_22  and  C_26
   16  A    between atoms: C_26  and  C_47
   17  A    between atoms: N_31  and  C_39
   18  A    between atoms: C_34  and  C_35
   19  A    between atoms: C_34  and  C_39
   20  A    between atoms: O_38  and  C_44
                            x       y       z     vdW  Elec       q    Type
                         _______ _______ _______ _____ _____    ______ ____

>  <TORSDO>
F 20

$$$$
=
 OpenBabel10232408483D

 55 59  0  0  1  0  0  0  0  0999 V2000
  190.3830  175.3410  136.3830 O   0  0  0  0  0  0  0  0  0  0  0  0
  191.7780  175.5510  136.5120 C   0  0  2  0  0  3  0  0  0  0  0  0
  191.1830  173.2570  136.5270 N   0  0  0  0  0  0  0  0  0  0  0  0
  192.3410  174.1310  136.6520 C   0  0  1  0  0  3  0  0  0  0  0  0
  190.1280  173.9870  136.3970 C   0  0  0  0  0  0  0  0  0  0  0  0
  193.3180  176.7540  138.0400 C   0  0  0  0  0  2  0  0  0  0  0  0
  192.0660  176.4000  137.7210 C   0  0  0  0  0  0  0  0  0  0  0  0
  190.9140  176.9740  138.4880 C   0  0  0  0  0  2  0  0  0  0  0  0
  190.7540  176.3110  139.7790 N   0  0  0  0  0  2  0  0  0  0  0  0
  191.4250  177.0980  140.8080 C   0  0  0  0  0  2  0  0  0  0  0  0
  188.6330  176.3180  142.9400 O   0  0  0  0  0  0  0  0  0  0  0  0
  189.3820  177.2200  142.1690 C   0  0  0  0  0  2  0  0  0  0  0  0
  190.8430  176.8150  142.1830 C   0  0  2  0  0  3  0  0  0  0  0  0
  188.7660  177.1500  145.2480 C   0  0  0  0  0  2  0  0  0  0  0  0
  187.9460  177.0190  143.9610 C   0  0  1  0  0  3  0  0  0  0  0  0
  189.9890  178.0430  145.0900 C   0  0  0  0  0  2  0  0  0  0  0  0
  191.1920  177.2260  144.6460 C   0  0  0  0  0  2  0  0  0  0  0  0
  191.6090  177.6090  143.2330 C   0  0  0  0  0  2  0  0  0  0  0  0
  187.4060  178.2570  143.5430 O   0  0  0  0  0  0  0  0  0  0  0  0
  186.0750  178.0670  143.1020 C   0  0  2  0  0  3  0  0  0  0  0  0
  185.8570  178.4170  141.6320 C   0  0  0  0  0  1  0  0  0  0  0  0
  184.9910  178.2040  145.3810 N   0  0  0  0  0  2  0  0  0  0  0  0
  184.2830  179.5730  143.6280 O   0  0  0  0  0  0  0  0  0  0  0  0
  184.0820  178.7900  146.3500 C   0  0  0  0  0  1  0  0  0  0  0  0
  185.0500  178.6550  144.0270 C   0  0  0  0  0  0  0  0  0  0  0  0
  193.3590  173.8290  135.5660 C   0  0  0  0  0  2  0  0  0  0  0  0
  195.7420  174.1840  136.2180 C   0  0  0  0  0  0  0  0  0  0  0  0
  197.2210  172.1870  136.1850 N   0  0  1  0  0  0  0  0  0  0  0  0
  197.3960  170.1940  134.7840 C   0  0  0  0  0  1  0  0  0  0  0  0
  196.0430  171.3130  136.4580 C   0  0  2  0  0  3  0  0  0  0  0  0
  195.6560  175.4040  136.5120 O   0  0  0  0  0  0  0  0  0  0  0  0
  196.5650  171.4210  135.1030 C   0  0  1  0  0  3  0  0  0  0  0  0
  194.5890  173.3630  136.1820 N   0  0  0  0  0  0  0  0  0  0  0  0
  194.6780  172.0010  136.6810 C   0  0  0  0  0  2  0  0  0  0  0  0
  197.0420  173.5980  135.8100 C   0  0  0  0  0  2  0  0  0  0  0  0
  188.7610  173.4140  136.2540 C   0  0  0  0  0  2  0  0  0  0  0  0
  187.8610  174.4130  135.7050 N   0  0  0  0  0  2  0  0  0  0  0  0
  186.8150  174.6120  136.6970 C   0  0  1  0  0  3  0  0  0  0  0  0
  184.6780  178.0010  137.1580 C   0  0  2  0  0  3  0  0  0  0  0  0
  185.4690  176.7510  136.9360 N   0  0  0  0  0  0  0  0  0  0  0  0
  185.7880  175.5860  136.1810 C   0  0  0  0  0  0  0  0  0  0  0  0
  185.6310  177.6710  138.1000 C   0  0  0  0  0  2  0  0  0  0  0  0
  185.1590  175.3580  135.1120 O   0  0  0  0  0  0  0  0  0  0  0  0
  183.2900  177.6460  137.6810 C   0  0  1  0  0  3  0  0  0  0  0  0
  182.5430  177.7770  140.0770 C   0  0  0  0  0  0  0  0  0  0  0  0
  182.2540  178.4470  141.1020 O   0  0  0  0  0  0  0  0  0  0  0  0
  182.9640  178.4370  138.8700 N   0  0  0  0  0  0  0  0  0  0  0  0
  182.4470  176.2870  140.1470 C   0  0  0  0  0  1  0  0  0  0  0  0
  183.1540  179.8910  138.8550 C   0  0  0  0  0  2  0  0  0  0  0  0
  181.8320  180.6130  138.6190 C   0  0  0  0  0  2  0  0  0  0  0  0
  182.0570  182.0350  138.4280 N   0  0  0  0  0  1  0  0  0  0  0  0
  181.0520  177.1870  137.0110 O   0  0  0  0  0  1  0  0  0  0  0  0
  182.2270  177.8180  136.6050 C   0  0  0  0  0  2  0  0  0  0  0  0
  186.2050  173.2620  137.0620 C   0  0  0  0  0  2  0  0  0  0  0  0
  184.8220  173.4580  137.6550 C   0  0  0  0  0  1  0  0  0  0  0  0
  1  5  1  0  0  0  0
  1  2  1  0  0  0  0
  2  4  1  0  0  0  0
  2  7  1  1  0  0  0
  3  4  1  0  0  0  0
  4 26  1  6  0  0  0
  5  3  2  0  0  0  0
  7  6  2  0  0  0  0
  7  8  1  0  0  0  0
  8  9  1  0  0  0  0
  9 10  1  0  0  0  0
 11 15  1  0  0  0  0
 12 13  1  0  0  0  0
 12 11  1  0  0  0  0
 13 10  1  6  0  0  0
 13 18  1  0  0  0  0
 15 19  1  6  0  0  0
 15 14  1  0  0  0  0
 16 14  1  0  0  0  0
 17 16  1  0  0  0  0
 18 17  1  0  0  0  0
 20 21  1  6  0  0  0
 20 19  1  0  0  0  0
 20 25  1  0  0  0  0
 22 24  1  0  0  0  0
 23 25  2  0  0  0  0
 25 22  1  0  0  0  0
 26 33  1  0  0  0  0
 27 31  2  0  0  0  0
 28 35  1  6  0  0  0
 28 30  1  0  0  0  0
 30 34  1  6  0  0  0
 32 29  1  1  0  0  0
 32 28  1  0  0  0  0
 32 30  1  0  0  0  0
 33 27  1  0  0  0  0
 33 34  1  0  0  0  0
 35 27  1  0  0  0  0
 36  5  1  0  0  0  0
 37 36  1  0  0  0  0
 37 38  1  0  0  0  0
 38 54  1  6  0  0  0
 39 44  1  1  0  0  0
 39 42  1  0  0  0  0
 40 39  1  0  0  0  0
 40 42  1  0  0  0  0
 41 38  1  0  0  0  0
 41 40  1  0  0  0  0
 43 41  2  0  0  0  0
 44 53  1  6  0  0  0
 44 47  1  0  0  0  0
 45 48  1  0  0  0  0
 45 46  2  0  0  0  0
 47 45  1  0  0  0  0
 49 47  1  0  0  0  0
 50 49  1  0  0  0  0
 51 50  1  0  0  0  0
 53 52  1  0  0  0  0
 54 55  1  0  0  0  0
M  END
>  <MODEL>
7

>  <REMARK>
 VINA RESULT:      -5.9      1.780      2.553
  Name = 
  20 active torsions:
  status: ('A' for Active; 'I' for Inactive)
    1  A    between atoms: C_3  and  C_12
    2  A    between atoms: C_3  and  N_25
    3  A    between atoms: C_5  and  C_37
    4  A    between atoms: C_5  and  O_38
    5  A    between atoms: C_8  and  C_10
    6  A    between atoms: C_8  and  N_31
    7  A    between atoms: C_9  and  N_25
    8  A    between atoms: C_9  and  C_28
    9  A    between atoms: C_9  and  C_41
   10  A    between atoms: C_15  and  N_19
   11  A    between atoms: C_15  and  C_43
   12  A    between atoms: C_18  and  N_33
   13  A    between atoms: C_18  and  C_42
   14  A    between atoms: N_19  and  C_26
   15  A    between atoms: C_22  and  C_26
   16  A    between atoms: C_26  and  C_47
   17  A    between atoms: N_31  and  C_39
   18  A    between atoms: C_34  and  C_35
   19  A    between atoms: C_34  and  C_39
   20  A    between atoms: O_38  and  C_44
                            x       y       z     vdW  Elec       q    Type
                         _______ _______ _______ _____ _____    ______ ____

>  <TORSDO>
F 20

$$$$
=
 OpenBabel10232408483D

 55 59  0  0  1  0  0  0  0  0999 V2000
  186.7390  176.9220  137.2730 O   0  0  0  0  0  0  0  0  0  0  0  0
  185.5000  176.3600  137.6700 C   0  0  2  0  0  3  0  0  0  0  0  0
  186.3990  175.3370  135.7310 N   0  0  0  0  0  0  0  0  0  0  0  0
  185.2310  175.2960  136.6000 C   0  0  1  0  0  3  0  0  0  0  0  0
  187.1880  176.2680  136.1460 C   0  0  0  0  0  0  0  0  0  0  0  0
  183.5960  177.5950  136.6680 C   0  0  0  0  0  2  0  0  0  0  0  0
  184.4330  177.4220  137.7000 C   0  0  0  0  0  0  0  0  0  0  0  0
  184.2210  178.1930  138.9660 C   0  0  0  0  0  2  0  0  0  0  0  0
  185.3380  179.0950  139.2310 N   0  0  0  0  0  2  0  0  0  0  0  0
  185.6880  179.0210  140.6450 C   0  0  0  0  0  2  0  0  0  0  0  0
  187.6830  176.9870  142.8440 O   0  0  0  0  0  0  0  0  0  0  0  0
  187.3230  178.2300  142.3000 C   0  0  0  0  0  2  0  0  0  0  0  0
  186.8290  178.0450  140.8790 C   0  0  2  0  0  3  0  0  0  0  0  0
  190.0130  176.6150  142.1600 C   0  0  0  0  0  2  0  0  0  0  0  0
  189.0340  177.0230  143.2650 C   0  0  1  0  0  3  0  0  0  0  0  0
  190.0670  177.6110  141.0100 C   0  0  0  0  0  2  0  0  0  0  0  0
  189.0370  177.2580  139.9490 C   0  0  0  0  0  2  0  0  0  0  0  0
  187.9480  178.3200  139.8830 C   0  0  0  0  0  2  0  0  0  0  0  0
  189.4080  178.2350  143.8890 O   0  0  0  0  0  0  0  0  0  0  0  0
  189.8270  177.9750  145.2150 C   0  0  2  0  0  3  0  0  0  0  0  0
  190.8280  176.8280  145.3310 C   0  0  0  0  0  1  0  0  0  0  0  0
  188.9800  177.8540  147.5930 N   0  0  0  0  0  2  0  0  0  0  0  0
  187.4980  177.9180  145.7910 O   0  0  0  0  0  0  0  0  0  0  0  0
  187.9310  177.8620  148.5960 C   0  0  0  0  0  1  0  0  0  0  0  0
  188.6920  177.8960  146.1950 C   0  0  0  0  0  0  0  0  0  0  0  0
  185.0720  173.9170  137.2160 C   0  0  0  0  0  2  0  0  0  0  0  0
  182.7420  173.0590  136.9650 C   0  0  0  0  0  0  0  0  0  0  0  0
  182.4740  170.8570  135.8430 N   0  0  1  0  0  0  0  0  0  0  0  0
  183.7610  168.7820  135.7890 C   0  0  0  0  0  1  0  0  0  0  0  0
  183.7300  171.1000  135.0740 C   0  0  2  0  0  3  0  0  0  0  0  0
  182.1430  174.0530  137.4520 O   0  0  0  0  0  0  0  0  0  0  0  0
  183.7530  170.2290  136.2410 C   0  0  1  0  0  3  0  0  0  0  0  0
  184.0650  173.1760  136.4770 N   0  0  0  0  0  0  0  0  0  0  0  0
  184.4370  172.4590  135.2680 C   0  0  0  0  0  2  0  0  0  0  0  0
  182.1080  171.7180  136.9790 C   0  0  0  0  0  2  0  0  0  0  0  0
  188.4790  176.5920  135.4780 C   0  0  0  0  0  2  0  0  0  0  0  0
  189.5630  176.5330  136.4420 N   0  0  0  0  0  2  0  0  0  0  0  0
  190.6040  175.7140  135.8390 C   0  0  1  0  0  3  0  0  0  0  0  0
  194.5930  175.1770  136.0800 C   0  0  2  0  0  3  0  0  0  0  0  0
  193.1190  175.4190  136.0190 N   0  0  0  0  0  0  0  0  0  0  0  0
  191.8990  175.8850  136.5880 C   0  0  0  0  0  0  0  0  0  0  0  0
  193.9290  174.7920  134.9340 C   0  0  0  0  0  2  0  0  0  0  0  0
  191.9170  176.3860  137.7450 O   0  0  0  0  0  0  0  0  0  0  0  0
  194.8800  173.9550  136.9470 C   0  0  1  0  0  3  0  0  0  0  0  0
  195.7380  171.7750  136.0380 C   0  0  0  0  0  0  0  0  0  0  0  0
  196.6650  171.0760  135.5530 O   0  0  0  0  0  0  0  0  0  0  0  0
  195.9660  173.1540  136.3760 N   0  0  0  0  0  0  0  0  0  0  0  0
  194.3990  171.1410  136.2430 C   0  0  0  0  0  1  0  0  0  0  0  0
  197.2530  173.7850  136.0670 C   0  0  0  0  0  2  0  0  0  0  0  0
  197.3460  174.1380  134.5860 C   0  0  0  0  0  2  0  0  0  0  0  0
  197.8060  175.5060  134.4190 N   0  0  0  0  0  1  0  0  0  0  0  0
  195.7200  173.2500  139.0600 O   0  0  0  0  0  1  0  0  0  0  0  0
  195.1920  174.3490  138.3830 C   0  0  0  0  0  2  0  0  0  0  0  0
  190.1410  174.2610  135.8000 C   0  0  0  0  0  2  0  0  0  0  0  0
  189.9720  173.8050  134.3630 C   0  0  0  0  0  1  0  0  0  0  0  0
  1  2  1  0  0  0  0
  2  7  1  6  0  0  0
  3  5  2  0  0  0  0
  3  4  1  0  0  0  0
  4 26  1  1  0  0  0
  4  2  1  0  0  0  0
  5  1  1  0  0  0  0
  6  7  2  0  0  0  0
  7  8  1  0  0  0  0
  8  9  1  0  0  0  0
  9 10  1  0  0  0  0
 11 15  1  0  0  0  0
 12 11  1  0  0  0  0
 13 10  1  6  0  0  0
 13 12  1  0  0  0  0
 14 15  1  0  0  0  0
 15 19  1  6  0  0  0
 16 14  1  0  0  0  0
 17 16  1  0  0  0  0
 18 17  1  0  0  0  0
 18 13  1  0  0  0  0
 19 20  1  0  0  0  0
 20 21  1  6  0  0  0
 20 25  1  0  0  0  0
 22 24  1  0  0  0  0
 23 25  2  0  0  0  0
 25 22  1  0  0  0  0
 27 35  1  0  0  0  0
 27 31  2  0  0  0  0
 28 32  1  0  0  0  0
 28 35  1  1  0  0  0
 30 34  1  1  0  0  0
 30 28  1  0  0  0  0
 30 32  1  0  0  0  0
 32 29  1  6  0  0  0
 33 27  1  0  0  0  0
 33 26  1  0  0  0  0
 34 33  1  0  0  0  0
 36  5  1  0  0  0  0
 36 37  1  0  0  0  0
 38 54  1  1  0  0  0
 38 37  1  0  0  0  0
 38 41  1  0  0  0  0
 39 44  1  1  0  0  0
 40 39  1  0  0  0  0
 40 41  1  0  0  0  0
 41 43  2  0  0  0  0
 42 40  1  0  0  0  0
 42 39  1  0  0  0  0
 44 53  1  1  0  0  0
 45 48  1  0  0  0  0
 45 47  1  0  0  0  0
 46 45  2  0  0  0  0
 47 44  1  0  0  0  0
 49 47  1  0  0  0  0
 50 49  1  0  0  0  0
 51 50  1  0  0  0  0
 53 52  1  0  0  0  0
 55 54  1  0  0  0  0
M  END
>  <MODEL>
8

>  <REMARK>
 VINA RESULT:      -5.6      2.474      9.356
  Name = 
  20 active torsions:
  status: ('A' for Active; 'I' for Inactive)
    1  A    between atoms: C_3  and  C_12
    2  A    between atoms: C_3  and  N_25
    3  A    between atoms: C_5  and  C_37
    4  A    between atoms: C_5  and  O_38
    5  A    between atoms: C_8  and  C_10
    6  A    between atoms: C_8  and  N_31
    7  A    between atoms: C_9  and  N_25
    8  A    between atoms: C_9  and  C_28
    9  A    between atoms: C_9  and  C_41
   10  A    between atoms: C_15  and  N_19
   11  A    between atoms: C_15  and  C_43
   12  A    between atoms: C_18  and  N_33
   13  A    between atoms: C_18  and  C_42
   14  A    between atoms: N_19  and  C_26
   15  A    between atoms: C_22  and  C_26
   16  A    between atoms: C_26  and  C_47
   17  A    between atoms: N_31  and  C_39
   18  A    between atoms: C_34  and  C_35
   19  A    between atoms: C_34  and  C_39
   20  A    between atoms: O_38  and  C_44
                            x       y       z     vdW  Elec       q    Type
                         _______ _______ _______ _____ _____    ______ ____

>  <TORSDO>
F 20

$$$$
=
 OpenBabel10232408483D

 55 59  0  0  1  0  0  0  0  0999 V2000
  191.0350  177.0110  137.1890 O   0  0  0  0  0  0  0  0  0  0  0  0
  189.8010  177.4160  137.7550 C   0  0  2  0  0  3  0  0  0  0  0  0
  191.1370  176.1610  139.2570 N   0  0  0  0  0  0  0  0  0  0  0  0
  189.8350  176.8080  139.1620 C   0  0  1  0  0  3  0  0  0  0  0  0
  191.7460  176.2940  138.1280 C   0  0  0  0  0  0  0  0  0  0  0  0
  187.3830  177.1330  137.2750 C   0  0  0  0  0  2  0  0  0  0  0  0
  188.6550  176.8870  136.9330 C   0  0  0  0  0  0  0  0  0  0  0  0
  188.9560  176.2030  135.6350 C   0  0  0  0  0  2  0  0  0  0  0  0
  187.7360  175.9550  134.8720 N   0  0  0  0  0  2  0  0  0  0  0  0
  187.6880  174.5480  134.4900 C   0  0  0  0  0  2  0  0  0  0  0  0
  184.2230  174.7950  135.4330 O   0  0  0  0  0  0  0  0  0  0  0  0
  185.5920  174.9290  135.7150 C   0  0  0  0  0  2  0  0  0  0  0  0
  186.3810  173.9050  134.9240 C   0  0  2  0  0  3  0  0  0  0  0  0
  183.3950  173.0720  136.9760 C   0  0  0  0  0  2  0  0  0  0  0  0
  183.5090  174.5600  136.6330 C   0  0  1  0  0  3  0  0  0  0  0  0
  184.7310  172.4360  137.3330 C   0  0  0  0  0  2  0  0  0  0  0  0
  185.4120  171.8890  136.0890 C   0  0  0  0  0  2  0  0  0  0  0  0
  186.6760  172.6790  135.7780 C   0  0  0  0  0  2  0  0  0  0  0  0
  183.9630  175.3280  137.7300 O   0  0  0  0  0  0  0  0  0  0  0  0
  182.8730  176.0260  138.3010 C   0  0  2  0  0  3  0  0  0  0  0  0
  181.7210  176.2730  137.3300 C   0  0  0  0  0  1  0  0  0  0  0  0
  182.9870  177.3110  140.4740 N   0  0  0  0  0  2  0  0  0  0  0  0
  183.9320  178.1680  138.5200 O   0  0  0  0  0  0  0  0  0  0  0  0
  183.4300  178.4180  141.3030 C   0  0  0  0  0  1  0  0  0  0  0  0
  183.2850  177.2420  139.0800 C   0  0  0  0  0  0  0  0  0  0  0  0
  189.6910  177.8760  140.2310 C   0  0  0  0  0  2  0  0  0  0  0  0
  187.4680  178.1530  141.3320 C   0  0  0  0  0  0  0  0  0  0  0  0
  187.3210  177.5220  143.7320 N   0  0  1  0  0  0  0  0  0  0  0  0
  188.8290  177.6650  145.6480 C   0  0  0  0  0  1  0  0  0  0  0  0
  188.4250  176.5370  143.5380 C   0  0  2  0  0  3  0  0  0  0  0  0
  186.8240  178.5290  140.3190 O   0  0  0  0  0  0  0  0  0  0  0  0
  188.7070  177.8300  144.1460 C   0  0  1  0  0  3  0  0  0  0  0  0
  188.6910  177.4540  141.1970 N   0  0  0  0  0  0  0  0  0  0  0  0
  188.9830  176.3600  142.1090 C   0  0  0  0  0  2  0  0  0  0  0  0
  187.0070  178.5170  142.6950 C   0  0  0  0  0  2  0  0  0  0  0  0
  193.1040  175.7400  137.8710 C   0  0  0  0  0  2  0  0  0  0  0  0
  193.7780  176.5320  136.8590 N   0  0  0  0  0  2  0  0  0  0  0  0
  194.8390  175.6930  136.3210 C   0  0  1  0  0  3  0  0  0  0  0  0
  194.6760  171.8320  137.4730 C   0  0  2  0  0  3  0  0  0  0  0  0
  194.6890  173.2590  137.0260 N   0  0  0  0  0  0  0  0  0  0  0  0
  194.3340  174.2900  136.1090 C   0  0  0  0  0  0  0  0  0  0  0  0
  195.3550  172.7410  138.2570 C   0  0  0  0  0  2  0  0  0  0  0  0
  193.6440  173.9960  135.0960 O   0  0  0  0  0  0  0  0  0  0  0  0
  195.6670  171.0230  136.6430 C   0  0  1  0  0  3  0  0  0  0  0  0
  197.7750  169.8800  137.3950 C   0  0  0  0  0  0  0  0  0  0  0  0
  198.3670  169.0200  138.0970 O   0  0  0  0  0  0  0  0  0  0  0  0
  196.3460  170.0230  137.4720 N   0  0  0  0  0  0  0  0  0  0  0  0
  198.5900  170.7490  136.4920 C   0  0  0  0  0  1  0  0  0  0  0  0
  195.5780  169.2350  138.4410 C   0  0  0  0  0  2  0  0  0  0  0  0
  194.9660  168.0040  137.7810 C   0  0  0  0  0  2  0  0  0  0  0  0
  193.5480  167.9170  138.0870 N   0  0  0  0  0  1  0  0  0  0  0  0
  193.6070  170.4780  135.5800 O   0  0  0  0  0  1  0  0  0  0  0  0
  194.9910  170.3690  135.4460 C   0  0  0  0  0  2  0  0  0  0  0  0
  195.3740  176.3190  135.0370 C   0  0  0  0  0  2  0  0  0  0  0  0
  196.8880  176.2180  134.9990 C   0  0  0  0  0  1  0  0  0  0  0  0
  1  2  1  0  0  0  0
  1  5  1  0  0  0  0
  2  7  1  6  0  0  0
  2  4  1  0  0  0  0
  4  3  1  0  0  0  0
  4 26  1  1  0  0  0
  5  3  2  0  0  0  0
  7  6  2  0  0  0  0
  8  7  1  0  0  0  0
  9  8  1  0  0  0  0
 10  9  1  0  0  0  0
 11 12  1  0  0  0  0
 11 15  1  0  0  0  0
 13 10  1  1  0  0  0
 13 12  1  0  0  0  0
 13 18  1  0  0  0  0
 14 16  1  0  0  0  0
 15 14  1  0  0  0  0
 15 19  1  1  0  0  0
 17 16  1  0  0  0  0
 18 17  1  0  0  0  0
 19 20  1  0  0  0  0
 20 21  1  6  0  0  0
 20 25  1  0  0  0  0
 22 24  1  0  0  0  0
 23 25  2  0  0  0  0
 25 22  1  0  0  0  0
 26 33  1  0  0  0  0
 27 35  1  0  0  0  0
 28 35  1  6  0  0  0
 28 32  1  0  0  0  0
 30 34  1  6  0  0  0
 30 28  1  0  0  0  0
 30 32  1  0  0  0  0
 31 27  2  0  0  0  0
 32 29  1  1  0  0  0
 33 27  1  0  0  0  0
 33 34  1  0  0  0  0
 36  5  1  0  0  0  0
 37 36  1  0  0  0  0
 38 54  1  6  0  0  0
 38 37  1  0  0  0  0
 39 44  1  6  0  0  0
 39 42  1  0  0  0  0
 40 39  1  0  0  0  0
 40 42  1  0  0  0  0
 41 38  1  0  0  0  0
 41 40  1  0  0  0  0
 43 41  2  0  0  0  0
 44 53  1  6  0  0  0
 44 47  1  0  0  0  0
 45 47  1  0  0  0  0
 45 46  2  0  0  0  0
 47 49  1  0  0  0  0
 48 45  1  0  0  0  0
 50 51  1  0  0  0  0
 50 49  1  0  0  0  0
 53 52  1  0  0  0  0
 55 54  1  0  0  0  0
M  END
>  <MODEL>
9

>  <REMARK>
 VINA RESULT:      -5.6      2.392     10.199
  Name = 
  20 active torsions:
  status: ('A' for Active; 'I' for Inactive)
    1  A    between atoms: C_3  and  C_12
    2  A    between atoms: C_3  and  N_25
    3  A    between atoms: C_5  and  C_37
    4  A    between atoms: C_5  and  O_38
    5  A    between atoms: C_8  and  C_10
    6  A    between atoms: C_8  and  N_31
    7  A    between atoms: C_9  and  N_25
    8  A    between atoms: C_9  and  C_28
    9  A    between atoms: C_9  and  C_41
   10  A    between atoms: C_15  and  N_19
   11  A    between atoms: C_15  and  C_43
   12  A    between atoms: C_18  and  N_33
   13  A    between atoms: C_18  and  C_42
   14  A    between atoms: N_19  and  C_26
   15  A    between atoms: C_22  and  C_26
   16  A    between atoms: C_26  and  C_47
   17  A    between atoms: N_31  and  C_39
   18  A    between atoms: C_34  and  C_35
   19  A    between atoms: C_34  and  C_39
   20  A    between atoms: O_38  and  C_44
                            x       y       z     vdW  Elec       q    Type
                         _______ _______ _______ _____ _____    ______ ____

>  <TORSDO>
F 20

$$$$
