=
 OpenBabel10232409403D

 58 62  0  0  1  0  0  0  0  0999 V2000
  186.0560  179.9240  141.0920 O   0  0  0  0  0  1  0  0  0  0  0  0
  182.5790  178.4450  140.9650 C   0  0  1  0  0  3  0  0  0  0  0  0
  184.8980  178.0900  140.0870 C   0  0  0  0  0  2  0  0  0  0  0  0
  183.5480  178.7450  139.8170 C   0  0  0  0  0  2  0  0  0  0  0  0
  184.5430  178.7450  142.4810 C   0  0  0  0  0  0  0  0  0  0  0  0
  183.3630  179.1440  145.7590 O   0  0  0  0  0  0  0  0  0  0  0  0
  183.5770  178.9780  144.5270 C   0  0  0  0  0  0  0  0  0  0  0  0
  183.2180  178.7790  142.3060 C   0  0  0  0  0  0  0  0  0  0  0  0
  182.5450  178.8860  143.5600 N   0  0  0  0  0  0  0  0  0  0  0  0
  185.5320  178.6630  141.3510 C   0  0  2  0  0  3  0  0  0  0  0  0
  184.9310  178.8820  143.9210 C   0  0  1  0  0  3  0  0  0  0  0  0
  186.4850  177.6860  145.3750 C   0  0  0  0  0  0  0  0  0  0  0  0
  185.6120  177.6430  144.4060 C   0  0  0  0  0  3  0  0  0  0  0  0
  187.3760  177.7330  146.3300 C   0  0  0  0  0  3  0  0  0  0  0  0
  190.9250  176.6050  146.9230 C   0  0  0  0  0  3  0  0  0  0  0  0
  188.7770  177.3870  146.1170 C   0  0  0  0  0  0  0  0  0  0  0  0
  191.4890  176.8360  145.6620 C   0  0  0  0  0  3  0  0  0  0  0  0
  189.3460  177.5990  144.8570 C   0  0  0  0  0  3  0  0  0  0  0  0
  189.5730  176.8780  147.1490 C   0  0  0  0  0  3  0  0  0  0  0  0
  190.7040  177.3250  144.6200 C   0  0  0  0  0  0  0  0  0  0  0  0
  191.3150  177.6000  143.3520 N   0  0  0  0  0  2  0  0  0  0  0  0
  190.9670  176.9890  142.1050 C   0  0  0  0  0  0  0  0  0  0  0  0
  191.3770  177.6250  140.8860 N   0  0  0  0  0  2  0  0  0  0  0  0
  190.3070  175.9180  142.0830 O   0  0  0  0  0  0  0  0  0  0  0  0
  191.3510  177.0600  139.5710 C   0  0  0  0  0  0  0  0  0  0  0  0
  190.0040  175.6780  137.8450 C   0  0  0  0  0  2  0  0  0  0  0  0
  192.4940  176.6060  139.0590 C   0  0  0  0  0  3  0  0  0  0  0  0
  191.3520  174.9570  137.6540 C   0  0  0  0  0  2  0  0  0  0  0  0
  192.5160  175.9430  137.7200 C   0  0  2  0  0  3  0  0  0  0  0  0
  193.8360  175.2110  137.5360 C   0  0  0  0  0  1  0  0  0  0  0  0
  190.0550  176.9080  138.7910 C   0  0  2  0  0  3  0  0  0  0  0  0
  189.6160  177.9670  136.6670 O   0  0  0  0  0  1  0  0  0  0  0  0
  189.7110  178.1920  138.0360 C   0  0  1  0  0  3  0  0  0  0  0  0
  188.4980  178.7150  138.4960 O   0  0  0  0  0  0  0  0  0  0  0  0
  187.6290  177.6340  138.5010 C   0  0  0  0  0  1  0  0  0  0  0  0
  181.1800  179.0460  140.7570 C   0  0  2  0  0  3  0  0  0  0  0  0
  180.2330  178.0690  141.0360 O   0  0  0  0  0  1  0  0  0  0  0  0
  180.9320  179.5270  139.3310 C   0  0  0  0  0  2  0  0  0  0  0  0
  180.1310  178.4990  138.5500 C   0  0  0  0  0  2  0  0  0  0  0  0
  180.4270  179.5340  136.4510 O   0  0  0  0  0  0  0  0  0  0  0  0
  180.5300  178.5050  137.1020 C   0  0  0  0  0  0  0  0  0  0  0  0
  181.8840  176.4360  137.4090 C   0  0  2  0  0  3  0  0  0  0  0  0
  182.0360  177.6830  134.9710 S   0  0  0  0  0  0  0  0  0  0  0  0
  181.0390  177.2530  136.4380 C   0  0  2  0  0  3  0  0  0  0  0  0
  183.5510  177.1340  135.8100 C   0  0  1  0  0  3  0  0  0  0  0  0
  183.1540  175.9870  136.7100 C   0  0  0  0  0  2  0  0  0  0  0  0
  181.2320  175.3060  139.5310 C   0  0  0  0  0  1  0  0  0  0  0  0
  181.0980  175.2760  138.0200 C   0  0  2  0  0  3  0  0  0  0  0  0
  181.5620  173.9950  137.5130 N   0  0  0  0  0  2  0  0  0  0  0  0
  180.9690  173.3540  136.3850 C   0  0  0  0  0  0  0  0  0  0  0  0
  179.9820  173.8710  135.7940 O   0  0  0  0  0  0  0  0  0  0  0  0
  181.5180  172.0600  135.9130 C   0  0  0  0  0  1  0  0  0  0  0  0
  184.4970  176.7160  134.8680 O   0  0  0  0  0  0  0  0  0  0  0  0
  186.4660  178.0400  134.6660 C   0  0  0  0  0  1  0  0  0  0  0  0
  186.5660  175.7040  135.4830 C   0  0  0  0  0  1  0  0  0  0  0  0
  185.7320  176.9700  135.4610 C   0  0  0  0  0  3  0  0  0  0  0  0
  180.3870  178.3120  144.2130 O   0  0  0  0  0  1  0  0  0  0  0  0
  181.1930  179.3640  143.7970 C   0  0  0  0  0  2  0  0  0  0  0  0
  2 36  1  6  0  0  0
  2  8  1  0  0  0  0
  3 10  1  0  0  0  0
  4  3  1  0  0  0  0
  4  2  1  0  0  0  0
  5 11  1  0  0  0  0
  7  6  2  0  0  0  0
  8  5  2  0  0  0  0
  8  9  1  0  0  0  0
  9 58  1  0  0  0  0
  9  7  1  0  0  0  0
 10  1  1  6  0  0  0
 10  5  1  0  0  0  0
 11 13  1  1  0  0  0
 11  7  1  0  0  0  0
 12 14  2  0  0  0  0
 13 12  2  0  0  0  0
 15 19  1  0  0  0  0
 16 14  1  0  0  0  0
 16 19  2  0  0  0  0
 17 15  2  0  0  0  0
 18 16  1  0  0  0  0
 20 18  2  0  0  0  0
 20 17  1  0  0  0  0
 21 20  1  0  0  0  0
 22 21  1  0  0  0  0
 23 22  1  0  0  0  0
 24 22  2  0  0  0  0
 25 23  1  0  0  0  0
 26 31  1  0  0  0  0
 27 25  2  0  0  0  0
 28 29  1  0  0  0  0
 28 26  1  0  0  0  0
 29 30  1  1  0  0  0
 29 27  1  0  0  0  0
 31 33  1  6  0  0  0
 31 25  1  0  0  0  0
 33 32  1  6  0  0  0
 33 34  1  0  0  0  0
 34 35  1  0  0  0  0
 36 37  1  6  0  0  0
 38 36  1  0  0  0  0
 39 38  1  0  0  0  0
 40 41  2  0  0  0  0
 41 39  1  0  0  0  0
 42 48  1  6  0  0  0
 43 45  1  0  0  0  0
 43 44  1  0  0  0  0
 44 41  1  1  0  0  0
 44 42  1  0  0  0  0
 45 53  1  6  0  0  0
 45 46  1  0  0  0  0
 46 42  1  0  0  0  0
 48 47  1  1  0  0  0
 49 48  1  0  0  0  0
 50 49  1  0  0  0  0
 51 50  2  0  0  0  0
 52 50  1  0  0  0  0
 53 56  1  0  0  0  0
 54 56  1  0  0  0  0
 56 55  1  0  0  0  0
 58 57  1  0  0  0  0
M  END
>  <MODEL>
1

>  <REMARK>
 VINA RESULT:      -8.9      0.000      0.000
  Name = 
  16 active torsions:
  status: ('A' for Active; 'I' for Inactive)
    1  A    between atoms: C_1  and  N_32
    2  A    between atoms: C_4  and  C_22
    3  A    between atoms: C_4  and  C_28
    4  A    between atoms: N_7  and  C_54
    5  A    between atoms: C_8  and  C_11
    6  A    between atoms: C_8  and  C_22
    7  A    between atoms: C_10  and  C_50
    8  A    between atoms: C_14  and  N_44
    9  A    between atoms: O_17  and  C_34
   10  A    between atoms: C_20  and  C_55
   11  A    between atoms: N_27  and  C_55
   12  A    between atoms: C_28  and  C_38
   13  A    between atoms: C_29  and  C_56
   14  A    between atoms: C_34  and  C_58
   15  A    between atoms: O_39  and  C_48
   16  A    between atoms: O_39  and  C_49
                            x       y       z     vdW  Elec       q    Type
                         _______ _______ _______ _____ _____    ______ ____

>  <TORSDO>
F 16

$$$$
=
 OpenBabel10232409403D

 58 62  0  0  1  0  0  0  0  0999 V2000
  186.2930  180.0510  141.4870 O   0  0  0  0  0  1  0  0  0  0  0  0
  183.0350  178.2120  140.9380 C   0  0  1  0  0  3  0  0  0  0  0  0
  185.4760  178.0890  140.3910 C   0  0  0  0  0  2  0  0  0  0  0  0
  184.1170  178.5940  139.9220 C   0  0  0  0  0  2  0  0  0  0  0  0
  184.7330  178.7410  142.6940 C   0  0  0  0  0  0  0  0  0  0  0  0
  183.0820  179.0650  145.7710 O   0  0  0  0  0  0  0  0  0  0  0  0
  183.4790  178.9030  144.5840 C   0  0  0  0  0  0  0  0  0  0  0  0
  183.4480  178.6330  142.3420 C   0  0  0  0  0  0  0  0  0  0  0  0
  182.6030  178.6880  143.4910 N   0  0  0  0  0  0  0  0  0  0  0  0
  185.8710  178.7450  141.7100 C   0  0  2  0  0  3  0  0  0  0  0  0
  184.9050  178.9410  144.1690 C   0  0  1  0  0  3  0  0  0  0  0  0
  186.6740  177.9750  145.5460 C   0  0  0  0  0  0  0  0  0  0  0  0
  185.6360  177.7880  144.7770 C   0  0  0  0  0  3  0  0  0  0  0  0
  187.7270  178.1620  146.2970 C   0  0  0  0  0  3  0  0  0  0  0  0
  191.1950  176.6900  146.4570 C   0  0  0  0  0  3  0  0  0  0  0  0
  189.0570  177.6960  145.9180 C   0  0  0  0  0  0  0  0  0  0  0  0
  191.6370  176.9120  145.1460 C   0  0  0  0  0  3  0  0  0  0  0  0
  189.5020  177.8990  144.6080 C   0  0  0  0  0  3  0  0  0  0  0  0
  189.9080  177.0790  146.8410 C   0  0  0  0  0  3  0  0  0  0  0  0
  190.7930  177.5100  144.2120 C   0  0  0  0  0  0  0  0  0  0  0  0
  191.2840  177.7720  142.8910 N   0  0  0  0  0  2  0  0  0  0  0  0
  191.0500  176.9610  141.7350 C   0  0  0  0  0  0  0  0  0  0  0  0
  191.2640  177.5320  140.4360 N   0  0  0  0  0  2  0  0  0  0  0  0
  190.6590  175.7720  141.8600 O   0  0  0  0  0  0  0  0  0  0  0  0
  191.3310  176.8320  139.1890 C   0  0  0  0  0  0  0  0  0  0  0  0
  190.0960  175.2950  137.5110 C   0  0  0  0  0  2  0  0  0  0  0  0
  192.5000  176.3090  138.8240 C   0  0  0  0  0  3  0  0  0  0  0  0
  191.4380  174.5380  137.5090 C   0  0  0  0  0  2  0  0  0  0  0  0
  192.6150  175.5080  137.5670 C   0  0  2  0  0  3  0  0  0  0  0  0
  193.9280  174.7410  137.5700 C   0  0  0  0  0  1  0  0  0  0  0  0
  190.0990  176.6170  138.3260 C   0  0  2  0  0  3  0  0  0  0  0  0
  189.1790  177.4460  136.2530 O   0  0  0  0  0  1  0  0  0  0  0  0
  189.8470  177.8190  137.4150 C   0  0  1  0  0  3  0  0  0  0  0  0
  189.0870  178.7840  138.0850 O   0  0  0  0  0  0  0  0  0  0  0  0
  187.8200  178.2290  138.1820 C   0  0  0  0  0  1  0  0  0  0  0  0
  181.6250  178.6600  140.5270 C   0  0  2  0  0  3  0  0  0  0  0  0
  181.2860  179.7860  141.2670 O   0  0  0  0  0  1  0  0  0  0  0  0
  180.5530  177.6060  140.7860 C   0  0  0  0  0  2  0  0  0  0  0  0
  179.9880  177.0820  139.4760 C   0  0  0  0  0  2  0  0  0  0  0  0
  181.0010  174.9620  139.6850 O   0  0  0  0  0  0  0  0  0  0  0  0
  180.8080  175.9320  138.9660 C   0  0  0  0  0  0  0  0  0  0  0  0
  182.8080  176.5730  137.6250 C   0  0  2  0  0  3  0  0  0  0  0  0
  180.3500  176.9390  136.4640 S   0  0  0  0  0  0  0  0  0  0  0  0
  181.4090  175.9660  137.5860 C   0  0  2  0  0  3  0  0  0  0  0  0
  181.5990  178.2560  136.3880 C   0  0  1  0  0  3  0  0  0  0  0  0
  182.9460  177.5800  136.4970 C   0  0  0  0  0  2  0  0  0  0  0  0
  185.0960  176.0060  136.8210 C   0  0  0  0  0  1  0  0  0  0  0  0
  183.9000  175.5040  137.6070 C   0  0  2  0  0  3  0  0  0  0  0  0
  183.4170  174.2620  137.0250 N   0  0  0  0  0  2  0  0  0  0  0  0
  184.0140  172.9970  137.3080 C   0  0  0  0  0  0  0  0  0  0  0  0
  185.0200  172.9130  138.0650 O   0  0  0  0  0  0  0  0  0  0  0  0
  183.4460  171.7720  136.6950 C   0  0  0  0  0  1  0  0  0  0  0  0
  181.4930  178.9490  135.1770 O   0  0  0  0  0  0  0  0  0  0  0  0
  180.7410  181.0520  134.3520 C   0  0  0  0  0  1  0  0  0  0  0  0
  180.9270  180.6180  136.7820 C   0  0  0  0  0  1  0  0  0  0  0  0
  180.6090  179.9950  135.4380 C   0  0  0  0  0  3  0  0  0  0  0  0
  180.4990  178.0760  144.2730 O   0  0  0  0  0  1  0  0  0  0  0  0
  181.1900  179.0250  143.5300 C   0  0  0  0  0  2  0  0  0  0  0  0
  2 36  1  6  0  0  0
  2  8  1  0  0  0  0
  3 10  1  0  0  0  0
  4  3  1  0  0  0  0
  4  2  1  0  0  0  0
  5 11  1  0  0  0  0
  7  6  2  0  0  0  0
  8  5  2  0  0  0  0
  8  9  1  0  0  0  0
  9 58  1  0  0  0  0
  9  7  1  0  0  0  0
 10  1  1  6  0  0  0
 10  5  1  0  0  0  0
 11  7  1  0  0  0  0
 11 13  1  1  0  0  0
 12 14  2  0  0  0  0
 13 12  2  0  0  0  0
 15 19  1  0  0  0  0
 16 14  1  0  0  0  0
 16 19  2  0  0  0  0
 17 15  2  0  0  0  0
 18 16  1  0  0  0  0
 20 18  2  0  0  0  0
 20 17  1  0  0  0  0
 21 20  1  0  0  0  0
 22 24  2  0  0  0  0
 22 21  1  0  0  0  0
 23 22  1  0  0  0  0
 25 23  1  0  0  0  0
 26 31  1  0  0  0  0
 27 25  2  0  0  0  0
 28 26  1  0  0  0  0
 28 29  1  0  0  0  0
 29 30  1  1  0  0  0
 29 27  1  0  0  0  0
 31 33  1  6  0  0  0
 31 25  1  0  0  0  0
 33 32  1  6  0  0  0
 33 34  1  0  0  0  0
 34 35  1  0  0  0  0
 36 38  1  0  0  0  0
 36 37  1  1  0  0  0
 39 38  1  0  0  0  0
 41 39  1  0  0  0  0
 41 40  2  0  0  0  0
 42 48  1  6  0  0  0
 43 44  1  0  0  0  0
 44 42  1  0  0  0  0
 44 41  1  1  0  0  0
 45 53  1  6  0  0  0
 45 43  1  0  0  0  0
 45 46  1  0  0  0  0
 46 42  1  0  0  0  0
 48 47  1  6  0  0  0
 49 50  1  0  0  0  0
 49 48  1  0  0  0  0
 50 51  2  0  0  0  0
 52 50  1  0  0  0  0
 53 56  1  0  0  0  0
 54 56  1  0  0  0  0
 56 55  1  0  0  0  0
 58 57  1  0  0  0  0
M  END
>  <MODEL>
2

>  <REMARK>
 VINA RESULT:      -8.1      1.407      2.317
  Name = 
  16 active torsions:
  status: ('A' for Active; 'I' for Inactive)
    1  A    between atoms: C_1  and  N_32
    2  A    between atoms: C_4  and  C_22
    3  A    between atoms: C_4  and  C_28
    4  A    between atoms: N_7  and  C_54
    5  A    between atoms: C_8  and  C_11
    6  A    between atoms: C_8  and  C_22
    7  A    between atoms: C_10  and  C_50
    8  A    between atoms: C_14  and  N_44
    9  A    between atoms: O_17  and  C_34
   10  A    between atoms: C_20  and  C_55
   11  A    between atoms: N_27  and  C_55
   12  A    between atoms: C_28  and  C_38
   13  A    between atoms: C_29  and  C_56
   14  A    between atoms: C_34  and  C_58
   15  A    between atoms: O_39  and  C_48
   16  A    between atoms: O_39  and  C_49
                            x       y       z     vdW  Elec       q    Type
                         _______ _______ _______ _____ _____    ______ ____

>  <TORSDO>
F 16

$$$$
=
 OpenBabel10232409403D

 58 62  0  0  1  0  0  0  0  0999 V2000
  186.5110  180.2890  141.8200 O   0  0  0  0  0  1  0  0  0  0  0  0
  183.3810  178.3550  140.9520 C   0  0  1  0  0  3  0  0  0  0  0  0
  185.8610  178.3350  140.6050 C   0  0  0  0  0  2  0  0  0  0  0  0
  184.5260  178.8070  140.0410 C   0  0  0  0  0  2  0  0  0  0  0  0
  184.9090  178.8870  142.8570 C   0  0  0  0  0  0  0  0  0  0  0  0
  183.0010  179.0570  145.7950 O   0  0  0  0  0  0  0  0  0  0  0  0
  183.4990  178.9470  144.6410 C   0  0  0  0  0  0  0  0  0  0  0  0
  183.6610  178.7460  142.3970 C   0  0  0  0  0  0  0  0  0  0  0  0
  182.7240  178.7350  143.4730 N   0  0  0  0  0  0  0  0  0  0  0  0
  186.1210  178.9630  141.9710 C   0  0  2  0  0  3  0  0  0  0  0  0
  184.9520  179.0470  144.3450 C   0  0  1  0  0  3  0  0  0  0  0  0
  186.8570  178.0580  145.5090 C   0  0  0  0  0  0  0  0  0  0  0  0
  185.6740  177.9020  144.9790 C   0  0  0  0  0  3  0  0  0  0  0  0
  188.0500  178.2090  146.0190 C   0  0  0  0  0  3  0  0  0  0  0  0
  191.5430  176.8420  145.6420 C   0  0  0  0  0  3  0  0  0  0  0  0
  189.2270  177.5370  145.4820 C   0  0  0  0  0  0  0  0  0  0  0  0
  191.4820  176.3140  144.3460 C   0  0  0  0  0  3  0  0  0  0  0  0
  189.1710  176.9920  144.1950 C   0  0  0  0  0  3  0  0  0  0  0  0
  190.4190  177.4500  146.2090 C   0  0  0  0  0  3  0  0  0  0  0  0
  190.2960  176.3770  143.6180 C   0  0  0  0  0  0  0  0  0  0  0  0
  190.2710  175.8740  142.2750 N   0  0  0  0  0  2  0  0  0  0  0  0
  189.8840  176.6130  141.1120 C   0  0  0  0  0  0  0  0  0  0  0  0
  190.2720  176.1210  139.8210 N   0  0  0  0  0  2  0  0  0  0  0  0
  189.2220  177.6770  141.2250 O   0  0  0  0  0  0  0  0  0  0  0  0
  189.7820  176.5620  138.5500 C   0  0  0  0  0  0  0  0  0  0  0  0
  190.3940  177.3930  136.1750 C   0  0  0  0  0  2  0  0  0  0  0  0
  188.6580  177.2760  138.5220 C   0  0  0  0  0  3  0  0  0  0  0  0
  189.3050  178.4420  136.4690 C   0  0  0  0  0  2  0  0  0  0  0  0
  188.1380  177.8220  137.2320 C   0  0  2  0  0  3  0  0  0  0  0  0
  187.0770  178.8750  137.5170 C   0  0  0  0  0  1  0  0  0  0  0  0
  190.5460  176.2950  137.2630 C   0  0  2  0  0  3  0  0  0  0  0  0
  190.5180  174.8320  135.3430 O   0  0  0  0  0  1  0  0  0  0  0  0
  190.2090  174.9160  136.6970 C   0  0  1  0  0  3  0  0  0  0  0  0
  190.9140  173.9240  137.3860 O   0  0  0  0  0  0  0  0  0  0  0  0
  192.2430  174.1420  137.0540 C   0  0  0  0  0  1  0  0  0  0  0  0
  181.9920  178.7660  140.4390 C   0  0  2  0  0  3  0  0  0  0  0  0
  181.1040  177.7270  140.6880 O   0  0  0  0  0  1  0  0  0  0  0  0
  181.9570  179.0450  138.9400 C   0  0  0  0  0  2  0  0  0  0  0  0
  180.9090  178.1830  138.2570 C   0  0  0  0  0  2  0  0  0  0  0  0
  181.3490  178.9220  136.0610 O   0  0  0  0  0  0  0  0  0  0  0  0
  181.2600  177.9640  136.8140 C   0  0  0  0  0  0  0  0  0  0  0  0
  181.9370  175.6360  137.3940 C   0  0  2  0  0  3  0  0  0  0  0  0
  182.7480  176.6080  134.9610 S   0  0  0  0  0  0  0  0  0  0  0  0
  181.4870  176.5740  136.2790 C   0  0  2  0  0  3  0  0  0  0  0  0
  183.9280  175.7390  136.0340 C   0  0  1  0  0  3  0  0  0  0  0  0
  183.1150  174.8110  136.9070 C   0  0  0  0  0  2  0  0  0  0  0  0
  180.6660  174.9590  139.4260 C   0  0  0  0  0  1  0  0  0  0  0  0
  180.7880  174.7800  137.9250 C   0  0  2  0  0  3  0  0  0  0  0  0
  180.9870  173.3730  137.6140 N   0  0  0  0  0  2  0  0  0  0  0  0
  180.5760  172.7930  136.3780 C   0  0  0  0  0  0  0  0  0  0  0  0
  179.9860  173.4850  135.5040 O   0  0  0  0  0  0  0  0  0  0  0  0
  180.8390  171.3550  136.1260 C   0  0  0  0  0  1  0  0  0  0  0  0
  184.8380  175.0120  135.2580 O   0  0  0  0  0  0  0  0  0  0  0  0
  187.0950  175.5280  134.7060 C   0  0  0  0  0  1  0  0  0  0  0  0
  186.5420  174.1100  136.6580 C   0  0  0  0  0  1  0  0  0  0  0  0
  186.0850  175.2850  135.8160 C   0  0  0  0  0  3  0  0  0  0  0  0
  181.1030  180.3280  142.9760 O   0  0  0  0  0  1  0  0  0  0  0  0
  181.3010  179.0220  143.4050 C   0  0  0  0  0  2  0  0  0  0  0  0
  2 36  1  6  0  0  0
  2  8  1  0  0  0  0
  3 10  1  0  0  0  0
  4  3  1  0  0  0  0
  4  2  1  0  0  0  0
  5 11  1  0  0  0  0
  7  6  2  0  0  0  0
  8  5  2  0  0  0  0
  8  9  1  0  0  0  0
  9  7  1  0  0  0  0
 10  1  1  6  0  0  0
 10  5  1  0  0  0  0
 11  7  1  0  0  0  0
 11 13  1  1  0  0  0
 12 14  2  0  0  0  0
 13 12  2  0  0  0  0
 15 19  1  0  0  0  0
 16 14  1  0  0  0  0
 16 19  2  0  0  0  0
 17 15  2  0  0  0  0
 18 16  1  0  0  0  0
 20 18  2  0  0  0  0
 20 17  1  0  0  0  0
 21 20  1  0  0  0  0
 22 24  2  0  0  0  0
 22 21  1  0  0  0  0
 23 22  1  0  0  0  0
 25 23  1  0  0  0  0
 26 28  1  0  0  0  0
 26 31  1  0  0  0  0
 27 25  2  0  0  0  0
 28 29  1  0  0  0  0
 29 30  1  1  0  0  0
 29 27  1  0  0  0  0
 31 33  1  6  0  0  0
 31 25  1  0  0  0  0
 33 32  1  6  0  0  0
 33 34  1  0  0  0  0
 35 34  1  0  0  0  0
 36 37  1  6  0  0  0
 38 36  1  0  0  0  0
 39 38  1  0  0  0  0
 40 41  2  0  0  0  0
 41 39  1  0  0  0  0
 42 48  1  6  0  0  0
 43 45  1  0  0  0  0
 43 44  1  0  0  0  0
 44 41  1  1  0  0  0
 44 42  1  0  0  0  0
 45 53  1  6  0  0  0
 45 46  1  0  0  0  0
 46 42  1  0  0  0  0
 48 47  1  1  0  0  0
 49 48  1  0  0  0  0
 50 49  1  0  0  0  0
 51 50  2  0  0  0  0
 52 50  1  0  0  0  0
 53 56  1  0  0  0  0
 54 56  1  0  0  0  0
 56 55  1  0  0  0  0
 57 58  1  0  0  0  0
 58  9  1  0  0  0  0
M  END
>  <MODEL>
3

>  <REMARK>
 VINA RESULT:      -7.1      1.388      2.243
  Name = 
  16 active torsions:
  status: ('A' for Active; 'I' for Inactive)
    1  A    between atoms: C_1  and  N_32
    2  A    between atoms: C_4  and  C_22
    3  A    between atoms: C_4  and  C_28
    4  A    between atoms: N_7  and  C_54
    5  A    between atoms: C_8  and  C_11
    6  A    between atoms: C_8  and  C_22
    7  A    between atoms: C_10  and  C_50
    8  A    between atoms: C_14  and  N_44
    9  A    between atoms: O_17  and  C_34
   10  A    between atoms: C_20  and  C_55
   11  A    between atoms: N_27  and  C_55
   12  A    between atoms: C_28  and  C_38
   13  A    between atoms: C_29  and  C_56
   14  A    between atoms: C_34  and  C_58
   15  A    between atoms: O_39  and  C_48
   16  A    between atoms: O_39  and  C_49
                            x       y       z     vdW  Elec       q    Type
                         _______ _______ _______ _____ _____    ______ ____

>  <TORSDO>
F 16

$$$$
=
 OpenBabel10232409403D

 58 62  0  0  1  0  0  0  0  0999 V2000
  186.6510  180.5160  142.3260 O   0  0  0  0  0  1  0  0  0  0  0  0
  183.7570  178.4240  141.0870 C   0  0  1  0  0  3  0  0  0  0  0  0
  186.2520  178.5910  140.9650 C   0  0  0  0  0  2  0  0  0  0  0  0
  184.9410  179.0010  140.3050 C   0  0  0  0  0  2  0  0  0  0  0  0
  185.0700  178.9550  143.1450 C   0  0  0  0  0  0  0  0  0  0  0  0
  182.9070  178.8360  145.9030 O   0  0  0  0  0  0  0  0  0  0  0  0
  183.5100  178.8220  144.7950 C   0  0  0  0  0  0  0  0  0  0  0  0
  183.8820  178.7550  142.5680 C   0  0  0  0  0  0  0  0  0  0  0  0
  182.8570  178.6220  143.5530 N   0  0  0  0  0  0  0  0  0  0  0  0
  186.3470  179.1610  142.3770 C   0  0  2  0  0  3  0  0  0  0  0  0
  184.9730  179.0370  144.6380 C   0  0  1  0  0  3  0  0  0  0  0  0
  186.9250  178.0780  145.7460 C   0  0  0  0  0  0  0  0  0  0  0  0
  185.7170  177.9110  145.2790 C   0  0  0  0  0  3  0  0  0  0  0  0
  188.1420  178.2400  146.1930 C   0  0  0  0  0  3  0  0  0  0  0  0
  191.6010  176.8180  145.7110 C   0  0  0  0  0  3  0  0  0  0  0  0
  189.2880  177.5390  145.6250 C   0  0  0  0  0  0  0  0  0  0  0  0
  191.4810  176.2600  144.4320 C   0  0  0  0  0  3  0  0  0  0  0  0
  189.1750  176.9650  144.3550 C   0  0  0  0  0  3  0  0  0  0  0  0
  190.5070  177.4540  146.3070 C   0  0  0  0  0  3  0  0  0  0  0  0
  190.2680  176.3220  143.7490 C   0  0  0  0  0  0  0  0  0  0  0  0
  190.1830  175.7880  142.4210 N   0  0  0  0  0  2  0  0  0  0  0  0
  189.8790  176.5330  141.2380 C   0  0  0  0  0  0  0  0  0  0  0  0
  190.2060  175.9650  139.9610 N   0  0  0  0  0  2  0  0  0  0  0  0
  189.3410  177.6670  141.3200 O   0  0  0  0  0  0  0  0  0  0  0  0
  189.7660  176.4230  138.6780 C   0  0  0  0  0  0  0  0  0  0  0  0
  190.4200  177.6110  136.4730 C   0  0  0  0  0  2  0  0  0  0  0  0
  188.5200  176.8790  138.5670 C   0  0  0  0  0  3  0  0  0  0  0  0
  189.0980  178.3660  136.7100 C   0  0  0  0  0  2  0  0  0  0  0  0
  188.0270  177.4340  137.2700 C   0  0  2  0  0  3  0  0  0  0  0  0
  186.7330  178.2000  137.5020 C   0  0  0  0  0  1  0  0  0  0  0  0
  190.7000  176.4630  137.4800 C   0  0  2  0  0  3  0  0  0  0  0  0
  190.5340  174.0610  137.6570 O   0  0  0  0  0  1  0  0  0  0  0  0
  190.7430  175.1110  136.7680 C   0  0  1  0  0  3  0  0  0  0  0  0
  189.7670  175.0580  135.7680 O   0  0  0  0  0  0  0  0  0  0  0  0
  190.2250  174.0970  134.8790 C   0  0  0  0  0  1  0  0  0  0  0  0
  182.3920  178.7670  140.4700 C   0  0  2  0  0  3  0  0  0  0  0  0
  181.4940  177.7560  140.7940 O   0  0  0  0  0  1  0  0  0  0  0  0
  182.4240  178.8760  138.9490 C   0  0  0  0  0  2  0  0  0  0  0  0
  181.5800  177.7840  138.3140 C   0  0  0  0  0  2  0  0  0  0  0  0
  182.1450  178.0430  136.0380 O   0  0  0  0  0  0  0  0  0  0  0  0
  182.1940  177.3220  137.0240 C   0  0  0  0  0  0  0  0  0  0  0  0
  183.4120  175.7490  135.5230 C   0  0  2  0  0  3  0  0  0  0  0  0
  181.6560  174.6560  137.3230 S   0  0  0  0  0  0  0  0  0  0  0  0
  182.8550  175.9720  136.9240 C   0  0  2  0  0  3  0  0  0  0  0  0
  181.6430  174.1100  135.5900 C   0  0  1  0  0  3  0  0  0  0  0  0
  183.0320  174.3580  135.0490 C   0  0  0  0  0  2  0  0  0  0  0  0
  185.2110  177.0110  134.3510 C   0  0  0  0  0  1  0  0  0  0  0  0
  184.9160  176.0120  135.4530 C   0  0  2  0  0  3  0  0  0  0  0  0
  185.6590  174.7850  135.2130 N   0  0  0  0  0  2  0  0  0  0  0  0
  186.1600  173.9700  136.2710 C   0  0  0  0  0  0  0  0  0  0  0  0
  185.9990  174.3050  137.4760 O   0  0  0  0  0  0  0  0  0  0  0  0
  186.8850  172.7180  135.9430 C   0  0  0  0  0  1  0  0  0  0  0  0
  181.3220  172.7490  135.5180 O   0  0  0  0  0  0  0  0  0  0  0  0
  182.4920  170.9150  134.5510 C   0  0  0  0  0  1  0  0  0  0  0  0
  182.8640  171.5780  136.9070 C   0  0  0  0  0  1  0  0  0  0  0  0
  182.5500  172.0900  135.5160 C   0  0  0  0  0  3  0  0  0  0  0  0
  181.1010  180.1480  143.5830 O   0  0  0  0  0  1  0  0  0  0  0  0
  181.4280  178.8140  143.3700 C   0  0  0  0  0  2  0  0  0  0  0  0
  2 36  1  6  0  0  0
  2  8  1  0  0  0  0
  3 10  1  0  0  0  0
  4  3  1  0  0  0  0
  4  2  1  0  0  0  0
  5 11  1  0  0  0  0
  7  6  2  0  0  0  0
  8  5  2  0  0  0  0
  8  9  1  0  0  0  0
  9  7  1  0  0  0  0
 10  1  1  6  0  0  0
 10  5  1  0  0  0  0
 11  7  1  0  0  0  0
 11 13  1  1  0  0  0
 12 14  2  0  0  0  0
 13 12  2  0  0  0  0
 15 19  1  0  0  0  0
 16 14  1  0  0  0  0
 16 19  2  0  0  0  0
 17 15  2  0  0  0  0
 18 16  1  0  0  0  0
 20 18  2  0  0  0  0
 20 17  1  0  0  0  0
 21 20  1  0  0  0  0
 22 24  2  0  0  0  0
 22 21  1  0  0  0  0
 23 22  1  0  0  0  0
 25 23  1  0  0  0  0
 26 28  1  0  0  0  0
 26 31  1  0  0  0  0
 27 25  2  0  0  0  0
 28 29  1  0  0  0  0
 29 30  1  1  0  0  0
 29 27  1  0  0  0  0
 31 33  1  6  0  0  0
 31 25  1  0  0  0  0
 33 32  1  1  0  0  0
 34 33  1  0  0  0  0
 35 34  1  0  0  0  0
 36 37  1  6  0  0  0
 38 36  1  0  0  0  0
 39 38  1  0  0  0  0
 40 41  2  0  0  0  0
 41 39  1  0  0  0  0
 42 48  1  1  0  0  0
 42 44  1  0  0  0  0
 44 41  1  6  0  0  0
 44 43  1  0  0  0  0
 45 53  1  1  0  0  0
 45 43  1  0  0  0  0
 46 42  1  0  0  0  0
 46 45  1  0  0  0  0
 48 47  1  6  0  0  0
 49 48  1  0  0  0  0
 49 50  1  0  0  0  0
 50 51  2  0  0  0  0
 52 50  1  0  0  0  0
 54 56  1  0  0  0  0
 56 53  1  0  0  0  0
 56 55  1  0  0  0  0
 58  9  1  0  0  0  0
 58 57  1  0  0  0  0
M  END
>  <MODEL>
4

>  <REMARK>
 VINA RESULT:      -6.5      1.815      3.389
  Name = 
  16 active torsions:
  status: ('A' for Active; 'I' for Inactive)
    1  A    between atoms: C_1  and  N_32
    2  A    between atoms: C_4  and  C_22
    3  A    between atoms: C_4  and  C_28
    4  A    between atoms: N_7  and  C_54
    5  A    between atoms: C_8  and  C_11
    6  A    between atoms: C_8  and  C_22
    7  A    between atoms: C_10  and  C_50
    8  A    between atoms: C_14  and  N_44
    9  A    between atoms: O_17  and  C_34
   10  A    between atoms: C_20  and  C_55
   11  A    between atoms: N_27  and  C_55
   12  A    between atoms: C_28  and  C_38
   13  A    between atoms: C_29  and  C_56
   14  A    between atoms: C_34  and  C_58
   15  A    between atoms: O_39  and  C_48
   16  A    between atoms: O_39  and  C_49
                            x       y       z     vdW  Elec       q    Type
                         _______ _______ _______ _____ _____    ______ ____

>  <TORSDO>
F 16

$$$$
