=
 OpenBabel10232409453D

 25 29  0  0  1  0  0  0  0  0999 V2000
  190.0170  176.1910  141.7970 N   0  0  0  0  0  0  0  0  0  0  0  0
  190.1630  178.2650  143.7000 C   0  0  0  0  0  2  0  0  0  0  0  0
  190.7110  177.2290  141.4620 C   0  0  0  0  0  0  0  0  0  0  0  0
  191.0320  178.3290  142.4470 C   0  0  0  0  0  2  0  0  0  0  0  0
  189.3220  176.0640  143.0640 C   0  0  0  0  0  2  0  0  0  0  0  0
  190.0500  176.8200  144.1790 C   0  0  2  0  0  3  0  0  0  0  0  0
  189.3010  176.7400  145.4410 N   0  0  2  0  0  0  0  0  0  0  0  0
  186.1080  179.1600  146.9510 C   0  0  0  0  0  0  0  0  0  0  0  0
  186.9680  178.0120  147.4060 C   0  0  2  0  0  3  0  0  0  0  0  0
  188.1460  177.6200  145.3560 C   0  0  1  0  0  3  0  0  0  0  0  0
  185.8700  178.2990  144.6500 C   0  0  0  0  0  3  0  0  0  0  0  0
  188.3280  178.4720  148.0020 C   0  0  0  0  0  2  0  0  0  0  0  0
  189.4490  177.4030  147.9010 C   0  0  0  0  0  2  0  0  0  0  0  0
  186.8000  177.1290  144.8610 C   0  0  2  0  0  3  0  0  0  0  0  0
  187.1660  176.9540  146.3220 C   0  0  2  0  0  3  0  0  0  0  0  0
  185.5660  179.2110  145.5830 C   0  0  0  0  0  3  0  0  0  0  0  0
  190.1310  177.3520  146.5040 C   0  0  0  0  0  2  0  0  0  0  0  0
  185.8120  180.0760  147.7640 O   0  0  0  0  0  0  0  0  0  0  0  0
  191.3990  177.2420  140.1350 C   0  0  0  0  0  2  0  0  0  0  0  0
  191.1890  174.8900  138.3250 O   0  0  0  0  0  0  0  0  0  0  0  0
  189.5530  178.0020  138.5020 C   0  0  0  0  0  3  0  0  0  0  0  0
  189.6180  176.0910  137.1060 O   0  0  0  0  0  0  0  0  0  0  0  0
  188.9700  177.3530  137.2290 C   0  0  0  0  0  3  0  0  0  0  0  0
  190.4430  177.0000  139.0650 N   0  0  0  0  0  0  0  0  0  0  0  0
  190.4650  175.9100  138.1730 C   0  0  0  0  0  0  0  0  0  0  0  0
  1  5  1  0  0  0  0
  2  6  1  0  0  0  0
  3  1  2  0  0  0  0
  3  4  1  0  0  0  0
  4  2  1  0  0  0  0
  6  5  1  6  0  0  0
  6  7  1  0  0  0  0
  7 17  1  1  0  0  0
  8  9  1  0  0  0  0
  8 18  2  0  0  0  0
  9 12  1  6  0  0  0
 10  7  1  0  0  0  0
 10 15  1  0  0  0  0
 11 14  1  0  0  0  0
 11 16  2  0  0  0  0
 13 12  1  0  0  0  0
 14 10  1  0  0  0  0
 14 15  1  0  0  0  0
 15  9  1  0  0  0  0
 16  8  1  0  0  0  0
 17 13  1  0  0  0  0
 19  3  1  0  0  0  0
 21 24  1  0  0  0  0
 22 23  1  0  0  0  0
 22 25  1  0  0  0  0
 23 21  2  0  0  0  0
 24 19  1  0  0  0  0
 25 20  2  0  0  0  0
 25 24  1  0  0  0  0
M  END
>  <MODEL>
1

>  <REMARK>
 VINA RESULT:      -8.8      0.000      0.000
  Name = 
  3 active torsions:
  status: ('A' for Active; 'I' for Inactive)
    1  A    between atoms: N_1  and  C_24
    2  A    between atoms: C_16  and  C_19
    3  A    between atoms: N_18  and  C_19
                            x       y       z     vdW  Elec       q    Type
                         _______ _______ _______ _____ _____    ______ ____

>  <TORSDO>
F 3

$$$$
=
 OpenBabel10232409453D

 25 29  0  0  1  0  0  0  0  0999 V2000
  190.4780  176.4210  140.9390 N   0  0  0  0  0  0  0  0  0  0  0  0
  188.1840  177.7010  141.9620 C   0  0  0  0  0  2  0  0  0  0  0  0
  189.8840  177.2530  140.1480 C   0  0  0  0  0  0  0  0  0  0  0  0
  188.7620  178.1470  140.6230 C   0  0  0  0  0  2  0  0  0  0  0  0
  190.0160  176.1190  142.2810 C   0  0  0  0  0  2  0  0  0  0  0  0
  189.3160  177.3240  142.9160 C   0  0  2  0  0  3  0  0  0  0  0  0
  188.7940  176.9850  144.2470 N   0  0  2  0  0  0  0  0  0  0  0  0
  185.9110  178.9800  146.7070 C   0  0  0  0  0  0  0  0  0  0  0  0
  186.8340  177.7930  146.7820 C   0  0  2  0  0  3  0  0  0  0  0  0
  187.6440  177.8300  144.5270 C   0  0  1  0  0  3  0  0  0  0  0  0
  185.2810  178.5590  144.3570 C   0  0  0  0  0  3  0  0  0  0  0  0
  188.2770  178.1750  147.2170 C   0  0  0  0  0  2  0  0  0  0  0  0
  189.3620  177.1790  146.7270 C   0  0  0  0  0  2  0  0  0  0  0  0
  186.2310  177.4000  144.1810 C   0  0  2  0  0  3  0  0  0  0  0  0
  186.8420  176.9650  145.5000 C   0  0  2  0  0  3  0  0  0  0  0  0
  185.1440  179.2700  145.4840 C   0  0  0  0  0  3  0  0  0  0  0  0
  189.7950  177.4120  145.2520 C   0  0  0  0  0  2  0  0  0  0  0  0
  185.7610  179.7170  147.7160 O   0  0  0  0  0  0  0  0  0  0  0  0
  190.4610  177.4980  138.7920 C   0  0  0  0  0  2  0  0  0  0  0  0
  189.0140  179.6750  137.3720 O   0  0  0  0  0  0  0  0  0  0  0  0
  188.7140  176.1680  137.4390 C   0  0  0  0  0  3  0  0  0  0  0  0
  187.6150  178.0410  136.4960 O   0  0  0  0  0  0  0  0  0  0  0  0
  187.5430  176.6190  136.5400 C   0  0  0  0  0  3  0  0  0  0  0  0
  189.4280  177.3890  137.7730 N   0  0  0  0  0  0  0  0  0  0  0  0
  188.7050  178.4640  137.2170 C   0  0  0  0  0  0  0  0  0  0  0  0
  1  5  1  0  0  0  0
  3  4  1  0  0  0  0
  3  1  2  0  0  0  0
  4  2  1  0  0  0  0
  5  6  1  0  0  0  0
  6  2  1  6  0  0  0
  6  7  1  0  0  0  0
  7 10  1  0  0  0  0
  7 17  1  1  0  0  0
  8  9  1  0  0  0  0
  8 18  2  0  0  0  0
  9 12  1  6  0  0  0
 10 15  1  0  0  0  0
 11 16  2  0  0  0  0
 13 12  1  0  0  0  0
 14 11  1  0  0  0  0
 14 10  1  0  0  0  0
 14 15  1  0  0  0  0
 15  9  1  0  0  0  0
 16  8  1  0  0  0  0
 17 13  1  0  0  0  0
 19  3  1  0  0  0  0
 21 24  1  0  0  0  0
 22 23  1  0  0  0  0
 22 25  1  0  0  0  0
 23 21  2  0  0  0  0
 24 19  1  0  0  0  0
 25 20  2  0  0  0  0
 25 24  1  0  0  0  0
M  END
>  <MODEL>
2

>  <REMARK>
 VINA RESULT:      -8.6      1.617      1.933
  Name = 
  3 active torsions:
  status: ('A' for Active; 'I' for Inactive)
    1  A    between atoms: N_1  and  C_24
    2  A    between atoms: C_16  and  C_19
    3  A    between atoms: N_18  and  C_19
                            x       y       z     vdW  Elec       q    Type
                         _______ _______ _______ _____ _____    ______ ____

>  <TORSDO>
F 3

$$$$
=
 OpenBabel10232409453D

 25 29  0  0  1  0  0  0  0  0999 V2000
  183.8920  178.9610  145.4220 N   0  0  0  0  0  0  0  0  0  0  0  0
  185.8870  178.4940  143.4860 C   0  0  0  0  0  2  0  0  0  0  0  0
  183.4800  178.6760  144.2300 C   0  0  0  0  0  0  0  0  0  0  0  0
  184.4260  178.2190  143.1440 C   0  0  0  0  0  2  0  0  0  0  0  0
  185.2930  179.0620  145.7840 C   0  0  0  0  0  2  0  0  0  0  0  0
  186.1580  178.1210  144.9410 C   0  0  2  0  0  3  0  0  0  0  0  0
  187.5810  178.2820  145.2710 N   0  0  2  0  0  0  0  0  0  0  0  0
  191.0270  176.1520  143.8850 C   0  0  0  0  0  0  0  0  0  0  0  0
  190.6900  177.2340  144.8740 C   0  0  2  0  0  3  0  0  0  0  0  0
  188.3700  177.4970  144.3360 C   0  0  1  0  0  3  0  0  0  0  0  0
  189.4630  176.9920  142.1700 C   0  0  0  0  0  3  0  0  0  0  0  0
  190.2220  176.6760  146.2470 C   0  0  0  0  0  2  0  0  0  0  0  0
  189.3090  177.6490  147.0400 C   0  0  0  0  0  2  0  0  0  0  0  0
  188.9000  178.0860  143.0430 C   0  0  2  0  0  3  0  0  0  0  0  0
  189.6970  178.2540  144.3220 C   0  0  2  0  0  3  0  0  0  0  0  0
  190.4090  176.1220  142.5480 C   0  0  0  0  0  3  0  0  0  0  0  0
  187.8250  177.6220  146.5750 C   0  0  0  0  0  2  0  0  0  0  0  0
  191.8810  175.2760  144.1860 O   0  0  0  0  0  0  0  0  0  0  0  0
  182.0100  178.5810  143.9770 C   0  0  0  0  0  2  0  0  0  0  0  0
  180.0040  180.6040  143.1200 O   0  0  0  0  0  0  0  0  0  0  0  0
  182.1370  178.3880  141.4080 C   0  0  0  0  0  3  0  0  0  0  0  0
  180.4250  179.9520  140.9310 O   0  0  0  0  0  0  0  0  0  0  0  0
  181.3180  179.0530  140.2810 C   0  0  0  0  0  3  0  0  0  0  0  0
  181.6970  179.0380  142.6310 N   0  0  0  0  0  0  0  0  0  0  0  0
  180.6570  179.9240  142.2850 C   0  0  0  0  0  0  0  0  0  0  0  0
  1  5  1  0  0  0  0
  3  1  2  0  0  0  0
  4  2  1  0  0  0  0
  4  3  1  0  0  0  0
  6  2  1  6  0  0  0
  6  7  1  0  0  0  0
  6  5  1  0  0  0  0
  7 17  1  1  0  0  0
  8 18  2  0  0  0  0
  8  9  1  0  0  0  0
  9 12  1  1  0  0  0
 10  7  1  0  0  0  0
 11 16  2  0  0  0  0
 11 14  1  0  0  0  0
 12 13  1  0  0  0  0
 14 15  1  0  0  0  0
 14 10  1  0  0  0  0
 15 10  1  0  0  0  0
 15  9  1  0  0  0  0
 16  8  1  0  0  0  0
 17 13  1  0  0  0  0
 19  3  1  0  0  0  0
 21 24  1  0  0  0  0
 22 25  1  0  0  0  0
 23 22  1  0  0  0  0
 23 21  2  0  0  0  0
 24 19  1  0  0  0  0
 25 24  1  0  0  0  0
 25 20  2  0  0  0  0
M  END
>  <MODEL>
3

>  <REMARK>
 VINA RESULT:      -7.7      4.081      7.020
  Name = 
  3 active torsions:
  status: ('A' for Active; 'I' for Inactive)
    1  A    between atoms: N_1  and  C_24
    2  A    between atoms: C_16  and  C_19
    3  A    between atoms: N_18  and  C_19
                            x       y       z     vdW  Elec       q    Type
                         _______ _______ _______ _____ _____    ______ ____

>  <TORSDO>
F 3

$$$$
=
 OpenBabel10232409453D

 25 29  0  0  1  0  0  0  0  0999 V2000
  188.7310  177.8530  138.8040 N   0  0  0  0  0  0  0  0  0  0  0  0
  190.3470  177.2550  141.0350 C   0  0  0  0  0  2  0  0  0  0  0  0
  189.7730  177.1210  138.5780 C   0  0  0  0  0  0  0  0  0  0  0  0
  190.6200  176.5670  139.7010 C   0  0  0  0  0  2  0  0  0  0  0  0
  188.3830  178.3730  140.1120 C   0  0  0  0  0  2  0  0  0  0  0  0
  188.8430  177.4320  141.2290 C   0  0  2  0  0  3  0  0  0  0  0  0
  188.5450  178.0020  142.5500 N   0  0  2  0  0  0  0  0  0  0  0  0
  189.9740  176.9300  146.4420 C   0  0  0  0  0  0  0  0  0  0  0  0
  188.9920  177.8880  145.8230 C   0  0  2  0  0  3  0  0  0  0  0  0
  189.4860  177.4610  143.5170 C   0  0  1  0  0  3  0  0  0  0  0  0
  191.6670  177.2530  144.6750 C   0  0  0  0  0  3  0  0  0  0  0  0
  187.6020  177.2430  145.5570 C   0  0  0  0  0  2  0  0  0  0  0  0
  186.8040  177.9260  144.4150 C   0  0  0  0  0  2  0  0  0  0  0  0
  190.7970  178.1540  143.8340 C   0  0  2  0  0  3  0  0  0  0  0  0
  189.5360  178.5680  144.5690 C   0  0  2  0  0  3  0  0  0  0  0  0
  191.2970  176.7000  145.8370 C   0  0  0  0  0  3  0  0  0  0  0  0
  187.2370  177.4640  142.9950 C   0  0  0  0  0  2  0  0  0  0  0  0
  189.6790  176.3440  147.5160 O   0  0  0  0  0  0  0  0  0  0  0  0
  190.0230  176.6260  137.1910 C   0  0  0  0  0  2  0  0  0  0  0  0
  190.8160  173.7800  137.5400 O   0  0  0  0  0  0  0  0  0  0  0  0
  187.9890  175.3900  136.1950 C   0  0  0  0  0  3  0  0  0  0  0  0
  188.8490  173.1990  136.4510 O   0  0  0  0  0  0  0  0  0  0  0  0
  187.7170  173.8930  135.9350 C   0  0  0  0  0  3  0  0  0  0  0  0
  189.2420  175.4260  136.9320 N   0  0  0  0  0  0  0  0  0  0  0  0
  189.7160  174.1020  137.0170 C   0  0  0  0  0  0  0  0  0  0  0  0
  1  5  1  0  0  0  0
  2  6  1  0  0  0  0
  3  1  2  0  0  0  0
  3  4  1  0  0  0  0
  4  2  1  0  0  0  0
  6  5  1  6  0  0  0
  6  7  1  0  0  0  0
  7 17  1  1  0  0  0
  7 10  1  0  0  0  0
  8 18  2  0  0  0  0
  9 12  1  6  0  0  0
  9  8  1  0  0  0  0
 10 14  1  0  0  0  0
 10 15  1  0  0  0  0
 11 16  2  0  0  0  0
 13 12  1  0  0  0  0
 14 15  1  0  0  0  0
 14 11  1  0  0  0  0
 15  9  1  0  0  0  0
 16  8  1  0  0  0  0
 17 13  1  0  0  0  0
 19  3  1  0  0  0  0
 21 24  1  0  0  0  0
 22 25  1  0  0  0  0
 23 21  2  0  0  0  0
 23 22  1  0  0  0  0
 24 25  1  0  0  0  0
 24 19  1  0  0  0  0
 25 20  2  0  0  0  0
M  END
>  <MODEL>
4

>  <REMARK>
 VINA RESULT:      -7.7      2.106      3.772
  Name = 
  3 active torsions:
  status: ('A' for Active; 'I' for Inactive)
    1  A    between atoms: N_1  and  C_24
    2  A    between atoms: C_16  and  C_19
    3  A    between atoms: N_18  and  C_19
                            x       y       z     vdW  Elec       q    Type
                         _______ _______ _______ _____ _____    ______ ____

>  <TORSDO>
F 3

$$$$
=
 OpenBabel10232409453D

 25 29  0  0  1  0  0  0  0  0999 V2000
  184.2440  178.9010  143.8540 N   0  0  0  0  0  0  0  0  0  0  0  0
  186.8530  178.2740  142.9900 C   0  0  0  0  0  2  0  0  0  0  0  0
  184.3670  178.5340  142.6200 C   0  0  0  0  0  0  0  0  0  0  0  0
  185.6670  177.9900  142.0730 C   0  0  0  0  0  2  0  0  0  0  0  0
  185.3600  179.0130  144.7740 C   0  0  0  0  0  2  0  0  0  0  0  0
  186.4630  178.0040  144.4410 C   0  0  2  0  0  3  0  0  0  0  0  0
  187.6150  178.1740  145.3370 N   0  0  2  0  0  0  0  0  0  0  0  0
  191.4300  176.2300  145.3790 C   0  0  0  0  0  0  0  0  0  0  0  0
  190.6620  177.2300  146.2010 C   0  0  2  0  0  3  0  0  0  0  0  0
  188.7570  177.4770  144.7680 C   0  0  1  0  0  3  0  0  0  0  0  0
  190.6670  177.1560  143.2220 C   0  0  0  0  0  3  0  0  0  0  0  0
  189.7000  176.5620  147.2240 C   0  0  0  0  0  2  0  0  0  0  0  0
  188.4940  177.4540  147.6230 C   0  0  0  0  0  2  0  0  0  0  0  0
  189.7400  178.1700  143.8460 C   0  0  2  0  0  3  0  0  0  0  0  0
  189.9320  178.2640  145.3470 C   0  0  2  0  0  3  0  0  0  0  0  0
  191.4170  176.2830  143.9080 C   0  0  0  0  0  3  0  0  0  0  0  0
  187.3350  177.4270  146.5860 C   0  0  0  0  0  2  0  0  0  0  0  0
  192.1280  175.3540  145.9560 O   0  0  0  0  0  0  0  0  0  0  0  0
  183.1430  178.4370  141.7690 C   0  0  0  0  0  2  0  0  0  0  0  0
  184.3880  179.9960  139.5620 O   0  0  0  0  0  0  0  0  0  0  0  0
  183.0500  176.7510  139.8190 C   0  0  0  0  0  3  0  0  0  0  0  0
  183.9550  178.1890  138.1700 O   0  0  0  0  0  0  0  0  0  0  0  0
  183.4210  176.8780  138.3260 C   0  0  0  0  0  3  0  0  0  0  0  0
  183.4920  177.9950  140.4270 N   0  0  0  0  0  0  0  0  0  0  0  0
  183.9830  178.8160  139.3920 C   0  0  0  0  0  0  0  0  0  0  0  0
  1  5  1  0  0  0  0
  3  1  2  0  0  0  0
  4  3  1  0  0  0  0
  4  2  1  0  0  0  0
  6  2  1  6  0  0  0
  6  5  1  0  0  0  0
  6  7  1  0  0  0  0
  7 17  1  1  0  0  0
  8 18  2  0  0  0  0
  8  9  1  0  0  0  0
  9 12  1  6  0  0  0
 10  7  1  0  0  0  0
 10 15  1  0  0  0  0
 11 14  1  0  0  0  0
 11 16  2  0  0  0  0
 12 13  1  0  0  0  0
 14 10  1  0  0  0  0
 14 15  1  0  0  0  0
 15  9  1  0  0  0  0
 16  8  1  0  0  0  0
 17 13  1  0  0  0  0
 19  3  1  0  0  0  0
 21 24  1  0  0  0  0
 22 23  1  0  0  0  0
 22 25  1  0  0  0  0
 23 21  2  0  0  0  0
 24 19  1  0  0  0  0
 25 20  2  0  0  0  0
 25 24  1  0  0  0  0
M  END
>  <MODEL>
5

>  <REMARK>
 VINA RESULT:      -7.6      3.877      5.547
  Name = 
  3 active torsions:
  status: ('A' for Active; 'I' for Inactive)
    1  A    between atoms: N_1  and  C_24
    2  A    between atoms: C_16  and  C_19
    3  A    between atoms: N_18  and  C_19
                            x       y       z     vdW  Elec       q    Type
                         _______ _______ _______ _____ _____    ______ ____

>  <TORSDO>
F 3

$$$$
=
 OpenBabel10232409453D

 25 29  0  0  1  0  0  0  0  0999 V2000
  190.7920  176.1600  139.8880 N   0  0  0  0  0  0  0  0  0  0  0  0
  188.5000  177.7950  140.0340 C   0  0  0  0  0  2  0  0  0  0  0  0
  190.2640  176.5110  138.7610 C   0  0  0  0  0  0  0  0  0  0  0  0
  189.1540  177.5330  138.6810 C   0  0  0  0  0  2  0  0  0  0  0  0
  190.2580  176.5480  141.1800 C   0  0  0  0  0  2  0  0  0  0  0  0
  189.5730  177.9160  141.1140 C   0  0  2  0  0  3  0  0  0  0  0  0
  188.9790  178.2670  142.4110 N   0  0  2  0  0  0  0  0  0  0  0  0
  189.8940  176.8960  146.3630 C   0  0  0  0  0  0  0  0  0  0  0  0
  188.8940  177.7900  145.6800 C   0  0  2  0  0  3  0  0  0  0  0  0
  189.8190  177.7320  143.4700 C   0  0  1  0  0  3  0  0  0  0  0  0
  191.7870  177.6610  144.9760 C   0  0  0  0  0  3  0  0  0  0  0  0
  187.6800  177.0100  145.1010 C   0  0  0  0  0  2  0  0  0  0  0  0
  186.9870  177.7260  143.9120 C   0  0  0  0  0  2  0  0  0  0  0  0
  190.9410  178.5420  144.0900 C   0  0  2  0  0  3  0  0  0  0  0  0
  189.5290  178.6910  144.6240 C   0  0  2  0  0  3  0  0  0  0  0  0
  191.3170  176.9190  145.9880 C   0  0  0  0  0  3  0  0  0  0  0  0
  187.7130  177.5120  142.5530 C   0  0  0  0  0  2  0  0  0  0  0  0
  189.5180  176.1420  147.2990 O   0  0  0  0  0  0  0  0  0  0  0  0
  190.9120  176.0650  137.4900 C   0  0  0  0  0  2  0  0  0  0  0  0
  193.5140  177.2960  138.2370 O   0  0  0  0  0  0  0  0  0  0  0  0
  192.4810  174.0180  137.4770 C   0  0  0  0  0  3  0  0  0  0  0  0
  194.4740  175.1980  137.9660 O   0  0  0  0  0  0  0  0  0  0  0  0
  194.0060  173.8860  137.6710 C   0  0  0  0  0  3  0  0  0  0  0  0
  192.1800  175.4100  137.7700 N   0  0  0  0  0  0  0  0  0  0  0  0
  193.4060  176.0610  138.0140 C   0  0  0  0  0  0  0  0  0  0  0  0
  1  5  1  0  0  0  0
  3  1  2  0  0  0  0
  4  3  1  0  0  0  0
  4  2  1  0  0  0  0
  6  2  1  6  0  0  0
  6  5  1  0  0  0  0
  6  7  1  0  0  0  0
  7 17  1  6  0  0  0
  7 10  1  0  0  0  0
  8 18  2  0  0  0  0
  9 12  1  6  0  0  0
  9  8  1  0  0  0  0
 10 14  1  0  0  0  0
 10 15  1  0  0  0  0
 11 16  2  0  0  0  0
 13 12  1  0  0  0  0
 14 15  1  0  0  0  0
 14 11  1  0  0  0  0
 15  9  1  0  0  0  0
 16  8  1  0  0  0  0
 17 13  1  0  0  0  0
 19 24  1  0  0  0  0
 19  3  1  0  0  0  0
 21 23  2  0  0  0  0
 21 24  1  0  0  0  0
 22 25  1  0  0  0  0
 23 22  1  0  0  0  0
 24 25  1  0  0  0  0
 25 20  2  0  0  0  0
M  END
>  <MODEL>
6

>  <REMARK>
 VINA RESULT:      -7.6      2.274      4.100
  Name = 
  3 active torsions:
  status: ('A' for Active; 'I' for Inactive)
    1  A    between atoms: N_1  and  C_24
    2  A    between atoms: C_16  and  C_19
    3  A    between atoms: N_18  and  C_19
                            x       y       z     vdW  Elec       q    Type
                         _______ _______ _______ _____ _____    ______ ____

>  <TORSDO>
F 3

$$$$
=
 OpenBabel10232409453D

 25 29  0  0  1  0  0  0  0  0999 V2000
  188.1640  178.6770  139.2260 N   0  0  0  0  0  0  0  0  0  0  0  0
  190.6230  177.3220  139.4880 C   0  0  0  0  0  2  0  0  0  0  0  0
  188.8130  178.4480  138.1310 C   0  0  0  0  0  0  0  0  0  0  0  0
  190.0440  177.5710  138.0990 C   0  0  0  0  0  2  0  0  0  0  0  0
  188.6440  178.2900  140.5400 C   0  0  0  0  0  2  0  0  0  0  0  0
  189.4960  177.0190  140.4730 C   0  0  2  0  0  3  0  0  0  0  0  0
  190.0310  176.6770  141.7980 N   0  0  2  0  0  0  0  0  0  0  0  0
  188.7260  177.8170  145.7140 C   0  0  0  0  0  0  0  0  0  0  0  0
  189.8490  177.0430  145.0780 C   0  0  2  0  0  3  0  0  0  0  0  0
  189.0750  177.0960  142.8100 C   0  0  1  0  0  3  0  0  0  0  0  0
  187.0120  176.9340  144.1740 C   0  0  0  0  0  3  0  0  0  0  0  0
  191.0210  177.9500  144.6090 C   0  0  0  0  0  2  0  0  0  0  0  0
  191.8570  177.3440  143.4510 C   0  0  0  0  0  2  0  0  0  0  0  0
  187.9940  176.1650  143.3250 C   0  0  2  0  0  3  0  0  0  0  0  0
  189.3740  176.1260  143.9530 C   0  0  2  0  0  3  0  0  0  0  0  0
  187.3400  177.6780  145.2380 C   0  0  0  0  0  3  0  0  0  0  0  0
  191.2090  177.5400  142.0510 C   0  0  0  0  0  2  0  0  0  0  0  0
  188.9660  178.5690  146.6960 O   0  0  0  0  0  0  0  0  0  0  0  0
  188.2120  178.8760  136.8320 C   0  0  0  0  0  2  0  0  0  0  0  0
  189.1520  177.2690  134.5120 O   0  0  0  0  0  0  0  0  0  0  0  0
  186.1730  177.3600  136.3860 C   0  0  0  0  0  3  0  0  0  0  0  0
  187.0550  176.2710  134.4780 O   0  0  0  0  0  0  0  0  0  0  0  0
  185.8770  176.3300  135.2750 C   0  0  0  0  0  3  0  0  0  0  0  0
  187.5580  177.7510  136.1800 N   0  0  0  0  0  0  0  0  0  0  0  0
  188.0090  177.1010  135.0140 C   0  0  0  0  0  0  0  0  0  0  0  0
  1  5  1  0  0  0  0
  3  1  2  0  0  0  0
  4  3  1  0  0  0  0
  4  2  1  0  0  0  0
  6  2  1  6  0  0  0
  6  5  1  0  0  0  0
  6  7  1  0  0  0  0
  7 17  1  1  0  0  0
  7 10  1  0  0  0  0
  8 18  2  0  0  0  0
  9 12  1  6  0  0  0
  9  8  1  0  0  0  0
 10 14  1  0  0  0  0
 10 15  1  0  0  0  0
 11 16  2  0  0  0  0
 13 12  1  0  0  0  0
 14 15  1  0  0  0  0
 14 11  1  0  0  0  0
 15  9  1  0  0  0  0
 16  8  1  0  0  0  0
 17 13  1  0  0  0  0
 19  3  1  0  0  0  0
 20 25  2  0  0  0  0
 22 25  1  0  0  0  0
 22 23  1  0  0  0  0
 23 21  2  0  0  0  0
 24 21  1  0  0  0  0
 24 19  1  0  0  0  0
 25 24  1  0  0  0  0
M  END
>  <MODEL>
7

>  <REMARK>
 VINA RESULT:      -7.5      2.151      3.872
  Name = 
  3 active torsions:
  status: ('A' for Active; 'I' for Inactive)
    1  A    between atoms: N_1  and  C_24
    2  A    between atoms: C_16  and  C_19
    3  A    between atoms: N_18  and  C_19
                            x       y       z     vdW  Elec       q    Type
                         _______ _______ _______ _____ _____    ______ ____

>  <TORSDO>
F 3

$$$$
=
 OpenBabel10232409453D

 25 29  0  0  1  0  0  0  0  0999 V2000
  185.9030  179.0370  140.0660 N   0  0  0  0  0  0  0  0  0  0  0  0
  184.8280  177.8850  142.4040 C   0  0  0  0  0  2  0  0  0  0  0  0
  184.6270  179.1690  140.2370 C   0  0  0  0  0  0  0  0  0  0  0  0
  183.9480  178.7700  141.5270 C   0  0  0  0  0  2  0  0  0  0  0  0
  186.7680  178.3310  140.9920 C   0  0  0  0  0  2  0  0  0  0  0  0
  186.2520  178.4330  142.4300 C   0  0  2  0  0  3  0  0  0  0  0  0
  187.1000  177.6580  143.3460 N   0  0  2  0  0  0  0  0  0  0  0  0
  188.1030  178.3210  147.4560 C   0  0  0  0  0  0  0  0  0  0  0  0
  188.4500  177.3630  146.3480 C   0  0  2  0  0  3  0  0  0  0  0  0
  186.9020  178.1540  144.6990 C   0  0  1  0  0  3  0  0  0  0  0  0
  185.7110  178.4220  146.8560 C   0  0  0  0  0  3  0  0  0  0  0  0
  189.5790  177.8920  145.4210 C   0  0  0  0  0  2  0  0  0  0  0  0
  189.5430  177.2960  143.9880 C   0  0  0  0  0  2  0  0  0  0  0  0
  185.8580  177.5610  145.6240 C   0  0  2  0  0  3  0  0  0  0  0  0
  187.2300  176.9220  145.5420 C   0  0  2  0  0  3  0  0  0  0  0  0
  186.7170  178.7670  147.6710 C   0  0  0  0  0  3  0  0  0  0  0  0
  188.5130  177.9920  143.0540 C   0  0  0  0  0  2  0  0  0  0  0  0
  189.0050  178.7200  148.2400 O   0  0  0  0  0  0  0  0  0  0  0  0
  183.8380  179.9340  139.2250 C   0  0  0  0  0  2  0  0  0  0  0  0
  180.9420  179.8280  139.8960 O   0  0  0  0  0  0  0  0  0  0  0  0
  183.0430  177.9390  137.7970 C   0  0  0  0  0  3  0  0  0  0  0  0
  180.7970  177.9440  138.5460 O   0  0  0  0  0  0  0  0  0  0  0  0
  181.6810  177.2200  137.6950 C   0  0  0  0  0  3  0  0  0  0  0  0
  182.8010  179.0920  138.6480 N   0  0  0  0  0  0  0  0  0  0  0  0
  181.4640  179.0160  139.0880 C   0  0  0  0  0  0  0  0  0  0  0  0
  1  3  2  0  0  0  0
  1  5  1  0  0  0  0
  2  6  1  0  0  0  0
  3  4  1  0  0  0  0
  4  2  1  0  0  0  0
  6  5  1  6  0  0  0
  6  7  1  0  0  0  0
  7 17  1  6  0  0  0
  7 10  1  0  0  0  0
  8 16  1  0  0  0  0
  8 18  2  0  0  0  0
  9 12  1  6  0  0  0
  9  8  1  0  0  0  0
 10 15  1  0  0  0  0
 10 14  1  0  0  0  0
 11 16  2  0  0  0  0
 13 12  1  0  0  0  0
 14 11  1  0  0  0  0
 15 14  1  0  0  0  0
 15  9  1  0  0  0  0
 17 13  1  0  0  0  0
 19  3  1  0  0  0  0
 21 24  1  0  0  0  0
 22 25  1  0  0  0  0
 23 21  2  0  0  0  0
 23 22  1  0  0  0  0
 24 25  1  0  0  0  0
 24 19  1  0  0  0  0
 25 20  2  0  0  0  0
M  END
>  <MODEL>
8

>  <REMARK>
 VINA RESULT:      -7.2      4.599      5.671
  Name = 
  3 active torsions:
  status: ('A' for Active; 'I' for Inactive)
    1  A    between atoms: N_1  and  C_24
    2  A    between atoms: C_16  and  C_19
    3  A    between atoms: N_18  and  C_19
                            x       y       z     vdW  Elec       q    Type
                         _______ _______ _______ _____ _____    ______ ____

>  <TORSDO>
F 3

$$$$
=
 OpenBabel10232409453D

 25 29  0  0  1  0  0  0  0  0999 V2000
  188.7790  176.3320  143.7120 N   0  0  0  0  0  0  0  0  0  0  0  0
  190.5490  178.3980  142.9740 C   0  0  0  0  0  2  0  0  0  0  0  0
  189.1430  177.1400  144.6540 C   0  0  0  0  0  0  0  0  0  0  0  0
  189.9320  178.3960  144.3690 C   0  0  0  0  0  2  0  0  0  0  0  0
  189.2430  176.4350  142.3410 C   0  0  0  0  0  2  0  0  0  0  0  0
  189.5310  177.8890  141.9560 C   0  0  2  0  0  3  0  0  0  0  0  0
  190.0650  177.9720  140.5890 N   0  0  2  0  0  0  0  0  0  0  0  0
  188.5840  176.3540  136.9120 C   0  0  0  0  0  0  0  0  0  0  0  0
  189.7820  177.1170  137.4090 C   0  0  2  0  0  3  0  0  0  0  0  0
  189.0550  177.4860  139.6630 C   0  0  1  0  0  3  0  0  0  0  0  0
  186.9840  177.6130  138.3070 C   0  0  0  0  0  3  0  0  0  0  0  0
  190.8830  176.1950  138.0050 C   0  0  0  0  0  2  0  0  0  0  0  0
  191.7920  176.9000  139.0470 C   0  0  0  0  0  2  0  0  0  0  0  0
  188.0460  178.4160  139.0170 C   0  0  2  0  0  3  0  0  0  0  0  0
  189.4110  178.2360  138.3800 C   0  0  2  0  0  3  0  0  0  0  0  0
  187.2250  176.6860  137.3710 C   0  0  0  0  0  3  0  0  0  0  0  0
  191.1590  176.9820  140.4660 C   0  0  0  0  0  2  0  0  0  0  0  0
  188.7380  175.4410  136.0580 O   0  0  0  0  0  0  0  0  0  0  0  0
  188.5850  176.9470  146.0270 C   0  0  0  0  0  2  0  0  0  0  0  0
  187.8190  178.4140  148.4980 O   0  0  0  0  0  0  0  0  0  0  0  0
  186.3170  177.9690  145.3460 C   0  0  0  0  0  3  0  0  0  0  0  0
  185.8300  178.9700  147.4350 O   0  0  0  0  0  0  0  0  0  0  0  0
  185.2700  178.7790  146.1400 C   0  0  0  0  0  3  0  0  0  0  0  0
  187.4530  177.8350  146.2430 N   0  0  0  0  0  0  0  0  0  0  0  0
  187.0860  178.4150  147.4740 C   0  0  0  0  0  0  0  0  0  0  0  0
  1  3  2  0  0  0  0
  2  4  1  0  0  0  0
  3 19  1  0  0  0  0
  4  3  1  0  0  0  0
  5  1  1  0  0  0  0
  6  5  1  1  0  0  0
  6  2  1  0  0  0  0
  7 17  1  1  0  0  0
  7  6  1  0  0  0  0
  8 16  1  0  0  0  0
  8  9  1  0  0  0  0
  9 12  1  1  0  0  0
  9 15  1  0  0  0  0
 10  7  1  0  0  0  0
 11 14  1  0  0  0  0
 12 13  1  0  0  0  0
 13 17  1  0  0  0  0
 14 10  1  0  0  0  0
 15 14  1  0  0  0  0
 15 10  1  0  0  0  0
 16 11  2  0  0  0  0
 18  8  2  0  0  0  0
 19 24  1  0  0  0  0
 21 23  2  0  0  0  0
 21 24  1  0  0  0  0
 22 25  1  0  0  0  0
 23 22  1  0  0  0  0
 24 25  1  0  0  0  0
 25 20  2  0  0  0  0
M  END
>  <MODEL>
9

>  <REMARK>
 VINA RESULT:      -7.1      1.393      7.890
  Name = 
  3 active torsions:
  status: ('A' for Active; 'I' for Inactive)
    1  A    between atoms: N_1  and  C_24
    2  A    between atoms: C_16  and  C_19
    3  A    between atoms: N_18  and  C_19
                            x       y       z     vdW  Elec       q    Type
                         _______ _______ _______ _____ _____    ______ ____

>  <TORSDO>
F 3

$$$$
