=
 OpenBabel10232411503D

 47 52  0  0  1  0  0  0  0  0999 V2000
  188.4790  177.4270  137.9440 C   0  0  0  0  0  0  0  0  0  0  0  0
  188.6330  177.2810  135.6950 N   0  0  0  0  0  0  0  0  0  0  0  0
  190.7200  176.7100  138.5970 C   0  0  0  0  0  0  0  0  0  0  0  0
  188.9090  177.4400  141.6930 C   0  0  0  0  0  3  0  0  0  0  0  0
  190.1060  177.0680  142.1530 C   0  0  0  0  0  0  0  0  0  0  0  0
  189.7380  176.9660  137.6200 C   0  0  0  0  0  0  0  0  0  0  0  0
  190.3170  176.9270  139.9340 C   0  0  0  0  0  0  0  0  0  0  0  0
  188.0750  177.6350  139.2700 C   0  0  0  0  0  3  0  0  0  0  0  0
  189.0370  177.3590  140.2490 C   0  0  0  0  0  0  0  0  0  0  0  0
  187.8170  177.6270  136.8180 C   0  0  0  0  0  0  0  0  0  0  0  0
  189.7810  176.8900  136.1630 C   0  0  0  0  0  3  0  0  0  0  0  0
  191.0150  176.7360  141.0420 C   0  0  0  0  0  3  0  0  0  0  0  0
  189.7150  177.6540  144.5370 C   0  0  0  0  0  3  0  0  0  0  0  0
  191.5280  176.7760  147.6320 O   0  0  0  0  0  1  0  0  0  0  0  0
  190.4650  176.9650  143.5760 C   0  0  0  0  0  0  0  0  0  0  0  0
  191.9150  176.1470  145.3400 C   0  0  0  0  0  3  0  0  0  0  0  0
  190.0480  177.5920  145.8970 C   0  0  0  0  0  0  0  0  0  0  0  0
  191.5660  176.2050  143.9880 C   0  0  0  0  0  3  0  0  0  0  0  0
  191.1630  176.8400  146.2920 C   0  0  0  0  0  0  0  0  0  0  0  0
  187.7050  178.4600  148.5920 O   0  0  0  0  0  1  0  0  0  0  0  0
  188.1590  176.3370  147.8780 O   0  0  0  0  0  0  0  0  0  0  0  0
  188.3510  177.7120  147.8140 C   0  0  0  0  0  0  0  0  0  0  0  0
  189.2840  178.2920  146.8900 N   0  0  0  0  0  2  0  0  0  0  0  0
  192.2450  174.8990  137.7440 N   0  0  0  0  0  2  0  0  0  0  0  0
  193.4980  173.1320  136.9120 O   0  0  0  0  0  0  0  0  0  0  0  0
  193.4410  174.3620  137.1680 C   0  0  0  0  0  0  0  0  0  0  0  0
  192.0720  176.2310  138.2370 C   0  0  0  0  0  0  0  0  0  0  0  0
  193.0660  176.9870  138.3910 O   0  0  0  0  0  0  0  0  0  0  0  0
  194.6690  175.3430  135.2730 C   0  0  0  0  0  1  0  0  0  0  0  0
  194.5920  175.2300  136.7830 C   0  0  0  0  0  2  0  0  0  0  0  0
  186.4240  178.1470  136.7000 C   0  0  0  0  0  2  0  0  0  0  0  0
  185.4720  177.0520  136.7950 N   0  0  0  0  0  2  0  0  0  0  0  0
  184.3670  177.5220  137.5210 N   0  0  0  0  0  2  0  0  0  0  0  0
  183.9090  176.4300  138.3680 C   0  0  0  0  0  2  0  0  0  0  0  0
  182.7330  176.8810  139.2150 C   0  0  0  0  0  2  0  0  0  0  0  0
  183.2110  177.2260  140.5500 N   0  0  0  0  0  2  0  0  0  0  0  0
  185.9840  178.4680  144.0290 C   0  0  0  0  0  3  0  0  0  0  0  0
  183.2450  178.6850  140.7250 C   0  0  2  0  0  0  0  0  0  0  0  0
  184.6670  179.2430  140.5630 C   0  0  0  0  0  2  0  0  0  0  0  0
  185.5150  178.4420  145.3460 C   0  0  0  0  0  3  0  0  0  0  0  0
  183.2530  178.7430  144.5420 C   0  0  0  0  0  3  0  0  0  0  0  0
  183.7110  178.7550  143.2210 C   0  0  0  0  0  0  0  0  0  0  0  0
  185.0950  178.6410  142.9650 C   0  0  0  0  0  0  0  0  0  0  0  0
  184.1510  178.5820  145.6030 C   0  0  0  0  0  3  0  0  0  0  0  0
  182.7250  179.0320  142.1220 C   0  0  0  0  0  2  0  0  0  0  0  0
  185.6320  178.6080  141.5630 C   0  0  0  0  0  2  0  0  0  0  0  0
  182.4050  179.2960  139.7890 O   0  0  0  0  0  1  0  0  0  0  0  0
  1  8  1  0  0  0  0
  2 11  2  0  0  0  0
  2 10  1  0  0  0  0
  3  7  1  0  0  0  0
  4  5  2  0  0  0  0
  5 15  1  0  0  0  0
  6  1  1  0  0  0  0
  6  3  2  0  0  0  0
  7  9  1  0  0  0  0
  7 12  2  0  0  0  0
  8  9  2  0  0  0  0
  9  4  1  0  0  0  0
 10  1  2  0  0  0  0
 11  6  1  0  0  0  0
 12  5  1  0  0  0  0
 13 17  1  0  0  0  0
 15 18  1  0  0  0  0
 15 13  2  0  0  0  0
 16 19  1  0  0  0  0
 17 19  2  0  0  0  0
 17 23  1  0  0  0  0
 18 16  2  0  0  0  0
 19 14  1  0  0  0  0
 22 21  2  0  0  0  0
 22 20  1  0  0  0  0
 23 22  1  0  0  0  0
 24 27  1  0  0  0  0
 25 26  2  0  0  0  0
 26 24  1  0  0  0  0
 27 28  2  0  0  0  0
 27  3  1  0  0  0  0
 29 30  1  0  0  0  0
 30 26  1  0  0  0  0
 31 32  1  0  0  0  0
 31 10  1  0  0  0  0
 32 33  1  0  0  0  0
 33 34  1  0  0  0  0
 34 35  1  0  0  0  0
 35 36  1  0  0  0  0
 36 38  1  0  0  0  0
 37 40  1  0  0  0  0
 38 47  1  6  0  0  0
 38 45  1  0  0  0  0
 39 38  1  0  0  0  0
 39 46  1  0  0  0  0
 40 44  2  0  0  0  0
 41 44  1  0  0  0  0
 42 41  2  0  0  0  0
 43 42  1  0  0  0  0
 43 37  2  0  0  0  0
 45 42  1  0  0  0  0
 46 43  1  0  0  0  0
M  END
>  <MODEL>
1

>  <REMARK>
 VINA RESULT:      -9.5      0.000      0.000
  Name = 
  11 active torsions:
  status: ('A' for Active; 'I' for Inactive)
    1  A    between atoms: N_2  and  N_17
    2  A    between atoms: N_2  and  C_18
    3  A    between atoms: C_8  and  N_12
    4  A    between atoms: C_8  and  C_18
    5  A    between atoms: C_11  and  C_29
    6  A    between atoms: N_12  and  C_13
    7  A    between atoms: C_16  and  N_17
    8  A    between atoms: C_16  and  C_43
    9  A    between atoms: C_22  and  C_25
   10  A    between atoms: C_23  and  N_47
   11  A    between atoms: C_27  and  C_40
                            x       y       z     vdW  Elec       q    Type
                         _______ _______ _______ _____ _____    ______ ____

>  <TORSDO>
F 11

$$$$
=
 OpenBabel10232411503D

 47 52  0  0  1  0  0  0  0  0999 V2000
  188.3320  177.4820  137.7800 C   0  0  0  0  0  0  0  0  0  0  0  0
  188.8510  177.1150  135.6120 N   0  0  0  0  0  0  0  0  0  0  0  0
  190.3950  176.7550  138.8660 C   0  0  0  0  0  0  0  0  0  0  0  0
  188.1330  177.8400  141.5310 C   0  0  0  0  0  3  0  0  0  0  0  0
  189.2170  177.4740  142.2190 C   0  0  0  0  0  0  0  0  0  0  0  0
  189.6030  176.9490  137.7170 C   0  0  0  0  0  0  0  0  0  0  0  0
  189.7870  177.1130  140.0900 C   0  0  0  0  0  0  0  0  0  0  0  0
  187.7240  177.8300  138.9940 C   0  0  0  0  0  3  0  0  0  0  0  0
  188.4950  177.6170  140.1430 C   0  0  0  0  0  0  0  0  0  0  0  0
  187.8780  177.5950  136.5440 C   0  0  0  0  0  0  0  0  0  0  0  0
  189.8830  176.7320  136.3010 C   0  0  0  0  0  3  0  0  0  0  0  0
  190.2800  177.0060  141.3130 C   0  0  0  0  0  3  0  0  0  0  0  0
  190.5550  177.2060  144.2970 C   0  0  0  0  0  3  0  0  0  0  0  0
  189.6550  177.4450  147.8700 O   0  0  0  0  0  1  0  0  0  0  0  0
  189.3290  177.4960  143.6860 C   0  0  0  0  0  0  0  0  0  0  0  0
  188.3330  177.7580  145.8820 C   0  0  0  0  0  3  0  0  0  0  0  0
  190.6850  177.1980  145.6930 C   0  0  0  0  0  0  0  0  0  0  0  0
  188.2170  177.7770  144.4900 C   0  0  0  0  0  3  0  0  0  0  0  0
  189.5590  177.4650  146.4840 C   0  0  0  0  0  0  0  0  0  0  0  0
  193.3560  175.6920  147.7200 O   0  0  0  0  0  1  0  0  0  0  0  0
  191.2760  174.7970  147.4110 O   0  0  0  0  0  0  0  0  0  0  0  0
  192.2230  175.7870  147.1820 C   0  0  0  0  0  0  0  0  0  0  0  0
  191.9380  176.9060  146.3280 N   0  0  0  0  0  2  0  0  0  0  0  0
  191.9820  174.9500  138.1200 N   0  0  0  0  0  2  0  0  0  0  0  0
  193.3060  173.2140  137.3320 O   0  0  0  0  0  0  0  0  0  0  0  0
  193.2550  174.3870  137.7830 C   0  0  0  0  0  0  0  0  0  0  0  0
  191.7620  176.1970  138.7860 C   0  0  0  0  0  0  0  0  0  0  0  0
  192.7210  176.8080  139.3250 O   0  0  0  0  0  0  0  0  0  0  0  0
  195.5480  174.4140  138.6810 C   0  0  0  0  0  1  0  0  0  0  0  0
  194.5170  175.1770  137.8720 C   0  0  0  0  0  2  0  0  0  0  0  0
  186.5520  178.1490  136.1450 C   0  0  0  0  0  2  0  0  0  0  0  0
  185.6150  177.0660  135.8880 N   0  0  0  0  0  2  0  0  0  0  0  0
  184.4120  177.3950  136.5310 N   0  0  0  0  0  2  0  0  0  0  0  0
  184.2430  176.4620  137.6370 C   0  0  0  0  0  2  0  0  0  0  0  0
  182.8550  176.6010  138.2330 C   0  0  0  0  0  2  0  0  0  0  0  0
  182.9700  177.0660  139.6120 N   0  0  0  0  0  2  0  0  0  0  0  0
  185.1190  179.0800  143.1700 C   0  0  0  0  0  3  0  0  0  0  0  0
  182.6480  178.4980  139.7030 C   0  0  2  0  0  0  0  0  0  0  0  0
  183.9070  179.3700  139.5920 C   0  0  0  0  0  2  0  0  0  0  0  0
  184.5760  179.0000  144.4560 C   0  0  0  0  0  3  0  0  0  0  0  0
  182.3700  178.7190  143.5040 C   0  0  0  0  0  3  0  0  0  0  0  0
  182.9060  178.7830  142.2140 C   0  0  0  0  0  0  0  0  0  0  0  0
  184.2930  178.9920  142.0470 C   0  0  0  0  0  0  0  0  0  0  0  0
  183.2030  178.8220  144.6230 C   0  0  0  0  0  3  0  0  0  0  0  0
  181.9630  178.7700  141.0430 C   0  0  0  0  0  2  0  0  0  0  0  0
  184.9210  179.0270  140.6840 C   0  0  0  0  0  2  0  0  0  0  0  0
  181.7570  178.8500  138.6840 O   0  0  0  0  0  1  0  0  0  0  0  0
  1  8  1  0  0  0  0
  2 11  2  0  0  0  0
  2 10  1  0  0  0  0
  3  7  1  0  0  0  0
  4  5  2  0  0  0  0
  5 15  1  0  0  0  0
  6  1  1  0  0  0  0
  6  3  2  0  0  0  0
  7  9  1  0  0  0  0
  7 12  2  0  0  0  0
  8  9  2  0  0  0  0
  9  4  1  0  0  0  0
 10  1  2  0  0  0  0
 11  6  1  0  0  0  0
 12  5  1  0  0  0  0
 13 17  1  0  0  0  0
 15 13  2  0  0  0  0
 15 18  1  0  0  0  0
 16 19  1  0  0  0  0
 17 23  1  0  0  0  0
 17 19  2  0  0  0  0
 18 16  2  0  0  0  0
 19 14  1  0  0  0  0
 22 21  2  0  0  0  0
 22 20  1  0  0  0  0
 23 22  1  0  0  0  0
 24 27  1  0  0  0  0
 25 26  2  0  0  0  0
 26 30  1  0  0  0  0
 26 24  1  0  0  0  0
 27  3  1  0  0  0  0
 27 28  2  0  0  0  0
 30 29  1  0  0  0  0
 31 10  1  0  0  0  0
 32 31  1  0  0  0  0
 32 33  1  0  0  0  0
 33 34  1  0  0  0  0
 34 35  1  0  0  0  0
 35 36  1  0  0  0  0
 36 38  1  0  0  0  0
 37 40  1  0  0  0  0
 38 47  1  6  0  0  0
 38 45  1  0  0  0  0
 39 38  1  0  0  0  0
 39 46  1  0  0  0  0
 40 44  2  0  0  0  0
 41 44  1  0  0  0  0
 42 41  2  0  0  0  0
 43 42  1  0  0  0  0
 43 37  2  0  0  0  0
 45 42  1  0  0  0  0
 46 43  1  0  0  0  0
M  END
>  <MODEL>
2

>  <REMARK>
 VINA RESULT:      -9.3      1.165      1.875
  Name = 
  11 active torsions:
  status: ('A' for Active; 'I' for Inactive)
    1  A    between atoms: N_2  and  N_17
    2  A    between atoms: N_2  and  C_18
    3  A    between atoms: C_8  and  N_12
    4  A    between atoms: C_8  and  C_18
    5  A    between atoms: C_11  and  C_29
    6  A    between atoms: N_12  and  C_13
    7  A    between atoms: C_16  and  N_17
    8  A    between atoms: C_16  and  C_43
    9  A    between atoms: C_22  and  C_25
   10  A    between atoms: C_23  and  N_47
   11  A    between atoms: C_27  and  C_40
                            x       y       z     vdW  Elec       q    Type
                         _______ _______ _______ _____ _____    ______ ____

>  <TORSDO>
F 11

$$$$
=
 OpenBabel10232411503D

 47 52  0  0  1  0  0  0  0  0999 V2000
  188.6270  177.4060  137.5930 C   0  0  0  0  0  0  0  0  0  0  0  0
  188.9370  177.2110  135.3630 N   0  0  0  0  0  0  0  0  0  0  0  0
  190.8140  176.6940  138.4150 C   0  0  0  0  0  0  0  0  0  0  0  0
  188.7960  177.4960  141.3610 C   0  0  0  0  0  3  0  0  0  0  0  0
  189.9570  177.1300  141.9110 C   0  0  0  0  0  0  0  0  0  0  0  0
  189.9040  176.9330  137.3670 C   0  0  0  0  0  0  0  0  0  0  0  0
  190.3200  176.9410  139.7150 C   0  0  0  0  0  0  0  0  0  0  0  0
  188.1330  177.6430  138.8830 C   0  0  0  0  0  3  0  0  0  0  0  0
  189.0240  177.3840  139.9320 C   0  0  0  0  0  0  0  0  0  0  0  0
  188.0470  177.5840  136.4200 C   0  0  0  0  0  0  0  0  0  0  0  0
  190.0470  176.8260  135.9180 C   0  0  0  0  0  3  0  0  0  0  0  0
  190.9390  176.7710  140.8730 C   0  0  0  0  0  3  0  0  0  0  0  0
  189.3020  177.6140  144.2600 C   0  0  0  0  0  3  0  0  0  0  0  0
  190.9770  176.9530  147.4840 O   0  0  0  0  0  1  0  0  0  0  0  0
  190.2160  177.0550  143.3580 C   0  0  0  0  0  0  0  0  0  0  0  0
  191.6280  176.4240  145.2270 C   0  0  0  0  0  3  0  0  0  0  0  0
  189.5350  177.5780  145.6420 C   0  0  0  0  0  0  0  0  0  0  0  0
  191.3800  176.4540  143.8520 C   0  0  0  0  0  3  0  0  0  0  0  0
  190.7120  176.9870  146.1200 C   0  0  0  0  0  0  0  0  0  0  0  0
  186.4870  178.4960  147.4810 O   0  0  0  0  0  1  0  0  0  0  0  0
  186.5990  176.9340  145.8150 O   0  0  0  0  0  0  0  0  0  0  0  0
  187.1950  177.8770  146.6440 C   0  0  0  0  0  0  0  0  0  0  0  0
  188.6040  178.1440  146.5750 N   0  0  0  0  0  2  0  0  0  0  0  0
  192.3870  174.8500  137.7390 N   0  0  0  0  0  2  0  0  0  0  0  0
  193.6880  173.0490  137.0660 O   0  0  0  0  0  0  0  0  0  0  0  0
  193.6160  174.2900  137.2610 C   0  0  0  0  0  0  0  0  0  0  0  0
  192.1850  176.2020  138.1600 C   0  0  0  0  0  0  0  0  0  0  0  0
  193.1680  176.9660  138.3390 O   0  0  0  0  0  0  0  0  0  0  0  0
  196.0740  174.4140  137.2430 C   0  0  0  0  0  1  0  0  0  0  0  0
  194.7880  175.1420  136.9080 C   0  0  0  0  0  2  0  0  0  0  0  0
  186.6680  178.1070  136.1950 C   0  0  0  0  0  2  0  0  0  0  0  0
  185.7390  177.0030  136.0070 N   0  0  0  0  0  2  0  0  0  0  0  0
  184.9910  176.8850  137.1880 N   0  0  0  0  0  2  0  0  0  0  0  0
  183.7150  176.2780  136.8320 C   0  0  0  0  0  2  0  0  0  0  0  0
  182.5690  177.1680  137.2790 C   0  0  0  0  0  2  0  0  0  0  0  0
  182.5890  177.2800  138.7340 N   0  0  0  0  0  2  0  0  0  0  0  0
  185.6690  179.1140  141.6450 C   0  0  0  0  0  3  0  0  0  0  0  0
  182.2020  178.6350  139.1530 C   0  0  2  0  0  0  0  0  0  0  0  0
  183.2670  179.6720  138.7700 C   0  0  0  0  0  2  0  0  0  0  0  0
  185.6180  178.8080  143.0080 C   0  0  0  0  0  3  0  0  0  0  0  0
  183.2490  178.3560  142.8130 C   0  0  0  0  0  3  0  0  0  0  0  0
  183.2940  178.6460  141.4460 C   0  0  0  0  0  0  0  0  0  0  0  0
  184.5140  179.0530  140.8630 C   0  0  0  0  0  0  0  0  0  0  0  0
  184.4080  178.4320  143.5930 C   0  0  0  0  0  3  0  0  0  0  0  0
  182.0070  178.6500  140.6700 C   0  0  0  0  0  2  0  0  0  0  0  0
  184.6230  179.3360  139.3920 C   0  0  0  0  0  2  0  0  0  0  0  0
  180.9860  178.9870  138.5590 O   0  0  0  0  0  1  0  0  0  0  0  0
  1  8  1  0  0  0  0
  2 11  2  0  0  0  0
  2 10  1  0  0  0  0
  3  7  1  0  0  0  0
  4  5  2  0  0  0  0
  5 15  1  0  0  0  0
  6  1  1  0  0  0  0
  6  3  2  0  0  0  0
  7  9  1  0  0  0  0
  7 12  2  0  0  0  0
  8  9  2  0  0  0  0
  9  4  1  0  0  0  0
 10  1  2  0  0  0  0
 11  6  1  0  0  0  0
 12  5  1  0  0  0  0
 13 17  1  0  0  0  0
 15 18  1  0  0  0  0
 15 13  2  0  0  0  0
 16 19  1  0  0  0  0
 17 19  2  0  0  0  0
 17 23  1  0  0  0  0
 18 16  2  0  0  0  0
 19 14  1  0  0  0  0
 21 22  2  0  0  0  0
 22 20  1  0  0  0  0
 23 22  1  0  0  0  0
 24 27  1  0  0  0  0
 25 26  2  0  0  0  0
 26 24  1  0  0  0  0
 27 28  2  0  0  0  0
 27  3  1  0  0  0  0
 30 29  1  0  0  0  0
 30 26  1  0  0  0  0
 31 10  1  0  0  0  0
 32 31  1  0  0  0  0
 32 33  1  0  0  0  0
 34 33  1  0  0  0  0
 34 35  1  0  0  0  0
 35 36  1  0  0  0  0
 36 38  1  0  0  0  0
 37 40  1  0  0  0  0
 38 47  1  6  0  0  0
 38 45  1  0  0  0  0
 39 38  1  0  0  0  0
 39 46  1  0  0  0  0
 40 44  2  0  0  0  0
 41 44  1  0  0  0  0
 42 41  2  0  0  0  0
 43 42  1  0  0  0  0
 43 37  2  0  0  0  0
 45 42  1  0  0  0  0
 46 43  1  0  0  0  0
M  END
>  <MODEL>
3

>  <REMARK>
 VINA RESULT:      -9.0      1.016      1.335
  Name = 
  11 active torsions:
  status: ('A' for Active; 'I' for Inactive)
    1  A    between atoms: N_2  and  N_17
    2  A    between atoms: N_2  and  C_18
    3  A    between atoms: C_8  and  N_12
    4  A    between atoms: C_8  and  C_18
    5  A    between atoms: C_11  and  C_29
    6  A    between atoms: N_12  and  C_13
    7  A    between atoms: C_16  and  N_17
    8  A    between atoms: C_16  and  C_43
    9  A    between atoms: C_22  and  C_25
   10  A    between atoms: C_23  and  N_47
   11  A    between atoms: C_27  and  C_40
                            x       y       z     vdW  Elec       q    Type
                         _______ _______ _______ _____ _____    ______ ____

>  <TORSDO>
F 11

$$$$
=
 OpenBabel10232411503D

 47 52  0  0  1  0  0  0  0  0999 V2000
  184.5510  178.9050  142.6950 C   0  0  0  0  0  0  0  0  0  0  0  0
  182.6760  179.2490  143.9090 N   0  0  0  0  0  0  0  0  0  0  0  0
  183.6000  178.6450  140.4610 C   0  0  0  0  0  0  0  0  0  0  0  0
  187.2240  178.2820  140.1070 C   0  0  0  0  0  3  0  0  0  0  0  0
  186.8060  178.1320  138.8470 C   0  0  0  0  0  0  0  0  0  0  0  0
  183.4620  178.8400  141.8490 C   0  0  0  0  0  0  0  0  0  0  0  0
  184.9250  178.4880  139.9980 C   0  0  0  0  0  0  0  0  0  0  0  0
  185.8660  178.7410  142.2390 C   0  0  0  0  0  3  0  0  0  0  0  0
  186.0100  178.5220  140.8630 C   0  0  0  0  0  0  0  0  0  0  0  0
  184.1040  179.1550  143.9130 C   0  0  0  0  0  0  0  0  0  0  0  0
  182.2860  179.0660  142.6830 C   0  0  0  0  0  3  0  0  0  0  0  0
  185.3410  178.2590  138.7630 C   0  0  0  0  0  3  0  0  0  0  0  0
  188.9570  177.3080  137.9130 C   0  0  0  0  0  3  0  0  0  0  0  0
  190.2370  177.0990  134.4560 O   0  0  0  0  0  1  0  0  0  0  0  0
  187.6800  177.8410  137.7000 C   0  0  0  0  0  0  0  0  0  0  0  0
  188.1220  177.8640  135.3150 C   0  0  0  0  0  3  0  0  0  0  0  0
  189.8190  177.0420  136.8400 C   0  0  0  0  0  0  0  0  0  0  0  0
  187.2650  178.1120  136.3900 C   0  0  0  0  0  3  0  0  0  0  0  0
  189.3960  177.3340  135.5360 C   0  0  0  0  0  0  0  0  0  0  0  0
  192.6350  174.8400  137.6990 O   0  0  0  0  0  0  0  0  0  0  0  0
  190.4320  174.2290  137.7210 O   0  0  0  0  0  1  0  0  0  0  0  0
  191.4350  175.1660  137.5050 C   0  0  0  0  0  0  0  0  0  0  0  0
  191.1280  176.4920  137.0470 N   0  0  0  0  0  2  0  0  0  0  0  0
  181.9860  179.7830  138.9000 N   0  0  0  0  0  2  0  0  0  0  0  0
  180.6090  180.9820  137.4680 O   0  0  0  0  0  0  0  0  0  0  0  0
  181.0090  179.8540  137.8560 C   0  0  0  0  0  0  0  0  0  0  0  0
  182.4270  178.5930  139.5610 C   0  0  0  0  0  0  0  0  0  0  0  0
  181.8080  177.5090  139.4010 O   0  0  0  0  0  0  0  0  0  0  0  0
  181.4070  178.3210  135.9710 C   0  0  0  0  0  1  0  0  0  0  0  0
  180.5120  178.6350  137.1530 C   0  0  0  0  0  2  0  0  0  0  0  0
  184.9410  179.3310  145.1350 C   0  0  0  0  0  2  0  0  0  0  0  0
  184.2260  178.8460  146.3050 N   0  0  0  0  0  2  0  0  0  0  0  0
  185.1790  178.3040  147.1810 N   0  0  0  0  0  2  0  0  0  0  0  0
  186.3690  179.1400  147.0960 C   0  0  0  0  0  2  0  0  0  0  0  0
  187.4060  178.6790  148.1030 C   0  0  0  0  0  2  0  0  0  0  0  0
  188.6730  178.4510  147.4150 N   0  0  0  0  0  2  0  0  0  0  0  0
  191.7170  177.8250  143.9980 C   0  0  0  0  0  3  0  0  0  0  0  0
  188.8300  177.0290  147.0800 C   0  0  2  0  0  0  0  0  0  0  0  0
  190.2810  176.5590  147.2670 C   0  0  0  0  0  2  0  0  0  0  0  0
  191.3180  177.9700  142.6660 C   0  0  0  0  0  3  0  0  0  0  0  0
  189.0470  177.4160  143.2890 C   0  0  0  0  0  3  0  0  0  0  0  0
  189.4340  177.2840  144.6260 C   0  0  0  0  0  0  0  0  0  0  0  0
  190.7890  177.4650  144.9790 C   0  0  0  0  0  0  0  0  0  0  0  0
  189.9850  177.7630  142.3110 C   0  0  0  0  0  3  0  0  0  0  0  0
  188.4150  176.8110  145.6240 C   0  0  0  0  0  2  0  0  0  0  0  0
  191.2460  177.3740  146.4060 C   0  0  0  0  0  2  0  0  0  0  0  0
  187.9920  176.2550  147.8880 O   0  0  0  0  0  1  0  0  0  0  0  0
  1 10  2  0  0  0  0
  2 10  1  0  0  0  0
  3  6  2  0  0  0  0
  4  9  1  0  0  0  0
  5  4  2  0  0  0  0
  6 11  1  0  0  0  0
  6  1  1  0  0  0  0
  7  3  1  0  0  0  0
  7  9  1  0  0  0  0
  8  1  1  0  0  0  0
  9  8  2  0  0  0  0
 10 31  1  0  0  0  0
 11  2  2  0  0  0  0
 12  5  1  0  0  0  0
 12  7  2  0  0  0  0
 14 19  1  0  0  0  0
 15 13  1  0  0  0  0
 15  5  1  0  0  0  0
 16 19  2  0  0  0  0
 16 18  1  0  0  0  0
 17 23  1  0  0  0  0
 17 13  2  0  0  0  0
 18 15  2  0  0  0  0
 19 17  1  0  0  0  0
 22 20  2  0  0  0  0
 22 21  1  0  0  0  0
 23 22  1  0  0  0  0
 24 27  1  0  0  0  0
 25 26  2  0  0  0  0
 26 24  1  0  0  0  0
 27  3  1  0  0  0  0
 28 27  2  0  0  0  0
 29 30  1  0  0  0  0
 30 26  1  0  0  0  0
 31 32  1  0  0  0  0
 32 33  1  0  0  0  0
 34 33  1  0  0  0  0
 34 35  1  0  0  0  0
 36 35  1  0  0  0  0
 37 43  1  0  0  0  0
 38 39  1  0  0  0  0
 38 36  1  0  0  0  0
 38 47  1  1  0  0  0
 40 37  2  0  0  0  0
 41 42  1  0  0  0  0
 42 43  2  0  0  0  0
 42 45  1  0  0  0  0
 43 46  1  0  0  0  0
 44 40  1  0  0  0  0
 44 41  2  0  0  0  0
 45 38  1  0  0  0  0
 46 39  1  0  0  0  0
M  END
>  <MODEL>
4

>  <REMARK>
 VINA RESULT:      -8.6      2.139      9.253
  Name = 
  11 active torsions:
  status: ('A' for Active; 'I' for Inactive)
    1  A    between atoms: N_2  and  N_17
    2  A    between atoms: N_2  and  C_18
    3  A    between atoms: C_8  and  N_12
    4  A    between atoms: C_8  and  C_18
    5  A    between atoms: C_11  and  C_29
    6  A    between atoms: N_12  and  C_13
    7  A    between atoms: C_16  and  N_17
    8  A    between atoms: C_16  and  C_43
    9  A    between atoms: C_22  and  C_25
   10  A    between atoms: C_23  and  N_47
   11  A    between atoms: C_27  and  C_40
                            x       y       z     vdW  Elec       q    Type
                         _______ _______ _______ _____ _____    ______ ____

>  <TORSDO>
F 11

$$$$
=
 OpenBabel10232411503D

 47 52  0  0  1  0  0  0  0  0999 V2000
  190.2020  177.5070  140.7010 C   0  0  0  0  0  0  0  0  0  0  0  0
  192.4250  177.1510  140.8960 N   0  0  0  0  0  0  0  0  0  0  0  0
  189.5850  177.7920  143.0470 C   0  0  0  0  0  0  0  0  0  0  0  0
  186.5060  178.1540  141.1000 C   0  0  0  0  0  3  0  0  0  0  0  0
  186.0670  178.3310  142.3490 C   0  0  0  0  0  0  0  0  0  0  0  0
  190.5340  177.5270  142.0410 C   0  0  0  0  0  0  0  0  0  0  0  0
  188.2630  178.0040  142.5940 C   0  0  0  0  0  0  0  0  0  0  0  0
  188.8900  177.7090  140.2510 C   0  0  0  0  0  3  0  0  0  0  0  0
  187.9350  177.9480  141.2470 C   0  0  0  0  0  0  0  0  0  0  0  0
  191.3090  177.2950  140.0120 C   0  0  0  0  0  0  0  0  0  0  0  0
  191.9730  177.2910  142.1060 C   0  0  0  0  0  3  0  0  0  0  0  0
  187.1770  178.2360  143.3130 C   0  0  0  0  0  3  0  0  0  0  0  0
  183.6530  178.4140  141.7610 C   0  0  0  0  0  3  0  0  0  0  0  0
  180.6530  179.2810  143.7310 O   0  0  0  0  0  1  0  0  0  0  0  0
  184.6610  178.5520  142.7230 C   0  0  0  0  0  0  0  0  0  0  0  0
  182.9760  179.1690  144.3550 C   0  0  0  0  0  3  0  0  0  0  0  0
  182.3080  178.6410  142.0840 C   0  0  0  0  0  0  0  0  0  0  0  0
  184.3120  178.9270  144.0260 C   0  0  0  0  0  3  0  0  0  0  0  0
  181.9760  179.0310  143.3880 C   0  0  0  0  0  0  0  0  0  0  0  0
  180.1490  179.0290  139.1340 O   0  0  0  0  0  0  0  0  0  0  0  0
  182.1420  180.1030  139.4570 O   0  0  0  0  0  1  0  0  0  0  0  0
  181.1540  179.2160  139.8690 C   0  0  0  0  0  0  0  0  0  0  0  0
  181.2670  178.4980  141.1070 N   0  0  0  0  0  2  0  0  0  0  0  0
  189.1420  177.1450  145.4380 N   0  0  0  0  0  2  0  0  0  0  0  0
  188.6010  176.4320  147.5790 O   0  0  0  0  0  0  0  0  0  0  0  0
  189.4730  176.9150  146.8120 C   0  0  0  0  0  0  0  0  0  0  0  0
  189.9540  177.8270  144.4780 C   0  0  0  0  0  0  0  0  0  0  0  0
  190.9660  178.4770  144.8480 O   0  0  0  0  0  0  0  0  0  0  0  0
  191.6760  175.8910  147.2100 C   0  0  0  0  0  1  0  0  0  0  0  0
  190.8460  177.1530  147.3450 C   0  0  0  0  0  2  0  0  0  0  0  0
  191.4160  177.2220  138.5260 C   0  0  0  0  0  2  0  0  0  0  0  0
  191.6840  175.8540  138.1100 N   0  0  0  0  0  2  0  0  0  0  0  0
  190.4670  175.1590  138.1570 N   0  0  0  0  0  2  0  0  0  0  0  0
  190.2890  174.5090  136.8660 C   0  0  0  0  0  2  0  0  0  0  0  0
  189.6600  175.4720  135.8760 C   0  0  0  0  0  2  0  0  0  0  0  0
  188.5330  176.1450  136.5140 N   0  0  0  0  0  2  0  0  0  0  0  0
  184.5040  177.6730  138.1760 C   0  0  0  0  0  3  0  0  0  0  0  0
  187.8470  177.0240  135.5560 C   0  0  2  0  0  0  0  0  0  0  0  0
  187.6090  178.4240  136.1410 C   0  0  0  0  0  2  0  0  0  0  0  0
  183.3580  176.8780  138.0830 C   0  0  0  0  0  3  0  0  0  0  0  0
  184.2950  175.7590  136.1530 C   0  0  0  0  0  3  0  0  0  0  0  0
  185.4510  176.5400  136.2480 C   0  0  0  0  0  0  0  0  0  0  0  0
  185.5440  177.5250  137.2560 C   0  0  0  0  0  0  0  0  0  0  0  0
  183.2520  175.9240  137.0710 C   0  0  0  0  0  3  0  0  0  0  0  0
  186.5010  176.4000  135.1820 C   0  0  0  0  0  2  0  0  0  0  0  0
  186.7810  178.3590  137.4240 C   0  0  0  0  0  2  0  0  0  0  0  0
  188.6070  177.1400  134.3880 O   0  0  0  0  0  1  0  0  0  0  0  0
  1  6  1  0  0  0  0
  2 11  1  0  0  0  0
  3 27  1  0  0  0  0
  4  9  2  0  0  0  0
  4  5  1  0  0  0  0
  5 15  1  0  0  0  0
  5 12  2  0  0  0  0
  6 11  2  0  0  0  0
  6  3  1  0  0  0  0
  7  3  2  0  0  0  0
  7 12  1  0  0  0  0
  8  1  2  0  0  0  0
  8  9  1  0  0  0  0
  9  7  1  0  0  0  0
 10  1  1  0  0  0  0
 10  2  2  0  0  0  0
 13 17  2  0  0  0  0
 13 15  1  0  0  0  0
 15 18  2  0  0  0  0
 17 19  1  0  0  0  0
 18 16  1  0  0  0  0
 19 14  1  0  0  0  0
 19 16  2  0  0  0  0
 20 22  2  0  0  0  0
 21 22  1  0  0  0  0
 22 23  1  0  0  0  0
 23 17  1  0  0  0  0
 24 26  1  0  0  0  0
 26 30  1  0  0  0  0
 26 25  2  0  0  0  0
 27 28  2  0  0  0  0
 27 24  1  0  0  0  0
 29 30  1  0  0  0  0
 31 10  1  0  0  0  0
 32 33  1  0  0  0  0
 32 31  1  0  0  0  0
 34 33  1  0  0  0  0
 35 36  1  0  0  0  0
 35 34  1  0  0  0  0
 38 47  1  6  0  0  0
 38 39  1  0  0  0  0
 38 36  1  0  0  0  0
 39 46  1  0  0  0  0
 40 37  1  0  0  0  0
 41 42  2  0  0  0  0
 41 44  1  0  0  0  0
 42 43  1  0  0  0  0
 43 46  1  0  0  0  0
 43 37  2  0  0  0  0
 44 40  2  0  0  0  0
 45 38  1  0  0  0  0
 45 42  1  0  0  0  0
M  END
>  <MODEL>
5

>  <REMARK>
 VINA RESULT:      -8.4      2.279      7.743
  Name = 
  11 active torsions:
  status: ('A' for Active; 'I' for Inactive)
    1  A    between atoms: N_2  and  N_17
    2  A    between atoms: N_2  and  C_18
    3  A    between atoms: C_8  and  N_12
    4  A    between atoms: C_8  and  C_18
    5  A    between atoms: C_11  and  C_29
    6  A    between atoms: N_12  and  C_13
    7  A    between atoms: C_16  and  N_17
    8  A    between atoms: C_16  and  C_43
    9  A    between atoms: C_22  and  C_25
   10  A    between atoms: C_23  and  N_47
   11  A    between atoms: C_27  and  C_40
                            x       y       z     vdW  Elec       q    Type
                         _______ _______ _______ _____ _____    ______ ____

>  <TORSDO>
F 11

$$$$
=
 OpenBabel10232411503D

 47 52  0  0  1  0  0  0  0  0999 V2000
  188.6210  177.7860  138.6660 C   0  0  0  0  0  0  0  0  0  0  0  0
  187.9530  178.0620  136.5260 N   0  0  0  0  0  0  0  0  0  0  0  0
  186.5510  178.3040  139.8540 C   0  0  0  0  0  0  0  0  0  0  0  0
  189.0530  177.5080  142.4040 C   0  0  0  0  0  3  0  0  0  0  0  0
  187.9730  177.7660  143.1460 C   0  0  0  0  0  0  0  0  0  0  0  0
  187.2980  178.1790  138.6660 C   0  0  0  0  0  0  0  0  0  0  0  0
  187.2580  178.0320  141.0470 C   0  0  0  0  0  0  0  0  0  0  0  0
  189.3250  177.5230  139.8490 C   0  0  0  0  0  3  0  0  0  0  0  0
  188.5970  177.6700  141.0360 C   0  0  0  0  0  0  0  0  0  0  0  0
  189.0190  177.7030  137.4090 C   0  0  0  0  0  0  0  0  0  0  0  0
  186.9220  178.3430  137.2660 C   0  0  0  0  0  3  0  0  0  0  0  0
  186.8200  178.1040  142.2940 C   0  0  0  0  0  3  0  0  0  0  0  0
  189.0980  177.4340  145.3380 C   0  0  0  0  0  3  0  0  0  0  0  0
  187.8550  177.6100  148.8110 O   0  0  0  0  0  1  0  0  0  0  0  0
  187.9410  177.7550  144.6170 C   0  0  0  0  0  0  0  0  0  0  0  0
  186.7380  177.9850  146.7110 C   0  0  0  0  0  3  0  0  0  0  0  0
  189.0900  177.3940  146.7390 C   0  0  0  0  0  0  0  0  0  0  0  0
  186.7600  178.0360  145.3150 C   0  0  0  0  0  3  0  0  0  0  0  0
  187.8960  177.6610  147.4230 C   0  0  0  0  0  0  0  0  0  0  0  0
  192.4310  176.2390  147.7490 O   0  0  0  0  0  1  0  0  0  0  0  0
  191.6700  176.3440  145.5960 O   0  0  0  0  0  0  0  0  0  0  0  0
  191.4940  176.5320  146.9620 C   0  0  0  0  0  0  0  0  0  0  0  0
  190.2710  177.0700  147.4870 N   0  0  0  0  0  2  0  0  0  0  0  0
  184.1150  177.7380  139.5720 N   0  0  0  0  0  2  0  0  0  0  0  0
  181.9190  177.0370  139.3080 O   0  0  0  0  0  0  0  0  0  0  0  0
  182.7040  177.9270  139.7240 C   0  0  0  0  0  0  0  0  0  0  0  0
  185.1300  178.7110  139.8420 C   0  0  0  0  0  0  0  0  0  0  0  0
  184.8200  179.9140  140.0440 O   0  0  0  0  0  0  0  0  0  0  0  0
  181.9980  178.8020  141.9140 C   0  0  0  0  0  1  0  0  0  0  0  0
  182.1370  179.1090  140.4360 C   0  0  0  0  0  2  0  0  0  0  0  0
  190.3750  177.2890  136.9450 C   0  0  0  0  0  2  0  0  0  0  0  0
  190.3400  176.9640  135.5270 N   0  0  0  0  0  2  0  0  0  0  0  0
  191.1690  175.8480  135.3360 N   0  0  0  0  0  2  0  0  0  0  0  0
  190.4510  174.9180  134.4750 C   0  0  0  0  0  2  0  0  0  0  0  0
  188.9730  174.9150  134.8230 C   0  0  0  0  0  2  0  0  0  0  0  0
  188.5630  173.5540  135.1540 N   0  0  0  0  0  2  0  0  0  0  0  0
  184.1630  172.7760  136.3240 C   0  0  0  0  0  3  0  0  0  0  0  0
  188.4050  173.4010  136.6070 C   0  0  2  0  0  0  0  0  0  0  0  0
  187.8200  172.0290  136.9730 C   0  0  0  0  0  2  0  0  0  0  0  0
  183.2720  173.8440  136.4610 C   0  0  0  0  0  3  0  0  0  0  0  0
  185.1230  175.3170  136.9700 C   0  0  0  0  0  3  0  0  0  0  0  0
  186.0230  174.2570  136.8200 C   0  0  0  0  0  0  0  0  0  0  0  0
  185.5330  172.9670  136.5180 C   0  0  0  0  0  0  0  0  0  0  0  0
  183.7510  175.1130  136.7870 C   0  0  0  0  0  3  0  0  0  0  0  0
  187.4740  174.4990  137.1260 C   0  0  0  0  0  2  0  0  0  0  0  0
  186.4620  171.8060  136.3070 C   0  0  0  0  0  2  0  0  0  0  0  0
  189.6430  173.5530  137.2380 O   0  0  0  0  0  1  0  0  0  0  0  0
  1  6  1  0  0  0  0
  1  8  1  0  0  0  0
  2 11  2  0  0  0  0
  2 10  1  0  0  0  0
  3  7  1  0  0  0  0
  4  5  2  0  0  0  0
  5 15  1  0  0  0  0
  6  3  2  0  0  0  0
  7 12  2  0  0  0  0
  8  9  2  0  0  0  0
  9  7  1  0  0  0  0
  9  4  1  0  0  0  0
 10  1  2  0  0  0  0
 11  6  1  0  0  0  0
 12  5  1  0  0  0  0
 13 17  1  0  0  0  0
 15 18  1  0  0  0  0
 15 13  2  0  0  0  0
 16 19  1  0  0  0  0
 17 19  2  0  0  0  0
 17 23  1  0  0  0  0
 18 16  2  0  0  0  0
 19 14  1  0  0  0  0
 21 22  2  0  0  0  0
 22 23  1  0  0  0  0
 22 20  1  0  0  0  0
 24 26  1  0  0  0  0
 24 27  1  0  0  0  0
 25 26  2  0  0  0  0
 26 30  1  0  0  0  0
 27  3  1  0  0  0  0
 27 28  2  0  0  0  0
 30 29  1  0  0  0  0
 31 10  1  0  0  0  0
 32 31  1  0  0  0  0
 33 32  1  0  0  0  0
 34 35  1  0  0  0  0
 34 33  1  0  0  0  0
 35 36  1  0  0  0  0
 36 38  1  0  0  0  0
 37 40  2  0  0  0  0
 37 43  1  0  0  0  0
 38 39  1  0  0  0  0
 38 45  1  0  0  0  0
 38 47  1  1  0  0  0
 40 44  1  0  0  0  0
 42 41  1  0  0  0  0
 42 45  1  0  0  0  0
 43 42  2  0  0  0  0
 44 41  2  0  0  0  0
 46 43  1  0  0  0  0
 46 39  1  0  0  0  0
M  END
>  <MODEL>
6

>  <REMARK>
 VINA RESULT:      -8.4      2.369      7.032
  Name = 
  11 active torsions:
  status: ('A' for Active; 'I' for Inactive)
    1  A    between atoms: N_2  and  N_17
    2  A    between atoms: N_2  and  C_18
    3  A    between atoms: C_8  and  N_12
    4  A    between atoms: C_8  and  C_18
    5  A    between atoms: C_11  and  C_29
    6  A    between atoms: N_12  and  C_13
    7  A    between atoms: C_16  and  N_17
    8  A    between atoms: C_16  and  C_43
    9  A    between atoms: C_22  and  C_25
   10  A    between atoms: C_23  and  N_47
   11  A    between atoms: C_27  and  C_40
                            x       y       z     vdW  Elec       q    Type
                         _______ _______ _______ _____ _____    ______ ____

>  <TORSDO>
F 11

$$$$
=
 OpenBabel10232411503D

 47 52  0  0  1  0  0  0  0  0999 V2000
  186.4230  178.4210  139.8330 C   0  0  0  0  0  0  0  0  0  0  0  0
  185.0880  179.0660  141.5380 N   0  0  0  0  0  0  0  0  0  0  0  0
  188.4180  177.7280  141.0600 C   0  0  0  0  0  0  0  0  0  0  0  0
  189.1330  177.1960  137.5110 C   0  0  0  0  0  3  0  0  0  0  0  0
  190.2660  176.7870  138.0860 C   0  0  0  0  0  0  0  0  0  0  0  0
  187.1160  178.2650  141.0160 C   0  0  0  0  0  0  0  0  0  0  0  0
  188.9780  177.3920  139.8080 C   0  0  0  0  0  0  0  0  0  0  0  0
  186.9810  178.0950  138.5890 C   0  0  0  0  0  3  0  0  0  0  0  0
  188.2850  177.5850  138.6220 C   0  0  0  0  0  0  0  0  0  0  0  0
  185.2210  178.8840  140.1250 C   0  0  0  0  0  0  0  0  0  0  0  0
  186.2110  178.6960  142.0770 C   0  0  0  0  0  3  0  0  0  0  0  0
  190.1830  176.9080  139.5520 C   0  0  0  0  0  3  0  0  0  0  0  0
  192.6340  176.0310  138.0610 C   0  0  0  0  0  3  0  0  0  0  0  0
  194.8960  175.0670  135.3060 O   0  0  0  0  0  1  0  0  0  0  0  0
  191.4560  176.3140  137.3600 C   0  0  0  0  0  0  0  0  0  0  0  0
  192.5880  175.7500  135.2900 C   0  0  0  0  0  3  0  0  0  0  0  0
  193.7890  175.6010  137.3920 C   0  0  0  0  0  0  0  0  0  0  0  0
  191.4380  176.1650  135.9680 C   0  0  0  0  0  3  0  0  0  0  0  0
  193.7610  175.4730  135.9960 C   0  0  0  0  0  0  0  0  0  0  0  0
  196.4920  173.9120  139.2220 O   0  0  0  0  0  1  0  0  0  0  0  0
  194.7000  172.8670  138.2630 O   0  0  0  0  0  0  0  0  0  0  0  0
  195.4290  174.0130  138.5570 C   0  0  0  0  0  0  0  0  0  0  0  0
  195.0000  175.3050  138.1010 N   0  0  0  0  0  2  0  0  0  0  0  0
  190.0670  178.5540  142.7730 N   0  0  0  0  0  2  0  0  0  0  0  0
  191.5890  179.4780  144.2610 O   0  0  0  0  0  0  0  0  0  0  0  0
  190.6850  178.6260  144.0620 C   0  0  0  0  0  0  0  0  0  0  0  0
  189.1450  177.5510  142.3350 C   0  0  0  0  0  0  0  0  0  0  0  0
  188.9700  176.5070  143.0160 O   0  0  0  0  0  0  0  0  0  0  0  0
  191.3590  176.8630  145.6430 C   0  0  0  0  0  1  0  0  0  0  0  0
  190.2340  177.7790  145.2040 C   0  0  0  0  0  2  0  0  0  0  0  0
  184.1330  179.1760  139.1470 C   0  0  0  0  0  2  0  0  0  0  0  0
  182.8400  178.8400  139.7230 N   0  0  0  0  0  2  0  0  0  0  0  0
  182.2900  177.8140  138.9400 N   0  0  0  0  0  2  0  0  0  0  0  0
  182.6110  176.5520  139.5930 C   0  0  0  0  0  2  0  0  0  0  0  0
  182.6020  175.4200  138.5820 C   0  0  0  0  0  2  0  0  0  0  0  0
  183.8020  175.5080  137.7560 N   0  0  0  0  0  2  0  0  0  0  0  0
  187.4480  172.7040  137.3310 C   0  0  0  0  0  3  0  0  0  0  0  0
  183.6830  174.6350  136.5790 C   0  0  2  0  0  0  0  0  0  0  0  0
  183.7030  173.1500  136.9710 C   0  0  0  0  0  2  0  0  0  0  0  0
  188.6200  173.1620  136.7230 C   0  0  0  0  0  3  0  0  0  0  0  0
  187.3320  174.7780  135.4650 C   0  0  0  0  0  3  0  0  0  0  0  0
  186.1560  174.3360  136.0800 C   0  0  0  0  0  0  0  0  0  0  0  0
  186.2130  173.2700  137.0040 C   0  0  0  0  0  0  0  0  0  0  0  0
  188.5620  174.1960  135.7890 C   0  0  0  0  0  3  0  0  0  0  0  0
  184.8470  174.9190  135.6280 C   0  0  0  0  0  2  0  0  0  0  0  0
  184.9850  172.7880  137.7210 C   0  0  0  0  0  2  0  0  0  0  0  0
  182.4930  174.9120  135.9000 O   0  0  0  0  0  1  0  0  0  0  0  0
  1 10  1  0  0  0  0
  1  6  1  0  0  0  0
  2 11  1  0  0  0  0
  3 27  1  0  0  0  0
  4  5  1  0  0  0  0
  4  9  2  0  0  0  0
  5 12  2  0  0  0  0
  6  3  1  0  0  0  0
  6 11  2  0  0  0  0
  7  3  2  0  0  0  0
  8  9  1  0  0  0  0
  8  1  2  0  0  0  0
  9  7  1  0  0  0  0
 10  2  2  0  0  0  0
 12  7  1  0  0  0  0
 14 19  1  0  0  0  0
 15 13  2  0  0  0  0
 15  5  1  0  0  0  0
 16 18  2  0  0  0  0
 16 19  1  0  0  0  0
 17 13  1  0  0  0  0
 17 23  1  0  0  0  0
 18 15  1  0  0  0  0
 19 17  2  0  0  0  0
 21 22  2  0  0  0  0
 22 20  1  0  0  0  0
 23 22  1  0  0  0  0
 24 26  1  0  0  0  0
 26 25  2  0  0  0  0
 26 30  1  0  0  0  0
 27 24  1  0  0  0  0
 27 28  2  0  0  0  0
 30 29  1  0  0  0  0
 31 32  1  0  0  0  0
 31 10  1  0  0  0  0
 33 34  1  0  0  0  0
 33 32  1  0  0  0  0
 35 34  1  0  0  0  0
 36 35  1  0  0  0  0
 38 47  1  6  0  0  0
 38 39  1  0  0  0  0
 38 36  1  0  0  0  0
 39 46  1  0  0  0  0
 40 37  2  0  0  0  0
 41 44  2  0  0  0  0
 41 42  1  0  0  0  0
 42 43  2  0  0  0  0
 43 37  1  0  0  0  0
 43 46  1  0  0  0  0
 44 40  1  0  0  0  0
 45 42  1  0  0  0  0
 45 38  1  0  0  0  0
M  END
>  <MODEL>
7

>  <REMARK>
 VINA RESULT:      -8.3      2.613      7.725
  Name = 
  11 active torsions:
  status: ('A' for Active; 'I' for Inactive)
    1  A    between atoms: N_2  and  N_17
    2  A    between atoms: N_2  and  C_18
    3  A    between atoms: C_8  and  N_12
    4  A    between atoms: C_8  and  C_18
    5  A    between atoms: C_11  and  C_29
    6  A    between atoms: N_12  and  C_13
    7  A    between atoms: C_16  and  N_17
    8  A    between atoms: C_16  and  C_43
    9  A    between atoms: C_22  and  C_25
   10  A    between atoms: C_23  and  N_47
   11  A    between atoms: C_27  and  C_40
                            x       y       z     vdW  Elec       q    Type
                         _______ _______ _______ _____ _____    ______ ____

>  <TORSDO>
F 11

$$$$
=
 OpenBabel10232411503D

 47 52  0  0  1  0  0  0  0  0999 V2000
  188.3460  177.8540  138.6980 C   0  0  0  0  0  0  0  0  0  0  0  0
  187.6140  178.1340  136.5790 N   0  0  0  0  0  0  0  0  0  0  0  0
  186.3000  178.3210  139.9470 C   0  0  0  0  0  0  0  0  0  0  0  0
  188.8870  177.5550  142.4200 C   0  0  0  0  0  3  0  0  0  0  0  0
  187.8230  177.7860  143.1930 C   0  0  0  0  0  0  0  0  0  0  0  0
  187.0160  178.2200  138.7370 C   0  0  0  0  0  0  0  0  0  0  0  0
  187.0450  178.0530  141.1170 C   0  0  0  0  0  0  0  0  0  0  0  0
  189.0880  177.5970  139.8580 C   0  0  0  0  0  3  0  0  0  0  0  0
  188.3900  177.7190  141.0660 C   0  0  0  0  0  0  0  0  0  0  0  0
  188.7110  177.7900  137.4300 C   0  0  0  0  0  0  0  0  0  0  0  0
  186.5990  178.3880  137.3490 C   0  0  0  0  0  3  0  0  0  0  0  0
  186.6400  178.1070  142.3760 C   0  0  0  0  0  3  0  0  0  0  0  0
  188.9900  177.3720  145.3490 C   0  0  0  0  0  3  0  0  0  0  0  0
  187.8570  177.5820  148.8580 O   0  0  0  0  0  1  0  0  0  0  0  0
  187.8320  177.7620  144.6650 C   0  0  0  0  0  0  0  0  0  0  0  0
  186.7030  178.0380  146.7940 C   0  0  0  0  0  3  0  0  0  0  0  0
  189.0190  177.3190  146.7500 C   0  0  0  0  0  0  0  0  0  0  0  0
  186.6880  178.1010  145.3980 C   0  0  0  0  0  3  0  0  0  0  0  0
  187.8610  177.6440  147.4700 C   0  0  0  0  0  0  0  0  0  0  0  0
  192.3930  176.1570  147.6320 O   0  0  0  0  0  1  0  0  0  0  0  0
  191.6660  176.5950  145.5090 O   0  0  0  0  0  0  0  0  0  0  0  0
  191.4570  176.5380  146.8820 C   0  0  0  0  0  0  0  0  0  0  0  0
  190.2010  176.9240  147.4610 N   0  0  0  0  0  2  0  0  0  0  0  0
  183.8670  177.6790  139.9820 N   0  0  0  0  0  2  0  0  0  0  0  0
  181.6780  176.9100  140.0430 O   0  0  0  0  0  0  0  0  0  0  0  0
  182.4670  177.8740  140.2140 C   0  0  0  0  0  0  0  0  0  0  0  0
  184.8710  178.6990  139.9770 C   0  0  0  0  0  0  0  0  0  0  0  0
  184.5430  179.9130  139.9720 O   0  0  0  0  0  0  0  0  0  0  0  0
  180.6970  178.9000  141.5840 C   0  0  0  0  0  1  0  0  0  0  0  0
  181.9250  179.1630  140.7340 C   0  0  0  0  0  2  0  0  0  0  0  0
  190.0620  177.4060  136.9250 C   0  0  0  0  0  2  0  0  0  0  0  0
  190.0430  176.0350  136.4390 N   0  0  0  0  0  2  0  0  0  0  0  0
  191.3610  175.5580  136.4910 N   0  0  0  0  0  2  0  0  0  0  0  0
  191.9690  176.0950  137.7010 C   0  0  0  0  0  2  0  0  0  0  0  0
  193.4820  176.0290  137.6020 C   0  0  0  0  0  2  0  0  0  0  0  0
  193.9180  174.6570  137.8360 N   0  0  0  0  0  2  0  0  0  0  0  0
  193.4900  170.4640  135.9460 C   0  0  0  0  0  3  0  0  0  0  0  0
  195.0660  174.3260  136.9790 C   0  0  2  0  0  0  0  0  0  0  0  0
  194.6320  174.0520  135.5310 C   0  0  0  0  0  2  0  0  0  0  0  0
  193.8570  169.3260  136.6690 C   0  0  0  0  0  3  0  0  0  0  0  0
  195.4040  170.6550  137.9700 C   0  0  0  0  0  3  0  0  0  0  0  0
  195.0330  171.8020  137.2610 C   0  0  0  0  0  0  0  0  0  0  0  0
  194.0830  171.6990  136.2210 C   0  0  0  0  0  0  0  0  0  0  0  0
  194.8150  169.4200  137.6780 C   0  0  0  0  0  3  0  0  0  0  0  0
  195.7640  173.0850  137.5380 C   0  0  0  0  0  2  0  0  0  0  0  0
  193.6220  172.9070  135.4580 C   0  0  0  0  0  2  0  0  0  0  0  0
  195.9850  175.3790  136.9890 O   0  0  0  0  0  1  0  0  0  0  0  0
  1  6  1  0  0  0  0
  1  8  1  0  0  0  0
  2 11  2  0  0  0  0
  2 10  1  0  0  0  0
  3 27  1  0  0  0  0
  3  7  1  0  0  0  0
  4  5  2  0  0  0  0
  5 15  1  0  0  0  0
  6  3  2  0  0  0  0
  7 12  2  0  0  0  0
  8  9  2  0  0  0  0
  9  7  1  0  0  0  0
  9  4  1  0  0  0  0
 10  1  2  0  0  0  0
 11  6  1  0  0  0  0
 12  5  1  0  0  0  0
 13 17  1  0  0  0  0
 15 13  2  0  0  0  0
 15 18  1  0  0  0  0
 16 19  1  0  0  0  0
 17 23  1  0  0  0  0
 17 19  2  0  0  0  0
 18 16  2  0  0  0  0
 19 14  1  0  0  0  0
 21 22  2  0  0  0  0
 22 23  1  0  0  0  0
 22 20  1  0  0  0  0
 24 26  1  0  0  0  0
 25 26  2  0  0  0  0
 26 30  1  0  0  0  0
 27 24  1  0  0  0  0
 28 27  2  0  0  0  0
 30 29  1  0  0  0  0
 31 10  1  0  0  0  0
 32 33  1  0  0  0  0
 32 31  1  0  0  0  0
 33 34  1  0  0  0  0
 35 34  1  0  0  0  0
 35 36  1  0  0  0  0
 37 43  2  0  0  0  0
 37 40  1  0  0  0  0
 38 47  1  1  0  0  0
 38 45  1  0  0  0  0
 38 36  1  0  0  0  0
 39 38  1  0  0  0  0
 40 44  2  0  0  0  0
 42 45  1  0  0  0  0
 42 41  2  0  0  0  0
 43 42  1  0  0  0  0
 44 41  1  0  0  0  0
 46 39  1  0  0  0  0
 46 43  1  0  0  0  0
M  END
>  <MODEL>
8

>  <REMARK>
 VINA RESULT:      -8.3      2.089      9.047
  Name = 
  11 active torsions:
  status: ('A' for Active; 'I' for Inactive)
    1  A    between atoms: N_2  and  N_17
    2  A    between atoms: N_2  and  C_18
    3  A    between atoms: C_8  and  N_12
    4  A    between atoms: C_8  and  C_18
    5  A    between atoms: C_11  and  C_29
    6  A    between atoms: N_12  and  C_13
    7  A    between atoms: C_16  and  N_17
    8  A    between atoms: C_16  and  C_43
    9  A    between atoms: C_22  and  C_25
   10  A    between atoms: C_23  and  N_47
   11  A    between atoms: C_27  and  C_40
                            x       y       z     vdW  Elec       q    Type
                         _______ _______ _______ _____ _____    ______ ____

>  <TORSDO>
F 11

$$$$
=
 OpenBabel10232411503D

 47 52  0  0  1  0  0  0  0  0999 V2000
  188.2370  177.8450  138.7270 C   0  0  0  0  0  0  0  0  0  0  0  0
  186.7540  178.5570  137.1780 N   0  0  0  0  0  0  0  0  0  0  0  0
  187.0450  178.4050  140.7830 C   0  0  0  0  0  0  0  0  0  0  0  0
  190.2220  176.8930  141.7910 C   0  0  0  0  0  3  0  0  0  0  0  0
  189.6520  177.1520  142.9700 C   0  0  0  0  0  0  0  0  0  0  0  0
  187.1500  178.3910  139.3780 C   0  0  0  0  0  0  0  0  0  0  0  0
  188.1430  177.8520  141.4790 C   0  0  0  0  0  0  0  0  0  0  0  0
  189.3310  177.3040  139.4160 C   0  0  0  0  0  3  0  0  0  0  0  0
  189.2460  177.3370  140.8130 C   0  0  0  0  0  0  0  0  0  0  0  0
  188.0140  177.9270  137.4270 C   0  0  0  0  0  0  0  0  0  0  0  0
  186.2300  178.8320  138.3350 C   0  0  0  0  0  3  0  0  0  0  0  0
  188.3250  177.7660  142.7870 C   0  0  0  0  0  3  0  0  0  0  0  0
  189.7140  177.4530  145.4370 C   0  0  0  0  0  3  0  0  0  0  0  0
  192.0840  176.2800  148.0150 O   0  0  0  0  0  1  0  0  0  0  0  0
  190.2740  176.8980  144.2790 C   0  0  0  0  0  0  0  0  0  0  0  0
  192.0360  175.9250  145.6330 C   0  0  0  0  0  3  0  0  0  0  0  0
  190.2990  177.2460  146.6940 C   0  0  0  0  0  0  0  0  0  0  0  0
  191.4370  176.1270  144.3870 C   0  0  0  0  0  3  0  0  0  0  0  0
  191.4730  176.4850  146.7840 C   0  0  0  0  0  0  0  0  0  0  0  0
  187.9810  178.4140  149.2970 O   0  0  0  0  0  1  0  0  0  0  0  0
  187.3840  177.2080  147.4480 O   0  0  0  0  0  0  0  0  0  0  0  0
  188.3410  177.8310  148.2410 C   0  0  0  0  0  0  0  0  0  0  0  0
  189.7320  177.8070  147.8870 N   0  0  0  0  0  2  0  0  0  0  0  0
  184.6040  178.3130  141.3870 N   0  0  0  0  0  2  0  0  0  0  0  0
  182.3490  178.0560  141.8720 O   0  0  0  0  0  0  0  0  0  0  0  0
  183.4350  178.6240  142.1540 C   0  0  0  0  0  0  0  0  0  0  0  0
  185.8680  178.9770  141.4710 C   0  0  0  0  0  0  0  0  0  0  0  0
  185.9770  180.0590  142.1040 O   0  0  0  0  0  0  0  0  0  0  0  0
  183.1020  178.7820  144.5880 C   0  0  0  0  0  1  0  0  0  0  0  0
  183.4830  179.5390  143.3310 C   0  0  0  0  0  2  0  0  0  0  0  0
  188.9200  177.4340  136.3490 C   0  0  0  0  0  2  0  0  0  0  0  0
  188.1450  176.7960  135.2970 N   0  0  0  0  0  2  0  0  0  0  0  0
  187.8560  175.4920  135.7260 N   0  0  0  0  0  2  0  0  0  0  0  0
  186.4750  175.2110  135.3580 C   0  0  0  0  0  2  0  0  0  0  0  0
  185.6120  175.1050  136.6030 C   0  0  0  0  0  2  0  0  0  0  0  0
  184.5770  176.1320  136.5560 N   0  0  0  0  0  2  0  0  0  0  0  0
  181.0960  179.1450  136.1780 C   0  0  0  0  0  3  0  0  0  0  0  0
  183.4330  175.7510  137.3970 C   0  0  2  0  0  0  0  0  0  0  0  0
  182.1630  175.5300  136.5620 C   0  0  0  0  0  2  0  0  0  0  0  0
  181.1020  180.3240  136.9290 C   0  0  0  0  0  3  0  0  0  0  0  0
  182.4910  179.2510  138.5950 C   0  0  0  0  0  3  0  0  0  0  0  0
  182.5030  178.0730  137.8420 C   0  0  0  0  0  0  0  0  0  0  0  0
  181.7760  178.0130  136.6330 C   0  0  0  0  0  0  0  0  0  0  0  0
  181.7960  180.3760  138.1380 C   0  0  0  0  0  3  0  0  0  0  0  0
  183.1760  176.8600  138.4200 C   0  0  0  0  0  2  0  0  0  0  0  0
  181.7920  176.7840  135.7700 C   0  0  0  0  0  2  0  0  0  0  0  0
  183.7280  174.5780  138.0980 O   0  0  0  0  0  1  0  0  0  0  0  0
  1  6  1  0  0  0  0
  1  8  2  0  0  0  0
  2 10  2  0  0  0  0
  2 11  1  0  0  0  0
  3 27  1  0  0  0  0
  3  7  2  0  0  0  0
  4  5  1  0  0  0  0
  5 15  1  0  0  0  0
  6  3  1  0  0  0  0
  7 12  1  0  0  0  0
  8  9  1  0  0  0  0
  9  7  1  0  0  0  0
  9  4  2  0  0  0  0
 10  1  1  0  0  0  0
 11  6  2  0  0  0  0
 12  5  2  0  0  0  0
 13 17  1  0  0  0  0
 15 18  1  0  0  0  0
 15 13  2  0  0  0  0
 16 19  1  0  0  0  0
 17 19  2  0  0  0  0
 17 23  1  0  0  0  0
 18 16  2  0  0  0  0
 19 14  1  0  0  0  0
 21 22  2  0  0  0  0
 22 20  1  0  0  0  0
 23 22  1  0  0  0  0
 24 27  1  0  0  0  0
 24 26  1  0  0  0  0
 25 26  2  0  0  0  0
 26 30  1  0  0  0  0
 27 28  2  0  0  0  0
 30 29  1  0  0  0  0
 31 10  1  0  0  0  0
 32 33  1  0  0  0  0
 32 31  1  0  0  0  0
 34 33  1  0  0  0  0
 34 35  1  0  0  0  0
 36 35  1  0  0  0  0
 36 38  1  0  0  0  0
 37 43  2  0  0  0  0
 37 40  1  0  0  0  0
 38 47  1  1  0  0  0
 38 45  1  0  0  0  0
 39 38  1  0  0  0  0
 40 44  2  0  0  0  0
 42 45  1  0  0  0  0
 42 41  2  0  0  0  0
 43 42  1  0  0  0  0
 44 41  1  0  0  0  0
 46 39  1  0  0  0  0
 46 43  1  0  0  0  0
M  END
>  <MODEL>
9

>  <REMARK>
 VINA RESULT:      -8.1      2.827      5.920
  Name = 
  11 active torsions:
  status: ('A' for Active; 'I' for Inactive)
    1  A    between atoms: N_2  and  N_17
    2  A    between atoms: N_2  and  C_18
    3  A    between atoms: C_8  and  N_12
    4  A    between atoms: C_8  and  C_18
    5  A    between atoms: C_11  and  C_29
    6  A    between atoms: N_12  and  C_13
    7  A    between atoms: C_16  and  N_17
    8  A    between atoms: C_16  and  C_43
    9  A    between atoms: C_22  and  C_25
   10  A    between atoms: C_23  and  N_47
   11  A    between atoms: C_27  and  C_40
                            x       y       z     vdW  Elec       q    Type
                         _______ _______ _______ _____ _____    ______ ____

>  <TORSDO>
F 11

$$$$
