=
 OpenBabel10232412133D

 68 75  0  0  1  0  0  0  0  0999 V2000
  185.3520  178.3820  141.2240 O   0  0  0  0  0  0  0  0  0  0  0  0
  186.4270  178.1480  139.1670 N   0  0  0  0  0  0  0  0  0  0  0  0
  185.3070  178.5680  139.9770 C   0  0  0  0  0  0  0  0  0  0  0  0
  187.4190  175.5470  135.5230 C   0  0  0  0  0  3  0  0  0  0  0  0
  186.4300  178.3030  137.7090 C   0  0  2  0  0  3  0  0  0  0  0  0
  184.9730  176.2490  137.1510 O   0  0  0  0  0  1  0  0  0  0  0  0
  188.6580  175.4580  134.8690 C   0  0  0  0  0  3  0  0  0  0  0  0
  186.1410  176.9960  137.0330 C   0  0  0  0  0  0  0  0  0  0  0  0
  188.1360  177.6470  136.4460 C   0  0  0  0  0  0  0  0  0  0  0  0
  189.6070  176.4890  135.0210 C   0  0  0  0  0  0  0  0  0  0  0  0
  187.7820  178.6160  137.2250 N   0  0  0  0  0  0  0  0  0  0  0  0
  189.3350  177.5670  135.8180 N   0  0  0  0  0  0  0  0  0  0  0  0
  187.1890  176.6710  136.3100 C   0  0  0  0  0  0  0  0  0  0  0  0
  190.9330  176.3610  134.3480 C   0  0  0  0  0  2  0  0  0  0  0  0
  191.7340  174.0030  134.3470 C   0  0  0  0  0  1  0  0  0  0  0  0
  191.8220  175.3430  135.0570 C   0  0  1  0  0  3  0  0  0  0  0  0
  193.6290  177.0690  134.9030 N   0  0  0  0  0  0  0  0  0  0  0  0
  194.9620  177.0330  135.0780 C   0  0  0  0  0  0  0  0  0  0  0  0
  194.3490  175.0030  135.4350 C   0  0  0  0  0  3  0  0  0  0  0  0
  195.4280  175.8040  135.3770 N   0  0  0  0  0  0  0  0  0  0  0  0
  195.7800  178.2000  135.0220 N   0  0  0  0  0  1  0  0  0  0  0  0
  193.2520  175.7910  135.1190 C   0  0  0  0  0  0  0  0  0  0  0  0
  195.5750  174.0560  137.4480 O   0  0  0  0  0  1  0  0  0  0  0  0
  197.0210  173.9150  135.5120 C   0  0  0  0  0  2  0  0  0  0  0  0
  196.7940  175.4160  135.7330 C   0  0  2  0  0  3  0  0  0  0  0  0
  196.8030  174.4430  136.9050 C   0  0  1  0  0  0  0  0  0  0  0  0
  198.0290  174.4070  137.7970 C   0  0  0  0  0  2  0  0  0  0  0  0
  198.1400  175.6190  138.4980 O   0  0  0  0  0  0  0  0  0  0  0  0
  199.2780  174.8450  140.3420 F   0  0  0  0  0  0  0  0  0  0  0  0
  197.0560  174.4180  140.1370 F   0  0  0  0  0  0  0  0  0  0  0  0
  197.7790  176.5020  140.5530 F   0  0  0  0  0  0  0  0  0  0  0  0
  198.0660  175.3330  139.8760 C   0  0  0  0  0  0  0  0  0  0  0  0
  182.1010  181.7310  138.1730 C   0  0  0  0  0  3  0  0  0  0  0  0
  182.0080  179.3410  138.5470 C   0  0  0  0  0  0  0  0  0  0  0  0
  180.6430  179.2090  138.0430 C   0  0  0  0  0  3  0  0  0  0  0  0
  180.0290  180.3200  137.6070 C   0  0  0  0  0  3  0  0  0  0  0  0
  183.9740  180.4560  139.1400 N   0  0  0  0  0  0  0  0  0  0  0  0
  180.6900  181.6960  137.6080 C   0  0  0  0  0  3  0  0  0  0  0  0
  182.8500  178.4490  139.0360 C   0  0  1  0  0  3  0  0  0  0  0  0
  184.0840  179.1860  139.4020 C   0  0  0  0  0  0  0  0  0  0  0  0
  182.6730  180.6060  138.5920 C   0  0  0  0  0  0  0  0  0  0  0  0
  182.5670  176.9950  139.2220 C   0  0  0  0  0  2  0  0  0  0  0  0
  181.6110  176.8290  140.2260 O   0  0  0  0  0  1  0  0  0  0  0  0
  187.5040  177.3760  139.7850 C   0  0  0  0  0  2  0  0  0  0  0  0
  188.5780  178.2990  140.3350 C   0  0  0  0  0  2  0  0  0  0  0  0
  189.9100  177.5740  140.3300 C   0  0  0  0  0  2  0  0  0  0  0  0
  189.8900  176.4650  141.3710 C   0  0  0  0  0  2  0  0  0  0  0  0
  191.5690  177.8670  142.5400 C   0  0  1  0  0  3  0  0  0  0  0  0
  190.5840  178.8750  144.4720 O   0  0  0  0  0  1  0  0  0  0  0  0
  191.0250  175.7640  143.4500 C   0  0  0  0  0  0  0  0  0  0  0  0
  192.8480  178.1620  142.0700 O   0  0  0  0  0  1  0  0  0  0  0  0
  191.1970  176.4370  142.1450 C   0  0  1  0  0  3  0  0  0  0  0  0
  190.8010  174.5300  143.5750 O   0  0  0  0  0  0  0  0  0  0  0  0
  191.1980  176.6290  144.5540 N   0  0  0  0  0  0  0  0  0  0  0  0
  191.5530  177.9530  144.0710 C   0  0  1  0  0  3  0  0  0  0  0  0
  191.5670  176.1430  145.8760 C   0  0  0  0  0  2  0  0  0  0  0  0
  191.5800  177.2810  146.8790 C   0  0  0  0  0  2  0  0  0  0  0  0
  190.4850  177.1090  147.8160 N   0  0  0  0  0  2  0  0  0  0  0  0
  189.4210  176.4310  147.0940 C   0  0  0  0  0  2  0  0  0  0  0  0
  188.3590  178.3430  148.2240 C   0  0  0  0  0  1  0  0  0  0  0  0
  188.1230  177.2110  147.2380 C   0  0  1  0  0  3  0  0  0  0  0  0
  187.6440  177.7650  145.8910 C   0  0  1  0  0  3  0  0  0  0  0  0
  188.0720  176.9380  144.8470 O   0  0  0  0  0  1  0  0  0  0  0  0
  186.1220  177.8470  145.8570 C   0  0  2  0  0  3  0  0  0  0  0  0
  185.7030  179.0460  145.0250 C   0  0  2  0  0  3  0  0  0  0  0  0
  185.6540  179.1190  146.5360 C   0  0  0  0  0  2  0  0  0  0  0  0
  183.3490  178.9090  145.5720 N   0  0  0  0  0  1  0  0  0  0  0  0
  184.3080  178.8030  144.4880 C   0  0  0  0  0  2  0  0  0  0  0  0
  2 44  1  0  0  0  0
  2  3  1  0  0  0  0
  3  1  2  0  0  0  0
  4 13  1  0  0  0  0
  5  2  1  1  0  0  0
  7 10  1  0  0  0  0
  7  4  2  0  0  0  0
  8  6  1  0  0  0  0
  8  5  1  0  0  0  0
  9 11  2  0  0  0  0
 10 12  2  0  0  0  0
 11  5  1  0  0  0  0
 12  9  1  0  0  0  0
 13  9  1  0  0  0  0
 13  8  2  0  0  0  0
 14 10  1  0  0  0  0
 14 16  1  0  0  0  0
 16 15  1  6  0  0  0
 16 22  1  0  0  0  0
 17 18  2  0  0  0  0
 17 22  1  0  0  0  0
 18 20  1  0  0  0  0
 20 19  1  0  0  0  0
 21 18  1  0  0  0  0
 22 19  2  0  0  0  0
 24 25  1  0  0  0  0
 24 26  1  0  0  0  0
 25 20  1  6  0  0  0
 25 26  1  0  0  0  0
 26 23  1  1  0  0  0
 26 27  1  0  0  0  0
 27 28  1  0  0  0  0
 28 32  1  0  0  0  0
 32 30  1  0  0  0  0
 32 29  1  0  0  0  0
 32 31  1  0  0  0  0
 33 41  1  0  0  0  0
 34 41  2  0  0  0  0
 34 39  1  0  0  0  0
 35 34  1  0  0  0  0
 36 38  1  0  0  0  0
 36 35  2  0  0  0  0
 37 40  2  0  0  0  0
 38 33  2  0  0  0  0
 39 42  1  1  0  0  0
 39 40  1  0  0  0  0
 40  3  1  0  0  0  0
 41 37  1  0  0  0  0
 42 43  1  0  0  0  0
 44 45  1  0  0  0  0
 46 45  1  0  0  0  0
 46 47  1  0  0  0  0
 48 51  1  1  0  0  0
 48 55  1  0  0  0  0
 50 53  2  0  0  0  0
 50 54  1  0  0  0  0
 52 47  1  1  0  0  0
 52 48  1  0  0  0  0
 52 50  1  0  0  0  0
 54 56  1  0  0  0  0
 55 49  1  6  0  0  0
 55 54  1  0  0  0  0
 56 57  1  0  0  0  0
 57 58  1  0  0  0  0
 59 61  1  0  0  0  0
 59 58  1  0  0  0  0
 61 60  1  1  0  0  0
 62 63  1  6  0  0  0
 62 61  1  0  0  0  0
 64 62  1  1  0  0  0
 64 66  1  0  0  0  0
 65 68  1  6  0  0  0
 65 64  1  0  0  0  0
 65 66  1  0  0  0  0
 68 67  1  0  0  0  0
M  END
>  <MODEL>
1

>  <REMARK>
 VINA RESULT:      -7.1      0.000      0.000
  Name = 
  23 active torsions:
  status: ('A' for Active; 'I' for Inactive)
    1  A    between atoms: N_3  and  C_9
    2  A    between atoms: N_3  and  C_58
    3  A    between atoms: C_8  and  C_10
    4  A    between atoms: C_8  and  C_57
    5  A    between atoms: C_9  and  C_57
    6  A    between atoms: C_11  and  C_54
    7  A    between atoms: C_13  and  N_38
    8  A    between atoms: C_14  and  C_30
    9  A    between atoms: C_14  and  C_43
   10  A    between atoms: C_15  and  C_52
   11  A    between atoms: C_15  and  C_56
   12  A    between atoms: C_18  and  C_47
   13  A    between atoms: C_22  and  C_24
   14  A    between atoms: C_22  and  C_30
   15  A    between atoms: C_24  and  N_38
   16  A    between atoms: O_26  and  C_31
   17  A    between atoms: O_26  and  C_62
   18  A    between atoms: C_31  and  C_61
   19  A    between atoms: N_32  and  C_60
   20  A    between atoms: C_35  and  C_58
   21  A    between atoms: C_35  and  N_65
   22  A    between atoms: C_40  and  C_64
   23  A    between atoms: C_53  and  C_56
                            x       y       z     vdW  Elec       q    Type
                         _______ _______ _______ _____ _____    ______ ____

>  <TORSDO>
F 23

$$$$
=
 OpenBabel10232412133D

 68 75  0  0  1  0  0  0  0  0999 V2000
  189.8690  175.7200  142.5500 O   0  0  0  0  0  0  0  0  0  0  0  0
  188.4080  177.3870  141.8230 N   0  0  0  0  0  0  0  0  0  0  0  0
  189.1210  176.6850  142.8660 C   0  0  0  0  0  0  0  0  0  0  0  0
  183.8780  178.0960  141.8200 C   0  0  0  0  0  3  0  0  0  0  0  0
  187.4980  178.4970  142.1190 C   0  0  2  0  0  3  0  0  0  0  0  0
  185.9920  177.2550  143.8060 O   0  0  0  0  0  1  0  0  0  0  0  0
  183.1090  178.5980  140.7580 C   0  0  0  0  0  3  0  0  0  0  0  0
  186.1860  177.9870  142.6400 C   0  0  0  0  0  0  0  0  0  0  0  0
  185.8190  179.0510  140.7730 C   0  0  0  0  0  0  0  0  0  0  0  0
  183.7300  179.3300  139.7260 C   0  0  0  0  0  0  0  0  0  0  0  0
  187.1010  179.1830  140.8830 N   0  0  0  0  0  0  0  0  0  0  0  0
  185.0820  179.5380  139.7440 N   0  0  0  0  0  0  0  0  0  0  0  0
  185.2460  178.3480  141.7950 C   0  0  0  0  0  0  0  0  0  0  0  0
  182.9040  179.8250  138.5860 C   0  0  0  0  0  2  0  0  0  0  0  0
  180.4560  180.0670  138.2000 C   0  0  0  0  0  1  0  0  0  0  0  0
  181.5740  179.0820  138.4980 C   0  0  1  0  0  3  0  0  0  0  0  0
  182.3010  178.1200  136.3050 N   0  0  0  0  0  0  0  0  0  0  0  0
  182.0660  176.9500  135.6830 C   0  0  0  0  0  0  0  0  0  0  0  0
  180.9620  176.7780  137.5190 C   0  0  0  0  0  3  0  0  0  0  0  0
  181.2500  176.1320  136.3760 N   0  0  0  0  0  0  0  0  0  0  0  0
  182.6860  176.5940  134.4480 N   0  0  0  0  0  1  0  0  0  0  0  0
  181.5970  178.0090  137.4510 C   0  0  0  0  0  0  0  0  0  0  0  0
  182.5560  174.2570  137.8420 O   0  0  0  0  0  1  0  0  0  0  0  0
  180.2130  174.0680  137.2640 C   0  0  0  0  0  2  0  0  0  0  0  0
  180.8670  174.7550  136.0590 C   0  0  2  0  0  3  0  0  0  0  0  0
  181.6420  173.7570  136.9100 C   0  0  1  0  0  0  0  0  0  0  0  0
  181.8710  172.3650  136.3530 C   0  0  0  0  0  2  0  0  0  0  0  0
  182.9550  172.3850  135.4600 O   0  0  0  0  0  0  0  0  0  0  0  0
  184.5980  170.8020  135.1570 F   0  0  0  0  0  0  0  0  0  0  0  0
  183.5970  171.0020  137.1870 F   0  0  0  0  0  0  0  0  0  0  0  0
  184.9850  172.6010  136.4420 F   0  0  0  0  0  0  0  0  0  0  0  0
  184.0240  171.6880  136.0580 C   0  0  0  0  0  0  0  0  0  0  0  0
  187.3970  177.3770  147.3480 C   0  0  0  0  0  3  0  0  0  0  0  0
  189.5840  177.7120  146.3670 C   0  0  0  0  0  0  0  0  0  0  0  0
  190.1810  178.2030  147.6060 C   0  0  0  0  0  3  0  0  0  0  0  0
  189.3970  178.2680  148.6940 C   0  0  0  0  0  3  0  0  0  0  0  0
  187.8850  176.9090  144.9790 N   0  0  0  0  0  0  0  0  0  0  0  0
  187.9280  177.8500  148.6910 C   0  0  0  0  0  2  0  0  0  0  0  0
  190.0920  177.5410  145.1590 C   0  0  0  0  0  0  0  0  0  0  0  0
  188.9920  177.0330  144.3040 C   0  0  0  0  0  0  0  0  0  0  0  0
  188.2100  177.3250  146.2970 C   0  0  0  0  0  0  0  0  0  0  0  0
  191.4920  177.8600  144.7500 C   0  0  0  0  0  2  0  0  0  0  0  0
  191.4830  178.5110  143.5150 O   0  0  0  0  0  1  0  0  0  0  0  0
  188.4410  176.8600  140.4590 C   0  0  0  0  0  2  0  0  0  0  0  0
  189.7370  177.2450  139.7670 C   0  0  0  0  0  2  0  0  0  0  0  0
  189.4200  177.8420  138.4090 C   0  0  0  0  0  2  0  0  0  0  0  0
  190.2710  177.1680  137.3440 C   0  0  0  0  0  2  0  0  0  0  0  0
  190.5590  174.7450  136.9040 C   0  0  1  0  0  3  0  0  0  0  0  0
  191.9120  174.4260  134.9580 O   0  0  0  0  0  1  0  0  0  0  0  0
  192.3490  175.9380  137.8620 C   0  0  0  0  0  0  0  0  0  0  0  0
  189.9080  173.7140  137.5810 O   0  0  0  0  0  1  0  0  0  0  0  0
  190.8730  175.8800  137.8790 C   0  0  1  0  0  3  0  0  0  0  0  0
  193.0280  176.6910  138.6120 O   0  0  0  0  0  0  0  0  0  0  0  0
  192.9360  175.0180  136.9650 N   0  0  0  0  0  0  0  0  0  0  0  0
  191.8890  174.2280  136.3400 C   0  0  1  0  0  3  0  0  0  0  0  0
  194.3030  174.5400  137.1180 C   0  0  0  0  0  2  0  0  0  0  0  0
  195.2700  175.4350  136.3680 C   0  0  0  0  0  2  0  0  0  0  0  0
  196.1980  174.6160  135.6130 N   0  0  0  0  0  2  0  0  0  0  0  0
  195.5760  173.3110  135.4640 C   0  0  0  0  0  2  0  0  0  0  0  0
  197.9080  172.7710  134.8900 C   0  0  0  0  0  1  0  0  0  0  0  0
  196.6390  172.2240  135.5210 C   0  0  1  0  0  3  0  0  0  0  0  0
  196.9070  171.7710  136.9610 C   0  0  1  0  0  3  0  0  0  0  0  0
  197.2760  172.8650  137.7520 O   0  0  0  0  0  1  0  0  0  0  0  0
  195.6620  171.1320  137.5630 C   0  0  2  0  0  3  0  0  0  0  0  0
  195.9040  169.6450  137.7550 C   0  0  2  0  0  3  0  0  0  0  0  0
  195.0680  170.1310  136.5910 C   0  0  0  0  0  2  0  0  0  0  0  0
  194.3460  167.9160  138.4190 N   0  0  0  0  0  1  0  0  0  0  0  0
  194.9910  169.1410  138.8530 C   0  0  0  0  0  2  0  0  0  0  0  0
  1  3  2  0  0  0  0
  2  3  1  0  0  0  0
  3 40  1  0  0  0  0
  5  2  1  6  0  0  0
  5  8  1  0  0  0  0
  7  4  2  0  0  0  0
  8  6  1  0  0  0  0
  9 11  2  0  0  0  0
  9 13  1  0  0  0  0
 10 12  2  0  0  0  0
 10  7  1  0  0  0  0
 11  5  1  0  0  0  0
 12  9  1  0  0  0  0
 13  4  1  0  0  0  0
 13  8  2  0  0  0  0
 14 10  1  0  0  0  0
 16 15  1  6  0  0  0
 16 14  1  0  0  0  0
 17 22  1  0  0  0  0
 18 17  2  0  0  0  0
 18 20  1  0  0  0  0
 20 19  1  0  0  0  0
 21 18  1  0  0  0  0
 22 19  2  0  0  0  0
 22 16  1  0  0  0  0
 25 20  1  1  0  0  0
 25 26  1  0  0  0  0
 25 24  1  0  0  0  0
 26 24  1  0  0  0  0
 26 23  1  1  0  0  0
 27 26  1  0  0  0  0
 28 32  1  0  0  0  0
 28 27  1  0  0  0  0
 29 32  1  0  0  0  0
 32 31  1  0  0  0  0
 32 30  1  0  0  0  0
 33 38  1  0  0  0  0
 34 35  1  0  0  0  0
 35 36  2  0  0  0  0
 37 41  1  0  0  0  0
 38 36  1  0  0  0  0
 39 34  2  0  0  0  0
 40 37  2  0  0  0  0
 40 39  1  0  0  0  0
 41 34  1  0  0  0  0
 41 33  2  0  0  0  0
 42 39  1  0  0  0  0
 43 42  1  0  0  0  0
 44  2  1  0  0  0  0
 45 44  1  0  0  0  0
 46 45  1  0  0  0  0
 47 46  1  0  0  0  0
 48 51  1  1  0  0  0
 48 52  1  0  0  0  0
 50 52  1  0  0  0  0
 50 53  2  0  0  0  0
 52 47  1  6  0  0  0
 54 56  1  0  0  0  0
 54 50  1  0  0  0  0
 55 49  1  6  0  0  0
 55 48  1  0  0  0  0
 55 54  1  0  0  0  0
 57 56  1  0  0  0  0
 58 57  1  0  0  0  0
 59 61  1  0  0  0  0
 59 58  1  0  0  0  0
 61 60  1  1  0  0  0
 61 62  1  0  0  0  0
 62 63  1  1  0  0  0
 64 62  1  6  0  0  0
 64 65  1  0  0  0  0
 65 68  1  1  0  0  0
 66 64  1  0  0  0  0
 66 65  1  0  0  0  0
 67 68  1  0  0  0  0
M  END
>  <MODEL>
2

>  <REMARK>
 VINA RESULT:      -6.5      4.195     11.359
  Name = 
  23 active torsions:
  status: ('A' for Active; 'I' for Inactive)
    1  A    between atoms: N_3  and  C_9
    2  A    between atoms: N_3  and  C_58
    3  A    between atoms: C_8  and  C_10
    4  A    between atoms: C_8  and  C_57
    5  A    between atoms: C_9  and  C_57
    6  A    between atoms: C_11  and  C_54
    7  A    between atoms: C_13  and  N_38
    8  A    between atoms: C_14  and  C_30
    9  A    between atoms: C_14  and  C_43
   10  A    between atoms: C_15  and  C_52
   11  A    between atoms: C_15  and  C_56
   12  A    between atoms: C_18  and  C_47
   13  A    between atoms: C_22  and  C_24
   14  A    between atoms: C_22  and  C_30
   15  A    between atoms: C_24  and  N_38
   16  A    between atoms: O_26  and  C_31
   17  A    between atoms: O_26  and  C_62
   18  A    between atoms: C_31  and  C_61
   19  A    between atoms: N_32  and  C_60
   20  A    between atoms: C_35  and  C_58
   21  A    between atoms: C_35  and  N_65
   22  A    between atoms: C_40  and  C_64
   23  A    between atoms: C_53  and  C_56
                            x       y       z     vdW  Elec       q    Type
                         _______ _______ _______ _____ _____    ______ ____

>  <TORSDO>
F 23

$$$$
=
 OpenBabel10232412133D

 68 75  0  0  1  0  0  0  0  0999 V2000
  189.7820  176.1300  142.2950 O   0  0  0  0  0  0  0  0  0  0  0  0
  188.1780  177.7010  141.6640 N   0  0  0  0  0  0  0  0  0  0  0  0
  188.9580  177.0110  142.6640 C   0  0  0  0  0  0  0  0  0  0  0  0
  183.6060  178.0540  141.6340 C   0  0  0  0  0  3  0  0  0  0  0  0
  187.1790  178.7130  142.0220 C   0  0  2  0  0  3  0  0  0  0  0  0
  185.7570  177.2400  143.5910 O   0  0  0  0  0  1  0  0  0  0  0  0
  182.8120  178.5700  140.5970 C   0  0  0  0  0  3  0  0  0  0  0  0
  185.9060  178.0670  142.4830 C   0  0  0  0  0  0  0  0  0  0  0  0
  185.4770  179.2300  140.6900 C   0  0  0  0  0  0  0  0  0  0  0  0
  183.3850  179.4210  139.6300 C   0  0  0  0  0  0  0  0  0  0  0  0
  186.7430  179.4530  140.8310 N   0  0  0  0  0  0  0  0  0  0  0  0
  184.7160  179.7310  139.6860 N   0  0  0  0  0  0  0  0  0  0  0  0
  184.9500  178.4120  141.6500 C   0  0  0  0  0  0  0  0  0  0  0  0
  182.5350  179.9310  138.5150 C   0  0  0  0  0  2  0  0  0  0  0  0
  180.1230  179.9930  137.8990 C   0  0  0  0  0  1  0  0  0  0  0  0
  181.2640  179.1010  138.3580 C   0  0  1  0  0  3  0  0  0  0  0  0
  182.3250  178.0160  136.3670 N   0  0  0  0  0  0  0  0  0  0  0  0
  182.1820  176.8140  135.7810 C   0  0  0  0  0  0  0  0  0  0  0  0
  180.7950  176.7450  137.4220 C   0  0  0  0  0  3  0  0  0  0  0  0
  181.2580  176.0360  136.3770 N   0  0  0  0  0  0  0  0  0  0  0  0
  182.9900  176.3890  134.6840 N   0  0  0  0  0  1  0  0  0  0  0  0
  181.4450  177.9700  137.3890 C   0  0  0  0  0  0  0  0  0  0  0  0
  183.0060  174.2290  137.4020 O   0  0  0  0  0  1  0  0  0  0  0  0
  180.6140  173.8590  137.3620 C   0  0  0  0  0  2  0  0  0  0  0  0
  180.9180  174.6440  136.0800 C   0  0  2  0  0  3  0  0  0  0  0  0
  181.9420  173.6860  136.6750 C   0  0  1  0  0  0  0  0  0  0  0  0
  182.1410  172.3410  136.0040 C   0  0  0  0  0  2  0  0  0  0  0  0
  183.4460  172.2560  135.4930 O   0  0  0  0  0  0  0  0  0  0  0  0
  183.3130  170.6590  137.1450 F   0  0  0  0  0  0  0  0  0  0  0  0
  185.1550  171.9820  137.0130 F   0  0  0  0  0  0  0  0  0  0  0  0
  184.7680  170.4160  135.4530 F   0  0  0  0  0  0  0  0  0  0  0  0
  184.1640  171.3380  136.2850 C   0  0  0  0  0  0  0  0  0  0  0  0
  187.1370  177.8040  147.0910 C   0  0  0  0  0  3  0  0  0  0  0  0
  189.4040  177.6110  146.2650 C   0  0  0  0  0  0  0  0  0  0  0  0
  190.0120  177.8290  147.5760 C   0  0  0  0  0  3  0  0  0  0  0  0
  189.1900  178.0220  148.6200 C   0  0  0  0  0  3  0  0  0  0  0  0
  187.6660  177.4000  144.7190 N   0  0  0  0  0  0  0  0  0  0  0  0
  187.6680  178.0160  148.4990 C   0  0  0  0  0  2  0  0  0  0  0  0
  189.9400  177.4010  145.0770 C   0  0  0  0  0  0  0  0  0  0  0  0
  188.8140  177.2720  144.1200 C   0  0  0  0  0  0  0  0  0  0  0  0
  187.9860  177.6150  146.0850 C   0  0  0  0  0  0  0  0  0  0  0  0
  191.4010  177.3600  144.7760 C   0  0  0  0  0  2  0  0  0  0  0  0
  192.0870  176.7950  145.8530 O   0  0  0  0  0  1  0  0  0  0  0  0
  188.2410  177.2500  140.2740 C   0  0  0  0  0  2  0  0  0  0  0  0
  189.5890  177.5890  139.6610 C   0  0  0  0  0  2  0  0  0  0  0  0
  190.0370  176.4430  138.7740 C   0  0  0  0  0  2  0  0  0  0  0  0
  191.5560  176.4180  138.7030 C   0  0  0  0  0  2  0  0  0  0  0  0
  193.5080  175.7270  137.3400 C   0  0  1  0  0  3  0  0  0  0  0  0
  194.2220  173.5390  137.9900 O   0  0  0  0  0  1  0  0  0  0  0  0
  191.3990  174.8080  136.8360 C   0  0  0  0  0  0  0  0  0  0  0  0
  194.1970  176.5380  136.4390 O   0  0  0  0  0  1  0  0  0  0  0  0
  192.0180  176.0670  137.2990 C   0  0  1  0  0  3  0  0  0  0  0  0
  190.1710  174.6870  136.5770 O   0  0  0  0  0  0  0  0  0  0  0  0
  192.3290  173.7610  136.6510 N   0  0  0  0  0  0  0  0  0  0  0  0
  193.6670  174.2570  136.9290 C   0  0  1  0  0  3  0  0  0  0  0  0
  192.0720  172.6350  135.7640 C   0  0  0  0  0  2  0  0  0  0  0  0
  193.1340  172.5500  134.6860 C   0  0  0  0  0  2  0  0  0  0  0  0
  194.1890  171.6510  135.1190 N   0  0  0  0  0  2  0  0  0  0  0  0
  195.3710  171.9960  134.3470 C   0  0  0  0  0  2  0  0  0  0  0  0
  197.4980  170.7560  134.3660 C   0  0  0  0  0  1  0  0  0  0  0  0
  196.6210  171.7060  135.1640 C   0  0  1  0  0  3  0  0  0  0  0  0
  197.3880  172.9900  135.4980 C   0  0  1  0  0  3  0  0  0  0  0  0
  196.6280  174.1130  135.1530 O   0  0  0  0  0  1  0  0  0  0  0  0
  197.7050  173.0540  136.9880 C   0  0  2  0  0  3  0  0  0  0  0  0
  197.8810  174.5030  137.4030 C   0  0  2  0  0  3  0  0  0  0  0  0
  199.0950  173.6220  137.2020 C   0  0  0  0  0  2  0  0  0  0  0  0
  198.3300  175.7460  139.4310 N   0  0  0  0  0  1  0  0  0  0  0  0
  197.5880  174.6250  138.8830 C   0  0  0  0  0  2  0  0  0  0  0  0
  1  3  2  0  0  0  0
  2  3  1  0  0  0  0
  3 40  1  0  0  0  0
  4 13  1  0  0  0  0
  5  2  1  6  0  0  0
  5  8  1  0  0  0  0
  7  4  2  0  0  0  0
  8  6  1  0  0  0  0
  9 11  2  0  0  0  0
  9 13  1  0  0  0  0
 10 12  2  0  0  0  0
 10  7  1  0  0  0  0
 11  5  1  0  0  0  0
 12  9  1  0  0  0  0
 13  8  2  0  0  0  0
 14 10  1  0  0  0  0
 16 15  1  6  0  0  0
 16 14  1  0  0  0  0
 17 22  1  0  0  0  0
 18 17  2  0  0  0  0
 18 20  1  0  0  0  0
 20 19  1  0  0  0  0
 21 18  1  0  0  0  0
 22 19  2  0  0  0  0
 22 16  1  0  0  0  0
 25 20  1  1  0  0  0
 25 26  1  0  0  0  0
 25 24  1  0  0  0  0
 26 24  1  0  0  0  0
 26 23  1  1  0  0  0
 27 26  1  0  0  0  0
 28 27  1  0  0  0  0
 28 32  1  0  0  0  0
 31 32  1  0  0  0  0
 32 30  1  0  0  0  0
 32 29  1  0  0  0  0
 33 38  1  0  0  0  0
 34 35  1  0  0  0  0
 35 36  2  0  0  0  0
 37 41  1  0  0  0  0
 38 36  1  0  0  0  0
 39 34  2  0  0  0  0
 40 37  2  0  0  0  0
 40 39  1  0  0  0  0
 41 34  1  0  0  0  0
 41 33  2  0  0  0  0
 42 39  1  0  0  0  0
 42 43  1  0  0  0  0
 44  2  1  0  0  0  0
 45 44  1  0  0  0  0
 46 45  1  0  0  0  0
 47 46  1  0  0  0  0
 48 51  1  6  0  0  0
 50 52  1  0  0  0  0
 52 48  1  0  0  0  0
 52 47  1  1  0  0  0
 53 50  2  0  0  0  0
 54 50  1  0  0  0  0
 54 55  1  0  0  0  0
 55 48  1  0  0  0  0
 55 49  1  1  0  0  0
 56 54  1  0  0  0  0
 57 58  1  0  0  0  0
 57 56  1  0  0  0  0
 59 58  1  0  0  0  0
 59 61  1  0  0  0  0
 61 60  1  6  0  0  0
 61 62  1  0  0  0  0
 62 63  1  1  0  0  0
 64 62  1  6  0  0  0
 64 66  1  0  0  0  0
 64 65  1  0  0  0  0
 65 68  1  1  0  0  0
 66 65  1  0  0  0  0
 68 67  1  0  0  0  0
M  END
>  <MODEL>
3

>  <REMARK>
 VINA RESULT:      -6.2      3.983     11.453
  Name = 
  23 active torsions:
  status: ('A' for Active; 'I' for Inactive)
    1  A    between atoms: N_3  and  C_9
    2  A    between atoms: N_3  and  C_58
    3  A    between atoms: C_8  and  C_10
    4  A    between atoms: C_8  and  C_57
    5  A    between atoms: C_9  and  C_57
    6  A    between atoms: C_11  and  C_54
    7  A    between atoms: C_13  and  N_38
    8  A    between atoms: C_14  and  C_30
    9  A    between atoms: C_14  and  C_43
   10  A    between atoms: C_15  and  C_52
   11  A    between atoms: C_15  and  C_56
   12  A    between atoms: C_18  and  C_47
   13  A    between atoms: C_22  and  C_24
   14  A    between atoms: C_22  and  C_30
   15  A    between atoms: C_24  and  N_38
   16  A    between atoms: O_26  and  C_31
   17  A    between atoms: O_26  and  C_62
   18  A    between atoms: C_31  and  C_61
   19  A    between atoms: N_32  and  C_60
   20  A    between atoms: C_35  and  C_58
   21  A    between atoms: C_35  and  N_65
   22  A    between atoms: C_40  and  C_64
   23  A    between atoms: C_53  and  C_56
                            x       y       z     vdW  Elec       q    Type
                         _______ _______ _______ _____ _____    ______ ____

>  <TORSDO>
F 23

$$$$
=
 OpenBabel10232412133D

 68 75  0  0  1  0  0  0  0  0999 V2000
  186.8700  171.1880  136.3160 O   0  0  0  0  0  0  0  0  0  0  0  0
  186.4190  173.2290  135.2820 N   0  0  0  0  0  0  0  0  0  0  0  0
  185.9940  171.9940  135.8990 C   0  0  0  0  0  0  0  0  0  0  0  0
  185.1670  177.5510  136.1670 C   0  0  0  0  0  3  0  0  0  0  0  0
  185.4570  174.1980  134.7450 C   0  0  2  0  0  3  0  0  0  0  0  0
  187.1160  176.1320  134.3480 O   0  0  0  0  0  1  0  0  0  0  0  0
  184.1290  177.9650  137.0170 C   0  0  0  0  0  3  0  0  0  0  0  0
  185.9620  175.6000  134.9130 C   0  0  0  0  0  0  0  0  0  0  0  0
  184.1160  175.3920  136.0530 C   0  0  0  0  0  0  0  0  0  0  0  0
  183.0970  177.0670  137.3550 C   0  0  0  0  0  0  0  0  0  0  0  0
  184.2290  174.2060  135.5510 N   0  0  0  0  0  0  0  0  0  0  0  0
  183.1110  175.7860  136.8740 N   0  0  0  0  0  0  0  0  0  0  0  0
  185.1250  176.2420  135.6970 C   0  0  0  0  0  0  0  0  0  0  0  0
  182.0210  177.5120  138.2880 C   0  0  0  0  0  2  0  0  0  0  0  0
  181.2740  179.8870  138.3280 C   0  0  0  0  0  1  0  0  0  0  0  0
  182.3090  178.9030  138.8470 C   0  0  1  0  0  3  0  0  0  0  0  0
  181.2020  179.1330  141.0810 N   0  0  0  0  0  0  0  0  0  0  0  0
  181.6450  179.0370  142.3480 C   0  0  0  0  0  0  0  0  0  0  0  0
  183.4070  178.6810  141.1680 C   0  0  0  0  0  3  0  0  0  0  0  0
  182.9660  178.7880  142.4340 N   0  0  0  0  0  0  0  0  0  0  0  0
  180.7770  179.1200  143.4760 N   0  0  0  0  0  1  0  0  0  0  0  0
  182.3150  178.9180  140.3460 C   0  0  0  0  0  0  0  0  0  0  0  0
  185.6390  179.1170  142.0880 O   0  0  0  0  0  1  0  0  0  0  0  0
  184.4890  179.7810  144.1130 C   0  0  0  0  0  2  0  0  0  0  0  0
  183.7600  178.5190  143.6350 C   0  0  2  0  0  3  0  0  0  0  0  0
  185.2470  178.7140  143.3690 C   0  0  1  0  0  0  0  0  0  0  0  0
  186.2350  177.9310  144.2110 C   0  0  0  0  0  2  0  0  0  0  0  0
  186.6810  178.7250  145.2790 O   0  0  0  0  0  0  0  0  0  0  0  0
  185.1160  177.6100  146.5450 F   0  0  0  0  0  0  0  0  0  0  0  0
  186.7500  178.8020  147.5800 F   0  0  0  0  0  0  0  0  0  0  0  0
  187.2450  176.8990  146.4960 F   0  0  0  0  0  0  0  0  0  0  0  0
  186.4400  178.0210  146.4750 C   0  0  0  0  0  0  0  0  0  0  0  0
  181.3320  171.8380  137.2300 C   0  0  0  0  0  3  0  0  0  0  0  0
  182.6380  170.5050  135.6890 C   0  0  0  0  0  0  0  0  0  0  0  0
  181.5180  169.6410  135.3220 C   0  0  0  0  0  3  0  0  0  0  0  0
  180.3290  169.8840  135.8950 C   0  0  0  0  0  3  0  0  0  0  0  0
  183.7290  172.2310  136.8250 N   0  0  0  0  0  0  0  0  0  0  0  0
  180.0990  171.0130  136.8970 C   0  0  0  0  0  2  0  0  0  0  0  0
  183.9010  170.5110  135.3030 C   0  0  0  0  0  0  0  0  0  0  0  0
  184.5650  171.6140  136.0400 C   0  0  0  0  0  0  0  0  0  0  0  0
  182.4900  171.5650  136.6360 C   0  0  0  0  0  0  0  0  0  0  0  0
  184.5250  169.5470  134.3500 C   0  0  0  0  0  2  0  0  0  0  0  0
  184.4520  168.2540  134.8750 O   0  0  0  0  0  1  0  0  0  0  0  0
  187.8400  173.4380  135.0080 C   0  0  0  0  0  2  0  0  0  0  0  0
  188.6250  173.5470  136.3050 C   0  0  0  0  0  2  0  0  0  0  0  0
  188.8060  175.0110  136.6570 C   0  0  0  0  0  2  0  0  0  0  0  0
  190.2170  175.4500  136.2980 C   0  0  0  0  0  2  0  0  0  0  0  0
  189.1730  177.6140  136.9140 C   0  0  1  0  0  3  0  0  0  0  0  0
  187.7250  177.3130  138.7920 O   0  0  0  0  0  1  0  0  0  0  0  0
  190.9400  176.7970  138.2390 C   0  0  0  0  0  0  0  0  0  0  0  0
  189.2780  178.8000  136.1890 O   0  0  0  0  0  1  0  0  0  0  0  0
  190.4930  176.8450  136.8310 C   0  0  1  0  0  3  0  0  0  0  0  0
  192.0500  176.3230  138.6040 O   0  0  0  0  0  0  0  0  0  0  0  0
  190.0270  177.3910  139.1380 N   0  0  0  0  0  0  0  0  0  0  0  0
  188.9070  177.9370  138.3900 C   0  0  1  0  0  3  0  0  0  0  0  0
  190.4330  177.9040  140.4390 C   0  0  0  0  0  2  0  0  0  0  0  0
  189.2280  178.0880  141.3410 C   0  0  0  0  0  2  0  0  0  0  0  0
  189.5040  177.5020  142.6400 N   0  0  0  0  0  2  0  0  0  0  0  0
  190.7300  176.7350  142.4980 C   0  0  0  0  0  2  0  0  0  0  0  0
  191.4550  178.4320  144.1280 C   0  0  0  0  0  1  0  0  0  0  0  0
  191.6350  176.9870  143.6950 C   0  0  1  0  0  3  0  0  0  0  0  0
  191.3170  176.0360  144.8540 C   0  0  1  0  0  3  0  0  0  0  0  0
  192.1730  174.9290  144.8210 O   0  0  0  0  0  1  0  0  0  0  0  0
  191.4880  176.7450  146.1920 C   0  0  2  0  0  3  0  0  0  0  0  0
  192.0300  175.7640  147.2150 C   0  0  2  0  0  3  0  0  0  0  0  0
  190.5630  176.1340  147.2270 C   0  0  0  0  0  2  0  0  0  0  0  0
  193.2290  175.6180  149.3130 N   0  0  0  0  0  1  0  0  0  0  0  0
  192.7530  176.5390  148.2970 C   0  0  0  0  0  2  0  0  0  0  0  0
  2  3  1  0  0  0  0
  3 40  1  0  0  0  0
  3  1  2  0  0  0  0
  4  7  2  0  0  0  0
  5  8  1  0  0  0  0
  5  2  1  1  0  0  0
  5 11  1  0  0  0  0
  6  8  1  0  0  0  0
  7 10  1  0  0  0  0
  8 13  2  0  0  0  0
  9 12  1  0  0  0  0
 10 14  1  0  0  0  0
 11  9  2  0  0  0  0
 12 10  2  0  0  0  0
 13  9  1  0  0  0  0
 13  4  1  0  0  0  0
 14 16  1  0  0  0  0
 16 15  1  1  0  0  0
 16 22  1  0  0  0  0
 17 18  2  0  0  0  0
 18 20  1  0  0  0  0
 18 21  1  0  0  0  0
 19 20  1  0  0  0  0
 22 17  1  0  0  0  0
 22 19  2  0  0  0  0
 25 20  1  6  0  0  0
 25 24  1  0  0  0  0
 26 23  1  6  0  0  0
 26 25  1  0  0  0  0
 26 24  1  0  0  0  0
 26 27  1  0  0  0  0
 27 28  1  0  0  0  0
 28 32  1  0  0  0  0
 32 31  1  0  0  0  0
 32 29  1  0  0  0  0
 32 30  1  0  0  0  0
 34 41  1  0  0  0  0
 35 34  1  0  0  0  0
 35 36  2  0  0  0  0
 36 38  1  0  0  0  0
 38 33  1  0  0  0  0
 39 34  2  0  0  0  0
 39 40  1  0  0  0  0
 40 37  2  0  0  0  0
 41 37  1  0  0  0  0
 41 33  2  0  0  0  0
 42 43  1  0  0  0  0
 42 39  1  0  0  0  0
 44  2  1  0  0  0  0
 44 45  1  0  0  0  0
 45 46  1  0  0  0  0
 47 46  1  0  0  0  0
 48 51  1  6  0  0  0
 48 55  1  0  0  0  0
 50 53  2  0  0  0  0
 50 54  1  0  0  0  0
 52 47  1  1  0  0  0
 52 48  1  0  0  0  0
 52 50  1  0  0  0  0
 54 56  1  0  0  0  0
 55 49  1  1  0  0  0
 55 54  1  0  0  0  0
 56 57  1  0  0  0  0
 57 58  1  0  0  0  0
 59 58  1  0  0  0  0
 59 61  1  0  0  0  0
 61 60  1  1  0  0  0
 61 62  1  0  0  0  0
 62 63  1  1  0  0  0
 64 62  1  6  0  0  0
 64 65  1  0  0  0  0
 64 66  1  0  0  0  0
 65 66  1  0  0  0  0
 65 68  1  1  0  0  0
 68 67  1  0  0  0  0
M  END
>  <MODEL>
4

>  <REMARK>
 VINA RESULT:      -5.6      4.551      9.400
  Name = 
  23 active torsions:
  status: ('A' for Active; 'I' for Inactive)
    1  A    between atoms: N_3  and  C_9
    2  A    between atoms: N_3  and  C_58
    3  A    between atoms: C_8  and  C_10
    4  A    between atoms: C_8  and  C_57
    5  A    between atoms: C_9  and  C_57
    6  A    between atoms: C_11  and  C_54
    7  A    between atoms: C_13  and  N_38
    8  A    between atoms: C_14  and  C_30
    9  A    between atoms: C_14  and  C_43
   10  A    between atoms: C_15  and  C_52
   11  A    between atoms: C_15  and  C_56
   12  A    between atoms: C_18  and  C_47
   13  A    between atoms: C_22  and  C_24
   14  A    between atoms: C_22  and  C_30
   15  A    between atoms: C_24  and  N_38
   16  A    between atoms: O_26  and  C_31
   17  A    between atoms: O_26  and  C_62
   18  A    between atoms: C_31  and  C_61
   19  A    between atoms: N_32  and  C_60
   20  A    between atoms: C_35  and  C_58
   21  A    between atoms: C_35  and  N_65
   22  A    between atoms: C_40  and  C_64
   23  A    between atoms: C_53  and  C_56
                            x       y       z     vdW  Elec       q    Type
                         _______ _______ _______ _____ _____    ______ ____

>  <TORSDO>
F 23

$$$$
=
 OpenBabel10232412133D

 68 75  0  0  1  0  0  0  0  0999 V2000
  190.7460  176.4120  139.8920 O   0  0  0  0  0  0  0  0  0  0  0  0
  189.4290  177.2470  138.1570 N   0  0  0  0  0  0  0  0  0  0  0  0
  190.4400  176.3520  138.6700 C   0  0  0  0  0  0  0  0  0  0  0  0
  185.5340  177.3430  135.7380 C   0  0  0  0  0  3  0  0  0  0  0  0
  189.0470  177.2550  136.7410 C   0  0  2  0  0  3  0  0  0  0  0  0
  187.5290  179.3390  136.8150 O   0  0  0  0  0  1  0  0  0  0  0  0
  184.8180  176.2350  135.2590 C   0  0  0  0  0  3  0  0  0  0  0  0
  187.7570  177.9950  136.5410 C   0  0  0  0  0  0  0  0  0  0  0  0
  187.4650  175.9240  135.9280 C   0  0  0  0  0  0  0  0  0  0  0  0
  185.4620  174.9890  135.1190 C   0  0  0  0  0  0  0  0  0  0  0  0
  188.7050  175.8990  136.2910 N   0  0  0  0  0  0  0  0  0  0  0  0
  186.7770  174.8490  135.4670 N   0  0  0  0  0  0  0  0  0  0  0  0
  186.8720  177.1480  136.0640 C   0  0  0  0  0  0  0  0  0  0  0  0
  184.6760  173.8130  134.6430 C   0  0  0  0  0  2  0  0  0  0  0  0
  185.5130  172.9900  136.8400 C   0  0  0  0  0  1  0  0  0  0  0  0
  184.4600  172.7970  135.7610 C   0  0  1  0  0  3  0  0  0  0  0  0
  182.2400  171.8620  136.4440 N   0  0  0  0  0  0  0  0  0  0  0  0
  181.1650  172.3850  137.0620 C   0  0  0  0  0  0  0  0  0  0  0  0
  182.5340  174.0380  136.9440 C   0  0  0  0  0  3  0  0  0  0  0  0
  181.3020  173.6920  137.3560 N   0  0  0  0  0  0  0  0  0  0  0  0
  180.0300  171.6020  137.4290 N   0  0  0  0  0  1  0  0  0  0  0  0
  183.0910  172.9070  136.3640 C   0  0  0  0  0  0  0  0  0  0  0  0
  182.4810  175.8930  138.4220 O   0  0  0  0  0  1  0  0  0  0  0  0
  180.2580  175.9330  137.4640 C   0  0  0  0  0  2  0  0  0  0  0  0
  180.3880  174.5500  138.1130 C   0  0  2  0  0  3  0  0  0  0  0  0
  181.1150  175.7580  138.6890 C   0  0  1  0  0  0  0  0  0  0  0  0
  180.5610  176.3940  139.9490 C   0  0  0  0  0  2  0  0  0  0  0  0
  180.6130  177.7930  139.8350 O   0  0  0  0  0  0  0  0  0  0  0  0
  181.5270  179.6630  140.8180 F   0  0  0  0  0  0  0  0  0  0  0  0
  182.5640  177.6540  141.0500 F   0  0  0  0  0  0  0  0  0  0  0  0
  180.6130  178.0520  142.0860 F   0  0  0  0  0  0  0  0  0  0  0  0
  181.3370  178.2930  140.9350 C   0  0  0  0  0  0  0  0  0  0  0  0
  191.6230  172.4460  136.0450 C   0  0  0  0  0  3  0  0  0  0  0  0
  192.7920  174.5110  136.5230 C   0  0  0  0  0  0  0  0  0  0  0  0
  193.9740  174.1450  135.7460 C   0  0  0  0  0  3  0  0  0  0  0  0
  193.9680  172.9540  135.1270 C   0  0  0  0  0  3  0  0  0  0  0  0
  190.6720  174.2230  137.4620 N   0  0  0  0  0  0  0  0  0  0  0  0
  192.7930  171.9820  135.1930 C   0  0  0  0  0  3  0  0  0  0  0  0
  192.5100  175.5900  137.2300 C   0  0  1  0  0  3  0  0  0  0  0  0
  191.1620  175.3770  137.8120 C   0  0  0  0  0  0  0  0  0  0  0  0
  191.6680  173.6350  136.6390 C   0  0  0  0  0  0  0  0  0  0  0  0
  193.4150  176.7600  137.4320 C   0  0  0  0  0  2  0  0  0  0  0  0
  193.8380  176.8010  138.7630 O   0  0  0  0  0  1  0  0  0  0  0  0
  188.9070  178.3040  139.0230 C   0  0  0  0  0  2  0  0  0  0  0  0
  187.6940  177.8130  139.7960 C   0  0  0  0  0  2  0  0  0  0  0  0
  187.5240  178.6560  141.0460 C   0  0  0  0  0  2  0  0  0  0  0  0
  186.0910  178.5480  141.5410 C   0  0  0  0  0  2  0  0  0  0  0  0
  187.4340  177.2970  143.2080 C   0  0  1  0  0  3  0  0  0  0  0  0
  188.6720  178.8240  144.5690 O   0  0  0  0  0  1  0  0  0  0  0  0
  185.4640  178.3700  143.9240 C   0  0  0  0  0  0  0  0  0  0  0  0
  187.5820  175.9110  143.2550 O   0  0  0  0  0  1  0  0  0  0  0  0
  186.0140  177.6450  142.7600 C   0  0  1  0  0  3  0  0  0  0  0  0
  184.2670  178.7580  144.0040 O   0  0  0  0  0  0  0  0  0  0  0  0
  186.3960  178.5350  144.9730 N   0  0  0  0  0  0  0  0  0  0  0  0
  187.6430  177.8820  144.6110 C   0  0  1  0  0  3  0  0  0  0  0  0
  185.9880  178.7500  146.3540 C   0  0  0  0  0  2  0  0  0  0  0  0
  187.1010  178.3610  147.3070 C   0  0  0  0  0  2  0  0  0  0  0  0
  187.0650  176.9280  147.5310 N   0  0  0  0  0  2  0  0  0  0  0  0
  188.3630  176.5570  148.0700 C   0  0  0  0  0  2  0  0  0  0  0  0
  189.6500  178.4020  149.0690 C   0  0  0  0  0  1  0  0  0  0  0  0
  189.3740  177.6550  147.7760 C   0  0  1  0  0  3  0  0  0  0  0  0
  190.6750  177.0840  147.1980 C   0  0  1  0  0  3  0  0  0  0  0  0
  190.9260  175.8150  147.7310 O   0  0  0  0  0  1  0  0  0  0  0  0
  190.5830  176.9680  145.6820 C   0  0  2  0  0  3  0  0  0  0  0  0
  191.8700  176.3690  145.1440 C   0  0  2  0  0  3  0  0  0  0  0  0
  191.6220  177.8570  145.0270 C   0  0  0  0  0  2  0  0  0  0  0  0
  191.8080  176.6540  142.7410 N   0  0  0  0  0  1  0  0  0  0  0  0
  191.5800  175.7050  143.8150 C   0  0  0  0  0  2  0  0  0  0  0  0
  2  3  1  0  0  0  0
  2 44  1  0  0  0  0
  3  1  2  0  0  0  0
  4 13  1  0  0  0  0
  5  2  1  1  0  0  0
  7  4  2  0  0  0  0
  8  5  1  0  0  0  0
  8  6  1  0  0  0  0
  9 13  1  0  0  0  0
  9 11  2  0  0  0  0
 10  7  1  0  0  0  0
 10 12  2  0  0  0  0
 11  5  1  0  0  0  0
 12  9  1  0  0  0  0
 13  8  2  0  0  0  0
 14 10  1  0  0  0  0
 14 16  1  0  0  0  0
 16 22  1  0  0  0  0
 16 15  1  1  0  0  0
 17 18  2  0  0  0  0
 18 20  1  0  0  0  0
 18 21  1  0  0  0  0
 19 20  1  0  0  0  0
 22 17  1  0  0  0  0
 22 19  2  0  0  0  0
 24 25  1  0  0  0  0
 24 26  1  0  0  0  0
 25 20  1  6  0  0  0
 25 26  1  0  0  0  0
 26 23  1  6  0  0  0
 26 27  1  0  0  0  0
 28 27  1  0  0  0  0
 28 32  1  0  0  0  0
 29 32  1  0  0  0  0
 32 30  1  0  0  0  0
 32 31  1  0  0  0  0
 33 41  1  0  0  0  0
 34 41  2  0  0  0  0
 34 39  1  0  0  0  0
 35 34  1  0  0  0  0
 36 38  1  0  0  0  0
 36 35  2  0  0  0  0
 37 40  2  0  0  0  0
 38 33  2  0  0  0  0
 39 42  1  1  0  0  0
 39 40  1  0  0  0  0
 40  3  1  0  0  0  0
 41 37  1  0  0  0  0
 42 43  1  0  0  0  0
 44 45  1  0  0  0  0
 45 46  1  0  0  0  0
 46 47  1  0  0  0  0
 48 51  1  1  0  0  0
 48 55  1  0  0  0  0
 50 53  2  0  0  0  0
 50 54  1  0  0  0  0
 52 47  1  6  0  0  0
 52 48  1  0  0  0  0
 52 50  1  0  0  0  0
 54 56  1  0  0  0  0
 55 49  1  6  0  0  0
 55 54  1  0  0  0  0
 56 57  1  0  0  0  0
 57 58  1  0  0  0  0
 58 59  1  0  0  0  0
 61 59  1  0  0  0  0
 61 60  1  1  0  0  0
 62 63  1  1  0  0  0
 62 61  1  0  0  0  0
 64 62  1  1  0  0  0
 65 68  1  6  0  0  0
 65 64  1  0  0  0  0
 66 65  1  0  0  0  0
 66 64  1  0  0  0  0
 67 68  1  0  0  0  0
M  END
>  <MODEL>
5

>  <REMARK>
 VINA RESULT:      -5.5      4.486      9.814
  Name = 
  23 active torsions:
  status: ('A' for Active; 'I' for Inactive)
    1  A    between atoms: N_3  and  C_9
    2  A    between atoms: N_3  and  C_58
    3  A    between atoms: C_8  and  C_10
    4  A    between atoms: C_8  and  C_57
    5  A    between atoms: C_9  and  C_57
    6  A    between atoms: C_11  and  C_54
    7  A    between atoms: C_13  and  N_38
    8  A    between atoms: C_14  and  C_30
    9  A    between atoms: C_14  and  C_43
   10  A    between atoms: C_15  and  C_52
   11  A    between atoms: C_15  and  C_56
   12  A    between atoms: C_18  and  C_47
   13  A    between atoms: C_22  and  C_24
   14  A    between atoms: C_22  and  C_30
   15  A    between atoms: C_24  and  N_38
   16  A    between atoms: O_26  and  C_31
   17  A    between atoms: O_26  and  C_62
   18  A    between atoms: C_31  and  C_61
   19  A    between atoms: N_32  and  C_60
   20  A    between atoms: C_35  and  C_58
   21  A    between atoms: C_35  and  N_65
   22  A    between atoms: C_40  and  C_64
   23  A    between atoms: C_53  and  C_56
                            x       y       z     vdW  Elec       q    Type
                         _______ _______ _______ _____ _____    ______ ____

>  <TORSDO>
F 23

$$$$
=
 OpenBabel10232412133D

 68 75  0  0  1  0  0  0  0  0999 V2000
  189.7920  175.7160  142.5650 O   0  0  0  0  0  0  0  0  0  0  0  0
  188.3270  177.4150  141.9260 N   0  0  0  0  0  0  0  0  0  0  0  0
  189.0830  176.6950  142.9250 C   0  0  0  0  0  0  0  0  0  0  0  0
  183.8200  178.2140  142.1860 C   0  0  0  0  0  3  0  0  0  0  0  0
  187.4580  178.5430  142.2770 C   0  0  2  0  0  3  0  0  0  0  0  0
  186.0280  177.3260  144.0450 O   0  0  0  0  0  1  0  0  0  0  0  0
  183.0010  178.7350  141.1710 C   0  0  0  0  0  3  0  0  0  0  0  0
  186.1690  178.0580  142.8710 C   0  0  0  0  0  0  0  0  0  0  0  0
  185.7160  179.1340  141.0300 C   0  0  0  0  0  0  0  0  0  0  0  0
  183.5760  179.4580  140.1060 C   0  0  0  0  0  0  0  0  0  0  0  0
  187.0040  179.2400  141.0660 N   0  0  0  0  0  0  0  0  0  0  0  0
  184.9310  179.6380  140.0460 N   0  0  0  0  0  0  0  0  0  0  0  0
  185.1880  178.4390  142.0820 C   0  0  0  0  0  0  0  0  0  0  0  0
  182.6950  179.9720  139.0170 C   0  0  0  0  0  2  0  0  0  0  0  0
  180.3510  179.7350  138.2120 C   0  0  0  0  0  1  0  0  0  0  0  0
  181.5830  178.9820  138.6840 C   0  0  1  0  0  3  0  0  0  0  0  0
  181.9140  178.2430  136.3160 N   0  0  0  0  0  0  0  0  0  0  0  0
  182.4110  177.1250  135.7550 C   0  0  0  0  0  0  0  0  0  0  0  0
  182.5660  176.7440  137.8650 C   0  0  0  0  0  3  0  0  0  0  0  0
  182.7910  176.1990  136.6560 N   0  0  0  0  0  0  0  0  0  0  0  0
  182.5820  176.9800  134.3460 N   0  0  0  0  0  1  0  0  0  0  0  0
  182.0040  177.9920  137.6390 C   0  0  0  0  0  0  0  0  0  0  0  0
  184.2850  175.3240  138.7470 O   0  0  0  0  0  1  0  0  0  0  0  0
  182.9610  173.8360  137.3710 C   0  0  0  0  0  2  0  0  0  0  0  0
  183.4660  174.9230  136.4130 C   0  0  2  0  0  3  0  0  0  0  0  0
  184.2900  174.4960  137.6200 C   0  0  1  0  0  0  0  0  0  0  0  0
  185.4960  173.6060  137.3860 C   0  0  0  0  0  2  0  0  0  0  0  0
  185.6060  173.3070  136.0190 O   0  0  0  0  0  0  0  0  0  0  0  0
  186.9910  171.7510  136.9980 F   0  0  0  0  0  0  0  0  0  0  0  0
  186.9430  171.9410  134.7340 F   0  0  0  0  0  0  0  0  0  0  0  0
  185.1860  171.0880  135.8410 F   0  0  0  0  0  0  0  0  0  0  0  0
  186.1920  172.0320  135.8980 C   0  0  0  0  0  0  0  0  0  0  0  0
  187.6370  177.3710  147.5060 C   0  0  0  0  0  3  0  0  0  0  0  0
  189.7580  177.7160  146.3930 C   0  0  0  0  0  0  0  0  0  0  0  0
  190.4290  178.2060  147.5950 C   0  0  0  0  0  3  0  0  0  0  0  0
  189.7130  178.2660  148.7290 C   0  0  0  0  0  3  0  0  0  0  0  0
  187.9790  176.9100  145.1110 N   0  0  0  0  0  0  0  0  0  0  0  0
  188.2480  177.8430  148.8160 C   0  0  0  0  0  2  0  0  0  0  0  0
  190.1910  177.5490  145.1560 C   0  0  0  0  0  0  0  0  0  0  0  0
  189.0420  177.0390  144.3690 C   0  0  0  0  0  0  0  0  0  0  0  0
  188.3830  177.3250  146.4070 C   0  0  0  0  0  0  0  0  0  0  0  0
  191.5620  177.8730  144.6630 C   0  0  0  0  0  2  0  0  0  0  0  0
  191.5510  179.1190  144.0310 O   0  0  0  0  0  1  0  0  0  0  0  0
  188.2730  176.8940  140.5610 C   0  0  0  0  0  2  0  0  0  0  0  0
  189.6470  176.9390  139.9150 C   0  0  0  0  0  2  0  0  0  0  0  0
  189.6620  178.0190  138.8490 C   0  0  0  0  0  2  0  0  0  0  0  0
  190.2780  177.4670  137.5730 C   0  0  0  0  0  2  0  0  0  0  0  0
  190.1660  175.0920  136.8670 C   0  0  1  0  0  3  0  0  0  0  0  0
  190.9180  174.8790  134.6070 O   0  0  0  0  0  1  0  0  0  0  0  0
  192.2670  176.0120  137.4020 C   0  0  0  0  0  0  0  0  0  0  0  0
  189.6030  174.0520  137.6050 O   0  0  0  0  0  1  0  0  0  0  0  0
  190.8490  176.0800  137.8130 C   0  0  1  0  0  3  0  0  0  0  0  0
  193.1980  176.6160  138.0000 O   0  0  0  0  0  0  0  0  0  0  0  0
  192.4910  175.1520  136.3040 N   0  0  0  0  0  0  0  0  0  0  0  0
  191.2350  174.5290  135.9210 C   0  0  1  0  0  3  0  0  0  0  0  0
  193.7880  174.5440  136.0400 C   0  0  0  0  0  2  0  0  0  0  0  0
  193.6800  173.5160  134.9310 C   0  0  0  0  0  2  0  0  0  0  0  0
  194.0510  172.2110  135.4460 N   0  0  0  0  0  2  0  0  0  0  0  0
  195.1050  172.4330  136.4230 C   0  0  0  0  0  2  0  0  0  0  0  0
  195.7760  170.3420  135.3100 C   0  0  0  0  0  1  0  0  0  0  0  0
  195.9430  171.1730  136.5720 C   0  0  1  0  0  3  0  0  0  0  0  0
  197.4220  171.5020  136.8050 C   0  0  1  0  0  3  0  0  0  0  0  0
  198.2000  170.3450  136.6890 O   0  0  0  0  0  1  0  0  0  0  0  0
  197.9110  172.5240  135.7860 C   0  0  2  0  0  3  0  0  0  0  0  0
  198.9600  173.4120  136.4290 C   0  0  2  0  0  3  0  0  0  0  0  0
  197.5490  173.9250  136.2390 C   0  0  0  0  0  2  0  0  0  0  0  0
  199.6550  175.4130  135.2570 N   0  0  0  0  0  1  0  0  0  0  0  0
  199.8520  173.9780  135.3440 C   0  0  0  0  0  2  0  0  0  0  0  0
  1  3  2  0  0  0  0
  2  3  1  0  0  0  0
  3 40  1  0  0  0  0
  5  2  1  6  0  0  0
  5  8  1  0  0  0  0
  7  4  2  0  0  0  0
  8  6  1  0  0  0  0
  9 11  2  0  0  0  0
  9 13  1  0  0  0  0
 10  7  1  0  0  0  0
 11  5  1  0  0  0  0
 12 10  2  0  0  0  0
 12  9  1  0  0  0  0
 13  4  1  0  0  0  0
 13  8  2  0  0  0  0
 14 10  1  0  0  0  0
 16 15  1  6  0  0  0
 16 14  1  0  0  0  0
 17 22  1  0  0  0  0
 18 17  2  0  0  0  0
 18 20  1  0  0  0  0
 20 19  1  0  0  0  0
 21 18  1  0  0  0  0
 22 19  2  0  0  0  0
 22 16  1  0  0  0  0
 24 26  1  0  0  0  0
 25 20  1  1  0  0  0
 25 24  1  0  0  0  0
 25 26  1  0  0  0  0
 26 23  1  1  0  0  0
 27 26  1  0  0  0  0
 28 27  1  0  0  0  0
 30 32  1  0  0  0  0
 31 32  1  0  0  0  0
 32 28  1  0  0  0  0
 32 29  1  0  0  0  0
 33 38  1  0  0  0  0
 34 41  1  0  0  0  0
 34 35  1  0  0  0  0
 35 36  2  0  0  0  0
 36 38  1  0  0  0  0
 37 41  1  0  0  0  0
 39 34  2  0  0  0  0
 40 37  2  0  0  0  0
 40 39  1  0  0  0  0
 41 33  2  0  0  0  0
 42 39  1  0  0  0  0
 43 42  1  0  0  0  0
 44  2  1  0  0  0  0
 45 44  1  0  0  0  0
 46 45  1  0  0  0  0
 47 46  1  0  0  0  0
 48 51  1  1  0  0  0
 48 52  1  0  0  0  0
 50 52  1  0  0  0  0
 50 53  2  0  0  0  0
 52 47  1  6  0  0  0
 54 50  1  0  0  0  0
 55 49  1  6  0  0  0
 55 54  1  0  0  0  0
 55 48  1  0  0  0  0
 56 54  1  0  0  0  0
 57 58  1  0  0  0  0
 57 56  1  0  0  0  0
 58 59  1  0  0  0  0
 59 61  1  0  0  0  0
 61 60  1  6  0  0  0
 61 62  1  0  0  0  0
 62 63  1  6  0  0  0
 64 66  1  0  0  0  0
 64 65  1  0  0  0  0
 64 62  1  1  0  0  0
 65 68  1  6  0  0  0
 66 65  1  0  0  0  0
 67 68  1  0  0  0  0
M  END
>  <MODEL>
6

>  <REMARK>
 VINA RESULT:      -5.2      3.649     11.194
  Name = 
  23 active torsions:
  status: ('A' for Active; 'I' for Inactive)
    1  A    between atoms: N_3  and  C_9
    2  A    between atoms: N_3  and  C_58
    3  A    between atoms: C_8  and  C_10
    4  A    between atoms: C_8  and  C_57
    5  A    between atoms: C_9  and  C_57
    6  A    between atoms: C_11  and  C_54
    7  A    between atoms: C_13  and  N_38
    8  A    between atoms: C_14  and  C_30
    9  A    between atoms: C_14  and  C_43
   10  A    between atoms: C_15  and  C_52
   11  A    between atoms: C_15  and  C_56
   12  A    between atoms: C_18  and  C_47
   13  A    between atoms: C_22  and  C_24
   14  A    between atoms: C_22  and  C_30
   15  A    between atoms: C_24  and  N_38
   16  A    between atoms: O_26  and  C_31
   17  A    between atoms: O_26  and  C_62
   18  A    between atoms: C_31  and  C_61
   19  A    between atoms: N_32  and  C_60
   20  A    between atoms: C_35  and  C_58
   21  A    between atoms: C_35  and  N_65
   22  A    between atoms: C_40  and  C_64
   23  A    between atoms: C_53  and  C_56
                            x       y       z     vdW  Elec       q    Type
                         _______ _______ _______ _____ _____    ______ ____

>  <TORSDO>
F 23

$$$$
=
 OpenBabel10232412133D

 68 75  0  0  1  0  0  0  0  0999 V2000
  185.6810  179.5630  139.6290 O   0  0  0  0  0  0  0  0  0  0  0  0
  187.2340  178.2920  140.8180 N   0  0  0  0  0  0  0  0  0  0  0  0
  186.4560  178.5680  139.6330 C   0  0  0  0  0  0  0  0  0  0  0  0
  191.7440  177.5700  141.2310 C   0  0  0  0  0  3  0  0  0  0  0  0
  188.1300  177.1350  140.9050 C   0  0  2  0  0  3  0  0  0  0  0  0
  189.3590  177.8240  143.0660 O   0  0  0  0  0  1  0  0  0  0  0  0
  192.6620  177.3870  140.1850 C   0  0  0  0  0  3  0  0  0  0  0  0
  189.3440  177.4600  141.7240 C   0  0  0  0  0  0  0  0  0  0  0  0
  189.9890  176.9760  139.6990 C   0  0  0  0  0  0  0  0  0  0  0  0
  192.2070  176.9900  138.9120 C   0  0  0  0  0  0  0  0  0  0  0  0
  188.7090  176.8300  139.5900 N   0  0  0  0  0  0  0  0  0  0  0  0
  190.8710  176.7990  138.6840 N   0  0  0  0  0  0  0  0  0  0  0  0
  190.4000  177.3500  140.9480 C   0  0  0  0  0  0  0  0  0  0  0  0
  193.1930  176.8360  137.8020 C   0  0  0  0  0  2  0  0  0  0  0  0
  192.1310  175.6240  135.9040 C   0  0  0  0  0  1  0  0  0  0  0  0
  193.0450  175.4840  137.1090 C   0  0  1  0  0  3  0  0  0  0  0  0
  195.5020  175.6580  136.6600 N   0  0  0  0  0  0  0  0  0  0  0  0
  196.4320  174.7800  136.2440 C   0  0  0  0  0  0  0  0  0  0  0  0
  194.6250  173.6180  136.2930 C   0  0  0  0  0  3  0  0  0  0  0  0
  195.9340  173.5530  135.9960 N   0  0  0  0  0  0  0  0  0  0  0  0
  197.8180  175.1090  136.1520 N   0  0  0  0  0  1  0  0  0  0  0  0
  194.3690  174.9250  136.6780 C   0  0  0  0  0  0  0  0  0  0  0  0
  196.5710  171.9780  138.1140 O   0  0  0  0  0  1  0  0  0  0  0  0
  195.8560  171.0800  135.9820 C   0  0  0  0  0  2  0  0  0  0  0  0
  196.6640  172.3360  135.6350 C   0  0  2  0  0  3  0  0  0  0  0  0
  196.9960  171.5060  136.8680 C   0  0  1  0  0  0  0  0  0  0  0  0
  198.2120  170.6020  136.8180 C   0  0  0  0  0  2  0  0  0  0  0  0
  198.4620  170.0730  138.0950 O   0  0  0  0  0  0  0  0  0  0  0  0
  198.8670  168.0000  139.0110 F   0  0  0  0  0  0  0  0  0  0  0  0
  198.3350  168.1660  136.8080 F   0  0  0  0  0  0  0  0  0  0  0  0
  196.7890  168.5720  138.3840 F   0  0  0  0  0  0  0  0  0  0  0  0
  198.1270  168.7040  138.0710 C   0  0  0  0  0  0  0  0  0  0  0  0
  185.8200  174.9480  136.4660 C   0  0  0  0  0  3  0  0  0  0  0  0
  186.9920  177.0600  136.3220 C   0  0  0  0  0  0  0  0  0  0  0  0
  187.4400  176.8380  134.9490 C   0  0  0  0  0  3  0  0  0  0  0  0
  187.0720  175.6940  134.3500 C   0  0  0  0  0  3  0  0  0  0  0  0
  185.9250  176.5480  138.3350 N   0  0  0  0  0  0  0  0  0  0  0  0
  186.2120  174.6320  135.0310 C   0  0  0  0  0  3  0  0  0  0  0  0
  187.1920  178.0650  137.1550 C   0  0  1  0  0  3  0  0  0  0  0  0
  186.5050  177.7110  138.4200 C   0  0  0  0  0  0  0  0  0  0  0  0
  186.2030  176.0940  137.0200 C   0  0  0  0  0  0  0  0  0  0  0  0
  188.0040  179.2850  136.8690 C   0  0  0  0  0  2  0  0  0  0  0  0
  188.9760  179.4430  137.8600 O   0  0  0  0  0  1  0  0  0  0  0  0
  186.9840  179.0700  142.0320 C   0  0  0  0  0  2  0  0  0  0  0  0
  185.9430  178.3850  142.9010 C   0  0  0  0  0  2  0  0  0  0  0  0
  184.6950  178.1300  142.0780 C   0  0  0  0  0  2  0  0  0  0  0  0
  183.5250  178.8950  142.6760 C   0  0  0  0  0  2  0  0  0  0  0  0
  181.0570  179.1380  142.7020 C   0  0  1  0  0  3  0  0  0  0  0  0
  180.3900  180.8350  141.1540 O   0  0  0  0  0  1  0  0  0  0  0  0
  182.0590  177.9950  140.9030 C   0  0  0  0  0  0  0  0  0  0  0  0
  180.1880  178.5050  143.5900 O   0  0  0  0  0  1  0  0  0  0  0  0
  182.2130  178.1980  142.3590 C   0  0  1  0  0  3  0  0  0  0  0  0
  182.7680  177.2000  140.2290 O   0  0  0  0  0  0  0  0  0  0  0  0
  180.9950  178.7360  140.3430 N   0  0  0  0  0  0  0  0  0  0  0  0
  180.3120  179.4630  141.4010 C   0  0  1  0  0  3  0  0  0  0  0  0
  180.3420  178.3490  139.1000 C   0  0  0  0  0  2  0  0  0  0  0  0
  180.8340  179.2050  137.9490 C   0  0  0  0  0  2  0  0  0  0  0  0
  180.9480  178.3880  136.7560 N   0  0  0  0  0  2  0  0  0  0  0  0
  180.9890  177.0050  137.2010 C   0  0  0  0  0  2  0  0  0  0  0  0
  182.7280  177.0320  135.4590 C   0  0  0  0  0  1  0  0  0  0  0  0
  181.7120  176.1530  136.1690 C   0  0  1  0  0  3  0  0  0  0  0  0
  182.4040  174.9480  136.8150 C   0  0  1  0  0  3  0  0  0  0  0  0
  182.7130  175.2250  138.1520 O   0  0  0  0  0  1  0  0  0  0  0  0
  181.5010  173.7210  136.7670 C   0  0  2  0  0  3  0  0  0  0  0  0
  182.2100  172.6030  136.0260 C   0  0  2  0  0  3  0  0  0  0  0  0
  181.1290  173.4030  135.3320 C   0  0  0  0  0  2  0  0  0  0  0  0
  181.0890  170.5700  135.3400 N   0  0  0  0  0  1  0  0  0  0  0  0
  181.6400  171.2770  136.4810 C   0  0  0  0  0  2  0  0  0  0  0  0
  1  3  2  0  0  0  0
  2 44  1  0  0  0  0
  3  2  1  0  0  0  0
  5  2  1  6  0  0  0
  5  8  1  0  0  0  0
  7  4  2  0  0  0  0
  8  6  1  0  0  0  0
  9 13  1  0  0  0  0
 10  7  1  0  0  0  0
 11  9  2  0  0  0  0
 11  5  1  0  0  0  0
 12 10  2  0  0  0  0
 12  9  1  0  0  0  0
 13  4  1  0  0  0  0
 13  8  2  0  0  0  0
 14 10  1  0  0  0  0
 16 15  1  6  0  0  0
 16 14  1  0  0  0  0
 17 22  1  0  0  0  0
 18 17  2  0  0  0  0
 19 22  2  0  0  0  0
 20 18  1  0  0  0  0
 20 19  1  0  0  0  0
 21 18  1  0  0  0  0
 22 16  1  0  0  0  0
 24 26  1  0  0  0  0
 25 24  1  6  0  0  0
 25 20  1  0  0  0  0
 25 26  1  0  0  0  0
 26 23  1  1  0  0  0
 27 26  1  0  0  0  0
 27 28  1  0  0  0  0
 30 32  1  0  0  0  0
 32 28  1  0  0  0  0
 32 31  1  0  0  0  0
 32 29  1  0  0  0  0
 33 41  1  0  0  0  0
 34 41  2  0  0  0  0
 34 39  1  0  0  0  0
 35 34  1  0  0  0  0
 36 35  2  0  0  0  0
 36 38  1  0  0  0  0
 37 40  2  0  0  0  0
 38 33  2  0  0  0  0
 39 42  1  1  0  0  0
 39 40  1  0  0  0  0
 40  3  1  0  0  0  0
 41 37  1  0  0  0  0
 42 43  1  0  0  0  0
 44 45  1  0  0  0  0
 46 47  1  0  0  0  0
 46 45  1  0  0  0  0
 48 51  1  1  0  0  0
 50 52  1  0  0  0  0
 52 47  1  6  0  0  0
 52 48  1  0  0  0  0
 53 50  2  0  0  0  0
 54 50  1  0  0  0  0
 54 55  1  0  0  0  0
 55 49  1  6  0  0  0
 55 48  1  0  0  0  0
 56 54  1  0  0  0  0
 57 56  1  0  0  0  0
 58 59  1  0  0  0  0
 58 57  1  0  0  0  0
 61 60  1  1  0  0  0
 61 62  1  0  0  0  0
 61 59  1  0  0  0  0
 62 63  1  1  0  0  0
 64 62  1  6  0  0  0
 65 68  1  1  0  0  0
 65 64  1  0  0  0  0
 66 65  1  0  0  0  0
 66 64  1  0  0  0  0
 67 68  1  0  0  0  0
M  END
>  <MODEL>
7

>  <REMARK>
 VINA RESULT:      -4.7      3.337      7.923
  Name = 
  23 active torsions:
  status: ('A' for Active; 'I' for Inactive)
    1  A    between atoms: N_3  and  C_9
    2  A    between atoms: N_3  and  C_58
    3  A    between atoms: C_8  and  C_10
    4  A    between atoms: C_8  and  C_57
    5  A    between atoms: C_9  and  C_57
    6  A    between atoms: C_11  and  C_54
    7  A    between atoms: C_13  and  N_38
    8  A    between atoms: C_14  and  C_30
    9  A    between atoms: C_14  and  C_43
   10  A    between atoms: C_15  and  C_52
   11  A    between atoms: C_15  and  C_56
   12  A    between atoms: C_18  and  C_47
   13  A    between atoms: C_22  and  C_24
   14  A    between atoms: C_22  and  C_30
   15  A    between atoms: C_24  and  N_38
   16  A    between atoms: O_26  and  C_31
   17  A    between atoms: O_26  and  C_62
   18  A    between atoms: C_31  and  C_61
   19  A    between atoms: N_32  and  C_60
   20  A    between atoms: C_35  and  C_58
   21  A    between atoms: C_35  and  N_65
   22  A    between atoms: C_40  and  C_64
   23  A    between atoms: C_53  and  C_56
                            x       y       z     vdW  Elec       q    Type
                         _______ _______ _______ _____ _____    ______ ____

>  <TORSDO>
F 23

$$$$
=
 OpenBabel10232412133D

 68 75  0  0  1  0  0  0  0  0999 V2000
  187.8490  171.5430  137.4360 O   0  0  0  0  0  0  0  0  0  0  0  0
  187.5470  173.2150  135.8380 N   0  0  0  0  0  0  0  0  0  0  0  0
  187.1280  172.0080  136.5120 C   0  0  0  0  0  0  0  0  0  0  0  0
  185.6110  177.2550  134.8610 C   0  0  0  0  0  3  0  0  0  0  0  0
  186.7760  173.7940  134.7340 C   0  0  2  0  0  3  0  0  0  0  0  0
  188.2490  175.8760  134.3510 O   0  0  0  0  0  1  0  0  0  0  0  0
  184.2880  177.6380  135.1320 C   0  0  0  0  0  3  0  0  0  0  0  0
  187.0280  175.2690  134.6220 C   0  0  0  0  0  0  0  0  0  0  0  0
  184.9160  174.9640  135.0670 C   0  0  0  0  0  0  0  0  0  0  0  0
  183.3040  176.6530  135.3560 C   0  0  0  0  0  0  0  0  0  0  0  0
  185.3370  173.7420  135.0260 N   0  0  0  0  0  0  0  0  0  0  0  0
  183.6360  175.3270  135.3300 N   0  0  0  0  0  0  0  0  0  0  0  0
  185.8910  175.8930  134.8330 C   0  0  0  0  0  0  0  0  0  0  0  0
  181.9100  177.0780  135.6790 C   0  0  0  0  0  2  0  0  0  0  0  0
  180.4720  179.0750  136.0580 C   0  0  0  0  0  1  0  0  0  0  0  0
  181.8730  178.5080  136.2120 C   0  0  1  0  0  3  0  0  0  0  0  0
  183.4440  179.1730  138.0440 N   0  0  0  0  0  0  0  0  0  0  0  0
  183.4150  179.0410  139.3830 C   0  0  0  0  0  0  0  0  0  0  0  0
  181.5800  178.1210  138.7440 C   0  0  0  0  0  3  0  0  0  0  0  0
  182.3200  178.3960  139.8320 N   0  0  0  0  0  0  0  0  0  0  0  0
  184.4130  179.6000  140.2350 N   0  0  0  0  0  1  0  0  0  0  0  0
  182.2950  178.5840  137.6490 C   0  0  0  0  0  0  0  0  0  0  0  0
  180.6820  180.3200  140.8250 O   0  0  0  0  0  1  0  0  0  0  0  0
  180.3920  177.9680  141.3220 C   0  0  0  0  0  2  0  0  0  0  0  0
  181.9090  178.1700  141.2190 C   0  0  2  0  0  3  0  0  0  0  0  0
  181.0000  179.2880  141.7140 C   0  0  1  0  0  0  0  0  0  0  0  0
  180.9730  179.5850  143.2010 C   0  0  0  0  0  2  0  0  0  0  0  0
  181.4910  178.4900  143.9110 O   0  0  0  0  0  0  0  0  0  0  0  0
  183.0820  180.1450  144.0900 F   0  0  0  0  0  0  0  0  0  0  0  0
  183.7160  178.0370  143.5250 F   0  0  0  0  0  0  0  0  0  0  0  0
  182.9980  178.4880  145.6030 F   0  0  0  0  0  0  0  0  0  0  0  0
  182.8200  178.7930  144.2680 C   0  0  0  0  0  0  0  0  0  0  0  0
  182.5120  170.5690  136.1160 C   0  0  0  0  0  3  0  0  0  0  0  0
  184.5710  169.7420  135.1500 C   0  0  0  0  0  0  0  0  0  0  0  0
  183.9170  168.6570  134.4220 C   0  0  0  0  0  3  0  0  0  0  0  0
  182.5850  168.5430  134.5360 C   0  0  0  0  0  3  0  0  0  0  0  0
  184.7070  171.5870  136.5770 N   0  0  0  0  0  0  0  0  0  0  0  0
  181.7340  169.4900  135.3790 C   0  0  0  0  0  3  0  0  0  0  0  0
  185.8400  170.0990  135.2340 C   0  0  0  0  0  0  0  0  0  0  0  0
  185.8930  171.2690  136.1450 C   0  0  0  0  0  0  0  0  0  0  0  0
  183.8310  170.6480  135.9720 C   0  0  2  0  0  3  0  0  0  0  0  0
  186.9850  169.4060  134.5720 C   0  0  0  0  0  2  0  0  0  0  0  0
  188.1590  170.1310  134.7880 O   0  0  0  0  0  1  0  0  0  0  0  0
  188.8690  173.7710  136.1280 C   0  0  0  0  0  2  0  0  0  0  0  0
  188.7800  174.8160  137.2280 C   0  0  0  0  0  2  0  0  0  0  0  0
  189.1930  176.1640  136.6690 C   0  0  0  0  0  2  0  0  0  0  0  0
  190.4620  176.6360  137.3610 C   0  0  0  0  0  2  0  0  0  0  0  0
  188.8530  178.4980  137.6650 C   0  0  1  0  0  3  0  0  0  0  0  0
  186.8640  177.6920  138.7210 O   0  0  0  0  0  1  0  0  0  0  0  0
  190.0660  177.7380  139.5360 C   0  0  0  0  0  0  0  0  0  0  0  0
  189.0020  179.7900  137.1610 O   0  0  0  0  0  1  0  0  0  0  0  0
  190.2190  177.9510  138.0810 C   0  0  1  0  0  3  0  0  0  0  0  0
  191.0070  177.3750  140.2920 O   0  0  0  0  0  0  0  0  0  0  0  0
  188.7710  178.0420  140.0130 N   0  0  0  0  0  0  0  0  0  0  0  0
  187.9600  178.5360  138.9120 C   0  0  1  0  0  3  0  0  0  0  0  0
  188.5120  178.3880  141.4040 C   0  0  0  0  0  2  0  0  0  0  0  0
  189.5830  177.8080  142.3070 C   0  0  0  0  0  2  0  0  0  0  0  0
  188.9630  177.2620  143.5000 N   0  0  0  0  0  2  0  0  0  0  0  0
  189.9870  176.4940  144.1870 C   0  0  0  0  0  2  0  0  0  0  0  0
  190.4920  178.6690  145.2220 C   0  0  0  0  0  1  0  0  0  0  0  0
  190.3560  177.1800  145.4930 C   0  0  1  0  0  3  0  0  0  0  0  0
  189.3070  176.9260  146.5810 C   0  0  1  0  0  3  0  0  0  0  0  0
  189.9200  176.8420  147.8360 O   0  0  0  0  0  1  0  0  0  0  0  0
  188.2830  178.0550  146.6130 C   0  0  2  0  0  3  0  0  0  0  0  0
  187.1220  177.6560  147.5060 C   0  0  2  0  0  3  0  0  0  0  0  0
  186.9750  177.5900  146.0010 C   0  0  0  0  0  2  0  0  0  0  0  0
  185.5960  179.4610  146.9870 N   0  0  0  0  0  1  0  0  0  0  0  0
  186.4510  178.9110  148.0220 C   0  0  0  0  0  2  0  0  0  0  0  0
  2 44  1  0  0  0  0
  2  3  1  0  0  0  0
  3  1  2  0  0  0  0
  4  7  2  0  0  0  0
  5 11  1  0  0  0  0
  5  2  1  1  0  0  0
  6  8  1  0  0  0  0
  7 10  1  0  0  0  0
  8  5  1  0  0  0  0
  8 13  2  0  0  0  0
  9 12  1  0  0  0  0
 10 14  1  0  0  0  0
 11  9  2  0  0  0  0
 12 10  2  0  0  0  0
 13  4  1  0  0  0  0
 13  9  1  0  0  0  0
 14 16  1  0  0  0  0
 16 15  1  1  0  0  0
 16 22  1  0  0  0  0
 17 18  2  0  0  0  0
 18 20  1  0  0  0  0
 18 21  1  0  0  0  0
 19 20  1  0  0  0  0
 22 17  1  0  0  0  0
 22 19  2  0  0  0  0
 24 26  1  0  0  0  0
 25 20  1  6  0  0  0
 25 24  1  0  0  0  0
 25 26  1  0  0  0  0
 26 23  1  6  0  0  0
 26 27  1  0  0  0  0
 27 28  1  0  0  0  0
 28 32  1  0  0  0  0
 29 32  1  0  0  0  0
 30 32  1  0  0  0  0
 32 31  1  0  0  0  0
 34 39  2  0  0  0  0
 34 41  1  0  0  0  0
 35 36  2  0  0  0  0
 35 34  1  0  0  0  0
 36 38  1  0  0  0  0
 38 33  2  0  0  0  0
 39 40  1  0  0  0  0
 40  3  1  0  0  0  0
 40 37  2  0  0  0  0
 41 33  1  1  0  0  0
 41 37  1  0  0  0  0
 42 43  1  0  0  0  0
 42 39  1  0  0  0  0
 44 45  1  0  0  0  0
 46 45  1  0  0  0  0
 46 47  1  0  0  0  0
 48 51  1  1  0  0  0
 48 52  1  0  0  0  0
 48 55  1  0  0  0  0
 50 54  1  0  0  0  0
 50 53  2  0  0  0  0
 52 47  1  6  0  0  0
 52 50  1  0  0  0  0
 54 56  1  0  0  0  0
 55 49  1  6  0  0  0
 55 54  1  0  0  0  0
 56 57  1  0  0  0  0
 57 58  1  0  0  0  0
 58 59  1  0  0  0  0
 59 61  1  0  0  0  0
 61 60  1  6  0  0  0
 61 62  1  0  0  0  0
 62 63  1  1  0  0  0
 64 62  1  1  0  0  0
 64 65  1  0  0  0  0
 65 68  1  6  0  0  0
 66 64  1  0  0  0  0
 66 65  1  0  0  0  0
 67 68  1  0  0  0  0
M  END
>  <MODEL>
8

>  <REMARK>
 VINA RESULT:      -4.4      4.906      9.614
  Name = 
  23 active torsions:
  status: ('A' for Active; 'I' for Inactive)
    1  A    between atoms: N_3  and  C_9
    2  A    between atoms: N_3  and  C_58
    3  A    between atoms: C_8  and  C_10
    4  A    between atoms: C_8  and  C_57
    5  A    between atoms: C_9  and  C_57
    6  A    between atoms: C_11  and  C_54
    7  A    between atoms: C_13  and  N_38
    8  A    between atoms: C_14  and  C_30
    9  A    between atoms: C_14  and  C_43
   10  A    between atoms: C_15  and  C_52
   11  A    between atoms: C_15  and  C_56
   12  A    between atoms: C_18  and  C_47
   13  A    between atoms: C_22  and  C_24
   14  A    between atoms: C_22  and  C_30
   15  A    between atoms: C_24  and  N_38
   16  A    between atoms: O_26  and  C_31
   17  A    between atoms: O_26  and  C_62
   18  A    between atoms: C_31  and  C_61
   19  A    between atoms: N_32  and  C_60
   20  A    between atoms: C_35  and  C_58
   21  A    between atoms: C_35  and  N_65
   22  A    between atoms: C_40  and  C_64
   23  A    between atoms: C_53  and  C_56
                            x       y       z     vdW  Elec       q    Type
                         _______ _______ _______ _____ _____    ______ ____

>  <TORSDO>
F 23

$$$$
=
 OpenBabel10232412133D

 68 75  0  0  1  0  0  0  0  0999 V2000
  190.4060  175.6140  142.5760 O   0  0  0  0  0  0  0  0  0  0  0  0
  188.7340  177.1480  142.0350 N   0  0  0  0  0  0  0  0  0  0  0  0
  189.6480  176.5400  142.9740 C   0  0  0  0  0  0  0  0  0  0  0  0
  184.1930  177.7860  142.0500 C   0  0  0  0  0  3  0  0  0  0  0  0
  187.8020  178.2070  142.4360 C   0  0  2  0  0  3  0  0  0  0  0  0
  186.2990  176.7700  143.9620 O   0  0  0  0  0  1  0  0  0  0  0  0
  183.4280  178.3870  141.0370 C   0  0  0  0  0  3  0  0  0  0  0  0
  186.4940  177.6250  142.8830 C   0  0  0  0  0  0  0  0  0  0  0  0
  186.1300  178.8760  141.1350 C   0  0  0  0  0  0  0  0  0  0  0  0
  184.0490  179.2340  140.0970 C   0  0  0  0  0  0  0  0  0  0  0  0
  187.4080  179.0150  141.2750 N   0  0  0  0  0  0  0  0  0  0  0  0
  185.3970  179.4590  140.1540 N   0  0  0  0  0  0  0  0  0  0  0  0
  185.5570  178.0590  142.0690 C   0  0  0  0  0  0  0  0  0  0  0  0
  183.2270  179.8350  139.0060 C   0  0  0  0  0  2  0  0  0  0  0  0
  180.8560  180.3820  138.4760 C   0  0  0  0  0  1  0  0  0  0  0  0
  181.7890  179.3270  139.0470 C   0  0  1  0  0  3  0  0  0  0  0  0
  180.5880  177.8120  137.4560 N   0  0  0  0  0  0  0  0  0  0  0  0
  180.8420  176.5780  136.9810 C   0  0  0  0  0  0  0  0  0  0  0  0
  182.4950  176.9630  138.3010 C   0  0  0  0  0  3  0  0  0  0  0  0
  181.9660  176.0340  137.4850 N   0  0  0  0  0  0  0  0  0  0  0  0
  180.0310  175.9520  135.9880 N   0  0  0  0  0  1  0  0  0  0  0  0
  181.6240  178.0420  138.2900 C   0  0  0  0  0  0  0  0  0  0  0  0
  184.3030  176.3170  136.1320 O   0  0  0  0  0  1  0  0  0  0  0  0
  183.9600  174.6050  137.8090 C   0  0  0  0  0  2  0  0  0  0  0  0
  182.6000  174.7660  137.1180 C   0  0  2  0  0  3  0  0  0  0  0  0
  183.8990  174.9980  136.3570 C   0  0  1  0  0  0  0  0  0  0  0  0
  184.3630  173.9270  135.3880 C   0  0  0  0  0  2  0  0  0  0  0  0
  184.0370  172.6580  135.8920 O   0  0  0  0  0  0  0  0  0  0  0  0
  186.1590  172.0780  136.5710 F   0  0  0  0  0  0  0  0  0  0  0  0
  185.6090  171.9360  134.3710 F   0  0  0  0  0  0  0  0  0  0  0  0
  184.7290  170.5010  135.8570 F   0  0  0  0  0  0  0  0  0  0  0  0
  185.1380  171.8070  135.6700 C   0  0  0  0  0  0  0  0  0  0  0  0
  188.6870  178.4870  147.3130 C   0  0  0  0  0  3  0  0  0  0  0  0
  190.4720  177.0580  146.5210 C   0  0  0  0  0  0  0  0  0  0  0  0
  191.1490  177.0080  147.8150 C   0  0  0  0  0  3  0  0  0  0  0  0
  190.5930  177.6810  148.8360 C   0  0  0  0  0  3  0  0  0  0  0  0
  188.8350  177.7000  144.9830 N   0  0  0  0  0  0  0  0  0  0  0  0
  189.2990  178.4790  148.7050 C   0  0  0  0  0  2  0  0  0  0  0  0
  190.7720  176.5120  145.3560 C   0  0  0  0  0  0  0  0  0  0  0  0
  189.7170  176.9380  144.4040 C   0  0  0  0  0  0  0  0  0  0  0  0
  189.2680  177.8050  146.3310 C   0  0  0  0  0  0  0  0  0  0  0  0
  191.9760  175.6780  145.0690 C   0  0  0  0  0  2  0  0  0  0  0  0
  192.5030  175.1890  146.2660 O   0  0  0  0  0  1  0  0  0  0  0  0
  188.5940  176.5690  140.7000 C   0  0  0  0  0  2  0  0  0  0  0  0
  189.8790  176.7340  139.9060 C   0  0  0  0  0  2  0  0  0  0  0  0
  189.7200  177.8890  138.9350 C   0  0  0  0  0  2  0  0  0  0  0  0
  190.6100  177.6600  137.7230 C   0  0  0  0  0  2  0  0  0  0  0  0
  190.7730  175.5230  136.4760 C   0  0  1  0  0  3  0  0  0  0  0  0
  191.9770  175.8600  134.4370 O   0  0  0  0  0  1  0  0  0  0  0  0
  192.6690  176.2980  137.6380 C   0  0  0  0  0  0  0  0  0  0  0  0
  190.1300  174.3340  136.8160 O   0  0  0  0  0  1  0  0  0  0  0  0
  191.1950  176.2590  137.7480 C   0  0  1  0  0  3  0  0  0  0  0  0
  193.4250  176.7460  138.5420 O   0  0  0  0  0  0  0  0  0  0  0  0
  193.1570  175.7270  136.4420 N   0  0  0  0  0  0  0  0  0  0  0  0
  192.0400  175.2080  135.6700 C   0  0  1  0  0  3  0  0  0  0  0  0
  194.5110  175.2060  136.3210 C   0  0  0  0  0  2  0  0  0  0  0  0
  194.8250  174.8630  134.8780 C   0  0  0  0  0  2  0  0  0  0  0  0
  194.9400  173.4230  134.7390 N   0  0  0  0  0  2  0  0  0  0  0  0
  195.2050  172.8960  136.0680 C   0  0  0  0  0  2  0  0  0  0  0  0
  193.5020  171.3960  135.1150 C   0  0  0  0  0  1  0  0  0  0  0  0
  194.1910  171.8130  136.4030 C   0  0  1  0  0  3  0  0  0  0  0  0
  194.8560  170.6040  137.0710 C   0  0  1  0  0  3  0  0  0  0  0  0
  194.0340  169.4770  136.9650 O   0  0  0  0  0  1  0  0  0  0  0  0
  196.1950  170.2960  136.4110 C   0  0  2  0  0  3  0  0  0  0  0  0
  196.5720  168.8520  136.6910 C   0  0  2  0  0  3  0  0  0  0  0  0
  197.2340  169.9710  137.4670 C   0  0  0  0  0  2  0  0  0  0  0  0
  198.8760  168.4200  136.0870 N   0  0  0  0  0  1  0  0  0  0  0  0
  197.5090  168.3740  135.6020 C   0  0  0  0  0  2  0  0  0  0  0  0
  1  3  2  0  0  0  0
  2  3  1  0  0  0  0
  3 40  1  0  0  0  0
  4 13  1  0  0  0  0
  5  2  1  6  0  0  0
  5  8  1  0  0  0  0
  7  4  2  0  0  0  0
  8  6  1  0  0  0  0
  9 11  2  0  0  0  0
  9 13  1  0  0  0  0
 10 12  2  0  0  0  0
 10  7  1  0  0  0  0
 11  5  1  0  0  0  0
 12  9  1  0  0  0  0
 13  8  2  0  0  0  0
 14 16  1  0  0  0  0
 14 10  1  0  0  0  0
 16 15  1  6  0  0  0
 17 22  1  0  0  0  0
 18 17  2  0  0  0  0
 18 20  1  0  0  0  0
 20 19  1  0  0  0  0
 21 18  1  0  0  0  0
 22 19  2  0  0  0  0
 22 16  1  0  0  0  0
 25 20  1  1  0  0  0
 25 24  1  0  0  0  0
 26 23  1  6  0  0  0
 26 25  1  0  0  0  0
 26 24  1  0  0  0  0
 27 28  1  0  0  0  0
 27 26  1  0  0  0  0
 30 32  1  0  0  0  0
 32 31  1  0  0  0  0
 32 28  1  0  0  0  0
 32 29  1  0  0  0  0
 33 38  1  0  0  0  0
 34 35  1  0  0  0  0
 35 36  2  0  0  0  0
 37 41  1  0  0  0  0
 38 36  1  0  0  0  0
 39 34  2  0  0  0  0
 40 37  2  0  0  0  0
 40 39  1  0  0  0  0
 41 34  1  0  0  0  0
 41 33  2  0  0  0  0
 42 39  1  0  0  0  0
 42 43  1  0  0  0  0
 44  2  1  0  0  0  0
 45 44  1  0  0  0  0
 46 45  1  0  0  0  0
 47 46  1  0  0  0  0
 48 51  1  1  0  0  0
 48 52  1  0  0  0  0
 50 52  1  0  0  0  0
 50 53  2  0  0  0  0
 52 47  1  6  0  0  0
 54 50  1  0  0  0  0
 55 49  1  6  0  0  0
 55 54  1  0  0  0  0
 55 48  1  0  0  0  0
 56 54  1  0  0  0  0
 57 56  1  0  0  0  0
 58 57  1  0  0  0  0
 58 59  1  0  0  0  0
 59 61  1  0  0  0  0
 61 60  1  6  0  0  0
 61 62  1  0  0  0  0
 62 63  1  6  0  0  0
 64 65  1  0  0  0  0
 64 62  1  1  0  0  0
 64 66  1  0  0  0  0
 65 68  1  6  0  0  0
 65 66  1  0  0  0  0
 68 67  1  0  0  0  0
M  END
>  <MODEL>
9

>  <REMARK>
 VINA RESULT:      -4.3      4.044     11.496
  Name = 
  23 active torsions:
  status: ('A' for Active; 'I' for Inactive)
    1  A    between atoms: N_3  and  C_9
    2  A    between atoms: N_3  and  C_58
    3  A    between atoms: C_8  and  C_10
    4  A    between atoms: C_8  and  C_57
    5  A    between atoms: C_9  and  C_57
    6  A    between atoms: C_11  and  C_54
    7  A    between atoms: C_13  and  N_38
    8  A    between atoms: C_14  and  C_30
    9  A    between atoms: C_14  and  C_43
   10  A    between atoms: C_15  and  C_52
   11  A    between atoms: C_15  and  C_56
   12  A    between atoms: C_18  and  C_47
   13  A    between atoms: C_22  and  C_24
   14  A    between atoms: C_22  and  C_30
   15  A    between atoms: C_24  and  N_38
   16  A    between atoms: O_26  and  C_31
   17  A    between atoms: O_26  and  C_62
   18  A    between atoms: C_31  and  C_61
   19  A    between atoms: N_32  and  C_60
   20  A    between atoms: C_35  and  C_58
   21  A    between atoms: C_35  and  N_65
   22  A    between atoms: C_40  and  C_64
   23  A    between atoms: C_53  and  C_56
                            x       y       z     vdW  Elec       q    Type
                         _______ _______ _______ _____ _____    ______ ____

>  <TORSDO>
F 23

$$$$
