=
 OpenBabel10232409183D

 30 34  0  0  1  0  0  0  0  0999 V2000
  183.1270  177.6650  137.9480 C   0  0  0  0  0  0  0  0  0  0  0  0
  186.1720  178.2890  140.5720 C   0  0  0  0  0  0  0  0  0  0  0  0
  185.4720  178.1200  142.7180 C   0  0  0  0  0  0  0  0  0  0  0  0
  181.3170  178.5980  142.2020 C   0  0  0  0  0  2  0  0  0  0  0  0
  187.9080  178.4240  142.4820 N   0  0  0  0  0  0  0  0  0  0  0  0
  183.1660  178.9770  143.8200 C   0  0  0  0  0  3  0  0  0  0  0  0
  184.2930  178.4110  137.3260 C   0  0  0  0  0  2  0  0  0  0  0  0
  187.5800  178.3970  141.1060 C   0  0  0  0  0  3  0  0  0  0  0  0
  181.2300  176.5200  139.6890 C   0  0  0  0  0  0  0  0  0  0  0  0
  186.7900  178.2640  143.1970 C   0  0  0  0  0  0  0  0  0  0  0  0
  184.6130  179.2170  144.3790 C   0  0  0  0  0  2  0  0  0  0  0  0
  180.7110  179.8080  141.8220 O   0  0  0  0  0  0  0  0  0  0  0  0
  182.0110  178.3500  138.3710 N   0  0  0  0  0  0  0  0  0  0  0  0
  180.3710  175.9750  140.5860 F   0  0  0  0  0  0  0  0  0  0  0  0
  185.8600  178.0770  139.1420 C   0  0  0  0  0  2  0  0  0  0  0  0
  182.7750  178.7930  142.5080 C   0  0  0  0  0  0  0  0  0  0  0  0
  180.6950  179.8910  140.4020 C   0  0  1  0  0  3  0  0  0  0  0  0
  179.9820  178.7250  139.6800 C   0  0  0  0  0  2  0  0  0  0  0  0
  185.0600  178.1850  141.4860 C   0  0  0  0  0  0  0  0  0  0  0  0
  183.2850  176.3280  138.3400 C   0  0  0  0  0  0  0  0  0  0  0  0
  185.6860  178.0910  144.1040 C   0  0  1  0  0  3  0  0  0  0  0  0
  182.3520  175.7890  139.2620 C   0  0  0  0  0  3  0  0  0  0  0  0
  185.0940  178.9450  138.4820 C   0  0  0  0  0  2  0  0  0  0  0  0
  181.0540  177.8160  139.1790 C   0  0  0  0  0  0  0  0  0  0  0  0
  183.6950  178.7670  141.2610 C   0  0  0  0  0  2  0  0  0  0  0  0
  184.3560  175.5160  137.7920 N   0  0  0  0  0  0  0  0  0  0  0  0
  184.1800  174.2570  137.5440 C   0  0  0  0  0  2  0  0  0  0  0  0
  180.0490  181.2080  139.9640 C   0  0  0  0  0  2  0  0  0  0  0  0
  181.6340  181.8120  138.4670 O   0  0  0  0  0  1  0  0  0  0  0  0
  180.3260  181.4790  138.5540 N   0  0  0  0  0  2  0  0  0  0  0  0
  1 20  2  0  0  0  0
  1 13  1  0  0  0  0
  2  8  2  0  0  0  0
  2 19  1  0  0  0  0
  3 10  1  0  0  0  0
  3 21  1  0  0  0  0
  4 16  1  0  0  0  0
  5 10  2  0  0  0  0
  6 11  1  0  0  0  0
  7  1  1  0  0  0  0
  7 23  1  0  0  0  0
  8  5  1  0  0  0  0
  9 14  1  0  0  0  0
 10 21  1  0  0  0  0
 12  4  1  0  0  0  0
 13 24  2  0  0  0  0
 15  2  1  0  0  0  0
 16  6  2  0  0  0  0
 17 28  1  1  0  0  0
 17 12  1  0  0  0  0
 18 17  1  0  0  0  0
 19  3  2  0  0  0  0
 20 22  1  0  0  0  0
 21 11  1  1  0  0  0
 22  9  2  0  0  0  0
 23 15  1  0  0  0  0
 24 18  1  0  0  0  0
 24  9  1  0  0  0  0
 25 19  1  0  0  0  0
 25 16  1  0  0  0  0
 26 20  1  0  0  0  0
 27 26  2  0  0  0  0
 29 30  1  0  0  0  0
 30 28  1  0  0  0  0
M  END
>  <MODEL>
1

>  <REMARK>
 VINA RESULT:      -5.9      0.000      0.000
  Name = 
  3 active torsions:
  status: ('A' for Active; 'I' for Inactive)
    1  A    between atoms: N_14  and  C_27
    2  A    between atoms: C_19  and  C_27
    3  A    between atoms: N_20  and  C_23
                            x       y       z     vdW  Elec       q    Type
                         _______ _______ _______ _____ _____    ______ ____

>  <TORSDO>
F 3

$$$$
=
 OpenBabel10232409183D

 30 34  0  0  1  0  0  0  0  0999 V2000
  188.6160  178.3830  137.6540 C   0  0  0  0  0  0  0  0  0  0  0  0
  185.3800  176.0200  136.9560 C   0  0  0  0  0  0  0  0  0  0  0  0
  185.8730  173.8270  137.2320 C   0  0  0  0  0  0  0  0  0  0  0  0
  190.0760  173.9530  136.9570 C   0  0  0  0  0  2  0  0  0  0  0  0
  183.4860  174.2680  136.7930 N   0  0  0  0  0  0  0  0  0  0  0  0
  188.1080  172.4940  136.5340 C   0  0  0  0  0  3  0  0  0  0  0  0
  187.5490  179.0780  136.8280 C   0  0  0  0  0  2  0  0  0  0  0  0
  183.9360  175.6090  136.7920 C   0  0  0  0  0  3  0  0  0  0  0  0
  190.2870  176.5240  138.9540 C   0  0  0  0  0  0  0  0  0  0  0  0
  184.5260  173.4630  137.0350 C   0  0  0  0  0  0  0  0  0  0  0  0
  186.6310  172.0570  136.2360 C   0  0  0  0  0  2  0  0  0  0  0  0
  190.7740  174.2330  135.7690 O   0  0  0  0  0  0  0  0  0  0  0  0
  189.7210  177.8380  137.0430 N   0  0  0  0  0  0  0  0  0  0  0  0
  191.0330  175.5760  139.5720 F   0  0  0  0  0  0  0  0  0  0  0  0
  185.8100  177.4230  137.1370 C   0  0  0  0  0  2  0  0  0  0  0  0
  188.6080  173.7710  136.6950 C   0  0  0  0  0  0  0  0  0  0  0  0
  190.9220  175.6420  135.6410 C   0  0  1  0  0  3  0  0  0  0  0  0
  191.6390  176.3410  136.8190 C   0  0  0  0  0  2  0  0  0  0  0  0
  186.3970  175.0140  137.1490 C   0  0  0  0  0  0  0  0  0  0  0  0
  188.3560  178.0570  138.9930 C   0  0  0  0  0  0  0  0  0  0  0  0
  185.5330  172.4680  137.2950 C   0  0  1  0  0  3  0  0  0  0  0  0
  189.1740  177.0760  139.6110 C   0  0  0  0  0  3  0  0  0  0  0  0
  186.6740  177.9800  136.2900 C   0  0  0  0  0  2  0  0  0  0  0  0
  190.5730  176.9680  137.6530 C   0  0  0  0  0  0  0  0  0  0  0  0
  187.8040  175.0950  136.6320 C   0  0  0  0  0  2  0  0  0  0  0  0
  187.3000  178.7280  139.7290 N   0  0  0  0  0  0  0  0  0  0  0  0
  187.2030  178.6100  141.0160 C   0  0  0  0  0  2  0  0  0  0  0  0
  191.6690  175.9710  134.3460 C   0  0  0  0  0  2  0  0  0  0  0  0
  193.6650  174.9070  134.3470 O   0  0  0  0  0  1  0  0  0  0  0  0
  193.1030  176.1120  134.5950 N   0  0  0  0  0  2  0  0  0  0  0  0
  1 20  1  0  0  0  0
  2 15  1  0  0  0  0
  2 19  1  0  0  0  0
  3 21  1  0  0  0  0
  5 10  2  0  0  0  0
  6 16  2  0  0  0  0
  7  1  1  0  0  0  0
  8  5  1  0  0  0  0
  8  2  2  0  0  0  0
  9 14  1  0  0  0  0
  9 22  1  0  0  0  0
 10  3  1  0  0  0  0
 10 21  1  0  0  0  0
 11  6  1  0  0  0  0
 12  4  1  0  0  0  0
 13 24  1  0  0  0  0
 13  1  2  0  0  0  0
 16  4  1  0  0  0  0
 17 28  1  6  0  0  0
 17 12  1  0  0  0  0
 17 18  1  0  0  0  0
 18 24  1  0  0  0  0
 19  3  2  0  0  0  0
 20 22  2  0  0  0  0
 20 26  1  0  0  0  0
 21 11  1  6  0  0  0
 23  7  1  0  0  0  0
 23 15  1  0  0  0  0
 24  9  2  0  0  0  0
 25 16  1  0  0  0  0
 25 19  1  0  0  0  0
 26 27  2  0  0  0  0
 28 30  1  0  0  0  0
 29 30  1  0  0  0  0
M  END
>  <MODEL>
2

>  <REMARK>
 VINA RESULT:      -5.6      5.634      9.103
  Name = 
  3 active torsions:
  status: ('A' for Active; 'I' for Inactive)
    1  A    between atoms: N_14  and  C_27
    2  A    between atoms: C_19  and  C_27
    3  A    between atoms: N_20  and  C_23
                            x       y       z     vdW  Elec       q    Type
                         _______ _______ _______ _____ _____    ______ ____

>  <TORSDO>
F 3

$$$$
=
 OpenBabel10232409183D

 30 34  0  0  1  0  0  0  0  0999 V2000
  183.9490  176.6700  136.0210 C   0  0  0  0  0  0  0  0  0  0  0  0
  187.9200  177.1320  136.7720 C   0  0  0  0  0  0  0  0  0  0  0  0
  188.3310  177.3340  138.9900 C   0  0  0  0  0  0  0  0  0  0  0  0
  184.4940  178.3800  140.3820 C   0  0  0  0  0  2  0  0  0  0  0  0
  190.3670  177.2280  137.6000 N   0  0  0  0  0  0  0  0  0  0  0  0
  186.9170  178.6630  140.8600 C   0  0  0  0  0  3  0  0  0  0  0  0
  184.7240  177.1470  134.8060 C   0  0  0  0  0  2  0  0  0  0  0  0
  189.4140  177.0850  136.5640 C   0  0  0  0  0  3  0  0  0  0  0  0
  183.0450  176.0510  138.6160 C   0  0  0  0  0  0  0  0  0  0  0  0
  189.7230  177.3300  138.7680 C   0  0  0  0  0  0  0  0  0  0  0  0
  188.4680  178.7440  140.6300 C   0  0  0  0  0  2  0  0  0  0  0  0
  183.8750  179.6140  140.1150 O   0  0  0  0  0  0  0  0  0  0  0  0
  183.2330  177.5650  136.7810 N   0  0  0  0  0  0  0  0  0  0  0  0
  182.6860  175.7580  139.8910 F   0  0  0  0  0  0  0  0  0  0  0  0
  186.9410  176.7990  135.7150 C   0  0  0  0  0  2  0  0  0  0  0  0
  185.9290  178.3840  139.9360 C   0  0  0  0  0  0  0  0  0  0  0  0
  183.1830  179.5250  138.8750 C   0  0  1  0  0  3  0  0  0  0  0  0
  182.1220  178.4040  138.7890 C   0  0  0  0  0  2  0  0  0  0  0  0
  187.3830  177.3110  138.1000 C   0  0  0  0  0  0  0  0  0  0  0  0
  184.1730  175.3820  136.5280 C   0  0  0  0  0  0  0  0  0  0  0  0
  189.1840  177.4410  140.0980 C   0  0  1  0  0  3  0  0  0  0  0  0
  183.7610  175.1090  137.8580 C   0  0  0  0  0  3  0  0  0  0  0  0
  186.0220  177.6870  135.3410 C   0  0  0  0  0  2  0  0  0  0  0  0
  182.7460  177.2870  138.0220 C   0  0  0  0  0  0  0  0  0  0  0  0
  186.1290  178.0650  138.4320 C   0  0  0  0  0  2  0  0  0  0  0  0
  184.7800  174.3550  135.7020 N   0  0  0  0  0  0  0  0  0  0  0  0
  185.4960  173.4110  136.2280 C   0  0  0  0  0  2  0  0  0  0  0  0
  182.5100  180.8630  138.5580 C   0  0  0  0  0  2  0  0  0  0  0  0
  180.5190  181.4380  139.4620 O   0  0  0  0  0  1  0  0  0  0  0  0
  181.0600  180.7060  138.4620 N   0  0  0  0  0  2  0  0  0  0  0  0
  1 20  2  0  0  0  0
  1 13  1  0  0  0  0
  2 19  1  0  0  0  0
  3 21  1  0  0  0  0
  5 10  2  0  0  0  0
  7 23  1  0  0  0  0
  7  1  1  0  0  0  0
  8  2  2  0  0  0  0
  8  5  1  0  0  0  0
  9 14  1  0  0  0  0
 10  3  1  0  0  0  0
 10 21  1  0  0  0  0
 11  6  1  0  0  0  0
 12  4  1  0  0  0  0
 13 24  2  0  0  0  0
 15  2  1  0  0  0  0
 16  4  1  0  0  0  0
 16  6  2  0  0  0  0
 17 28  1  1  0  0  0
 17 12  1  0  0  0  0
 18 17  1  0  0  0  0
 19 25  1  0  0  0  0
 19  3  2  0  0  0  0
 20 22  1  0  0  0  0
 21 11  1  6  0  0  0
 22  9  2  0  0  0  0
 23 15  1  0  0  0  0
 24  9  1  0  0  0  0
 24 18  1  0  0  0  0
 25 16  1  0  0  0  0
 26 27  2  0  0  0  0
 26 20  1  0  0  0  0
 30 28  1  0  0  0  0
 30 29  1  0  0  0  0
M  END
>  <MODEL>
3

>  <REMARK>
 VINA RESULT:      -5.4      2.443      3.601
  Name = 
  3 active torsions:
  status: ('A' for Active; 'I' for Inactive)
    1  A    between atoms: N_14  and  C_27
    2  A    between atoms: C_19  and  C_27
    3  A    between atoms: N_20  and  C_23
                            x       y       z     vdW  Elec       q    Type
                         _______ _______ _______ _____ _____    ______ ____

>  <TORSDO>
F 3

$$$$
=
 OpenBabel10232409183D

 30 34  0  0  1  0  0  0  0  0999 V2000
  184.2530  176.5750  136.0020 C   0  0  0  0  0  0  0  0  0  0  0  0
  187.6290  177.7680  137.9320 C   0  0  0  0  0  0  0  0  0  0  0  0
  187.2680  178.0500  140.1490 C   0  0  0  0  0  0  0  0  0  0  0  0
  183.0660  178.3680  140.2000 C   0  0  0  0  0  2  0  0  0  0  0  0
  189.6260  178.3200  139.4780 N   0  0  0  0  0  0  0  0  0  0  0  0
  185.1200  179.0980  141.3950 C   0  0  0  0  0  3  0  0  0  0  0  0
  185.2800  177.1840  135.0650 C   0  0  0  0  0  2  0  0  0  0  0  0
  189.0950  178.0000  138.2060 C   0  0  0  0  0  3  0  0  0  0  0  0
  182.6900  175.8050  138.2170 C   0  0  0  0  0  0  0  0  0  0  0  0
  188.6350  178.3040  140.3760 C   0  0  0  0  0  0  0  0  0  0  0  0
  186.6230  179.4650  141.6590 C   0  0  0  0  0  2  0  0  0  0  0  0
  182.3590  179.4650  139.6760 O   0  0  0  0  0  0  0  0  0  0  0  0
  183.1860  177.3230  136.4420 N   0  0  0  0  0  0  0  0  0  0  0  0
  182.0000  175.4540  139.3290 F   0  0  0  0  0  0  0  0  0  0  0  0
  187.1150  177.2570  136.6430 C   0  0  0  0  0  2  0  0  0  0  0  0
  184.5440  178.6370  140.2270 C   0  0  0  0  0  0  0  0  0  0  0  0
  182.1260  179.2450  138.2900 C   0  0  1  0  0  3  0  0  0  0  0  0
  181.3630  177.9460  137.9450 C   0  0  0  0  0  2  0  0  0  0  0  0
  186.6730  177.8490  139.0100 C   0  0  0  0  0  0  0  0  0  0  0  0
  184.5250  175.3520  136.6330 C   0  0  0  0  0  0  0  0  0  0  0  0
  187.6890  178.3160  141.4600 C   0  0  1  0  0  3  0  0  0  0  0  0
  183.7640  175.0110  137.7810 C   0  0  0  0  0  3  0  0  0  0  0  0
  186.2220  177.9580  135.9460 C   0  0  0  0  0  2  0  0  0  0  0  0
  182.3850  176.9630  137.4830 C   0  0  0  0  0  0  0  0  0  0  0  0
  185.2670  178.3570  138.8850 C   0  0  0  0  0  2  0  0  0  0  0  0
  185.5350  174.4540  136.1040 N   0  0  0  0  0  0  0  0  0  0  0  0
  186.1750  173.6370  136.8810 C   0  0  0  0  0  2  0  0  0  0  0  0
  181.3670  180.4340  137.6950 C   0  0  0  0  0  2  0  0  0  0  0  0
  181.2750  182.6920  137.6090 O   0  0  0  0  0  1  0  0  0  0  0  0
  181.7280  181.6760  138.3780 N   0  0  0  0  0  2  0  0  0  0  0  0
  1 13  2  0  0  0  0
  1 20  1  0  0  0  0
  2  8  2  0  0  0  0
  2 19  1  0  0  0  0
  3 10  1  0  0  0  0
  3 21  1  0  0  0  0
  4 16  1  0  0  0  0
  5 10  2  0  0  0  0
  6 11  1  0  0  0  0
  7 23  1  0  0  0  0
  7  1  1  0  0  0  0
  8  5  1  0  0  0  0
  9 14  1  0  0  0  0
 10 21  1  0  0  0  0
 12  4  1  0  0  0  0
 13 24  1  0  0  0  0
 15  2  1  0  0  0  0
 16  6  2  0  0  0  0
 17 28  1  1  0  0  0
 17 12  1  0  0  0  0
 18 17  1  0  0  0  0
 19  3  2  0  0  0  0
 20 22  2  0  0  0  0
 21 11  1  6  0  0  0
 22  9  1  0  0  0  0
 23 15  1  0  0  0  0
 24 18  1  0  0  0  0
 24  9  2  0  0  0  0
 25 19  1  0  0  0  0
 25 16  1  0  0  0  0
 26 20  1  0  0  0  0
 26 27  2  0  0  0  0
 28 30  1  0  0  0  0
 29 30  1  0  0  0  0
M  END
>  <MODEL>
4

>  <REMARK>
 VINA RESULT:      -5.1      2.040      2.717
  Name = 
  3 active torsions:
  status: ('A' for Active; 'I' for Inactive)
    1  A    between atoms: N_14  and  C_27
    2  A    between atoms: C_19  and  C_27
    3  A    between atoms: N_20  and  C_23
                            x       y       z     vdW  Elec       q    Type
                         _______ _______ _______ _____ _____    ______ ____

>  <TORSDO>
F 3

$$$$
=
 OpenBabel10232409183D

 30 34  0  0  1  0  0  0  0  0999 V2000
  183.0430  176.5750  136.1020 C   0  0  0  0  0  0  0  0  0  0  0  0
  187.1020  176.7090  135.8740 C   0  0  0  0  0  0  0  0  0  0  0  0
  188.0440  176.9720  137.9170 C   0  0  0  0  0  0  0  0  0  0  0  0
  184.7410  178.4200  140.0960 C   0  0  0  0  0  2  0  0  0  0  0  0
  189.6750  176.6210  136.1000 N   0  0  0  0  0  0  0  0  0  0  0  0
  187.2230  178.5040  139.9760 C   0  0  0  0  0  3  0  0  0  0  0  0
  183.5410  176.9260  134.7120 C   0  0  0  0  0  2  0  0  0  0  0  0
  188.4950  176.5190  135.3260 C   0  0  0  0  0  3  0  0  0  0  0  0
  182.7380  176.1550  138.8710 C   0  0  0  0  0  0  0  0  0  0  0  0
  189.3380  176.8320  137.3770 C   0  0  0  0  0  0  0  0  0  0  0  0
  188.6750  178.4350  139.3860 C   0  0  0  0  0  2  0  0  0  0  0  0
  184.1740  179.6920  139.9020 O   0  0  0  0  0  0  0  0  0  0  0  0
  182.5990  177.5640  136.9490 N   0  0  0  0  0  0  0  0  0  0  0  0
  182.6710  175.9530  140.2100 F   0  0  0  0  0  0  0  0  0  0  0  0
  185.8770  176.4190  135.0980 C   0  0  0  0  0  2  0  0  0  0  0  0
  186.0240  178.2750  139.3280 C   0  0  0  0  0  0  0  0  0  0  0  0
  183.2010  179.6110  138.8670 C   0  0  1  0  0  3  0  0  0  0  0  0
  182.0670  178.5880  139.1030 C   0  0  0  0  0  2  0  0  0  0  0  0
  186.9120  176.9950  137.2760 C   0  0  0  0  0  0  0  0  0  0  0  0
  183.2810  175.2960  136.6250 C   0  0  0  0  0  0  0  0  0  0  0  0
  189.1410  177.0500  138.7860 C   0  0  1  0  0  3  0  0  0  0  0  0
  183.1780  175.1200  138.0290 C   0  0  0  0  0  3  0  0  0  0  0  0
  184.9660  177.3700  134.8930 C   0  0  0  0  0  2  0  0  0  0  0  0
  182.4020  177.3860  138.2850 C   0  0  0  0  0  0  0  0  0  0  0  0
  185.8350  177.8730  137.8430 C   0  0  0  0  0  2  0  0  0  0  0  0
  183.5930  174.1820  135.7480 N   0  0  0  0  0  0  0  0  0  0  0  0
  184.3120  173.1870  136.1620 C   0  0  0  0  0  2  0  0  0  0  0  0
  182.5770  180.9890  138.6290 C   0  0  0  0  0  2  0  0  0  0  0  0
  180.6100  182.0870  138.4340 O   0  0  0  0  0  1  0  0  0  0  0  0
  181.1630  180.9900  139.0010 N   0  0  0  0  0  2  0  0  0  0  0  0
  1 20  2  0  0  0  0
  1 13  1  0  0  0  0
  2 19  1  0  0  0  0
  3 21  1  0  0  0  0
  5 10  2  0  0  0  0
  7 23  1  0  0  0  0
  7  1  1  0  0  0  0
  8  2  2  0  0  0  0
  8  5  1  0  0  0  0
  9 14  1  0  0  0  0
 10  3  1  0  0  0  0
 10 21  1  0  0  0  0
 11  6  1  0  0  0  0
 12  4  1  0  0  0  0
 13 24  2  0  0  0  0
 15  2  1  0  0  0  0
 16  6  2  0  0  0  0
 16  4  1  0  0  0  0
 17 28  1  1  0  0  0
 17 18  1  0  0  0  0
 17 12  1  0  0  0  0
 19 25  1  0  0  0  0
 19  3  2  0  0  0  0
 20 22  1  0  0  0  0
 21 11  1  6  0  0  0
 22  9  2  0  0  0  0
 23 15  1  0  0  0  0
 24  9  1  0  0  0  0
 24 18  1  0  0  0  0
 25 16  1  0  0  0  0
 26 27  2  0  0  0  0
 26 20  1  0  0  0  0
 28 30  1  0  0  0  0
 29 30  1  0  0  0  0
M  END
>  <MODEL>
5

>  <REMARK>
 VINA RESULT:      -5.1      2.646      4.058
  Name = 
  3 active torsions:
  status: ('A' for Active; 'I' for Inactive)
    1  A    between atoms: N_14  and  C_27
    2  A    between atoms: C_19  and  C_27
    3  A    between atoms: N_20  and  C_23
                            x       y       z     vdW  Elec       q    Type
                         _______ _______ _______ _____ _____    ______ ____

>  <TORSDO>
F 3

$$$$
=
 OpenBabel10232409183D

 30 34  0  0  1  0  0  0  0  0999 V2000
  180.5430  178.2950  138.5690 C   0  0  0  0  0  0  0  0  0  0  0  0
  184.3990  178.4860  139.8490 C   0  0  0  0  0  0  0  0  0  0  0  0
  185.8590  178.1310  138.1550 C   0  0  0  0  0  0  0  0  0  0  0  0
  183.3270  176.2660  135.3490 C   0  0  0  0  0  2  0  0  0  0  0  0
  186.9330  178.7490  140.2870 N   0  0  0  0  0  0  0  0  0  0  0  0
  185.6900  176.3790  136.1140 C   0  0  0  0  0  3  0  0  0  0  0  0
  180.6740  178.0970  140.0680 C   0  0  0  0  0  2  0  0  0  0  0  0
  185.5870  178.8250  140.7170 C   0  0  0  0  0  3  0  0  0  0  0  0
  180.9590  178.4650  135.7880 C   0  0  0  0  0  0  0  0  0  0  0  0
  186.9560  178.4100  138.9940 C   0  0  0  0  0  0  0  0  0  0  0  0
  186.9300  176.6050  137.0490 C   0  0  0  0  0  2  0  0  0  0  0  0
  182.7950  174.9740  135.5140 O   0  0  0  0  0  0  0  0  0  0  0  0
  180.3900  177.2110  137.7370 N   0  0  0  0  0  0  0  0  0  0  0  0
  181.2370  178.5530  134.4640 F   0  0  0  0  0  0  0  0  0  0  0  0
  183.0000  178.7450  140.2500 C   0  0  0  0  0  2  0  0  0  0  0  0
  184.3530  176.5690  136.4040 C   0  0  0  0  0  0  0  0  0  0  0  0
  181.5810  175.0660  136.2500 C   0  0  1  0  0  3  0  0  0  0  0  0
  180.4990  175.9780  135.6300 C   0  0  0  0  0  2  0  0  0  0  0  0
  184.6010  178.0740  138.4800 C   0  0  0  0  0  0  0  0  0  0  0  0
  180.8440  179.5420  138.0030 C   0  0  0  0  0  0  0  0  0  0  0  0
  187.1500  178.0650  137.6100 C   0  0  1  0  0  3  0  0  0  0  0  0
  181.1070  179.5950  136.6100 C   0  0  0  0  0  3  0  0  0  0  0  0
  182.1170  177.7480  140.3050 C   0  0  0  0  0  2  0  0  0  0  0  0
  180.5440  177.2640  136.3850 C   0  0  0  0  0  0  0  0  0  0  0  0
  183.7590  177.0740  137.7430 C   0  0  0  0  0  2  0  0  0  0  0  0
  180.8560  180.7430  138.8180 N   0  0  0  0  0  0  0  0  0  0  0  0
  181.5540  181.7790  138.4710 C   0  0  0  0  0  2  0  0  0  0  0  0
  180.9890  173.6690  136.4520 C   0  0  0  0  0  2  0  0  0  0  0  0
  180.3570  172.2500  138.0960 O   0  0  0  0  0  1  0  0  0  0  0  0
  180.3480  173.5600  137.7620 N   0  0  0  0  0  2  0  0  0  0  0  0
  1  7  1  0  0  0  0
  2 15  1  0  0  0  0
  2  8  1  0  0  0  0
  3 19  1  0  0  0  0
  3 10  2  0  0  0  0
  4 12  1  0  0  0  0
  4 16  1  0  0  0  0
  5  8  2  0  0  0  0
  6 16  2  0  0  0  0
  6 11  1  0  0  0  0
  7 23  1  0  0  0  0
  9 24  2  0  0  0  0
  9 22  1  0  0  0  0
 10  5  1  0  0  0  0
 12 17  1  0  0  0  0
 13  1  2  0  0  0  0
 14  9  1  0  0  0  0
 15 23  1  0  0  0  0
 16 25  1  0  0  0  0
 17 28  1  6  0  0  0
 18 17  1  0  0  0  0
 18 24  1  0  0  0  0
 19  2  2  0  0  0  0
 20  1  1  0  0  0  0
 20 26  1  0  0  0  0
 21 11  1  1  0  0  0
 21  3  1  0  0  0  0
 21 10  1  0  0  0  0
 22 20  2  0  0  0  0
 24 13  1  0  0  0  0
 25 19  1  0  0  0  0
 27 26  2  0  0  0  0
 28 30  1  0  0  0  0
 30 29  1  0  0  0  0
M  END
>  <MODEL>
6

>  <REMARK>
 VINA RESULT:      -4.8      3.276      5.754
  Name = 
  3 active torsions:
  status: ('A' for Active; 'I' for Inactive)
    1  A    between atoms: N_14  and  C_27
    2  A    between atoms: C_19  and  C_27
    3  A    between atoms: N_20  and  C_23
                            x       y       z     vdW  Elec       q    Type
                         _______ _______ _______ _____ _____    ______ ____

>  <TORSDO>
F 3

$$$$
=
 OpenBabel10232409183D

 30 34  0  0  1  0  0  0  0  0999 V2000
  189.9540  175.1020  136.9760 C   0  0  0  0  0  0  0  0  0  0  0  0
  186.2350  173.7700  136.0080 C   0  0  0  0  0  0  0  0  0  0  0  0
  184.7470  175.4720  135.8770 C   0  0  0  0  0  0  0  0  0  0  0  0
  186.8050  178.4480  138.0380 C   0  0  0  0  0  2  0  0  0  0  0  0
  183.8260  173.2850  135.2050 N   0  0  0  0  0  0  0  0  0  0  0  0
  184.5250  177.6510  137.4470 C   0  0  0  0  0  3  0  0  0  0  0  0
  189.7680  173.6230  137.2610 C   0  0  0  0  0  2  0  0  0  0  0  0
  185.1500  172.8650  135.4770 C   0  0  0  0  0  3  0  0  0  0  0  0
  189.6130  177.8560  136.4870 C   0  0  0  0  0  0  0  0  0  0  0  0
  183.7370  174.6010  135.4220 C   0  0  0  0  0  0  0  0  0  0  0  0
  183.3620  176.6880  137.0190 C   0  0  0  0  0  2  0  0  0  0  0  0
  187.0240  178.3950  139.4260 O   0  0  0  0  0  0  0  0  0  0  0  0
  189.8600  176.0220  137.9940 N   0  0  0  0  0  0  0  0  0  0  0  0
  189.3730  179.1650  136.2290 F   0  0  0  0  0  0  0  0  0  0  0  0
  187.6530  173.3640  136.1120 C   0  0  0  0  0  2  0  0  0  0  0  0
  185.8670  177.3610  137.5950 C   0  0  0  0  0  0  0  0  0  0  0  0
  188.2200  177.6670  139.6780 C   0  0  1  0  0  3  0  0  0  0  0  0
  189.4890  178.2220  138.9910 C   0  0  0  0  0  2  0  0  0  0  0  0
  185.9550  175.1660  136.2490 C   0  0  0  0  0  0  0  0  0  0  0  0
  189.9530  175.5610  135.6510 C   0  0  0  0  0  0  0  0  0  0  0  0
  183.4810  176.0060  135.5990 C   0  0  1  0  0  3  0  0  0  0  0  0
  189.7220  176.9430  135.4240 C   0  0  0  0  0  3  0  0  0  0  0  0
  188.2820  173.4000  137.2860 C   0  0  0  0  0  2  0  0  0  0  0  0
  189.7350  177.3630  137.7960 C   0  0  0  0  0  0  0  0  0  0  0  0
  186.5510  175.9910  137.3520 C   0  0  0  0  0  2  0  0  0  0  0  0
  190.2110  174.6510  134.5500 N   0  0  0  0  0  0  0  0  0  0  0  0
  191.3970  174.1690  134.3460 C   0  0  0  0  0  2  0  0  0  0  0  0
  188.4730  177.5860  141.1850 C   0  0  0  0  0  2  0  0  0  0  0  0
  189.8120  176.4170  142.5840 O   0  0  0  0  0  1  0  0  0  0  0  0
  189.8470  177.1700  141.4600 N   0  0  0  0  0  2  0  0  0  0  0  0
  1  7  1  0  0  0  0
  1 13  1  0  0  0  0
  2 15  1  0  0  0  0
  2 19  1  0  0  0  0
  3 19  2  0  0  0  0
  4 12  1  0  0  0  0
  5 10  2  0  0  0  0
  5  8  1  0  0  0  0
  6 16  2  0  0  0  0
  7 23  1  0  0  0  0
  8  2  2  0  0  0  0
  9 24  1  0  0  0  0
 10 21  1  0  0  0  0
 10  3  1  0  0  0  0
 11  6  1  0  0  0  0
 12 17  1  0  0  0  0
 14  9  1  0  0  0  0
 15 23  1  0  0  0  0
 16  4  1  0  0  0  0
 17 28  1  1  0  0  0
 18 17  1  0  0  0  0
 19 25  1  0  0  0  0
 20  1  2  0  0  0  0
 21  3  1  0  0  0  0
 21 11  1  1  0  0  0
 22 20  1  0  0  0  0
 22  9  2  0  0  0  0
 24 13  2  0  0  0  0
 24 18  1  0  0  0  0
 25 16  1  0  0  0  0
 26 20  1  0  0  0  0
 27 26  2  0  0  0  0
 28 30  1  0  0  0  0
 30 29  1  0  0  0  0
M  END
>  <MODEL>
7

>  <REMARK>
 VINA RESULT:      -4.7      4.765      8.065
  Name = 
  3 active torsions:
  status: ('A' for Active; 'I' for Inactive)
    1  A    between atoms: N_14  and  C_27
    2  A    between atoms: C_19  and  C_27
    3  A    between atoms: N_20  and  C_23
                            x       y       z     vdW  Elec       q    Type
                         _______ _______ _______ _____ _____    ______ ____

>  <TORSDO>
F 3

$$$$
=
 OpenBabel10232409183D

 30 34  0  0  1  0  0  0  0  0999 V2000
  188.2580  173.7320  136.4660 C   0  0  0  0  0  0  0  0  0  0  0  0
  184.2260  173.3800  136.8720 C   0  0  0  0  0  0  0  0  0  0  0  0
  183.1730  175.3460  136.4780 C   0  0  0  0  0  0  0  0  0  0  0  0
  186.3850  178.0340  136.9400 C   0  0  0  0  0  2  0  0  0  0  0  0
  181.6420  173.4460  136.8420 N   0  0  0  0  0  0  0  0  0  0  0  0
  183.9190  177.8370  137.1840 C   0  0  0  0  0  3  0  0  0  0  0  0
  187.8540  172.5220  137.2890 C   0  0  0  0  0  2  0  0  0  0  0  0
  182.8620  172.7380  136.9480 C   0  0  0  0  0  3  0  0  0  0  0  0
  188.3840  176.2050  135.1220 C   0  0  0  0  0  0  0  0  0  0  0  0
  181.9090  174.7330  136.5940 C   0  0  0  0  0  0  0  0  0  0  0  0
  182.5020  177.1940  137.3910 C   0  0  0  0  0  2  0  0  0  0  0  0
  187.0030  178.3090  138.1730 O   0  0  0  0  0  0  0  0  0  0  0  0
  188.6810  174.8830  137.0870 N   0  0  0  0  0  0  0  0  0  0  0  0
  188.3640  177.3980  134.4770 F   0  0  0  0  0  0  0  0  0  0  0  0
  185.4850  172.6080  136.8000 C   0  0  0  0  0  2  0  0  0  0  0  0
  185.1460  177.2060  137.1270 C   0  0  0  0  0  0  0  0  0  0  0  0
  188.0320  177.3530  138.3960 C   0  0  1  0  0  3  0  0  0  0  0  0
  189.1170  177.2790  137.2970 C   0  0  0  0  0  2  0  0  0  0  0  0
  184.3410  174.8030  136.6600 C   0  0  0  0  0  0  0  0  0  0  0  0
  187.9480  173.7780  135.0990 C   0  0  0  0  0  0  0  0  0  0  0  0
  182.0290  176.1400  136.3140 C   0  0  1  0  0  3  0  0  0  0  0  0
  187.9620  175.0430  134.4550 C   0  0  0  0  0  3  0  0  0  0  0  0
  186.4360  172.7790  137.7170 C   0  0  0  0  0  2  0  0  0  0  0  0
  188.7930  176.0870  136.4600 C   0  0  0  0  0  0  0  0  0  0  0  0
  185.4100  175.6820  137.2400 C   0  0  0  0  0  2  0  0  0  0  0  0
  187.6530  172.5620  134.3630 N   0  0  0  0  0  0  0  0  0  0  0  0
  188.4870  171.5700  134.3510 C   0  0  0  0  0  2  0  0  0  0  0  0
  188.7130  177.6250  139.7400 C   0  0  0  0  0  2  0  0  0  0  0  0
  187.6790  178.4080  141.5930 O   0  0  0  0  0  1  0  0  0  0  0  0
  188.1380  178.8050  140.3850 N   0  0  0  0  0  2  0  0  0  0  0  0
  1 13  1  0  0  0  0
  1  7  1  0  0  0  0
  2  8  1  0  0  0  0
  3 10  2  0  0  0  0
  3 19  1  0  0  0  0
  4 16  1  0  0  0  0
  4 12  1  0  0  0  0
  5  8  2  0  0  0  0
  6 11  1  0  0  0  0
  7 23  1  0  0  0  0
  9 24  1  0  0  0  0
 10  5  1  0  0  0  0
 12 17  1  0  0  0  0
 14  9  1  0  0  0  0
 15  2  1  0  0  0  0
 15 23  1  0  0  0  0
 16  6  2  0  0  0  0
 16 25  1  0  0  0  0
 17 28  1  1  0  0  0
 18 17  1  0  0  0  0
 19  2  2  0  0  0  0
 19 25  1  0  0  0  0
 20  1  2  0  0  0  0
 21  3  1  0  0  0  0
 21 10  1  0  0  0  0
 21 11  1  1  0  0  0
 22 20  1  0  0  0  0
 22  9  2  0  0  0  0
 24 13  2  0  0  0  0
 24 18  1  0  0  0  0
 26 20  1  0  0  0  0
 27 26  2  0  0  0  0
 28 30  1  0  0  0  0
 30 29  1  0  0  0  0
M  END
>  <MODEL>
8

>  <REMARK>
 VINA RESULT:      -4.6      4.668      7.609
  Name = 
  3 active torsions:
  status: ('A' for Active; 'I' for Inactive)
    1  A    between atoms: N_14  and  C_27
    2  A    between atoms: C_19  and  C_27
    3  A    between atoms: N_20  and  C_23
                            x       y       z     vdW  Elec       q    Type
                         _______ _______ _______ _____ _____    ______ ____

>  <TORSDO>
F 3

$$$$
=
 OpenBabel10232409183D

 30 34  0  0  1  0  0  0  0  0999 V2000
  186.9730  174.5910  136.4570 C   0  0  0  0  0  0  0  0  0  0  0  0
  183.4600  172.5850  136.8780 C   0  0  0  0  0  0  0  0  0  0  0  0
  181.6820  173.9100  136.4180 C   0  0  0  0  0  0  0  0  0  0  0  0
  183.4550  177.7150  136.7870 C   0  0  0  0  0  2  0  0  0  0  0  0
  181.0900  171.5540  136.8470 N   0  0  0  0  0  0  0  0  0  0  0  0
  181.2990  176.5040  137.0390 C   0  0  0  0  0  3  0  0  0  0  0  0
  187.1060  173.3500  137.3210 C   0  0  0  0  0  2  0  0  0  0  0  0
  182.4930  171.4300  136.9760 C   0  0  0  0  0  3  0  0  0  0  0  0
  186.0630  176.8450  135.0310 C   0  0  0  0  0  0  0  0  0  0  0  0
  180.7930  172.8250  136.5550 C   0  0  0  0  0  0  0  0  0  0  0  0
  180.2830  175.3310  137.2680 C   0  0  0  0  0  2  0  0  0  0  0  0
  183.8830  178.2630  138.0090 O   0  0  0  0  0  0  0  0  0  0  0  0
  186.8630  175.8330  137.0400 N   0  0  0  0  0  0  0  0  0  0  0  0
  185.5520  177.8970  134.3460 F   0  0  0  0  0  0  0  0  0  0  0  0
  184.9280  172.4140  136.8310 C   0  0  0  0  0  2  0  0  0  0  0  0
  182.6780  176.4470  137.0020 C   0  0  0  0  0  0  0  0  0  0  0  0
  185.2160  177.8370  138.2640 C   0  0  1  0  0  3  0  0  0  0  0  0
  186.2460  178.1940  137.1680 C   0  0  0  0  0  2  0  0  0  0  0  0
  182.9680  173.9170  136.6170 C   0  0  0  0  0  0  0  0  0  0  0  0
  186.6920  174.4610  135.0900 C   0  0  0  0  0  0  0  0  0  0  0  0
  180.3120  174.1420  136.2280 C   0  0  1  0  0  3  0  0  0  0  0  0
  186.1800  175.5920  134.4040 C   0  0  0  0  0  3  0  0  0  0  0  0
  185.7060  172.9980  137.7410 C   0  0  0  0  0  2  0  0  0  0  0  0
  186.4660  176.9510  136.3720 C   0  0  0  0  0  0  0  0  0  0  0  0
  183.5580  175.1820  137.1670 C   0  0  0  0  0  2  0  0  0  0  0  0
  186.9470  173.2120  134.3960 N   0  0  0  0  0  0  0  0  0  0  0  0
  188.1390  172.7060  134.3480 C   0  0  0  0  0  2  0  0  0  0  0  0
  185.7000  178.4120  139.5980 C   0  0  0  0  0  2  0  0  0  0  0  0
  184.3860  179.2350  141.2450 O   0  0  0  0  0  1  0  0  0  0  0  0
  184.8610  179.5350  140.0150 N   0  0  0  0  0  2  0  0  0  0  0  0
  1 13  1  0  0  0  0
  1  7  1  0  0  0  0
  2  8  1  0  0  0  0
  3 10  2  0  0  0  0
  3 19  1  0  0  0  0
  4 16  1  0  0  0  0
  4 12  1  0  0  0  0
  5  8  2  0  0  0  0
  6 11  1  0  0  0  0
  7 23  1  0  0  0  0
  9 24  1  0  0  0  0
 10  5  1  0  0  0  0
 12 17  1  0  0  0  0
 14  9  1  0  0  0  0
 15  2  1  0  0  0  0
 15 23  1  0  0  0  0
 16  6  2  0  0  0  0
 16 25  1  0  0  0  0
 17 28  1  1  0  0  0
 18 17  1  0  0  0  0
 19  2  2  0  0  0  0
 19 25  1  0  0  0  0
 20  1  2  0  0  0  0
 21  3  1  0  0  0  0
 21 10  1  0  0  0  0
 21 11  1  1  0  0  0
 22  9  2  0  0  0  0
 22 20  1  0  0  0  0
 24 13  2  0  0  0  0
 24 18  1  0  0  0  0
 26 20  1  0  0  0  0
 27 26  2  0  0  0  0
 28 30  1  0  0  0  0
 30 29  1  0  0  0  0
M  END
>  <MODEL>
9

>  <REMARK>
 VINA RESULT:      -4.6      3.718      6.999
  Name = 
  3 active torsions:
  status: ('A' for Active; 'I' for Inactive)
    1  A    between atoms: N_14  and  C_27
    2  A    between atoms: C_19  and  C_27
    3  A    between atoms: N_20  and  C_23
                            x       y       z     vdW  Elec       q    Type
                         _______ _______ _______ _____ _____    ______ ____

>  <TORSDO>
F 3

$$$$
