=
 OpenBabel10232408193D

 32 37  0  0  1  0  0  0  0  0999 V2000
  186.3820  178.1550  142.5180 C   0  0  0  0  0  3  0  0  0  0  0  0
  188.8210  177.1300  146.8590 C   0  0  0  0  0  3  0  0  0  0  0  0
  184.7890  178.6070  145.6430 C   0  0  0  0  0  0  0  0  0  0  0  0
  191.0890  176.3730  145.8980 C   0  0  2  0  0  3  0  0  0  0  0  0
  189.3110  177.0480  144.5280 N   0  0  0  0  0  0  0  0  0  0  0  0
  185.5100  178.4290  143.5670 C   0  0  0  0  0  0  0  0  0  0  0  0
  187.5370  177.5950  146.5580 C   0  0  0  0  0  3  0  0  0  0  0  0
  187.6750  177.6890  142.8160 C   0  0  0  0  0  0  0  0  0  0  0  0
  188.0690  177.4980  144.1730 C   0  0  0  0  0  0  0  0  0  0  0  0
  184.7220  178.5790  147.0650 N   0  0  0  0  0  1  0  0  0  0  0  0
  191.4890  176.2700  144.4120 C   0  0  0  0  0  2  0  0  0  0  0  0
  187.1470  177.7860  145.2210 C   0  0  0  0  0  0  0  0  0  0  0  0
  184.2090  178.8920  143.4970 C   0  0  0  0  0  3  0  0  0  0  0  0
  185.8740  178.2510  144.8750 C   0  0  0  0  0  0  0  0  0  0  0  0
  189.6880  176.8670  145.8020 C   0  0  0  0  0  0  0  0  0  0  0  0
  190.3420  176.7150  143.6930 O   0  0  0  0  0  0  0  0  0  0  0  0
  183.7550  179.0050  144.8100 C   0  0  0  0  0  3  0  0  0  0  0  0
  191.8840  177.3340  146.5260 O   0  0  0  0  0  0  0  0  0  0  0  0
  191.8980  176.9680  147.8290 N   0  0  0  0  0  2  0  0  0  0  0  0
  192.6020  175.7000  147.8990 C   0  0  0  0  0  1  0  0  0  0  0  0
  188.5780  177.3790  141.6680 C   0  0  0  0  0  2  0  0  0  0  0  0
  188.3180  178.3430  140.5240 C   0  0  0  0  0  2  0  0  0  0  0  0
  188.7330  177.7400  139.2710 N   0  0  0  0  0  2  0  0  0  0  0  0
  190.0120  177.0860  139.5110 C   0  0  0  0  0  2  0  0  0  0  0  0
  192.2380  176.5340  138.4590 C   0  0  0  0  0  2  0  0  0  0  0  0
  191.8740  173.3110  136.2190 S   0  0  0  0  0  0  0  0  0  0  0  0
  189.9850  175.5060  137.2110 S   0  0  0  0  0  0  0  0  0  0  0  0
  190.7600  176.8530  138.2040 C   0  0  1  0  0  3  0  0  0  0  0  0
  193.8200  174.6810  137.6280 C   0  0  0  0  0  2  0  0  0  0  0  0
  191.4740  174.5300  137.4810 C   0  0  2  0  0  3  0  0  0  0  0  0
  192.5810  175.5030  137.4230 C   0  0  1  0  0  3  0  0  0  0  0  0
  193.6460  173.4790  136.6950 C   0  0  0  0  0  2  0  0  0  0  0  0
  1  8  1  0  0  0  0
  1  6  2  0  0  0  0
  3 10  1  0  0  0  0
  4 18  1  1  0  0  0
  5 15  1  0  0  0  0
  6 14  1  0  0  0  0
  7  2  1  0  0  0  0
  8  9  2  0  0  0  0
  9  5  1  0  0  0  0
  9 12  1  0  0  0  0
 11  4  1  0  0  0  0
 12  7  2  0  0  0  0
 13  6  1  0  0  0  0
 13 17  2  0  0  0  0
 14 12  1  0  0  0  0
 14  3  2  0  0  0  0
 15  4  1  0  0  0  0
 15  2  2  0  0  0  0
 16 11  1  0  0  0  0
 16  5  1  0  0  0  0
 17  3  1  0  0  0  0
 18 19  1  0  0  0  0
 19 20  1  0  0  0  0
 21  8  1  0  0  0  0
 22 21  1  0  0  0  0
 23 24  1  0  0  0  0
 23 22  1  0  0  0  0
 26 32  1  0  0  0  0
 27 30  1  0  0  0  0
 27 28  1  0  0  0  0
 28 25  1  0  0  0  0
 28 24  1  1  0  0  0
 30 26  1  6  0  0  0
 31 30  1  0  0  0  0
 31 29  1  1  0  0  0
 31 25  1  0  0  0  0
 32 29  1  0  0  0  0
M  END
>  <MODEL>
1

>  <REMARK>
 VINA RESULT:     -10.0      0.000      0.000
  Name = 
  7 active torsions:
  status: ('A' for Active; 'I' for Inactive)
    1  A    between atoms: O_3  and  N_4
    2  A    between atoms: O_3  and  C_12
    3  A    between atoms: C_5  and  C_16
    4  A    between atoms: C_5  and  C_28
    5  A    between atoms: C_8  and  C_25
    6  A    between atoms: N_20  and  C_25
    7  A    between atoms: N_20  and  C_28
                            x       y       z     vdW  Elec       q    Type
                         _______ _______ _______ _____ _____    ______ ____

>  <TORSDO>
F 7

$$$$
=
 OpenBabel10232408193D

 32 37  0  0  1  0  0  0  0  0999 V2000
  186.4540  178.1040  142.5100 C   0  0  0  0  0  3  0  0  0  0  0  0
  188.8160  177.1490  146.9100 C   0  0  0  0  0  3  0  0  0  0  0  0
  184.8110  178.6210  145.6000 C   0  0  0  0  0  0  0  0  0  0  0  0
  191.0960  176.3640  146.0000 C   0  0  2  0  0  3  0  0  0  0  0  0
  189.3440  177.0210  144.5890 N   0  0  0  0  0  0  0  0  0  0  0  0
  185.5660  178.4010  143.5390 C   0  0  0  0  0  0  0  0  0  0  0  0
  187.5390  177.6140  146.5790 C   0  0  0  0  0  3  0  0  0  0  0  0
  187.7390  177.6370  142.8380 C   0  0  0  0  0  0  0  0  0  0  0  0
  188.1110  177.4700  144.2060 C   0  0  0  0  0  0  0  0  0  0  0  0
  184.7210  178.6200  147.0200 N   0  0  0  0  0  1  0  0  0  0  0  0
  191.5200  176.2310  144.5240 C   0  0  0  0  0  2  0  0  0  0  0  0
  187.1730  177.7820  145.2330 C   0  0  0  0  0  0  0  0  0  0  0  0
  184.2690  178.8680  143.4390 C   0  0  0  0  0  3  0  0  0  0  0  0
  185.9080  178.2460  144.8560 C   0  0  0  0  0  0  0  0  0  0  0  0
  189.6990  176.8620  145.8720 C   0  0  0  0  0  0  0  0  0  0  0  0
  190.3870  176.6680  143.7780 O   0  0  0  0  0  0  0  0  0  0  0  0
  183.7930  179.0080  144.7430 C   0  0  0  0  0  3  0  0  0  0  0  0
  191.8850  177.3330  146.6240 O   0  0  0  0  0  0  0  0  0  0  0  0
  191.9650  176.9310  147.9140 N   0  0  0  0  0  2  0  0  0  0  0  0
  192.6960  175.6760  147.9160 C   0  0  0  0  0  1  0  0  0  0  0  0
  188.6600  177.3020  141.7120 C   0  0  0  0  0  2  0  0  0  0  0  0
  188.3840  178.2070  140.5250 C   0  0  0  0  0  2  0  0  0  0  0  0
  189.4670  178.1010  139.5650 N   0  0  0  0  0  2  0  0  0  0  0  0
  189.0340  178.7790  138.3510 C   0  0  0  0  0  2  0  0  0  0  0  0
  190.0670  176.6880  137.3870 C   0  0  0  0  0  2  0  0  0  0  0  0
  187.2230  174.1250  136.4480 S   0  0  0  0  0  0  0  0  0  0  0  0
  187.4100  177.1650  136.7560 S   0  0  0  0  0  0  0  0  0  0  0  0
  189.0800  177.8380  137.1530 C   0  0  1  0  0  3  0  0  0  0  0  0
  189.9020  174.1320  137.1340 C   0  0  0  0  0  2  0  0  0  0  0  0
  188.0150  175.5380  137.2320 C   0  0  2  0  0  3  0  0  0  0  0  0
  189.4100  175.4970  136.7530 C   0  0  1  0  0  3  0  0  0  0  0  0
  188.7850  173.1800  136.6960 C   0  0  0  0  0  2  0  0  0  0  0  0
  1  8  1  0  0  0  0
  1  6  2  0  0  0  0
  3 10  1  0  0  0  0
  4 18  1  1  0  0  0
  5 15  1  0  0  0  0
  6 14  1  0  0  0  0
  7  2  1  0  0  0  0
  8  9  2  0  0  0  0
  9  5  1  0  0  0  0
  9 12  1  0  0  0  0
 11  4  1  0  0  0  0
 12  7  2  0  0  0  0
 13  6  1  0  0  0  0
 13 17  2  0  0  0  0
 14 12  1  0  0  0  0
 14  3  2  0  0  0  0
 15  4  1  0  0  0  0
 15  2  2  0  0  0  0
 16 11  1  0  0  0  0
 16  5  1  0  0  0  0
 17  3  1  0  0  0  0
 18 19  1  0  0  0  0
 19 20  1  0  0  0  0
 21  8  1  0  0  0  0
 22 21  1  0  0  0  0
 23 22  1  0  0  0  0
 24 23  1  0  0  0  0
 26 32  1  0  0  0  0
 27 28  1  0  0  0  0
 27 30  1  0  0  0  0
 28 25  1  0  0  0  0
 28 24  1  1  0  0  0
 30 26  1  6  0  0  0
 31 29  1  1  0  0  0
 31 30  1  0  0  0  0
 31 25  1  0  0  0  0
 32 29  1  0  0  0  0
M  END
>  <MODEL>
2

>  <REMARK>
 VINA RESULT:      -9.9      1.636      1.871
  Name = 
  7 active torsions:
  status: ('A' for Active; 'I' for Inactive)
    1  A    between atoms: O_3  and  N_4
    2  A    between atoms: O_3  and  C_12
    3  A    between atoms: C_5  and  C_16
    4  A    between atoms: C_5  and  C_28
    5  A    between atoms: C_8  and  C_25
    6  A    between atoms: N_20  and  C_25
    7  A    between atoms: N_20  and  C_28
                            x       y       z     vdW  Elec       q    Type
                         _______ _______ _______ _____ _____    ______ ____

>  <TORSDO>
F 7

$$$$
=
 OpenBabel10232408193D

 32 37  0  0  1  0  0  0  0  0999 V2000
  187.5980  177.5370  143.0640 C   0  0  0  0  0  3  0  0  0  0  0  0
  189.0160  177.1850  147.9340 C   0  0  0  0  0  3  0  0  0  0  0  0
  185.4160  178.5300  145.6640 C   0  0  0  0  0  0  0  0  0  0  0  0
  191.3880  176.2320  147.6130 C   0  0  2  0  0  3  0  0  0  0  0  0
  189.9760  176.7110  145.8050 N   0  0  0  0  0  0  0  0  0  0  0  0
  186.5430  177.9970  143.8450 C   0  0  0  0  0  0  0  0  0  0  0  0
  187.8510  177.6230  147.2950 C   0  0  0  0  0  3  0  0  0  0  0  0
  188.7720  177.0970  143.7020 C   0  0  0  0  0  0  0  0  0  0  0  0
  188.8630  177.1230  145.1260 C   0  0  0  0  0  0  0  0  0  0  0  0
  185.0520  178.7370  147.0240 N   0  0  0  0  0  1  0  0  0  0  0  0
  192.0830  175.8770  146.2830 C   0  0  0  0  0  2  0  0  0  0  0  0
  187.7610  177.6000  145.8930 C   0  0  0  0  0  0  0  0  0  0  0  0
  185.3140  178.4710  143.4260 C   0  0  0  0  0  3  0  0  0  0  0  0
  186.6160  178.0290  145.2120 C   0  0  0  0  0  0  0  0  0  0  0  0
  190.0680  176.7330  147.1420 C   0  0  0  0  0  0  0  0  0  0  0  0
  191.1380  176.2230  145.2740 O   0  0  0  0  0  0  0  0  0  0  0  0
  184.6020  178.8070  144.5770 C   0  0  0  0  0  3  0  0  0  0  0  0
  192.0870  177.2650  148.2400 O   0  0  0  0  0  0  0  0  0  0  0  0
  193.1490  176.6580  148.8200 N   0  0  0  0  0  2  0  0  0  0  0  0
  193.4410  177.3980  150.0350 C   0  0  0  0  0  1  0  0  0  0  0  0
  189.8760  176.5840  142.8380 C   0  0  0  0  0  2  0  0  0  0  0  0
  190.7290  177.7370  142.3410 C   0  0  0  0  0  2  0  0  0  0  0  0
  191.4640  177.3290  141.1580 N   0  0  0  0  0  2  0  0  0  0  0  0
  190.5040  176.7250  140.2430 C   0  0  0  0  0  2  0  0  0  0  0  0
  190.3770  177.2200  137.7710 C   0  0  0  0  0  2  0  0  0  0  0  0
  186.6240  177.8570  136.7480 S   0  0  0  0  0  0  0  0  0  0  0  0
  188.2570  178.1000  139.3260 S   0  0  0  0  0  0  0  0  0  0  0  0
  190.0560  177.7250  139.1830 C   0  0  1  0  0  3  0  0  0  0  0  0
  188.9970  177.0110  135.6090 C   0  0  0  0  0  2  0  0  0  0  0  0
  188.0210  177.2950  137.7330 C   0  0  2  0  0  3  0  0  0  0  0  0
  189.2090  177.6670  136.9410 C   0  0  1  0  0  3  0  0  0  0  0  0
  187.5470  177.3390  135.2400 C   0  0  0  0  0  2  0  0  0  0  0  0
  1  8  1  0  0  0  0
  1  6  2  0  0  0  0
  3 10  1  0  0  0  0
  4 18  1  6  0  0  0
  5 15  1  0  0  0  0
  6 14  1  0  0  0  0
  7  2  1  0  0  0  0
  8  9  2  0  0  0  0
  9  5  1  0  0  0  0
  9 12  1  0  0  0  0
 11  4  1  0  0  0  0
 12  7  2  0  0  0  0
 13  6  1  0  0  0  0
 13 17  2  0  0  0  0
 14  3  2  0  0  0  0
 14 12  1  0  0  0  0
 15  4  1  0  0  0  0
 15  2  2  0  0  0  0
 16  5  1  0  0  0  0
 16 11  1  0  0  0  0
 17  3  1  0  0  0  0
 18 19  1  0  0  0  0
 19 20  1  0  0  0  0
 21  8  1  0  0  0  0
 22 21  1  0  0  0  0
 23 22  1  0  0  0  0
 24 23  1  0  0  0  0
 25 28  1  0  0  0  0
 28 27  1  0  0  0  0
 28 24  1  1  0  0  0
 30 26  1  6  0  0  0
 30 27  1  0  0  0  0
 31 29  1  6  0  0  0
 31 30  1  0  0  0  0
 31 25  1  0  0  0  0
 32 29  1  0  0  0  0
 32 26  1  0  0  0  0
M  END
>  <MODEL>
3

>  <REMARK>
 VINA RESULT:      -9.9      2.326      2.848
  Name = 
  7 active torsions:
  status: ('A' for Active; 'I' for Inactive)
    1  A    between atoms: O_3  and  N_4
    2  A    between atoms: O_3  and  C_12
    3  A    between atoms: C_5  and  C_16
    4  A    between atoms: C_5  and  C_28
    5  A    between atoms: C_8  and  C_25
    6  A    between atoms: N_20  and  C_25
    7  A    between atoms: N_20  and  C_28
                            x       y       z     vdW  Elec       q    Type
                         _______ _______ _______ _____ _____    ______ ____

>  <TORSDO>
F 7

$$$$
=
 OpenBabel10232408193D

 32 37  0  0  1  0  0  0  0  0999 V2000
  186.1730  178.1760  142.4670 C   0  0  0  0  0  3  0  0  0  0  0  0
  188.7640  177.1400  146.7170 C   0  0  0  0  0  3  0  0  0  0  0  0
  184.6850  178.6010  145.6470 C   0  0  0  0  0  0  0  0  0  0  0  0
  191.0020  176.4020  145.6750 C   0  0  2  0  0  3  0  0  0  0  0  0
  189.1750  177.0740  144.3700 N   0  0  0  0  0  0  0  0  0  0  0  0
  185.3350  178.4380  143.5460 C   0  0  0  0  0  0  0  0  0  0  0  0
  187.4680  177.6000  146.4630 C   0  0  0  0  0  3  0  0  0  0  0  0
  187.4780  177.7150  142.7180 C   0  0  0  0  0  0  0  0  0  0  0  0
  187.9190  177.5190  144.0610 C   0  0  0  0  0  0  0  0  0  0  0  0
  184.6660  178.5650  147.0700 N   0  0  0  0  0  1  0  0  0  0  0  0
  191.3520  176.3090  144.1760 C   0  0  0  0  0  2  0  0  0  0  0  0
  187.0320  177.7960  145.1410 C   0  0  0  0  0  0  0  0  0  0  0  0
  184.0310  178.8940  143.5230 C   0  0  0  0  0  3  0  0  0  0  0  0
  185.7460  178.2560  144.8400 C   0  0  0  0  0  0  0  0  0  0  0  0
  189.5960  176.8880  145.6290 C   0  0  0  0  0  0  0  0  0  0  0  0
  190.1790  176.7510  143.4990 O   0  0  0  0  0  0  0  0  0  0  0  0
  183.6210  178.9980  144.8520 C   0  0  0  0  0  3  0  0  0  0  0  0
  191.8130  177.3630  146.2810 O   0  0  0  0  0  0  0  0  0  0  0  0
  191.9260  176.9540  147.5660 N   0  0  0  0  0  2  0  0  0  0  0  0
  192.5050  175.6240  147.5320 C   0  0  0  0  0  1  0  0  0  0  0  0
  188.3430  177.4160  141.5390 C   0  0  0  0  0  2  0  0  0  0  0  0
  188.7950  178.7090  140.8830 C   0  0  0  0  0  2  0  0  0  0  0  0
  188.4190  178.7040  139.4800 N   0  0  0  0  0  2  0  0  0  0  0  0
  189.2960  177.7590  138.8030 C   0  0  0  0  0  2  0  0  0  0  0  0
  188.2460  175.8160  137.5810 C   0  0  0  0  0  2  0  0  0  0  0  0
  184.6670  176.8490  136.2920 S   0  0  0  0  0  0  0  0  0  0  0  0
  187.2480  178.3360  136.9980 S   0  0  0  0  0  0  0  0  0  0  0  0
  188.6800  177.2840  137.4930 C   0  0  1  0  0  3  0  0  0  0  0  0
  186.0710  174.5720  136.9930 C   0  0  0  0  0  2  0  0  0  0  0  0
  186.1820  176.9090  137.2610 C   0  0  2  0  0  3  0  0  0  0  0  0
  186.9720  175.7550  136.7910 C   0  0  1  0  0  3  0  0  0  0  0  0
  184.7180  175.0120  136.4250 C   0  0  0  0  0  2  0  0  0  0  0  0
  1  8  1  0  0  0  0
  1  6  2  0  0  0  0
  3 10  1  0  0  0  0
  4 18  1  1  0  0  0
  5 15  1  0  0  0  0
  6 14  1  0  0  0  0
  7  2  1  0  0  0  0
  8  9  2  0  0  0  0
  9  5  1  0  0  0  0
  9 12  1  0  0  0  0
 11  4  1  0  0  0  0
 12  7  2  0  0  0  0
 13  6  1  0  0  0  0
 13 17  2  0  0  0  0
 14 12  1  0  0  0  0
 14  3  2  0  0  0  0
 15  4  1  0  0  0  0
 15  2  2  0  0  0  0
 16 11  1  0  0  0  0
 16  5  1  0  0  0  0
 17  3  1  0  0  0  0
 18 19  1  0  0  0  0
 20 19  1  0  0  0  0
 21  8  1  0  0  0  0
 22 21  1  0  0  0  0
 23 22  1  0  0  0  0
 24 23  1  0  0  0  0
 26 32  1  0  0  0  0
 27 30  1  0  0  0  0
 27 28  1  0  0  0  0
 28 25  1  0  0  0  0
 28 24  1  1  0  0  0
 30 26  1  6  0  0  0
 31 29  1  1  0  0  0
 31 30  1  0  0  0  0
 31 25  1  0  0  0  0
 32 29  1  0  0  0  0
M  END
>  <MODEL>
4

>  <REMARK>
 VINA RESULT:      -9.8      2.352      3.135
  Name = 
  7 active torsions:
  status: ('A' for Active; 'I' for Inactive)
    1  A    between atoms: O_3  and  N_4
    2  A    between atoms: O_3  and  C_12
    3  A    between atoms: C_5  and  C_16
    4  A    between atoms: C_5  and  C_28
    5  A    between atoms: C_8  and  C_25
    6  A    between atoms: N_20  and  C_25
    7  A    between atoms: N_20  and  C_28
                            x       y       z     vdW  Elec       q    Type
                         _______ _______ _______ _____ _____    ______ ____

>  <TORSDO>
F 7

$$$$
=
 OpenBabel10232408193D

 32 37  0  0  1  0  0  0  0  0999 V2000
  189.1720  177.0000  144.2890 C   0  0  0  0  0  3  0  0  0  0  0  0
  184.8550  179.0040  146.0780 C   0  0  0  0  0  3  0  0  0  0  0  0
  188.7730  177.6610  147.7410 C   0  0  0  0  0  0  0  0  0  0  0  0
  183.5380  179.2020  143.8720 C   0  0  2  0  0  3  0  0  0  0  0  0
  185.7170  178.3420  143.9570 N   0  0  0  0  0  0  0  0  0  0  0  0
  189.3110  177.1410  145.6660 C   0  0  0  0  0  0  0  0  0  0  0  0
  186.0560  178.6060  146.6740 C   0  0  0  0  0  3  0  0  0  0  0  0
  187.9650  177.3970  143.6860 C   0  0  0  0  0  0  0  0  0  0  0  0
  186.9120  177.9390  144.4830 C   0  0  0  0  0  0  0  0  0  0  0  0
  188.0600  178.1140  148.8860 N   0  0  0  0  0  1  0  0  0  0  0  0
  184.0180  178.8200  142.4570 C   0  0  0  0  0  2  0  0  0  0  0  0
  187.0930  178.0710  145.8910 C   0  0  0  0  0  0  0  0  0  0  0  0
  190.4000  176.8160  146.4520 C   0  0  0  0  0  3  0  0  0  0  0  0
  188.3090  177.6590  146.4440 C   0  0  0  0  0  0  0  0  0  0  0  0
  184.7240  178.8510  144.7000 C   0  0  0  0  0  0  0  0  0  0  0  0
  185.3330  178.3040  142.6450 O   0  0  0  0  0  0  0  0  0  0  0  0
  190.0590  177.1440  147.7630 C   0  0  0  0  0  3  0  0  0  0  0  0
  182.4580  178.3930  144.2300 O   0  0  0  0  0  0  0  0  0  0  0  0
  181.4530  178.7820  143.4110 N   0  0  0  0  0  2  0  0  0  0  0  0
  180.2120  178.4120  144.0670 C   0  0  0  0  0  1  0  0  0  0  0  0
  187.8560  177.2580  142.2030 C   0  0  0  0  0  2  0  0  0  0  0  0
  188.6920  178.3230  141.5170 C   0  0  0  0  0  2  0  0  0  0  0  0
  188.0690  178.7030  140.2620 N   0  0  0  0  0  2  0  0  0  0  0  0
  188.2960  177.6130  139.3230 C   0  0  0  0  0  2  0  0  0  0  0  0
  190.6370  176.7360  138.9790 C   0  0  0  0  0  2  0  0  0  0  0  0
  191.1780  175.8850  135.1680 S   0  0  0  0  0  0  0  0  0  0  0  0
  189.3570  177.7720  136.7480 S   0  0  0  0  0  0  0  0  0  0  0  0
  189.6100  177.8000  138.5740 C   0  0  1  0  0  3  0  0  0  0  0  0
  192.1600  175.1460  137.6460 C   0  0  0  0  0  2  0  0  0  0  0  0
  190.3010  176.2390  136.6990 C   0  0  2  0  0  3  0  0  0  0  0  0
  191.3650  176.4170  137.7050 C   0  0  1  0  0  3  0  0  0  0  0  0
  192.3850  174.8990  136.1510 C   0  0  0  0  0  2  0  0  0  0  0  0
  1  6  2  0  0  0  0
  2  7  1  0  0  0  0
  3 17  1  0  0  0  0
  3 10  1  0  0  0  0
  4 18  1  1  0  0  0
  4 15  1  0  0  0  0
  5  9  1  0  0  0  0
  5 15  1  0  0  0  0
  6 14  1  0  0  0  0
  6 13  1  0  0  0  0
  8  1  1  0  0  0  0
  8  9  2  0  0  0  0
  9 12  1  0  0  0  0
 11 16  1  0  0  0  0
 11  4  1  0  0  0  0
 12 14  1  0  0  0  0
 12  7  2  0  0  0  0
 13 17  2  0  0  0  0
 14  3  2  0  0  0  0
 15  2  2  0  0  0  0
 16  5  1  0  0  0  0
 19 20  1  0  0  0  0
 19 18  1  0  0  0  0
 21  8  1  0  0  0  0
 22 21  1  0  0  0  0
 23 22  1  0  0  0  0
 24 23  1  0  0  0  0
 26 32  1  0  0  0  0
 27 28  1  0  0  0  0
 28 25  1  0  0  0  0
 28 24  1  1  0  0  0
 30 26  1  6  0  0  0
 30 27  1  0  0  0  0
 30 31  1  0  0  0  0
 31 29  1  1  0  0  0
 31 25  1  0  0  0  0
 32 29  1  0  0  0  0
M  END
>  <MODEL>
5

>  <REMARK>
 VINA RESULT:      -9.5      2.477      5.182
  Name = 
  7 active torsions:
  status: ('A' for Active; 'I' for Inactive)
    1  A    between atoms: O_3  and  N_4
    2  A    between atoms: O_3  and  C_12
    3  A    between atoms: C_5  and  C_16
    4  A    between atoms: C_5  and  C_28
    5  A    between atoms: C_8  and  C_25
    6  A    between atoms: N_20  and  C_25
    7  A    between atoms: N_20  and  C_28
                            x       y       z     vdW  Elec       q    Type
                         _______ _______ _______ _____ _____    ______ ____

>  <TORSDO>
F 7

$$$$
=
 OpenBabel10232408193D

 32 37  0  0  1  0  0  0  0  0999 V2000
  190.4570  177.1180  143.6980 C   0  0  0  0  0  3  0  0  0  0  0  0
  185.6670  178.4080  144.8130 C   0  0  0  0  0  3  0  0  0  0  0  0
  189.2870  177.0380  147.0350 C   0  0  0  0  0  0  0  0  0  0  0  0
  184.8170  178.9540  142.4420 C   0  0  2  0  0  3  0  0  0  0  0  0
  187.0150  178.2500  142.8530 N   0  0  0  0  0  0  0  0  0  0  0  0
  190.2940  176.9880  145.0740 C   0  0  0  0  0  0  0  0  0  0  0  0
  186.7580  177.9840  145.5790 C   0  0  0  0  0  3  0  0  0  0  0  0
  189.3620  177.5420  142.9230 C   0  0  0  0  0  0  0  0  0  0  0  0
  188.1150  177.8350  143.5500 C   0  0  0  0  0  0  0  0  0  0  0  0
  188.3080  177.2000  148.0550 N   0  0  0  0  0  1  0  0  0  0  0  0
  185.6170  178.9000  141.1250 C   0  0  0  0  0  2  0  0  0  0  0  0
  187.9860  177.6930  144.9630 C   0  0  0  0  0  0  0  0  0  0  0  0
  191.2290  176.5890  146.0100 C   0  0  0  0  0  3  0  0  0  0  0  0
  189.1020  177.2650  145.6900 C   0  0  0  0  0  0  0  0  0  0  0  0
  185.8390  178.5270  143.4360 C   0  0  0  0  0  0  0  0  0  0  0  0
  186.9150  178.4510  141.5040 O   0  0  0  0  0  0  0  0  0  0  0  0
  190.5910  176.6200  147.2500 C   0  0  0  0  0  3  0  0  0  0  0  0
  183.7850  178.0140  142.3960 O   0  0  0  0  0  0  0  0  0  0  0  0
  182.6560  178.7510  142.2770 N   0  0  0  0  0  2  0  0  0  0  0  0
  182.1100  178.8990  143.6150 C   0  0  0  0  0  1  0  0  0  0  0  0
  189.5770  177.6980  141.4540 C   0  0  0  0  0  2  0  0  0  0  0  0
  190.8360  176.9640  141.0300 C   0  0  0  0  0  2  0  0  0  0  0  0
  190.5600  176.1560  139.8560 N   0  0  0  0  0  2  0  0  0  0  0  0
  191.2170  176.8000  138.7260 C   0  0  0  0  0  2  0  0  0  0  0  0
  189.4460  175.6850  137.3160 C   0  0  0  0  0  2  0  0  0  0  0  0
  186.1340  177.8190  137.4310 S   0  0  0  0  0  0  0  0  0  0  0  0
  189.1160  178.3930  137.8130 S   0  0  0  0  0  0  0  0  0  0  0  0
  190.2550  176.9650  137.5560 C   0  0  1  0  0  3  0  0  0  0  0  0
  186.9360  175.2070  137.0040 C   0  0  0  0  0  2  0  0  0  0  0  0
  187.7570  177.2160  137.9180 C   0  0  2  0  0  3  0  0  0  0  0  0
  188.0810  176.1730  136.9260 C   0  0  1  0  0  3  0  0  0  0  0  0
  185.6830  176.0880  136.9890 C   0  0  0  0  0  2  0  0  0  0  0  0
  1  6  2  0  0  0  0
  2  7  1  0  0  0  0
  3 17  1  0  0  0  0
  3 10  1  0  0  0  0
  4 18  1  6  0  0  0
  4 15  1  0  0  0  0
  5 15  1  0  0  0  0
  5  9  1  0  0  0  0
  6 14  1  0  0  0  0
  6 13  1  0  0  0  0
  8  9  2  0  0  0  0
  8  1  1  0  0  0  0
  9 12  1  0  0  0  0
 11 16  1  0  0  0  0
 11  4  1  0  0  0  0
 12  7  2  0  0  0  0
 12 14  1  0  0  0  0
 13 17  2  0  0  0  0
 14  3  2  0  0  0  0
 15  2  2  0  0  0  0
 16  5  1  0  0  0  0
 19 18  1  0  0  0  0
 19 20  1  0  0  0  0
 21  8  1  0  0  0  0
 22 21  1  0  0  0  0
 23 22  1  0  0  0  0
 24 23  1  0  0  0  0
 25 28  1  0  0  0  0
 27 30  1  0  0  0  0
 28 27  1  0  0  0  0
 28 24  1  1  0  0  0
 30 26  1  6  0  0  0
 31 29  1  1  0  0  0
 31 25  1  0  0  0  0
 31 30  1  0  0  0  0
 32 29  1  0  0  0  0
 32 26  1  0  0  0  0
M  END
>  <MODEL>
6

>  <REMARK>
 VINA RESULT:      -9.4      2.737      5.580
  Name = 
  7 active torsions:
  status: ('A' for Active; 'I' for Inactive)
    1  A    between atoms: O_3  and  N_4
    2  A    between atoms: O_3  and  C_12
    3  A    between atoms: C_5  and  C_16
    4  A    between atoms: C_5  and  C_28
    5  A    between atoms: C_8  and  C_25
    6  A    between atoms: N_20  and  C_25
    7  A    between atoms: N_20  and  C_28
                            x       y       z     vdW  Elec       q    Type
                         _______ _______ _______ _____ _____    ______ ____

>  <TORSDO>
F 7

$$$$
=
 OpenBabel10232408193D

 32 37  0  0  1  0  0  0  0  0999 V2000
  189.4320  177.0610  144.3530 C   0  0  0  0  0  3  0  0  0  0  0  0
  185.0520  178.9530  146.1090 C   0  0  0  0  0  3  0  0  0  0  0  0
  188.9580  177.6250  147.8120 C   0  0  0  0  0  0  0  0  0  0  0  0
  183.7750  179.1890  143.8840 C   0  0  2  0  0  3  0  0  0  0  0  0
  185.9640  178.3590  143.9880 N   0  0  0  0  0  0  0  0  0  0  0  0
  189.5430  177.1680  145.7350 C   0  0  0  0  0  0  0  0  0  0  0  0
  186.2480  178.5580  146.7180 C   0  0  0  0  0  3  0  0  0  0  0  0
  188.2310  177.4560  143.7360 C   0  0  0  0  0  0  0  0  0  0  0  0
  187.1560  177.9600  144.5270 C   0  0  0  0  0  0  0  0  0  0  0  0
  188.2170  178.0380  148.9550 N   0  0  0  0  0  1  0  0  0  0  0  0
  184.2870  178.8510  142.4690 C   0  0  0  0  0  2  0  0  0  0  0  0
  187.3070  178.0580  145.9410 C   0  0  0  0  0  0  0  0  0  0  0  0
  190.6230  176.8390  146.5330 C   0  0  0  0  0  3  0  0  0  0  0  0
  188.5190  177.6500  146.5070 C   0  0  0  0  0  0  0  0  0  0  0  0
  184.9500  178.8340  144.7250 C   0  0  0  0  0  0  0  0  0  0  0  0
  185.6060  178.3500  142.6690 O   0  0  0  0  0  0  0  0  0  0  0  0
  190.2520  177.1280  147.8460 C   0  0  0  0  0  3  0  0  0  0  0  0
  182.7000  178.3550  144.2000 O   0  0  0  0  0  0  0  0  0  0  0  0
  181.6870  178.7890  143.4130 N   0  0  0  0  0  2  0  0  0  0  0  0
  180.4530  178.4460  144.0960 C   0  0  0  0  0  1  0  0  0  0  0  0
  188.1530  177.3540  142.2490 C   0  0  0  0  0  2  0  0  0  0  0  0
  189.4740  176.8600  141.6900 C   0  0  0  0  0  2  0  0  0  0  0  0
  189.6290  177.3170  140.3200 N   0  0  0  0  0  2  0  0  0  0  0  0
  188.4470  178.1040  139.9940 C   0  0  0  0  0  2  0  0  0  0  0  0
  189.6610  177.9380  137.7880 C   0  0  0  0  0  2  0  0  0  0  0  0
  187.4130  176.0070  135.1890 S   0  0  0  0  0  0  0  0  0  0  0  0
  186.9030  177.6640  137.7130 S   0  0  0  0  0  0  0  0  0  0  0  0
  188.3910  178.4130  138.5030 C   0  0  1  0  0  3  0  0  0  0  0  0
  190.0840  176.5380  135.6700 C   0  0  0  0  0  2  0  0  0  0  0  0
  188.0100  176.5880  136.7840 C   0  0  2  0  0  3  0  0  0  0  0  0
  189.1760  177.4330  136.4610 C   0  0  1  0  0  3  0  0  0  0  0  0
  189.1680  175.8610  134.6460 C   0  0  0  0  0  2  0  0  0  0  0  0
  1  6  2  0  0  0  0
  2  7  1  0  0  0  0
  3 17  1  0  0  0  0
  3 10  1  0  0  0  0
  4 18  1  1  0  0  0
  4 15  1  0  0  0  0
  5  9  1  0  0  0  0
  5 15  1  0  0  0  0
  6 14  1  0  0  0  0
  6 13  1  0  0  0  0
  8  1  1  0  0  0  0
  8  9  2  0  0  0  0
  9 12  1  0  0  0  0
 11 16  1  0  0  0  0
 11  4  1  0  0  0  0
 12 14  1  0  0  0  0
 12  7  2  0  0  0  0
 13 17  2  0  0  0  0
 14  3  2  0  0  0  0
 15  2  2  0  0  0  0
 16  5  1  0  0  0  0
 19 20  1  0  0  0  0
 19 18  1  0  0  0  0
 21  8  1  0  0  0  0
 22 21  1  0  0  0  0
 23 22  1  0  0  0  0
 24 23  1  0  0  0  0
 25 28  1  0  0  0  0
 27 28  1  0  0  0  0
 28 24  1  1  0  0  0
 30 26  1  6  0  0  0
 30 27  1  0  0  0  0
 31 29  1  1  0  0  0
 31 30  1  0  0  0  0
 31 25  1  0  0  0  0
 32 26  1  0  0  0  0
 32 29  1  0  0  0  0
M  END
>  <MODEL>
7

>  <REMARK>
 VINA RESULT:      -9.3      2.890      5.466
  Name = 
  7 active torsions:
  status: ('A' for Active; 'I' for Inactive)
    1  A    between atoms: O_3  and  N_4
    2  A    between atoms: O_3  and  C_12
    3  A    between atoms: C_5  and  C_16
    4  A    between atoms: C_5  and  C_28
    5  A    between atoms: C_8  and  C_25
    6  A    between atoms: N_20  and  C_25
    7  A    between atoms: N_20  and  C_28
                            x       y       z     vdW  Elec       q    Type
                         _______ _______ _______ _____ _____    ______ ____

>  <TORSDO>
F 7

$$$$
=
 OpenBabel10232408193D

 32 37  0  0  1  0  0  0  0  0999 V2000
  187.0820  177.8760  145.3260 C   0  0  0  0  0  3  0  0  0  0  0  0
  191.4820  176.6200  143.1090 C   0  0  0  0  0  3  0  0  0  0  0  0
  189.9720  177.2390  147.2630 C   0  0  0  0  0  0  0  0  0  0  0  0
  190.7430  176.6880  140.6410 C   0  0  2  0  0  3  0  0  0  0  0  0
  189.2700  177.1580  142.4020 N   0  0  0  0  0  0  0  0  0  0  0  0
  188.0250  177.6910  146.3320 C   0  0  0  0  0  0  0  0  0  0  0  0
  191.0840  176.7940  144.4380 C   0  0  0  0  0  3  0  0  0  0  0  0
  187.4780  177.7040  143.9870 C   0  0  0  0  0  0  0  0  0  0  0  0
  188.8240  177.3390  143.6820 C   0  0  0  0  0  0  0  0  0  0  0  0
  191.3410  176.8970  147.4500 N   0  0  0  0  0  1  0  0  0  0  0  0
  189.3370  177.0050  140.0930 C   0  0  0  0  0  2  0  0  0  0  0  0
  189.7600  177.1560  144.7400 C   0  0  0  0  0  0  0  0  0  0  0  0
  187.8490  177.8100  147.6980 C   0  0  0  0  0  3  0  0  0  0  0  0
  189.3200  177.3420  146.0550 C   0  0  0  0  0  0  0  0  0  0  0  0
  190.5330  176.8160  142.1090 C   0  0  0  0  0  0  0  0  0  0  0  0
  188.5490  177.2820  141.2470 O   0  0  0  0  0  0  0  0  0  0  0  0
  189.0810  177.5250  148.2850 C   0  0  0  0  0  3  0  0  0  0  0  0
  191.6410  177.6660  140.2070 O   0  0  0  0  0  0  0  0  0  0  0  0
  192.7480  176.9770  139.8440 N   0  0  0  0  0  2  0  0  0  0  0  0
  192.5420  176.5470  138.4730 C   0  0  0  0  0  1  0  0  0  0  0  0
  186.4380  177.8830  142.9310 C   0  0  0  0  0  2  0  0  0  0  0  0
  185.1360  178.3500  143.5560 C   0  0  0  0  0  2  0  0  0  0  0  0
  184.4010  179.1670  142.6070 N   0  0  0  0  0  2  0  0  0  0  0  0
  183.7590  178.2600  141.6660 C   0  0  0  0  0  2  0  0  0  0  0  0
  185.2640  178.7890  139.7100 C   0  0  0  0  0  2  0  0  0  0  0  0
  183.9890  176.8680  136.5120 S   0  0  0  0  0  0  0  0  0  0  0  0
  182.7160  177.8760  139.1070 S   0  0  0  0  0  0  0  0  0  0  0  0
  183.8270  178.8080  140.2450 C   0  0  1  0  0  3  0  0  0  0  0  0
  186.3300  177.9330  137.5290 C   0  0  0  0  0  2  0  0  0  0  0  0
  184.1850  177.2820  138.2520 C   0  0  2  0  0  3  0  0  0  0  0  0
  185.1170  178.4260  138.2600 C   0  0  1  0  0  3  0  0  0  0  0  0
  185.7770  177.2490  136.2750 C   0  0  0  0  0  2  0  0  0  0  0  0
  1  6  2  0  0  0  0
  2  7  1  0  0  0  0
  3 10  1  0  0  0  0
  3 17  1  0  0  0  0
  4 18  1  6  0  0  0
  4 15  1  0  0  0  0
  5  9  1  0  0  0  0
  6 13  1  0  0  0  0
  7 12  2  0  0  0  0
  8  1  1  0  0  0  0
  9  8  2  0  0  0  0
  9 12  1  0  0  0  0
 11  4  1  0  0  0  0
 11 16  1  0  0  0  0
 12 14  1  0  0  0  0
 13 17  2  0  0  0  0
 14  6  1  0  0  0  0
 14  3  2  0  0  0  0
 15  5  1  0  0  0  0
 15  2  2  0  0  0  0
 16  5  1  0  0  0  0
 19 18  1  0  0  0  0
 20 19  1  0  0  0  0
 21 22  1  0  0  0  0
 21  8  1  0  0  0  0
 23 22  1  0  0  0  0
 24 23  1  0  0  0  0
 25 28  1  0  0  0  0
 27 28  1  0  0  0  0
 28 24  1  1  0  0  0
 30 26  1  6  0  0  0
 30 31  1  0  0  0  0
 30 27  1  0  0  0  0
 31 29  1  1  0  0  0
 31 25  1  0  0  0  0
 32 26  1  0  0  0  0
 32 29  1  0  0  0  0
M  END
>  <MODEL>
8

>  <REMARK>
 VINA RESULT:      -9.3      2.995      5.951
  Name = 
  7 active torsions:
  status: ('A' for Active; 'I' for Inactive)
    1  A    between atoms: O_3  and  N_4
    2  A    between atoms: O_3  and  C_12
    3  A    between atoms: C_5  and  C_16
    4  A    between atoms: C_5  and  C_28
    5  A    between atoms: C_8  and  C_25
    6  A    between atoms: N_20  and  C_25
    7  A    between atoms: N_20  and  C_28
                            x       y       z     vdW  Elec       q    Type
                         _______ _______ _______ _____ _____    ______ ____

>  <TORSDO>
F 7

$$$$
=
 OpenBabel10232408193D

 32 37  0  0  1  0  0  0  0  0999 V2000
  189.2030  177.0330  144.1720 C   0  0  0  0  0  3  0  0  0  0  0  0
  184.8880  178.9440  146.0630 C   0  0  0  0  0  3  0  0  0  0  0  0
  188.8460  177.6170  147.6420 C   0  0  0  0  0  0  0  0  0  0  0  0
  183.5380  179.1720  143.8790 C   0  0  2  0  0  3  0  0  0  0  0  0
  185.7280  178.3370  143.9160 N   0  0  0  0  0  0  0  0  0  0  0  0
  189.3600  177.1470  145.5500 C   0  0  0  0  0  0  0  0  0  0  0  0
  186.1020  178.5500  146.6330 C   0  0  0  0  0  3  0  0  0  0  0  0
  187.9830  177.4270  143.5940 C   0  0  0  0  0  0  0  0  0  0  0  0
  186.9360  177.9390  144.4170 C   0  0  0  0  0  0  0  0  0  0  0  0
  188.1430  178.0370  148.8060 N   0  0  0  0  0  1  0  0  0  0  0  0
  184.0020  178.8250  142.4500 C   0  0  0  0  0  2  0  0  0  0  0  0
  187.1340  178.0430  145.8240 C   0  0  0  0  0  0  0  0  0  0  0  0
  190.4650  176.8200  146.3130 C   0  0  0  0  0  3  0  0  0  0  0  0
  188.3640  177.6360  146.3520 C   0  0  0  0  0  0  0  0  0  0  0  0
  184.7390  178.8180  144.6830 C   0  0  0  0  0  0  0  0  0  0  0  0
  185.3260  178.3220  142.6080 O   0  0  0  0  0  0  0  0  0  0  0  0
  190.1380  177.1160  147.6360 C   0  0  0  0  0  3  0  0  0  0  0  0
  182.4730  178.3420  144.2350 O   0  0  0  0  0  0  0  0  0  0  0  0
  181.3870  178.9140  143.6640 N   0  0  0  0  0  2  0  0  0  0  0  0
  180.2340  178.1430  144.0930 C   0  0  0  0  0  1  0  0  0  0  0  0
  187.8550  177.3180  142.1100 C   0  0  0  0  0  2  0  0  0  0  0  0
  188.6720  178.4040  141.4350 C   0  0  0  0  0  2  0  0  0  0  0  0
  188.8740  178.0680  140.0370 N   0  0  0  0  0  2  0  0  0  0  0  0
  189.8560  176.9940  139.9910 C   0  0  0  0  0  2  0  0  0  0  0  0
  192.0990  176.8320  138.8450 C   0  0  0  0  0  2  0  0  0  0  0  0
  192.0770  173.7970  136.3300 S   0  0  0  0  0  0  0  0  0  0  0  0
  189.9560  175.6310  137.5580 S   0  0  0  0  0  0  0  0  0  0  0  0
  190.5850  176.9760  138.6520 C   0  0  1  0  0  3  0  0  0  0  0  0
  193.8770  175.2820  137.8140 C   0  0  0  0  0  2  0  0  0  0  0  0
  191.5660  174.8380  137.7050 C   0  0  2  0  0  3  0  0  0  0  0  0
  192.5370  175.9490  137.7120 C   0  0  1  0  0  3  0  0  0  0  0  0
  193.8280  174.1530  136.7800 C   0  0  0  0  0  2  0  0  0  0  0  0
  1  6  2  0  0  0  0
  2  7  1  0  0  0  0
  3 10  1  0  0  0  0
  4 18  1  1  0  0  0
  4 15  1  0  0  0  0
  5  9  1  0  0  0  0
  5 15  1  0  0  0  0
  6 13  1  0  0  0  0
  6 14  1  0  0  0  0
  8  1  1  0  0  0  0
  8  9  2  0  0  0  0
  9 12  1  0  0  0  0
 11 16  1  0  0  0  0
 11  4  1  0  0  0  0
 12 14  1  0  0  0  0
 12  7  2  0  0  0  0
 13 17  2  0  0  0  0
 14  3  2  0  0  0  0
 15  2  2  0  0  0  0
 16  5  1  0  0  0  0
 17  3  1  0  0  0  0
 19 20  1  0  0  0  0
 19 18  1  0  0  0  0
 21  8  1  0  0  0  0
 22 21  1  0  0  0  0
 23 22  1  0  0  0  0
 24 23  1  0  0  0  0
 26 32  1  0  0  0  0
 27 30  1  0  0  0  0
 27 28  1  0  0  0  0
 28 25  1  0  0  0  0
 28 24  1  1  0  0  0
 30 26  1  6  0  0  0
 30 31  1  0  0  0  0
 31 29  1  1  0  0  0
 31 25  1  0  0  0  0
 32 29  1  0  0  0  0
M  END
>  <MODEL>
9

>  <REMARK>
 VINA RESULT:      -9.3      2.337      5.062
  Name = 
  7 active torsions:
  status: ('A' for Active; 'I' for Inactive)
    1  A    between atoms: O_3  and  N_4
    2  A    between atoms: O_3  and  C_12
    3  A    between atoms: C_5  and  C_16
    4  A    between atoms: C_5  and  C_28
    5  A    between atoms: C_8  and  C_25
    6  A    between atoms: N_20  and  C_25
    7  A    between atoms: N_20  and  C_28
                            x       y       z     vdW  Elec       q    Type
                         _______ _______ _______ _____ _____    ______ ____

>  <TORSDO>
F 7

$$$$
