=
 OpenBabel10232409473D

 25 26  0  0  1  0  0  0  0  0999 V2000
  191.8810  177.7320  141.8890 C   0  0  0  0  0  2  0  0  0  0  0  0
  188.8810  177.6380  140.3900 C   0  0  0  0  0  0  0  0  0  0  0  0
  188.7250  177.6310  142.6570 N   0  0  0  0  0  2  0  0  0  0  0  0
  191.0470  177.3660  142.9880 N   0  0  0  0  0  0  0  0  0  0  0  0
  190.0430  176.8600  140.9120 C   0  0  1  0  0  3  0  0  0  0  0  0
  191.3410  177.5080  140.7300 N   0  0  0  0  0  2  0  0  0  0  0  0
  188.1060  177.9640  141.4240 C   0  0  0  0  0  0  0  0  0  0  0  0
  189.8220  177.0090  142.3680 C   0  0  2  0  0  3  0  0  0  0  0  0
  186.8870  178.8200  141.3570 C   0  0  0  0  0  1  0  0  0  0  0  0
  188.9820  179.0650  138.4800 N   0  0  0  0  0  2  0  0  0  0  0  0
  188.6280  177.9180  138.9620 C   0  0  0  0  0  0  0  0  0  0  0  0
  188.0950  176.8900  138.0450 C   0  0  0  0  0  0  0  0  0  0  0  0
  188.9340  175.8500  137.5510 N   0  0  0  0  0  1  0  0  0  0  0  0
  186.8980  176.9490  137.6590 O   0  0  0  0  0  0  0  0  0  0  0  0
  191.2100  177.8700  144.3480 C   0  0  0  0  0  2  0  0  0  0  0  0
  191.6700  176.7670  145.2950 C   0  0  2  0  0  3  0  0  0  0  0  0
  191.8720  175.5830  144.5830 O   0  0  0  0  0  1  0  0  0  0  0  0
  190.6700  176.5480  146.4270 C   0  0  1  0  0  3  0  0  0  0  0  0
  191.2130  176.9380  147.6530 O   0  0  0  0  0  1  0  0  0  0  0  0
  189.4960  177.2640  146.1800 O   0  0  0  0  0  0  0  0  0  0  0  0
  189.0550  177.6640  147.4450 C   0  0  0  0  0  2  0  0  0  0  0  0
  187.5430  177.7920  147.4530 C   0  0  0  0  0  2  0  0  0  0  0  0
  187.0000  177.6700  146.0410 C   0  0  0  0  0  2  0  0  0  0  0  0
  185.8990  178.6910  145.8080 C   0  0  0  0  0  2  0  0  0  0  0  0
  184.9700  178.6810  146.9260 N   0  0  0  0  0  1  0  0  0  0  0  0
  1  4  1  0  0  0  0
  2  7  2  0  0  0  0
  4 15  1  0  0  0  0
  5  2  1  6  0  0  0
  5  8  1  0  0  0  0
  6  5  1  0  0  0  0
  6  1  1  0  0  0  0
  7  3  1  0  0  0  0
  8  3  1  6  0  0  0
  8  4  1  0  0  0  0
  9  7  1  0  0  0  0
 10 11  2  0  0  0  0
 11  2  1  0  0  0  0
 12 11  1  0  0  0  0
 13 12  1  0  0  0  0
 14 12  2  0  0  0  0
 15 16  1  0  0  0  0
 16 17  1  6  0  0  0
 16 18  1  0  0  0  0
 18 19  1  1  0  0  0
 20 18  1  0  0  0  0
 20 21  1  0  0  0  0
 21 22  1  0  0  0  0
 23 22  1  0  0  0  0
 24 23  1  0  0  0  0
 24 25  1  0  0  0  0
M  END
>  <MODEL>
1

>  <REMARK>
 VINA RESULT:      -6.7      0.000      0.000
  Name = 
  10 active torsions:
  status: ('A' for Active; 'I' for Inactive)
    1  A    between atoms: C_1  and  C_15
    2  A    between atoms: C_2  and  C_18
    3  A    between atoms: C_3  and  N_11
    4  A    between atoms: C_3  and  C_21
    5  A    between atoms: C_8  and  C_18
    6  A    between atoms: C_10  and  C_21
    7  A    between atoms: C_10  and  O_25
    8  A    between atoms: C_12  and  C_15
    9  A    between atoms: C_12  and  C_20
   10  A    between atoms: C_20  and  O_25
                            x       y       z     vdW  Elec       q    Type
                         _______ _______ _______ _____ _____    ______ ____

>  <TORSDO>
F 10

$$$$
=
 OpenBabel10232409473D

 25 26  0  0  1  0  0  0  0  0999 V2000
  186.9890  177.5920  143.2530 C   0  0  0  0  0  2  0  0  0  0  0  0
  190.0230  177.4410  144.6770 C   0  0  0  0  0  0  0  0  0  0  0  0
  190.0860  178.3070  142.5770 N   0  0  0  0  0  2  0  0  0  0  0  0
  187.8260  177.8060  142.1170 N   0  0  0  0  0  0  0  0  0  0  0  0
  188.9820  176.7330  143.8740 C   0  0  1  0  0  3  0  0  0  0  0  0
  187.6050  177.0430  144.2550 N   0  0  0  0  0  2  0  0  0  0  0  0
  190.6920  178.2530  143.8600 C   0  0  0  0  0  0  0  0  0  0  0  0
  189.1170  177.4510  142.5860 C   0  0  2  0  0  3  0  0  0  0  0  0
  191.7580  179.2110  144.2720 C   0  0  0  0  0  1  0  0  0  0  0  0
  189.3850  177.5480  146.9730 N   0  0  0  0  0  2  0  0  0  0  0  0
  190.2850  177.2050  146.1120 C   0  0  0  0  0  0  0  0  0  0  0  0
  191.4860  176.4830  146.5790 C   0  0  0  0  0  0  0  0  0  0  0  0
  192.0140  176.7130  147.8820 N   0  0  0  0  0  1  0  0  0  0  0  0
  192.0810  175.6830  145.8080 O   0  0  0  0  0  0  0  0  0  0  0  0
  187.5290  178.7480  141.0420 C   0  0  0  0  0  2  0  0  0  0  0  0
  186.3360  178.2820  140.2140 C   0  0  2  0  0  3  0  0  0  0  0  0
  186.6290  178.3950  138.8530 O   0  0  0  0  0  1  0  0  0  0  0  0
  185.0750  179.0700  140.5580 C   0  0  1  0  0  3  0  0  0  0  0  0
  184.7090  179.9090  139.5020 O   0  0  0  0  0  1  0  0  0  0  0  0
  184.0250  178.1980  140.8550 O   0  0  0  0  0  0  0  0  0  0  0  0
  184.0010  178.1390  142.2510 C   0  0  0  0  0  2  0  0  0  0  0  0
  182.8290  178.9400  142.7870 C   0  0  0  0  0  2  0  0  0  0  0  0
  182.7840  178.8540  144.3020 C   0  0  0  0  0  2  0  0  0  0  0  0
  184.1280  179.2460  144.8920 C   0  0  0  0  0  2  0  0  0  0  0  0
  184.2500  178.7180  146.2410 N   0  0  0  0  0  1  0  0  0  0  0  0
  1  6  1  0  0  0  0
  2 11  1  0  0  0  0
  3  7  1  0  0  0  0
  4  8  1  0  0  0  0
  4  1  1  0  0  0  0
  5  6  1  1  0  0  0
  5  2  1  0  0  0  0
  7  9  1  0  0  0  0
  7  2  2  0  0  0  0
  8  3  1  1  0  0  0
  8  5  1  0  0  0  0
 11 12  1  0  0  0  0
 11 10  2  0  0  0  0
 12 13  1  0  0  0  0
 14 12  2  0  0  0  0
 15  4  1  0  0  0  0
 16 17  1  6  0  0  0
 16 18  1  0  0  0  0
 16 15  1  0  0  0  0
 18 19  1  6  0  0  0
 18 20  1  0  0  0  0
 20 21  1  0  0  0  0
 21 22  1  0  0  0  0
 22 23  1  0  0  0  0
 23 24  1  0  0  0  0
 24 25  1  0  0  0  0
M  END
>  <MODEL>
2

>  <REMARK>
 VINA RESULT:      -6.6      2.526      6.607
  Name = 
  10 active torsions:
  status: ('A' for Active; 'I' for Inactive)
    1  A    between atoms: C_1  and  C_15
    2  A    between atoms: C_2  and  C_18
    3  A    between atoms: C_3  and  N_11
    4  A    between atoms: C_3  and  C_21
    5  A    between atoms: C_8  and  C_18
    6  A    between atoms: C_10  and  C_21
    7  A    between atoms: C_10  and  O_25
    8  A    between atoms: C_12  and  C_15
    9  A    between atoms: C_12  and  C_20
   10  A    between atoms: C_20  and  O_25
                            x       y       z     vdW  Elec       q    Type
                         _______ _______ _______ _____ _____    ______ ____

>  <TORSDO>
F 10

$$$$
=
 OpenBabel10232409473D

 25 26  0  0  1  0  0  0  0  0999 V2000
  188.2860  177.5050  142.2310 C   0  0  0  0  0  2  0  0  0  0  0  0
  188.8240  177.7660  138.9300 C   0  0  0  0  0  0  0  0  0  0  0  0
  190.3560  176.4430  139.9630 N   0  0  0  0  0  2  0  0  0  0  0  0
  189.6100  176.9820  142.1370 N   0  0  0  0  0  0  0  0  0  0  0  0
  189.0650  178.3430  140.2860 C   0  0  1  0  0  3  0  0  0  0  0  0
  187.9370  178.2240  141.2080 N   0  0  0  0  0  2  0  0  0  0  0  0
  189.6640  176.7450  138.7610 C   0  0  0  0  0  0  0  0  0  0  0  0
  190.0160  177.3440  140.8260 C   0  0  2  0  0  3  0  0  0  0  0  0
  189.6940  175.8350  137.5800 C   0  0  0  0  0  1  0  0  0  0  0  0
  188.2980  179.0890  137.0150 N   0  0  0  0  0  2  0  0  0  0  0  0
  187.8620  178.3030  137.9450 C   0  0  0  0  0  0  0  0  0  0  0  0
  186.4490  177.8760  137.9190 C   0  0  0  0  0  0  0  0  0  0  0  0
  185.4560  178.5980  138.6400 N   0  0  0  0  0  1  0  0  0  0  0  0
  186.1160  176.8370  137.2880 O   0  0  0  0  0  0  0  0  0  0  0  0
  190.1020  175.8440  142.9070 C   0  0  0  0  0  2  0  0  0  0  0  0
  191.3300  176.2220  143.7290 C   0  0  2  0  0  3  0  0  0  0  0  0
  192.0240  175.0700  144.1040 O   0  0  0  0  0  1  0  0  0  0  0  0
  190.9480  177.0430  144.9580 C   0  0  1  0  0  3  0  0  0  0  0  0
  191.0730  178.4100  144.7010 O   0  0  0  0  0  1  0  0  0  0  0  0
  189.6380  176.7520  145.3470 O   0  0  0  0  0  0  0  0  0  0  0  0
  189.3030  177.7680  146.2460 C   0  0  0  0  0  2  0  0  0  0  0  0
  187.9470  177.4880  146.8680 C   0  0  0  0  0  2  0  0  0  0  0  0
  186.8400  177.9750  145.9510 C   0  0  0  0  0  2  0  0  0  0  0  0
  185.9150  178.9220  146.6960 C   0  0  0  0  0  2  0  0  0  0  0  0
  184.5300  178.5980  146.3990 N   0  0  0  0  0  1  0  0  0  0  0  0
  4  1  1  0  0  0  0
  4 15  1  0  0  0  0
  5  2  1  6  0  0  0
  5  8  1  0  0  0  0
  5  6  1  0  0  0  0
  6  1  1  0  0  0  0
  7  2  2  0  0  0  0
  7  3  1  0  0  0  0
  8  3  1  6  0  0  0
  8  4  1  0  0  0  0
  9  7  1  0  0  0  0
 10 11  2  0  0  0  0
 11  2  1  0  0  0  0
 12 11  1  0  0  0  0
 12 13  1  0  0  0  0
 14 12  2  0  0  0  0
 15 16  1  0  0  0  0
 16 17  1  1  0  0  0
 16 18  1  0  0  0  0
 18 19  1  6  0  0  0
 18 20  1  0  0  0  0
 20 21  1  0  0  0  0
 21 22  1  0  0  0  0
 23 24  1  0  0  0  0
 23 22  1  0  0  0  0
 25 24  1  0  0  0  0
M  END
>  <MODEL>
3

>  <REMARK>
 VINA RESULT:      -6.5      1.459      2.436
  Name = 
  10 active torsions:
  status: ('A' for Active; 'I' for Inactive)
    1  A    between atoms: C_1  and  C_15
    2  A    between atoms: C_2  and  C_18
    3  A    between atoms: C_3  and  N_11
    4  A    between atoms: C_3  and  C_21
    5  A    between atoms: C_8  and  C_18
    6  A    between atoms: C_10  and  C_21
    7  A    between atoms: C_10  and  O_25
    8  A    between atoms: C_12  and  C_15
    9  A    between atoms: C_12  and  C_20
   10  A    between atoms: C_20  and  O_25
                            x       y       z     vdW  Elec       q    Type
                         _______ _______ _______ _____ _____    ______ ____

>  <TORSDO>
F 10

$$$$
=
 OpenBabel10232409473D

 25 26  0  0  1  0  0  0  0  0999 V2000
  186.5240  178.4280  141.0050 C   0  0  0  0  0  2  0  0  0  0  0  0
  189.7210  177.5200  141.4610 C   0  0  0  0  0  0  0  0  0  0  0  0
  188.4380  177.1500  143.3000 N   0  0  0  0  0  2  0  0  0  0  0  0
  186.5560  178.2740  142.4230 N   0  0  0  0  0  0  0  0  0  0  0  0
  188.7110  178.6190  141.5250 C   0  0  1  0  0  3  0  0  0  0  0  0
  187.6980  178.5760  140.4730 N   0  0  0  0  0  2  0  0  0  0  0  0
  189.5850  176.7720  142.5550 C   0  0  0  0  0  0  0  0  0  0  0  0
  187.9410  178.1920  142.7160 C   0  0  2  0  0  3  0  0  0  0  0  0
  190.3370  175.5170  142.8450 C   0  0  0  0  0  1  0  0  0  0  0  0
  191.9620  177.6500  140.6510 N   0  0  0  0  0  2  0  0  0  0  0  0
  190.7280  177.3630  140.3920 C   0  0  0  0  0  0  0  0  0  0  0  0
  190.3900  176.7780  139.0790 C   0  0  0  0  0  0  0  0  0  0  0  0
  189.8790  177.5920  138.0280 N   0  0  0  0  0  1  0  0  0  0  0  0
  190.5120  175.5380  138.8910 O   0  0  0  0  0  0  0  0  0  0  0  0
  185.4730  177.6940  143.2120 C   0  0  0  0  0  2  0  0  0  0  0  0
  184.8530  178.7290  144.1460 C   0  0  2  0  0  3  0  0  0  0  0  0
  184.9750  180.0040  143.5890 O   0  0  0  0  0  1  0  0  0  0  0  0
  185.4920  178.6850  145.5310 C   0  0  1  0  0  3  0  0  0  0  0  0
  184.5230  178.8100  146.5300 O   0  0  0  0  0  1  0  0  0  0  0  0
  186.1960  177.4900  145.7020 O   0  0  0  0  0  0  0  0  0  0  0  0
  186.9070  177.6670  146.8920 C   0  0  0  0  0  2  0  0  0  0  0  0
  188.3560  178.0010  146.5890 C   0  0  0  0  0  2  0  0  0  0  0  0
  189.2760  177.0060  147.2710 C   0  0  0  0  0  2  0  0  0  0  0  0
  190.5870  176.8930  146.5120 C   0  0  0  0  0  2  0  0  0  0  0  0
  191.6950  176.7990  147.4480 N   0  0  0  0  0  1  0  0  0  0  0  0
  1  4  1  0  0  0  0
  2  5  1  0  0  0  0
  2  7  2  0  0  0  0
  4  8  1  0  0  0  0
  4 15  1  0  0  0  0
  5  6  1  6  0  0  0
  5  8  1  0  0  0  0
  6  1  1  0  0  0  0
  7  9  1  0  0  0  0
  7  3  1  0  0  0  0
  8  3  1  6  0  0  0
 11 10  2  0  0  0  0
 11  2  1  0  0  0  0
 12 11  1  0  0  0  0
 13 12  1  0  0  0  0
 14 12  2  0  0  0  0
 15 16  1  0  0  0  0
 16 17  1  6  0  0  0
 16 18  1  0  0  0  0
 18 20  1  0  0  0  0
 18 19  1  1  0  0  0
 20 21  1  0  0  0  0
 22 21  1  0  0  0  0
 22 23  1  0  0  0  0
 24 23  1  0  0  0  0
 24 25  1  0  0  0  0
M  END
>  <MODEL>
4

>  <REMARK>
 VINA RESULT:      -6.3      2.519      4.441
  Name = 
  10 active torsions:
  status: ('A' for Active; 'I' for Inactive)
    1  A    between atoms: C_1  and  C_15
    2  A    between atoms: C_2  and  C_18
    3  A    between atoms: C_3  and  N_11
    4  A    between atoms: C_3  and  C_21
    5  A    between atoms: C_8  and  C_18
    6  A    between atoms: C_10  and  C_21
    7  A    between atoms: C_10  and  O_25
    8  A    between atoms: C_12  and  C_15
    9  A    between atoms: C_12  and  C_20
   10  A    between atoms: C_20  and  O_25
                            x       y       z     vdW  Elec       q    Type
                         _______ _______ _______ _____ _____    ______ ____

>  <TORSDO>
F 10

$$$$
=
 OpenBabel10232409473D

 25 26  0  0  1  0  0  0  0  0999 V2000
  187.4470  177.6380  142.7220 C   0  0  0  0  0  2  0  0  0  0  0  0
  189.0600  178.0550  139.8100 C   0  0  0  0  0  0  0  0  0  0  0  0
  190.4040  177.2190  141.4410 N   0  0  0  0  0  2  0  0  0  0  0  0
  188.8020  177.5140  143.1500 N   0  0  0  0  0  0  0  0  0  0  0  0
  188.6280  178.6710  141.1000 C   0  0  1  0  0  3  0  0  0  0  0  0
  187.3170  178.2320  141.5750 N   0  0  0  0  0  2  0  0  0  0  0  0
  190.1430  177.3160  140.0490 C   0  0  0  0  0  0  0  0  0  0  0  0
  189.5450  177.9820  142.0360 C   0  0  2  0  0  3  0  0  0  0  0  0
  190.8430  176.4570  139.0510 C   0  0  0  0  0  1  0  0  0  0  0  0
  188.9020  179.2210  137.7340 N   0  0  0  0  0  2  0  0  0  0  0  0
  188.4180  178.3000  138.5020 C   0  0  0  0  0  0  0  0  0  0  0  0
  187.3210  177.4500  137.9980 C   0  0  0  0  0  0  0  0  0  0  0  0
  185.9760  177.9190  137.9980 N   0  0  0  0  0  1  0  0  0  0  0  0
  187.5630  176.2790  137.6000 O   0  0  0  0  0  0  0  0  0  0  0  0
  189.2640  176.5590  144.1540 C   0  0  0  0  0  2  0  0  0  0  0  0
  190.3660  177.1590  145.0200 C   0  0  2  0  0  3  0  0  0  0  0  0
  191.6090  176.6610  144.6210 O   0  0  0  0  0  1  0  0  0  0  0  0
  190.1270  176.8790  146.5020 C   0  0  1  0  0  3  0  0  0  0  0  0
  191.3380  176.7050  147.1770 O   0  0  0  0  0  1  0  0  0  0  0  0
  189.4070  177.9260  147.0820 O   0  0  0  0  0  0  0  0  0  0  0  0
  188.4060  177.2960  147.8260 C   0  0  0  0  0  2  0  0  0  0  0  0
  187.0850  178.0180  147.6380 C   0  0  0  0  0  2  0  0  0  0  0  0
  186.9210  178.4410  146.1900 C   0  0  0  0  0  2  0  0  0  0  0  0
  185.4670  178.3160  145.7650 C   0  0  0  0  0  2  0  0  0  0  0  0
  184.5950  178.6100  146.8890 N   0  0  0  0  0  1  0  0  0  0  0  0
  1  4  1  0  0  0  0
  2  7  2  0  0  0  0
  4 15  1  0  0  0  0
  5  2  1  6  0  0  0
  5  6  1  0  0  0  0
  5  8  1  0  0  0  0
  6  1  1  0  0  0  0
  7  3  1  0  0  0  0
  8  3  1  6  0  0  0
  8  4  1  0  0  0  0
  9  7  1  0  0  0  0
 10 11  2  0  0  0  0
 11  2  1  0  0  0  0
 12 11  1  0  0  0  0
 13 12  1  0  0  0  0
 14 12  2  0  0  0  0
 15 16  1  0  0  0  0
 16 17  1  6  0  0  0
 16 18  1  0  0  0  0
 18 20  1  0  0  0  0
 18 19  1  1  0  0  0
 20 21  1  0  0  0  0
 22 21  1  0  0  0  0
 23 22  1  0  0  0  0
 24 23  1  0  0  0  0
 24 25  1  0  0  0  0
M  END
>  <MODEL>
5

>  <REMARK>
 VINA RESULT:      -6.3      1.262      2.155
  Name = 
  10 active torsions:
  status: ('A' for Active; 'I' for Inactive)
    1  A    between atoms: C_1  and  C_15
    2  A    between atoms: C_2  and  C_18
    3  A    between atoms: C_3  and  N_11
    4  A    between atoms: C_3  and  C_21
    5  A    between atoms: C_8  and  C_18
    6  A    between atoms: C_10  and  C_21
    7  A    between atoms: C_10  and  O_25
    8  A    between atoms: C_12  and  C_15
    9  A    between atoms: C_12  and  C_20
   10  A    between atoms: C_20  and  O_25
                            x       y       z     vdW  Elec       q    Type
                         _______ _______ _______ _____ _____    ______ ____

>  <TORSDO>
F 10

$$$$
=
 OpenBabel10232409473D

 25 26  0  0  1  0  0  0  0  0999 V2000
  188.1530  178.2360  141.4650 C   0  0  0  0  0  2  0  0  0  0  0  0
  186.6630  177.9680  144.4600 C   0  0  0  0  0  0  0  0  0  0  0  0
  188.4130  176.5360  144.2240 N   0  0  0  0  0  2  0  0  0  0  0  0
  188.7090  177.0060  141.9290 N   0  0  0  0  0  0  0  0  0  0  0  0
  186.6890  177.5310  143.0320 C   0  0  1  0  0  3  0  0  0  0  0  0
  187.0630  178.5770  142.0820 N   0  0  0  0  0  2  0  0  0  0  0  0
  187.6040  177.2880  145.1150 C   0  0  0  0  0  0  0  0  0  0  0  0
  187.8980  176.6760  143.0450 C   0  0  2  0  0  3  0  0  0  0  0  0
  187.9760  177.4850  146.5460 C   0  0  0  0  0  1  0  0  0  0  0  0
  185.0520  179.7110  144.2240 N   0  0  0  0  0  2  0  0  0  0  0  0
  185.7010  178.9350  145.0280 C   0  0  0  0  0  0  0  0  0  0  0  0
  185.3740  178.9580  146.4680 C   0  0  0  0  0  0  0  0  0  0  0  0
  185.9820  179.9070  147.3380 N   0  0  0  0  0  1  0  0  0  0  0  0
  184.5790  178.1050  146.9470 O   0  0  0  0  0  0  0  0  0  0  0  0
  190.0970  176.6020  141.7230 C   0  0  0  0  0  2  0  0  0  0  0  0
  191.0340  177.8040  141.7580 C   0  0  2  0  0  3  0  0  0  0  0  0
  192.0670  177.6290  140.8340 O   0  0  0  0  0  1  0  0  0  0  0  0
  191.5990  178.0320  143.1570 C   0  0  1  0  0  3  0  0  0  0  0  0
  190.8810  179.0260  143.8270 O   0  0  0  0  0  1  0  0  0  0  0  0
  191.5630  176.8450  143.8930 O   0  0  0  0  0  0  0  0  0  0  0  0
  191.6180  177.2560  145.2280 C   0  0  0  0  0  2  0  0  0  0  0  0
  191.6430  176.0470  146.1450 C   0  0  0  0  0  2  0  0  0  0  0  0
  191.6310  176.4910  147.5960 C   0  0  0  0  0  2  0  0  0  0  0  0
  192.7320  175.7870  148.3720 C   0  0  0  0  0  2  0  0  0  0  0  0
  193.3620  176.7190  149.2920 N   0  0  0  0  0  1  0  0  0  0  0  0
  1  4  1  0  0  0  0
  1  6  1  0  0  0  0
  2 11  1  0  0  0  0
  2  7  2  0  0  0  0
  3  7  1  0  0  0  0
  4  8  1  0  0  0  0
  5  6  1  6  0  0  0
  5  8  1  0  0  0  0
  5  2  1  0  0  0  0
  7  9  1  0  0  0  0
  8  3  1  1  0  0  0
 10 11  2  0  0  0  0
 11 12  1  0  0  0  0
 12 14  2  0  0  0  0
 12 13  1  0  0  0  0
 15 16  1  0  0  0  0
 15  4  1  0  0  0  0
 16 17  1  6  0  0  0
 16 18  1  0  0  0  0
 18 19  1  1  0  0  0
 18 20  1  0  0  0  0
 20 21  1  0  0  0  0
 21 22  1  0  0  0  0
 22 23  1  0  0  0  0
 23 24  1  0  0  0  0
 24 25  1  0  0  0  0
M  END
>  <MODEL>
6

>  <REMARK>
 VINA RESULT:      -6.3      2.476      5.688
  Name = 
  10 active torsions:
  status: ('A' for Active; 'I' for Inactive)
    1  A    between atoms: C_1  and  C_15
    2  A    between atoms: C_2  and  C_18
    3  A    between atoms: C_3  and  N_11
    4  A    between atoms: C_3  and  C_21
    5  A    between atoms: C_8  and  C_18
    6  A    between atoms: C_10  and  C_21
    7  A    between atoms: C_10  and  O_25
    8  A    between atoms: C_12  and  C_15
    9  A    between atoms: C_12  and  C_20
   10  A    between atoms: C_20  and  O_25
                            x       y       z     vdW  Elec       q    Type
                         _______ _______ _______ _____ _____    ______ ____

>  <TORSDO>
F 10

$$$$
=
 OpenBabel10232409473D

 25 26  0  0  1  0  0  0  0  0999 V2000
  186.1800  178.0900  143.7570 C   0  0  0  0  0  2  0  0  0  0  0  0
  189.3510  177.5290  144.7020 C   0  0  0  0  0  0  0  0  0  0  0  0
  189.1820  178.1100  142.5120 N   0  0  0  0  0  2  0  0  0  0  0  0
  186.8240  178.0020  142.4870 N   0  0  0  0  0  0  0  0  0  0  0  0
  188.0770  176.9450  144.1850 C   0  0  1  0  0  3  0  0  0  0  0  0
  186.8640  177.5570  144.7230 N   0  0  0  0  0  2  0  0  0  0  0  0
  189.9900  178.0940  143.6790 C   0  0  0  0  0  0  0  0  0  0  0  0
  188.0990  177.4640  142.7990 C   0  0  2  0  0  3  0  0  0  0  0  0
  191.2600  178.8710  143.7730 C   0  0  0  0  0  1  0  0  0  0  0  0
  189.0610  177.8570  147.0480 N   0  0  0  0  0  2  0  0  0  0  0  0
  189.8220  177.4200  146.0990 C   0  0  0  0  0  0  0  0  0  0  0  0
  191.0750  176.7210  146.4490 C   0  0  0  0  0  0  0  0  0  0  0  0
  191.6180  176.8140  147.7620 N   0  0  0  0  0  1  0  0  0  0  0  0
  191.6990  176.0690  145.5700 O   0  0  0  0  0  0  0  0  0  0  0  0
  186.5030  178.8480  141.3420 C   0  0  0  0  0  2  0  0  0  0  0  0
  185.0110  178.8100  141.0270 C   0  0  2  0  0  3  0  0  0  0  0  0
  184.4540  177.6230  141.5090 O   0  0  0  0  0  1  0  0  0  0  0  0
  184.7520  178.9550  139.5300 C   0  0  1  0  0  3  0  0  0  0  0  0
  184.4610  180.2820  139.2020 O   0  0  0  0  0  1  0  0  0  0  0  0
  185.8620  178.5200  138.8020 O   0  0  0  0  0  0  0  0  0  0  0  0
  185.3330  177.6660  137.8300 C   0  0  0  0  0  2  0  0  0  0  0  0
  186.3340  177.4740  136.7050 C   0  0  0  0  0  2  0  0  0  0  0  0
  187.7500  177.5970  137.2370 C   0  0  0  0  0  2  0  0  0  0  0  0
  188.4340  178.8160  136.6410 C   0  0  0  0  0  2  0  0  0  0  0  0
  189.0040  179.6320  137.7000 N   0  0  0  0  0  1  0  0  0  0  0  0
  1  6  1  0  0  0  0
  2 11  1  0  0  0  0
  3  7  1  0  0  0  0
  4  8  1  0  0  0  0
  4  1  1  0  0  0  0
  5  2  1  1  0  0  0
  5  6  1  0  0  0  0
  7  9  1  0  0  0  0
  7  2  2  0  0  0  0
  8  3  1  1  0  0  0
  8  5  1  0  0  0  0
 11 12  1  0  0  0  0
 11 10  2  0  0  0  0
 12 13  1  0  0  0  0
 14 12  2  0  0  0  0
 15  4  1  0  0  0  0
 16 15  1  0  0  0  0
 16 17  1  6  0  0  0
 18 19  1  1  0  0  0
 18 16  1  0  0  0  0
 20 18  1  0  0  0  0
 21 20  1  0  0  0  0
 22 23  1  0  0  0  0
 22 21  1  0  0  0  0
 24 23  1  0  0  0  0
 24 25  1  0  0  0  0
M  END
>  <MODEL>
7

>  <REMARK>
 VINA RESULT:      -6.0      2.478      7.784
  Name = 
  10 active torsions:
  status: ('A' for Active; 'I' for Inactive)
    1  A    between atoms: C_1  and  C_15
    2  A    between atoms: C_2  and  C_18
    3  A    between atoms: C_3  and  N_11
    4  A    between atoms: C_3  and  C_21
    5  A    between atoms: C_8  and  C_18
    6  A    between atoms: C_10  and  C_21
    7  A    between atoms: C_10  and  O_25
    8  A    between atoms: C_12  and  C_15
    9  A    between atoms: C_12  and  C_20
   10  A    between atoms: C_20  and  O_25
                            x       y       z     vdW  Elec       q    Type
                         _______ _______ _______ _____ _____    ______ ____

>  <TORSDO>
F 10

$$$$
=
 OpenBabel10232409473D

 25 26  0  0  1  0  0  0  0  0999 V2000
  188.1820  178.1320  140.6830 C   0  0  0  0  0  2  0  0  0  0  0  0
  189.3150  177.0970  137.6990 C   0  0  0  0  0  0  0  0  0  0  0  0
  190.4950  176.2220  139.4330 N   0  0  0  0  0  2  0  0  0  0  0  0
  189.4390  177.5720  141.0570 N   0  0  0  0  0  0  0  0  0  0  0  0
  189.3740  178.1400  138.7670 C   0  0  1  0  0  3  0  0  0  0  0  0
  188.0960  178.4160  139.4190 N   0  0  0  0  0  2  0  0  0  0  0  0
  190.0600  176.0640  138.0920 C   0  0  0  0  0  0  0  0  0  0  0  0
  190.1040  177.3940  139.8170 C   0  0  2  0  0  3  0  0  0  0  0  0
  190.2010  174.7710  137.3610 C   0  0  0  0  0  1  0  0  0  0  0  0
  189.2700  177.6340  135.3750 N   0  0  0  0  0  2  0  0  0  0  0  0
  188.6040  177.2470  136.4130 C   0  0  0  0  0  0  0  0  0  0  0  0
  187.1890  176.8550  136.2520 C   0  0  0  0  0  0  0  0  0  0  0  0
  186.3030  177.6370  135.4570 N   0  0  0  0  0  1  0  0  0  0  0  0
  186.7430  175.8430  136.8540 O   0  0  0  0  0  0  0  0  0  0  0  0
  189.6650  176.7990  142.2750 C   0  0  0  0  0  2  0  0  0  0  0  0
  190.6960  177.4730  143.1740 C   0  0  2  0  0  3  0  0  0  0  0  0
  191.9830  177.0750  142.8030 O   0  0  0  0  0  1  0  0  0  0  0  0
  190.4420  177.1630  144.6460 C   0  0  1  0  0  3  0  0  0  0  0  0
  191.5310  177.5470  145.4310 O   0  0  0  0  0  1  0  0  0  0  0  0
  189.2880  177.8170  145.0860 O   0  0  0  0  0  0  0  0  0  0  0  0
  188.8490  177.0620  146.1770 C   0  0  0  0  0  2  0  0  0  0  0  0
  187.7300  177.7900  146.8990 C   0  0  0  0  0  2  0  0  0  0  0  0
  186.4330  177.6590  146.1210 C   0  0  0  0  0  2  0  0  0  0  0  0
  185.3220  178.4280  146.8150 C   0  0  0  0  0  2  0  0  0  0  0  0
  184.3910  178.9510  145.8290 N   0  0  0  0  0  1  0  0  0  0  0  0
  1  4  1  0  0  0  0
  2  7  2  0  0  0  0
  4 15  1  0  0  0  0
  5  2  1  6  0  0  0
  5  6  1  0  0  0  0
  5  8  1  0  0  0  0
  6  1  1  0  0  0  0
  7  3  1  0  0  0  0
  8  3  1  6  0  0  0
  8  4  1  0  0  0  0
  9  7  1  0  0  0  0
 10 11  2  0  0  0  0
 11  2  1  0  0  0  0
 12 11  1  0  0  0  0
 12 14  2  0  0  0  0
 13 12  1  0  0  0  0
 15 16  1  0  0  0  0
 16 17  1  6  0  0  0
 16 18  1  0  0  0  0
 18 20  1  0  0  0  0
 18 19  1  1  0  0  0
 20 21  1  0  0  0  0
 21 22  1  0  0  0  0
 23 24  1  0  0  0  0
 23 22  1  0  0  0  0
 25 24  1  0  0  0  0
M  END
>  <MODEL>
8

>  <REMARK>
 VINA RESULT:      -6.0      1.781      2.883
  Name = 
  10 active torsions:
  status: ('A' for Active; 'I' for Inactive)
    1  A    between atoms: C_1  and  C_15
    2  A    between atoms: C_2  and  C_18
    3  A    between atoms: C_3  and  N_11
    4  A    between atoms: C_3  and  C_21
    5  A    between atoms: C_8  and  C_18
    6  A    between atoms: C_10  and  C_21
    7  A    between atoms: C_10  and  O_25
    8  A    between atoms: C_12  and  C_15
    9  A    between atoms: C_12  and  C_20
   10  A    between atoms: C_20  and  O_25
                            x       y       z     vdW  Elec       q    Type
                         _______ _______ _______ _____ _____    ______ ____

>  <TORSDO>
F 10

$$$$
=
 OpenBabel10232409473D

 25 26  0  0  1  0  0  0  0  0999 V2000
  186.6620  177.6600  143.2050 C   0  0  0  0  0  2  0  0  0  0  0  0
  185.7260  178.8630  140.2150 C   0  0  0  0  0  0  0  0  0  0  0  0
  187.9000  178.2010  140.2490 N   0  0  0  0  0  2  0  0  0  0  0  0
  187.9330  177.8400  142.5820 N   0  0  0  0  0  0  0  0  0  0  0  0
  186.2620  179.1700  141.5750 C   0  0  1  0  0  3  0  0  0  0  0  0
  185.7090  178.3440  142.6480 N   0  0  0  0  0  2  0  0  0  0  0  0
  186.7330  178.4090  139.4700 C   0  0  0  0  0  0  0  0  0  0  0  0
  187.6330  178.6280  141.4410 C   0  0  2  0  0  3  0  0  0  0  0  0
  186.6150  177.9020  138.0720 C   0  0  0  0  0  1  0  0  0  0  0  0
  184.0480  180.2090  139.1840 N   0  0  0  0  0  2  0  0  0  0  0  0
  184.3330  179.1010  139.7860 C   0  0  0  0  0  0  0  0  0  0  0  0
  183.2870  178.0660  139.9150 C   0  0  0  0  0  0  0  0  0  0  0  0
  182.8660  177.3100  138.7830 N   0  0  0  0  0  1  0  0  0  0  0  0
  182.7270  177.8720  141.0270 O   0  0  0  0  0  0  0  0  0  0  0  0
  189.0550  176.9170  142.7210 C   0  0  0  0  0  2  0  0  0  0  0  0
  190.3860  177.6280  142.5050 C   0  0  2  0  0  3  0  0  0  0  0  0
  191.0030  177.1430  141.3500 O   0  0  0  0  0  1  0  0  0  0  0  0
  191.3070  177.4710  143.7120 C   0  0  1  0  0  3  0  0  0  0  0  0
  191.8680  178.6980  144.0730 O   0  0  0  0  0  1  0  0  0  0  0  0
  190.6010  176.9360  144.7930 O   0  0  0  0  0  0  0  0  0  0  0  0
  191.5760  176.6860  145.7620 C   0  0  0  0  0  2  0  0  0  0  0  0
  190.9540  176.7080  147.1460 C   0  0  0  0  0  2  0  0  0  0  0  0
  189.4730  177.0300  147.0480 C   0  0  0  0  0  2  0  0  0  0  0  0
  189.0910  178.0730  148.0850 C   0  0  0  0  0  2  0  0  0  0  0  0
  187.8610  177.6800  148.7520 N   0  0  0  0  0  1  0  0  0  0  0  0
  4 15  1  0  0  0  0
  4  1  1  0  0  0  0
  5  2  1  6  0  0  0
  5  6  1  0  0  0  0
  6  1  1  0  0  0  0
  7  2  2  0  0  0  0
  7  3  1  0  0  0  0
  8  3  1  6  0  0  0
  8  5  1  0  0  0  0
  8  4  1  0  0  0  0
  9  7  1  0  0  0  0
 10 11  2  0  0  0  0
 11 12  1  0  0  0  0
 11  2  1  0  0  0  0
 12 14  2  0  0  0  0
 13 12  1  0  0  0  0
 16 17  1  6  0  0  0
 16 15  1  0  0  0  0
 16 18  1  0  0  0  0
 18 19  1  1  0  0  0
 18 20  1  0  0  0  0
 20 21  1  0  0  0  0
 21 22  1  0  0  0  0
 23 22  1  0  0  0  0
 23 24  1  0  0  0  0
 24 25  1  0  0  0  0
M  END
>  <MODEL>
9

>  <REMARK>
 VINA RESULT:      -6.0      2.797      4.017
  Name = 
  10 active torsions:
  status: ('A' for Active; 'I' for Inactive)
    1  A    between atoms: C_1  and  C_15
    2  A    between atoms: C_2  and  C_18
    3  A    between atoms: C_3  and  N_11
    4  A    between atoms: C_3  and  C_21
    5  A    between atoms: C_8  and  C_18
    6  A    between atoms: C_10  and  C_21
    7  A    between atoms: C_10  and  O_25
    8  A    between atoms: C_12  and  C_15
    9  A    between atoms: C_12  and  C_20
   10  A    between atoms: C_20  and  O_25
                            x       y       z     vdW  Elec       q    Type
                         _______ _______ _______ _____ _____    ______ ____

>  <TORSDO>
F 10

$$$$
