=
 OpenBabel10232408233D

 30 32  0  0  1  0  0  0  0  0999 V2000
  188.5350  177.8820  142.6180 C   0  0  2  0  0  3  0  0  0  0  0  0
  185.4380  179.2320  147.0830 N   0  0  0  0  0  0  0  0  0  0  0  0
  184.8970  178.3100  143.6840 C   0  0  0  0  0  3  0  0  0  0  0  0
  184.6740  179.2360  145.9130 N   0  0  0  0  0  2  0  0  0  0  0  0
  187.4710  177.7220  144.8250 C   0  0  0  0  0  3  0  0  0  0  0  0
  187.3170  177.8620  143.4960 C   0  0  0  0  0  0  0  0  0  0  0  0
  185.9580  178.0640  142.9070 C   0  0  0  0  0  3  0  0  0  0  0  0
  186.3760  178.3450  147.0100 C   0  0  0  0  0  3  0  0  0  0  0  0
  185.1180  178.3150  145.1320 C   0  0  2  0  0  3  0  0  0  0  0  0
  186.2710  177.5900  145.7260 C   0  0  1  0  0  3  0  0  0  0  0  0
  188.1880  178.3750  141.2550 C   0  0  0  0  0  3  0  0  0  0  0  0
  188.3040  177.5960  140.2280 N   0  0  0  0  0  0  0  0  0  0  0  0
  188.0180  178.0090  138.8840 C   0  0  0  0  0  0  0  0  0  0  0  0
  189.1970  178.6530  137.9300 S   0  0  0  0  0  0  0  0  0  0  0  0
  184.0020  177.8300  137.4760 C   0  0  0  0  0  3  0  0  0  0  0  0
  184.3680  178.6510  138.5420 C   0  0  0  0  0  0  0  0  0  0  0  0
  183.3480  179.5040  139.2080 C   0  0  0  0  0  1  0  0  0  0  0  0
  186.2940  177.0780  137.3160 C   0  0  0  0  0  3  0  0  0  0  0  0
  185.6580  178.6720  138.9740 N   0  0  0  0  0  0  0  0  0  0  0  0
  186.6290  177.9100  138.3930 C   0  0  0  0  0  0  0  0  0  0  0  0
  184.9750  177.0410  136.8600 C   0  0  0  0  0  3  0  0  0  0  0  0
  190.3750  176.1940  142.9170 C   0  0  0  0  0  3  0  0  0  0  0  0
  189.1390  176.5160  142.5180 C   0  0  0  0  0  3  0  0  0  0  0  0
  192.0680  177.8580  142.7360 O   0  0  0  0  0  0  0  0  0  0  0  0
  191.3810  177.1160  143.4840 C   0  0  0  0  0  0  0  0  0  0  0  0
  191.6080  177.1580  144.8940 N   0  0  0  0  0  2  0  0  0  0  0  0
  190.9080  176.2880  145.8270 C   0  0  0  0  0  2  0  0  0  0  0  0
  189.7540  177.4960  147.7950 C   0  0  0  0  0  1  0  0  0  0  0  0
  190.9660  176.8670  147.1990 C   0  0  0  0  0  0  0  0  0  0  0  0
  192.0160  176.8570  147.8210 O   0  0  0  0  0  0  0  0  0  0  0  0
  1 11  1  6  0  0  0
  1  6  1  0  0  0  0
  4  2  1  0  0  0  0
  6  5  2  0  0  0  0
  7  6  1  0  0  0  0
  7  3  2  0  0  0  0
  8  2  2  0  0  0  0
  9  3  1  6  0  0  0
  9 10  1  0  0  0  0
  9  4  1  0  0  0  0
 10  5  1  6  0  0  0
 10  8  1  0  0  0  0
 12 11  2  0  0  0  0
 13 12  1  0  0  0  0
 14 13  2  0  0  0  0
 15 16  1  0  0  0  0
 16 19  2  0  0  0  0
 16 17  1  0  0  0  0
 18 20  2  0  0  0  0
 20 13  1  0  0  0  0
 20 19  1  0  0  0  0
 21 18  1  0  0  0  0
 21 15  2  0  0  0  0
 22 25  1  0  0  0  0
 23  1  1  0  0  0  0
 23 22  2  0  0  0  0
 24 25  2  0  0  0  0
 25 26  1  0  0  0  0
 26 27  1  0  0  0  0
 27 29  1  0  0  0  0
 29 28  1  0  0  0  0
 29 30  2  0  0  0  0
M  END
>  <MODEL>
1

>  <REMARK>
 VINA RESULT:      -8.7      0.000      0.000
  Name = 
  8 active torsions:
  status: ('A' for Active; 'I' for Inactive)
    1  A    between atoms: C_1  and  C_24
    2  A    between atoms: C_4  and  C_18
    3  A    between atoms: C_5  and  C_24
    4  A    between atoms: N_10  and  C_15
    5  A    between atoms: C_15  and  C_17
    6  A    between atoms: C_19  and  C_23
    7  A    between atoms: C_19  and  N_29
    8  A    between atoms: C_22  and  C_24
                            x       y       z     vdW  Elec       q    Type
                         _______ _______ _______ _____ _____    ______ ____

>  <TORSDO>
F 8

$$$$
=
 OpenBabel10232408233D

 30 32  0  0  1  0  0  0  0  0999 V2000
  188.1340  177.3580  143.3940 C   0  0  2  0  0  3  0  0  0  0  0  0
  189.3670  178.5200  148.7310 N   0  0  0  0  0  0  0  0  0  0  0  0
  186.4590  177.8360  146.7890 C   0  0  0  0  0  3  0  0  0  0  0  0
  187.9940  178.6240  148.4910 N   0  0  0  0  0  2  0  0  0  0  0  0
  189.0050  177.0920  145.6750 C   0  0  0  0  0  3  0  0  0  0  0  0
  187.9410  177.3220  144.8830 C   0  0  0  0  0  0  0  0  0  0  0  0
  186.6000  177.6050  145.4780 C   0  0  0  0  0  3  0  0  0  0  0  0
  189.8920  177.6090  147.9780 C   0  0  0  0  0  3  0  0  0  0  0  0
  187.6640  177.7400  147.6150 C   0  0  2  0  0  3  0  0  0  0  0  0
  188.8330  176.9420  147.1640 C   0  0  1  0  0  3  0  0  0  0  0  0
  186.8190  177.4540  142.7000 C   0  0  0  0  0  3  0  0  0  0  0  0
  186.4800  178.5420  142.0850 N   0  0  0  0  0  0  0  0  0  0  0  0
  185.2200  178.7180  141.4230 C   0  0  0  0  0  0  0  0  0  0  0  0
  185.1450  178.9030  139.7870 S   0  0  0  0  0  0  0  0  0  0  0  0
  181.6420  178.8760  143.7280 C   0  0  0  0  0  3  0  0  0  0  0  0
  181.6130  178.7690  142.3380 C   0  0  0  0  0  0  0  0  0  0  0  0
  180.3100  178.6930  141.6240 C   0  0  0  0  0  1  0  0  0  0  0  0
  184.0570  178.9020  143.6390 C   0  0  0  0  0  3  0  0  0  0  0  0
  182.7760  178.7350  141.6330 N   0  0  0  0  0  0  0  0  0  0  0  0
  183.9950  178.8000  142.2430 C   0  0  0  0  0  0  0  0  0  0  0  0
  182.8740  178.9400  144.3800 C   0  0  0  0  0  3  0  0  0  0  0  0
  190.0740  176.1370  142.3590 C   0  0  0  0  0  3  0  0  0  0  0  0
  188.8610  176.1360  142.9240 C   0  0  0  0  0  3  0  0  0  0  0  0
  191.2560  178.1100  142.9720 O   0  0  0  0  0  0  0  0  0  0  0  0
  190.8990  177.3250  142.0570 C   0  0  0  0  0  0  0  0  0  0  0  0
  191.2810  177.6160  140.7110 N   0  0  0  0  0  2  0  0  0  0  0  0
  190.8570  176.8010  139.5820 C   0  0  0  0  0  2  0  0  0  0  0  0
  188.8610  178.4100  139.2810 C   0  0  0  0  0  1  0  0  0  0  0  0
  189.9610  177.5950  138.6950 C   0  0  0  0  0  0  0  0  0  0  0  0
  190.1080  177.5510  137.4840 O   0  0  0  0  0  0  0  0  0  0  0  0
  1 11  1  6  0  0  0
  1  6  1  0  0  0  0
  4  2  1  0  0  0  0
  6  7  1  0  0  0  0
  6  5  2  0  0  0  0
  7  3  2  0  0  0  0
  8  2  2  0  0  0  0
  9  3  1  6  0  0  0
  9  4  1  0  0  0  0
 10  5  1  6  0  0  0
 10  9  1  0  0  0  0
 10  8  1  0  0  0  0
 12 11  2  0  0  0  0
 13 12  1  0  0  0  0
 13 20  1  0  0  0  0
 14 13  2  0  0  0  0
 15 21  1  0  0  0  0
 16 15  2  0  0  0  0
 17 16  1  0  0  0  0
 18 21  2  0  0  0  0
 19 20  2  0  0  0  0
 19 16  1  0  0  0  0
 20 18  1  0  0  0  0
 22 23  2  0  0  0  0
 23  1  1  0  0  0  0
 25 22  1  0  0  0  0
 25 24  2  0  0  0  0
 26 25  1  0  0  0  0
 27 26  1  0  0  0  0
 29 28  1  0  0  0  0
 29 27  1  0  0  0  0
 30 29  2  0  0  0  0
M  END
>  <MODEL>
2

>  <REMARK>
 VINA RESULT:      -8.6      2.640      4.833
  Name = 
  8 active torsions:
  status: ('A' for Active; 'I' for Inactive)
    1  A    between atoms: C_1  and  C_24
    2  A    between atoms: C_4  and  C_18
    3  A    between atoms: C_5  and  C_24
    4  A    between atoms: N_10  and  C_15
    5  A    between atoms: C_15  and  C_17
    6  A    between atoms: C_19  and  C_23
    7  A    between atoms: C_19  and  N_29
    8  A    between atoms: C_22  and  C_24
                            x       y       z     vdW  Elec       q    Type
                         _______ _______ _______ _____ _____    ______ ____

>  <TORSDO>
F 8

$$$$
=
 OpenBabel10232408233D

 30 32  0  0  1  0  0  0  0  0999 V2000
  188.5490  177.5980  142.5060 C   0  0  2  0  0  3  0  0  0  0  0  0
  185.5380  179.2580  146.9260 N   0  0  0  0  0  0  0  0  0  0  0  0
  184.9590  178.4130  143.5130 C   0  0  0  0  0  3  0  0  0  0  0  0
  184.7990  179.3490  145.7430 N   0  0  0  0  0  2  0  0  0  0  0  0
  187.4350  177.5460  144.6940 C   0  0  0  0  0  3  0  0  0  0  0  0
  187.3200  177.7070  143.3630 C   0  0  0  0  0  0  0  0  0  0  0  0
  186.0020  178.0560  142.7520 C   0  0  0  0  0  3  0  0  0  0  0  0
  186.3760  178.2750  146.8630 C   0  0  0  0  0  3  0  0  0  0  0  0
  185.1540  178.3880  144.9640 C   0  0  2  0  0  3  0  0  0  0  0  0
  186.2120  177.5400  145.5740 C   0  0  1  0  0  3  0  0  0  0  0  0
  188.1880  177.7000  141.0630 C   0  0  0  0  0  3  0  0  0  0  0  0
  189.0250  177.3220  140.1510 N   0  0  0  0  0  0  0  0  0  0  0  0
  188.7610  177.4190  138.7450 C   0  0  0  0  0  0  0  0  0  0  0  0
  187.3060  177.9610  138.1940 S   0  0  0  0  0  0  0  0  0  0  0  0
  191.7760  176.0160  136.0820 C   0  0  0  0  0  3  0  0  0  0  0  0
  192.0280  176.2030  137.4410 C   0  0  0  0  0  0  0  0  0  0  0  0
  193.3740  175.8980  137.9960 C   0  0  0  0  0  1  0  0  0  0  0  0
  189.5080  176.7750  136.4370 C   0  0  0  0  0  3  0  0  0  0  0  0
  191.0460  176.6660  138.2590 N   0  0  0  0  0  0  0  0  0  0  0  0
  189.7950  176.9570  137.7970 C   0  0  0  0  0  0  0  0  0  0  0  0
  190.5050  176.3020  135.5810 C   0  0  0  0  0  3  0  0  0  0  0  0
  190.4700  176.1870  143.3080 C   0  0  0  0  0  3  0  0  0  0  0  0
  189.2560  176.3020  142.7550 C   0  0  0  0  0  3  0  0  0  0  0  0
  191.6190  178.2390  142.9450 O   0  0  0  0  0  0  0  0  0  0  0  0
  191.3480  177.2960  143.7320 C   0  0  0  0  0  0  0  0  0  0  0  0
  191.9280  177.2990  145.0380 N   0  0  0  0  0  2  0  0  0  0  0  0
  191.7240  176.2160  145.9890 C   0  0  0  0  0  2  0  0  0  0  0  0
  189.8360  177.1110  147.5050 C   0  0  0  0  0  1  0  0  0  0  0  0
  191.2720  176.7700  147.2960 C   0  0  0  0  0  0  0  0  0  0  0  0
  192.0820  176.9760  148.1850 O   0  0  0  0  0  0  0  0  0  0  0  0
  1 11  1  6  0  0  0
  1 23  1  0  0  0  0
  1  6  1  0  0  0  0
  4  2  1  0  0  0  0
  6  5  2  0  0  0  0
  7  6  1  0  0  0  0
  7  3  2  0  0  0  0
  8  2  2  0  0  0  0
  9  3  1  6  0  0  0
  9 10  1  0  0  0  0
  9  4  1  0  0  0  0
 10  5  1  6  0  0  0
 10  8  1  0  0  0  0
 12 11  2  0  0  0  0
 13 12  1  0  0  0  0
 14 13  2  0  0  0  0
 15 16  1  0  0  0  0
 16 17  1  0  0  0  0
 16 19  2  0  0  0  0
 18 20  2  0  0  0  0
 20 19  1  0  0  0  0
 20 13  1  0  0  0  0
 21 15  2  0  0  0  0
 21 18  1  0  0  0  0
 22 25  1  0  0  0  0
 23 22  2  0  0  0  0
 24 25  2  0  0  0  0
 25 26  1  0  0  0  0
 26 27  1  0  0  0  0
 27 29  1  0  0  0  0
 29 28  1  0  0  0  0
 29 30  2  0  0  0  0
M  END
>  <MODEL>
3

>  <REMARK>
 VINA RESULT:      -8.5      2.135      3.386
  Name = 
  8 active torsions:
  status: ('A' for Active; 'I' for Inactive)
    1  A    between atoms: C_1  and  C_24
    2  A    between atoms: C_4  and  C_18
    3  A    between atoms: C_5  and  C_24
    4  A    between atoms: N_10  and  C_15
    5  A    between atoms: C_15  and  C_17
    6  A    between atoms: C_19  and  C_23
    7  A    between atoms: C_19  and  N_29
    8  A    between atoms: C_22  and  C_24
                            x       y       z     vdW  Elec       q    Type
                         _______ _______ _______ _____ _____    ______ ____

>  <TORSDO>
F 8

$$$$
=
 OpenBabel10232408233D

 30 32  0  0  1  0  0  0  0  0999 V2000
  189.3810  177.7750  143.5130 C   0  0  2  0  0  3  0  0  0  0  0  0
  189.7690  175.9220  138.2430 N   0  0  0  0  0  0  0  0  0  0  0  0
  187.8710  178.3350  140.0530 C   0  0  0  0  0  3  0  0  0  0  0  0
  188.6260  176.7050  138.4250 N   0  0  0  0  0  2  0  0  0  0  0  0
  190.2910  177.3650  141.2690 C   0  0  0  0  0  3  0  0  0  0  0  0
  189.2950  177.8750  142.0170 C   0  0  0  0  0  0  0  0  0  0  0  0
  188.0880  178.4700  141.3670 C   0  0  0  0  0  3  0  0  0  0  0  0
  190.7260  176.3310  139.0110 C   0  0  0  0  0  3  0  0  0  0  0  0
  188.8950  177.6310  139.2780 C   0  0  2  0  0  3  0  0  0  0  0  0
  190.2940  177.5400  139.7730 C   0  0  1  0  0  3  0  0  0  0  0  0
  188.1740  178.3790  144.1450 C   0  0  0  0  0  3  0  0  0  0  0  0
  187.1450  177.6460  144.4260 N   0  0  0  0  0  0  0  0  0  0  0  0
  185.9390  178.1620  145.0060 C   0  0  0  0  0  0  0  0  0  0  0  0
  185.8160  178.3940  146.6330 S   0  0  0  0  0  0  0  0  0  0  0  0
  182.6270  178.8100  142.4070 C   0  0  0  0  0  3  0  0  0  0  0  0
  183.8740  178.4180  141.9210 C   0  0  0  0  0  0  0  0  0  0  0  0
  184.0680  178.2020  140.4620 C   0  0  0  0  0  1  0  0  0  0  0  0
  183.5410  178.8060  144.6450 C   0  0  0  0  0  3  0  0  0  0  0  0
  184.9130  178.2340  142.7780 N   0  0  0  0  0  0  0  0  0  0  0  0
  184.7820  178.4170  144.1240 C   0  0  0  0  0  0  0  0  0  0  0  0
  182.4630  179.0020  143.7800 C   0  0  0  0  0  3  0  0  0  0  0  0
  191.6030  177.8630  144.6880 C   0  0  0  0  0  3  0  0  0  0  0  0
  190.6100  178.4630  144.0200 C   0  0  0  0  0  3  0  0  0  0  0  0
  191.8550  175.5410  144.2270 O   0  0  0  0  0  0  0  0  0  0  0  0
  191.6580  176.4410  145.0840 C   0  0  0  0  0  0  0  0  0  0  0  0
  191.4590  176.0620  146.4470 N   0  0  0  0  0  2  0  0  0  0  0  0
  191.1580  177.0280  147.4930 C   0  0  0  0  0  2  0  0  0  0  0  0
  189.1300  178.3100  148.4450 C   0  0  0  0  0  1  0  0  0  0  0  0
  189.6840  177.2160  147.5990 C   0  0  0  0  0  0  0  0  0  0  0  0
  188.9290  176.4530  147.0190 O   0  0  0  0  0  0  0  0  0  0  0  0
  1 23  1  1  0  0  0
  1 11  1  0  0  0  0
  2  4  1  0  0  0  0
  2  8  2  0  0  0  0
  3  7  2  0  0  0  0
  4  9  1  0  0  0  0
  5  6  2  0  0  0  0
  6  1  1  0  0  0  0
  7  6  1  0  0  0  0
  9 10  1  0  0  0  0
  9  3  1  1  0  0  0
 10  8  1  6  0  0  0
 10  5  1  0  0  0  0
 11 12  2  0  0  0  0
 12 13  1  0  0  0  0
 13 14  2  0  0  0  0
 15 21  1  0  0  0  0
 16 15  2  0  0  0  0
 16 19  1  0  0  0  0
 17 16  1  0  0  0  0
 19 20  2  0  0  0  0
 20 18  1  0  0  0  0
 20 13  1  0  0  0  0
 21 18  2  0  0  0  0
 22 25  1  0  0  0  0
 23 22  2  0  0  0  0
 24 25  2  0  0  0  0
 25 26  1  0  0  0  0
 26 27  1  0  0  0  0
 27 29  1  0  0  0  0
 29 28  1  0  0  0  0
 30 29  2  0  0  0  0
M  END
>  <MODEL>
4

>  <REMARK>
 VINA RESULT:      -8.4      2.709      5.327
  Name = 
  8 active torsions:
  status: ('A' for Active; 'I' for Inactive)
    1  A    between atoms: C_1  and  C_24
    2  A    between atoms: C_4  and  C_18
    3  A    between atoms: C_5  and  C_24
    4  A    between atoms: N_10  and  C_15
    5  A    between atoms: C_15  and  C_17
    6  A    between atoms: C_19  and  C_23
    7  A    between atoms: C_19  and  N_29
    8  A    between atoms: C_22  and  C_24
                            x       y       z     vdW  Elec       q    Type
                         _______ _______ _______ _____ _____    ______ ____

>  <TORSDO>
F 8

$$$$
=
 OpenBabel10232408233D

 30 32  0  0  1  0  0  0  0  0999 V2000
  188.6720  177.6190  142.3910 C   0  0  2  0  0  3  0  0  0  0  0  0
  185.5390  179.1620  146.7680 N   0  0  0  0  0  0  0  0  0  0  0  0
  185.0570  178.4150  143.3170 C   0  0  0  0  0  3  0  0  0  0  0  0
  184.8350  179.2880  145.5680 N   0  0  0  0  0  2  0  0  0  0  0  0
  187.4960  177.5080  144.5430 C   0  0  0  0  0  3  0  0  0  0  0  0
  187.4200  177.7070  143.2150 C   0  0  0  0  0  0  0  0  0  0  0  0
  186.1200  178.0770  142.5770 C   0  0  0  0  0  3  0  0  0  0  0  0
  186.3770  178.1780  146.7010 C   0  0  0  0  0  3  0  0  0  0  0  0
  185.2100  178.3480  144.7720 C   0  0  2  0  0  3  0  0  0  0  0  0
  186.2480  177.4810  145.3880 C   0  0  1  0  0  3  0  0  0  0  0  0
  188.3510  177.7480  140.9400 C   0  0  0  0  0  3  0  0  0  0  0  0
  189.2560  177.5090  140.0460 N   0  0  0  0  0  0  0  0  0  0  0  0
  189.0310  177.6420  138.6360 C   0  0  0  0  0  0  0  0  0  0  0  0
  188.9820  179.1270  137.9250 S   0  0  0  0  0  0  0  0  0  0  0  0
  188.3540  174.0730  136.4120 C   0  0  0  0  0  3  0  0  0  0  0  0
  189.6260  174.4240  136.8620 C   0  0  0  0  0  0  0  0  0  0  0  0
  190.7860  173.5370  136.5810 C   0  0  0  0  0  1  0  0  0  0  0  0
  187.4820  176.0950  137.4080 C   0  0  0  0  0  3  0  0  0  0  0  0
  189.8070  175.5790  137.5580 N   0  0  0  0  0  0  0  0  0  0  0  0
  188.7740  176.4230  137.8420 C   0  0  0  0  0  0  0  0  0  0  0  0
  187.2770  174.9150  136.6910 C   0  0  0  0  0  3  0  0  0  0  0  0
  190.5660  176.1980  143.2360 C   0  0  0  0  0  3  0  0  0  0  0  0
  189.3770  176.3210  142.6340 C   0  0  0  0  0  3  0  0  0  0  0  0
  191.7550  178.2430  142.9680 O   0  0  0  0  0  0  0  0  0  0  0  0
  191.4170  177.3000  143.7300 C   0  0  0  0  0  0  0  0  0  0  0  0
  191.8940  177.2980  145.0770 N   0  0  0  0  0  2  0  0  0  0  0  0
  191.6090  176.2150  146.0070 C   0  0  0  0  0  2  0  0  0  0  0  0
  189.7620  177.2080  147.5140 C   0  0  0  0  0  1  0  0  0  0  0  0
  191.1750  176.7760  147.3170 C   0  0  0  0  0  0  0  0  0  0  0  0
  191.9850  176.9140  148.2200 O   0  0  0  0  0  0  0  0  0  0  0  0
  1 11  1  6  0  0  0
  1 23  1  0  0  0  0
  1  6  1  0  0  0  0
  4  2  1  0  0  0  0
  6  5  2  0  0  0  0
  7  6  1  0  0  0  0
  7  3  2  0  0  0  0
  8  2  2  0  0  0  0
  9  3  1  6  0  0  0
  9 10  1  0  0  0  0
  9  4  1  0  0  0  0
 10  5  1  6  0  0  0
 10  8  1  0  0  0  0
 12 11  2  0  0  0  0
 13 12  1  0  0  0  0
 14 13  2  0  0  0  0
 15 21  2  0  0  0  0
 15 16  1  0  0  0  0
 16 19  2  0  0  0  0
 17 16  1  0  0  0  0
 18 20  2  0  0  0  0
 19 20  1  0  0  0  0
 20 13  1  0  0  0  0
 21 18  1  0  0  0  0
 22 25  1  0  0  0  0
 23 22  2  0  0  0  0
 24 25  2  0  0  0  0
 25 26  1  0  0  0  0
 26 27  1  0  0  0  0
 27 29  1  0  0  0  0
 29 28  1  0  0  0  0
 29 30  2  0  0  0  0
M  END
>  <MODEL>
5

>  <REMARK>
 VINA RESULT:      -8.2      1.802      2.796
  Name = 
  8 active torsions:
  status: ('A' for Active; 'I' for Inactive)
    1  A    between atoms: C_1  and  C_24
    2  A    between atoms: C_4  and  C_18
    3  A    between atoms: C_5  and  C_24
    4  A    between atoms: N_10  and  C_15
    5  A    between atoms: C_15  and  C_17
    6  A    between atoms: C_19  and  C_23
    7  A    between atoms: C_19  and  N_29
    8  A    between atoms: C_22  and  C_24
                            x       y       z     vdW  Elec       q    Type
                         _______ _______ _______ _____ _____    ______ ____

>  <TORSDO>
F 8

$$$$
=
 OpenBabel10232408233D

 30 32  0  0  1  0  0  0  0  0999 V2000
  188.3010  177.7470  142.3950 C   0  0  2  0  0  3  0  0  0  0  0  0
  185.8390  179.2240  147.2020 N   0  0  0  0  0  0  0  0  0  0  0  0
  184.8450  178.3820  143.8850 C   0  0  0  0  0  3  0  0  0  0  0  0
  184.9440  179.2900  146.1310 N   0  0  0  0  0  2  0  0  0  0  0  0
  187.4940  177.6230  144.7110 C   0  0  0  0  0  3  0  0  0  0  0  0
  187.1950  177.7900  143.4100 C   0  0  0  0  0  0  0  0  0  0  0  0
  185.7910  178.0820  142.9870 C   0  0  0  0  0  3  0  0  0  0  0  0
  186.7040  178.2820  147.0130 C   0  0  0  0  0  3  0  0  0  0  0  0
  185.2350  178.3540  145.2970 C   0  0  2  0  0  3  0  0  0  0  0  0
  186.4020  177.5520  145.7470 C   0  0  1  0  0  3  0  0  0  0  0  0
  187.7800  178.0940  141.0420 C   0  0  0  0  0  3  0  0  0  0  0  0
  188.4700  177.8150  139.9840 N   0  0  0  0  0  0  0  0  0  0  0  0
  188.0480  178.1460  138.6530 C   0  0  0  0  0  0  0  0  0  0  0  0
  189.1080  178.7900  137.5670 S   0  0  0  0  0  0  0  0  0  0  0  0
  183.9400  177.7230  137.6110 C   0  0  0  0  0  3  0  0  0  0  0  0
  184.3690  178.6910  138.5180 C   0  0  0  0  0  0  0  0  0  0  0  0
  183.3850  179.6180  139.1380 C   0  0  0  0  0  1  0  0  0  0  0  0
  186.2290  176.9830  137.3750 C   0  0  0  0  0  3  0  0  0  0  0  0
  185.6880  178.7880  138.8390 N   0  0  0  0  0  0  0  0  0  0  0  0
  186.6280  177.9630  138.2940 C   0  0  0  0  0  0  0  0  0  0  0  0
  184.8800  176.8670  137.0350 C   0  0  0  0  0  3  0  0  0  0  0  0
  190.2430  176.1520  142.4780 C   0  0  0  0  0  3  0  0  0  0  0  0
  188.9320  176.3900  142.3560 C   0  0  0  0  0  3  0  0  0  0  0  0
  191.5880  177.6400  143.7600 O   0  0  0  0  0  0  0  0  0  0  0  0
  191.3070  177.1660  142.6290 C   0  0  0  0  0  0  0  0  0  0  0  0
  192.0170  177.6450  141.4860 N   0  0  0  0  0  2  0  0  0  0  0  0
  191.7130  177.2030  140.1330 C   0  0  0  0  0  2  0  0  0  0  0  0
  192.9310  176.5020  137.9670 C   0  0  0  0  0  1  0  0  0  0  0  0
  192.9780  176.9840  139.3770 C   0  0  0  0  0  0  0  0  0  0  0  0
  194.0540  177.1660  139.9220 O   0  0  0  0  0  0  0  0  0  0  0  0
  1 11  1  6  0  0  0
  1  6  1  0  0  0  0
  4  2  1  0  0  0  0
  6  5  2  0  0  0  0
  7  6  1  0  0  0  0
  7  3  2  0  0  0  0
  8  2  2  0  0  0  0
  9  3  1  6  0  0  0
  9 10  1  0  0  0  0
  9  4  1  0  0  0  0
 10  5  1  6  0  0  0
 10  8  1  0  0  0  0
 12 11  2  0  0  0  0
 13 12  1  0  0  0  0
 14 13  2  0  0  0  0
 15 16  1  0  0  0  0
 16 19  2  0  0  0  0
 16 17  1  0  0  0  0
 18 20  2  0  0  0  0
 20 13  1  0  0  0  0
 20 19  1  0  0  0  0
 21 18  1  0  0  0  0
 21 15  2  0  0  0  0
 22 25  1  0  0  0  0
 23  1  1  0  0  0  0
 23 22  2  0  0  0  0
 25 24  2  0  0  0  0
 26 25  1  0  0  0  0
 27 26  1  0  0  0  0
 28 29  1  0  0  0  0
 29 30  2  0  0  0  0
 29 27  1  0  0  0  0
M  END
>  <MODEL>
6

>  <REMARK>
 VINA RESULT:      -8.2      1.689      3.106
  Name = 
  8 active torsions:
  status: ('A' for Active; 'I' for Inactive)
    1  A    between atoms: C_1  and  C_24
    2  A    between atoms: C_4  and  C_18
    3  A    between atoms: C_5  and  C_24
    4  A    between atoms: N_10  and  C_15
    5  A    between atoms: C_15  and  C_17
    6  A    between atoms: C_19  and  C_23
    7  A    between atoms: C_19  and  N_29
    8  A    between atoms: C_22  and  C_24
                            x       y       z     vdW  Elec       q    Type
                         _______ _______ _______ _____ _____    ______ ____

>  <TORSDO>
F 8

$$$$
=
 OpenBabel10232408233D

 30 32  0  0  1  0  0  0  0  0999 V2000
  186.7110  177.6590  143.4240 C   0  0  2  0  0  3  0  0  0  0  0  0
  189.3280  178.3520  148.3250 N   0  0  0  0  0  0  0  0  0  0  0  0
  185.9860  178.4310  147.0900 C   0  0  0  0  0  3  0  0  0  0  0  0
  188.0010  178.7860  148.3900 N   0  0  0  0  0  2  0  0  0  0  0  0
  187.9730  177.1330  145.4640 C   0  0  0  0  0  3  0  0  0  0  0  0
  186.8470  177.6300  144.9190 C   0  0  0  0  0  0  0  0  0  0  0  0
  185.7760  178.2080  145.7870 C   0  0  0  0  0  3  0  0  0  0  0  0
  189.4420  177.3630  147.5000 C   0  0  0  0  0  3  0  0  0  0  0  0
  187.2860  178.0300  147.6330 C   0  0  2  0  0  3  0  0  0  0  0  0
  188.1020  176.9880  146.9580 C   0  0  1  0  0  3  0  0  0  0  0  0
  187.9550  177.1520  142.7770 C   0  0  0  0  0  3  0  0  0  0  0  0
  188.6780  177.9360  142.0450 N   0  0  0  0  0  0  0  0  0  0  0  0
  189.8690  177.5120  141.3680 C   0  0  0  0  0  0  0  0  0  0  0  0
  191.2610  177.2290  142.2040 S   0  0  0  0  0  0  0  0  0  0  0  0
  189.7810  177.0840  137.1310 C   0  0  0  0  0  3  0  0  0  0  0  0
  190.4570  176.1750  137.9450 C   0  0  0  0  0  0  0  0  0  0  0  0
  191.1600  175.0130  137.3380 C   0  0  0  0  0  1  0  0  0  0  0  0
  189.1510  178.3270  139.1050 C   0  0  0  0  0  3  0  0  0  0  0  0
  190.4760  176.3510  139.2930 N   0  0  0  0  0  0  0  0  0  0  0  0
  189.8440  177.4000  139.8950 C   0  0  0  0  0  0  0  0  0  0  0  0
  189.1220  178.1640  137.7190 C   0  0  0  0  0  3  0  0  0  0  0  0
  185.2310  179.4890  142.5370 C   0  0  0  0  0  3  0  0  0  0  0  0
  186.4270  179.0490  142.9440 C   0  0  0  0  0  3  0  0  0  0  0  0
  183.2790  178.4870  143.4620 O   0  0  0  0  0  0  0  0  0  0  0  0
  183.9900  178.6930  142.4440 C   0  0  0  0  0  0  0  0  0  0  0  0
  183.5920  178.1180  141.1980 N   0  0  0  0  0  2  0  0  0  0  0  0
  184.3870  178.2470  139.9860 C   0  0  0  0  0  2  0  0  0  0  0  0
  182.4670  179.1600  138.5210 C   0  0  0  0  0  1  0  0  0  0  0  0
  183.8210  179.3210  139.1230 C   0  0  0  0  0  0  0  0  0  0  0  0
  184.4800  180.3200  138.8810 O   0  0  0  0  0  0  0  0  0  0  0  0
  1 11  1  6  0  0  0
  1  6  1  0  0  0  0
  2  4  1  0  0  0  0
  6  5  2  0  0  0  0
  6  7  1  0  0  0  0
  7  3  2  0  0  0  0
  8  2  2  0  0  0  0
  9  3  1  6  0  0  0
  9  4  1  0  0  0  0
 10  5  1  6  0  0  0
 10  8  1  0  0  0  0
 10  9  1  0  0  0  0
 12 11  2  0  0  0  0
 13 12  1  0  0  0  0
 13 14  2  0  0  0  0
 15 21  2  0  0  0  0
 15 16  1  0  0  0  0
 16 19  2  0  0  0  0
 17 16  1  0  0  0  0
 18 20  2  0  0  0  0
 19 20  1  0  0  0  0
 20 13  1  0  0  0  0
 21 18  1  0  0  0  0
 22 23  2  0  0  0  0
 23  1  1  0  0  0  0
 25 22  1  0  0  0  0
 25 24  2  0  0  0  0
 26 25  1  0  0  0  0
 27 26  1  0  0  0  0
 28 29  1  0  0  0  0
 29 27  1  0  0  0  0
 30 29  2  0  0  0  0
M  END
>  <MODEL>
7

>  <REMARK>
 VINA RESULT:      -8.0      3.292      6.132
  Name = 
  8 active torsions:
  status: ('A' for Active; 'I' for Inactive)
    1  A    between atoms: C_1  and  C_24
    2  A    between atoms: C_4  and  C_18
    3  A    between atoms: C_5  and  C_24
    4  A    between atoms: N_10  and  C_15
    5  A    between atoms: C_15  and  C_17
    6  A    between atoms: C_19  and  C_23
    7  A    between atoms: C_19  and  N_29
    8  A    between atoms: C_22  and  C_24
                            x       y       z     vdW  Elec       q    Type
                         _______ _______ _______ _____ _____    ______ ____

>  <TORSDO>
F 8

$$$$
=
 OpenBabel10232408233D

 30 32  0  0  1  0  0  0  0  0999 V2000
  189.0980  178.1690  141.6680 C   0  0  2  0  0  3  0  0  0  0  0  0
  190.0700  176.3240  146.8650 N   0  0  0  0  0  0  0  0  0  0  0  0
  191.7850  178.2130  144.3770 C   0  0  0  0  0  3  0  0  0  0  0  0
  191.2420  176.7880  146.2620 N   0  0  0  0  0  2  0  0  0  0  0  0
  188.9340  177.9420  144.1080 C   0  0  0  0  0  3  0  0  0  0  0  0
  189.7110  178.1980  143.0390 C   0  0  0  0  0  0  0  0  0  0  0  0
  191.1760  178.4400  143.2070 C   0  0  0  0  0  3  0  0  0  0  0  0
  189.0470  176.9910  146.4400 C   0  0  0  0  0  3  0  0  0  0  0  0
  190.9430  177.7770  145.4930 C   0  0  2  0  0  3  0  0  0  0  0  0
  189.4860  178.0680  145.5040 C   0  0  1  0  0  3  0  0  0  0  0  0
  187.6260  177.9490  141.7600 C   0  0  0  0  0  3  0  0  0  0  0  0
  186.8030  178.8960  141.4430 N   0  0  0  0  0  0  0  0  0  0  0  0
  185.3770  178.7690  141.5350 C   0  0  0  0  0  0  0  0  0  0  0  0
  184.4470  178.6870  140.1770 S   0  0  0  0  0  0  0  0  0  0  0  0
  183.6390  178.8780  145.4220 C   0  0  0  0  0  3  0  0  0  0  0  0
  185.0210  178.8520  145.2390 C   0  0  0  0  0  0  0  0  0  0  0  0
  185.9280  178.8760  146.4170 C   0  0  0  0  0  1  0  0  0  0  0  0
  183.3560  178.8130  143.0230 C   0  0  0  0  0  3  0  0  0  0  0  0
  185.5410  178.8020  143.9830 N   0  0  0  0  0  0  0  0  0  0  0  0
  184.7490  178.7820  142.8720 C   0  0  0  0  0  0  0  0  0  0  0  0
  182.8040  178.8610  144.3040 C   0  0  0  0  0  3  0  0  0  0  0  0
  189.6510  177.0200  139.5000 C   0  0  0  0  0  3  0  0  0  0  0  0
  189.7150  177.0880  140.8350 C   0  0  0  0  0  3  0  0  0  0  0  0
  189.1110  179.2000  138.7090 O   0  0  0  0  0  0  0  0  0  0  0  0
  188.9370  177.9580  138.6090 C   0  0  0  0  0  0  0  0  0  0  0  0
  188.0150  177.4670  137.6350 N   0  0  0  0  0  2  0  0  0  0  0  0
  187.7020  176.0530  137.4940 C   0  0  0  0  0  2  0  0  0  0  0  0
  185.4300  177.0730  136.8130 C   0  0  0  0  0  1  0  0  0  0  0  0
  186.3320  175.8920  136.9300 C   0  0  0  0  0  0  0  0  0  0  0  0
  185.9360  174.7880  136.5950 O   0  0  0  0  0  0  0  0  0  0  0  0
  1 23  1  6  0  0  0
  1 11  1  0  0  0  0
  1  6  1  0  0  0  0
  4  2  1  0  0  0  0
  6  7  1  0  0  0  0
  6  5  2  0  0  0  0
  7  3  2  0  0  0  0
  8  2  2  0  0  0  0
  9  3  1  6  0  0  0
  9 10  1  0  0  0  0
  9  4  1  0  0  0  0
 10  5  1  6  0  0  0
 10  8  1  0  0  0  0
 12 13  1  0  0  0  0
 12 11  2  0  0  0  0
 13 20  1  0  0  0  0
 14 13  2  0  0  0  0
 16 15  1  0  0  0  0
 16 17  1  0  0  0  0
 18 21  1  0  0  0  0
 19 16  2  0  0  0  0
 20 18  2  0  0  0  0
 20 19  1  0  0  0  0
 21 15  2  0  0  0  0
 22 23  2  0  0  0  0
 25 24  2  0  0  0  0
 25 22  1  0  0  0  0
 26 25  1  0  0  0  0
 27 26  1  0  0  0  0
 28 29  1  0  0  0  0
 29 27  1  0  0  0  0
 30 29  2  0  0  0  0
M  END
>  <MODEL>
8

>  <REMARK>
 VINA RESULT:      -7.9      2.827      6.447
  Name = 
  8 active torsions:
  status: ('A' for Active; 'I' for Inactive)
    1  A    between atoms: C_1  and  C_24
    2  A    between atoms: C_4  and  C_18
    3  A    between atoms: C_5  and  C_24
    4  A    between atoms: N_10  and  C_15
    5  A    between atoms: C_15  and  C_17
    6  A    between atoms: C_19  and  C_23
    7  A    between atoms: C_19  and  N_29
    8  A    between atoms: C_22  and  C_24
                            x       y       z     vdW  Elec       q    Type
                         _______ _______ _______ _____ _____    ______ ____

>  <TORSDO>
F 8

$$$$
=
 OpenBabel10232408233D

 30 32  0  0  1  0  0  0  0  0999 V2000
  189.4840  177.5510  141.0720 C   0  0  2  0  0  3  0  0  0  0  0  0
  189.5080  175.6820  135.7940 N   0  0  0  0  0  0  0  0  0  0  0  0
  188.9250  178.7580  137.4960 C   0  0  0  0  0  3  0  0  0  0  0  0
  188.9230  176.9480  135.8830 N   0  0  0  0  0  2  0  0  0  0  0  0
  190.3210  176.6910  138.9300 C   0  0  0  0  0  3  0  0  0  0  0  0
  189.6490  177.6570  139.5830 C   0  0  0  0  0  0  0  0  0  0  0  0
  189.0160  178.7830  138.8310 C   0  0  0  0  0  3  0  0  0  0  0  0
  190.4350  175.5470  136.6860 C   0  0  0  0  0  3  0  0  0  0  0  0
  189.5240  177.6120  136.8080 C   0  0  2  0  0  3  0  0  0  0  0  0
  190.6000  176.8160  137.4540 C   0  0  1  0  0  3  0  0  0  0  0  0
  188.2850  178.3150  141.5190 C   0  0  0  0  0  3  0  0  0  0  0  0
  187.2300  177.6920  141.9370 N   0  0  0  0  0  0  0  0  0  0  0  0
  186.0300  178.3590  142.3530 C   0  0  0  0  0  0  0  0  0  0  0  0
  185.0910  179.1650  141.2650 S   0  0  0  0  0  0  0  0  0  0  0  0
  185.1330  178.4270  146.5160 C   0  0  0  0  0  3  0  0  0  0  0  0
  186.3890  178.0470  146.0440 C   0  0  0  0  0  0  0  0  0  0  0  0
  187.4600  177.6650  147.0030 C   0  0  0  0  0  1  0  0  0  0  0  0
  184.4160  178.7590  144.2320 C   0  0  0  0  0  3  0  0  0  0  0  0
  186.6350  178.0230  144.7070 N   0  0  0  0  0  0  0  0  0  0  0  0
  185.6860  178.3670  143.7890 C   0  0  0  0  0  0  0  0  0  0  0  0
  184.1430  178.7880  145.6010 C   0  0  0  0  0  3  0  0  0  0  0  0
  191.3270  177.4410  142.7800 C   0  0  0  0  0  3  0  0  0  0  0  0
  190.7000  178.0680  141.7780 C   0  0  0  0  0  3  0  0  0  0  0  0
  190.4150  175.2430  142.7100 O   0  0  0  0  0  0  0  0  0  0  0  0
  190.9260  176.1620  143.4010 C   0  0  0  0  0  0  0  0  0  0  0  0
  191.0870  175.9590  144.8060 N   0  0  0  0  0  2  0  0  0  0  0  0
  191.6060  176.9910  145.6930 C   0  0  0  0  0  2  0  0  0  0  0  0
  192.3570  175.4560  147.6280 C   0  0  0  0  0  1  0  0  0  0  0  0
  191.4840  176.5470  147.1090 C   0  0  0  0  0  0  0  0  0  0  0  0
  190.6470  177.0540  147.8380 O   0  0  0  0  0  0  0  0  0  0  0  0
  1 11  1  1  0  0  0
  1 23  1  0  0  0  0
  2  4  1  0  0  0  0
  2  8  2  0  0  0  0
  3  7  2  0  0  0  0
  4  9  1  0  0  0  0
  5  6  2  0  0  0  0
  6  1  1  0  0  0  0
  7  6  1  0  0  0  0
  9 10  1  0  0  0  0
  9  3  1  1  0  0  0
 10  8  1  6  0  0  0
 10  5  1  0  0  0  0
 11 12  2  0  0  0  0
 12 13  1  0  0  0  0
 13 20  1  0  0  0  0
 14 13  2  0  0  0  0
 16 15  1  0  0  0  0
 16 17  1  0  0  0  0
 18 21  1  0  0  0  0
 19 16  2  0  0  0  0
 20 18  2  0  0  0  0
 20 19  1  0  0  0  0
 21 15  2  0  0  0  0
 22 25  1  0  0  0  0
 23 22  2  0  0  0  0
 24 25  2  0  0  0  0
 25 26  1  0  0  0  0
 26 27  1  0  0  0  0
 27 29  1  0  0  0  0
 29 28  1  0  0  0  0
 29 30  2  0  0  0  0
M  END
>  <MODEL>
9

>  <REMARK>
 VINA RESULT:      -7.8      2.531      6.441
  Name = 
  8 active torsions:
  status: ('A' for Active; 'I' for Inactive)
    1  A    between atoms: C_1  and  C_24
    2  A    between atoms: C_4  and  C_18
    3  A    between atoms: C_5  and  C_24
    4  A    between atoms: N_10  and  C_15
    5  A    between atoms: C_15  and  C_17
    6  A    between atoms: C_19  and  C_23
    7  A    between atoms: C_19  and  N_29
    8  A    between atoms: C_22  and  C_24
                            x       y       z     vdW  Elec       q    Type
                         _______ _______ _______ _____ _____    ______ ____

>  <TORSDO>
F 8

$$$$
