=
 OpenBabel10232409133D

 57 59  0  0  1  0  0  0  0  0999 V2000
  187.6310  177.7460  144.8370 C   0  0  0  0  0  0  0  0  0  0  0  0
  191.5900  176.4430  144.0780 N   0  0  0  0  0  1  0  0  0  0  0  0
  189.8670  177.2040  145.6210 C   0  0  0  0  0  3  0  0  0  0  0  0
  189.3350  176.9960  143.2640 C   0  0  0  0  0  0  0  0  0  0  0  0
  190.2580  176.8830  144.3200 C   0  0  0  0  0  0  0  0  0  0  0  0
  188.5630  177.6340  145.8780 C   0  0  0  0  0  3  0  0  0  0  0  0
  188.0290  177.4210  143.5280 C   0  0  0  0  0  3  0  0  0  0  0  0
  186.2500  178.1920  145.1310 C   0  0  0  0  0  0  0  0  0  0  0  0
  185.9710  178.8270  146.2680 C   0  0  0  0  0  2  0  0  0  0  0  0
  185.2130  177.9380  144.1760 N   0  0  0  0  0  2  0  0  0  0  0  0
  184.9270  178.8030  143.0420 C   0  0  0  0  0  2  0  0  0  0  0  0
  184.6990  177.9530  141.8090 C   0  0  0  0  0  2  0  0  0  0  0  0
  183.7520  178.6660  140.8680 C   0  0  0  0  0  2  0  0  0  0  0  0
  184.4870  179.0080  139.5910 C   0  0  0  0  0  2  0  0  0  0  0  0
  183.5380  178.9000  138.4170 C   0  0  0  0  0  2  0  0  0  0  0  0
  182.1920  178.5790  138.9070 N   0  0  0  0  0  0  0  0  0  0  0  0
  179.9830  179.7960  137.9520 O   0  0  0  0  0  0  0  0  0  0  0  0
  181.1690  180.0110  138.8660 P   0  0  0  0  0  0  0  0  0  0  0  0
  180.6230  180.3710  140.4260 O   0  0  0  0  0  1  0  0  0  0  0  0
  182.0760  181.3160  138.2890 O   0  0  0  0  0  1  0  0  0  0  0  0
  181.5490  177.4940  138.2430 N   0  0  0  0  0  0  0  0  0  0  0  0
  180.6220  175.5090  135.9680 C   0  0  0  0  0  2  0  0  0  0  0  0
  182.4390  176.7430  137.3060 C   0  0  1  0  0  3  0  0  0  0  0  0
  181.8420  178.3300  135.3240 C   0  0  0  0  0  2  0  0  0  0  0  0
  181.8920  175.3880  136.8090 C   0  0  0  0  0  2  0  0  0  0  0  0
  180.5730  177.5210  135.0730 C   0  0  0  0  0  2  0  0  0  0  0  0
  180.8850  176.1920  134.7780 O   0  0  0  0  0  0  0  0  0  0  0  0
  182.9310  177.5930  136.1220 C   0  0  0  0  0  2  0  0  0  0  0  0
  182.2150  175.7720  140.4000 O   0  0  0  0  0  1  0  0  0  0  0  0
  180.9320  176.4540  139.5370 P   0  0  0  0  0  0  0  0  0  0  0  0
  180.0600  177.2540  140.4780 O   0  0  0  0  0  1  0  0  0  0  0  0
  180.0130  175.2040  138.8650 O   0  0  0  0  0  0  0  0  0  0  0  0
  189.7180  176.6510  141.8620 C   0  0  0  0  0  2  0  0  0  0  0  0
  190.1230  177.9020  141.1080 C   0  0  0  0  0  2  0  0  0  0  0  0
  191.2190  177.6150  140.2970 O   0  0  0  0  0  0  0  0  0  0  0  0
  191.1240  176.2470  140.0420 C   0  0  0  0  0  2  0  0  0  0  0  0
  190.8710  175.9670  138.5600 C   0  0  1  0  0  3  0  0  0  0  0  0
  188.8130  175.1930  137.4610 C   0  0  0  0  0  0  0  0  0  0  0  0
  189.4390  173.9620  136.8860 C   0  0  0  0  0  1  0  0  0  0  0  0
  189.4660  176.0380  138.1950 N   0  0  0  0  0  0  0  0  0  0  0  0
  187.3570  175.4250  137.1770 C   0  0  1  0  0  3  0  0  0  0  0  0
  187.1370  176.8550  136.6980 C   0  0  0  0  0  2  0  0  0  0  0  0
  188.1850  177.2640  135.6740 C   0  0  0  0  0  2  0  0  0  0  0  0
  187.9350  176.5610  134.3530 C   0  0  0  0  0  1  0  0  0  0  0  0
  186.8210  174.4280  136.1470 C   0  0  0  0  0  2  0  0  0  0  0  0
  185.1480  173.5750  137.7320 C   0  0  0  0  0  2  0  0  0  0  0  0
  186.0570  173.3180  136.7960 C   0  0  0  0  0  3  0  0  0  0  0  0
  191.7820  176.7500  137.6160 C   0  0  0  0  0  2  0  0  0  0  0  0
  193.9850  176.8630  136.7320 O   0  0  0  0  0  1  0  0  0  0  0  0
  193.2260  176.2860  137.7570 C   0  0  2  0  0  3  0  0  0  0  0  0
  194.7630  172.7090  138.0220 C   0  0  0  0  0  2  0  0  0  0  0  0
  194.4260  172.0200  136.3730 S   0  0  0  0  0  0  0  0  0  0  0  0
  192.8090  174.2190  136.3540 C   0  0  0  0  0  2  0  0  0  0  0  0
  192.7410  172.7010  136.3420 C   0  0  0  0  0  2  0  0  0  0  0  0
  195.2570  174.7250  139.3270 C   0  0  0  0  0  1  0  0  0  0  0  0
  194.7240  174.2330  137.9930 C   0  0  2  0  0  3  0  0  0  0  0  0
  193.2950  174.7450  137.7110 C   0  0  1  0  0  3  0  0  0  0  0  0
  1  8  1  0  0  0  0
  1  6  1  0  0  0  0
  2  5  1  0  0  0  0
  3  6  2  0  0  0  0
  4  7  1  0  0  0  0
  4  5  2  0  0  0  0
  5  3  1  0  0  0  0
  7  1  2  0  0  0  0
  8  9  2  0  0  0  0
 10  8  1  0  0  0  0
 11 10  1  0  0  0  0
 12 11  1  0  0  0  0
 13 12  1  0  0  0  0
 14 13  1  0  0  0  0
 15 16  1  0  0  0  0
 15 14  1  0  0  0  0
 17 18  2  0  0  0  0
 18 16  1  0  0  0  0
 18 19  1  0  0  0  0
 20 18  1  0  0  0  0
 21 16  1  0  0  0  0
 21 30  1  0  0  0  0
 22 25  1  0  0  0  0
 23 21  1  6  0  0  0
 24 28  1  0  0  0  0
 25 23  1  0  0  0  0
 26 24  1  0  0  0  0
 27 26  1  0  0  0  0
 27 22  1  0  0  0  0
 28 23  1  0  0  0  0
 30 29  1  0  0  0  0
 30 31  1  0  0  0  0
 32 30  2  0  0  0  0
 33  4  1  0  0  0  0
 34 33  1  0  0  0  0
 35 34  1  0  0  0  0
 36 35  1  0  0  0  0
 37 48  1  6  0  0  0
 37 36  1  0  0  0  0
 38 40  2  0  0  0  0
 39 38  1  0  0  0  0
 40 37  1  0  0  0  0
 41 45  1  6  0  0  0
 41 38  1  0  0  0  0
 42 41  1  0  0  0  0
 43 42  1  0  0  0  0
 44 43  1  0  0  0  0
 45 47  1  0  0  0  0
 47 46  2  0  0  0  0
 48 50  1  0  0  0  0
 50 49  1  6  0  0  0
 52 51  1  0  0  0  0
 53 57  1  0  0  0  0
 54 53  1  0  0  0  0
 54 52  1  0  0  0  0
 56 51  1  0  0  0  0
 56 55  1  1  0  0  0
 57 50  1  6  0  0  0
 57 56  1  0  0  0  0
M  END
>  <MODEL>
1

>  <REMARK>
 VINA RESULT:      -5.4      0.000      0.000
  Name = 
  26 active torsions:
  status: ('A' for Active; 'I' for Inactive)
    1  A    between atoms: C_1  and  C_27
    2  A    between atoms: C_4  and  C_27
    3  A    between atoms: C_4  and  C_54
    4  A    between atoms: C_5  and  C_16
    5  A    between atoms: C_6  and  C_35
    6  A    between atoms: P_8  and  N_55
    7  A    between atoms: C_9  and  C_21
    8  A    between atoms: C_9  and  O_29
    9  A    between atoms: C_10  and  C_42
   10  A    between atoms: C_10  and  N_55
   11  A    between atoms: C_14  and  C_30
   12  A    between atoms: C_14  and  N_52
   13  A    between atoms: C_14  and  C_53
   14  A    between atoms: C_16  and  N_49
   15  A    between atoms: P_18  and  N_28
   16  A    between atoms: C_19  and  C_23
   17  A    between atoms: C_19  and  C_42
   18  A    between atoms: C_21  and  C_31
   19  A    between atoms: C_23  and  C_46
   20  A    between atoms: C_27  and  C_35
   21  A    between atoms: N_28  and  C_34
   22  A    between atoms: N_28  and  N_55
   23  A    between atoms: O_29  and  C_30
   24  A    between atoms: C_32  and  C_53
   25  A    between atoms: C_32  and  C_57
   26  A    between atoms: C_46  and  N_49
                            x       y       z     vdW  Elec       q    Type
                         _______ _______ _______ _____ _____    ______ ____

>  <TORSDO>
F 26

$$$$
=
 OpenBabel10232409133D

 57 59  0  0  1  0  0  0  0  0999 V2000
  187.4870  177.7040  144.7460 C   0  0  0  0  0  0  0  0  0  0  0  0
  191.3100  176.2520  143.6430 N   0  0  0  0  0  1  0  0  0  0  0  0
  189.7380  177.0090  145.3410 C   0  0  0  0  0  3  0  0  0  0  0  0
  189.0390  176.9610  143.0200 C   0  0  0  0  0  0  0  0  0  0  0  0
  190.0230  176.7430  144.0000 C   0  0  0  0  0  0  0  0  0  0  0  0
  188.4800  177.4870  145.7120 C   0  0  0  0  0  3  0  0  0  0  0  0
  187.7780  177.4340  143.3970 C   0  0  0  0  0  3  0  0  0  0  0  0
  186.1540  178.2000  145.1590 C   0  0  0  0  0  0  0  0  0  0  0  0
  185.9820  178.7670  146.3530 C   0  0  0  0  0  2  0  0  0  0  0  0
  185.0470  178.0710  144.2590 N   0  0  0  0  0  2  0  0  0  0  0  0
  184.7950  178.9790  143.1510 C   0  0  0  0  0  2  0  0  0  0  0  0
  184.0570  178.2380  142.0550 C   0  0  0  0  0  2  0  0  0  0  0  0
  183.8370  179.1620  140.8760 C   0  0  0  0  0  2  0  0  0  0  0  0
  184.5240  178.5830  139.6590 C   0  0  0  0  0  2  0  0  0  0  0  0
  183.7620  178.9800  138.4120 C   0  0  0  0  0  2  0  0  0  0  0  0
  182.3290  178.7430  138.6210 N   0  0  0  0  0  0  0  0  0  0  0  0
  180.1160  180.2260  139.0400 O   0  0  0  0  0  1  0  0  0  0  0  0
  181.4090  180.1970  138.2550 P   0  0  0  0  0  0  0  0  0  0  0  0
  182.3280  181.5680  138.6270 O   0  0  0  0  0  1  0  0  0  0  0  0
  181.0460  180.2140  136.6030 O   0  0  0  0  0  0  0  0  0  0  0  0
  181.7900  177.6270  137.9160 N   0  0  0  0  0  0  0  0  0  0  0  0
  181.4130  174.8490  136.4630 C   0  0  0  0  0  2  0  0  0  0  0  0
  182.7540  176.9830  136.9730 C   0  0  1  0  0  3  0  0  0  0  0  0
  181.2710  177.5750  134.9100 C   0  0  0  0  0  2  0  0  0  0  0  0
  182.7340  175.4400  136.9500 C   0  0  0  0  0  2  0  0  0  0  0  0
  180.4170  176.3410  135.1840 C   0  0  0  0  0  2  0  0  0  0  0  0
  181.1910  175.1810  135.1240 O   0  0  0  0  0  0  0  0  0  0  0  0
  182.6720  177.5440  135.5420 C   0  0  0  0  0  2  0  0  0  0  0  0
  182.5130  175.4800  139.6280 O   0  0  0  0  0  1  0  0  0  0  0  0
  181.2460  176.5000  139.1690 P   0  0  0  0  0  0  0  0  0  0  0  0
  180.7490  177.2620  140.3770 O   0  0  0  0  0  1  0  0  0  0  0  0
  179.9850  175.5490  138.5630 O   0  0  0  0  0  0  0  0  0  0  0  0
  189.3070  176.6770  141.5780 C   0  0  0  0  0  2  0  0  0  0  0  0
  189.8620  177.9120  140.8960 C   0  0  0  0  0  2  0  0  0  0  0  0
  190.8420  177.5310  139.9820 O   0  0  0  0  0  0  0  0  0  0  0  0
  190.5630  176.1940  139.6990 C   0  0  0  0  0  2  0  0  0  0  0  0
  190.9220  175.8380  138.2560 C   0  0  1  0  0  3  0  0  0  0  0  0
  192.8440  174.8340  137.0970 C   0  0  0  0  0  0  0  0  0  0  0  0
  192.5820  175.5340  135.8020 C   0  0  0  0  0  1  0  0  0  0  0  0
  192.1050  175.0000  138.1490 N   0  0  0  0  0  0  0  0  0  0  0  0
  194.0340  173.9220  137.1620 C   0  0  1  0  0  3  0  0  0  0  0  0
  193.7110  172.5900  136.4940 C   0  0  0  0  0  2  0  0  0  0  0  0
  194.5620  172.3710  135.2530 C   0  0  0  0  0  2  0  0  0  0  0  0
  194.8270  170.8910  135.0480 C   0  0  0  0  0  1  0  0  0  0  0  0
  195.2650  174.5590  136.5140 C   0  0  0  0  0  2  0  0  0  0  0  0
  196.3730  174.0580  138.6490 C   0  0  0  0  0  2  0  0  0  0  0  0
  196.4810  174.4130  137.3720 C   0  0  0  0  0  3  0  0  0  0  0  0
  189.7420  175.3260  137.4310 C   0  0  0  0  0  2  0  0  0  0  0  0
  188.1490  177.0390  137.8460 O   0  0  0  0  0  1  0  0  0  0  0  0
  188.9550  176.4910  136.8430 C   0  0  2  0  0  3  0  0  0  0  0  0
  185.8890  176.1730  134.4510 C   0  0  0  0  0  2  0  0  0  0  0  0
  185.5740  174.3820  134.4610 S   0  0  0  0  0  0  0  0  0  0  0  0
  188.0520  174.4770  135.6010 C   0  0  0  0  0  2  0  0  0  0  0  0
  187.3440  173.9870  134.3490 C   0  0  0  0  0  2  0  0  0  0  0  0
  186.6850  178.1110  135.7240 C   0  0  0  0  0  1  0  0  0  0  0  0
  186.6840  176.5930  135.6810 C   0  0  2  0  0  3  0  0  0  0  0  0
  188.1130  176.0100  135.6420 C   0  0  1  0  0  3  0  0  0  0  0  0
  1  8  1  0  0  0  0
  1  6  1  0  0  0  0
  2  5  1  0  0  0  0
  3  6  2  0  0  0  0
  4  7  1  0  0  0  0
  4  5  2  0  0  0  0
  5  3  1  0  0  0  0
  7  1  2  0  0  0  0
  8  9  2  0  0  0  0
 10  8  1  0  0  0  0
 11 10  1  0  0  0  0
 12 11  1  0  0  0  0
 13 12  1  0  0  0  0
 14 13  1  0  0  0  0
 15 16  1  0  0  0  0
 15 14  1  0  0  0  0
 18 16  1  0  0  0  0
 18 19  1  0  0  0  0
 18 17  1  0  0  0  0
 20 18  2  0  0  0  0
 21 16  1  0  0  0  0
 21 30  1  0  0  0  0
 22 25  1  0  0  0  0
 23 21  1  1  0  0  0
 24 26  1  0  0  0  0
 24 28  1  0  0  0  0
 25 23  1  0  0  0  0
 27 26  1  0  0  0  0
 27 22  1  0  0  0  0
 28 23  1  0  0  0  0
 30 29  1  0  0  0  0
 30 31  1  0  0  0  0
 32 30  2  0  0  0  0
 33  4  1  0  0  0  0
 34 33  1  0  0  0  0
 35 34  1  0  0  0  0
 36 35  1  0  0  0  0
 37 48  1  1  0  0  0
 37 36  1  0  0  0  0
 38 41  1  0  0  0  0
 38 40  2  0  0  0  0
 39 38  1  0  0  0  0
 40 37  1  0  0  0  0
 41 42  1  6  0  0  0
 43 42  1  0  0  0  0
 44 43  1  0  0  0  0
 45 41  1  0  0  0  0
 45 47  1  0  0  0  0
 47 46  2  0  0  0  0
 50 48  1  0  0  0  0
 50 49  1  1  0  0  0
 51 52  1  0  0  0  0
 51 56  1  0  0  0  0
 53 57  1  0  0  0  0
 54 52  1  0  0  0  0
 54 53  1  0  0  0  0
 56 55  1  6  0  0  0
 57 56  1  0  0  0  0
 57 50  1  1  0  0  0
M  END
>  <MODEL>
2

>  <REMARK>
 VINA RESULT:      -5.4      1.750      4.477
  Name = 
  26 active torsions:
  status: ('A' for Active; 'I' for Inactive)
    1  A    between atoms: C_1  and  C_27
    2  A    between atoms: C_4  and  C_27
    3  A    between atoms: C_4  and  C_54
    4  A    between atoms: C_5  and  C_16
    5  A    between atoms: C_6  and  C_35
    6  A    between atoms: P_8  and  N_55
    7  A    between atoms: C_9  and  C_21
    8  A    between atoms: C_9  and  O_29
    9  A    between atoms: C_10  and  C_42
   10  A    between atoms: C_10  and  N_55
   11  A    between atoms: C_14  and  C_30
   12  A    between atoms: C_14  and  N_52
   13  A    between atoms: C_14  and  C_53
   14  A    between atoms: C_16  and  N_49
   15  A    between atoms: P_18  and  N_28
   16  A    between atoms: C_19  and  C_23
   17  A    between atoms: C_19  and  C_42
   18  A    between atoms: C_21  and  C_31
   19  A    between atoms: C_23  and  C_46
   20  A    between atoms: C_27  and  C_35
   21  A    between atoms: N_28  and  C_34
   22  A    between atoms: N_28  and  N_55
   23  A    between atoms: O_29  and  C_30
   24  A    between atoms: C_32  and  C_53
   25  A    between atoms: C_32  and  C_57
   26  A    between atoms: C_46  and  N_49
                            x       y       z     vdW  Elec       q    Type
                         _______ _______ _______ _____ _____    ______ ____

>  <TORSDO>
F 26

$$$$
=
 OpenBabel10232409133D

 57 59  0  0  1  0  0  0  0  0999 V2000
  188.9970  177.4190  143.6110 C   0  0  0  0  0  0  0  0  0  0  0  0
  184.9420  178.3160  144.4510 N   0  0  0  0  0  1  0  0  0  0  0  0
  187.2330  177.9580  145.1950 C   0  0  0  0  0  3  0  0  0  0  0  0
  186.7110  177.7610  142.8350 C   0  0  0  0  0  0  0  0  0  0  0  0
  186.3010  178.0100  144.1560 C   0  0  0  0  0  0  0  0  0  0  0  0
  188.5710  177.6630  144.9240 C   0  0  0  0  0  3  0  0  0  0  0  0
  188.0540  177.4730  142.5690 C   0  0  0  0  0  3  0  0  0  0  0  0
  190.4220  177.1190  143.3420 C   0  0  0  0  0  0  0  0  0  0  0  0
  191.0120  176.0680  143.9100 C   0  0  0  0  0  2  0  0  0  0  0  0
  191.1620  177.9710  142.4590 N   0  0  0  0  0  2  0  0  0  0  0  0
  192.3570  177.5500  141.7430 C   0  0  0  0  0  2  0  0  0  0  0  0
  192.0620  177.5140  140.2580 C   0  0  0  0  0  2  0  0  0  0  0  0
  193.3360  177.2230  139.4940 C   0  0  0  0  0  2  0  0  0  0  0  0
  193.0060  176.3780  138.2840 C   0  0  0  0  0  2  0  0  0  0  0  0
  194.2140  175.5510  137.8990 C   0  0  0  0  0  2  0  0  0  0  0  0
  193.9380  174.8410  136.6450 N   0  0  0  0  0  0  0  0  0  0  0  0
  195.4040  175.0430  134.3900 O   0  0  0  0  0  1  0  0  0  0  0  0
  194.4420  175.8130  135.2670 P   0  0  0  0  0  0  0  0  0  0  0  0
  193.0890  176.2680  134.3600 O   0  0  0  0  0  0  0  0  0  0  0  0
  195.2150  177.2070  135.8340 O   0  0  0  0  0  1  0  0  0  0  0  0
  194.4950  173.5320  136.5540 N   0  0  0  0  0  0  0  0  0  0  0  0
  196.6030  171.1970  136.8380 C   0  0  0  0  0  2  0  0  0  0  0  0
  195.1150  173.0480  137.8250 C   0  0  1  0  0  3  0  0  0  0  0  0
  197.3830  174.2090  137.2650 C   0  0  0  0  0  2  0  0  0  0  0  0
  195.5140  171.5580  137.8470 C   0  0  0  0  0  2  0  0  0  0  0  0
  197.7670  173.0150  136.3980 C   0  0  0  0  0  2  0  0  0  0  0  0
  197.8000  171.8430  137.1560 O   0  0  0  0  0  0  0  0  0  0  0  0
  196.2850  173.9260  138.3040 C   0  0  0  0  0  2  0  0  0  0  0  0
  193.0120  172.5190  134.3550 O   0  0  0  0  0  0  0  0  0  0  0  0
  193.1600  172.4900  136.0380 P   0  0  0  0  0  0  0  0  0  0  0  0
  193.3970  171.0690  136.4980 O   0  0  0  0  0  1  0  0  0  0  0  0
  191.7140  173.0510  136.7130 O   0  0  0  0  0  1  0  0  0  0  0  0
  185.7410  177.8190  141.7000 C   0  0  0  0  0  2  0  0  0  0  0  0
  185.2830  179.2460  141.4760 C   0  0  0  0  0  2  0  0  0  0  0  0
  184.9610  179.4200  140.1320 O   0  0  0  0  0  0  0  0  0  0  0  0
  184.0290  178.4190  139.8580 C   0  0  0  0  0  2  0  0  0  0  0  0
  183.9300  178.1370  138.3590 C   0  0  1  0  0  3  0  0  0  0  0  0
  186.0730  177.5070  137.3300 C   0  0  0  0  0  0  0  0  0  0  0  0
  186.5240  178.9170  137.1200 C   0  0  0  0  0  1  0  0  0  0  0  0
  184.9410  177.2050  137.8840 N   0  0  0  0  0  0  0  0  0  0  0  0
  187.0000  176.4110  136.8910 C   0  0  1  0  0  3  0  0  0  0  0  0
  186.2980  175.4960  135.8950 C   0  0  0  0  0  2  0  0  0  0  0  0
  186.6290  174.0350  136.1550 C   0  0  0  0  0  2  0  0  0  0  0  0
  185.9890  173.5700  137.4500 C   0  0  0  0  0  1  0  0  0  0  0  0
  188.2860  176.9760  136.2830 C   0  0  0  0  0  2  0  0  0  0  0  0
  189.3620  175.9810  138.2550 C   0  0  0  0  0  2  0  0  0  0  0  0
  189.4910  176.5960  137.0830 C   0  0  0  0  0  3  0  0  0  0  0  0
  182.5200  177.7940  137.8820 C   0  0  0  0  0  2  0  0  0  0  0  0
  181.8590  178.3140  135.6600 O   0  0  0  0  0  1  0  0  0  0  0  0
  182.5390  177.3580  136.4220 C   0  0  2  0  0  3  0  0  0  0  0  0
  180.6980  174.0800  137.4640 C   0  0  0  0  0  2  0  0  0  0  0  0
  181.8800  172.7940  136.9570 S   0  0  0  0  0  0  0  0  0  0  0  0
  182.8950  174.9700  135.6590 C   0  0  0  0  0  2  0  0  0  0  0  0
  182.2380  173.6280  135.3830 C   0  0  0  0  0  2  0  0  0  0  0  0
  180.4050  176.3690  138.2920 C   0  0  0  0  0  1  0  0  0  0  0  0
  181.3950  175.4240  137.6340 C   0  0  2  0  0  3  0  0  0  0  0  0
  181.9000  175.9610  136.2770 C   0  0  1  0  0  3  0  0  0  0  0  0
  1  6  1  0  0  0  0
  4  5  2  0  0  0  0
  5  2  1  0  0  0  0
  5  3  1  0  0  0  0
  6  3  2  0  0  0  0
  7  4  1  0  0  0  0
  7  1  2  0  0  0  0
  8  1  1  0  0  0  0
  8  9  2  0  0  0  0
 10  8  1  0  0  0  0
 11 10  1  0  0  0  0
 12 11  1  0  0  0  0
 13 12  1  0  0  0  0
 14 13  1  0  0  0  0
 15 14  1  0  0  0  0
 16 15  1  0  0  0  0
 17 18  1  0  0  0  0
 18 20  1  0  0  0  0
 18 16  1  0  0  0  0
 19 18  2  0  0  0  0
 21 16  1  0  0  0  0
 22 27  1  0  0  0  0
 22 25  1  0  0  0  0
 23 21  1  6  0  0  0
 23 25  1  0  0  0  0
 23 28  1  0  0  0  0
 24 28  1  0  0  0  0
 26 27  1  0  0  0  0
 26 24  1  0  0  0  0
 29 30  2  0  0  0  0
 30 31  1  0  0  0  0
 30 21  1  0  0  0  0
 30 32  1  0  0  0  0
 33  4  1  0  0  0  0
 34 33  1  0  0  0  0
 35 34  1  0  0  0  0
 36 35  1  0  0  0  0
 37 48  1  1  0  0  0
 37 36  1  0  0  0  0
 38 40  2  0  0  0  0
 39 38  1  0  0  0  0
 40 37  1  0  0  0  0
 41 42  1  6  0  0  0
 41 38  1  0  0  0  0
 42 43  1  0  0  0  0
 43 44  1  0  0  0  0
 45 41  1  0  0  0  0
 45 47  1  0  0  0  0
 47 46  2  0  0  0  0
 50 49  1  6  0  0  0
 50 48  1  0  0  0  0
 51 56  1  0  0  0  0
 52 51  1  0  0  0  0
 53 57  1  0  0  0  0
 54 53  1  0  0  0  0
 54 52  1  0  0  0  0
 56 55  1  6  0  0  0
 57 50  1  1  0  0  0
 57 56  1  0  0  0  0
M  END
>  <MODEL>
3

>  <REMARK>
 VINA RESULT:      -5.0      3.892     10.348
  Name = 
  26 active torsions:
  status: ('A' for Active; 'I' for Inactive)
    1  A    between atoms: C_1  and  C_27
    2  A    between atoms: C_4  and  C_27
    3  A    between atoms: C_4  and  C_54
    4  A    between atoms: C_5  and  C_16
    5  A    between atoms: C_6  and  C_35
    6  A    between atoms: P_8  and  N_55
    7  A    between atoms: C_9  and  C_21
    8  A    between atoms: C_9  and  O_29
    9  A    between atoms: C_10  and  C_42
   10  A    between atoms: C_10  and  N_55
   11  A    between atoms: C_14  and  C_30
   12  A    between atoms: C_14  and  N_52
   13  A    between atoms: C_14  and  C_53
   14  A    between atoms: C_16  and  N_49
   15  A    between atoms: P_18  and  N_28
   16  A    between atoms: C_19  and  C_23
   17  A    between atoms: C_19  and  C_42
   18  A    between atoms: C_21  and  C_31
   19  A    between atoms: C_23  and  C_46
   20  A    between atoms: C_27  and  C_35
   21  A    between atoms: N_28  and  C_34
   22  A    between atoms: N_28  and  N_55
   23  A    between atoms: O_29  and  C_30
   24  A    between atoms: C_32  and  C_53
   25  A    between atoms: C_32  and  C_57
   26  A    between atoms: C_46  and  N_49
                            x       y       z     vdW  Elec       q    Type
                         _______ _______ _______ _____ _____    ______ ____

>  <TORSDO>
F 26

$$$$
=
 OpenBabel10232409133D

 57 59  0  0  1  0  0  0  0  0999 V2000
  189.5740  177.8000  143.5370 C   0  0  0  0  0  0  0  0  0  0  0  0
  185.5740  177.7490  144.9300 N   0  0  0  0  0  1  0  0  0  0  0  0
  187.9600  177.4540  145.3200 C   0  0  0  0  0  3  0  0  0  0  0  0
  187.1920  178.0930  143.1100 C   0  0  0  0  0  0  0  0  0  0  0  0
  186.9140  177.7660  144.4490 C   0  0  0  0  0  0  0  0  0  0  0  0
  189.2800  177.4700  144.8670 C   0  0  0  0  0  3  0  0  0  0  0  0
  188.5170  178.1130  142.6630 C   0  0  0  0  0  3  0  0  0  0  0  0
  190.9820  177.8220  143.0780 C   0  0  0  0  0  0  0  0  0  0  0  0
  191.8630  178.6510  143.6350 C   0  0  0  0  0  2  0  0  0  0  0  0
  191.3910  176.9370  142.0280 N   0  0  0  0  0  2  0  0  0  0  0  0
  191.3580  177.2860  140.6160 C   0  0  0  0  0  2  0  0  0  0  0  0
  192.7250  177.7780  140.1900 C   0  0  0  0  0  2  0  0  0  0  0  0
  193.6420  176.5960  139.9610 C   0  0  0  0  0  2  0  0  0  0  0  0
  193.6050  176.2170  138.4980 C   0  0  0  0  0  2  0  0  0  0  0  0
  194.2960  174.8830  138.3030 C   0  0  0  0  0  2  0  0  0  0  0  0
  194.0110  174.3810  136.9540 N   0  0  0  0  0  0  0  0  0  0  0  0
  192.3350  176.0120  135.6100 O   0  0  0  0  0  1  0  0  0  0  0  0
  193.8030  175.7220  135.8330 P   0  0  0  0  0  0  0  0  0  0  0  0
  194.5670  177.1030  136.4410 O   0  0  0  0  0  1  0  0  0  0  0  0
  194.5110  175.3120  134.3520 O   0  0  0  0  0  0  0  0  0  0  0  0
  194.9620  173.4510  136.4400 N   0  0  0  0  0  0  0  0  0  0  0  0
  197.7220  172.1210  135.6750 C   0  0  0  0  0  2  0  0  0  0  0  0
  196.0970  173.1690  137.3700 C   0  0  1  0  0  3  0  0  0  0  0  0
  197.4870  175.1630  136.4230 C   0  0  0  0  0  2  0  0  0  0  0  0
  196.9780  171.9580  136.9990 C   0  0  0  0  0  2  0  0  0  0  0  0
  197.9550  174.2750  135.2740 C   0  0  0  0  0  2  0  0  0  0  0  0
  198.6480  173.1640  135.7580 O   0  0  0  0  0  0  0  0  0  0  0  0
  196.9700  174.4030  137.6560 C   0  0  0  0  0  2  0  0  0  0  0  0
  192.3830  172.3440  136.0080 O   0  0  0  0  0  1  0  0  0  0  0  0
  194.0350  171.9880  136.0730 P   0  0  0  0  0  0  0  0  0  0  0  0
  194.4780  171.4070  134.7500 O   0  0  0  0  0  0  0  0  0  0  0  0
  194.2880  170.8410  137.2900 O   0  0  0  0  0  1  0  0  0  0  0  0
  186.0980  178.4410  142.1550 C   0  0  0  0  0  2  0  0  0  0  0  0
  184.9480  179.0970  142.8940 C   0  0  0  0  0  2  0  0  0  0  0  0
  183.8300  179.1360  142.0640 O   0  0  0  0  0  0  0  0  0  0  0  0
  183.9880  178.0480  141.2050 C   0  0  0  0  0  2  0  0  0  0  0  0
  183.5340  178.3830  139.7840 C   0  0  1  0  0  3  0  0  0  0  0  0
  181.3650  179.3130  139.0960 C   0  0  0  0  0  0  0  0  0  0  0  0
  180.9670  178.1130  138.2980 C   0  0  0  0  0  1  0  0  0  0  0  0
  182.4870  179.3910  139.7400 N   0  0  0  0  0  0  0  0  0  0  0  0
  180.3940  180.4570  139.1560 C   0  0  1  0  0  3  0  0  0  0  0  0
  179.9830  180.7220  140.6000 C   0  0  0  0  0  2  0  0  0  0  0  0
  180.0660  179.4570  141.4410 C   0  0  0  0  0  2  0  0  0  0  0  0
  180.4050  179.8020  142.8790 C   0  0  0  0  0  1  0  0  0  0  0  0
  180.9790  181.7230  138.5260 C   0  0  0  0  0  2  0  0  0  0  0  0
  180.7690  182.9470  136.4060 C   0  0  0  0  0  2  0  0  0  0  0  0
  180.2200  182.1360  137.3060 C   0  0  0  0  0  3  0  0  0  0  0  0
  184.6810  178.6610  138.8140 C   0  0  0  0  0  2  0  0  0  0  0  0
  184.1480  176.5070  137.9620 O   0  0  0  0  0  1  0  0  0  0  0  0
  184.5550  177.7880  137.5710 C   0  0  2  0  0  3  0  0  0  0  0  0
  187.1960  176.6870  134.9190 C   0  0  0  0  0  2  0  0  0  0  0  0
  188.5970  176.1720  135.9580 S   0  0  0  0  0  0  0  0  0  0  0  0
  187.0620  177.5030  137.7820 C   0  0  0  0  0  2  0  0  0  0  0  0
  188.4020  177.5960  137.0700 C   0  0  0  0  0  2  0  0  0  0  0  0
  184.7590  176.8590  134.7210 C   0  0  0  0  0  1  0  0  0  0  0  0
  185.8940  176.6650  135.7100 C   0  0  2  0  0  3  0  0  0  0  0  0
  185.8980  177.7470  136.8130 C   0  0  1  0  0  3  0  0  0  0  0  0
  1  6  1  0  0  0  0
  4  5  2  0  0  0  0
  5  2  1  0  0  0  0
  5  3  1  0  0  0  0
  6  3  2  0  0  0  0
  7  4  1  0  0  0  0
  7  1  2  0  0  0  0
  8  1  1  0  0  0  0
  8  9  2  0  0  0  0
 10  8  1  0  0  0  0
 11 10  1  0  0  0  0
 12 11  1  0  0  0  0
 13 12  1  0  0  0  0
 14 13  1  0  0  0  0
 15 14  1  0  0  0  0
 16 15  1  0  0  0  0
 17 18  1  0  0  0  0
 18 19  1  0  0  0  0
 18 16  1  0  0  0  0
 20 18  2  0  0  0  0
 21 16  1  0  0  0  0
 22 27  1  0  0  0  0
 22 25  1  0  0  0  0
 23 21  1  6  0  0  0
 23 28  1  0  0  0  0
 24 28  1  0  0  0  0
 25 23  1  0  0  0  0
 26 27  1  0  0  0  0
 26 24  1  0  0  0  0
 29 30  1  0  0  0  0
 30 21  1  0  0  0  0
 30 32  1  0  0  0  0
 31 30  2  0  0  0  0
 33 34  1  0  0  0  0
 33  4  1  0  0  0  0
 35 34  1  0  0  0  0
 36 35  1  0  0  0  0
 37 48  1  6  0  0  0
 37 36  1  0  0  0  0
 38 41  1  0  0  0  0
 38 40  2  0  0  0  0
 39 38  1  0  0  0  0
 40 37  1  0  0  0  0
 41 45  1  1  0  0  0
 41 42  1  0  0  0  0
 42 43  1  0  0  0  0
 43 44  1  0  0  0  0
 46 47  2  0  0  0  0
 47 45  1  0  0  0  0
 50 49  1  1  0  0  0
 50 48  1  0  0  0  0
 51 56  1  0  0  0  0
 51 52  1  0  0  0  0
 52 54  1  0  0  0  0
 54 53  1  0  0  0  0
 56 55  1  6  0  0  0
 56 57  1  0  0  0  0
 57 50  1  1  0  0  0
 57 53  1  0  0  0  0
M  END
>  <MODEL>
4

>  <REMARK>
 VINA RESULT:      -4.7      4.008     10.572
  Name = 
  26 active torsions:
  status: ('A' for Active; 'I' for Inactive)
    1  A    between atoms: C_1  and  C_27
    2  A    between atoms: C_4  and  C_27
    3  A    between atoms: C_4  and  C_54
    4  A    between atoms: C_5  and  C_16
    5  A    between atoms: C_6  and  C_35
    6  A    between atoms: P_8  and  N_55
    7  A    between atoms: C_9  and  C_21
    8  A    between atoms: C_9  and  O_29
    9  A    between atoms: C_10  and  C_42
   10  A    between atoms: C_10  and  N_55
   11  A    between atoms: C_14  and  C_30
   12  A    between atoms: C_14  and  N_52
   13  A    between atoms: C_14  and  C_53
   14  A    between atoms: C_16  and  N_49
   15  A    between atoms: P_18  and  N_28
   16  A    between atoms: C_19  and  C_23
   17  A    between atoms: C_19  and  C_42
   18  A    between atoms: C_21  and  C_31
   19  A    between atoms: C_23  and  C_46
   20  A    between atoms: C_27  and  C_35
   21  A    between atoms: N_28  and  C_34
   22  A    between atoms: N_28  and  N_55
   23  A    between atoms: O_29  and  C_30
   24  A    between atoms: C_32  and  C_53
   25  A    between atoms: C_32  and  C_57
   26  A    between atoms: C_46  and  N_49
                            x       y       z     vdW  Elec       q    Type
                         _______ _______ _______ _____ _____    ______ ____

>  <TORSDO>
F 26

$$$$
=
 OpenBabel10232409133D

 57 59  0  0  1  0  0  0  0  0999 V2000
  187.9110  177.7510  145.3760 C   0  0  0  0  0  0  0  0  0  0  0  0
  191.5740  176.1730  143.9470 N   0  0  0  0  0  1  0  0  0  0  0  0
  190.1580  176.9170  145.7830 C   0  0  0  0  0  3  0  0  0  0  0  0
  189.3060  177.0240  143.5150 C   0  0  0  0  0  0  0  0  0  0  0  0
  190.3400  176.7070  144.4140 C   0  0  0  0  0  0  0  0  0  0  0  0
  188.9530  177.4360  146.2610 C   0  0  0  0  0  3  0  0  0  0  0  0
  188.0990  177.5370  143.9990 C   0  0  0  0  0  3  0  0  0  0  0  0
  186.6360  178.2900  145.9030 C   0  0  0  0  0  0  0  0  0  0  0  0
  186.6070  178.9530  147.0570 C   0  0  0  0  0  2  0  0  0  0  0  0
  185.4300  178.0950  145.1540 N   0  0  0  0  0  2  0  0  0  0  0  0
  185.0100  178.9550  144.0590 C   0  0  0  0  0  2  0  0  0  0  0  0
  185.1130  178.1920  142.7550 C   0  0  0  0  0  2  0  0  0  0  0  0
  184.2330  178.8480  141.7120 C   0  0  0  0  0  2  0  0  0  0  0  0
  185.0650  179.1550  140.4860 C   0  0  0  0  0  2  0  0  0  0  0  0
  184.1780  179.1520  139.2590 C   0  0  0  0  0  2  0  0  0  0  0  0
  182.7840  179.3590  139.6670 N   0  0  0  0  0  0  0  0  0  0  0  0
  183.0240  181.8680  138.7060 O   0  0  0  0  0  1  0  0  0  0  0  0
  182.0740  180.6930  138.7630 P   0  0  0  0  0  0  0  0  0  0  0  0
  181.7020  180.1890  137.1920 O   0  0  0  0  0  0  0  0  0  0  0  0
  180.6480  181.1780  139.5330 O   0  0  0  0  0  1  0  0  0  0  0  0
  181.9490  178.2060  139.5810 N   0  0  0  0  0  0  0  0  0  0  0  0
  180.7100  175.4260  138.7400 C   0  0  0  0  0  2  0  0  0  0  0  0
  182.6990  176.9310  139.3670 C   0  0  1  0  0  3  0  0  0  0  0  0
  182.4730  177.1280  136.7760 C   0  0  0  0  0  2  0  0  0  0  0  0
  181.9100  175.6380  139.6610 C   0  0  0  0  0  2  0  0  0  0  0  0
  181.0770  176.5180  136.8630 C   0  0  0  0  0  2  0  0  0  0  0  0
  181.1300  175.2400  137.4210 O   0  0  0  0  0  0  0  0  0  0  0  0
  183.3760  176.8480  137.9880 C   0  0  0  0  0  2  0  0  0  0  0  0
  182.0780  178.0600  142.4130 O   0  0  0  0  0  1  0  0  0  0  0  0
  181.0290  178.1810  141.0940 P   0  0  0  0  0  0  0  0  0  0  0  0
  180.2010  179.4390  141.2220 O   0  0  0  0  0  1  0  0  0  0  0  0
  179.9980  176.8410  141.1040 O   0  0  0  0  0  0  0  0  0  0  0  0
  189.4650  176.8020  142.0460 C   0  0  0  0  0  2  0  0  0  0  0  0
  190.3880  177.8500  141.4560 C   0  0  0  0  0  2  0  0  0  0  0  0
  191.2710  177.2380  140.5690 O   0  0  0  0  0  0  0  0  0  0  0  0
  190.5990  176.0980  140.1280 C   0  0  0  0  0  2  0  0  0  0  0  0
  190.7570  175.8990  138.6210 C   0  0  1  0  0  3  0  0  0  0  0  0
  188.9560  174.7910  137.3660 C   0  0  0  0  0  0  0  0  0  0  0  0
  189.5930  173.4380  137.4110 C   0  0  0  0  0  1  0  0  0  0  0  0
  189.4880  175.8380  137.9140 N   0  0  0  0  0  0  0  0  0  0  0  0
  187.6330  174.9090  136.6670 C   0  0  1  0  0  3  0  0  0  0  0  0
  186.5580  174.1640  137.4510 C   0  0  0  0  0  2  0  0  0  0  0  0
  185.3770  173.8000  136.5630 C   0  0  0  0  0  2  0  0  0  0  0  0
  184.4280  172.8740  137.3010 C   0  0  0  0  0  1  0  0  0  0  0  0
  187.2320  176.3730  136.4700 C   0  0  0  0  0  2  0  0  0  0  0  0
  188.3550  178.2210  135.3040 C   0  0  0  0  0  2  0  0  0  0  0  0
  187.8970  176.9730  135.2730 C   0  0  0  0  0  3  0  0  0  0  0  0
  191.7660  176.8450  137.9720 C   0  0  0  0  0  2  0  0  0  0  0  0
  193.9320  176.9870  137.0060 O   0  0  0  0  0  1  0  0  0  0  0  0
  193.0810  176.1230  137.7030 C   0  0  2  0  0  3  0  0  0  0  0  0
  193.8080  172.6440  136.0950 C   0  0  0  0  0  2  0  0  0  0  0  0
  193.4010  172.9330  134.3460 S   0  0  0  0  0  0  0  0  0  0  0  0
  192.2920  175.1410  135.5060 C   0  0  0  0  0  2  0  0  0  0  0  0
  191.9040  173.8730  134.7650 C   0  0  0  0  0  2  0  0  0  0  0  0
  194.6640  173.6130  138.1770 C   0  0  0  0  0  1  0  0  0  0  0  0
  194.0960  173.9570  136.8120 C   0  0  2  0  0  3  0  0  0  0  0  0
  192.8220  174.8250  136.9120 C   0  0  1  0  0  3  0  0  0  0  0  0
  1  8  1  0  0  0  0
  1  6  1  0  0  0  0
  2  5  1  0  0  0  0
  3  6  2  0  0  0  0
  4  7  1  0  0  0  0
  4  5  2  0  0  0  0
  5  3  1  0  0  0  0
  7  1  2  0  0  0  0
  8  9  2  0  0  0  0
 10  8  1  0  0  0  0
 11 10  1  0  0  0  0
 12 11  1  0  0  0  0
 13 12  1  0  0  0  0
 14 13  1  0  0  0  0
 15 16  1  0  0  0  0
 15 14  1  0  0  0  0
 17 18  1  0  0  0  0
 18 20  1  0  0  0  0
 18 16  1  0  0  0  0
 19 18  2  0  0  0  0
 21 16  1  0  0  0  0
 21 30  1  0  0  0  0
 22 25  1  0  0  0  0
 23 21  1  6  0  0  0
 23 25  1  0  0  0  0
 24 26  1  0  0  0  0
 24 28  1  0  0  0  0
 26 27  1  0  0  0  0
 27 22  1  0  0  0  0
 28 23  1  0  0  0  0
 30 32  2  0  0  0  0
 30 31  1  0  0  0  0
 30 29  1  0  0  0  0
 33  4  1  0  0  0  0
 34 33  1  0  0  0  0
 35 34  1  0  0  0  0
 36 35  1  0  0  0  0
 37 48  1  6  0  0  0
 37 36  1  0  0  0  0
 38 39  1  0  0  0  0
 38 40  2  0  0  0  0
 40 37  1  0  0  0  0
 41 45  1  1  0  0  0
 41 38  1  0  0  0  0
 41 42  1  0  0  0  0
 43 44  1  0  0  0  0
 43 42  1  0  0  0  0
 47 46  2  0  0  0  0
 47 45  1  0  0  0  0
 50 49  1  6  0  0  0
 50 48  1  0  0  0  0
 51 56  1  0  0  0  0
 52 54  1  0  0  0  0
 52 51  1  0  0  0  0
 53 57  1  0  0  0  0
 54 53  1  0  0  0  0
 56 57  1  0  0  0  0
 56 55  1  1  0  0  0
 57 50  1  6  0  0  0
M  END
>  <MODEL>
5

>  <REMARK>
 VINA RESULT:      -4.4      1.184      2.146
  Name = 
  26 active torsions:
  status: ('A' for Active; 'I' for Inactive)
    1  A    between atoms: C_1  and  C_27
    2  A    between atoms: C_4  and  C_27
    3  A    between atoms: C_4  and  C_54
    4  A    between atoms: C_5  and  C_16
    5  A    between atoms: C_6  and  C_35
    6  A    between atoms: P_8  and  N_55
    7  A    between atoms: C_9  and  C_21
    8  A    between atoms: C_9  and  O_29
    9  A    between atoms: C_10  and  C_42
   10  A    between atoms: C_10  and  N_55
   11  A    between atoms: C_14  and  C_30
   12  A    between atoms: C_14  and  N_52
   13  A    between atoms: C_14  and  C_53
   14  A    between atoms: C_16  and  N_49
   15  A    between atoms: P_18  and  N_28
   16  A    between atoms: C_19  and  C_23
   17  A    between atoms: C_19  and  C_42
   18  A    between atoms: C_21  and  C_31
   19  A    between atoms: C_23  and  C_46
   20  A    between atoms: C_27  and  C_35
   21  A    between atoms: N_28  and  C_34
   22  A    between atoms: N_28  and  N_55
   23  A    between atoms: O_29  and  C_30
   24  A    between atoms: C_32  and  C_53
   25  A    between atoms: C_32  and  C_57
   26  A    between atoms: C_46  and  N_49
                            x       y       z     vdW  Elec       q    Type
                         _______ _______ _______ _____ _____    ______ ____

>  <TORSDO>
F 26

$$$$
=
 OpenBabel10232409133D

 57 59  0  0  1  0  0  0  0  0999 V2000
  189.9570  177.0930  141.3830 C   0  0  0  0  0  0  0  0  0  0  0  0
  186.7180  177.4830  144.0860 N   0  0  0  0  0  1  0  0  0  0  0  0
  188.8870  176.5450  143.4950 C   0  0  0  0  0  3  0  0  0  0  0  0
  187.7810  178.0400  141.9380 C   0  0  0  0  0  0  0  0  0  0  0  0
  187.7990  177.3570  143.1670 C   0  0  0  0  0  0  0  0  0  0  0  0
  189.9580  176.4130  142.6090 C   0  0  0  0  0  3  0  0  0  0  0  0
  188.8590  177.9100  141.0570 C   0  0  0  0  0  3  0  0  0  0  0  0
  191.1070  176.9500  140.4610 C   0  0  0  0  0  0  0  0  0  0  0  0
  192.1960  177.7020  140.6140 C   0  0  0  0  0  1  0  0  0  0  0  0
  191.0410  175.9870  139.4020 N   0  0  0  0  0  0  0  0  0  0  0  0
  191.9730  175.9470  138.2850 C   0  0  0  0  0  2  0  0  0  0  0  0
  191.7500  174.6750  137.4940 C   0  0  0  0  0  2  0  0  0  0  0  0
  193.0850  174.0980  137.0740 C   0  0  0  0  0  2  0  0  0  0  0  0
  194.1910  174.8250  137.8070 C   0  0  0  0  0  2  0  0  0  0  0  0
  195.4700  174.0190  137.7220 C   0  0  0  0  0  2  0  0  0  0  0  0
  195.8010  173.7790  136.3130 N   0  0  0  0  0  0  0  0  0  0  0  0
  197.3790  175.9380  136.6620 O   0  0  0  0  0  1  0  0  0  0  0  0
  196.5750  175.1980  135.6170 P   0  0  0  0  0  0  0  0  0  0  0  0
  197.5900  174.7330  134.3460 O   0  0  0  0  0  0  0  0  0  0  0  0
  195.3800  176.2320  135.0120 O   0  0  0  0  0  1  0  0  0  0  0  0
  196.5880  172.6160  136.0650 N   0  0  0  0  0  0  0  0  0  0  0  0
  198.4470  170.0660  136.1890 C   0  0  0  0  0  2  0  0  0  0  0  0
  197.2990  172.0970  137.2720 C   0  0  1  0  0  3  0  0  0  0  0  0
  199.5970  172.9800  136.4100 C   0  0  0  0  0  2  0  0  0  0  0  0
  197.5320  170.5720  137.3030 C   0  0  0  0  0  2  0  0  0  0  0  0
  199.7420  171.7290  135.5490 C   0  0  0  0  0  2  0  0  0  0  0  0
  199.7370  170.5800  136.3420 O   0  0  0  0  0  0  0  0  0  0  0  0
  198.6060  172.8490  137.5790 C   0  0  0  0  0  2  0  0  0  0  0  0
  194.7970  170.4910  136.6470 O   0  0  0  0  0  1  0  0  0  0  0  0
  195.4620  171.4220  135.4020 P   0  0  0  0  0  0  0  0  0  0  0  0
  194.3520  172.1140  134.6430 O   0  0  0  0  0  1  0  0  0  0  0  0
  196.2890  170.3920  134.3460 O   0  0  0  0  0  0  0  0  0  0  0  0
  186.6370  178.9250  141.5620 C   0  0  0  0  0  2  0  0  0  0  0  0
  185.6150  178.1440  140.7590 C   0  0  0  0  0  2  0  0  0  0  0  0
  184.4750  178.9240  140.5830 O   0  0  0  0  0  0  0  0  0  0  0  0
  183.6110  178.1270  139.8320 C   0  0  0  0  0  2  0  0  0  0  0  0
  183.8430  178.3060  138.3310 C   0  0  1  0  0  3  0  0  0  0  0  0
  185.2840  177.1120  136.7370 C   0  0  0  0  0  0  0  0  0  0  0  0
  185.8690  178.3560  136.1480 C   0  0  0  0  0  1  0  0  0  0  0  0
  184.4120  177.1280  137.6950 N   0  0  0  0  0  0  0  0  0  0  0  0
  185.7630  175.7980  136.1910 C   0  0  1  0  0  3  0  0  0  0  0  0
  187.2780  175.8180  136.0280 C   0  0  0  0  0  2  0  0  0  0  0  0
  187.9770  176.0320  137.3620 C   0  0  0  0  0  2  0  0  0  0  0  0
  188.8370  177.2810  137.3140 C   0  0  0  0  0  1  0  0  0  0  0  0
  185.3370  174.6310  137.0840 C   0  0  0  0  0  2  0  0  0  0  0  0
  184.9840  172.2070  136.8880 C   0  0  0  0  0  2  0  0  0  0  0  0
  185.0790  173.3910  136.2900 C   0  0  0  0  0  3  0  0  0  0  0  0
  182.6420  178.8780  137.5800 C   0  0  0  0  0  2  0  0  0  0  0  0
  180.6790  178.2600  136.3920 O   0  0  0  0  0  1  0  0  0  0  0  0
  181.9320  177.7830  136.7930 C   0  0  2  0  0  3  0  0  0  0  0  0
  181.2680  174.0370  137.6610 C   0  0  0  0  0  2  0  0  0  0  0  0
  179.9820  174.1590  138.9410 S   0  0  0  0  0  0  0  0  0  0  0  0
  180.8490  176.7450  138.8340 C   0  0  0  0  0  2  0  0  0  0  0  0
  180.8180  175.5450  139.7660 C   0  0  0  0  0  2  0  0  0  0  0  0
  182.2260  175.0270  135.6330 C   0  0  0  0  0  1  0  0  0  0  0  0
  181.3170  175.3050  136.8170 C   0  0  2  0  0  3  0  0  0  0  0  0
  181.8020  176.5090  137.6540 C   0  0  1  0  0  3  0  0  0  0  0  0
  1  6  1  0  0  0  0
  4  5  2  0  0  0  0
  5  3  1  0  0  0  0
  5  2  1  0  0  0  0
  6  3  2  0  0  0  0
  7  1  2  0  0  0  0
  7  4  1  0  0  0  0
  8  9  1  0  0  0  0
  8  1  1  0  0  0  0
 10  8  2  0  0  0  0
 11 10  1  0  0  0  0
 12 11  1  0  0  0  0
 13 12  1  0  0  0  0
 13 14  1  0  0  0  0
 15 14  1  0  0  0  0
 16 15  1  0  0  0  0
 18 16  1  0  0  0  0
 18 17  1  0  0  0  0
 19 18  2  0  0  0  0
 20 18  1  0  0  0  0
 21 16  1  0  0  0  0
 22 27  1  0  0  0  0
 22 25  1  0  0  0  0
 23 21  1  6  0  0  0
 23 25  1  0  0  0  0
 23 28  1  0  0  0  0
 24 28  1  0  0  0  0
 26 27  1  0  0  0  0
 26 24  1  0  0  0  0
 30 21  1  0  0  0  0
 30 29  1  0  0  0  0
 31 30  1  0  0  0  0
 32 30  2  0  0  0  0
 33  4  1  0  0  0  0
 34 33  1  0  0  0  0
 35 34  1  0  0  0  0
 36 35  1  0  0  0  0
 37 48  1  6  0  0  0
 37 36  1  0  0  0  0
 38 40  2  0  0  0  0
 39 38  1  0  0  0  0
 40 37  1  0  0  0  0
 41 42  1  1  0  0  0
 41 38  1  0  0  0  0
 41 45  1  0  0  0  0
 42 43  1  0  0  0  0
 44 43  1  0  0  0  0
 47 46  2  0  0  0  0
 47 45  1  0  0  0  0
 50 49  1  1  0  0  0
 50 48  1  0  0  0  0
 51 52  1  0  0  0  0
 52 54  1  0  0  0  0
 53 54  1  0  0  0  0
 56 55  1  6  0  0  0
 56 57  1  0  0  0  0
 56 51  1  0  0  0  0
 57 50  1  6  0  0  0
 57 53  1  0  0  0  0
M  END
>  <MODEL>
6

>  <REMARK>
 VINA RESULT:      -4.3      4.788     11.598
  Name = 
  26 active torsions:
  status: ('A' for Active; 'I' for Inactive)
    1  A    between atoms: C_1  and  C_27
    2  A    between atoms: C_4  and  C_27
    3  A    between atoms: C_4  and  C_54
    4  A    between atoms: C_5  and  C_16
    5  A    between atoms: C_6  and  C_35
    6  A    between atoms: P_8  and  N_55
    7  A    between atoms: C_9  and  C_21
    8  A    between atoms: C_9  and  O_29
    9  A    between atoms: C_10  and  C_42
   10  A    between atoms: C_10  and  N_55
   11  A    between atoms: C_14  and  C_30
   12  A    between atoms: C_14  and  N_52
   13  A    between atoms: C_14  and  C_53
   14  A    between atoms: C_16  and  N_49
   15  A    between atoms: P_18  and  N_28
   16  A    between atoms: C_19  and  C_23
   17  A    between atoms: C_19  and  C_42
   18  A    between atoms: C_21  and  C_31
   19  A    between atoms: C_23  and  C_46
   20  A    between atoms: C_27  and  C_35
   21  A    between atoms: N_28  and  C_34
   22  A    between atoms: N_28  and  N_55
   23  A    between atoms: O_29  and  C_30
   24  A    between atoms: C_32  and  C_53
   25  A    between atoms: C_32  and  C_57
   26  A    between atoms: C_46  and  N_49
                            x       y       z     vdW  Elec       q    Type
                         _______ _______ _______ _____ _____    ______ ____

>  <TORSDO>
F 26

$$$$
=
 OpenBabel10232409133D

 57 59  0  0  1  0  0  0  0  0999 V2000
  186.1530  178.3100  144.3600 C   0  0  0  0  0  0  0  0  0  0  0  0
  190.1850  177.0780  143.9390 N   0  0  0  0  0  1  0  0  0  0  0  0
  188.2740  177.6410  145.3400 C   0  0  0  0  0  3  0  0  0  0  0  0
  188.0490  177.7630  142.9290 C   0  0  0  0  0  0  0  0  0  0  0  0
  188.8300  177.4960  144.0670 C   0  0  0  0  0  0  0  0  0  0  0  0
  186.9460  178.0460  145.4860 C   0  0  0  0  0  3  0  0  0  0  0  0
  186.7180  178.1620  143.0800 C   0  0  0  0  0  3  0  0  0  0  0  0
  184.7430  178.7270  144.5330 C   0  0  0  0  0  0  0  0  0  0  0  0
  184.3990  179.5610  145.5140 C   0  0  0  0  0  2  0  0  0  0  0  0
  183.7480  178.2290  143.6310 N   0  0  0  0  0  2  0  0  0  0  0  0
  182.5510  178.9670  143.2580 C   0  0  0  0  0  2  0  0  0  0  0  0
  181.3500  178.0490  143.3430 C   0  0  0  0  0  2  0  0  0  0  0  0
  180.1310  178.7540  142.7900 C   0  0  0  0  0  2  0  0  0  0  0  0
  180.5390  179.5820  141.5910 C   0  0  0  0  0  2  0  0  0  0  0  0
  181.1530  178.6820  140.5400 C   0  0  0  0  0  2  0  0  0  0  0  0
  182.0490  179.4710  139.6870 N   0  0  0  0  0  0  0  0  0  0  0  0
  184.5810  179.8060  140.5530 O   0  0  0  0  0  1  0  0  0  0  0  0
  183.6930  178.8510  139.7880 P   0  0  0  0  0  0  0  0  0  0  0  0
  183.6920  177.3430  140.5540 O   0  0  0  0  0  1  0  0  0  0  0  0
  184.3060  178.6690  138.2220 O   0  0  0  0  0  0  0  0  0  0  0  0
  181.6460  179.5820  138.3240 N   0  0  0  0  0  0  0  0  0  0  0  0
  180.9960  178.1500  135.5860 C   0  0  0  0  0  2  0  0  0  0  0  0
  180.4030  178.8220  137.9960 C   0  0  1  0  0  3  0  0  0  0  0  0
  181.6400  176.5340  138.2010 C   0  0  0  0  0  2  0  0  0  0  0  0
  179.9880  178.8310  136.5090 C   0  0  0  0  0  2  0  0  0  0  0  0
  182.1490  176.6950  136.7720 C   0  0  0  0  0  2  0  0  0  0  0  0
  181.0830  176.7860  135.8750 O   0  0  0  0  0  0  0  0  0  0  0  0
  180.4060  177.3840  138.5460 C   0  0  0  0  0  2  0  0  0  0  0  0
  180.0550  181.8840  138.8030 O   0  0  0  0  0  1  0  0  0  0  0  0
  181.4500  181.3180  138.0340 P   0  0  0  0  0  0  0  0  0  0  0  0
  182.6530  182.0730  138.5520 O   0  0  0  0  0  1  0  0  0  0  0  0
  181.2980  181.5980  136.3740 O   0  0  0  0  0  0  0  0  0  0  0  0
  188.6100  177.6080  141.5530 C   0  0  0  0  0  2  0  0  0  0  0  0
  188.7280  178.9620  140.8810 C   0  0  0  0  0  2  0  0  0  0  0  0
  188.2590  178.8690  139.5730 O   0  0  0  0  0  0  0  0  0  0  0  0
  188.0310  177.5070  139.3740 C   0  0  0  0  0  2  0  0  0  0  0  0
  188.5830  177.0350  138.0280 C   0  0  1  0  0  3  0  0  0  0  0  0
  187.1640  175.4650  136.7760 C   0  0  0  0  0  0  0  0  0  0  0  0
  187.7510  174.2430  137.4080 C   0  0  0  0  0  1  0  0  0  0  0  0
  187.5440  176.6670  137.0800 N   0  0  0  0  0  0  0  0  0  0  0  0
  186.0740  175.2650  135.7640 C   0  0  1  0  0  3  0  0  0  0  0  0
  185.5670  173.8280  135.8170 C   0  0  0  0  0  2  0  0  0  0  0  0
  184.2810  173.7220  136.6220 C   0  0  0  0  0  2  0  0  0  0  0  0
  183.8650  172.2700  136.7630 C   0  0  0  0  0  1  0  0  0  0  0  0
  184.9200  176.2460  135.9830 C   0  0  0  0  0  2  0  0  0  0  0  0
  186.0060  177.9440  134.5780 C   0  0  0  0  0  2  0  0  0  0  0  0
  184.8920  177.3100  134.9330 C   0  0  0  0  0  3  0  0  0  0  0  0
  189.6450  177.9590  137.4340 C   0  0  0  0  0  2  0  0  0  0  0  0
  189.3650  177.7970  135.0800 O   0  0  0  0  0  1  0  0  0  0  0  0
  190.1880  177.3820  136.1330 C   0  0  2  0  0  3  0  0  0  0  0  0
  191.5170  173.8600  137.1570 C   0  0  0  0  0  2  0  0  0  0  0  0
  191.7580  173.0530  135.5440 S   0  0  0  0  0  0  0  0  0  0  0  0
  190.2600  175.2170  134.8200 C   0  0  0  0  0  2  0  0  0  0  0  0
  190.1900  173.7010  134.8940 C   0  0  0  0  0  2  0  0  0  0  0  0
  191.5500  175.9680  138.4070 C   0  0  0  0  0  1  0  0  0  0  0  0
  191.5010  175.3760  137.0100 C   0  0  2  0  0  3  0  0  0  0  0  0
  190.2580  175.8430  136.2220 C   0  0  1  0  0  3  0  0  0  0  0  0
  1  8  1  0  0  0  0
  1  6  1  0  0  0  0
  2  5  1  0  0  0  0
  3  6  2  0  0  0  0
  4  7  1  0  0  0  0
  4  5  2  0  0  0  0
  5  3  1  0  0  0  0
  7  1  2  0  0  0  0
  8  9  2  0  0  0  0
 10  8  1  0  0  0  0
 11 12  1  0  0  0  0
 11 10  1  0  0  0  0
 13 12  1  0  0  0  0
 14 13  1  0  0  0  0
 15 14  1  0  0  0  0
 16 18  1  0  0  0  0
 16 15  1  0  0  0  0
 18 17  1  0  0  0  0
 18 19  1  0  0  0  0
 20 18  2  0  0  0  0
 21 16  1  0  0  0  0
 22 27  1  0  0  0  0
 22 25  1  0  0  0  0
 23 21  1  6  0  0  0
 23 28  1  0  0  0  0
 24 28  1  0  0  0  0
 25 23  1  0  0  0  0
 26 24  1  0  0  0  0
 27 26  1  0  0  0  0
 30 21  1  0  0  0  0
 30 31  1  0  0  0  0
 30 29  1  0  0  0  0
 32 30  2  0  0  0  0
 33  4  1  0  0  0  0
 34 33  1  0  0  0  0
 35 34  1  0  0  0  0
 36 35  1  0  0  0  0
 37 48  1  6  0  0  0
 37 36  1  0  0  0  0
 38 40  2  0  0  0  0
 38 39  1  0  0  0  0
 40 37  1  0  0  0  0
 41 42  1  1  0  0  0
 41 45  1  0  0  0  0
 41 38  1  0  0  0  0
 42 43  1  0  0  0  0
 43 44  1  0  0  0  0
 46 47  2  0  0  0  0
 47 45  1  0  0  0  0
 50 49  1  6  0  0  0
 50 48  1  0  0  0  0
 52 51  1  0  0  0  0
 53 54  1  0  0  0  0
 53 57  1  0  0  0  0
 54 52  1  0  0  0  0
 56 51  1  0  0  0  0
 56 55  1  1  0  0  0
 57 50  1  6  0  0  0
 57 56  1  0  0  0  0
M  END
>  <MODEL>
7

>  <REMARK>
 VINA RESULT:      -3.8      2.186      3.501
  Name = 
  26 active torsions:
  status: ('A' for Active; 'I' for Inactive)
    1  A    between atoms: C_1  and  C_27
    2  A    between atoms: C_4  and  C_27
    3  A    between atoms: C_4  and  C_54
    4  A    between atoms: C_5  and  C_16
    5  A    between atoms: C_6  and  C_35
    6  A    between atoms: P_8  and  N_55
    7  A    between atoms: C_9  and  C_21
    8  A    between atoms: C_9  and  O_29
    9  A    between atoms: C_10  and  C_42
   10  A    between atoms: C_10  and  N_55
   11  A    between atoms: C_14  and  C_30
   12  A    between atoms: C_14  and  N_52
   13  A    between atoms: C_14  and  C_53
   14  A    between atoms: C_16  and  N_49
   15  A    between atoms: P_18  and  N_28
   16  A    between atoms: C_19  and  C_23
   17  A    between atoms: C_19  and  C_42
   18  A    between atoms: C_21  and  C_31
   19  A    between atoms: C_23  and  C_46
   20  A    between atoms: C_27  and  C_35
   21  A    between atoms: N_28  and  C_34
   22  A    between atoms: N_28  and  N_55
   23  A    between atoms: O_29  and  C_30
   24  A    between atoms: C_32  and  C_53
   25  A    between atoms: C_32  and  C_57
   26  A    between atoms: C_46  and  N_49
                            x       y       z     vdW  Elec       q    Type
                         _______ _______ _______ _____ _____    ______ ____

>  <TORSDO>
F 26

$$$$
=
 OpenBabel10232409133D

 57 59  0  0  1  0  0  0  0  0999 V2000
  191.8790  175.9620  137.1050 C   0  0  0  0  0  0  0  0  0  0  0  0
  188.4940  175.6840  134.5730 N   0  0  0  0  0  1  0  0  0  0  0  0
  190.7470  174.9930  135.1850 C   0  0  0  0  0  3  0  0  0  0  0  0
  189.6270  176.6840  136.5140 C   0  0  0  0  0  0  0  0  0  0  0  0
  189.6260  175.7890  135.4290 C   0  0  0  0  0  0  0  0  0  0  0  0
  191.8660  175.0790  136.0160 C   0  0  0  0  0  3  0  0  0  0  0  0
  190.7470  176.7620  137.3470 C   0  0  0  0  0  3  0  0  0  0  0  0
  193.0700  176.0310  137.9820 C   0  0  0  0  0  0  0  0  0  0  0  0
  193.9900  175.0690  137.9520 C   0  0  0  0  0  2  0  0  0  0  0  0
  193.2270  177.1500  138.8640 N   0  0  0  0  0  2  0  0  0  0  0  0
  192.9580  177.0970  140.2930 C   0  0  0  0  0  2  0  0  0  0  0  0
  191.5650  177.6280  140.5600 C   0  0  0  0  0  2  0  0  0  0  0  0
  190.6030  176.4700  140.7230 C   0  0  0  0  0  2  0  0  0  0  0  0
  190.3020  176.2810  142.1930 C   0  0  0  0  0  2  0  0  0  0  0  0
  188.8330  176.5480  142.4470 C   0  0  0  0  0  2  0  0  0  0  0  0
  188.6540  177.9530  142.8300 N   0  0  0  0  0  0  0  0  0  0  0  0
  186.3600  177.8970  141.4120 O   0  0  0  0  0  1  0  0  0  0  0  0
  187.5670  178.7600  141.7050 P   0  0  0  0  0  0  0  0  0  0  0  0
  187.0620  180.2380  142.3540 O   0  0  0  0  0  1  0  0  0  0  0  0
  188.3950  179.0520  140.2590 O   0  0  0  0  0  0  0  0  0  0  0  0
  188.2210  178.1650  144.1720 N   0  0  0  0  0  0  0  0  0  0  0  0
  187.0570  177.9330  147.0980 C   0  0  0  0  0  2  0  0  0  0  0  0
  187.2120  177.1710  144.6470 C   0  0  1  0  0  3  0  0  0  0  0  0
  185.3250  178.9720  144.6930 C   0  0  0  0  0  2  0  0  0  0  0  0
  187.3150  176.7760  146.1350 C   0  0  0  0  0  2  0  0  0  0  0  0
  185.8090  179.4270  146.0660 C   0  0  0  0  0  2  0  0  0  0  0  0
  185.7380  178.3790  146.9870 O   0  0  0  0  0  0  0  0  0  0  0  0
  185.7650  177.5550  144.2900 C   0  0  0  0  0  2  0  0  0  0  0  0
  190.2310  176.5300  145.3320 O   0  0  0  0  0  1  0  0  0  0  0  0
  189.6950  178.1230  145.1510 P   0  0  0  0  0  0  0  0  0  0  0  0
  190.7810  178.9480  144.4970 O   0  0  0  0  0  0  0  0  0  0  0  0
  189.3720  178.7580  146.6850 O   0  0  0  0  0  1  0  0  0  0  0  0
  188.4400  177.5420  136.8090 C   0  0  0  0  0  2  0  0  0  0  0  0
  187.5150  176.8380  137.7820 C   0  0  0  0  0  2  0  0  0  0  0  0
  186.4950  177.7100  138.1590 O   0  0  0  0  0  0  0  0  0  0  0  0
  185.5470  177.6100  137.1410 C   0  0  0  0  0  2  0  0  0  0  0  0
  184.3610  176.7420  137.5600 C   0  0  1  0  0  3  0  0  0  0  0  0
  182.2390  177.1380  138.7370 C   0  0  0  0  0  0  0  0  0  0  0  0
  182.2290  175.8060  139.4180 C   0  0  0  0  0  1  0  0  0  0  0  0
  183.1910  177.5160  137.9430 N   0  0  0  0  0  0  0  0  0  0  0  0
  181.0960  178.0680  139.0210 C   0  0  1  0  0  3  0  0  0  0  0  0
  181.3020  178.7590  140.3640 C   0  0  0  0  0  2  0  0  0  0  0  0
  182.7270  178.5810  140.8670 C   0  0  0  0  0  2  0  0  0  0  0  0
  182.7890  178.7990  142.3660 C   0  0  0  0  0  1  0  0  0  0  0  0
  180.9270  179.1050  137.9080 C   0  0  0  0  0  2  0  0  0  0  0  0
  180.7320  181.2930  139.0100 C   0  0  0  0  0  2  0  0  0  0  0  0
  181.4720  180.4390  138.3080 C   0  0  0  0  0  3  0  0  0  0  0  0
  184.0440  175.6100  136.5840 C   0  0  0  0  0  2  0  0  0  0  0  0
  185.3190  174.2000  138.0110 O   0  0  0  0  0  1  0  0  0  0  0  0
  184.1230  174.2590  137.2850 C   0  0  2  0  0  3  0  0  0  0  0  0
  182.7920  171.0310  135.5460 C   0  0  0  0  0  2  0  0  0  0  0  0
  184.2710  169.9740  135.5070 S   0  0  0  0  0  0  0  0  0  0  0  0
  185.3790  172.3910  136.1270 C   0  0  0  0  0  2  0  0  0  0  0  0
  185.3450  171.3550  135.0150 C   0  0  0  0  0  2  0  0  0  0  0  0
  181.5640  172.7770  136.7520 C   0  0  0  0  0  1  0  0  0  0  0  0
  182.9210  172.1090  136.6150 C   0  0  2  0  0  3  0  0  0  0  0  0
  184.0330  173.1180  136.2520 C   0  0  1  0  0  3  0  0  0  0  0  0
  1  7  1  0  0  0  0
  1  8  1  0  0  0  0
  2  5  1  0  0  0  0
  3  5  2  0  0  0  0
  3  6  1  0  0  0  0
  4 33  1  0  0  0  0
  4  7  2  0  0  0  0
  5  4  1  0  0  0  0
  6  1  2  0  0  0  0
  8 10  1  0  0  0  0
  9  8  2  0  0  0  0
 10 11  1  0  0  0  0
 11 12  1  0  0  0  0
 12 13  1  0  0  0  0
 13 14  1  0  0  0  0
 14 15  1  0  0  0  0
 15 16  1  0  0  0  0
 16 21  1  0  0  0  0
 17 18  1  0  0  0  0
 18 19  1  0  0  0  0
 18 16  1  0  0  0  0
 20 18  2  0  0  0  0
 21 30  1  0  0  0  0
 23 21  1  1  0  0  0
 23 25  1  0  0  0  0
 24 26  1  0  0  0  0
 25 22  1  0  0  0  0
 26 27  1  0  0  0  0
 27 22  1  0  0  0  0
 28 23  1  0  0  0  0
 28 24  1  0  0  0  0
 30 29  1  0  0  0  0
 30 32  1  0  0  0  0
 31 30  2  0  0  0  0
 33 34  1  0  0  0  0
 34 35  1  0  0  0  0
 36 37  1  0  0  0  0
 36 35  1  0  0  0  0
 37 48  1  6  0  0  0
 37 40  1  0  0  0  0
 38 41  1  0  0  0  0
 38 39  1  0  0  0  0
 40 38  2  0  0  0  0
 41 45  1  6  0  0  0
 41 42  1  0  0  0  0
 42 43  1  0  0  0  0
 43 44  1  0  0  0  0
 45 47  1  0  0  0  0
 47 46  2  0  0  0  0
 48 50  1  0  0  0  0
 50 49  1  6  0  0  0
 51 56  1  0  0  0  0
 52 51  1  0  0  0  0
 53 57  1  0  0  0  0
 54 52  1  0  0  0  0
 54 53  1  0  0  0  0
 56 55  1  6  0  0  0
 57 56  1  0  0  0  0
 57 50  1  1  0  0  0
M  END
>  <MODEL>
8

>  <REMARK>
 VINA RESULT:      -3.6      3.589      9.109
  Name = 
  26 active torsions:
  status: ('A' for Active; 'I' for Inactive)
    1  A    between atoms: C_1  and  C_27
    2  A    between atoms: C_4  and  C_27
    3  A    between atoms: C_4  and  C_54
    4  A    between atoms: C_5  and  C_16
    5  A    between atoms: C_6  and  C_35
    6  A    between atoms: P_8  and  N_55
    7  A    between atoms: C_9  and  C_21
    8  A    between atoms: C_9  and  O_29
    9  A    between atoms: C_10  and  C_42
   10  A    between atoms: C_10  and  N_55
   11  A    between atoms: C_14  and  C_30
   12  A    between atoms: C_14  and  N_52
   13  A    between atoms: C_14  and  C_53
   14  A    between atoms: C_16  and  N_49
   15  A    between atoms: P_18  and  N_28
   16  A    between atoms: C_19  and  C_23
   17  A    between atoms: C_19  and  C_42
   18  A    between atoms: C_21  and  C_31
   19  A    between atoms: C_23  and  C_46
   20  A    between atoms: C_27  and  C_35
   21  A    between atoms: N_28  and  C_34
   22  A    between atoms: N_28  and  N_55
   23  A    between atoms: O_29  and  C_30
   24  A    between atoms: C_32  and  C_53
   25  A    between atoms: C_32  and  C_57
   26  A    between atoms: C_46  and  N_49
                            x       y       z     vdW  Elec       q    Type
                         _______ _______ _______ _____ _____    ______ ____

>  <TORSDO>
F 26

$$$$
=
 OpenBabel10232409133D

 57 59  0  0  1  0  0  0  0  0999 V2000
  188.6580  177.4560  143.3080 C   0  0  0  0  0  0  0  0  0  0  0  0
  184.6270  178.7560  143.4000 N   0  0  0  0  0  1  0  0  0  0  0  0
  186.7190  178.2530  144.5390 C   0  0  0  0  0  3  0  0  0  0  0  0
  186.5750  177.9410  142.1390 C   0  0  0  0  0  0  0  0  0  0  0  0
  185.9790  178.3150  143.3570 C   0  0  0  0  0  0  0  0  0  0  0  0
  188.0490  177.8260  144.5160 C   0  0  0  0  0  3  0  0  0  0  0  0
  187.9080  177.5200  142.1200 C   0  0  0  0  0  3  0  0  0  0  0  0
  190.0720  177.0160  143.3020 C   0  0  0  0  0  0  0  0  0  0  0  0
  190.4390  175.9050  143.9380 C   0  0  0  0  0  2  0  0  0  0  0  0
  191.0450  177.7970  142.5970 N   0  0  0  0  0  2  0  0  0  0  0  0
  192.2160  177.2330  141.9430 C   0  0  0  0  0  2  0  0  0  0  0  0
  191.9700  177.1650  140.4510 C   0  0  0  0  0  2  0  0  0  0  0  0
  193.2940  177.1210  139.7190 C   0  0  0  0  0  2  0  0  0  0  0  0
  193.1710  176.2000  138.5260 C   0  0  0  0  0  2  0  0  0  0  0  0
  194.4640  175.4350  138.3410 C   0  0  0  0  0  2  0  0  0  0  0  0
  194.2910  174.4380  137.2790 N   0  0  0  0  0  0  0  0  0  0  0  0
  192.1620  174.9420  135.7030 O   0  0  0  0  0  1  0  0  0  0  0  0
  193.6480  175.1960  135.8270 P   0  0  0  0  0  0  0  0  0  0  0  0
  193.9350  176.8620  135.8730 O   0  0  0  0  0  1  0  0  0  0  0  0
  194.4290  174.5430  134.4760 O   0  0  0  0  0  0  0  0  0  0  0  0
  195.4570  173.6790  136.9640 N   0  0  0  0  0  0  0  0  0  0  0  0
  198.4160  172.8040  136.2920 C   0  0  0  0  0  2  0  0  0  0  0  0
  196.6990  174.1730  137.6320 C   0  0  1  0  0  3  0  0  0  0  0  0
  197.3190  175.6600  135.5800 C   0  0  0  0  0  2  0  0  0  0  0  0
  197.8760  173.1750  137.6720 C   0  0  0  0  0  2  0  0  0  0  0  0
  197.9380  174.4430  134.9000 C   0  0  0  0  0  2  0  0  0  0  0  0
  198.9790  173.9210  135.6700 O   0  0  0  0  0  0  0  0  0  0  0  0
  197.1710  175.5400  137.1060 C   0  0  0  0  0  2  0  0  0  0  0  0
  196.2780  170.9620  136.8890 O   0  0  0  0  0  1  0  0  0  0  0  0
  195.0750  172.0160  137.4360 P   0  0  0  0  0  0  0  0  0  0  0  0
  194.9620  171.9130  138.9410 O   0  0  0  0  0  1  0  0  0  0  0  0
  193.6030  171.5570  136.7420 O   0  0  0  0  0  0  0  0  0  0  0  0
  185.8140  178.0040  140.8550 C   0  0  0  0  0  2  0  0  0  0  0  0
  185.0100  179.2870  140.7870 C   0  0  0  0  0  2  0  0  0  0  0  0
  184.6940  179.5620  139.4580 O   0  0  0  0  0  0  0  0  0  0  0  0
  184.0030  178.4340  139.0160 C   0  0  0  0  0  2  0  0  0  0  0  0
  184.2400  178.1760  137.5280 C   0  0  1  0  0  3  0  0  0  0  0  0
  186.0380  177.2990  136.0990 C   0  0  0  0  0  0  0  0  0  0  0  0
  185.4530  177.8310  134.8300 C   0  0  0  0  0  1  0  0  0  0  0  0
  185.4870  177.4790  137.2580 N   0  0  0  0  0  0  0  0  0  0  0  0
  187.3330  176.5460  136.0010 C   0  0  1  0  0  3  0  0  0  0  0  0
  188.0920  176.6340  137.3200 C   0  0  0  0  0  2  0  0  0  0  0  0
  189.4390  177.3190  137.1410 C   0  0  0  0  0  2  0  0  0  0  0  0
  189.7750  177.4440  135.6680 C   0  0  0  0  0  1  0  0  0  0  0  0
  187.1030  175.0840  135.6140 C   0  0  0  0  0  2  0  0  0  0  0  0
  187.8320  173.1010  136.8700 C   0  0  0  0  0  2  0  0  0  0  0  0
  187.0730  174.1920  136.8140 C   0  0  0  0  0  3  0  0  0  0  0  0
  183.0390  177.5690  136.8040 C   0  0  0  0  0  2  0  0  0  0  0  0
  183.6940  175.7570  138.1950 O   0  0  0  0  0  1  0  0  0  0  0  0
  182.6100  176.2700  137.4750 C   0  0  2  0  0  3  0  0  0  0  0  0
  180.6510  173.2480  135.9730 C   0  0  0  0  0  2  0  0  0  0  0  0
  181.9830  172.2480  135.2420 S   0  0  0  0  0  0  0  0  0  0  0  0
  183.2930  174.6000  135.6980 C   0  0  0  0  0  2  0  0  0  0  0  0
  182.8180  173.7110  134.5600 C   0  0  0  0  0  2  0  0  0  0  0  0
  180.0100  174.7920  137.7670 C   0  0  0  0  0  1  0  0  0  0  0  0
  181.1990  174.1870  137.0410 C   0  0  2  0  0  3  0  0  0  0  0  0
  182.1100  175.2650  136.4160 C   0  0  1  0  0  3  0  0  0  0  0  0
  1  6  1  0  0  0  0
  4  5  2  0  0  0  0
  5  2  1  0  0  0  0
  5  3  1  0  0  0  0
  6  3  2  0  0  0  0
  7  4  1  0  0  0  0
  7  1  2  0  0  0  0
  8  1  1  0  0  0  0
  8  9  2  0  0  0  0
 10  8  1  0  0  0  0
 11 10  1  0  0  0  0
 12 11  1  0  0  0  0
 13 12  1  0  0  0  0
 14 13  1  0  0  0  0
 15 14  1  0  0  0  0
 16 15  1  0  0  0  0
 17 18  1  0  0  0  0
 18 19  1  0  0  0  0
 18 16  1  0  0  0  0
 20 18  2  0  0  0  0
 21 16  1  0  0  0  0
 21 30  1  0  0  0  0
 22 25  1  0  0  0  0
 23 21  1  6  0  0  0
 23 25  1  0  0  0  0
 24 28  1  0  0  0  0
 26 24  1  0  0  0  0
 26 27  1  0  0  0  0
 27 22  1  0  0  0  0
 28 23  1  0  0  0  0
 29 30  1  0  0  0  0
 30 31  1  0  0  0  0
 32 30  2  0  0  0  0
 33  4  1  0  0  0  0
 34 33  1  0  0  0  0
 35 34  1  0  0  0  0
 36 35  1  0  0  0  0
 37 48  1  1  0  0  0
 37 36  1  0  0  0  0
 38 40  2  0  0  0  0
 39 38  1  0  0  0  0
 40 37  1  0  0  0  0
 41 45  1  1  0  0  0
 41 38  1  0  0  0  0
 41 42  1  0  0  0  0
 43 42  1  0  0  0  0
 44 43  1  0  0  0  0
 45 47  1  0  0  0  0
 47 46  2  0  0  0  0
 48 50  1  0  0  0  0
 50 49  1  6  0  0  0
 51 56  1  0  0  0  0
 52 51  1  0  0  0  0
 53 57  1  0  0  0  0
 54 52  1  0  0  0  0
 54 53  1  0  0  0  0
 56 55  1  6  0  0  0
 57 56  1  0  0  0  0
 57 50  1  1  0  0  0
M  END
>  <MODEL>
9

>  <REMARK>
 VINA RESULT:      -3.4      4.125     10.497
  Name = 
  26 active torsions:
  status: ('A' for Active; 'I' for Inactive)
    1  A    between atoms: C_1  and  C_27
    2  A    between atoms: C_4  and  C_27
    3  A    between atoms: C_4  and  C_54
    4  A    between atoms: C_5  and  C_16
    5  A    between atoms: C_6  and  C_35
    6  A    between atoms: P_8  and  N_55
    7  A    between atoms: C_9  and  C_21
    8  A    between atoms: C_9  and  O_29
    9  A    between atoms: C_10  and  C_42
   10  A    between atoms: C_10  and  N_55
   11  A    between atoms: C_14  and  C_30
   12  A    between atoms: C_14  and  N_52
   13  A    between atoms: C_14  and  C_53
   14  A    between atoms: C_16  and  N_49
   15  A    between atoms: P_18  and  N_28
   16  A    between atoms: C_19  and  C_23
   17  A    between atoms: C_19  and  C_42
   18  A    between atoms: C_21  and  C_31
   19  A    between atoms: C_23  and  C_46
   20  A    between atoms: C_27  and  C_35
   21  A    between atoms: N_28  and  C_34
   22  A    between atoms: N_28  and  N_55
   23  A    between atoms: O_29  and  C_30
   24  A    between atoms: C_32  and  C_53
   25  A    between atoms: C_32  and  C_57
   26  A    between atoms: C_46  and  N_49
                            x       y       z     vdW  Elec       q    Type
                         _______ _______ _______ _____ _____    ______ ____

>  <TORSDO>
F 26

$$$$
