=
 OpenBabel10232409073D

 28 31  0  0  1  0  0  0  0  0999 V2000
  184.6900  178.7210  145.7670 C   0  0  0  0  0  0  0  0  0  0  0  0
  187.6480  177.5660  143.8120 N   0  0  0  0  0  0  0  0  0  0  0  0
  188.8930  177.2170  143.9460 C   0  0  0  0  0  0  0  0  0  0  0  0
  191.9680  176.5380  145.5500 O   0  0  0  0  0  0  0  0  0  0  0  0
  185.2170  178.7450  147.0210 N   0  0  0  0  0  0  0  0  0  0  0  0
  188.7640  177.6220  146.5090 C   0  0  0  0  0  2  0  0  0  0  0  0
  187.3420  178.0010  146.2190 C   0  0  0  0  0  0  0  0  0  0  0  0
  190.7830  176.8690  145.4200 C   0  0  0  0  0  0  0  0  0  0  0  0
  185.4970  178.3270  144.6870 C   0  0  0  0  0  3  0  0  0  0  0  0
  186.8250  177.9670  144.9140 C   0  0  0  0  0  0  0  0  0  0  0  0
  186.5100  178.3980  147.2670 C   0  0  0  0  0  3  0  0  0  0  0  0
  189.6470  176.8290  142.7940 N   0  0  0  0  0  2  0  0  0  0  0  0
  189.5330  177.2200  145.2820 C   0  0  0  0  0  0  0  0  0  0  0  0
  191.2580  177.2150  140.3430 N   0  0  0  0  0  0  0  0  0  0  0  0
  189.2270  176.9840  139.2150 O   0  0  0  0  0  0  0  0  0  0  0  0
  191.9330  177.2270  141.5190 O   0  0  0  0  0  1  0  0  0  0  0  0
  189.0730  176.8160  141.5160 N   0  0  0  0  0  2  0  0  0  0  0  0
  189.8340  177.0040  140.3180 C   0  0  0  0  0  0  0  0  0  0  0  0
  191.9730  177.4140  139.0820 C   0  0  0  0  0  2  0  0  0  0  0  0
  192.1390  174.5490  136.4370 N   0  0  0  0  0  0  0  0  0  0  0  0
  191.9320  175.8850  137.1080 C   0  0  1  0  0  0  0  0  0  0  0  0
  191.1550  174.6820  137.4800 C   0  0  0  0  0  2  0  0  0  0  0  0
  193.1500  173.8320  136.9940 O   0  0  0  0  0  1  0  0  0  0  0  0
  192.5160  176.1100  138.5170 C   0  0  1  0  0  3  0  0  0  0  0  0
  193.3710  176.3970  137.3560 C   0  0  0  0  0  2  0  0  0  0  0  0
  183.3530  179.0900  145.5870 O   0  0  0  0  0  0  0  0  0  0  0  0
  182.1940  178.9850  143.3420 N   0  0  0  0  0  0  0  0  0  0  0  0
  182.7240  179.0330  144.3700 C   0  0  0  0  0  0  0  0  0  0  0  0
  1  5  2  0  0  0  0
  2  3  2  0  0  0  0
  2 10  1  0  0  0  0
  3 13  1  0  0  0  0
  5 11  1  0  0  0  0
  7  6  1  0  0  0  0
  7 11  2  0  0  0  0
  8  4  2  0  0  0  0
  9 10  2  0  0  0  0
  9  1  1  0  0  0  0
 10  7  1  0  0  0  0
 12  3  1  0  0  0  0
 13  8  2  0  0  0  0
 13  6  1  0  0  0  0
 14 16  1  0  0  0  0
 15 18  2  0  0  0  0
 17 12  1  0  0  0  0
 18 14  1  0  0  0  0
 18 17  1  0  0  0  0
 19 14  1  0  0  0  0
 20 23  1  0  0  0  0
 20 21  1  0  0  0  0
 20 22  1  0  0  0  0
 21 25  1  6  0  0  0
 21 22  1  0  0  0  0
 21 24  1  0  0  0  0
 24 19  1  6  0  0  0
 25 24  1  0  0  0  0
 26  1  1  0  0  0  0
 27 28  3  0  0  0  0
 28 26  1  0  0  0  0
M  END
>  <MODEL>
1

>  <REMARK>
 VINA RESULT:      -8.4      0.000      0.000
  Name = 
  5 active torsions:
  status: ('A' for Active; 'I' for Inactive)
    1  A    between atoms: N_1  and  C_14
    2  A    between atoms: C_2  and  O_19
    3  A    between atoms: C_14  and  C_23
    4  A    between atoms: C_15  and  O_19
    5  A    between atoms: N_24  and  N_25
                            x       y       z     vdW  Elec       q    Type
                         _______ _______ _______ _____ _____    ______ ____

>  <TORSDO>
F 5

$$$$
=
 OpenBabel10232409073D

 28 31  0  0  1  0  0  0  0  0999 V2000
  189.7400  177.2230  147.0740 C   0  0  0  0  0  0  0  0  0  0  0  0
  188.7000  177.5680  143.5110 N   0  0  0  0  0  0  0  0  0  0  0  0
  187.6610  177.7910  142.7620 C   0  0  0  0  0  0  0  0  0  0  0  0
  184.2920  178.4440  141.9170 O   0  0  0  0  0  0  0  0  0  0  0  0
  188.5470  177.4150  147.6990 N   0  0  0  0  0  0  0  0  0  0  0  0
  186.1470  177.9770  144.8660 C   0  0  0  0  0  2  0  0  0  0  0  0
  187.4210  177.7110  145.6130 C   0  0  0  0  0  0  0  0  0  0  0  0
  185.2830  178.2320  142.6260 C   0  0  0  0  0  0  0  0  0  0  0  0
  189.8000  177.2730  145.6730 C   0  0  0  0  0  3  0  0  0  0  0  0
  188.6380  177.5170  144.9410 C   0  0  0  0  0  0  0  0  0  0  0  0
  187.4010  177.6540  147.0070 C   0  0  0  0  0  3  0  0  0  0  0  0
  187.8060  177.8260  141.3400 N   0  0  0  0  0  0  0  0  0  0  0  0
  186.3290  178.0080  143.3750 C   0  0  0  0  0  0  0  0  0  0  0  0
  188.2190  178.2430  138.4410 N   0  0  0  0  0  0  0  0  0  0  0  0
  190.4240  177.6030  138.8670 O   0  0  0  0  0  0  0  0  0  0  0  0
  186.9740  178.4930  138.9160 O   0  0  0  0  0  1  0  0  0  0  0  0
  189.0510  177.6240  140.7280 N   0  0  0  0  0  0  0  0  0  0  0  0
  189.2700  177.8170  139.3270 C   0  0  0  0  0  0  0  0  0  0  0  0
  188.5080  178.4090  137.0160 C   0  0  0  0  0  2  0  0  0  0  0  0
  185.9410  176.9870  134.4430 N   0  0  0  0  0  0  0  0  0  0  0  0
  186.8490  177.9110  135.2170 C   0  0  1  0  0  0  0  0  0  0  0  0
  185.6920  177.2310  135.8400 C   0  0  0  0  0  2  0  0  0  0  0  0
  186.4140  175.7130  134.3850 O   0  0  0  0  0  1  0  0  0  0  0  0
  187.8950  177.3020  136.1720 C   0  0  1  0  0  3  0  0  0  0  0  0
  188.2690  177.4950  134.7630 C   0  0  0  0  0  2  0  0  0  0  0  0
  190.8790  176.9810  147.8490 O   0  0  0  0  0  0  0  0  0  0  0  0
  192.7150  175.4000  147.1280 N   0  0  0  0  0  0  0  0  0  0  0  0
  191.8750  176.1230  147.4580 C   0  0  0  0  0  0  0  0  0  0  0  0
  1  5  2  0  0  0  0
  1 26  1  0  0  0  0
  2 10  1  0  0  0  0
  3 13  1  0  0  0  0
  3  2  2  0  0  0  0
  4  8  2  0  0  0  0
  6  7  1  0  0  0  0
  7 11  2  0  0  0  0
  8 13  2  0  0  0  0
  9  1  1  0  0  0  0
 10  7  1  0  0  0  0
 10  9  2  0  0  0  0
 11  5  1  0  0  0  0
 12  3  1  0  0  0  0
 13  6  1  0  0  0  0
 14 16  1  0  0  0  0
 14 18  1  0  0  0  0
 15 18  2  0  0  0  0
 17 12  2  0  0  0  0
 18 17  1  0  0  0  0
 19 14  1  0  0  0  0
 20 21  1  0  0  0  0
 20 22  1  0  0  0  0
 21 25  1  6  0  0  0
 21 22  1  0  0  0  0
 21 24  1  0  0  0  0
 23 20  1  0  0  0  0
 24 19  1  1  0  0  0
 25 24  1  0  0  0  0
 27 28  3  0  0  0  0
 28 26  1  0  0  0  0
M  END
>  <MODEL>
2

>  <REMARK>
 VINA RESULT:      -8.3      3.387      5.456
  Name = 
  5 active torsions:
  status: ('A' for Active; 'I' for Inactive)
    1  A    between atoms: N_1  and  C_14
    2  A    between atoms: C_2  and  O_19
    3  A    between atoms: C_14  and  C_23
    4  A    between atoms: C_15  and  O_19
    5  A    between atoms: N_24  and  N_25
                            x       y       z     vdW  Elec       q    Type
                         _______ _______ _______ _____ _____    ______ ____

>  <TORSDO>
F 5

$$$$
=
 OpenBabel10232409073D

 28 31  0  0  1  0  0  0  0  0999 V2000
  190.1780  176.9130  146.2070 C   0  0  0  0  0  0  0  0  0  0  0  0
  187.4440  178.0620  143.9480 N   0  0  0  0  0  0  0  0  0  0  0  0
  186.1960  178.4240  143.9500 C   0  0  0  0  0  0  0  0  0  0  0  0
  182.9820  179.1540  145.2260 O   0  0  0  0  0  0  0  0  0  0  0  0
  189.5280  176.9130  147.4020 N   0  0  0  0  0  0  0  0  0  0  0  0
  186.0620  178.0580  146.5190 C   0  0  0  0  0  2  0  0  0  0  0  0
  187.5020  177.6620  146.3790 C   0  0  0  0  0  0  0  0  0  0  0  0
  184.1710  178.8100  145.2210 C   0  0  0  0  0  0  0  0  0  0  0  0
  189.4880  177.2970  145.0460 C   0  0  0  0  0  3  0  0  0  0  0  0
  188.1480  177.6710  145.1330 C   0  0  0  0  0  0  0  0  0  0  0  0
  188.2210  177.2750  147.5110 C   0  0  0  0  0  3  0  0  0  0  0  0
  185.5650  178.8000  142.7220 N   0  0  0  0  0  0  0  0  0  0  0  0
  185.4250  178.4470  145.2150 C   0  0  0  0  0  0  0  0  0  0  0  0
  184.1790  178.7600  140.1100 N   0  0  0  0  0  0  0  0  0  0  0  0
  186.3290  178.7480  139.1970 O   0  0  0  0  0  0  0  0  0  0  0  0
  183.3900  178.7930  141.2110 O   0  0  0  0  0  1  0  0  0  0  0  0
  186.2650  178.7880  141.5090 N   0  0  0  0  0  0  0  0  0  0  0  0
  185.6130  178.7650  140.2340 C   0  0  0  0  0  0  0  0  0  0  0  0
  183.5780  178.7230  138.7760 C   0  0  0  0  0  2  0  0  0  0  0  0
  181.3950  175.5180  138.3400 N   0  0  0  0  0  0  0  0  0  0  0  0
  181.8400  176.9480  138.5200 C   0  0  1  0  0  0  0  0  0  0  0  0
  182.1040  175.9020  139.5320 C   0  0  0  0  0  2  0  0  0  0  0  0
  182.2820  174.7770  137.6240 O   0  0  0  0  0  1  0  0  0  0  0  0
  183.3240  177.3010  138.2980 C   0  0  1  0  0  3  0  0  0  0  0  0
  182.4220  177.3270  137.1380 C   0  0  0  0  0  2  0  0  0  0  0  0
  191.5230  176.5300  146.1680 O   0  0  0  0  0  0  0  0  0  0  0  0
  192.7950  175.7830  148.2210 N   0  0  0  0  0  0  0  0  0  0  0  0
  192.2130  176.1240  147.2810 C   0  0  0  0  0  0  0  0  0  0  0  0
  1  5  2  0  0  0  0
  2  3  2  0  0  0  0
  2 10  1  0  0  0  0
  3 13  1  0  0  0  0
  5 11  1  0  0  0  0
  7  6  1  0  0  0  0
  7 11  2  0  0  0  0
  8  4  2  0  0  0  0
  9 10  2  0  0  0  0
  9  1  1  0  0  0  0
 10  7  1  0  0  0  0
 12  3  1  0  0  0  0
 13  8  2  0  0  0  0
 13  6  1  0  0  0  0
 14 18  1  0  0  0  0
 14 16  1  0  0  0  0
 15 18  2  0  0  0  0
 17 12  2  0  0  0  0
 18 17  1  0  0  0  0
 19 14  1  0  0  0  0
 20 21  1  0  0  0  0
 20 22  1  0  0  0  0
 21 25  1  1  0  0  0
 21 22  1  0  0  0  0
 23 20  1  0  0  0  0
 24 21  1  0  0  0  0
 24 19  1  1  0  0  0
 25 24  1  0  0  0  0
 26  1  1  0  0  0  0
 26 28  1  0  0  0  0
 28 27  3  0  0  0  0
M  END
>  <MODEL>
3

>  <REMARK>
 VINA RESULT:      -8.3      4.530      7.271
  Name = 
  5 active torsions:
  status: ('A' for Active; 'I' for Inactive)
    1  A    between atoms: N_1  and  C_14
    2  A    between atoms: C_2  and  O_19
    3  A    between atoms: C_14  and  C_23
    4  A    between atoms: C_15  and  O_19
    5  A    between atoms: N_24  and  N_25
                            x       y       z     vdW  Elec       q    Type
                         _______ _______ _______ _____ _____    ______ ____

>  <TORSDO>
F 5

$$$$
=
 OpenBabel10232409073D

 28 31  0  0  1  0  0  0  0  0999 V2000
  193.5930  175.7200  137.4000 C   0  0  0  0  0  0  0  0  0  0  0  0
  191.1500  177.1760  139.8110 N   0  0  0  0  0  0  0  0  0  0  0  0
  189.9290  177.6130  139.8970 C   0  0  0  0  0  0  0  0  0  0  0  0
  186.6560  178.4590  138.8660 O   0  0  0  0  0  0  0  0  0  0  0  0
  192.8340  175.6860  136.2710 N   0  0  0  0  0  0  0  0  0  0  0  0
  189.5350  177.0940  137.3810 C   0  0  0  0  0  2  0  0  0  0  0  0
  190.9580  176.6200  137.4180 C   0  0  0  0  0  0  0  0  0  0  0  0
  187.8190  178.0430  138.7890 C   0  0  0  0  0  0  0  0  0  0  0  0
  193.0360  176.2180  138.5890 C   0  0  0  0  0  3  0  0  0  0  0  0
  191.7170  176.6680  138.5980 C   0  0  0  0  0  0  0  0  0  0  0  0
  191.5450  176.1200  136.2550 C   0  0  0  0  0  3  0  0  0  0  0  0
  189.4370  178.1040  141.1470 N   0  0  0  0  0  2  0  0  0  0  0  0
  189.0460  177.6050  138.7070 C   0  0  0  0  0  0  0  0  0  0  0  0
  188.4200  177.3060  143.8070 N   0  0  0  0  0  0  0  0  0  0  0  0
  190.5730  177.8080  144.5580 O   0  0  0  0  0  0  0  0  0  0  0  0
  187.5450  177.2190  142.7740 O   0  0  0  0  0  1  0  0  0  0  0  0
  190.2460  178.1260  142.2910 N   0  0  0  0  0  2  0  0  0  0  0  0
  189.7720  177.7470  143.5880 C   0  0  0  0  0  0  0  0  0  0  0  0
  187.9960  176.9450  145.1600 C   0  0  0  0  0  2  0  0  0  0  0  0
  185.0280  178.7870  146.8990 N   0  0  0  0  0  0  0  0  0  0  0  0
  185.9430  177.7200  146.3530 C   0  0  1  0  0  0  0  0  0  0  0  0
  185.2490  178.6910  145.4800 C   0  0  0  0  0  2  0  0  0  0  0  0
  185.6970  179.9050  147.2870 O   0  0  0  0  0  1  0  0  0  0  0  0
  187.3610  178.1160  145.8960 C   0  0  1  0  0  3  0  0  0  0  0  0
  187.1600  177.7570  147.3070 C   0  0  0  0  0  2  0  0  0  0  0  0
  194.9110  175.2570  137.3450 O   0  0  0  0  0  0  0  0  0  0  0  0
  195.8350  173.5520  138.9670 N   0  0  0  0  0  0  0  0  0  0  0  0
  195.4120  174.3320  138.2240 C   0  0  0  0  0  0  0  0  0  0  0  0
  1  9  1  0  0  0  0
  2  3  2  0  0  0  0
  3 12  1  0  0  0  0
  5  1  2  0  0  0  0
  6  7  1  0  0  0  0
  6 13  1  0  0  0  0
  7 10  1  0  0  0  0
  8  4  2  0  0  0  0
  9 10  2  0  0  0  0
 10  2  1  0  0  0  0
 11  5  1  0  0  0  0
 11  7  2  0  0  0  0
 12 17  1  0  0  0  0
 13  8  2  0  0  0  0
 13  3  1  0  0  0  0
 14 19  1  0  0  0  0
 16 14  1  0  0  0  0
 17 18  1  0  0  0  0
 18 14  1  0  0  0  0
 18 15  2  0  0  0  0
 20 23  1  0  0  0  0
 21 22  1  6  0  0  0
 21 20  1  0  0  0  0
 21 25  1  0  0  0  0
 22 20  1  0  0  0  0
 24 19  1  6  0  0  0
 24 21  1  0  0  0  0
 24 25  1  0  0  0  0
 26  1  1  0  0  0  0
 26 28  1  0  0  0  0
 28 27  3  0  0  0  0
M  END
>  <MODEL>
4

>  <REMARK>
 VINA RESULT:      -8.1      1.983      9.839
  Name = 
  5 active torsions:
  status: ('A' for Active; 'I' for Inactive)
    1  A    between atoms: N_1  and  C_14
    2  A    between atoms: C_2  and  O_19
    3  A    between atoms: C_14  and  C_23
    4  A    between atoms: C_15  and  O_19
    5  A    between atoms: N_24  and  N_25
                            x       y       z     vdW  Elec       q    Type
                         _______ _______ _______ _____ _____    ______ ____

>  <TORSDO>
F 5

$$$$
=
 OpenBabel10232409073D

 28 31  0  0  1  0  0  0  0  0999 V2000
  188.7550  177.0750  146.5390 C   0  0  0  0  0  0  0  0  0  0  0  0
  188.5980  177.6590  142.8600 N   0  0  0  0  0  0  0  0  0  0  0  0
  187.8020  178.0750  141.9200 C   0  0  0  0  0  0  0  0  0  0  0  0
  184.8620  179.3290  140.4120 O   0  0  0  0  0  0  0  0  0  0  0  0
  187.5040  177.4640  146.9040 N   0  0  0  0  0  0  0  0  0  0  0  0
  185.9170  178.4910  143.6590 C   0  0  0  0  0  2  0  0  0  0  0  0
  186.9320  177.9910  144.6450 C   0  0  0  0  0  0  0  0  0  0  0  0
  185.6220  178.9330  141.3050 C   0  0  0  0  0  0  0  0  0  0  0  0
  189.1300  177.1370  145.1870 C   0  0  0  0  0  3  0  0  0  0  0  0
  188.2160  177.5960  144.2390 C   0  0  0  0  0  0  0  0  0  0  0  0
  186.5960  177.9150  145.9970 C   0  0  0  0  0  3  0  0  0  0  0  0
  188.2600  178.1080  140.5660 N   0  0  0  0  0  2  0  0  0  0  0  0
  186.4240  178.5140  142.2460 C   0  0  0  0  0  0  0  0  0  0  0  0
  188.8870  176.9070  137.9370 N   0  0  0  0  0  0  0  0  0  0  0  0
  191.0730  176.7700  138.7460 O   0  0  0  0  0  0  0  0  0  0  0  0
  187.6000  177.2810  138.1380 O   0  0  0  0  0  1  0  0  0  0  0  0
  189.5560  177.7000  140.2240 N   0  0  0  0  0  2  0  0  0  0  0  0
  189.8800  177.1130  138.9590 C   0  0  0  0  0  0  0  0  0  0  0  0
  189.2830  176.2890  136.6700 C   0  0  0  0  0  2  0  0  0  0  0  0
  186.9930  173.2350  135.8590 N   0  0  0  0  0  0  0  0  0  0  0  0
  187.6460  174.5950  135.8420 C   0  0  1  0  0  0  0  0  0  0  0  0
  186.8750  174.1010  137.0030 C   0  0  0  0  0  2  0  0  0  0  0  0
  187.8440  172.2490  136.2480 O   0  0  0  0  0  1  0  0  0  0  0  0
  188.9560  174.8040  136.6270 C   0  0  1  0  0  3  0  0  0  0  0  0
  189.0460  174.3220  135.2410 C   0  0  0  0  0  2  0  0  0  0  0  0
  189.6390  176.6220  147.5240 O   0  0  0  0  0  0  0  0  0  0  0  0
  192.1420  176.5280  147.1820 N   0  0  0  0  0  0  0  0  0  0  0  0
  190.9960  176.5710  147.3380 C   0  0  0  0  0  0  0  0  0  0  0  0
  1  5  2  0  0  0  0
  1 26  1  0  0  0  0
  2 10  1  0  0  0  0
  3 13  1  0  0  0  0
  3  2  2  0  0  0  0
  4  8  2  0  0  0  0
  6  7  1  0  0  0  0
  7 11  2  0  0  0  0
  8 13  2  0  0  0  0
  9  1  1  0  0  0  0
 10  7  1  0  0  0  0
 10  9  2  0  0  0  0
 11  5  1  0  0  0  0
 12  3  1  0  0  0  0
 13  6  1  0  0  0  0
 14 16  1  0  0  0  0
 14 18  1  0  0  0  0
 15 18  2  0  0  0  0
 17 12  1  0  0  0  0
 18 17  1  0  0  0  0
 19 14  1  0  0  0  0
 20 23  1  0  0  0  0
 20 22  1  0  0  0  0
 21 25  1  6  0  0  0
 21 20  1  0  0  0  0
 21 24  1  0  0  0  0
 21 22  1  0  0  0  0
 24 19  1  6  0  0  0
 25 24  1  0  0  0  0
 27 28  3  0  0  0  0
 28 26  1  0  0  0  0
M  END
>  <MODEL>
5

>  <REMARK>
 VINA RESULT:      -7.8      2.950      4.991
  Name = 
  5 active torsions:
  status: ('A' for Active; 'I' for Inactive)
    1  A    between atoms: N_1  and  C_14
    2  A    between atoms: C_2  and  O_19
    3  A    between atoms: C_14  and  C_23
    4  A    between atoms: C_15  and  O_19
    5  A    between atoms: N_24  and  N_25
                            x       y       z     vdW  Elec       q    Type
                         _______ _______ _______ _____ _____    ______ ____

>  <TORSDO>
F 5

$$$$
=
 OpenBabel10232409073D

 28 31  0  0  1  0  0  0  0  0999 V2000
  184.3890  178.7530  145.1600 C   0  0  0  0  0  0  0  0  0  0  0  0
  187.1210  177.9090  142.7670 N   0  0  0  0  0  0  0  0  0  0  0  0
  188.3410  177.4640  142.7190 C   0  0  0  0  0  0  0  0  0  0  0  0
  191.4490  176.2450  143.8800 O   0  0  0  0  0  0  0  0  0  0  0  0
  184.9940  178.4520  146.3410 N   0  0  0  0  0  0  0  0  0  0  0  0
  188.4040  177.2670  145.3090 C   0  0  0  0  0  2  0  0  0  0  0  0
  187.0000  177.7890  145.2260 C   0  0  0  0  0  0  0  0  0  0  0  0
  190.2870  176.6690  143.9220 C   0  0  0  0  0  0  0  0  0  0  0  0
  185.0940  178.5740  143.9590 C   0  0  0  0  0  3  0  0  0  0  0  0
  186.4020  178.0920  143.9920 C   0  0  0  0  0  0  0  0  0  0  0  0
  186.2680  177.9800  146.3980 C   0  0  0  0  0  3  0  0  0  0  0  0
  188.9910  177.3100  141.4540 N   0  0  0  0  0  0  0  0  0  0  0  0
  189.0620  177.1160  143.9670 C   0  0  0  0  0  0  0  0  0  0  0  0
  190.1300  176.6230  138.8120 N   0  0  0  0  0  0  0  0  0  0  0  0
  188.2180  177.6460  137.9460 O   0  0  0  0  0  0  0  0  0  0  0  0
  190.8460  176.2390  139.8980 O   0  0  0  0  0  1  0  0  0  0  0  0
  188.3390  177.6300  140.2560 N   0  0  0  0  0  0  0  0  0  0  0  0
  188.8750  177.3100  138.9670 C   0  0  0  0  0  0  0  0  0  0  0  0
  190.6270  176.3370  137.4660 C   0  0  0  0  0  2  0  0  0  0  0  0
  190.5380  173.4160  134.8790 N   0  0  0  0  0  0  0  0  0  0  0  0
  190.9700  174.6090  135.6950 C   0  0  1  0  0  0  0  0  0  0  0  0
  189.8040  174.6500  134.7870 C   0  0  0  0  0  2  0  0  0  0  0  0
  189.7270  172.5720  135.5710 O   0  0  0  0  0  1  0  0  0  0  0  0
  190.1700  174.9770  136.9610 C   0  0  1  0  0  3  0  0  0  0  0  0
  191.2700  174.0110  137.0900 C   0  0  0  0  0  2  0  0  0  0  0  0
  183.0760  179.2340  145.1740 O   0  0  0  0  0  0  0  0  0  0  0  0
  181.5440  179.0980  143.1670 N   0  0  0  0  0  0  0  0  0  0  0  0
  182.2450  179.1590  144.0860 C   0  0  0  0  0  0  0  0  0  0  0  0
  1 26  1  0  0  0  0
  1  5  2  0  0  0  0
  2 10  1  0  0  0  0
  3  2  2  0  0  0  0
  3 13  1  0  0  0  0
  4  8  2  0  0  0  0
  5 11  1  0  0  0  0
  7  6  1  0  0  0  0
  7 11  2  0  0  0  0
  8 13  2  0  0  0  0
  9 10  2  0  0  0  0
  9  1  1  0  0  0  0
 10  7  1  0  0  0  0
 12  3  1  0  0  0  0
 13  6  1  0  0  0  0
 14 18  1  0  0  0  0
 14 16  1  0  0  0  0
 15 18  2  0  0  0  0
 17 12  2  0  0  0  0
 18 17  1  0  0  0  0
 19 14  1  0  0  0  0
 20 23  1  0  0  0  0
 20 21  1  0  0  0  0
 21 22  1  6  0  0  0
 21 24  1  0  0  0  0
 21 25  1  0  0  0  0
 22 20  1  0  0  0  0
 24 25  1  0  0  0  0
 24 19  1  1  0  0  0
 27 28  3  0  0  0  0
 28 26  1  0  0  0  0
M  END
>  <MODEL>
6

>  <REMARK>
 VINA RESULT:      -7.6      1.635      1.879
  Name = 
  5 active torsions:
  status: ('A' for Active; 'I' for Inactive)
    1  A    between atoms: N_1  and  C_14
    2  A    between atoms: C_2  and  O_19
    3  A    between atoms: C_14  and  C_23
    4  A    between atoms: C_15  and  O_19
    5  A    between atoms: N_24  and  N_25
                            x       y       z     vdW  Elec       q    Type
                         _______ _______ _______ _____ _____    ______ ____

>  <TORSDO>
F 5

$$$$
=
 OpenBabel10232409073D

 28 31  0  0  1  0  0  0  0  0999 V2000
  190.6030  176.9180  145.9280 C   0  0  0  0  0  0  0  0  0  0  0  0
  187.7730  177.8690  143.6950 N   0  0  0  0  0  0  0  0  0  0  0  0
  187.4810  178.0940  142.4490 C   0  0  0  0  0  0  0  0  0  0  0  0
  187.9600  178.4190  138.9620 O   0  0  0  0  0  0  0  0  0  0  0  0
  191.6060  176.7950  145.0170 N   0  0  0  0  0  0  0  0  0  0  0  0
  189.9350  177.6000  141.7520 C   0  0  0  0  0  2  0  0  0  0  0  0
  190.1390  177.3680  143.2200 C   0  0  0  0  0  0  0  0  0  0  0  0
  188.2350  178.2040  140.1490 C   0  0  0  0  0  0  0  0  0  0  0  0
  189.3170  177.2770  145.4940 C   0  0  0  0  0  3  0  0  0  0  0  0
  189.0850  177.5020  144.1380 C   0  0  0  0  0  0  0  0  0  0  0  0
  191.4040  177.0100  143.6900 C   0  0  0  0  0  3  0  0  0  0  0  0
  186.1450  178.4560  142.0880 N   0  0  0  0  0  0  0  0  0  0  0  0
  188.5240  177.9790  141.4020 C   0  0  0  0  0  0  0  0  0  0  0  0
  183.2870  178.6570  141.3540 N   0  0  0  0  0  0  0  0  0  0  0  0
  182.9130  178.7870  143.6550 O   0  0  0  0  0  0  0  0  0  0  0  0
  184.1650  178.5240  140.3300 O   0  0  0  0  0  1  0  0  0  0  0  0
  185.1350  178.5740  143.0520 N   0  0  0  0  0  0  0  0  0  0  0  0
  183.7470  178.6760  142.7180 C   0  0  0  0  0  0  0  0  0  0  0  0
  181.8540  178.7780  141.0820 C   0  0  0  0  0  2  0  0  0  0  0  0
  180.4610  175.7330  139.0770 N   0  0  0  0  0  0  0  0  0  0  0  0
  180.7480  176.7320  140.1700 C   0  0  1  0  0  0  0  0  0  0  0  0
  181.7980  175.8660  139.5930 C   0  0  0  0  0  2  0  0  0  0  0  0
  180.5030  176.2850  137.8360 O   0  0  0  0  0  1  0  0  0  0  0  0
  181.4480  178.0560  139.8050 C   0  0  1  0  0  3  0  0  0  0  0  0
  179.9820  177.9990  139.7190 C   0  0  0  0  0  2  0  0  0  0  0  0
  190.8810  176.6830  147.2790 O   0  0  0  0  0  0  0  0  0  0  0  0
  193.0620  175.6810  148.0750 N   0  0  0  0  0  0  0  0  0  0  0  0
  192.0640  176.1400  147.7100 C   0  0  0  0  0  0  0  0  0  0  0  0
  1 26  1  0  0  0  0
  2 10  1  0  0  0  0
  3  2  2  0  0  0  0
  4  8  2  0  0  0  0
  5  1  2  0  0  0  0
  6  7  1  0  0  0  0
  7 11  2  0  0  0  0
  7 10  1  0  0  0  0
  8 13  2  0  0  0  0
  9  1  1  0  0  0  0
 10  9  2  0  0  0  0
 11  5  1  0  0  0  0
 12  3  1  0  0  0  0
 12 17  2  0  0  0  0
 13  6  1  0  0  0  0
 13  3  1  0  0  0  0
 14 18  1  0  0  0  0
 16 14  1  0  0  0  0
 18 17  1  0  0  0  0
 18 15  2  0  0  0  0
 19 14  1  0  0  0  0
 20 22  1  0  0  0  0
 20 21  1  0  0  0  0
 21 22  1  1  0  0  0
 23 20  1  0  0  0  0
 24 21  1  0  0  0  0
 24 19  1  1  0  0  0
 25 24  1  0  0  0  0
 25 21  1  0  0  0  0
 26 28  1  0  0  0  0
 28 27  3  0  0  0  0
M  END
>  <MODEL>
7

>  <REMARK>
 VINA RESULT:      -7.6      3.737      8.176
  Name = 
  5 active torsions:
  status: ('A' for Active; 'I' for Inactive)
    1  A    between atoms: N_1  and  C_14
    2  A    between atoms: C_2  and  O_19
    3  A    between atoms: C_14  and  C_23
    4  A    between atoms: C_15  and  O_19
    5  A    between atoms: N_24  and  N_25
                            x       y       z     vdW  Elec       q    Type
                         _______ _______ _______ _____ _____    ______ ____

>  <TORSDO>
F 5

$$$$
=
 OpenBabel10232409073D

 28 31  0  0  1  0  0  0  0  0999 V2000
  188.3600  177.3750  146.0880 C   0  0  0  0  0  0  0  0  0  0  0  0
  188.8110  177.8050  142.4120 N   0  0  0  0  0  0  0  0  0  0  0  0
  189.7140  177.7630  141.4780 C   0  0  0  0  0  0  0  0  0  0  0  0
  192.8930  177.3630  139.9870 O   0  0  0  0  0  0  0  0  0  0  0  0
  189.6350  177.0790  146.4600 N   0  0  0  0  0  0  0  0  0  0  0  0
  191.5410  177.1670  143.2260 C   0  0  0  0  0  2  0  0  0  0  0  0
  190.4070  177.2470  144.2060 C   0  0  0  0  0  0  0  0  0  0  0  0
  192.0320  177.4040  140.8750 C   0  0  0  0  0  0  0  0  0  0  0  0
  188.0760  177.6200  144.7350 C   0  0  0  0  0  3  0  0  0  0  0  0
  189.1010  177.5560  143.7930 C   0  0  0  0  0  0  0  0  0  0  0  0
  190.6510  177.0100  145.5590 C   0  0  0  0  0  3  0  0  0  0  0  0
  189.3420  178.0250  140.1210 N   0  0  0  0  0  0  0  0  0  0  0  0
  191.1230  177.4470  141.8110 C   0  0  0  0  0  0  0  0  0  0  0  0
  188.3430  177.7410  137.3520 N   0  0  0  0  0  0  0  0  0  0  0  0
  186.3140  178.5050  138.2210 O   0  0  0  0  0  0  0  0  0  0  0  0
  189.6360  177.3950  137.5660 O   0  0  0  0  0  1  0  0  0  0  0  0
  188.0190  178.3280  139.7730 N   0  0  0  0  0  0  0  0  0  0  0  0
  187.5170  178.2010  138.4380 C   0  0  0  0  0  0  0  0  0  0  0  0
  187.7690  177.6470  136.0090 C   0  0  0  0  0  2  0  0  0  0  0  0
  185.8430  174.2560  135.8470 N   0  0  0  0  0  0  0  0  0  0  0  0
  186.1780  175.7220  135.9730 C   0  0  1  0  0  0  0  0  0  0  0  0
  186.6630  174.7120  136.9390 C   0  0  0  0  0  2  0  0  0  0  0  0
  186.6930  173.5920  135.0200 O   0  0  0  0  0  1  0  0  0  0  0  0
  187.5840  176.2040  135.5630 C   0  0  1  0  0  3  0  0  0  0  0  0
  186.5420  176.1400  134.5280 C   0  0  0  0  0  2  0  0  0  0  0  0
  187.3630  177.4280  147.0680 O   0  0  0  0  0  0  0  0  0  0  0  0
  185.5830  179.2230  147.1170 N   0  0  0  0  0  0  0  0  0  0  0  0
  186.3980  178.4020  147.0940 C   0  0  0  0  0  0  0  0  0  0  0  0
  1  5  2  0  0  0  0
  1 26  1  0  0  0  0
  2 10  1  0  0  0  0
  3 13  1  0  0  0  0
  3  2  2  0  0  0  0
  4  8  2  0  0  0  0
  6  7  1  0  0  0  0
  7 11  2  0  0  0  0
  8 13  2  0  0  0  0
  9  1  1  0  0  0  0
 10  7  1  0  0  0  0
 10  9  2  0  0  0  0
 11  5  1  0  0  0  0
 12  3  1  0  0  0  0
 13  6  1  0  0  0  0
 14 16  1  0  0  0  0
 14 18  1  0  0  0  0
 15 18  2  0  0  0  0
 17 12  2  0  0  0  0
 18 17  1  0  0  0  0
 19 14  1  0  0  0  0
 20 21  1  0  0  0  0
 20 22  1  0  0  0  0
 21 25  1  1  0  0  0
 21 22  1  0  0  0  0
 23 20  1  0  0  0  0
 24 21  1  0  0  0  0
 24 19  1  1  0  0  0
 25 24  1  0  0  0  0
 26 28  1  0  0  0  0
 28 27  3  0  0  0  0
M  END
>  <MODEL>
8

>  <REMARK>
 VINA RESULT:      -7.6      3.305      4.575
  Name = 
  5 active torsions:
  status: ('A' for Active; 'I' for Inactive)
    1  A    between atoms: N_1  and  C_14
    2  A    between atoms: C_2  and  O_19
    3  A    between atoms: C_14  and  C_23
    4  A    between atoms: C_15  and  O_19
    5  A    between atoms: N_24  and  N_25
                            x       y       z     vdW  Elec       q    Type
                         _______ _______ _______ _____ _____    ______ ____

>  <TORSDO>
F 5

$$$$
=
 OpenBabel10232409073D

 28 31  0  0  1  0  0  0  0  0999 V2000
  188.6330  177.3950  145.2180 C   0  0  0  0  0  0  0  0  0  0  0  0
  186.1820  178.5190  142.6430 N   0  0  0  0  0  0  0  0  0  0  0  0
  184.9340  178.8450  142.4890 C   0  0  0  0  0  0  0  0  0  0  0  0
  181.5600  179.4570  143.3480 O   0  0  0  0  0  0  0  0  0  0  0  0
  187.8330  177.3500  146.3170 N   0  0  0  0  0  0  0  0  0  0  0  0
  184.4780  178.4180  145.0110 C   0  0  0  0  0  2  0  0  0  0  0  0
  185.9360  178.0660  145.0530 C   0  0  0  0  0  0  0  0  0  0  0  0
  182.7500  179.1470  143.4910 C   0  0  0  0  0  0  0  0  0  0  0  0
  188.0880  177.7850  143.9840 C   0  0  0  0  0  3  0  0  0  0  0  0
  186.7380  178.1210  143.9020 C   0  0  0  0  0  0  0  0  0  0  0  0
  186.5130  177.6730  146.2620 C   0  0  0  0  0  3  0  0  0  0  0  0
  184.4560  179.2320  141.1970 N   0  0  0  0  0  2  0  0  0  0  0  0
  184.0040  178.8190  143.6430 C   0  0  0  0  0  0  0  0  0  0  0  0
  183.9410  177.6200  138.7710 N   0  0  0  0  0  0  0  0  0  0  0  0
  185.9060  178.5840  137.9570 O   0  0  0  0  0  0  0  0  0  0  0  0
  183.0310  177.5160  139.7700 O   0  0  0  0  0  1  0  0  0  0  0  0
  185.3080  179.2670  140.0850 N   0  0  0  0  0  2  0  0  0  0  0  0
  185.0790  178.4920  138.9030 C   0  0  0  0  0  0  0  0  0  0  0  0
  183.7730  176.8460  137.5400 C   0  0  0  0  0  2  0  0  0  0  0  0
  183.8170  173.1020  136.4390 N   0  0  0  0  0  0  0  0  0  0  0  0
  183.8150  174.6100  136.4270 C   0  0  1  0  0  0  0  0  0  0  0  0
  182.6780  173.8200  136.9480 C   0  0  0  0  0  2  0  0  0  0  0  0
  184.4300  172.5860  137.5380 O   0  0  0  0  0  1  0  0  0  0  0  0
  184.0700  175.3670  137.7460 C   0  0  1  0  0  3  0  0  0  0  0  0
  185.2300  174.9830  136.9290 C   0  0  0  0  0  2  0  0  0  0  0  0
  189.9820  177.0500  145.3480 O   0  0  0  0  0  0  0  0  0  0  0  0
  191.8410  178.3410  144.2200 N   0  0  0  0  0  0  0  0  0  0  0  0
  190.9900  177.7490  144.7360 C   0  0  0  0  0  0  0  0  0  0  0  0
  1 26  1  0  0  0  0
  1  5  2  0  0  0  0
  2 10  1  0  0  0  0
  3  2  2  0  0  0  0
  3 13  1  0  0  0  0
  4  8  2  0  0  0  0
  6  7  1  0  0  0  0
  7 11  2  0  0  0  0
  8 13  2  0  0  0  0
  9  1  1  0  0  0  0
 10  9  2  0  0  0  0
 10  7  1  0  0  0  0
 11  5  1  0  0  0  0
 12  3  1  0  0  0  0
 13  6  1  0  0  0  0
 14 18  1  0  0  0  0
 14 16  1  0  0  0  0
 15 18  2  0  0  0  0
 17 12  1  0  0  0  0
 18 17  1  0  0  0  0
 19 14  1  0  0  0  0
 20 22  1  0  0  0  0
 20 23  1  0  0  0  0
 21 20  1  0  0  0  0
 21 25  1  6  0  0  0
 21 22  1  0  0  0  0
 21 24  1  0  0  0  0
 24 19  1  6  0  0  0
 25 24  1  0  0  0  0
 27 28  3  0  0  0  0
 28 26  1  0  0  0  0
M  END
>  <MODEL>
9

>  <REMARK>
 VINA RESULT:      -7.6      4.408      6.732
  Name = 
  5 active torsions:
  status: ('A' for Active; 'I' for Inactive)
    1  A    between atoms: N_1  and  C_14
    2  A    between atoms: C_2  and  O_19
    3  A    between atoms: C_14  and  C_23
    4  A    between atoms: C_15  and  O_19
    5  A    between atoms: N_24  and  N_25
                            x       y       z     vdW  Elec       q    Type
                         _______ _______ _______ _____ _____    ______ ____

>  <TORSDO>
F 5

$$$$
