=
 OpenBabel10232408183D

 32 34  0  0  1  0  0  0  0  0999 V2000
  188.2640  177.1370  144.9020 C   0  0  0  0  0  0  0  0  0  0  0  0
  185.1290  179.1770  145.5310 C   0  0  0  0  0  1  0  0  0  0  0  0
  187.0720  177.7780  144.6840 C   0  0  0  0  0  0  0  0  0  0  0  0
  188.2460  177.8110  147.2080 C   0  0  0  0  0  0  0  0  0  0  0  0
  188.8600  177.8110  148.5600 C   0  0  0  0  0  1  0  0  0  0  0  0
  188.7130  176.4430  143.6650 C   0  0  1  0  0  3  0  0  0  0  0  0
  186.6270  177.5990  143.3460 N   0  0  0  0  0  0  0  0  0  0  0  0
  187.0320  178.4850  146.9900 C   0  0  0  0  0  3  0  0  0  0  0  0
  186.4290  178.4750  145.7210 C   0  0  0  0  0  0  0  0  0  0  0  0
  188.8720  177.1260  146.1580 C   0  0  0  0  0  3  0  0  0  0  0  0
  187.6300  176.8050  142.6320 C   0  0  0  0  0  2  0  0  0  0  0  0
  191.1290  176.2300  143.7450 C   0  0  0  0  0  2  0  0  0  0  0  0
  190.0900  176.8610  143.2140 C   0  0  0  0  0  0  0  0  0  0  0  0
  191.6490  177.3720  140.0800 C   0  0  0  0  0  0  0  0  0  0  0  0
  190.5590  176.5740  138.0750 C   0  0  0  0  0  0  0  0  0  0  0  0
  189.2940  176.9680  140.0640 N   0  0  0  0  0  0  0  0  0  0  0  0
  190.6480  176.1480  136.6520 C   0  0  0  0  0  1  0  0  0  0  0  0
  189.3330  176.5870  138.7550 C   0  0  0  0  0  0  0  0  0  0  0  0
  192.8020  177.7710  140.7430 O   0  0  0  0  0  1  0  0  0  0  0  0
  191.7160  176.9760  138.7430 C   0  0  0  0  0  3  0  0  0  0  0  0
  190.3250  177.7460  142.1070 N   0  0  0  0  0  2  0  0  0  0  0  0
  190.4140  177.3470  140.7400 C   0  0  0  0  0  0  0  0  0  0  0  0
  188.1620  176.2190  138.0830 O   0  0  0  0  0  0  0  0  0  0  0  0
  187.2740  177.1450  137.6070 C   0  0  0  0  0  0  0  0  0  0  0  0
  186.5000  177.9690  137.1860 C   0  0  0  0  0  3  0  0  0  0  0  0
  185.7330  178.5190  142.6560 C   0  0  0  0  0  2  0  0  0  0  0  0
  186.2920  178.7970  140.9500 S   0  0  0  0  0  0  0  0  0  0  0  0
  184.5820  178.7770  140.3350 C   0  0  0  0  0  2  0  0  0  0  0  0
  183.6490  178.2020  141.3870 C   0  0  0  0  0  2  0  0  0  0  0  0
  182.3200  178.7780  141.2540 N   0  0  0  0  0  0  0  0  0  0  0  0
  181.5540  177.8610  140.6140 O   0  0  0  0  0  1  0  0  0  0  0  0
  181.7820  178.9060  142.5960 C   0  0  0  0  0  1  0  0  0  0  0  0
  1 10  1  0  0  0  0
  2  9  1  0  0  0  0
  3  1  2  0  0  0  0
  3  9  1  0  0  0  0
  4  5  1  0  0  0  0
  6 13  1  6  0  0  0
  6  1  1  0  0  0  0
  7  3  1  0  0  0  0
  8  4  1  0  0  0  0
  9  8  2  0  0  0  0
 10  4  2  0  0  0  0
 11  7  1  0  0  0  0
 11  6  1  0  0  0  0
 13 12  2  0  0  0  0
 14 22  2  0  0  0  0
 14 19  1  0  0  0  0
 15 20  2  0  0  0  0
 15 18  1  0  0  0  0
 16 22  1  0  0  0  0
 17 15  1  0  0  0  0
 18 16  2  0  0  0  0
 20 14  1  0  0  0  0
 21 13  1  0  0  0  0
 22 21  1  0  0  0  0
 23 18  1  0  0  0  0
 24 23  1  0  0  0  0
 25 24  3  0  0  0  0
 26  7  1  0  0  0  0
 27 26  1  0  0  0  0
 28 27  1  0  0  0  0
 28 29  1  0  0  0  0
 30 29  1  0  0  0  0
 30 32  1  0  0  0  0
 31 30  1  0  0  0  0
M  END
>  <MODEL>
1

>  <REMARK>
 VINA RESULT:      -7.8      0.000      0.000
  Name = 
  9 active torsions:
  status: ('A' for Active; 'I' for Inactive)
    1  A    between atoms: C_1  and  O_3
    2  A    between atoms: O_3  and  C_17
    3  A    between atoms: N_6  and  C_15
    4  A    between atoms: C_7  and  S_16
    5  A    between atoms: C_7  and  N_23
    6  A    between atoms: C_15  and  C_30
    7  A    between atoms: S_16  and  C_30
    8  A    between atoms: C_18  and  C_21
    9  A    between atoms: C_18  and  N_27
                            x       y       z     vdW  Elec       q    Type
                         _______ _______ _______ _____ _____    ______ ____

>  <TORSDO>
F 9

$$$$
=
 OpenBabel10232408183D

 32 34  0  0  1  0  0  0  0  0999 V2000
  187.1130  178.5700  141.5930 C   0  0  0  0  0  0  0  0  0  0  0  0
  186.5210  177.1940  145.0780 C   0  0  0  0  0  1  0  0  0  0  0  0
  187.3570  178.0450  142.8360 C   0  0  0  0  0  0  0  0  0  0  0  0
  184.7490  178.5850  142.0250 C   0  0  0  0  0  0  0  0  0  0  0  0
  183.3600  178.8940  141.6010 C   0  0  0  0  0  1  0  0  0  0  0  0
  188.3920  178.8230  140.8780 C   0  0  1  0  0  3  0  0  0  0  0  0
  188.7510  177.8910  143.0660 N   0  0  0  0  0  0  0  0  0  0  0  0
  184.9890  178.0320  143.2940 C   0  0  0  0  0  3  0  0  0  0  0  0
  186.3000  177.7560  143.7160 C   0  0  0  0  0  0  0  0  0  0  0  0
  185.8190  178.8620  141.1620 C   0  0  0  0  0  3  0  0  0  0  0  0
  189.4650  178.3190  141.8610 C   0  0  0  0  0  2  0  0  0  0  0  0
  188.8820  176.8670  139.5280 C   0  0  0  0  0  2  0  0  0  0  0  0
  188.4750  178.1290  139.5420 C   0  0  0  0  0  0  0  0  0  0  0  0
  187.2770  177.5480  136.2640 C   0  0  0  0  0  0  0  0  0  0  0  0
  184.9630  176.9270  135.9460 C   0  0  0  0  0  0  0  0  0  0  0  0
  185.6490  178.0570  137.9380 N   0  0  0  0  0  0  0  0  0  0  0  0
  183.9110  176.2920  135.1060 C   0  0  0  0  0  1  0  0  0  0  0  0
  184.6550  177.4990  137.1890 C   0  0  0  0  0  0  0  0  0  0  0  0
  188.5870  177.5800  135.8030 O   0  0  0  0  0  1  0  0  0  0  0  0
  186.2790  176.9610  135.4850 C   0  0  0  0  0  3  0  0  0  0  0  0
  187.9490  178.6870  138.3270 N   0  0  0  0  0  2  0  0  0  0  0  0
  186.9430  178.0850  137.5140 C   0  0  0  0  0  0  0  0  0  0  0  0
  183.3320  177.5000  137.6440 O   0  0  0  0  0  0  0  0  0  0  0  0
  182.8950  176.6390  138.6140 C   0  0  0  0  0  0  0  0  0  0  0  0
  182.5080  175.8890  139.4760 C   0  0  0  0  0  3  0  0  0  0  0  0
  189.3190  176.9300  144.0020 C   0  0  0  0  0  2  0  0  0  0  0  0
  190.4950  175.8320  143.1580 S   0  0  0  0  0  0  0  0  0  0  0  0
  191.7330  176.0690  144.4670 C   0  0  0  0  0  2  0  0  0  0  0  0
  191.3420  177.2360  145.3570 C   0  0  0  0  0  2  0  0  0  0  0  0
  191.7150  176.9680  146.7370 N   0  0  0  0  0  0  0  0  0  0  0  0
  190.5740  176.9970  147.4680 O   0  0  0  0  0  1  0  0  0  0  0  0
  192.2040  175.6020  146.7810 C   0  0  0  0  0  1  0  0  0  0  0  0
  1  3  1  0  0  0  0
  3  7  1  0  0  0  0
  3  9  2  0  0  0  0
  4  8  2  0  0  0  0
  5  4  1  0  0  0  0
  6 13  1  6  0  0  0
  6  1  1  0  0  0  0
  6 11  1  0  0  0  0
  7 26  1  0  0  0  0
  8  9  1  0  0  0  0
  9  2  1  0  0  0  0
 10  1  2  0  0  0  0
 10  4  1  0  0  0  0
 11  7  1  0  0  0  0
 12 13  2  0  0  0  0
 14 22  2  0  0  0  0
 15 18  1  0  0  0  0
 17 15  1  0  0  0  0
 18 23  1  0  0  0  0
 18 16  2  0  0  0  0
 19 14  1  0  0  0  0
 20 15  2  0  0  0  0
 20 14  1  0  0  0  0
 21 13  1  0  0  0  0
 22 16  1  0  0  0  0
 22 21  1  0  0  0  0
 23 24  1  0  0  0  0
 24 25  3  0  0  0  0
 27 26  1  0  0  0  0
 27 28  1  0  0  0  0
 28 29  1  0  0  0  0
 29 30  1  0  0  0  0
 30 32  1  0  0  0  0
 30 31  1  0  0  0  0
M  END
>  <MODEL>
2

>  <REMARK>
 VINA RESULT:      -7.7      2.779      6.163
  Name = 
  9 active torsions:
  status: ('A' for Active; 'I' for Inactive)
    1  A    between atoms: C_1  and  O_3
    2  A    between atoms: O_3  and  C_17
    3  A    between atoms: N_6  and  C_15
    4  A    between atoms: C_7  and  S_16
    5  A    between atoms: C_7  and  N_23
    6  A    between atoms: C_15  and  C_30
    7  A    between atoms: S_16  and  C_30
    8  A    between atoms: C_18  and  C_21
    9  A    between atoms: C_18  and  N_27
                            x       y       z     vdW  Elec       q    Type
                         _______ _______ _______ _____ _____    ______ ____

>  <TORSDO>
F 9

$$$$
=
 OpenBabel10232408183D

 32 34  0  0  1  0  0  0  0  0999 V2000
  185.9170  178.7100  142.2430 C   0  0  0  0  0  0  0  0  0  0  0  0
  187.8850  176.9100  144.9400 C   0  0  0  0  0  1  0  0  0  0  0  0
  186.9280  178.0300  142.8710 C   0  0  0  0  0  0  0  0  0  0  0  0
  184.6070  178.6950  144.2570 C   0  0  0  0  0  0  0  0  0  0  0  0
  183.3790  179.0690  145.0040 C   0  0  0  0  0  1  0  0  0  0  0  0
  186.3040  179.0400  140.8450 C   0  0  1  0  0  3  0  0  0  0  0  0
  188.0350  177.8340  142.0020 N   0  0  0  0  0  0  0  0  0  0  0  0
  185.6310  177.9830  144.9050 C   0  0  0  0  0  3  0  0  0  0  0  0
  186.8080  177.6420  144.2170 C   0  0  0  0  0  0  0  0  0  0  0  0
  184.7470  179.0680  142.9140 C   0  0  0  0  0  3  0  0  0  0  0  0
  187.7000  178.4040  140.6960 C   0  0  0  0  0  2  0  0  0  0  0  0
  184.1840  178.0170  140.2560 C   0  0  0  0  0  2  0  0  0  0  0  0
  185.3300  178.5200  139.8190 C   0  0  0  0  0  0  0  0  0  0  0  0
  187.4120  178.2240  136.9740 C   0  0  0  0  0  0  0  0  0  0  0  0
  187.5010  176.1190  135.7890 C   0  0  0  0  0  0  0  0  0  0  0  0
  185.6290  176.6470  137.1780 N   0  0  0  0  0  0  0  0  0  0  0  0
  188.2220  175.1950  134.8730 C   0  0  0  0  0  1  0  0  0  0  0  0
  186.2520  175.7810  136.3290 C   0  0  0  0  0  0  0  0  0  0  0  0
  187.9850  179.4480  137.2930 O   0  0  0  0  0  1  0  0  0  0  0  0
  188.0750  177.3490  136.1110 C   0  0  0  0  0  3  0  0  0  0  0  0
  185.4870  178.7250  138.4050 N   0  0  0  0  0  2  0  0  0  0  0  0
  186.1800  177.8450  137.5190 C   0  0  0  0  0  0  0  0  0  0  0  0
  185.6530  174.5640  135.9850 O   0  0  0  0  0  0  0  0  0  0  0  0
  185.2690  173.6490  136.9270 C   0  0  0  0  0  0  0  0  0  0  0  0
  184.9410  172.8410  137.7600 C   0  0  0  0  0  3  0  0  0  0  0  0
  189.0040  176.7560  142.1500 C   0  0  0  0  0  2  0  0  0  0  0  0
  190.2840  176.8630  140.8640 S   0  0  0  0  0  0  0  0  0  0  0  0
  191.4500  177.6410  142.0200 C   0  0  0  0  0  2  0  0  0  0  0  0
  191.4970  176.8640  143.3250 C   0  0  0  0  0  2  0  0  0  0  0  0
  191.7430  177.7640  144.4420 N   0  0  0  0  0  0  0  0  0  0  0  0
  190.8070  178.7430  144.3730 O   0  0  0  0  0  1  0  0  0  0  0  0
  191.4720  177.0120  145.6530 C   0  0  0  0  0  1  0  0  0  0  0  0
  1  3  2  0  0  0  0
  1 10  1  0  0  0  0
  3  9  1  0  0  0  0
  4  8  1  0  0  0  0
  4  5  1  0  0  0  0
  6 13  1  6  0  0  0
  6  1  1  0  0  0  0
  7 26  1  0  0  0  0
  7  3  1  0  0  0  0
  9  8  2  0  0  0  0
  9  2  1  0  0  0  0
 10  4  2  0  0  0  0
 11  6  1  0  0  0  0
 11  7  1  0  0  0  0
 13 12  2  0  0  0  0
 14 19  1  0  0  0  0
 14 22  2  0  0  0  0
 15 20  2  0  0  0  0
 15 18  1  0  0  0  0
 16 22  1  0  0  0  0
 17 15  1  0  0  0  0
 18 16  2  0  0  0  0
 20 14  1  0  0  0  0
 21 13  1  0  0  0  0
 22 21  1  0  0  0  0
 23 18  1  0  0  0  0
 23 24  1  0  0  0  0
 24 25  3  0  0  0  0
 27 28  1  0  0  0  0
 27 26  1  0  0  0  0
 28 29  1  0  0  0  0
 29 30  1  0  0  0  0
 30 32  1  0  0  0  0
 31 30  1  0  0  0  0
M  END
>  <MODEL>
3

>  <REMARK>
 VINA RESULT:      -7.7      2.690      5.605
  Name = 
  9 active torsions:
  status: ('A' for Active; 'I' for Inactive)
    1  A    between atoms: C_1  and  O_3
    2  A    between atoms: O_3  and  C_17
    3  A    between atoms: N_6  and  C_15
    4  A    between atoms: C_7  and  S_16
    5  A    between atoms: C_7  and  N_23
    6  A    between atoms: C_15  and  C_30
    7  A    between atoms: S_16  and  C_30
    8  A    between atoms: C_18  and  C_21
    9  A    between atoms: C_18  and  N_27
                            x       y       z     vdW  Elec       q    Type
                         _______ _______ _______ _____ _____    ______ ____

>  <TORSDO>
F 9

$$$$
=
 OpenBabel10232408183D

 32 34  0  0  1  0  0  0  0  0999 V2000
  188.2680  177.0430  144.5230 C   0  0  0  0  0  0  0  0  0  0  0  0
  185.2720  179.2030  145.3870 C   0  0  0  0  0  1  0  0  0  0  0  0
  187.1090  177.7620  144.3870 C   0  0  0  0  0  0  0  0  0  0  0  0
  188.3510  177.5540  146.8700 C   0  0  0  0  0  0  0  0  0  0  0  0
  189.0010  177.4240  148.1990 C   0  0  0  0  0  1  0  0  0  0  0  0
  188.6430  176.4140  143.2290 C   0  0  1  0  0  3  0  0  0  0  0  0
  186.6180  177.7020  143.0540 N   0  0  0  0  0  0  0  0  0  0  0  0
  187.1720  178.3070  146.7360 C   0  0  0  0  0  3  0  0  0  0  0  0
  186.5350  178.4190  145.4890 C   0  0  0  0  0  0  0  0  0  0  0  0
  188.9080  176.9100  145.7560 C   0  0  0  0  0  3  0  0  0  0  0  0
  187.5540  176.9060  142.2570 C   0  0  0  0  0  2  0  0  0  0  0  0
  191.0580  176.2340  143.3940 C   0  0  0  0  0  2  0  0  0  0  0  0
  190.0290  176.7860  142.7650 C   0  0  0  0  0  0  0  0  0  0  0  0
  192.1790  177.3690  140.0160 C   0  0  0  0  0  0  0  0  0  0  0  0
  191.9970  175.9660  138.0560 C   0  0  0  0  0  0  0  0  0  0  0  0
  190.1630  176.1630  139.5770 N   0  0  0  0  0  0  0  0  0  0  0  0
  192.6100  175.4040  136.8220 C   0  0  0  0  0  1  0  0  0  0  0  0
  190.6850  175.6410  138.4300 C   0  0  0  0  0  0  0  0  0  0  0  0
  192.9190  178.2370  140.8080 O   0  0  0  0  0  1  0  0  0  0  0  0
  192.7390  176.8390  138.8530 C   0  0  0  0  0  3  0  0  0  0  0  0
  190.2860  177.5330  141.5650 N   0  0  0  0  0  2  0  0  0  0  0  0
  190.8760  177.0030  140.3770 C   0  0  0  0  0  0  0  0  0  0  0  0
  189.9210  174.7940  137.6190 O   0  0  0  0  0  0  0  0  0  0  0  0
  188.6930  175.1590  137.1390 C   0  0  0  0  0  0  0  0  0  0  0  0
  187.6130  175.4910  136.7170 C   0  0  0  0  0  3  0  0  0  0  0  0
  185.7600  178.7160  142.4570 C   0  0  0  0  0  2  0  0  0  0  0  0
  184.1040  178.0420  142.1300 S   0  0  0  0  0  0  0  0  0  0  0  0
  184.0640  178.8100  140.4830 C   0  0  0  0  0  2  0  0  0  0  0  0
  185.4590  178.8480  139.8840 C   0  0  0  0  0  2  0  0  0  0  0  0
  185.3870  178.8400  138.4310 N   0  0  0  0  0  0  0  0  0  0  0  0
  186.6170  178.4950  137.9760 O   0  0  0  0  0  1  0  0  0  0  0  0
  184.4880  177.7620  138.0620 C   0  0  0  0  0  1  0  0  0  0  0  0
  1 10  1  0  0  0  0
  2  9  1  0  0  0  0
  3  1  2  0  0  0  0
  3  9  1  0  0  0  0
  4  5  1  0  0  0  0
  6 13  1  6  0  0  0
  6  1  1  0  0  0  0
  7  3  1  0  0  0  0
  8  4  1  0  0  0  0
  9  8  2  0  0  0  0
 10  4  2  0  0  0  0
 11  7  1  0  0  0  0
 11  6  1  0  0  0  0
 13 12  2  0  0  0  0
 14 22  2  0  0  0  0
 14 19  1  0  0  0  0
 15 18  1  0  0  0  0
 15 20  2  0  0  0  0
 16 22  1  0  0  0  0
 17 15  1  0  0  0  0
 18 16  2  0  0  0  0
 20 14  1  0  0  0  0
 21 13  1  0  0  0  0
 22 21  1  0  0  0  0
 23 18  1  0  0  0  0
 24 23  1  0  0  0  0
 25 24  3  0  0  0  0
 26  7  1  0  0  0  0
 27 26  1  0  0  0  0
 28 27  1  0  0  0  0
 29 28  1  0  0  0  0
 30 29  1  0  0  0  0
 31 30  1  0  0  0  0
 32 30  1  0  0  0  0
M  END
>  <MODEL>
4

>  <REMARK>
 VINA RESULT:      -7.3      1.729      1.996
  Name = 
  9 active torsions:
  status: ('A' for Active; 'I' for Inactive)
    1  A    between atoms: C_1  and  O_3
    2  A    between atoms: O_3  and  C_17
    3  A    between atoms: N_6  and  C_15
    4  A    between atoms: C_7  and  S_16
    5  A    between atoms: C_7  and  N_23
    6  A    between atoms: C_15  and  C_30
    7  A    between atoms: S_16  and  C_30
    8  A    between atoms: C_18  and  C_21
    9  A    between atoms: C_18  and  N_27
                            x       y       z     vdW  Elec       q    Type
                         _______ _______ _______ _____ _____    ______ ____

>  <TORSDO>
F 9

$$$$
=
 OpenBabel10232408183D

 32 34  0  0  1  0  0  0  0  0999 V2000
  190.2480  176.9260  138.6970 C   0  0  0  0  0  0  0  0  0  0  0  0
  189.1750  174.9320  135.6540 C   0  0  0  0  0  1  0  0  0  0  0  0
  189.4600  176.4030  137.7050 C   0  0  0  0  0  0  0  0  0  0  0  0
  192.1620  175.7460  137.8480 C   0  0  0  0  0  0  0  0  0  0  0  0
  193.6080  175.4130  137.9100 C   0  0  0  0  0  1  0  0  0  0  0  0
  189.4630  177.8630  139.5430 C   0  0  1  0  0  3  0  0  0  0  0  0
  188.1310  176.9010  137.7850 N   0  0  0  0  0  0  0  0  0  0  0  0
  191.3580  175.1920  136.8370 C   0  0  0  0  0  3  0  0  0  0  0  0
  189.9940  175.5160  136.7530 C   0  0  0  0  0  0  0  0  0  0  0  0
  191.6080  176.6260  138.7880 C   0  0  0  0  0  3  0  0  0  0  0  0
  188.0460  177.7930  138.9440 C   0  0  0  0  0  2  0  0  0  0  0  0
  190.2190  176.4650  141.3770 C   0  0  0  0  0  2  0  0  0  0  0  0
  189.4790  177.5010  141.0070 C   0  0  0  0  0  0  0  0  0  0  0  0
  187.5580  177.6860  143.9720 C   0  0  0  0  0  0  0  0  0  0  0  0
  188.6350  177.3060  146.1020 C   0  0  0  0  0  0  0  0  0  0  0  0
  189.9220  177.9550  144.1950 N   0  0  0  0  0  0  0  0  0  0  0  0
  188.5350  176.9310  147.5390 C   0  0  0  0  0  1  0  0  0  0  0  0
  189.8680  177.6320  145.5190 C   0  0  0  0  0  0  0  0  0  0  0  0
  186.4060  177.7200  143.1970 O   0  0  0  0  0  1  0  0  0  0  0  0
  187.4790  177.3410  145.3220 C   0  0  0  0  0  3  0  0  0  0  0  0
  188.9100  178.3310  142.0330 N   0  0  0  0  0  2  0  0  0  0  0  0
  188.8080  177.9780  143.4120 C   0  0  0  0  0  0  0  0  0  0  0  0
  191.0280  177.6330  146.3020 O   0  0  0  0  0  0  0  0  0  0  0  0
  191.7170  176.4840  146.5830 C   0  0  0  0  0  0  0  0  0  0  0  0
  192.3160  175.4690  146.8370 C   0  0  0  0  0  3  0  0  0  0  0  0
  186.9680  176.2010  137.2590 C   0  0  0  0  0  2  0  0  0  0  0  0
  185.7970  177.3740  136.5140 S   0  0  0  0  0  0  0  0  0  0  0  0
  184.5940  177.0950  137.8470 C   0  0  0  0  0  2  0  0  0  0  0  0
  183.9040  178.3980  138.2160 C   0  0  0  0  0  2  0  0  0  0  0  0
  184.8040  179.2480  138.9810 N   0  0  0  0  0  0  0  0  0  0  0  0
  184.2960  180.5040  138.9350 O   0  0  0  0  0  1  0  0  0  0  0  0
  184.7180  178.8130  140.3630 C   0  0  0  0  0  1  0  0  0  0  0  0
  1 10  1  0  0  0  0
  1  6  1  0  0  0  0
  2  9  1  0  0  0  0
  3  7  1  0  0  0  0
  3  1  2  0  0  0  0
  4  5  1  0  0  0  0
  4 10  2  0  0  0  0
  6 13  1  1  0  0  0
  7 11  1  0  0  0  0
  8  4  1  0  0  0  0
  9  8  2  0  0  0  0
  9  3  1  0  0  0  0
 11  6  1  0  0  0  0
 13 12  2  0  0  0  0
 13 21  1  0  0  0  0
 14 20  1  0  0  0  0
 15 17  1  0  0  0  0
 16 18  2  0  0  0  0
 18 15  1  0  0  0  0
 18 23  1  0  0  0  0
 19 14  1  0  0  0  0
 20 15  2  0  0  0  0
 21 22  1  0  0  0  0
 22 14  2  0  0  0  0
 22 16  1  0  0  0  0
 23 24  1  0  0  0  0
 24 25  3  0  0  0  0
 26  7  1  0  0  0  0
 27 26  1  0  0  0  0
 27 28  1  0  0  0  0
 28 29  1  0  0  0  0
 29 30  1  0  0  0  0
 30 32  1  0  0  0  0
 31 30  1  0  0  0  0
M  END
>  <MODEL>
5

>  <REMARK>
 VINA RESULT:      -7.3      2.494      7.285
  Name = 
  9 active torsions:
  status: ('A' for Active; 'I' for Inactive)
    1  A    between atoms: C_1  and  O_3
    2  A    between atoms: O_3  and  C_17
    3  A    between atoms: N_6  and  C_15
    4  A    between atoms: C_7  and  S_16
    5  A    between atoms: C_7  and  N_23
    6  A    between atoms: C_15  and  C_30
    7  A    between atoms: S_16  and  C_30
    8  A    between atoms: C_18  and  C_21
    9  A    between atoms: C_18  and  N_27
                            x       y       z     vdW  Elec       q    Type
                         _______ _______ _______ _____ _____    ______ ____

>  <TORSDO>
F 9

$$$$
=
 OpenBabel10232408183D

 32 34  0  0  1  0  0  0  0  0999 V2000
  190.1180  176.7130  143.2410 C   0  0  0  0  0  0  0  0  0  0  0  0
  187.4060  177.9590  145.5820 C   0  0  0  0  0  1  0  0  0  0  0  0
  188.9240  177.2190  143.6850 C   0  0  0  0  0  0  0  0  0  0  0  0
  190.9240  176.5410  145.4990 C   0  0  0  0  0  0  0  0  0  0  0  0
  191.9810  176.1580  146.4690 C   0  0  0  0  0  1  0  0  0  0  0  0
  190.0980  176.5570  141.7630 C   0  0  1  0  0  3  0  0  0  0  0  0
  188.0300  177.4530  142.6050 N   0  0  0  0  0  0  0  0  0  0  0  0
  189.7090  177.0750  145.9620 C   0  0  0  0  0  3  0  0  0  0  0  0
  188.6910  177.4200  145.0570 C   0  0  0  0  0  0  0  0  0  0  0  0
  191.1350  176.3520  144.1260 C   0  0  0  0  0  3  0  0  0  0  0  0
  188.7140  177.1000  141.3590 C   0  0  0  0  0  2  0  0  0  0  0  0
  192.2620  177.6550  141.8050 C   0  0  0  0  0  2  0  0  0  0  0  0
  191.2200  177.2890  141.0710 C   0  0  0  0  0  0  0  0  0  0  0  0
  192.7840  176.2590  138.0690 C   0  0  0  0  0  0  0  0  0  0  0  0
  191.9910  174.2710  136.9460 C   0  0  0  0  0  0  0  0  0  0  0  0
  190.5740  175.4440  138.4730 N   0  0  0  0  0  0  0  0  0  0  0  0
  192.2390  173.1490  136.0010 C   0  0  0  0  0  1  0  0  0  0  0  0
  190.7590  174.4120  137.6010 C   0  0  0  0  0  0  0  0  0  0  0  0
  193.7900  177.1880  138.3010 O   0  0  0  0  0  1  0  0  0  0  0  0
  193.0000  175.2050  137.1800 C   0  0  0  0  0  3  0  0  0  0  0  0
  191.3120  177.4260  139.6440 N   0  0  0  0  0  2  0  0  0  0  0  0
  191.5530  176.3560  138.7290 C   0  0  0  0  0  0  0  0  0  0  0  0
  189.7290  173.4990  137.3460 O   0  0  0  0  0  0  0  0  0  0  0  0
  188.5440  173.8790  136.7780 C   0  0  0  0  0  0  0  0  0  0  0  0
  187.5020  174.2100  136.2680 C   0  0  0  0  0  3  0  0  0  0  0  0
  186.9440  178.4230  142.6440 C   0  0  0  0  0  2  0  0  0  0  0  0
  186.1210  178.5280  141.0270 S   0  0  0  0  0  0  0  0  0  0  0  0
  184.5890  179.1390  141.7910 C   0  0  0  0  0  2  0  0  0  0  0  0
  184.8180  179.4410  143.2630 C   0  0  0  0  0  2  0  0  0  0  0  0
  183.5480  179.5020  143.9700 N   0  0  0  0  0  0  0  0  0  0  0  0
  182.6550  178.7880  143.2420 O   0  0  0  0  0  1  0  0  0  0  0  0
  183.7310  178.7890  145.2210 C   0  0  0  0  0  1  0  0  0  0  0  0
  1  3  2  0  0  0  0
  1 10  1  0  0  0  0
  3  9  1  0  0  0  0
  4  8  1  0  0  0  0
  4  5  1  0  0  0  0
  6 13  1  6  0  0  0
  6  1  1  0  0  0  0
  7 26  1  0  0  0  0
  7  3  1  0  0  0  0
  9  2  1  0  0  0  0
  9  8  2  0  0  0  0
 10  4  2  0  0  0  0
 11  6  1  0  0  0  0
 11  7  1  0  0  0  0
 13 12  2  0  0  0  0
 14 19  1  0  0  0  0
 14 22  2  0  0  0  0
 15 20  2  0  0  0  0
 15 18  1  0  0  0  0
 16 22  1  0  0  0  0
 17 15  1  0  0  0  0
 18 16  2  0  0  0  0
 20 14  1  0  0  0  0
 21 13  1  0  0  0  0
 22 21  1  0  0  0  0
 23 18  1  0  0  0  0
 24 23  1  0  0  0  0
 25 24  3  0  0  0  0
 27 28  1  0  0  0  0
 27 26  1  0  0  0  0
 28 29  1  0  0  0  0
 29 30  1  0  0  0  0
 30 32  1  0  0  0  0
 31 30  1  0  0  0  0
M  END
>  <MODEL>
6

>  <REMARK>
 VINA RESULT:      -7.2      2.023      2.770
  Name = 
  9 active torsions:
  status: ('A' for Active; 'I' for Inactive)
    1  A    between atoms: C_1  and  O_3
    2  A    between atoms: O_3  and  C_17
    3  A    between atoms: N_6  and  C_15
    4  A    between atoms: C_7  and  S_16
    5  A    between atoms: C_7  and  N_23
    6  A    between atoms: C_15  and  C_30
    7  A    between atoms: S_16  and  C_30
    8  A    between atoms: C_18  and  C_21
    9  A    between atoms: C_18  and  N_27
                            x       y       z     vdW  Elec       q    Type
                         _______ _______ _______ _____ _____    ______ ____

>  <TORSDO>
F 9

$$$$
=
 OpenBabel10232408183D

 32 34  0  0  1  0  0  0  0  0999 V2000
  187.5470  178.3940  140.9450 C   0  0  0  0  0  0  0  0  0  0  0  0
  187.4370  176.9120  144.4360 C   0  0  0  0  0  1  0  0  0  0  0  0
  187.9490  177.7840  142.1060 C   0  0  0  0  0  0  0  0  0  0  0  0
  185.3150  178.6350  141.8030 C   0  0  0  0  0  0  0  0  0  0  0  0
  183.9160  179.1080  141.6520 C   0  0  0  0  0  1  0  0  0  0  0  0
  188.6970  178.5490  140.0160 C   0  0  1  0  0  3  0  0  0  0  0  0
  189.3350  177.4730  142.0710 N   0  0  0  0  0  0  0  0  0  0  0  0
  185.7140  177.9960  142.9900 C   0  0  0  0  0  3  0  0  0  0  0  0
  187.0400  177.5620  143.1550 C   0  0  0  0  0  0  0  0  0  0  0  0
  186.2370  178.8420  140.7690 C   0  0  0  0  0  3  0  0  0  0  0  0
  189.8650  177.8860  140.7700 C   0  0  0  0  0  2  0  0  0  0  0  0
  188.7890  178.6230  137.5920 C   0  0  0  0  0  2  0  0  0  0  0  0
  188.4620  177.9180  138.6660 C   0  0  0  0  0  0  0  0  0  0  0  0
  188.0290  175.2080  136.4340 C   0  0  0  0  0  0  0  0  0  0  0  0
  189.9460  173.8750  135.8090 C   0  0  0  0  0  0  0  0  0  0  0  0
  189.9760  175.1700  137.8180 N   0  0  0  0  0  0  0  0  0  0  0  0
  190.5990  172.9430  134.8510 C   0  0  0  0  0  1  0  0  0  0  0  0
  190.6010  174.3010  136.9720 C   0  0  0  0  0  0  0  0  0  0  0  0
  186.7410  175.6580  136.1720 O   0  0  0  0  0  1  0  0  0  0  0  0
  188.6520  174.3290  135.5480 C   0  0  0  0  0  3  0  0  0  0  0  0
  188.1010  176.5390  138.4910 N   0  0  0  0  0  2  0  0  0  0  0  0
  188.7210  175.6380  137.5730 C   0  0  0  0  0  0  0  0  0  0  0  0
  191.8850  173.8250  137.2600 O   0  0  0  0  0  0  0  0  0  0  0  0
  192.9370  174.6670  137.5010 C   0  0  0  0  0  0  0  0  0  0  0  0
  193.8580  175.4140  137.7210 C   0  0  0  0  0  3  0  0  0  0  0  0
  189.9500  176.4120  142.8570 C   0  0  0  0  0  2  0  0  0  0  0  0
  191.6080  176.9040  143.4130 S   0  0  0  0  0  0  0  0  0  0  0  0
  191.0470  177.0310  145.1360 C   0  0  0  0  0  2  0  0  0  0  0  0
  191.9120  176.1670  146.0380 C   0  0  0  0  0  2  0  0  0  0  0  0
  191.3900  176.1710  147.3960 N   0  0  0  0  0  0  0  0  0  0  0  0
  192.2570  176.8910  148.1500 O   0  0  0  0  0  1  0  0  0  0  0  0
  190.1460  176.9180  147.3640 C   0  0  0  0  0  1  0  0  0  0  0  0
  1  3  1  0  0  0  0
  3  9  2  0  0  0  0
  4  8  2  0  0  0  0
  5  4  1  0  0  0  0
  6 13  1  6  0  0  0
  6 11  1  0  0  0  0
  6  1  1  0  0  0  0
  7  3  1  0  0  0  0
  7 26  1  0  0  0  0
  8  9  1  0  0  0  0
  9  2  1  0  0  0  0
 10  1  2  0  0  0  0
 10  4  1  0  0  0  0
 11  7  1  0  0  0  0
 12 13  2  0  0  0  0
 14 22  2  0  0  0  0
 15 18  1  0  0  0  0
 17 15  1  0  0  0  0
 18 23  1  0  0  0  0
 18 16  2  0  0  0  0
 19 14  1  0  0  0  0
 20 15  2  0  0  0  0
 20 14  1  0  0  0  0
 21 13  1  0  0  0  0
 22 16  1  0  0  0  0
 22 21  1  0  0  0  0
 23 24  1  0  0  0  0
 24 25  3  0  0  0  0
 26 27  1  0  0  0  0
 27 28  1  0  0  0  0
 28 29  1  0  0  0  0
 29 30  1  0  0  0  0
 30 31  1  0  0  0  0
 32 30  1  0  0  0  0
M  END
>  <MODEL>
7

>  <REMARK>
 VINA RESULT:      -7.2      2.889      6.278
  Name = 
  9 active torsions:
  status: ('A' for Active; 'I' for Inactive)
    1  A    between atoms: C_1  and  O_3
    2  A    between atoms: O_3  and  C_17
    3  A    between atoms: N_6  and  C_15
    4  A    between atoms: C_7  and  S_16
    5  A    between atoms: C_7  and  N_23
    6  A    between atoms: C_15  and  C_30
    7  A    between atoms: S_16  and  C_30
    8  A    between atoms: C_18  and  C_21
    9  A    between atoms: C_18  and  N_27
                            x       y       z     vdW  Elec       q    Type
                         _______ _______ _______ _____ _____    ______ ____

>  <TORSDO>
F 9

$$$$
=
 OpenBabel10232408183D

 32 34  0  0  1  0  0  0  0  0999 V2000
  189.7380  177.5450  139.2870 C   0  0  0  0  0  0  0  0  0  0  0  0
  190.3590  175.0190  136.5260 C   0  0  0  0  0  1  0  0  0  0  0  0
  189.5160  176.7160  138.2180 C   0  0  0  0  0  0  0  0  0  0  0  0
  192.0490  176.8880  139.3630 C   0  0  0  0  0  0  0  0  0  0  0  0
  193.4050  176.9960  139.9580 C   0  0  0  0  0  1  0  0  0  0  0  0
  188.5010  178.2980  139.6240 C   0  0  1  0  0  3  0  0  0  0  0  0
  188.1740  176.8130  137.7600 N   0  0  0  0  0  0  0  0  0  0  0  0
  191.8260  176.0220  138.2780 C   0  0  0  0  0  3  0  0  0  0  0  0
  190.5540  175.9270  137.6910 C   0  0  0  0  0  0  0  0  0  0  0  0
  190.9980  177.6620  139.8750 C   0  0  0  0  0  3  0  0  0  0  0  0
  187.4620  177.7570  138.6230 C   0  0  0  0  0  2  0  0  0  0  0  0
  186.9990  178.7910  141.4660 C   0  0  0  0  0  2  0  0  0  0  0  0
  188.0610  178.1110  141.0550 C   0  0  0  0  0  0  0  0  0  0  0  0
  190.0890  177.3410  143.8490 C   0  0  0  0  0  0  0  0  0  0  0  0
  189.1490  177.5000  146.0700 C   0  0  0  0  0  0  0  0  0  0  0  0
  187.7230  177.2430  144.1690 N   0  0  0  0  0  0  0  0  0  0  0  0
  189.3470  177.6550  147.5370 C   0  0  0  0  0  1  0  0  0  0  0  0
  187.8660  177.3660  145.5200 C   0  0  0  0  0  0  0  0  0  0  0  0
  191.1970  177.3200  143.0120 O   0  0  0  0  0  1  0  0  0  0  0  0
  190.2600  177.4790  145.2280 C   0  0  0  0  0  3  0  0  0  0  0  0
  188.5970  177.0970  141.9200 N   0  0  0  0  0  2  0  0  0  0  0  0
  188.7940  177.2380  143.3280 C   0  0  0  0  0  0  0  0  0  0  0  0
  186.7480  177.3520  146.3600 O   0  0  0  0  0  0  0  0  0  0  0  0
  185.6400  178.1170  146.1120 C   0  0  0  0  0  0  0  0  0  0  0  0
  184.6600  178.7820  145.8890 C   0  0  0  0  0  3  0  0  0  0  0  0
  187.4850  175.7540  137.0350 C   0  0  0  0  0  2  0  0  0  0  0  0
  186.6580  176.4210  135.5610 S   0  0  0  0  0  0  0  0  0  0  0  0
  185.1550  175.4600  135.9080 C   0  0  0  0  0  2  0  0  0  0  0  0
  185.5130  174.0190  136.2310 C   0  0  0  0  0  2  0  0  0  0  0  0
  184.5080  173.4300  137.1020 N   0  0  0  0  0  0  0  0  0  0  0  0
  185.1720  172.7950  138.0990 O   0  0  0  0  0  1  0  0  0  0  0  0
  183.7890  174.5310  137.7150 C   0  0  0  0  0  1  0  0  0  0  0  0
  1  6  1  0  0  0  0
  1 10  1  0  0  0  0
  2  9  1  0  0  0  0
  3  1  2  0  0  0  0
  4 10  2  0  0  0  0
  4  5  1  0  0  0  0
  6 13  1  1  0  0  0
  7  3  1  0  0  0  0
  7 11  1  0  0  0  0
  8  4  1  0  0  0  0
  9  3  1  0  0  0  0
  9  8  2  0  0  0  0
 11  6  1  0  0  0  0
 13 12  2  0  0  0  0
 13 21  1  0  0  0  0
 14 20  1  0  0  0  0
 15 17  1  0  0  0  0
 16 18  2  0  0  0  0
 18 15  1  0  0  0  0
 18 23  1  0  0  0  0
 19 14  1  0  0  0  0
 20 15  2  0  0  0  0
 21 22  1  0  0  0  0
 22 14  2  0  0  0  0
 22 16  1  0  0  0  0
 24 23  1  0  0  0  0
 25 24  3  0  0  0  0
 26  7  1  0  0  0  0
 27 28  1  0  0  0  0
 27 26  1  0  0  0  0
 28 29  1  0  0  0  0
 29 30  1  0  0  0  0
 30 32  1  0  0  0  0
 30 31  1  0  0  0  0
M  END
>  <MODEL>
8

>  <REMARK>
 VINA RESULT:      -7.0      2.828      7.055
  Name = 
  9 active torsions:
  status: ('A' for Active; 'I' for Inactive)
    1  A    between atoms: C_1  and  O_3
    2  A    between atoms: O_3  and  C_17
    3  A    between atoms: N_6  and  C_15
    4  A    between atoms: C_7  and  S_16
    5  A    between atoms: C_7  and  N_23
    6  A    between atoms: C_15  and  C_30
    7  A    between atoms: S_16  and  C_30
    8  A    between atoms: C_18  and  C_21
    9  A    between atoms: C_18  and  N_27
                            x       y       z     vdW  Elec       q    Type
                         _______ _______ _______ _____ _____    ______ ____

>  <TORSDO>
F 9

$$$$
=
 OpenBabel10232408183D

 32 34  0  0  1  0  0  0  0  0999 V2000
  186.0970  178.0720  138.6010 C   0  0  0  0  0  0  0  0  0  0  0  0
  186.7630  175.4230  135.9690 C   0  0  0  0  0  1  0  0  0  0  0  0
  185.8880  177.1770  137.5830 C   0  0  0  0  0  0  0  0  0  0  0  0
  188.4320  177.5060  138.6660 C   0  0  0  0  0  0  0  0  0  0  0  0
  189.7930  177.6970  139.2270 C   0  0  0  0  0  1  0  0  0  0  0  0
  184.8380  178.7960  138.9220 C   0  0  1  0  0  3  0  0  0  0  0  0
  184.5350  177.2000  137.1480 N   0  0  0  0  0  0  0  0  0  0  0  0
  188.2230  176.5740  137.6340 C   0  0  0  0  0  3  0  0  0  0  0  0
  186.9440  176.3990  137.0790 C   0  0  0  0  0  0  0  0  0  0  0  0
  187.3620  178.2680  139.1560 C   0  0  0  0  0  3  0  0  0  0  0  0
  183.8030  178.1630  137.9720 C   0  0  0  0  0  2  0  0  0  0  0  0
  183.6370  177.6640  140.7010 C   0  0  0  0  0  2  0  0  0  0  0  0
  184.4320  178.6720  140.3690 C   0  0  0  0  0  0  0  0  0  0  0  0
  184.8580  179.1440  143.8490 C   0  0  0  0  0  0  0  0  0  0  0  0
  186.5790  177.9020  145.0070 C   0  0  0  0  0  0  0  0  0  0  0  0
  186.7130  178.2390  142.6440 N   0  0  0  0  0  0  0  0  0  0  0  0
  187.1210  177.3440  146.2750 C   0  0  0  0  0  1  0  0  0  0  0  0
  187.2500  177.7270  143.7890 C   0  0  0  0  0  0  0  0  0  0  0  0
  183.6670  179.8580  143.8760 O   0  0  0  0  0  1  0  0  0  0  0  0
  185.3820  178.6200  145.0320 C   0  0  0  0  0  3  0  0  0  0  0  0
  185.0170  179.4540  141.4230 N   0  0  0  0  0  2  0  0  0  0  0  0
  185.5380  178.9270  142.6440 C   0  0  0  0  0  0  0  0  0  0  0  0
  188.4680  177.0390  143.7590 O   0  0  0  0  0  0  0  0  0  0  0  0
  189.6590  177.6760  143.5410 C   0  0  0  0  0  0  0  0  0  0  0  0
  190.7140  178.2320  143.3580 C   0  0  0  0  0  3  0  0  0  0  0  0
  183.8720  176.0780  136.4950 C   0  0  0  0  0  2  0  0  0  0  0  0
  183.2300  174.9080  137.7290 S   0  0  0  0  0  0  0  0  0  0  0  0
  183.5080  173.5020  136.6120 C   0  0  0  0  0  2  0  0  0  0  0  0
  182.1910  173.0330  136.0170 C   0  0  0  0  0  2  0  0  0  0  0  0
  181.8650  171.6990  136.4990 N   0  0  0  0  0  0  0  0  0  0  0  0
  182.9230  171.2740  137.2320 O   0  0  0  0  0  1  0  0  0  0  0  0
  180.7530  171.8470  137.4190 C   0  0  0  0  0  1  0  0  0  0  0  0
  1  6  1  0  0  0  0
  1 10  1  0  0  0  0
  2  9  1  0  0  0  0
  3  1  2  0  0  0  0
  4 10  2  0  0  0  0
  4  5  1  0  0  0  0
  6 13  1  1  0  0  0
  7  3  1  0  0  0  0
  7 11  1  0  0  0  0
  8  4  1  0  0  0  0
  9  3  1  0  0  0  0
  9  8  2  0  0  0  0
 11  6  1  0  0  0  0
 13 12  2  0  0  0  0
 13 21  1  0  0  0  0
 14 19  1  0  0  0  0
 14 20  1  0  0  0  0
 15 20  2  0  0  0  0
 15 17  1  0  0  0  0
 16 22  1  0  0  0  0
 16 18  2  0  0  0  0
 18 15  1  0  0  0  0
 21 22  1  0  0  0  0
 22 14  2  0  0  0  0
 23 18  1  0  0  0  0
 24 23  1  0  0  0  0
 25 24  3  0  0  0  0
 26  7  1  0  0  0  0
 26 27  1  0  0  0  0
 28 27  1  0  0  0  0
 29 30  1  0  0  0  0
 29 28  1  0  0  0  0
 30 31  1  0  0  0  0
 30 32  1  0  0  0  0
M  END
>  <MODEL>
9

>  <REMARK>
 VINA RESULT:      -6.9      3.651      7.643
  Name = 
  9 active torsions:
  status: ('A' for Active; 'I' for Inactive)
    1  A    between atoms: C_1  and  O_3
    2  A    between atoms: O_3  and  C_17
    3  A    between atoms: N_6  and  C_15
    4  A    between atoms: C_7  and  S_16
    5  A    between atoms: C_7  and  N_23
    6  A    between atoms: C_15  and  C_30
    7  A    between atoms: S_16  and  C_30
    8  A    between atoms: C_18  and  C_21
    9  A    between atoms: C_18  and  N_27
                            x       y       z     vdW  Elec       q    Type
                         _______ _______ _______ _____ _____    ______ ____

>  <TORSDO>
F 9

$$$$
