=
 OpenBabel10232408183D

 32 34  0  0  1  0  0  0  0  0999 V2000
  187.0290  178.6230  136.8220 C   0  0  0  0  0  2  0  0  0  0  0  0
  188.0260  177.5490  136.4270 C   0  0  1  0  0  3  0  0  0  0  0  0
  189.4550  178.0190  136.7380 C   0  0  0  0  0  2  0  0  0  0  0  0
  187.6570  176.2210  137.1070 C   0  0  0  0  0  2  0  0  0  0  0  0
  188.5170  175.9520  138.3400 C   0  0  0  0  0  2  0  0  0  0  0  0
  190.0040  175.8680  137.9650 C   0  0  1  0  0  3  0  0  0  0  0  0
  190.4100  176.8320  136.8400 C   0  0  0  0  0  2  0  0  0  0  0  0
  190.8190  176.1190  139.1420 N   0  0  0  0  0  2  0  0  0  0  0  0
  189.8790  177.1530  140.2250 S   0  0  0  0  0  0  0  0  0  0  0  0
  191.1570  177.0940  141.5210 C   0  0  0  0  0  2  0  0  0  0  0  0
  191.5180  176.3460  143.9510 C   0  0  0  0  0  2  0  0  0  0  0  0
  190.9340  177.7450  144.0190 C   0  0  2  0  0  0  0  0  0  0  0  0
  190.5380  176.8140  142.8840 C   0  0  1  0  0  0  0  0  0  0  0  0
  191.8780  178.7340  143.7310 O   0  0  0  0  0  1  0  0  0  0  0  0
  190.0120  177.9690  145.2040 C   0  0  0  0  0  1  0  0  0  0  0  0
  189.1690  176.1590  142.9620 C   0  0  0  0  0  1  0  0  0  0  0  0
  185.8880  178.0300  137.4220 O   0  0  0  0  0  0  0  0  0  0  0  0
  184.6850  178.7730  141.6390 C   0  0  0  0  0  0  0  0  0  0  0  0
  186.1620  178.6020  139.6480 N   0  0  0  0  0  0  0  0  0  0  0  0
  183.5480  178.0370  141.0580 C   0  0  0  0  0  3  0  0  0  0  0  0
  185.8450  178.9940  140.9940 C   0  0  0  0  0  3  0  0  0  0  0  0
  183.9010  178.8420  138.7270 C   0  0  2  0  0  3  0  0  0  0  0  0
  183.2030  178.0350  139.7700 C   0  0  0  0  0  3  0  0  0  0  0  0
  185.3570  178.4770  138.6340 C   0  0  0  0  0  0  0  0  0  0  0  0
  183.7480  180.2120  138.9700 O   0  0  0  0  0  0  0  0  0  0  0  0
  182.4150  180.4900  138.6590 C   0  0  0  0  0  1  0  0  0  0  0  0
  184.5620  179.1680  143.0100 N   0  0  0  0  0  2  0  0  0  0  0  0
  184.9770  178.3540  144.0760 N   0  0  0  0  0  2  0  0  0  0  0  0
  184.2200  178.7590  145.2500 C   0  0  0  0  0  2  0  0  0  0  0  0
  185.0940  178.6960  146.4930 C   0  0  0  0  0  2  0  0  0  0  0  0
  186.3930  177.9530  146.2150 C   0  0  0  0  0  2  0  0  0  0  0  0
  187.2870  177.9610  147.4400 C   0  0  0  0  0  1  0  0  0  0  0  0
  1 17  1  0  0  0  0
  2  3  1  0  0  0  0
  2  1  1  1  0  0  0
  2  4  1  0  0  0  0
  3  7  1  0  0  0  0
  4  5  1  0  0  0  0
  6  5  1  0  0  0  0
  6  8  1  1  0  0  0
  7  6  1  0  0  0  0
  8  9  1  0  0  0  0
  9 10  1  0  0  0  0
 10 13  1  0  0  0  0
 11 12  1  0  0  0  0
 12 15  1  1  0  0  0
 13 16  1  1  0  0  0
 13 11  1  0  0  0  0
 13 12  1  0  0  0  0
 14 12  1  0  0  0  0
 17 24  1  0  0  0  0
 18 27  1  0  0  0  0
 19 21  1  0  0  0  0
 20 18  1  0  0  0  0
 21 18  2  0  0  0  0
 22 25  1  1  0  0  0
 22 23  1  0  0  0  0
 23 20  2  0  0  0  0
 24 22  1  0  0  0  0
 24 19  2  0  0  0  0
 26 25  1  0  0  0  0
 27 28  1  0  0  0  0
 28 29  1  0  0  0  0
 29 30  1  0  0  0  0
 31 30  1  0  0  0  0
 31 32  1  0  0  0  0
M  END
>  <MODEL>
1

>  <REMARK>
 VINA RESULT:      -6.9      0.000      0.000
  Name = 
  13 active torsions:
  status: ('A' for Active; 'I' for Inactive)
    1  A    between atoms: C_1  and  N_2
    2  A    between atoms: C_1  and  C_19
    3  A    between atoms: N_2  and  N_12
    4  A    between atoms: C_3  and  C_11
    5  A    between atoms: C_6  and  N_12
    6  A    between atoms: C_11  and  O_25
    7  A    between atoms: C_14  and  N_17
    8  A    between atoms: C_15  and  O_20
    9  A    between atoms: C_16  and  S_18
   10  A    between atoms: C_16  and  C_26
   11  A    between atoms: N_17  and  S_18
   12  A    between atoms: C_19  and  C_23
   13  A    between atoms: O_25  and  C_32
                            x       y       z     vdW  Elec       q    Type
                         _______ _______ _______ _____ _____    ______ ____

>  <TORSDO>
F 13

$$$$
=
 OpenBabel10232408183D

 32 34  0  0  1  0  0  0  0  0999 V2000
  184.5380  179.5550  143.8400 C   0  0  0  0  0  2  0  0  0  0  0  0
  184.8000  178.3650  144.7460 C   0  0  1  0  0  3  0  0  0  0  0  0
  186.2280  177.8430  144.5270 C   0  0  0  0  0  2  0  0  0  0  0  0
  184.5060  178.7470  146.2050 C   0  0  0  0  0  2  0  0  0  0  0  0
  185.7820  179.0640  146.9810 C   0  0  0  0  0  2  0  0  0  0  0  0
  186.7210  177.8490  147.0150 C   0  0  1  0  0  3  0  0  0  0  0  0
  186.6970  177.0180  145.7230 C   0  0  0  0  0  2  0  0  0  0  0  0
  188.0790  178.2890  147.2870 N   0  0  0  0  0  2  0  0  0  0  0  0
  189.1590  176.9520  146.8750 S   0  0  0  0  0  0  0  0  0  0  0  0
  190.2390  178.0260  145.8770 C   0  0  0  0  0  2  0  0  0  0  0  0
  189.8700  178.6260  143.4070 C   0  0  0  0  0  2  0  0  0  0  0  0
  191.3240  178.2040  143.5300 C   0  0  2  0  0  0  0  0  0  0  0  0
  190.2730  177.5680  144.4250 C   0  0  1  0  0  0  0  0  0  0  0  0
  192.1230  179.2000  144.0970 O   0  0  0  0  0  1  0  0  0  0  0  0
  191.8570  177.4760  142.3100 C   0  0  0  0  0  1  0  0  0  0  0  0
  189.8170  176.1610  144.0760 C   0  0  0  0  0  1  0  0  0  0  0  0
  183.5860  179.2090  142.8460 O   0  0  0  0  0  0  0  0  0  0  0  0
  185.2960  178.6160  138.7840 C   0  0  0  0  0  0  0  0  0  0  0  0
  185.2180  178.7810  141.2630 N   0  0  0  0  0  0  0  0  0  0  0  0
  183.9820  179.2370  138.5420 C   0  0  0  0  0  3  0  0  0  0  0  0
  185.8310  178.4420  140.0070 C   0  0  0  0  0  3  0  0  0  0  0  0
  182.9010  178.3320  140.5940 C   0  0  2  0  0  3  0  0  0  0  0  0
  182.9210  179.1440  139.3430 C   0  0  0  0  0  3  0  0  0  0  0  0
  183.9530  178.7920  141.5650 C   0  0  0  0  0  0  0  0  0  0  0  0
  183.0520  176.9700  140.3090 O   0  0  0  0  0  0  0  0  0  0  0  0
  181.8110  176.5620  139.8140 C   0  0  0  0  0  1  0  0  0  0  0  0
  186.0760  178.2900  137.6290 N   0  0  0  0  0  2  0  0  0  0  0  0
  187.1830  179.0510  137.2180 N   0  0  0  0  0  2  0  0  0  0  0  0
  188.3550  178.1940  137.3090 C   0  0  0  0  0  2  0  0  0  0  0  0
  189.3350  178.7410  138.3340 C   0  0  0  0  0  2  0  0  0  0  0  0
  189.4670  177.8020  139.5240 C   0  0  0  0  0  2  0  0  0  0  0  0
  190.2560  176.5640  139.1440 C   0  0  0  0  0  1  0  0  0  0  0  0
  2  1  1  6  0  0  0
  2  4  1  0  0  0  0
  3  2  1  0  0  0  0
  3  7  1  0  0  0  0
  4  5  1  0  0  0  0
  5  6  1  0  0  0  0
  6  8  1  6  0  0  0
  7  6  1  0  0  0  0
  9  8  1  0  0  0  0
 10  9  1  0  0  0  0
 11 12  1  0  0  0  0
 11 13  1  0  0  0  0
 12 15  1  6  0  0  0
 12 14  1  0  0  0  0
 12 13  1  0  0  0  0
 13 16  1  6  0  0  0
 13 10  1  0  0  0  0
 17  1  1  0  0  0  0
 18 21  2  0  0  0  0
 19 24  2  0  0  0  0
 20 18  1  0  0  0  0
 20 23  2  0  0  0  0
 21 19  1  0  0  0  0
 22 25  1  6  0  0  0
 22 24  1  0  0  0  0
 23 22  1  0  0  0  0
 24 17  1  0  0  0  0
 26 25  1  0  0  0  0
 27 18  1  0  0  0  0
 28 29  1  0  0  0  0
 28 27  1  0  0  0  0
 29 30  1  0  0  0  0
 30 31  1  0  0  0  0
 32 31  1  0  0  0  0
M  END
>  <MODEL>
2

>  <REMARK>
 VINA RESULT:      -6.8      2.202      6.238
  Name = 
  13 active torsions:
  status: ('A' for Active; 'I' for Inactive)
    1  A    between atoms: C_1  and  N_2
    2  A    between atoms: C_1  and  C_19
    3  A    between atoms: N_2  and  N_12
    4  A    between atoms: C_3  and  C_11
    5  A    between atoms: C_6  and  N_12
    6  A    between atoms: C_11  and  O_25
    7  A    between atoms: C_14  and  N_17
    8  A    between atoms: C_15  and  O_20
    9  A    between atoms: C_16  and  S_18
   10  A    between atoms: C_16  and  C_26
   11  A    between atoms: N_17  and  S_18
   12  A    between atoms: C_19  and  C_23
   13  A    between atoms: O_25  and  C_32
                            x       y       z     vdW  Elec       q    Type
                         _______ _______ _______ _____ _____    ______ ____

>  <TORSDO>
F 13

$$$$
=
 OpenBabel10232408183D

 32 34  0  0  1  0  0  0  0  0999 V2000
  185.1480  178.7650  141.8660 C   0  0  0  0  0  2  0  0  0  0  0  0
  184.2170  178.9700  140.6840 C   0  0  1  0  0  3  0  0  0  0  0  0
  184.9670  178.6950  139.3720 C   0  0  0  0  0  2  0  0  0  0  0  0
  182.9560  178.1100  140.8590 C   0  0  0  0  0  2  0  0  0  0  0  0
  183.0170  176.8290  140.0310 C   0  0  0  0  0  2  0  0  0  0  0  0
  183.1390  177.1480  138.5340 C   0  0  1  0  0  3  0  0  0  0  0  0
  183.9890  178.3930  138.2380 C   0  0  0  0  0  2  0  0  0  0  0  0
  183.6920  176.0020  137.8330 N   0  0  0  0  0  2  0  0  0  0  0  0
  184.5350  176.6130  136.4040 S   0  0  0  0  0  0  0  0  0  0  0  0
  186.1080  175.8460  136.9050 C   0  0  0  0  0  2  0  0  0  0  0  0
  188.0710  176.9620  138.1300 C   0  0  0  0  0  2  0  0  0  0  0  0
  188.6600  176.2950  136.9000 C   0  0  2  0  0  0  0  0  0  0  0  0
  187.2480  176.8550  136.8530 C   0  0  1  0  0  0  0  0  0  0  0  0
  188.7930  174.9130  137.0520 O   0  0  0  0  0  1  0  0  0  0  0  0
  189.8230  177.0560  136.2880 C   0  0  0  0  0  1  0  0  0  0  0  0
  187.0420  178.1750  136.1300 C   0  0  0  0  0  1  0  0  0  0  0  0
  186.4980  178.7700  141.4260 O   0  0  0  0  0  0  0  0  0  0  0  0
  190.2050  176.9730  143.1020 C   0  0  0  0  0  0  0  0  0  0  0  0
  188.7620  178.5740  141.8650 N   0  0  0  0  0  0  0  0  0  0  0  0
  189.1940  175.9070  143.2210 C   0  0  0  0  0  3  0  0  0  0  0  0
  189.9910  178.1450  142.4750 C   0  0  0  0  0  3  0  0  0  0  0  0
  187.2440  177.4420  143.4240 C   0  0  2  0  0  3  0  0  0  0  0  0
  187.8800  176.0950  143.3380 C   0  0  0  0  0  3  0  0  0  0  0  0
  187.5440  178.2700  142.2050 C   0  0  0  0  0  0  0  0  0  0  0  0
  187.6420  178.1100  144.5870 O   0  0  0  0  0  0  0  0  0  0  0  0
  186.5050  178.1370  145.3990 C   0  0  0  0  0  1  0  0  0  0  0  0
  191.5170  176.6730  143.5910 N   0  0  0  0  0  2  0  0  0  0  0  0
  191.7520  176.1830  144.8850 N   0  0  0  0  0  2  0  0  0  0  0  0
  191.3350  177.2150  145.8220 C   0  0  0  0  0  2  0  0  0  0  0  0
  190.8680  176.5890  147.1270 C   0  0  0  0  0  2  0  0  0  0  0  0
  189.3780  176.8100  147.3400 C   0  0  0  0  0  2  0  0  0  0  0  0
  189.1360  178.0330  148.2040 C   0  0  0  0  0  1  0  0  0  0  0  0
  2  4  1  0  0  0  0
  2  1  1  1  0  0  0
  3  2  1  0  0  0  0
  5  4  1  0  0  0  0
  6  8  1  6  0  0  0
  6  5  1  0  0  0  0
  7  6  1  0  0  0  0
  7  3  1  0  0  0  0
  9 10  1  0  0  0  0
  9  8  1  0  0  0  0
 12 15  1  6  0  0  0
 12 14  1  0  0  0  0
 12 11  1  0  0  0  0
 13 16  1  6  0  0  0
 13 12  1  0  0  0  0
 13 10  1  0  0  0  0
 13 11  1  0  0  0  0
 17  1  1  0  0  0  0
 17 24  1  0  0  0  0
 18 20  1  0  0  0  0
 18 27  1  0  0  0  0
 19 24  2  0  0  0  0
 19 21  1  0  0  0  0
 20 23  2  0  0  0  0
 21 18  2  0  0  0  0
 22 25  1  1  0  0  0
 23 22  1  0  0  0  0
 24 22  1  0  0  0  0
 25 26  1  0  0  0  0
 27 28  1  0  0  0  0
 28 29  1  0  0  0  0
 29 30  1  0  0  0  0
 30 31  1  0  0  0  0
 31 32  1  0  0  0  0
M  END
>  <MODEL>
3

>  <REMARK>
 VINA RESULT:      -6.7      2.662      6.394
  Name = 
  13 active torsions:
  status: ('A' for Active; 'I' for Inactive)
    1  A    between atoms: C_1  and  N_2
    2  A    between atoms: C_1  and  C_19
    3  A    between atoms: N_2  and  N_12
    4  A    between atoms: C_3  and  C_11
    5  A    between atoms: C_6  and  N_12
    6  A    between atoms: C_11  and  O_25
    7  A    between atoms: C_14  and  N_17
    8  A    between atoms: C_15  and  O_20
    9  A    between atoms: C_16  and  S_18
   10  A    between atoms: C_16  and  C_26
   11  A    between atoms: N_17  and  S_18
   12  A    between atoms: C_19  and  C_23
   13  A    between atoms: O_25  and  C_32
                            x       y       z     vdW  Elec       q    Type
                         _______ _______ _______ _____ _____    ______ ____

>  <TORSDO>
F 13

$$$$
=
 OpenBabel10232408183D

 32 34  0  0  1  0  0  0  0  0999 V2000
  190.6200  176.8020  139.7720 C   0  0  0  0  0  2  0  0  0  0  0  0
  190.0270  177.4460  138.5320 C   0  0  1  0  0  3  0  0  0  0  0  0
  189.5120  176.3620  137.5730 C   0  0  0  0  0  2  0  0  0  0  0  0
  188.9510  178.4650  138.9370 C   0  0  0  0  0  2  0  0  0  0  0  0
  187.5410  177.8990  138.7860 C   0  0  0  0  0  2  0  0  0  0  0  0
  187.2610  177.5050  137.3280 C   0  0  1  0  0  3  0  0  0  0  0  0
  188.4880  176.9380  136.5980 C   0  0  0  0  0  2  0  0  0  0  0  0
  186.1760  176.5400  137.2820 N   0  0  0  0  0  2  0  0  0  0  0  0
  184.7280  177.3980  136.7420 S   0  0  0  0  0  0  0  0  0  0  0  0
  184.0140  177.4120  138.4170 C   0  0  0  0  0  2  0  0  0  0  0  0
  182.4310  178.7910  139.8970 C   0  0  0  0  0  2  0  0  0  0  0  0
  183.0860  179.7740  138.9430 C   0  0  2  0  0  0  0  0  0  0  0  0
  182.8150  178.3480  138.4920 C   0  0  1  0  0  0  0  0  0  0  0  0
  184.3960  180.0860  139.3130 O   0  0  0  0  0  1  0  0  0  0  0  0
  182.1790  180.9140  138.5190 C   0  0  0  0  0  1  0  0  0  0  0  0
  181.6330  178.1210  137.5630 C   0  0  0  0  0  1  0  0  0  0  0  0
  190.8030  177.7790  140.7860 O   0  0  0  0  0  0  0  0  0  0  0  0
  191.5970  176.9820  145.0890 C   0  0  0  0  0  0  0  0  0  0  0  0
  191.3740  178.2690  142.9750 N   0  0  0  0  0  0  0  0  0  0  0  0
  191.5860  175.6470  144.4640 C   0  0  0  0  0  3  0  0  0  0  0  0
  191.5200  178.1350  144.3980 C   0  0  0  0  0  3  0  0  0  0  0  0
  190.0230  176.2530  142.6220 C   0  0  2  0  0  3  0  0  0  0  0  0
  190.9180  175.3140  143.3600 C   0  0  0  0  0  3  0  0  0  0  0  0
  190.7730  177.4660  142.1470 C   0  0  0  0  0  0  0  0  0  0  0  0
  188.9280  176.6240  143.4100 O   0  0  0  0  0  0  0  0  0  0  0  0
  187.9940  177.1470  142.5120 C   0  0  0  0  0  1  0  0  0  0  0  0
  191.8160  177.0280  146.5030 N   0  0  0  0  0  2  0  0  0  0  0  0
  190.9330  176.4500  147.4290 N   0  0  0  0  0  2  0  0  0  0  0  0
  189.5940  176.9080  147.0950 C   0  0  0  0  0  2  0  0  0  0  0  0
  189.1270  177.9570  148.0910 C   0  0  0  0  0  2  0  0  0  0  0  0
  187.6260  178.1830  147.9900 C   0  0  0  0  0  2  0  0  0  0  0  0
  187.1250  177.8340  146.6010 C   0  0  0  0  0  1  0  0  0  0  0  0
  1 17  1  0  0  0  0
  2  4  1  0  0  0  0
  2  1  1  1  0  0  0
  3  2  1  0  0  0  0
  5  4  1  0  0  0  0
  6  8  1  1  0  0  0
  6  5  1  0  0  0  0
  7  6  1  0  0  0  0
  7  3  1  0  0  0  0
  9  8  1  0  0  0  0
  9 10  1  0  0  0  0
 10 13  1  0  0  0  0
 12 15  1  6  0  0  0
 12 14  1  0  0  0  0
 12 11  1  0  0  0  0
 13 16  1  6  0  0  0
 13 12  1  0  0  0  0
 13 11  1  0  0  0  0
 17 24  1  0  0  0  0
 18 27  1  0  0  0  0
 19 21  1  0  0  0  0
 20 18  1  0  0  0  0
 21 18  2  0  0  0  0
 22 23  1  0  0  0  0
 22 25  1  1  0  0  0
 23 20  2  0  0  0  0
 24 22  1  0  0  0  0
 24 19  2  0  0  0  0
 26 25  1  0  0  0  0
 27 28  1  0  0  0  0
 29 28  1  0  0  0  0
 29 30  1  0  0  0  0
 31 30  1  0  0  0  0
 32 31  1  0  0  0  0
M  END
>  <MODEL>
4

>  <REMARK>
 VINA RESULT:      -6.6      2.784      6.829
  Name = 
  13 active torsions:
  status: ('A' for Active; 'I' for Inactive)
    1  A    between atoms: C_1  and  N_2
    2  A    between atoms: C_1  and  C_19
    3  A    between atoms: N_2  and  N_12
    4  A    between atoms: C_3  and  C_11
    5  A    between atoms: C_6  and  N_12
    6  A    between atoms: C_11  and  O_25
    7  A    between atoms: C_14  and  N_17
    8  A    between atoms: C_15  and  O_20
    9  A    between atoms: C_16  and  S_18
   10  A    between atoms: C_16  and  C_26
   11  A    between atoms: N_17  and  S_18
   12  A    between atoms: C_19  and  C_23
   13  A    between atoms: O_25  and  C_32
                            x       y       z     vdW  Elec       q    Type
                         _______ _______ _______ _____ _____    ______ ____

>  <TORSDO>
F 13

$$$$
=
 OpenBabel10232408183D

 32 34  0  0  1  0  0  0  0  0999 V2000
  185.4900  178.5670  142.2720 C   0  0  0  0  0  2  0  0  0  0  0  0
  184.6090  179.0140  141.1190 C   0  0  1  0  0  3  0  0  0  0  0  0
  185.3320  178.7780  139.7840 C   0  0  0  0  0  2  0  0  0  0  0  0
  183.2430  178.3150  141.2060 C   0  0  0  0  0  2  0  0  0  0  0  0
  183.1460  177.1290  140.2500 C   0  0  0  0  0  2  0  0  0  0  0  0
  183.3270  177.5820  138.7930 C   0  0  1  0  0  3  0  0  0  0  0  0
  184.3380  178.7270  138.6270 C   0  0  0  0  0  2  0  0  0  0  0  0
  183.7330  176.4500  137.9770 N   0  0  0  0  0  2  0  0  0  0  0  0
  184.5670  177.0950  136.5580 S   0  0  0  0  0  0  0  0  0  0  0  0
  186.0550  176.0960  136.8790 C   0  0  0  0  0  2  0  0  0  0  0  0
  188.1190  176.9310  138.1590 C   0  0  0  0  0  2  0  0  0  0  0  0
  188.6420  176.2400  136.9120 C   0  0  2  0  0  0  0  0  0  0  0  0
  187.3070  176.9640  136.8720 C   0  0  1  0  0  0  0  0  0  0  0  0
  188.6080  174.8480  137.0180 O   0  0  0  0  0  1  0  0  0  0  0  0
  189.8950  176.8760  136.3370 C   0  0  0  0  0  1  0  0  0  0  0  0
  187.2670  178.3230  136.1930 C   0  0  0  0  0  1  0  0  0  0  0  0
  186.7900  178.2520  141.7960 O   0  0  0  0  0  0  0  0  0  0  0  0
  189.6130  177.3890  145.1210 C   0  0  0  0  0  0  0  0  0  0  0  0
  187.5010  177.3680  143.8130 N   0  0  0  0  0  0  0  0  0  0  0  0
  190.2570  178.4800  144.3680 C   0  0  0  0  0  3  0  0  0  0  0  0
  188.3760  176.9270  144.8640 C   0  0  0  0  0  3  0  0  0  0  0  0
  189.2470  177.8870  142.1700 C   0  0  2  0  0  3  0  0  0  0  0  0
  190.0860  178.7310  143.0700 C   0  0  0  0  0  3  0  0  0  0  0  0
  187.8200  177.8340  142.6410 C   0  0  0  0  0  0  0  0  0  0  0  0
  189.7790  176.5990  142.0530 O   0  0  0  0  0  0  0  0  0  0  0  0
  190.5780  176.6370  140.9080 C   0  0  0  0  0  1  0  0  0  0  0  0
  190.3240  176.8870  146.2590 N   0  0  0  0  0  2  0  0  0  0  0  0
  189.6940  176.5840  147.4770 N   0  0  0  0  0  2  0  0  0  0  0  0
  189.2960  177.8450  148.0840 C   0  0  0  0  0  2  0  0  0  0  0  0
  187.8160  177.8240  148.4300 C   0  0  0  0  0  2  0  0  0  0  0  0
  187.0800  178.9790  147.7680 C   0  0  0  0  0  2  0  0  0  0  0  0
  185.8550  178.4780  147.0270 C   0  0  0  0  0  1  0  0  0  0  0  0
  2  4  1  0  0  0  0
  2  1  1  1  0  0  0
  3  2  1  0  0  0  0
  5  4  1  0  0  0  0
  6  8  1  6  0  0  0
  6  5  1  0  0  0  0
  7  6  1  0  0  0  0
  7  3  1  0  0  0  0
  9 10  1  0  0  0  0
  9  8  1  0  0  0  0
 12 15  1  6  0  0  0
 12 14  1  0  0  0  0
 12 11  1  0  0  0  0
 13 16  1  6  0  0  0
 13 10  1  0  0  0  0
 13 12  1  0  0  0  0
 13 11  1  0  0  0  0
 17  1  1  0  0  0  0
 17 24  1  0  0  0  0
 18 27  1  0  0  0  0
 19 21  1  0  0  0  0
 20 18  1  0  0  0  0
 21 18  2  0  0  0  0
 22 25  1  1  0  0  0
 22 24  1  0  0  0  0
 22 23  1  0  0  0  0
 23 20  2  0  0  0  0
 24 19  2  0  0  0  0
 26 25  1  0  0  0  0
 27 28  1  0  0  0  0
 28 29  1  0  0  0  0
 29 30  1  0  0  0  0
 31 30  1  0  0  0  0
 32 31  1  0  0  0  0
M  END
>  <MODEL>
5

>  <REMARK>
 VINA RESULT:      -6.4      2.629      6.436
  Name = 
  13 active torsions:
  status: ('A' for Active; 'I' for Inactive)
    1  A    between atoms: C_1  and  N_2
    2  A    between atoms: C_1  and  C_19
    3  A    between atoms: N_2  and  N_12
    4  A    between atoms: C_3  and  C_11
    5  A    between atoms: C_6  and  N_12
    6  A    between atoms: C_11  and  O_25
    7  A    between atoms: C_14  and  N_17
    8  A    between atoms: C_15  and  O_20
    9  A    between atoms: C_16  and  S_18
   10  A    between atoms: C_16  and  C_26
   11  A    between atoms: N_17  and  S_18
   12  A    between atoms: C_19  and  C_23
   13  A    between atoms: O_25  and  C_32
                            x       y       z     vdW  Elec       q    Type
                         _______ _______ _______ _____ _____    ______ ____

>  <TORSDO>
F 13

$$$$
=
 OpenBabel10232408183D

 32 34  0  0  1  0  0  0  0  0999 V2000
  185.3300  179.0110  141.5990 C   0  0  0  0  0  2  0  0  0  0  0  0
  184.4650  179.1490  140.3580 C   0  0  1  0  0  3  0  0  0  0  0  0
  185.2060  178.5830  139.1370 C   0  0  0  0  0  2  0  0  0  0  0  0
  183.0970  178.4940  140.6010 C   0  0  0  0  0  2  0  0  0  0  0  0
  183.0100  177.1030  139.9760 C   0  0  0  0  0  2  0  0  0  0  0  0
  183.2120  177.1710  138.4550 C   0  0  1  0  0  3  0  0  0  0  0  0
  184.2280  178.2380  138.0170 C   0  0  0  0  0  2  0  0  0  0  0  0
  183.6270  175.8700  137.9590 N   0  0  0  0  0  2  0  0  0  0  0  0
  184.5060  176.1360  136.4490 S   0  0  0  0  0  0  0  0  0  0  0  0
  185.9590  175.2090  137.0380 C   0  0  0  0  0  2  0  0  0  0  0  0
  187.1090  172.9260  136.7910 C   0  0  0  0  0  2  0  0  0  0  0  0
  185.6200  172.6740  136.6270 C   0  0  2  0  0  0  0  0  0  0  0  0
  186.2190  173.9900  136.1620 C   0  0  1  0  0  0  0  0  0  0  0  0
  184.9400  172.6790  137.8470 O   0  0  0  0  0  1  0  0  0  0  0  0
  185.2910  171.5710  135.6370 C   0  0  0  0  0  1  0  0  0  0  0  0
  186.4270  174.1760  134.6690 C   0  0  0  0  0  1  0  0  0  0  0  0
  186.6720  178.7350  141.2270 O   0  0  0  0  0  0  0  0  0  0  0  0
  190.2000  177.1080  143.3910 C   0  0  0  0  0  0  0  0  0  0  0  0
  188.8680  178.6330  141.9500 N   0  0  0  0  0  0  0  0  0  0  0  0
  189.2220  176.0060  143.4040 C   0  0  0  0  0  3  0  0  0  0  0  0
  190.0240  178.2610  142.7190 C   0  0  0  0  0  3  0  0  0  0  0  0
  187.2070  177.4680  143.3290 C   0  0  2  0  0  3  0  0  0  0  0  0
  187.8970  176.1450  143.3510 C   0  0  0  0  0  3  0  0  0  0  0  0
  187.6280  178.2870  142.1410 C   0  0  0  0  0  0  0  0  0  0  0  0
  187.4300  178.1690  144.5190 O   0  0  0  0  0  0  0  0  0  0  0  0
  186.2320  178.0690  145.2310 C   0  0  0  0  0  1  0  0  0  0  0  0
  191.4490  176.8670  144.0470 N   0  0  0  0  0  2  0  0  0  0  0  0
  191.7950  177.4650  145.2700 N   0  0  0  0  0  2  0  0  0  0  0  0
  191.7720  176.4230  146.2840 C   0  0  0  0  0  2  0  0  0  0  0  0
  190.9360  176.8600  147.4760 C   0  0  0  0  0  2  0  0  0  0  0  0
  189.4560  176.8990  147.1260 C   0  0  0  0  0  2  0  0  0  0  0  0
  188.7050  177.8150  148.0740 C   0  0  0  0  0  1  0  0  0  0  0  0
  2  4  1  0  0  0  0
  2  1  1  1  0  0  0
  3  2  1  0  0  0  0
  5  4  1  0  0  0  0
  6  8  1  1  0  0  0
  6  5  1  0  0  0  0
  7  6  1  0  0  0  0
  7  3  1  0  0  0  0
  9 10  1  0  0  0  0
  9  8  1  0  0  0  0
 12 15  1  6  0  0  0
 12 11  1  0  0  0  0
 12 14  1  0  0  0  0
 13 16  1  6  0  0  0
 13 12  1  0  0  0  0
 13 11  1  0  0  0  0
 13 10  1  0  0  0  0
 17  1  1  0  0  0  0
 17 24  1  0  0  0  0
 18 20  1  0  0  0  0
 18 27  1  0  0  0  0
 19 24  2  0  0  0  0
 19 21  1  0  0  0  0
 21 18  2  0  0  0  0
 22 23  1  0  0  0  0
 22 25  1  1  0  0  0
 23 20  2  0  0  0  0
 24 22  1  0  0  0  0
 25 26  1  0  0  0  0
 27 28  1  0  0  0  0
 28 29  1  0  0  0  0
 29 30  1  0  0  0  0
 31 30  1  0  0  0  0
 31 32  1  0  0  0  0
M  END
>  <MODEL>
6

>  <REMARK>
 VINA RESULT:      -6.3      3.214      6.972
  Name = 
  13 active torsions:
  status: ('A' for Active; 'I' for Inactive)
    1  A    between atoms: C_1  and  N_2
    2  A    between atoms: C_1  and  C_19
    3  A    between atoms: N_2  and  N_12
    4  A    between atoms: C_3  and  C_11
    5  A    between atoms: C_6  and  N_12
    6  A    between atoms: C_11  and  O_25
    7  A    between atoms: C_14  and  N_17
    8  A    between atoms: C_15  and  O_20
    9  A    between atoms: C_16  and  S_18
   10  A    between atoms: C_16  and  C_26
   11  A    between atoms: N_17  and  S_18
   12  A    between atoms: C_19  and  C_23
   13  A    between atoms: O_25  and  C_32
                            x       y       z     vdW  Elec       q    Type
                         _______ _______ _______ _____ _____    ______ ____

>  <TORSDO>
F 13

$$$$
=
 OpenBabel10232408183D

 32 34  0  0  1  0  0  0  0  0999 V2000
  182.6240  178.5310  144.0340 C   0  0  0  0  0  2  0  0  0  0  0  0
  183.8750  179.2110  144.5590 C   0  0  1  0  0  3  0  0  0  0  0  0
  184.1990  178.6970  145.9710 C   0  0  0  0  0  2  0  0  0  0  0  0
  185.0280  179.0210  143.5610 C   0  0  0  0  0  2  0  0  0  0  0  0
  185.9790  177.9070  143.9910 C   0  0  0  0  0  2  0  0  0  0  0  0
  186.6120  178.2200  145.3540 C   0  0  1  0  0  3  0  0  0  0  0  0
  185.6640  178.9470  146.3200 C   0  0  0  0  0  2  0  0  0  0  0  0
  187.0860  176.9910  145.9680 N   0  0  0  0  0  2  0  0  0  0  0  0
  188.7210  177.2950  146.5660 S   0  0  0  0  0  0  0  0  0  0  0  0
  189.2230  178.1090  145.0170 C   0  0  0  0  0  2  0  0  0  0  0  0
  191.2200  177.7370  143.4460 C   0  0  0  0  0  2  0  0  0  0  0  0
  191.3760  176.7370  144.5780 C   0  0  2  0  0  0  0  0  0  0  0  0
  189.9870  177.1470  144.1170 C   0  0  1  0  0  0  0  0  0  0  0  0
  191.8580  177.3260  145.7490 O   0  0  0  0  0  1  0  0  0  0  0  0
  191.9840  175.4130  144.1490 C   0  0  0  0  0  1  0  0  0  0  0  0
  189.2170  176.1620  143.2550 C   0  0  0  0  0  1  0  0  0  0  0  0
  182.0410  179.3150  143.0030 O   0  0  0  0  0  0  0  0  0  0  0  0
  180.6700  177.0900  139.4050 C   0  0  0  0  0  0  0  0  0  0  0  0
  180.5390  178.5220  141.4320 N   0  0  0  0  0  0  0  0  0  0  0  0
  182.0200  176.5620  139.6700 C   0  0  0  0  0  3  0  0  0  0  0  0
  180.0260  177.9480  140.2180 C   0  0  0  0  0  3  0  0  0  0  0  0
  182.8880  178.6380  140.7380 C   0  0  2  0  0  3  0  0  0  0  0  0
  183.0040  177.2220  140.2800 C   0  0  0  0  0  3  0  0  0  0  0  0
  181.7720  178.8050  141.7310 C   0  0  0  0  0  0  0  0  0  0  0  0
  182.7170  179.5020  139.6510 O   0  0  0  0  0  0  0  0  0  0  0  0
  183.9680  179.5630  139.0330 C   0  0  0  0  0  1  0  0  0  0  0  0
  179.9820  176.5550  138.2690 N   0  0  0  0  0  2  0  0  0  0  0  0
  180.6410  176.1830  137.0860 N   0  0  0  0  0  2  0  0  0  0  0  0
  180.7630  177.3780  136.2650 C   0  0  0  0  0  2  0  0  0  0  0  0
  182.2110  177.5970  135.8580 C   0  0  0  0  0  2  0  0  0  0  0  0
  183.0790  176.4130  136.2560 C   0  0  0  0  0  2  0  0  0  0  0  0
  184.5120  176.8540  136.4900 C   0  0  0  0  0  1  0  0  0  0  0  0
  2  1  1  6  0  0  0
  2  3  1  0  0  0  0
  3  7  1  0  0  0  0
  4  5  1  0  0  0  0
  4  2  1  0  0  0  0
  5  6  1  0  0  0  0
  6  8  1  1  0  0  0
  6  7  1  0  0  0  0
  8  9  1  0  0  0  0
 10  9  1  0  0  0  0
 11 13  1  0  0  0  0
 11 12  1  0  0  0  0
 12 15  1  6  0  0  0
 12 14  1  0  0  0  0
 13 16  1  6  0  0  0
 13 12  1  0  0  0  0
 13 10  1  0  0  0  0
 17  1  1  0  0  0  0
 18 20  1  0  0  0  0
 18 21  2  0  0  0  0
 19 24  2  0  0  0  0
 20 23  2  0  0  0  0
 21 19  1  0  0  0  0
 22 25  1  6  0  0  0
 22 24  1  0  0  0  0
 23 22  1  0  0  0  0
 24 17  1  0  0  0  0
 26 25  1  0  0  0  0
 27 18  1  0  0  0  0
 28 27  1  0  0  0  0
 29 28  1  0  0  0  0
 30 31  1  0  0  0  0
 30 29  1  0  0  0  0
 31 32  1  0  0  0  0
M  END
>  <MODEL>
7

>  <REMARK>
 VINA RESULT:      -6.2      3.397      6.766
  Name = 
  13 active torsions:
  status: ('A' for Active; 'I' for Inactive)
    1  A    between atoms: C_1  and  N_2
    2  A    between atoms: C_1  and  C_19
    3  A    between atoms: N_2  and  N_12
    4  A    between atoms: C_3  and  C_11
    5  A    between atoms: C_6  and  N_12
    6  A    between atoms: C_11  and  O_25
    7  A    between atoms: C_14  and  N_17
    8  A    between atoms: C_15  and  O_20
    9  A    between atoms: C_16  and  S_18
   10  A    between atoms: C_16  and  C_26
   11  A    between atoms: N_17  and  S_18
   12  A    between atoms: C_19  and  C_23
   13  A    between atoms: O_25  and  C_32
                            x       y       z     vdW  Elec       q    Type
                         _______ _______ _______ _____ _____    ______ ____

>  <TORSDO>
F 13

$$$$
=
 OpenBabel10232408183D

 32 34  0  0  1  0  0  0  0  0999 V2000
  190.2110  176.5290  139.0470 C   0  0  0  0  0  2  0  0  0  0  0  0
  190.0300  177.5310  137.9210 C   0  0  1  0  0  3  0  0  0  0  0  0
  189.6750  176.7970  136.6180 C   0  0  0  0  0  2  0  0  0  0  0  0
  188.9930  178.5890  138.3270 C   0  0  0  0  0  2  0  0  0  0  0  0
  187.6220  178.3120  137.7160 C   0  0  0  0  0  2  0  0  0  0  0  0
  187.6930  178.3180  136.1820 C   0  0  1  0  0  3  0  0  0  0  0  0
  189.0040  177.7420  135.6250 C   0  0  0  0  0  2  0  0  0  0  0  0
  186.5660  177.5800  135.6370 N   0  0  0  0  0  2  0  0  0  0  0  0
  185.9540  176.5290  136.9200 S   0  0  0  0  0  0  0  0  0  0  0  0
  185.4950  175.2210  135.7390 C   0  0  0  0  0  2  0  0  0  0  0  0
  185.9970  172.7490  135.2540 C   0  0  0  0  0  2  0  0  0  0  0  0
  187.2030  173.2900  136.0020 C   0  0  2  0  0  0  0  0  0  0  0  0
  185.8190  173.8420  136.2990 C   0  0  1  0  0  0  0  0  0  0  0  0
  188.0350  174.0630  135.1880 O   0  0  0  0  0  1  0  0  0  0  0  0
  187.8570  172.2780  136.9250 C   0  0  0  0  0  1  0  0  0  0  0  0
  185.1410  173.3790  137.5780 C   0  0  0  0  0  1  0  0  0  0  0  0
  191.0400  177.0810  140.0590 O   0  0  0  0  0  0  0  0  0  0  0  0
  190.2510  177.4240  144.4210 C   0  0  0  0  0  0  0  0  0  0  0  0
  191.4440  177.6820  142.2570 N   0  0  0  0  0  0  0  0  0  0  0  0
  189.2860  176.4140  143.9530 C   0  0  0  0  0  3  0  0  0  0  0  0
  191.2140  177.9580  143.6490 C   0  0  0  0  0  3  0  0  0  0  0  0
  189.1000  177.3100  141.6360 C   0  0  2  0  0  3  0  0  0  0  0  0
  188.7870  176.3320  142.7200 C   0  0  0  0  0  3  0  0  0  0  0  0
  190.5740  177.3550  141.3460 C   0  0  0  0  0  0  0  0  0  0  0  0
  188.6190  178.5840  141.9590 O   0  0  0  0  0  0  0  0  0  0  0  0
  187.2650  178.5600  141.6160 C   0  0  0  0  0  1  0  0  0  0  0  0
  190.2090  177.7560  145.8140 N   0  0  0  0  0  2  0  0  0  0  0  0
  189.8890  176.8190  146.8100 N   0  0  0  0  0  2  0  0  0  0  0  0
  189.0440  177.4930  147.7830 C   0  0  0  0  0  2  0  0  0  0  0  0
  188.0500  178.4050  147.0820 C   0  0  0  0  0  2  0  0  0  0  0  0
  186.7810  177.6520  146.7110 C   0  0  0  0  0  2  0  0  0  0  0  0
  186.3220  178.0320  145.3160 C   0  0  0  0  0  1  0  0  0  0  0  0
  1 17  1  0  0  0  0
  2  4  1  0  0  0  0
  2  1  1  1  0  0  0
  3  2  1  0  0  0  0
  5  4  1  0  0  0  0
  6  8  1  6  0  0  0
  6  5  1  0  0  0  0
  7  6  1  0  0  0  0
  7  3  1  0  0  0  0
  8  9  1  0  0  0  0
 10 13  1  0  0  0  0
 10  9  1  0  0  0  0
 11 12  1  0  0  0  0
 11 13  1  0  0  0  0
 12 13  1  0  0  0  0
 12 15  1  1  0  0  0
 13 16  1  1  0  0  0
 14 12  1  0  0  0  0
 17 24  1  0  0  0  0
 18 27  1  0  0  0  0
 19 21  1  0  0  0  0
 20 18  1  0  0  0  0
 21 18  2  0  0  0  0
 22 25  1  1  0  0  0
 22 23  1  0  0  0  0
 23 20  2  0  0  0  0
 24 22  1  0  0  0  0
 24 19  2  0  0  0  0
 26 25  1  0  0  0  0
 27 28  1  0  0  0  0
 28 29  1  0  0  0  0
 30 29  1  0  0  0  0
 31 30  1  0  0  0  0
 32 31  1  0  0  0  0
M  END
>  <MODEL>
8

>  <REMARK>
 VINA RESULT:      -6.2      3.220      6.252
  Name = 
  13 active torsions:
  status: ('A' for Active; 'I' for Inactive)
    1  A    between atoms: C_1  and  N_2
    2  A    between atoms: C_1  and  C_19
    3  A    between atoms: N_2  and  N_12
    4  A    between atoms: C_3  and  C_11
    5  A    between atoms: C_6  and  N_12
    6  A    between atoms: C_11  and  O_25
    7  A    between atoms: C_14  and  N_17
    8  A    between atoms: C_15  and  O_20
    9  A    between atoms: C_16  and  S_18
   10  A    between atoms: C_16  and  C_26
   11  A    between atoms: N_17  and  S_18
   12  A    between atoms: C_19  and  C_23
   13  A    between atoms: O_25  and  C_32
                            x       y       z     vdW  Elec       q    Type
                         _______ _______ _______ _____ _____    ______ ____

>  <TORSDO>
F 13

$$$$
=
 OpenBabel10232408183D

 32 34  0  0  1  0  0  0  0  0999 V2000
  189.5680  178.1300  139.4890 C   0  0  0  0  0  2  0  0  0  0  0  0
  189.6920  177.6970  138.0390 C   0  0  1  0  0  3  0  0  0  0  0  0
  189.2510  176.2320  137.8900 C   0  0  0  0  0  2  0  0  0  0  0  0
  188.9100  178.6640  137.1380 C   0  0  0  0  0  2  0  0  0  0  0  0
  187.5490  178.1000  136.7370 C   0  0  0  0  0  2  0  0  0  0  0  0
  187.7080  176.7870  135.9560 C   0  0  1  0  0  3  0  0  0  0  0  0
  188.8780  175.9190  136.4440 C   0  0  0  0  0  2  0  0  0  0  0  0
  186.4720  176.0250  136.0250 N   0  0  0  0  0  2  0  0  0  0  0  0
  185.1350  177.1740  135.8930 S   0  0  0  0  0  0  0  0  0  0  0  0
  184.3600  176.5710  137.4270 C   0  0  0  0  0  2  0  0  0  0  0  0
  183.0220  177.4850  139.4190 C   0  0  0  0  0  2  0  0  0  0  0  0
  183.7780  178.6660  138.8360 C   0  0  2  0  0  0  0  0  0  0  0  0
  183.3020  177.5470  137.9240 C   0  0  1  0  0  0  0  0  0  0  0  0
  185.1280  178.6650  139.1930 O   0  0  0  0  0  1  0  0  0  0  0  0
  183.0230  179.9800  138.9210 C   0  0  0  0  0  1  0  0  0  0  0  0
  182.0750  177.8160  137.0680 C   0  0  0  0  0  1  0  0  0  0  0  0
  190.2090  177.1860  140.3340 O   0  0  0  0  0  0  0  0  0  0  0  0
  188.6170  177.4350  144.4790 C   0  0  0  0  0  0  0  0  0  0  0  0
  188.6260  177.0830  142.0190 N   0  0  0  0  0  0  0  0  0  0  0  0
  189.9290  178.1030  144.5490 C   0  0  0  0  0  3  0  0  0  0  0  0
  188.0520  177.0080  143.3350 C   0  0  0  0  0  3  0  0  0  0  0  0
  190.9660  176.8000  142.6980 C   0  0  2  0  0  3  0  0  0  0  0  0
  190.9690  177.8540  143.7540 C   0  0  0  0  0  3  0  0  0  0  0  0
  189.8820  177.0410  141.6840 C   0  0  0  0  0  0  0  0  0  0  0  0
  190.8410  175.5260  143.2630 O   0  0  0  0  0  0  0  0  0  0  0  0
  191.9040  175.4210  144.1640 C   0  0  0  0  0  1  0  0  0  0  0  0
  187.8730  177.3500  145.6990 N   0  0  0  0  0  2  0  0  0  0  0  0
  187.0570  178.3920  146.1670 N   0  0  0  0  0  2  0  0  0  0  0  0
  185.7240  177.8440  146.3630 C   0  0  0  0  0  2  0  0  0  0  0  0
  184.6840  178.7230  145.6860 C   0  0  0  0  0  2  0  0  0  0  0  0
  184.9670  178.8620  144.1980 C   0  0  0  0  0  2  0  0  0  0  0  0
  183.6770  178.8180  143.4010 C   0  0  0  0  0  1  0  0  0  0  0  0
  1 17  1  0  0  0  0
  2  1  1  1  0  0  0
  3  2  1  0  0  0  0
  4  2  1  0  0  0  0
  5  4  1  0  0  0  0
  6  8  1  1  0  0  0
  6  7  1  0  0  0  0
  6  5  1  0  0  0  0
  7  3  1  0  0  0  0
  9  8  1  0  0  0  0
  9 10  1  0  0  0  0
 10 13  1  0  0  0  0
 12 15  1  6  0  0  0
 12 14  1  0  0  0  0
 12 11  1  0  0  0  0
 13 16  1  6  0  0  0
 13 12  1  0  0  0  0
 13 11  1  0  0  0  0
 17 24  1  0  0  0  0
 18 20  1  0  0  0  0
 18 27  1  0  0  0  0
 19 21  1  0  0  0  0
 21 18  2  0  0  0  0
 22 25  1  1  0  0  0
 22 23  1  0  0  0  0
 23 20  2  0  0  0  0
 24 19  2  0  0  0  0
 24 22  1  0  0  0  0
 25 26  1  0  0  0  0
 27 28  1  0  0  0  0
 28 29  1  0  0  0  0
 30 29  1  0  0  0  0
 31 30  1  0  0  0  0
 32 31  1  0  0  0  0
M  END
>  <MODEL>
9

>  <REMARK>
 VINA RESULT:      -6.2      2.332      6.384
  Name = 
  13 active torsions:
  status: ('A' for Active; 'I' for Inactive)
    1  A    between atoms: C_1  and  N_2
    2  A    between atoms: C_1  and  C_19
    3  A    between atoms: N_2  and  N_12
    4  A    between atoms: C_3  and  C_11
    5  A    between atoms: C_6  and  N_12
    6  A    between atoms: C_11  and  O_25
    7  A    between atoms: C_14  and  N_17
    8  A    between atoms: C_15  and  O_20
    9  A    between atoms: C_16  and  S_18
   10  A    between atoms: C_16  and  C_26
   11  A    between atoms: N_17  and  S_18
   12  A    between atoms: C_19  and  C_23
   13  A    between atoms: O_25  and  C_32
                            x       y       z     vdW  Elec       q    Type
                         _______ _______ _______ _____ _____    ______ ____

>  <TORSDO>
F 13

$$$$
