=
 OpenBabel10232408363D

 28 32  0  0  1  0  0  0  0  0999 V2000
  185.7760  178.7060  142.9190 C   0  0  0  0  0  0  0  0  0  0  0  0
  186.8650  178.3700  140.3510 C   0  0  0  0  0  3  0  0  0  0  0  0
  192.0440  176.2470  145.6640 N   0  0  0  0  0  0  0  0  0  0  0  0
  190.2930  176.8010  147.1970 C   0  0  0  0  0  3  0  0  0  0  0  0
  187.6430  178.1150  141.4790 C   0  0  0  0  0  3  0  0  0  0  0  0
  185.5310  178.7700  140.4890 C   0  0  0  0  0  0  0  0  0  0  0  0
  187.4020  178.0300  145.2430 C   0  0  0  0  0  0  0  0  0  0  0  0
  191.2770  176.6130  144.6010 C   0  0  0  0  0  3  0  0  0  0  0  0
  187.1090  178.2710  142.7630 C   0  0  0  0  0  0  0  0  0  0  0  0
  189.4880  177.1800  146.1230 C   0  0  0  0  0  0  0  0  0  0  0  0
  189.2000  177.4550  143.7620 N   0  0  0  0  0  0  0  0  0  0  0  0
  189.9810  177.0880  144.8110 C   0  0  0  0  0  0  0  0  0  0  0  0
  185.1900  178.8960  144.3010 C   0  0  2  0  0  0  0  0  0  0  0  0
  191.5860  176.3300  146.9430 C   0  0  0  0  0  0  0  0  0  0  0  0
  184.1700  179.9900  144.5580 C   0  0  0  0  0  1  0  0  0  0  0  0
  188.1960  177.6560  146.3310 C   0  0  0  0  0  3  0  0  0  0  0  0
  186.0340  178.5810  145.5310 C   0  0  1  0  0  3  0  0  0  0  0  0
  192.4220  175.9380  148.0240 N   0  0  0  0  0  1  0  0  0  0  0  0
  187.9300  177.9240  143.9390 C   0  0  0  0  0  0  0  0  0  0  0  0
  184.9470  177.6140  145.0680 C   0  0  0  0  0  2  0  0  0  0  0  0
  183.6820  179.2870  141.8880 F   0  0  0  0  0  0  0  0  0  0  0  0
  184.9860  178.9270  141.7700 C   0  0  0  0  0  0  0  0  0  0  0  0
  184.7070  179.0200  139.3390 N   0  0  0  0  0  2  0  0  0  0  0  0
  183.4100  176.9710  139.6530 C   0  0  0  0  0  1  0  0  0  0  0  0
  183.8230  178.0610  138.6770 C   0  0  0  0  0  0  0  0  0  0  0  0
  182.5900  178.7700  138.1410 C   0  0  0  0  0  1  0  0  0  0  0  0
  184.5830  177.4320  137.5170 C   0  0  0  0  0  2  0  0  0  0  0  0
  185.7320  178.1480  137.2230 F   0  0  0  0  0  0  0  0  0  0  0  0
  1 13  1  0  0  0  0
  2  6  2  0  0  0  0
  2  5  1  0  0  0  0
  3 14  1  0  0  0  0
  5  9  2  0  0  0  0
  6 22  1  0  0  0  0
  7 17  1  0  0  0  0
  7 16  1  0  0  0  0
  8 12  1  0  0  0  0
  8  3  2  0  0  0  0
  9  1  1  0  0  0  0
  9 19  1  0  0  0  0
 10 16  2  0  0  0  0
 10  4  1  0  0  0  0
 11 19  1  0  0  0  0
 11 12  2  0  0  0  0
 12 10  1  0  0  0  0
 13 15  1  1  0  0  0
 13 20  1  0  0  0  0
 13 17  1  0  0  0  0
 14  4  2  0  0  0  0
 14 18  1  0  0  0  0
 17 20  1  1  0  0  0
 19  7  2  0  0  0  0
 22 21  1  0  0  0  0
 22  1  2  0  0  0  0
 23  6  1  0  0  0  0
 25 23  1  0  0  0  0
 25 24  1  0  0  0  0
 26 25  1  0  0  0  0
 27 25  1  0  0  0  0
 28 27  1  0  0  0  0
M  END
>  <MODEL>
1

>  <REMARK>
 VINA RESULT:      -8.7      0.000      0.000
  Name = 
  3 active torsions:
  status: ('A' for Active; 'I' for Inactive)
    1  A    between atoms: N_3  and  C_7
    2  A    between atoms: N_3  and  C_11
    3  A    between atoms: C_11  and  C_21
                            x       y       z     vdW  Elec       q    Type
                         _______ _______ _______ _____ _____    ______ ____

>  <TORSDO>
F 3

$$$$
=
 OpenBabel10232408363D

 28 32  0  0  1  0  0  0  0  0999 V2000
  188.0220  177.7920  140.9190 C   0  0  0  0  0  0  0  0  0  0  0  0
  185.6930  178.9020  142.0300 C   0  0  0  0  0  3  0  0  0  0  0  0
  190.5390  176.8550  147.6770 N   0  0  0  0  0  0  0  0  0  0  0  0
  191.9530  176.2100  145.8580 C   0  0  0  0  0  3  0  0  0  0  0  0
  186.6890  178.3940  142.8610 C   0  0  0  0  0  3  0  0  0  0  0  0
  185.8550  178.8850  140.6400 C   0  0  0  0  0  0  0  0  0  0  0  0
  190.1360  176.8670  142.7020 C   0  0  0  0  0  0  0  0  0  0  0  0
  189.5530  177.2370  146.8200 C   0  0  0  0  0  3  0  0  0  0  0  0
  187.8580  177.8460  142.3200 C   0  0  0  0  0  0  0  0  0  0  0  0
  190.9570  176.5970  144.9610 C   0  0  0  0  0  0  0  0  0  0  0  0
  188.7710  177.4930  144.5730 N   0  0  0  0  0  0  0  0  0  0  0  0
  189.7420  177.1140  145.4430 C   0  0  0  0  0  0  0  0  0  0  0  0
  189.2730  177.1870  140.3190 C   0  0  2  0  0  0  0  0  0  0  0  0
  191.7210  176.3500  147.2300 C   0  0  0  0  0  0  0  0  0  0  0  0
  189.2060  176.4390  139.0000 C   0  0  0  0  0  1  0  0  0  0  0  0
  191.1440  176.4730  143.5870 C   0  0  0  0  0  3  0  0  0  0  0  0
  190.3760  176.6660  141.2320 C   0  0  1  0  0  3  0  0  0  0  0  0
  192.7240  175.9630  148.1610 N   0  0  0  0  0  1  0  0  0  0  0  0
  188.9300  177.3830  143.2220 C   0  0  0  0  0  0  0  0  0  0  0  0
  190.5310  178.0050  140.5160 C   0  0  0  0  0  2  0  0  0  0  0  0
  187.1800  178.3600  138.7390 F   0  0  0  0  0  0  0  0  0  0  0  0
  187.0230  178.3420  140.0880 C   0  0  0  0  0  0  0  0  0  0  0  0
  184.8480  179.4210  139.7670 N   0  0  0  0  0  2  0  0  0  0  0  0
  184.0600  177.9660  137.9660 C   0  0  0  0  0  1  0  0  0  0  0  0
  183.6850  178.7080  139.2390 C   0  0  0  0  0  0  0  0  0  0  0  0
  183.1610  177.7250  140.2740 C   0  0  0  0  0  1  0  0  0  0  0  0
  182.6010  179.7280  138.9240 C   0  0  0  0  0  2  0  0  0  0  0  0
  183.1430  180.9850  138.7040 F   0  0  0  0  0  0  0  0  0  0  0  0
  1  9  1  0  0  0  0
  2  5  1  0  0  0  0
  4 14  2  0  0  0  0
  6  2  2  0  0  0  0
  7 19  2  0  0  0  0
  7 16  1  0  0  0  0
  8  3  2  0  0  0  0
  9  5  2  0  0  0  0
  9 19  1  0  0  0  0
 10 12  1  0  0  0  0
 10  4  1  0  0  0  0
 11 12  2  0  0  0  0
 12  8  1  0  0  0  0
 13 15  1  6  0  0  0
 13 20  1  0  0  0  0
 13  1  1  0  0  0  0
 13 17  1  0  0  0  0
 14  3  1  0  0  0  0
 14 18  1  0  0  0  0
 16 10  2  0  0  0  0
 17 20  1  6  0  0  0
 17  7  1  0  0  0  0
 19 11  1  0  0  0  0
 21 22  1  0  0  0  0
 22  6  1  0  0  0  0
 22  1  2  0  0  0  0
 23  6  1  0  0  0  0
 24 25  1  0  0  0  0
 25 23  1  0  0  0  0
 25 26  1  0  0  0  0
 27 25  1  0  0  0  0
 28 27  1  0  0  0  0
M  END
>  <MODEL>
2

>  <REMARK>
 VINA RESULT:      -8.6      1.638      3.512
  Name = 
  3 active torsions:
  status: ('A' for Active; 'I' for Inactive)
    1  A    between atoms: N_3  and  C_7
    2  A    between atoms: N_3  and  C_11
    3  A    between atoms: C_11  and  C_21
                            x       y       z     vdW  Elec       q    Type
                         _______ _______ _______ _____ _____    ______ ____

>  <TORSDO>
F 3

$$$$
=
 OpenBabel10232408363D

 28 32  0  0  1  0  0  0  0  0999 V2000
  186.6460  178.2470  141.3430 C   0  0  0  0  0  0  0  0  0  0  0  0
  184.2270  178.5160  142.7460 C   0  0  0  0  0  3  0  0  0  0  0  0
  189.9210  176.8590  147.6850 N   0  0  0  0  0  0  0  0  0  0  0  0
  191.2780  176.9160  145.7150 C   0  0  0  0  0  3  0  0  0  0  0  0
  185.3890  178.1480  143.4210 C   0  0  0  0  0  3  0  0  0  0  0  0
  184.2610  178.7780  141.3720 C   0  0  0  0  0  0  0  0  0  0  0  0
  189.0750  177.6080  142.8240 C   0  0  0  0  0  0  0  0  0  0  0  0
  188.7970  177.1130  146.9610 C   0  0  0  0  0  3  0  0  0  0  0  0
  186.6020  178.0190  142.7350 C   0  0  0  0  0  0  0  0  0  0  0  0
  190.1390  177.1800  144.9530 C   0  0  0  0  0  0  0  0  0  0  0  0
  187.7750  177.5370  144.8390 N   0  0  0  0  0  0  0  0  0  0  0  0
  188.8850  177.2780  145.5770 C   0  0  0  0  0  0  0  0  0  0  0  0
  187.9460  178.0950  140.5840 C   0  0  2  0  0  0  0  0  0  0  0  0
  191.1450  176.7570  147.0990 C   0  0  0  0  0  0  0  0  0  0  0  0
  187.9440  177.5890  139.1530 C   0  0  0  0  0  1  0  0  0  0  0  0
  190.2260  177.3430  143.5730 C   0  0  0  0  0  3  0  0  0  0  0  0
  189.2220  177.7280  141.3330 C   0  0  1  0  0  3  0  0  0  0  0  0
  192.2930  176.4890  147.8940 N   0  0  0  0  0  1  0  0  0  0  0  0
  187.8320  177.7010  143.4850 C   0  0  0  0  0  0  0  0  0  0  0  0
  188.9780  179.1630  140.8730 C   0  0  0  0  0  2  0  0  0  0  0  0
  185.4950  178.9400  139.3480 F   0  0  0  0  0  0  0  0  0  0  0  0
  185.4710  178.6540  140.6760 C   0  0  0  0  0  0  0  0  0  0  0  0
  183.0780  179.1760  140.6610 N   0  0  0  0  0  2  0  0  0  0  0  0
  181.5660  178.8370  138.7690 C   0  0  0  0  0  1  0  0  0  0  0  0
  182.0610  178.2890  140.0970 C   0  0  0  0  0  0  0  0  0  0  0  0
  182.6360  176.8950  139.8990 C   0  0  0  0  0  1  0  0  0  0  0  0
  180.8970  178.2150  141.0740 C   0  0  0  0  0  2  0  0  0  0  0  0
  181.0030  179.1880  142.0560 F   0  0  0  0  0  0  0  0  0  0  0  0
  1  9  1  0  0  0  0
  2  5  1  0  0  0  0
  4 14  2  0  0  0  0
  6  2  2  0  0  0  0
  7 19  2  0  0  0  0
  7 16  1  0  0  0  0
  8  3  2  0  0  0  0
  9  5  2  0  0  0  0
  9 19  1  0  0  0  0
 10 12  1  0  0  0  0
 10  4  1  0  0  0  0
 11 12  2  0  0  0  0
 12  8  1  0  0  0  0
 13 15  1  6  0  0  0
 13 20  1  0  0  0  0
 13 17  1  0  0  0  0
 13  1  1  0  0  0  0
 14  3  1  0  0  0  0
 14 18  1  0  0  0  0
 16 10  2  0  0  0  0
 17 20  1  1  0  0  0
 17  7  1  0  0  0  0
 19 11  1  0  0  0  0
 21 22  1  0  0  0  0
 22  1  2  0  0  0  0
 22  6  1  0  0  0  0
 23  6  1  0  0  0  0
 24 25  1  0  0  0  0
 25 23  1  0  0  0  0
 25 27  1  0  0  0  0
 26 25  1  0  0  0  0
 27 28  1  0  0  0  0
M  END
>  <MODEL>
3

>  <REMARK>
 VINA RESULT:      -8.3      1.556      3.408
  Name = 
  3 active torsions:
  status: ('A' for Active; 'I' for Inactive)
    1  A    between atoms: N_3  and  C_7
    2  A    between atoms: N_3  and  C_11
    3  A    between atoms: C_11  and  C_21
                            x       y       z     vdW  Elec       q    Type
                         _______ _______ _______ _____ _____    ______ ____

>  <TORSDO>
F 3

$$$$
=
 OpenBabel10232408363D

 28 32  0  0  1  0  0  0  0  0999 V2000
  187.8530  177.8360  146.4150 C   0  0  0  0  0  0  0  0  0  0  0  0
  189.6750  177.0120  144.4440 C   0  0  0  0  0  3  0  0  0  0  0  0
  182.8580  178.5760  141.1830 N   0  0  0  0  0  0  0  0  0  0  0  0
  182.2270  179.1470  143.4200 C   0  0  0  0  0  3  0  0  0  0  0  0
  188.3520  177.2840  144.1020 C   0  0  0  0  0  3  0  0  0  0  0  0
  190.1110  177.1700  145.7630 C   0  0  0  0  0  0  0  0  0  0  0  0
  185.1320  178.5240  145.6260 C   0  0  0  0  0  0  0  0  0  0  0  0
  184.1060  178.2200  141.5900 C   0  0  0  0  0  3  0  0  0  0  0  0
  187.4370  177.7030  145.0740 C   0  0  0  0  0  0  0  0  0  0  0  0
  183.5020  178.7880  143.8590 C   0  0  0  0  0  0  0  0  0  0  0  0
  185.6970  177.9710  143.3610 N   0  0  0  0  0  0  0  0  0  0  0  0
  184.4540  178.3190  142.9380 C   0  0  0  0  0  0  0  0  0  0  0  0
  186.8700  178.2720  147.4810 C   0  0  2  0  0  0  0  0  0  0  0  0
  181.9210  179.0320  142.0600 C   0  0  0  0  0  0  0  0  0  0  0  0
  186.9860  177.7360  148.8970 C   0  0  0  0  0  1  0  0  0  0  0  0
  183.8490  178.8850  145.2040 C   0  0  0  0  0  3  0  0  0  0  0  0
  185.4340  178.6030  147.0960 C   0  0  1  0  0  3  0  0  0  0  0  0
  180.6270  179.3920  141.5920 N   0  0  0  0  0  1  0  0  0  0  0  0
  186.0610  178.0560  144.6740 C   0  0  0  0  0  0  0  0  0  0  0  0
  186.4350  179.7180  147.3880 C   0  0  0  0  0  2  0  0  0  0  0  0
  189.6480  177.7700  148.0150 F   0  0  0  0  0  0  0  0  0  0  0  0
  189.2040  177.5920  146.7440 C   0  0  0  0  0  0  0  0  0  0  0  0
  191.4760  176.9130  146.1330 N   0  0  0  0  0  2  0  0  0  0  0  0
  193.0040  176.1230  147.8710 C   0  0  0  0  0  1  0  0  0  0  0  0
  191.9820  175.7240  146.8180 C   0  0  0  0  0  0  0  0  0  0  0  0
  190.8350  174.9690  147.4710 C   0  0  0  0  0  1  0  0  0  0  0  0
  192.6500  174.8250  145.7870 C   0  0  0  0  0  2  0  0  0  0  0  0
  192.3490  175.2320  144.4970 F   0  0  0  0  0  0  0  0  0  0  0  0
  1 22  1  0  0  0  0
  1 13  1  0  0  0  0
  2  6  1  0  0  0  0
  3  8  2  0  0  0  0
  3 14  1  0  0  0  0
  4 10  1  0  0  0  0
  5  2  2  0  0  0  0
  5  9  1  0  0  0  0
  6 23  1  0  0  0  0
  6 22  2  0  0  0  0
  7 17  1  0  0  0  0
  8 12  1  0  0  0  0
  9  1  2  0  0  0  0
 10 16  2  0  0  0  0
 11 19  1  0  0  0  0
 12 11  2  0  0  0  0
 12 10  1  0  0  0  0
 13 15  1  1  0  0  0
 14  4  2  0  0  0  0
 16  7  1  0  0  0  0
 17 20  1  6  0  0  0
 17 13  1  0  0  0  0
 18 14  1  0  0  0  0
 19  9  1  0  0  0  0
 19  7  2  0  0  0  0
 20 13  1  0  0  0  0
 22 21  1  0  0  0  0
 23 25  1  0  0  0  0
 25 26  1  0  0  0  0
 25 24  1  0  0  0  0
 27 25  1  0  0  0  0
 28 27  1  0  0  0  0
M  END
>  <MODEL>
4

>  <REMARK>
 VINA RESULT:      -8.3      3.230      8.010
  Name = 
  3 active torsions:
  status: ('A' for Active; 'I' for Inactive)
    1  A    between atoms: N_3  and  C_7
    2  A    between atoms: N_3  and  C_11
    3  A    between atoms: C_11  and  C_21
                            x       y       z     vdW  Elec       q    Type
                         _______ _______ _______ _____ _____    ______ ____

>  <TORSDO>
F 3

$$$$
=
 OpenBabel10232408363D

 28 32  0  0  1  0  0  0  0  0999 V2000
  186.1850  178.0710  144.5810 C   0  0  0  0  0  0  0  0  0  0  0  0
  188.4850  177.0760  143.3140 C   0  0  0  0  0  3  0  0  0  0  0  0
  182.9940  178.4020  138.0550 N   0  0  0  0  0  0  0  0  0  0  0  0
  181.7450  179.1590  139.9510 C   0  0  0  0  0  3  0  0  0  0  0  0
  187.3320  177.3260  142.5720 C   0  0  0  0  0  3  0  0  0  0  0  0
  188.5140  177.3410  144.6870 C   0  0  0  0  0  0  0  0  0  0  0  0
  183.8430  178.7050  142.9650 C   0  0  0  0  0  0  0  0  0  0  0  0
  184.0550  178.0740  138.8430 C   0  0  0  0  0  3  0  0  0  0  0  0
  186.1820  177.8300  143.1910 C   0  0  0  0  0  0  0  0  0  0  0  0
  182.8200  178.8320  140.7760 C   0  0  0  0  0  0  0  0  0  0  0  0
  185.0380  177.9640  141.0210 N   0  0  0  0  0  0  0  0  0  0  0  0
  183.9880  178.2820  140.2210 C   0  0  0  0  0  0  0  0  0  0  0  0
  184.9430  178.5990  145.2670 C   0  0  2  0  0  0  0  0  0  0  0  0
  181.8540  178.9340  138.5740 C   0  0  0  0  0  0  0  0  0  0  0  0
  184.6170  178.1810  146.6900 C   0  0  0  0  0  1  0  0  0  0  0  0
  182.7540  179.0370  142.1520 C   0  0  0  0  0  3  0  0  0  0  0  0
  183.6970  178.9050  144.4470 C   0  0  1  0  0  3  0  0  0  0  0  0
  180.7690  179.2610  137.7150 N   0  0  0  0  0  1  0  0  0  0  0  0
  184.9990  178.1560  142.3720 C   0  0  0  0  0  0  0  0  0  0  0  0
  184.5980  180.0350  144.9370 C   0  0  0  0  0  2  0  0  0  0  0  0
  187.4210  178.1280  146.6440 F   0  0  0  0  0  0  0  0  0  0  0  0
  187.3690  177.8480  145.3160 C   0  0  0  0  0  0  0  0  0  0  0  0
  189.6980  177.1070  145.4660 N   0  0  0  0  0  2  0  0  0  0  0  0
  191.1030  175.9670  143.8200 C   0  0  0  0  0  1  0  0  0  0  0  0
  191.0630  176.9770  144.9560 C   0  0  0  0  0  0  0  0  0  0  0  0
  191.5690  178.3250  144.4680 C   0  0  0  0  0  1  0  0  0  0  0  0
  191.9530  176.4900  146.0910 C   0  0  0  0  0  2  0  0  0  0  0  0
  192.3050  175.1610  145.9180 F   0  0  0  0  0  0  0  0  0  0  0  0
  1 13  1  0  0  0  0
  1 22  1  0  0  0  0
  2  6  1  0  0  0  0
  3 14  2  0  0  0  0
  3  8  1  0  0  0  0
  4 10  2  0  0  0  0
  5  9  1  0  0  0  0
  5  2  2  0  0  0  0
  6 22  2  0  0  0  0
  6 23  1  0  0  0  0
  7 17  1  0  0  0  0
  8 12  2  0  0  0  0
  9  1  2  0  0  0  0
 10 16  1  0  0  0  0
 11 19  2  0  0  0  0
 12 10  1  0  0  0  0
 12 11  1  0  0  0  0
 13 15  1  1  0  0  0
 14  4  1  0  0  0  0
 16  7  2  0  0  0  0
 17 20  1  6  0  0  0
 17 13  1  0  0  0  0
 18 14  1  0  0  0  0
 19  7  1  0  0  0  0
 19  9  1  0  0  0  0
 20 13  1  0  0  0  0
 22 21  1  0  0  0  0
 24 25  1  0  0  0  0
 25 23  1  0  0  0  0
 25 27  1  0  0  0  0
 26 25  1  0  0  0  0
 28 27  1  0  0  0  0
M  END
>  <MODEL>
5

>  <REMARK>
 VINA RESULT:      -8.1      2.767      7.943
  Name = 
  3 active torsions:
  status: ('A' for Active; 'I' for Inactive)
    1  A    between atoms: N_3  and  C_7
    2  A    between atoms: N_3  and  C_11
    3  A    between atoms: C_11  and  C_21
                            x       y       z     vdW  Elec       q    Type
                         _______ _______ _______ _____ _____    ______ ____

>  <TORSDO>
F 3

$$$$
=
 OpenBabel10232408363D

 28 32  0  0  1  0  0  0  0  0999 V2000
  190.4070  177.2150  141.9190 C   0  0  0  0  0  0  0  0  0  0  0  0
  190.1640  177.4580  139.1320 C   0  0  0  0  0  3  0  0  0  0  0  0
  183.3410  178.8450  142.4620 N   0  0  0  0  0  0  0  0  0  0  0  0
  184.5640  178.4840  144.4860 C   0  0  0  0  0  3  0  0  0  0  0  0
  189.0420  177.5970  139.9460 C   0  0  0  0  0  3  0  0  0  0  0  0
  191.4220  177.2210  139.6970 C   0  0  0  0  0  0  0  0  0  0  0  0
  188.0550  177.6490  143.5860 C   0  0  0  0  0  0  0  0  0  0  0  0
  184.4470  178.5930  141.7090 C   0  0  0  0  0  3  0  0  0  0  0  0
  189.1510  177.4860  141.3370 C   0  0  0  0  0  0  0  0  0  0  0  0
  185.7100  178.2230  143.7350 C   0  0  0  0  0  0  0  0  0  0  0  0
  186.7690  178.0250  141.5960 N   0  0  0  0  0  0  0  0  0  0  0  0
  185.6550  178.2760  142.3320 C   0  0  0  0  0  0  0  0  0  0  0  0
  190.5380  177.0750  143.4210 C   0  0  2  0  0  0  0  0  0  0  0  0
  183.3740  178.7970  143.8210 C   0  0  0  0  0  0  0  0  0  0  0  0
  191.5480  176.1090  144.0160 C   0  0  0  0  0  1  0  0  0  0  0  0
  186.9150  177.9050  144.3550 C   0  0  0  0  0  3  0  0  0  0  0  0
  189.3150  177.2640  144.3090 C   0  0  1  0  0  3  0  0  0  0  0  0
  182.1950  179.0660  144.5690 N   0  0  0  0  0  1  0  0  0  0  0  0
  187.9620  177.7110  142.1800 C   0  0  0  0  0  0  0  0  0  0  0  0
  190.3670  178.3640  144.1950 C   0  0  0  0  0  2  0  0  0  0  0  0
  192.7750  176.9110  141.6250 F   0  0  0  0  0  0  0  0  0  0  0  0
  191.5430  177.1110  141.0880 C   0  0  0  0  0  0  0  0  0  0  0  0
  192.5940  177.0930  138.8770 N   0  0  0  0  0  2  0  0  0  0  0  0
  191.7340  175.0220  137.9010 C   0  0  0  0  0  1  0  0  0  0  0  0
  192.9080  175.9860  137.9740 C   0  0  0  0  0  0  0  0  0  0  0  0
  193.2280  176.5180  136.5860 C   0  0  0  0  0  1  0  0  0  0  0  0
  194.1240  175.2520  138.5210 C   0  0  0  0  0  2  0  0  0  0  0  0
  194.1470  173.9330  138.0990 F   0  0  0  0  0  0  0  0  0  0  0  0
  1 13  1  0  0  0  0
  2  6  2  0  0  0  0
  2  5  1  0  0  0  0
  3 14  1  0  0  0  0
  5  9  2  0  0  0  0
  6 22  1  0  0  0  0
  7 17  1  0  0  0  0
  7 16  1  0  0  0  0
  8 12  1  0  0  0  0
  8  3  2  0  0  0  0
  9  1  1  0  0  0  0
  9 19  1  0  0  0  0
 10 16  2  0  0  0  0
 10  4  1  0  0  0  0
 11 19  1  0  0  0  0
 11 12  2  0  0  0  0
 12 10  1  0  0  0  0
 13 15  1  1  0  0  0
 13 20  1  0  0  0  0
 13 17  1  0  0  0  0
 14  4  2  0  0  0  0
 14 18  1  0  0  0  0
 17 20  1  1  0  0  0
 19  7  2  0  0  0  0
 22 21  1  0  0  0  0
 22  1  2  0  0  0  0
 23  6  1  0  0  0  0
 24 25  1  0  0  0  0
 25 27  1  0  0  0  0
 25 23  1  0  0  0  0
 26 25  1  0  0  0  0
 28 27  1  0  0  0  0
M  END
>  <MODEL>
6

>  <REMARK>
 VINA RESULT:      -7.9      4.271      7.021
  Name = 
  3 active torsions:
  status: ('A' for Active; 'I' for Inactive)
    1  A    between atoms: N_3  and  C_7
    2  A    between atoms: N_3  and  C_11
    3  A    between atoms: C_11  and  C_21
                            x       y       z     vdW  Elec       q    Type
                         _______ _______ _______ _____ _____    ______ ____

>  <TORSDO>
F 3

$$$$
=
 OpenBabel10232408363D

 28 32  0  0  1  0  0  0  0  0999 V2000
  185.6610  178.3890  143.6060 C   0  0  0  0  0  0  0  0  0  0  0  0
  183.7330  179.1540  141.7130 C   0  0  0  0  0  3  0  0  0  0  0  0
  190.3410  177.4090  138.1280 N   0  0  0  0  0  0  0  0  0  0  0  0
  191.0960  176.9170  140.3440 C   0  0  0  0  0  3  0  0  0  0  0  0
  185.0330  178.8580  141.3060 C   0  0  0  0  0  3  0  0  0  0  0  0
  183.3730  179.0500  143.0610 C   0  0  0  0  0  0  0  0  0  0  0  0
  188.3280  177.6480  142.6890 C   0  0  0  0  0  0  0  0  0  0  0  0
  189.1200  177.7910  138.5910 C   0  0  0  0  0  3  0  0  0  0  0  0
  186.0000  178.4670  142.2390 C   0  0  0  0  0  0  0  0  0  0  0  0
  189.8510  177.3030  140.8420 C   0  0  0  0  0  0  0  0  0  0  0  0
  187.6370  178.1210  140.4400 N   0  0  0  0  0  0  0  0  0  0  0  0
  188.8500  177.7460  139.9600 C   0  0  0  0  0  0  0  0  0  0  0  0
  186.7010  177.9840  144.6290 C   0  0  2  0  0  0  0  0  0  0  0  0
  191.3230  176.9780  138.9660 C   0  0  0  0  0  0  0  0  0  0  0  0
  186.6710  178.5740  146.0280 C   0  0  0  0  0  1  0  0  0  0  0  0
  189.5820  177.2600  142.2070 C   0  0  0  0  0  3  0  0  0  0  0  0
  188.1110  177.6260  144.1750 C   0  0  1  0  0  3  0  0  0  0  0  0
  192.5850  176.5890  138.4380 N   0  0  0  0  0  1  0  0  0  0  0  0
  187.3480  178.0870  141.7740 C   0  0  0  0  0  0  0  0  0  0  0  0
  187.1210  176.5320  144.5670 C   0  0  0  0  0  2  0  0  0  0  0  0
  183.9620  178.5300  145.3030 F   0  0  0  0  0  0  0  0  0  0  0  0
  184.3330  178.6560  144.0030 C   0  0  0  0  0  0  0  0  0  0  0  0
  182.0340  179.3330  143.4980 N   0  0  0  0  0  2  0  0  0  0  0  0
  181.1160  178.0920  141.6010 C   0  0  0  0  0  1  0  0  0  0  0  0
  180.7970  178.8920  142.8540 C   0  0  0  0  0  0  0  0  0  0  0  0
  179.9820  178.0420  143.8160 C   0  0  0  0  0  1  0  0  0  0  0  0
  179.9920  180.1250  142.4700 C   0  0  0  0  0  2  0  0  0  0  0  0
  180.2020  180.4690  141.1440 F   0  0  0  0  0  0  0  0  0  0  0  0
  1 22  1  0  0  0  0
  1 13  1  0  0  0  0
  2  6  1  0  0  0  0
  3  8  2  0  0  0  0
  3 14  1  0  0  0  0
  4 10  1  0  0  0  0
  5  2  2  0  0  0  0
  5  9  1  0  0  0  0
  6 23  1  0  0  0  0
  6 22  2  0  0  0  0
  7 17  1  0  0  0  0
  8 12  1  0  0  0  0
  9  1  2  0  0  0  0
 10 16  2  0  0  0  0
 11 19  1  0  0  0  0
 12 11  2  0  0  0  0
 12 10  1  0  0  0  0
 13 15  1  1  0  0  0
 14  4  2  0  0  0  0
 16  7  1  0  0  0  0
 17 20  1  6  0  0  0
 17 13  1  0  0  0  0
 18 14  1  0  0  0  0
 19  9  1  0  0  0  0
 19  7  2  0  0  0  0
 20 13  1  0  0  0  0
 22 21  1  0  0  0  0
 24 25  1  0  0  0  0
 25 23  1  0  0  0  0
 25 26  1  0  0  0  0
 27 25  1  0  0  0  0
 28 27  1  0  0  0  0
M  END
>  <MODEL>
7

>  <REMARK>
 VINA RESULT:      -7.9      3.501      4.964
  Name = 
  3 active torsions:
  status: ('A' for Active; 'I' for Inactive)
    1  A    between atoms: N_3  and  C_7
    2  A    between atoms: N_3  and  C_11
    3  A    between atoms: C_11  and  C_21
                            x       y       z     vdW  Elec       q    Type
                         _______ _______ _______ _____ _____    ______ ____

>  <TORSDO>
F 3

$$$$
=
 OpenBabel10232408363D

 28 32  0  0  1  0  0  0  0  0999 V2000
  185.6400  178.6000  142.6880 C   0  0  0  0  0  0  0  0  0  0  0  0
  183.7020  178.8910  144.6990 C   0  0  0  0  0  3  0  0  0  0  0  0
  190.3580  176.5550  147.8300 N   0  0  0  0  0  0  0  0  0  0  0  0
  191.1500  176.6890  145.5760 C   0  0  0  0  0  3  0  0  0  0  0  0
  184.9710  178.4110  145.0170 C   0  0  0  0  0  3  0  0  0  0  0  0
  183.3920  179.2550  143.3850 C   0  0  0  0  0  0  0  0  0  0  0  0
  188.3200  177.7190  143.4240 C   0  0  0  0  0  0  0  0  0  0  0  0
  189.1050  176.9250  147.4480 C   0  0  0  0  0  3  0  0  0  0  0  0
  185.9480  178.2680  144.0240 C   0  0  0  0  0  0  0  0  0  0  0  0
  189.8730  177.0710  145.1620 C   0  0  0  0  0  0  0  0  0  0  0  0
  187.5940  177.5640  145.7060 N   0  0  0  0  0  0  0  0  0  0  0  0
  188.8380  177.1900  146.1040 C   0  0  0  0  0  0  0  0  0  0  0  0
  186.6810  178.4350  141.6010 C   0  0  2  0  0  0  0  0  0  0  0  0
  191.3740  176.4320  146.9320 C   0  0  0  0  0  0  0  0  0  0  0  0
  186.2650  178.0410  140.1950 C   0  0  0  0  0  1  0  0  0  0  0  0
  189.6050  177.3350  143.8210 C   0  0  0  0  0  3  0  0  0  0  0  0
  188.0780  177.9430  141.9590 C   0  0  1  0  0  3  0  0  0  0  0  0
  192.6680  176.0420  147.3740 N   0  0  0  0  0  1  0  0  0  0  0  0
  187.3050  177.8280  144.3980 C   0  0  0  0  0  0  0  0  0  0  0  0
  187.8270  179.4200  141.6670 C   0  0  0  0  0  2  0  0  0  0  0  0
  184.0580  179.5040  141.1180 F   0  0  0  0  0  0  0  0  0  0  0  0
  184.3640  179.1190  142.3840 C   0  0  0  0  0  0  0  0  0  0  0  0
  182.0960  179.7700  143.0400 N   0  0  0  0  0  2  0  0  0  0  0  0
  181.4080  177.9420  141.5680 C   0  0  0  0  0  1  0  0  0  0  0  0
  180.9500  178.9950  142.5640 C   0  0  0  0  0  0  0  0  0  0  0  0
  180.2470  178.3280  143.7360 C   0  0  0  0  0  1  0  0  0  0  0  0
  179.9820  179.9480  141.8770 C   0  0  0  0  0  2  0  0  0  0  0  0
  180.5250  180.4600  140.7090 F   0  0  0  0  0  0  0  0  0  0  0  0
  1  9  1  0  0  0  0
  2  5  1  0  0  0  0
  4 14  1  0  0  0  0
  6  2  2  0  0  0  0
  7 16  2  0  0  0  0
  7 19  1  0  0  0  0
  8  3  1  0  0  0  0
  9 19  1  0  0  0  0
  9  5  2  0  0  0  0
 10  4  2  0  0  0  0
 10 12  1  0  0  0  0
 11 12  1  0  0  0  0
 12  8  2  0  0  0  0
 13 15  1  6  0  0  0
 13 20  1  0  0  0  0
 13 17  1  0  0  0  0
 13  1  1  0  0  0  0
 14 18  1  0  0  0  0
 14  3  2  0  0  0  0
 16 10  1  0  0  0  0
 17 20  1  1  0  0  0
 17  7  1  0  0  0  0
 19 11  2  0  0  0  0
 21 22  1  0  0  0  0
 22  1  2  0  0  0  0
 22  6  1  0  0  0  0
 23  6  1  0  0  0  0
 24 25  1  0  0  0  0
 25 23  1  0  0  0  0
 25 26  1  0  0  0  0
 27 25  1  0  0  0  0
 28 27  1  0  0  0  0
M  END
>  <MODEL>
8

>  <REMARK>
 VINA RESULT:      -7.8      2.127      3.656
  Name = 
  3 active torsions:
  status: ('A' for Active; 'I' for Inactive)
    1  A    between atoms: N_3  and  C_7
    2  A    between atoms: N_3  and  C_11
    3  A    between atoms: C_11  and  C_21
                            x       y       z     vdW  Elec       q    Type
                         _______ _______ _______ _____ _____    ______ ____

>  <TORSDO>
F 3

$$$$
=
 OpenBabel10232408363D

 28 32  0  0  1  0  0  0  0  0999 V2000
  189.4280  177.5930  143.5420 C   0  0  0  0  0  0  0  0  0  0  0  0
  186.6220  177.5330  143.6250 C   0  0  0  0  0  3  0  0  0  0  0  0
  189.0230  176.5470  136.3580 N   0  0  0  0  0  0  0  0  0  0  0  0
  191.1970  176.6850  137.3460 C   0  0  0  0  0  3  0  0  0  0  0  0
  187.2860  177.4440  142.4040 C   0  0  0  0  0  3  0  0  0  0  0  0
  187.3460  177.6280  144.8190 C   0  0  0  0  0  0  0  0  0  0  0  0
  190.7730  177.2670  140.9760 C   0  0  0  0  0  0  0  0  0  0  0  0
  188.4240  176.7470  137.5630 C   0  0  0  0  0  3  0  0  0  0  0  0
  188.6850  177.4650  142.3500 C   0  0  0  0  0  0  0  0  0  0  0  0
  190.6050  176.8890  138.5930 C   0  0  0  0  0  0  0  0  0  0  0  0
  188.6250  177.1180  139.9190 N   0  0  0  0  0  0  0  0  0  0  0  0
  189.2050  176.9220  138.7070 C   0  0  0  0  0  0  0  0  0  0  0  0
  190.9410  177.6340  143.4980 C   0  0  2  0  0  0  0  0  0  0  0  0
  190.3770  176.5140  136.2260 C   0  0  0  0  0  0  0  0  0  0  0  0
  191.7140  178.4740  144.4990 C   0  0  0  0  0  1  0  0  0  0  0  0
  191.3830  177.0660  139.7340 C   0  0  0  0  0  3  0  0  0  0  0  0
  191.6640  177.5000  142.1640 C   0  0  1  0  0  3  0  0  0  0  0  0
  190.9610  176.3040  134.9470 N   0  0  0  0  0  1  0  0  0  0  0  0
  189.3650  177.2940  141.0520 C   0  0  0  0  0  0  0  0  0  0  0  0
  191.6000  176.3220  143.1330 C   0  0  0  0  0  2  0  0  0  0  0  0
  189.4360  177.7090  145.9440 F   0  0  0  0  0  0  0  0  0  0  0  0
  188.7460  177.6460  144.7760 C   0  0  0  0  0  0  0  0  0  0  0  0
  186.6800  177.7020  146.0900 N   0  0  0  0  0  2  0  0  0  0  0  0
  185.2930  179.5600  145.3120 C   0  0  0  0  0  1  0  0  0  0  0  0
  185.7050  178.7110  146.5040 C   0  0  0  0  0  0  0  0  0  0  0  0
  184.4820  178.0380  147.1070 C   0  0  0  0  0  1  0  0  0  0  0  0
  186.3540  179.6010  147.5530 C   0  0  0  0  0  2  0  0  0  0  0  0
  187.3730  178.9350  148.2170 F   0  0  0  0  0  0  0  0  0  0  0  0
  1 22  1  0  0  0  0
  2  6  1  0  0  0  0
  3  8  1  0  0  0  0
  4 10  2  0  0  0  0
  5  2  2  0  0  0  0
  6 23  1  0  0  0  0
  7 19  1  0  0  0  0
  7 17  1  0  0  0  0
  8 12  2  0  0  0  0
  9  5  1  0  0  0  0
  9  1  2  0  0  0  0
 10 12  1  0  0  0  0
 10 16  1  0  0  0  0
 11 19  2  0  0  0  0
 12 11  1  0  0  0  0
 13  1  1  0  0  0  0
 13 15  1  1  0  0  0
 14  3  2  0  0  0  0
 14  4  1  0  0  0  0
 16  7  2  0  0  0  0
 17 20  1  1  0  0  0
 17 13  1  0  0  0  0
 18 14  1  0  0  0  0
 19  9  1  0  0  0  0
 20 13  1  0  0  0  0
 22  6  2  0  0  0  0
 22 21  1  0  0  0  0
 23 25  1  0  0  0  0
 24 25  1  0  0  0  0
 25 26  1  0  0  0  0
 25 27  1  0  0  0  0
 27 28  1  0  0  0  0
M  END
>  <MODEL>
9

>  <REMARK>
 VINA RESULT:      -7.7      3.827      7.423
  Name = 
  3 active torsions:
  status: ('A' for Active; 'I' for Inactive)
    1  A    between atoms: N_3  and  C_7
    2  A    between atoms: N_3  and  C_11
    3  A    between atoms: C_11  and  C_21
                            x       y       z     vdW  Elec       q    Type
                         _______ _______ _______ _____ _____    ______ ____

>  <TORSDO>
F 3

$$$$
