=
 OpenBabel10232409593D

 58 65  0  0  1  0  0  0  0  0999 V2000
  186.0490  177.7640  143.5400 C   0  0  2  0  0  3  0  0  0  0  0  0
  185.6060  178.2210  145.9570 C   0  0  1  0  0  3  0  0  0  0  0  0
  183.4440  178.9060  145.5720 N   0  0  0  0  0  1  0  0  0  0  0  0
  184.7110  179.3720  145.9520 N   0  0  0  0  0  0  0  0  0  0  0  0
  186.3460  178.6850  144.7180 C   0  0  2  0  0  3  0  0  0  0  0  0
  185.3720  179.8430  144.7410 C   0  0  0  0  0  2  0  0  0  0  0  0
  186.5370  178.2840  147.1590 C   0  0  0  0  0  2  0  0  0  0  0  0
  188.6590  178.5060  145.8540 C   0  0  0  0  0  3  0  0  0  0  0  0
  188.4230  176.6540  147.4000 C   0  0  0  0  0  3  0  0  0  0  0  0
  189.9290  178.0420  145.4930 C   0  0  0  0  0  3  0  0  0  0  0  0
  190.4430  176.8800  146.0810 C   0  0  0  0  0  0  0  0  0  0  0  0
  189.6940  176.1930  147.0400 C   0  0  0  0  0  3  0  0  0  0  0  0
  187.9030  177.8080  146.8020 C   0  0  0  0  0  0  0  0  0  0  0  0
  191.7920  176.3790  145.6890 C   0  0  0  0  0  2  0  0  0  0  0  0
  192.6140  175.7610  147.6400 C   0  0  0  0  0  1  0  0  0  0  0  0
  192.1190  175.2470  146.4400 O   0  0  0  0  0  0  0  0  0  0  0  0
  187.3110  177.1660  142.9990 C   0  0  0  0  0  0  0  0  0  0  0  0
  187.8400  176.1700  143.5670 O   0  0  0  0  0  0  0  0  0  0  0  0
  187.9140  177.7450  141.8450 N   0  0  0  0  0  2  0  0  0  0  0  0
  191.7570  175.8290  137.8620 C   0  0  2  0  0  3  0  0  0  0  0  0
  189.9690  176.8930  138.8780 C   0  0  1  0  0  3  0  0  0  0  0  0
  189.3550  177.8700  139.9070 C   0  0  1  0  0  3  0  0  0  0  0  0
  189.1070  177.1830  141.2360 C   0  0  1  0  0  3  0  0  0  0  0  0
  192.1140  177.1400  140.0420 C   0  0  0  0  0  0  0  0  0  0  0  0
  191.5540  177.6000  141.3380 C   0  0  0  0  0  2  0  0  0  0  0  0
  193.1840  177.5760  139.6450 O   0  0  0  0  0  0  0  0  0  0  0  0
  190.1820  178.2580  141.1520 C   0  0  1  0  0  3  0  0  0  0  0  0
  190.1170  177.5290  137.6260 O   0  0  0  0  0  0  0  0  0  0  0  0
  191.2500  176.9640  137.0020 C   0  0  0  0  0  2  0  0  0  0  0  0
  191.2650  176.1850  139.2430 C   0  0  2  0  0  3  0  0  0  0  0  0
  193.9570  176.3000  137.0710 O   0  0  0  0  0  0  0  0  0  0  0  0
  193.7790  174.3510  138.3470 N   0  0  0  0  0  2  0  0  0  0  0  0
  193.2210  175.5180  137.7320 C   0  0  0  0  0  0  0  0  0  0  0  0
  195.6070  173.5690  136.9090 C   0  0  2  0  0  3  0  0  0  0  0  0
  195.4700  171.3580  138.4170 O   0  0  0  0  0  0  0  0  0  0  0  0
  195.1820  173.9890  138.2110 C   0  0  1  0  0  0  0  0  0  0  0  0
  196.0900  174.6360  139.0510 O   0  0  0  0  0  1  0  0  0  0  0  0
  195.4310  172.5050  138.0150 C   0  0  0  0  0  0  0  0  0  0  0  0
  197.0930  173.7800  136.6560 C   0  0  0  0  0  2  0  0  0  0  0  0
  197.8050  175.9860  136.2100 O   0  0  0  0  0  0  0  0  0  0  0  0
  197.3070  174.9620  135.7700 C   0  0  0  0  0  3  0  0  0  0  0  0
  185.3900  178.4770  142.5350 O   0  0  0  0  0  0  0  0  0  0  0  0
  184.4280  177.6360  142.0810 N   0  0  0  0  0  2  0  0  0  0  0  0
  183.7350  178.3130  141.0680 N   0  0  0  0  0  2  0  0  0  0  0  0
  183.9290  179.7260  139.1250 C   0  0  0  0  0  2  0  0  0  0  0  0
  184.3540  178.6780  139.8290 C   0  0  0  0  0  0  0  0  0  0  0  0
  185.4700  177.8490  139.2970 C   0  0  0  0  0  2  0  0  0  0  0  0
  185.8630  178.3320  137.9090 C   0  0  0  0  0  2  0  0  0  0  0  0
  185.3790  177.4080  136.7890 C   0  0  1  0  0  3  0  0  0  0  0  0
  186.4250  175.0910  136.7190 C   0  0  1  0  0  0  0  0  0  0  0  0
  186.8470  175.4880  135.4260 O   0  0  0  0  0  0  0  0  0  0  0  0
  186.0080  177.6330  135.5430 O   0  0  0  0  0  0  0  0  0  0  0  0
  187.1790  176.8540  135.4810 C   0  0  0  0  0  2  0  0  0  0  0  0
  187.4600  175.2320  137.6300 F   0  0  0  0  0  0  0  0  0  0  0  0
  185.2220  175.9270  137.1740 C   0  0  0  0  0  2  0  0  0  0  0  0
  186.7650  172.8370  135.8630 O   0  0  0  0  0  0  0  0  0  0  0  0
  187.0450  172.7220  137.2370 C   0  0  0  0  0  2  0  0  0  0  0  0
  185.9810  173.6200  136.7320 C   0  0  1  0  0  3  0  0  0  0  0  0
  1 42  1  6  0  0  0
  2  7  1  1  0  0  0
  3  4  1  0  0  0  0
  4  2  1  0  0  0  0
  5  1  1  6  0  0  0
  5  6  1  0  0  0  0
  5  2  1  0  0  0  0
  6  4  1  0  0  0  0
  8 13  1  0  0  0  0
 10  8  2  0  0  0  0
 10 11  1  0  0  0  0
 11 12  2  0  0  0  0
 12  9  1  0  0  0  0
 13  7  1  0  0  0  0
 13  9  2  0  0  0  0
 14 11  1  0  0  0  0
 14 16  1  0  0  0  0
 16 15  1  0  0  0  0
 17  1  1  0  0  0  0
 17 18  2  0  0  0  0
 19 17  1  0  0  0  0
 20 33  1  1  0  0  0
 20 30  1  0  0  0  0
 21 28  1  6  0  0  0
 21 30  1  0  0  0  0
 21 22  1  0  0  0  0
 22 27  1  0  0  0  0
 22 23  1  0  0  0  0
 23 19  1  0  0  0  0
 24 25  1  0  0  0  0
 26 24  2  0  0  0  0
 27 23  1  0  0  0  0
 27 25  1  0  0  0  0
 29 28  1  0  0  0  0
 29 20  1  0  0  0  0
 30 24  1  0  0  0  0
 31 33  2  0  0  0  0
 33 32  1  0  0  0  0
 34 38  1  0  0  0  0
 34 36  1  0  0  0  0
 36 32  1  0  0  0  0
 36 37  1  0  0  0  0
 38 36  1  0  0  0  0
 38 35  2  0  0  0  0
 39 34  1  0  0  0  0
 41 40  2  0  0  0  0
 41 39  1  0  0  0  0
 43 42  1  0  0  0  0
 44 43  1  0  0  0  0
 45 46  2  0  0  0  0
 46 44  1  0  0  0  0
 47 46  1  0  0  0  0
 48 47  1  0  0  0  0
 49 55  1  0  0  0  0
 49 48  1  0  0  0  0
 50 58  1  0  0  0  0
 50 55  1  0  0  0  0
 50 54  1  0  0  0  0
 51 53  1  0  0  0  0
 51 50  1  0  0  0  0
 52 49  1  0  0  0  0
 53 52  1  0  0  0  0
 56 58  1  0  0  0  0
 56 57  1  0  0  0  0
 58 57  1  0  0  0  0
M  END
>  <MODEL>
1

>  <REMARK>
 VINA RESULT:      -7.4      0.000      0.000
  Name = 
  19 active torsions:
  status: ('A' for Active; 'I' for Inactive)
    1  A    between atoms: N_1  and  N_6
    2  A    between atoms: N_1  and  C_57
    3  A    between atoms: C_2  and  C_46
    4  A    between atoms: C_3  and  C_5
    5  A    between atoms: C_3  and  C_22
    6  A    between atoms: N_6  and  O_56
    7  A    between atoms: C_7  and  C_38
    8  A    between atoms: C_9  and  C_51
    9  A    between atoms: C_14  and  C_35
   10  A    between atoms: C_17  and  N_54
   11  A    between atoms: C_22  and  C_57
   12  A    between atoms: C_27  and  C_43
   13  A    between atoms: C_28  and  C_43
   14  A    between atoms: C_30  and  N_42
   15  A    between atoms: C_32  and  C_35
   16  A    between atoms: C_37  and  C_39
   17  A    between atoms: C_37  and  O_45
   18  A    between atoms: C_38  and  C_49
   19  A    between atoms: C_43  and  O_56
                            x       y       z     vdW  Elec       q    Type
                         _______ _______ _______ _____ _____    ______ ____

>  <TORSDO>
F 19

$$$$
=
 OpenBabel10232409593D

 58 65  0  0  1  0  0  0  0  0999 V2000
  185.9540  177.7380  143.4890 C   0  0  2  0  0  3  0  0  0  0  0  0
  185.4920  178.2180  145.8980 C   0  0  1  0  0  3  0  0  0  0  0  0
  183.3240  178.8710  145.4930 N   0  0  0  0  0  1  0  0  0  0  0  0
  184.5820  179.3580  145.8750 N   0  0  0  0  0  0  0  0  0  0  0  0
  186.2330  178.6770  144.6570 C   0  0  2  0  0  3  0  0  0  0  0  0
  185.2440  179.8230  144.6610 C   0  0  0  0  0  2  0  0  0  0  0  0
  186.4150  178.3070  147.1050 C   0  0  0  0  0  2  0  0  0  0  0  0
  188.3140  176.7110  147.4280 C   0  0  0  0  0  3  0  0  0  0  0  0
  188.5450  178.4910  145.7990 C   0  0  0  0  0  3  0  0  0  0  0  0
  189.6100  176.2750  147.1350 C   0  0  0  0  0  3  0  0  0  0  0  0
  190.3770  176.9510  146.1780 C   0  0  0  0  0  0  0  0  0  0  0  0
  189.8400  178.0520  145.5050 C   0  0  0  0  0  3  0  0  0  0  0  0
  187.7830  177.8240  146.7660 C   0  0  0  0  0  0  0  0  0  0  0  0
  191.7630  176.4930  145.8720 C   0  0  0  0  0  2  0  0  0  0  0  0
  192.7350  175.6890  147.6810 C   0  0  0  0  0  1  0  0  0  0  0  0
  192.0300  175.2970  146.5420 O   0  0  0  0  0  0  0  0  0  0  0  0
  187.2260  177.1530  142.9600 C   0  0  0  0  0  0  0  0  0  0  0  0
  187.7760  176.1810  143.5510 O   0  0  0  0  0  0  0  0  0  0  0  0
  187.8160  177.7150  141.7910 N   0  0  0  0  0  2  0  0  0  0  0  0
  191.7130  175.8360  137.8430 C   0  0  2  0  0  3  0  0  0  0  0  0
  189.9080  176.8850  138.8430 C   0  0  1  0  0  3  0  0  0  0  0  0
  189.2770  177.8560  139.8690 C   0  0  1  0  0  3  0  0  0  0  0  0
  189.0190  177.1630  141.1930 C   0  0  1  0  0  3  0  0  0  0  0  0
  192.0390  177.1410  140.0310 C   0  0  0  0  0  0  0  0  0  0  0  0
  191.4620  177.5930  141.3230 C   0  0  0  0  0  2  0  0  0  0  0  0
  193.1110  177.5850  139.6470 O   0  0  0  0  0  0  0  0  0  0  0  0
  190.0890  178.2440  141.1240 C   0  0  1  0  0  3  0  0  0  0  0  0
  190.0650  177.5270  137.5950 O   0  0  0  0  0  0  0  0  0  0  0  0
  191.2090  176.9700  136.9810 C   0  0  0  0  0  2  0  0  0  0  0  0
  191.2040  176.1840  139.2200 C   0  0  2  0  0  3  0  0  0  0  0  0
  193.9300  176.3570  137.1340 O   0  0  0  0  0  0  0  0  0  0  0  0
  193.7250  174.3310  138.2800 N   0  0  0  0  0  2  0  0  0  0  0  0
  193.1800  175.5340  137.7280 C   0  0  0  0  0  0  0  0  0  0  0  0
  195.5580  173.5100  136.8690 C   0  0  2  0  0  3  0  0  0  0  0  0
  195.4490  171.3600  138.4650 O   0  0  0  0  0  0  0  0  0  0  0  0
  195.1320  173.9780  138.1540 C   0  0  1  0  0  0  0  0  0  0  0  0
  196.0360  174.6680  138.9650 O   0  0  0  0  0  1  0  0  0  0  0  0
  195.3960  172.4900  138.0170 C   0  0  0  0  0  0  0  0  0  0  0  0
  197.0410  173.7270  136.6030 C   0  0  0  0  0  2  0  0  0  0  0  0
  197.8610  175.9300  136.3920 O   0  0  0  0  0  0  0  0  0  0  0  0
  197.2560  175.0080  135.8680 C   0  0  0  0  0  3  0  0  0  0  0  0
  185.2880  178.4310  142.4730 O   0  0  0  0  0  0  0  0  0  0  0  0
  184.1700  177.7030  142.2280 N   0  0  0  0  0  2  0  0  0  0  0  0
  183.1370  178.6150  141.9720 N   0  0  0  0  0  2  0  0  0  0  0  0
  181.2530  177.7680  140.7300 C   0  0  0  0  0  2  0  0  0  0  0  0
  182.3320  178.5480  140.7880 C   0  0  0  0  0  0  0  0  0  0  0  0
  182.7280  179.3340  139.5880 C   0  0  0  0  0  2  0  0  0  0  0  0
  182.8350  178.4200  138.3770 C   0  0  0  0  0  2  0  0  0  0  0  0
  183.9810  177.4120  138.4820 C   0  0  1  0  0  3  0  0  0  0  0  0
  185.2150  176.8900  136.3200 C   0  0  1  0  0  0  0  0  0  0  0  0
  184.7880  175.5630  136.5770 O   0  0  0  0  0  0  0  0  0  0  0  0
  183.5640  176.0610  138.4670 O   0  0  0  0  0  0  0  0  0  0  0  0
  183.4960  175.6240  137.1300 C   0  0  0  0  0  2  0  0  0  0  0  0
  184.3870  177.4900  135.3830 F   0  0  0  0  0  0  0  0  0  0  0  0
  185.2120  177.7160  137.6120 C   0  0  0  0  0  2  0  0  0  0  0  0
  186.7430  177.7100  134.6100 O   0  0  0  0  0  0  0  0  0  0  0  0
  187.2310  178.2780  135.8000 C   0  0  0  0  0  2  0  0  0  0  0  0
  186.6490  176.9170  135.7710 C   0  0  1  0  0  3  0  0  0  0  0  0
  1 42  1  6  0  0  0
  2  7  1  1  0  0  0
  3  4  1  0  0  0  0
  4  2  1  0  0  0  0
  5  1  1  6  0  0  0
  5  6  1  0  0  0  0
  5  2  1  0  0  0  0
  6  4  1  0  0  0  0
  9 13  1  0  0  0  0
 10  8  1  0  0  0  0
 11 10  2  0  0  0  0
 12  9  2  0  0  0  0
 12 11  1  0  0  0  0
 13  7  1  0  0  0  0
 13  8  2  0  0  0  0
 14 11  1  0  0  0  0
 14 16  1  0  0  0  0
 16 15  1  0  0  0  0
 17  1  1  0  0  0  0
 17 18  2  0  0  0  0
 19 17  1  0  0  0  0
 20 33  1  1  0  0  0
 20 30  1  0  0  0  0
 21 28  1  6  0  0  0
 21 30  1  0  0  0  0
 21 22  1  0  0  0  0
 22 27  1  0  0  0  0
 22 23  1  0  0  0  0
 23 19  1  0  0  0  0
 24 25  1  0  0  0  0
 26 24  2  0  0  0  0
 27 23  1  0  0  0  0
 27 25  1  0  0  0  0
 29 28  1  0  0  0  0
 29 20  1  0  0  0  0
 30 24  1  0  0  0  0
 31 33  2  0  0  0  0
 33 32  1  0  0  0  0
 34 38  1  0  0  0  0
 34 36  1  0  0  0  0
 36 32  1  0  0  0  0
 36 37  1  0  0  0  0
 38 36  1  0  0  0  0
 38 35  2  0  0  0  0
 39 34  1  0  0  0  0
 41 40  2  0  0  0  0
 41 39  1  0  0  0  0
 43 42  1  0  0  0  0
 44 43  1  0  0  0  0
 45 46  2  0  0  0  0
 46 44  1  0  0  0  0
 47 46  1  0  0  0  0
 48 49  1  0  0  0  0
 48 47  1  0  0  0  0
 50 51  1  0  0  0  0
 50 55  1  0  0  0  0
 51 53  1  0  0  0  0
 52 49  1  0  0  0  0
 53 52  1  0  0  0  0
 54 50  1  0  0  0  0
 55 49  1  0  0  0  0
 56 58  1  0  0  0  0
 56 57  1  0  0  0  0
 58 57  1  0  0  0  0
 58 50  1  0  0  0  0
M  END
>  <MODEL>
2

>  <REMARK>
 VINA RESULT:      -7.3      1.219      1.888
  Name = 
  19 active torsions:
  status: ('A' for Active; 'I' for Inactive)
    1  A    between atoms: N_1  and  N_6
    2  A    between atoms: N_1  and  C_57
    3  A    between atoms: C_2  and  C_46
    4  A    between atoms: C_3  and  C_5
    5  A    between atoms: C_3  and  C_22
    6  A    between atoms: N_6  and  O_56
    7  A    between atoms: C_7  and  C_38
    8  A    between atoms: C_9  and  C_51
    9  A    between atoms: C_14  and  C_35
   10  A    between atoms: C_17  and  N_54
   11  A    between atoms: C_22  and  C_57
   12  A    between atoms: C_27  and  C_43
   13  A    between atoms: C_28  and  C_43
   14  A    between atoms: C_30  and  N_42
   15  A    between atoms: C_32  and  C_35
   16  A    between atoms: C_37  and  C_39
   17  A    between atoms: C_37  and  O_45
   18  A    between atoms: C_38  and  C_49
   19  A    between atoms: C_43  and  O_56
                            x       y       z     vdW  Elec       q    Type
                         _______ _______ _______ _____ _____    ______ ____

>  <TORSDO>
F 19

$$$$
=
 OpenBabel10232409593D

 58 65  0  0  1  0  0  0  0  0999 V2000
  185.8920  178.7910  141.2510 C   0  0  2  0  0  3  0  0  0  0  0  0
  185.1920  178.0660  143.5390 C   0  0  1  0  0  3  0  0  0  0  0  0
  182.9540  178.3540  143.0930 N   0  0  0  0  0  1  0  0  0  0  0  0
  184.0200  178.8810  143.8370 N   0  0  0  0  0  0  0  0  0  0  0  0
  185.8540  179.1640  142.7290 C   0  0  2  0  0  3  0  0  0  0  0  0
  184.6020  179.9560  143.0410 C   0  0  0  0  0  2  0  0  0  0  0  0
  185.9930  177.8150  144.8080 C   0  0  0  0  0  2  0  0  0  0  0  0
  188.4720  177.9770  145.1020 C   0  0  0  0  0  3  0  0  0  0  0  0
  187.5810  176.3410  143.5510 C   0  0  0  0  0  3  0  0  0  0  0  0
  189.7730  177.5770  144.7760 C   0  0  0  0  0  3  0  0  0  0  0  0
  189.9780  176.5640  143.8310 C   0  0  0  0  0  0  0  0  0  0  0  0
  188.8820  175.9400  143.2270 C   0  0  0  0  0  3  0  0  0  0  0  0
  187.3760  177.3640  144.4850 C   0  0  0  0  0  0  0  0  0  0  0  0
  191.3640  176.1440  143.4750 C   0  0  0  0  0  2  0  0  0  0  0  0
  191.8870  177.4330  141.7640 C   0  0  0  0  0  1  0  0  0  0  0  0
  192.1270  177.2610  143.1280 O   0  0  0  0  0  0  0  0  0  0  0  0
  187.2620  178.3370  140.8520 C   0  0  0  0  0  0  0  0  0  0  0  0
  188.2820  178.7940  141.4400 O   0  0  0  0  0  0  0  0  0  0  0  0
  187.4000  177.3950  139.7920 N   0  0  0  0  0  2  0  0  0  0  0  0
  191.5340  174.1290  137.2330 C   0  0  2  0  0  3  0  0  0  0  0  0
  189.5120  175.1300  137.7520 C   0  0  1  0  0  3  0  0  0  0  0  0
  188.6010  176.3610  137.9660 C   0  0  1  0  0  3  0  0  0  0  0  0
  188.6940  176.8710  139.3910 C   0  0  1  0  0  3  0  0  0  0  0  0
  191.4290  176.6570  137.6750 C   0  0  0  0  0  0  0  0  0  0  0  0
  190.7820  177.7810  138.4000 C   0  0  0  0  0  2  0  0  0  0  0  0
  192.2260  176.8830  136.7760 O   0  0  0  0  0  0  0  0  0  0  0  0
  189.2560  177.7280  138.2650 C   0  0  1  0  0  3  0  0  0  0  0  0
  189.3500  174.6230  136.4440 O   0  0  0  0  0  0  0  0  0  0  0  0
  190.5900  174.0710  136.0540 C   0  0  0  0  0  2  0  0  0  0  0  0
  190.9940  175.2680  138.0630 C   0  0  2  0  0  3  0  0  0  0  0  0
  193.3510  174.0580  135.6890 O   0  0  0  0  0  0  0  0  0  0  0  0
  193.9790  174.3730  137.9170 N   0  0  0  0  0  2  0  0  0  0  0  0
  192.9970  174.1830  136.8930 C   0  0  0  0  0  0  0  0  0  0  0  0
  196.1030  173.1480  137.8080 C   0  0  2  0  0  3  0  0  0  0  0  0
  196.7750  174.6890  139.8950 O   0  0  0  0  0  0  0  0  0  0  0  0
  195.4080  174.3890  137.6390 C   0  0  1  0  0  0  0  0  0  0  0  0
  195.8600  175.3000  136.6820 O   0  0  0  0  0  1  0  0  0  0  0  0
  196.2880  174.2560  138.8670 C   0  0  0  0  0  0  0  0  0  0  0  0
  197.3720  173.0410  136.9740 C   0  0  0  0  0  2  0  0  0  0  0  0
  196.5890  172.5500  134.8020 O   0  0  0  0  0  0  0  0  0  0  0  0
  197.1510  172.1390  135.8050 C   0  0  0  0  0  3  0  0  0  0  0  0
  185.5080  179.8890  140.4760 O   0  0  0  0  0  0  0  0  0  0  0  0
  184.8940  179.3530  139.3910 N   0  0  0  0  0  2  0  0  0  0  0  0
  183.7300  180.1020  139.1680 N   0  0  0  0  0  2  0  0  0  0  0  0
  181.6830  179.8950  137.9140 C   0  0  0  0  0  2  0  0  0  0  0  0
  182.4610  179.4880  138.9160 C   0  0  0  0  0  0  0  0  0  0  0  0
  181.9840  178.4000  139.8120 C   0  0  0  0  0  2  0  0  0  0  0  0
  180.7090  177.7860  139.2540 C   0  0  0  0  0  2  0  0  0  0  0  0
  180.8340  176.2870  138.9750 C   0  0  1  0  0  3  0  0  0  0  0  0
  182.8800  175.5610  137.6510 C   0  0  1  0  0  0  0  0  0  0  0  0
  181.9210  175.0680  136.7320 O   0  0  0  0  0  0  0  0  0  0  0  0
  180.0700  175.8400  137.8720 O   0  0  0  0  0  0  0  0  0  0  0  0
  180.8450  175.9730  136.7030 C   0  0  0  0  0  2  0  0  0  0  0  0
  183.3750  176.7830  137.2230 F   0  0  0  0  0  0  0  0  0  0  0  0
  182.2610  175.7170  139.0450 C   0  0  0  0  0  2  0  0  0  0  0  0
  184.3390  173.9330  136.5770 O   0  0  0  0  0  0  0  0  0  0  0  0
  185.2060  174.9830  136.9300 C   0  0  0  0  0  2  0  0  0  0  0  0
  184.0660  174.5940  137.7910 C   0  0  1  0  0  3  0  0  0  0  0  0
  1 42  1  6  0  0  0
  2  4  1  0  0  0  0
  2  7  1  1  0  0  0
  3  4  1  0  0  0  0
  5  1  1  6  0  0  0
  5  6  1  0  0  0  0
  5  2  1  0  0  0  0
  6  4  1  0  0  0  0
  9 13  1  0  0  0  0
 10  8  1  0  0  0  0
 11 10  2  0  0  0  0
 12  9  2  0  0  0  0
 12 11  1  0  0  0  0
 13  7  1  0  0  0  0
 13  8  2  0  0  0  0
 14 11  1  0  0  0  0
 15 16  1  0  0  0  0
 16 14  1  0  0  0  0
 17  1  1  0  0  0  0
 17 18  2  0  0  0  0
 19 17  1  0  0  0  0
 20 33  1  6  0  0  0
 20 30  1  0  0  0  0
 21 28  1  6  0  0  0
 21 22  1  0  0  0  0
 21 30  1  0  0  0  0
 22 27  1  0  0  0  0
 22 23  1  0  0  0  0
 23 19  1  0  0  0  0
 24 30  1  0  0  0  0
 24 25  1  0  0  0  0
 26 24  2  0  0  0  0
 27 25  1  0  0  0  0
 27 23  1  0  0  0  0
 29 28  1  0  0  0  0
 29 20  1  0  0  0  0
 31 33  2  0  0  0  0
 33 32  1  0  0  0  0
 34 38  1  0  0  0  0
 36 34  1  0  0  0  0
 36 32  1  0  0  0  0
 36 38  1  0  0  0  0
 37 36  1  0  0  0  0
 38 35  2  0  0  0  0
 39 34  1  0  0  0  0
 40 41  2  0  0  0  0
 41 39  1  0  0  0  0
 43 42  1  0  0  0  0
 44 43  1  0  0  0  0
 45 46  2  0  0  0  0
 46 44  1  0  0  0  0
 46 47  1  0  0  0  0
 48 47  1  0  0  0  0
 49 55  1  0  0  0  0
 49 48  1  0  0  0  0
 50 58  1  0  0  0  0
 50 55  1  0  0  0  0
 51 50  1  0  0  0  0
 52 49  1  0  0  0  0
 53 51  1  0  0  0  0
 53 52  1  0  0  0  0
 54 50  1  0  0  0  0
 56 57  1  0  0  0  0
 56 58  1  0  0  0  0
 57 58  1  0  0  0  0
M  END
>  <MODEL>
3

>  <REMARK>
 VINA RESULT:      -7.3      2.454      3.167
  Name = 
  19 active torsions:
  status: ('A' for Active; 'I' for Inactive)
    1  A    between atoms: N_1  and  N_6
    2  A    between atoms: N_1  and  C_57
    3  A    between atoms: C_2  and  C_46
    4  A    between atoms: C_3  and  C_5
    5  A    between atoms: C_3  and  C_22
    6  A    between atoms: N_6  and  O_56
    7  A    between atoms: C_7  and  C_38
    8  A    between atoms: C_9  and  C_51
    9  A    between atoms: C_14  and  C_35
   10  A    between atoms: C_17  and  N_54
   11  A    between atoms: C_22  and  C_57
   12  A    between atoms: C_27  and  C_43
   13  A    between atoms: C_28  and  C_43
   14  A    between atoms: C_30  and  N_42
   15  A    between atoms: C_32  and  C_35
   16  A    between atoms: C_37  and  C_39
   17  A    between atoms: C_37  and  O_45
   18  A    between atoms: C_38  and  C_49
   19  A    between atoms: C_43  and  O_56
                            x       y       z     vdW  Elec       q    Type
                         _______ _______ _______ _____ _____    ______ ____

>  <TORSDO>
F 19

$$$$
=
 OpenBabel10232409593D

 58 65  0  0  1  0  0  0  0  0999 V2000
  186.2160  178.6520  141.6080 C   0  0  2  0  0  3  0  0  0  0  0  0
  185.1570  178.0150  143.7800 C   0  0  1  0  0  3  0  0  0  0  0  0
  183.1160  178.9050  143.2030 N   0  0  0  0  0  1  0  0  0  0  0  0
  184.2130  179.0920  144.0560 N   0  0  0  0  0  0  0  0  0  0  0  0
  186.1470  178.9420  143.1030 C   0  0  2  0  0  3  0  0  0  0  0  0
  185.1200  180.0170  143.3860 C   0  0  0  0  0  2  0  0  0  0  0  0
  185.7530  177.4940  145.0800 C   0  0  0  0  0  2  0  0  0  0  0  0
  187.7870  176.4410  144.0730 C   0  0  0  0  0  3  0  0  0  0  0  0
  188.0700  178.1400  145.7790 C   0  0  0  0  0  3  0  0  0  0  0  0
  189.1750  176.2900  143.9930 C   0  0  0  0  0  3  0  0  0  0  0  0
  190.0120  177.0600  144.8110 C   0  0  0  0  0  0  0  0  0  0  0  0
  189.4590  177.9900  145.6960 C   0  0  0  0  0  3  0  0  0  0  0  0
  187.2330  177.3600  144.9710 C   0  0  0  0  0  0  0  0  0  0  0  0
  191.4910  176.8930  144.7330 C   0  0  0  0  0  2  0  0  0  0  0  0
  192.1210  175.7070  146.4830 C   0  0  0  0  0  1  0  0  0  0  0  0
  192.0540  177.0170  146.0060 O   0  0  0  0  0  0  0  0  0  0  0  0
  187.5830  178.1810  141.2190 C   0  0  0  0  0  0  0  0  0  0  0  0
  188.6010  178.5870  141.8470 O   0  0  0  0  0  0  0  0  0  0  0  0
  187.7220  177.2790  140.1240 N   0  0  0  0  0  2  0  0  0  0  0  0
  192.1020  175.1290  136.8830 C   0  0  2  0  0  3  0  0  0  0  0  0
  190.1420  176.1720  137.5410 C   0  0  1  0  0  3  0  0  0  0  0  0
  189.3500  177.2360  138.3370 C   0  0  1  0  0  3  0  0  0  0  0  0
  189.0110  176.7400  139.7290 C   0  0  1  0  0  3  0  0  0  0  0  0
  192.1240  176.7840  138.8480 C   0  0  0  0  0  0  0  0  0  0  0  0
  191.3960  177.3840  139.9950 C   0  0  0  0  0  2  0  0  0  0  0  0
  193.1960  177.2490  138.4900 O   0  0  0  0  0  0  0  0  0  0  0  0
  190.0080  177.8820  139.5760 C   0  0  1  0  0  3  0  0  0  0  0  0
  190.3760  176.6200  136.2230 O   0  0  0  0  0  0  0  0  0  0  0  0
  191.6090  176.0700  135.8080 C   0  0  0  0  0  2  0  0  0  0  0  0
  191.4390  175.6470  138.1370 C   0  0  2  0  0  3  0  0  0  0  0  0
  194.3340  175.6750  136.2460 O   0  0  0  0  0  0  0  0  0  0  0  0
  194.1620  173.9230  137.7820 N   0  0  0  0  0  2  0  0  0  0  0  0
  193.5900  174.9350  136.9450 C   0  0  0  0  0  0  0  0  0  0  0  0
  196.2010  173.1730  136.6410 C   0  0  2  0  0  3  0  0  0  0  0  0
  196.0510  171.1040  138.3380 O   0  0  0  0  0  0  0  0  0  0  0  0
  195.5940  173.6710  137.8390 C   0  0  1  0  0  0  0  0  0  0  0  0
  196.3460  174.4670  138.7060 O   0  0  0  0  0  1  0  0  0  0  0  0
  195.9740  172.2030  137.8210 C   0  0  0  0  0  0  0  0  0  0  0  0
  197.6860  173.4870  136.5350 C   0  0  0  0  0  2  0  0  0  0  0  0
  198.4540  175.6620  136.0340 O   0  0  0  0  0  0  0  0  0  0  0  0
  197.9090  174.6490  135.6250 C   0  0  0  0  0  3  0  0  0  0  0  0
  185.8850  179.8030  140.8870 O   0  0  0  0  0  0  0  0  0  0  0  0
  184.7960  179.4570  140.1560 N   0  0  0  0  0  2  0  0  0  0  0  0
  185.2260  179.3000  138.8310 N   0  0  0  0  0  2  0  0  0  0  0  0
  183.7930  177.4560  138.2330 C   0  0  0  0  0  2  0  0  0  0  0  0
  184.9340  178.1240  138.0660 C   0  0  0  0  0  0  0  0  0  0  0  0
  185.9380  177.6180  137.0910 C   0  0  0  0  0  2  0  0  0  0  0  0
  185.2410  177.1280  135.8310 C   0  0  0  0  0  2  0  0  0  0  0  0
  185.7550  175.7710  135.3470 C   0  0  1  0  0  3  0  0  0  0  0  0
  184.5780  173.7240  136.2930 C   0  0  1  0  0  0  0  0  0  0  0  0
  185.8690  173.3950  136.7750 O   0  0  0  0  0  0  0  0  0  0  0  0
  186.9070  175.3140  136.0260 O   0  0  0  0  0  0  0  0  0  0  0  0
  186.5030  174.5900  137.1640 C   0  0  0  0  0  2  0  0  0  0  0  0
  183.8150  174.2920  137.3020 F   0  0  0  0  0  0  0  0  0  0  0  0
  184.6760  174.6990  135.1130 C   0  0  0  0  0  2  0  0  0  0  0  0
  184.6350  171.3210  135.9040 O   0  0  0  0  0  0  0  0  0  0  0  0
  183.6190  171.4840  136.8630 C   0  0  0  0  0  2  0  0  0  0  0  0
  183.8390  172.4770  135.7860 C   0  0  1  0  0  3  0  0  0  0  0  0
  1 42  1  6  0  0  0
  2  4  1  0  0  0  0
  2  7  1  1  0  0  0
  3  4  1  0  0  0  0
  5  1  1  6  0  0  0
  5  6  1  0  0  0  0
  5  2  1  0  0  0  0
  6  4  1  0  0  0  0
  8 13  1  0  0  0  0
 10  8  2  0  0  0  0
 10 11  1  0  0  0  0
 11 12  2  0  0  0  0
 12  9  1  0  0  0  0
 13  7  1  0  0  0  0
 13  9  2  0  0  0  0
 14 11  1  0  0  0  0
 14 16  1  0  0  0  0
 16 15  1  0  0  0  0
 17  1  1  0  0  0  0
 17 18  2  0  0  0  0
 19 17  1  0  0  0  0
 20 33  1  1  0  0  0
 20 30  1  0  0  0  0
 21 28  1  6  0  0  0
 21 30  1  0  0  0  0
 21 22  1  0  0  0  0
 22 27  1  0  0  0  0
 22 23  1  0  0  0  0
 23 19  1  0  0  0  0
 24 25  1  0  0  0  0
 26 24  2  0  0  0  0
 27 23  1  0  0  0  0
 27 25  1  0  0  0  0
 29 28  1  0  0  0  0
 29 20  1  0  0  0  0
 30 24  1  0  0  0  0
 31 33  2  0  0  0  0
 32 36  1  0  0  0  0
 33 32  1  0  0  0  0
 34 38  1  0  0  0  0
 34 36  1  0  0  0  0
 36 37  1  0  0  0  0
 38 36  1  0  0  0  0
 38 35  2  0  0  0  0
 39 34  1  0  0  0  0
 41 40  2  0  0  0  0
 41 39  1  0  0  0  0
 43 42  1  0  0  0  0
 44 43  1  0  0  0  0
 46 45  2  0  0  0  0
 46 44  1  0  0  0  0
 47 46  1  0  0  0  0
 48 47  1  0  0  0  0
 49 48  1  0  0  0  0
 49 52  1  0  0  0  0
 50 51  1  0  0  0  0
 50 54  1  0  0  0  0
 51 53  1  0  0  0  0
 52 53  1  0  0  0  0
 55 49  1  0  0  0  0
 55 50  1  0  0  0  0
 56 57  1  0  0  0  0
 58 56  1  0  0  0  0
 58 50  1  0  0  0  0
 58 57  1  0  0  0  0
M  END
>  <MODEL>
4

>  <REMARK>
 VINA RESULT:      -7.3      1.593      2.005
  Name = 
  19 active torsions:
  status: ('A' for Active; 'I' for Inactive)
    1  A    between atoms: N_1  and  N_6
    2  A    between atoms: N_1  and  C_57
    3  A    between atoms: C_2  and  C_46
    4  A    between atoms: C_3  and  C_5
    5  A    between atoms: C_3  and  C_22
    6  A    between atoms: N_6  and  O_56
    7  A    between atoms: C_7  and  C_38
    8  A    between atoms: C_9  and  C_51
    9  A    between atoms: C_14  and  C_35
   10  A    between atoms: C_17  and  N_54
   11  A    between atoms: C_22  and  C_57
   12  A    between atoms: C_27  and  C_43
   13  A    between atoms: C_28  and  C_43
   14  A    between atoms: C_30  and  N_42
   15  A    between atoms: C_32  and  C_35
   16  A    between atoms: C_37  and  C_39
   17  A    between atoms: C_37  and  O_45
   18  A    between atoms: C_38  and  C_49
   19  A    between atoms: C_43  and  O_56
                            x       y       z     vdW  Elec       q    Type
                         _______ _______ _______ _____ _____    ______ ____

>  <TORSDO>
F 19

$$$$
=
 OpenBabel10232409593D

 58 65  0  0  1  0  0  0  0  0999 V2000
  185.8280  178.7690  141.5010 C   0  0  2  0  0  3  0  0  0  0  0  0
  185.3930  177.9370  143.8170 C   0  0  1  0  0  3  0  0  0  0  0  0
  183.1900  178.5970  143.7870 N   0  0  0  0  0  1  0  0  0  0  0  0
  184.4330  178.8840  144.3710 N   0  0  0  0  0  0  0  0  0  0  0  0
  186.0880  178.9980  142.9860 C   0  0  2  0  0  3  0  0  0  0  0  0
  185.0480  179.9320  143.5650 C   0  0  0  0  0  2  0  0  0  0  0  0
  186.3350  177.4460  144.9070 C   0  0  0  0  0  2  0  0  0  0  0  0
  188.7480  178.0850  144.7350 C   0  0  0  0  0  3  0  0  0  0  0  0
  187.9510  176.1710  143.4790 C   0  0  0  0  0  3  0  0  0  0  0  0
  190.0280  177.9000  144.2040 C   0  0  0  0  0  3  0  0  0  0  0  0
  190.2700  176.8540  143.3040 C   0  0  0  0  0  0  0  0  0  0  0  0
  189.2330  175.9850  142.9510 C   0  0  0  0  0  3  0  0  0  0  0  0
  187.7060  177.2260  144.3670 C   0  0  0  0  0  0  0  0  0  0  0  0
  191.6320  176.6620  142.7300 C   0  0  0  0  0  2  0  0  0  0  0  0
  191.4950  177.3450  140.6370 C   0  0  0  0  0  1  0  0  0  0  0  0
  191.9550  177.7350  141.8960 O   0  0  0  0  0  0  0  0  0  0  0  0
  187.1020  178.4560  140.7800 C   0  0  0  0  0  0  0  0  0  0  0  0
  188.2130  178.8140  141.2620 O   0  0  0  0  0  0  0  0  0  0  0  0
  187.0440  177.7620  139.5360 N   0  0  0  0  0  2  0  0  0  0  0  0
  191.0680  174.5620  136.7290 C   0  0  2  0  0  3  0  0  0  0  0  0
  189.0920  175.2680  137.7090 C   0  0  1  0  0  3  0  0  0  0  0  0
  187.9040  176.2470  137.8600 C   0  0  1  0  0  3  0  0  0  0  0  0
  188.2420  177.3780  138.8120 C   0  0  1  0  0  3  0  0  0  0  0  0
  190.1680  176.9210  136.2520 C   0  0  0  0  0  0  0  0  0  0  0  0
  189.4120  178.1010  136.7430 C   0  0  0  0  0  2  0  0  0  0  0  0
  190.4960  176.8460  135.0770 O   0  0  0  0  0  0  0  0  0  0  0  0
  188.0580  177.6910  137.3320 C   0  0  1  0  0  3  0  0  0  0  0  0
  188.7300  174.1810  136.8840 O   0  0  0  0  0  0  0  0  0  0  0  0
  189.8950  173.7680  136.2030 C   0  0  0  0  0  2  0  0  0  0  0  0
  190.4310  175.8260  137.2530 C   0  0  2  0  0  3  0  0  0  0  0  0
  192.0320  174.5160  134.5480 O   0  0  0  0  0  0  0  0  0  0  0  0
  193.5040  175.1450  136.2500 N   0  0  0  0  0  2  0  0  0  0  0  0
  192.2160  174.7360  135.7760 C   0  0  0  0  0  0  0  0  0  0  0  0
  195.8260  175.8780  135.9420 C   0  0  2  0  0  3  0  0  0  0  0  0
  194.7310  177.7330  134.3480 O   0  0  0  0  0  0  0  0  0  0  0  0
  194.6550  175.2840  135.3700 C   0  0  1  0  0  0  0  0  0  0  0  0
  194.7960  174.3380  134.3520 O   0  0  0  0  0  1  0  0  0  0  0  0
  194.9680  176.7130  134.9670 C   0  0  0  0  0  0  0  0  0  0  0  0
  197.1170  175.4730  135.2450 C   0  0  0  0  0  2  0  0  0  0  0  0
  198.0780  175.2960  137.3940 O   0  0  0  0  0  0  0  0  0  0  0  0
  198.0900  174.9190  136.2320 C   0  0  0  0  0  3  0  0  0  0  0  0
  185.2320  179.9050  140.9440 O   0  0  0  0  0  0  0  0  0  0  0  0
  184.7400  179.4920  139.7490 N   0  0  0  0  0  2  0  0  0  0  0  0
  183.3540  179.3520  139.9030 N   0  0  0  0  0  2  0  0  0  0  0  0
  181.7610  177.6000  140.3510 C   0  0  0  0  0  2  0  0  0  0  0  0
  182.6600  178.1530  139.5380 C   0  0  0  0  0  0  0  0  0  0  0  0
  182.9750  177.4900  138.2430 C   0  0  0  0  0  2  0  0  0  0  0  0
  181.9060  176.4610  137.9100 C   0  0  0  0  0  2  0  0  0  0  0  0
  182.3810  175.0180  138.0910 C   0  0  1  0  0  3  0  0  0  0  0  0
  183.8580  174.0850  136.2430 C   0  0  1  0  0  0  0  0  0  0  0  0
  182.8260  173.1230  136.1140 O   0  0  0  0  0  0  0  0  0  0  0  0
  181.4310  174.0450  137.7020 O   0  0  0  0  0  0  0  0  0  0  0  0
  181.5980  173.7740  136.3310 C   0  0  0  0  0  2  0  0  0  0  0  0
  183.7280  175.0650  135.2700 F   0  0  0  0  0  0  0  0  0  0  0  0
  183.8210  174.7330  137.6330 C   0  0  0  0  0  2  0  0  0  0  0  0
  185.3090  172.6370  134.9270 O   0  0  0  0  0  0  0  0  0  0  0  0
  185.9300  173.8970  134.8520 C   0  0  0  0  0  2  0  0  0  0  0  0
  185.2430  173.4410  136.0820 C   0  0  1  0  0  3  0  0  0  0  0  0
  1 17  1  6  0  0  0
  2  4  1  0  0  0  0
  2  7  1  1  0  0  0
  3  4  1  0  0  0  0
  5  1  1  6  0  0  0
  5  6  1  0  0  0  0
  5  2  1  0  0  0  0
  6  4  1  0  0  0  0
  9 13  2  0  0  0  0
 10  8  2  0  0  0  0
 11 10  1  0  0  0  0
 12 11  2  0  0  0  0
 12  9  1  0  0  0  0
 13  8  1  0  0  0  0
 13  7  1  0  0  0  0
 14 11  1  0  0  0  0
 15 16  1  0  0  0  0
 16 14  1  0  0  0  0
 17 18  2  0  0  0  0
 19 17  1  0  0  0  0
 20 33  1  6  0  0  0
 20 30  1  0  0  0  0
 21 28  1  6  0  0  0
 21 22  1  0  0  0  0
 22 23  1  0  0  0  0
 23 19  1  0  0  0  0
 24 25  1  0  0  0  0
 24 30  1  0  0  0  0
 25 27  1  0  0  0  0
 26 24  2  0  0  0  0
 27 22  1  0  0  0  0
 27 23  1  0  0  0  0
 29 20  1  0  0  0  0
 29 28  1  0  0  0  0
 30 21  1  0  0  0  0
 31 33  2  0  0  0  0
 33 32  1  0  0  0  0
 35 38  2  0  0  0  0
 36 34  1  0  0  0  0
 36 32  1  0  0  0  0
 37 36  1  0  0  0  0
 38 36  1  0  0  0  0
 38 34  1  0  0  0  0
 39 34  1  0  0  0  0
 39 41  1  0  0  0  0
 41 40  2  0  0  0  0
 42  1  1  0  0  0  0
 43 44  1  0  0  0  0
 43 42  1  0  0  0  0
 46 44  1  0  0  0  0
 46 45  2  0  0  0  0
 47 46  1  0  0  0  0
 48 49  1  0  0  0  0
 48 47  1  0  0  0  0
 50 55  1  0  0  0  0
 51 50  1  0  0  0  0
 51 53  1  0  0  0  0
 52 49  1  0  0  0  0
 53 52  1  0  0  0  0
 54 50  1  0  0  0  0
 55 49  1  0  0  0  0
 56 58  1  0  0  0  0
 57 56  1  0  0  0  0
 57 58  1  0  0  0  0
 58 50  1  0  0  0  0
M  END
>  <MODEL>
5

>  <REMARK>
 VINA RESULT:      -7.1      2.481      3.505
  Name = 
  19 active torsions:
  status: ('A' for Active; 'I' for Inactive)
    1  A    between atoms: N_1  and  N_6
    2  A    between atoms: N_1  and  C_57
    3  A    between atoms: C_2  and  C_46
    4  A    between atoms: C_3  and  C_5
    5  A    between atoms: C_3  and  C_22
    6  A    between atoms: N_6  and  O_56
    7  A    between atoms: C_7  and  C_38
    8  A    between atoms: C_9  and  C_51
    9  A    between atoms: C_14  and  C_35
   10  A    between atoms: C_17  and  N_54
   11  A    between atoms: C_22  and  C_57
   12  A    between atoms: C_27  and  C_43
   13  A    between atoms: C_28  and  C_43
   14  A    between atoms: C_30  and  N_42
   15  A    between atoms: C_32  and  C_35
   16  A    between atoms: C_37  and  C_39
   17  A    between atoms: C_37  and  O_45
   18  A    between atoms: C_38  and  C_49
   19  A    between atoms: C_43  and  O_56
                            x       y       z     vdW  Elec       q    Type
                         _______ _______ _______ _____ _____    ______ ____

>  <TORSDO>
F 19

$$$$
=
 OpenBabel10232409593D

 58 65  0  0  1  0  0  0  0  0999 V2000
  188.6970  177.3350  141.4860 C   0  0  2  0  0  3  0  0  0  0  0  0
  188.4010  177.7660  143.9300 C   0  0  1  0  0  3  0  0  0  0  0  0
  190.4780  178.7300  144.1520 N   0  0  0  0  0  1  0  0  0  0  0  0
  189.7340  177.5920  144.4960 N   0  0  0  0  0  0  0  0  0  0  0  0
  188.6190  176.7030  142.8710 C   0  0  2  0  0  3  0  0  0  0  0  0
  190.0020  176.5850  143.4760 C   0  0  0  0  0  2  0  0  0  0  0  0
  187.3450  177.2920  144.9180 C   0  0  0  0  0  2  0  0  0  0  0  0
  185.1830  178.3210  145.6420 C   0  0  0  0  0  3  0  0  0  0  0  0
  185.5920  177.9990  143.2750 C   0  0  0  0  0  3  0  0  0  0  0  0
  183.9220  178.8510  145.3520 C   0  0  0  0  0  3  0  0  0  0  0  0
  183.4910  178.9490  144.0230 C   0  0  0  0  0  0  0  0  0  0  0  0
  184.3310  178.5310  142.9860 C   0  0  0  0  0  3  0  0  0  0  0  0
  186.0160  177.8880  144.6050 C   0  0  0  0  0  0  0  0  0  0  0  0
  182.1430  179.5040  143.7140 C   0  0  0  0  0  2  0  0  0  0  0  0
  180.0510  178.8410  143.4910 C   0  0  0  0  0  1  0  0  0  0  0  0
  181.3540  178.5290  143.0980 O   0  0  0  0  0  0  0  0  0  0  0  0
  190.0420  177.1040  140.8700 C   0  0  0  0  0  0  0  0  0  0  0  0
  191.0510  177.7440  141.2820 O   0  0  0  0  0  0  0  0  0  0  0  0
  190.1670  176.1650  139.8050 N   0  0  0  0  0  2  0  0  0  0  0  0
  194.3110  173.6190  136.5420 C   0  0  2  0  0  3  0  0  0  0  0  0
  192.2630  174.2890  137.3890 C   0  0  1  0  0  3  0  0  0  0  0  0
  191.2220  175.3640  137.7830 C   0  0  1  0  0  3  0  0  0  0  0  0
  191.4490  175.8520  139.2010 C   0  0  1  0  0  3  0  0  0  0  0  0
  193.9000  176.0920  137.1020 C   0  0  0  0  0  0  0  0  0  0  0  0
  193.2100  177.0890  137.9590 C   0  0  0  0  0  2  0  0  0  0  0  0
  194.5130  176.4550  136.1080 O   0  0  0  0  0  0  0  0  0  0  0  0
  191.7060  176.8080  138.0430 C   0  0  1  0  0  3  0  0  0  0  0  0
  191.9850  173.7900  136.0970 O   0  0  0  0  0  0  0  0  0  0  0  0
  193.2210  173.4420  135.5100 C   0  0  0  0  0  2  0  0  0  0  0  0
  193.7370  174.6450  137.4880 C   0  0  2  0  0  3  0  0  0  0  0  0
  195.8730  173.8360  134.7530 O   0  0  0  0  0  0  0  0  0  0  0  0
  196.7620  174.2400  136.8750 N   0  0  0  0  0  2  0  0  0  0  0  0
  195.6820  173.9020  135.9980 C   0  0  0  0  0  0  0  0  0  0  0  0
  198.9500  173.3250  136.2440 C   0  0  2  0  0  3  0  0  0  0  0  0
  199.8020  174.5970  138.4430 O   0  0  0  0  0  0  0  0  0  0  0  0
  198.1150  174.4800  136.3960 C   0  0  1  0  0  0  0  0  0  0  0  0
  198.3070  175.5780  135.5550 O   0  0  0  0  0  1  0  0  0  0  0  0
  199.1970  174.2710  137.4390 C   0  0  0  0  0  0  0  0  0  0  0  0
  200.0660  173.5110  135.2250 C   0  0  0  0  0  2  0  0  0  0  0  0
  200.1780  171.1790  134.8730 O   0  0  0  0  0  0  0  0  0  0  0  0
  200.2000  172.2930  134.3730 C   0  0  0  0  0  3  0  0  0  0  0  0
  188.4430  178.7070  141.5770 O   0  0  0  0  0  0  0  0  0  0  0  0
  188.1080  179.0850  140.3180 N   0  0  0  0  0  2  0  0  0  0  0  0
  186.7710  178.7140  140.1210 N   0  0  0  0  0  2  0  0  0  0  0  0
  187.0000  177.6330  137.9790 C   0  0  0  0  0  2  0  0  0  0  0  0
  186.2610  178.3380  138.8360 C   0  0  0  0  0  0  0  0  0  0  0  0
  184.8950  178.7720  138.4350 C   0  0  0  0  0  2  0  0  0  0  0  0
  184.1140  179.2300  139.6560 C   0  0  0  0  0  2  0  0  0  0  0  0
  182.7300  178.5880  139.7630 C   0  0  1  0  0  3  0  0  0  0  0  0
  181.9240  177.3150  137.7140 C   0  0  1  0  0  0  0  0  0  0  0  0
  180.8600  178.2500  137.7410 O   0  0  0  0  0  0  0  0  0  0  0  0
  181.6590  179.4800  139.5200 O   0  0  0  0  0  0  0  0  0  0  0  0
  181.3860  179.4930  138.1390 C   0  0  0  0  0  2  0  0  0  0  0  0
  182.8710  177.6880  136.7720 F   0  0  0  0  0  0  0  0  0  0  0  0
  182.5850  177.2110  139.0940 C   0  0  0  0  0  2  0  0  0  0  0  0
  182.2160  175.3230  136.3440 O   0  0  0  0  0  0  0  0  0  0  0  0
  182.4220  174.8630  137.6560 C   0  0  0  0  0  2  0  0  0  0  0  0
  181.4220  175.9100  137.3480 C   0  0  1  0  0  3  0  0  0  0  0  0
  1 17  1  1  0  0  0
  1 42  1  0  0  0  0
  2  4  1  0  0  0  0
  2  7  1  1  0  0  0
  3  4  1  0  0  0  0
  5  1  1  6  0  0  0
  5  6  1  0  0  0  0
  5  2  1  0  0  0  0
  6  4  1  0  0  0  0
  9 13  1  0  0  0  0
 10  8  1  0  0  0  0
 11 10  2  0  0  0  0
 12  9  2  0  0  0  0
 12 11  1  0  0  0  0
 13  7  1  0  0  0  0
 13  8  2  0  0  0  0
 14 11  1  0  0  0  0
 16 15  1  0  0  0  0
 16 14  1  0  0  0  0
 17 18  2  0  0  0  0
 19 17  1  0  0  0  0
 20 33  1  6  0  0  0
 20 30  1  0  0  0  0
 21 28  1  6  0  0  0
 21 30  1  0  0  0  0
 21 22  1  0  0  0  0
 22 27  1  0  0  0  0
 22 23  1  0  0  0  0
 23 19  1  0  0  0  0
 24 30  1  0  0  0  0
 24 25  1  0  0  0  0
 25 27  1  0  0  0  0
 26 24  2  0  0  0  0
 27 23  1  0  0  0  0
 29 28  1  0  0  0  0
 29 20  1  0  0  0  0
 31 33  2  0  0  0  0
 33 32  1  0  0  0  0
 34 36  1  0  0  0  0
 34 38  1  0  0  0  0
 36 32  1  0  0  0  0
 36 38  1  0  0  0  0
 37 36  1  0  0  0  0
 38 35  2  0  0  0  0
 39 34  1  0  0  0  0
 41 40  2  0  0  0  0
 41 39  1  0  0  0  0
 43 42  1  0  0  0  0
 44 43  1  0  0  0  0
 45 46  2  0  0  0  0
 46 44  1  0  0  0  0
 47 46  1  0  0  0  0
 47 48  1  0  0  0  0
 48 49  1  0  0  0  0
 50 51  1  0  0  0  0
 50 55  1  0  0  0  0
 51 53  1  0  0  0  0
 52 49  1  0  0  0  0
 53 52  1  0  0  0  0
 54 50  1  0  0  0  0
 55 49  1  0  0  0  0
 56 58  1  0  0  0  0
 56 57  1  0  0  0  0
 58 57  1  0  0  0  0
 58 50  1  0  0  0  0
M  END
>  <MODEL>
6

>  <REMARK>
 VINA RESULT:      -7.0      2.925      5.140
  Name = 
  19 active torsions:
  status: ('A' for Active; 'I' for Inactive)
    1  A    between atoms: N_1  and  N_6
    2  A    between atoms: N_1  and  C_57
    3  A    between atoms: C_2  and  C_46
    4  A    between atoms: C_3  and  C_5
    5  A    between atoms: C_3  and  C_22
    6  A    between atoms: N_6  and  O_56
    7  A    between atoms: C_7  and  C_38
    8  A    between atoms: C_9  and  C_51
    9  A    between atoms: C_14  and  C_35
   10  A    between atoms: C_17  and  N_54
   11  A    between atoms: C_22  and  C_57
   12  A    between atoms: C_27  and  C_43
   13  A    between atoms: C_28  and  C_43
   14  A    between atoms: C_30  and  N_42
   15  A    between atoms: C_32  and  C_35
   16  A    between atoms: C_37  and  C_39
   17  A    between atoms: C_37  and  O_45
   18  A    between atoms: C_38  and  C_49
   19  A    between atoms: C_43  and  O_56
                            x       y       z     vdW  Elec       q    Type
                         _______ _______ _______ _____ _____    ______ ____

>  <TORSDO>
F 19

$$$$
=
 OpenBabel10232409593D

 58 65  0  0  1  0  0  0  0  0999 V2000
  188.8050  177.1870  141.2950 C   0  0  2  0  0  3  0  0  0  0  0  0
  188.4070  177.9540  143.6400 C   0  0  1  0  0  3  0  0  0  0  0  0
  190.3940  179.1070  143.7460 N   0  0  0  0  0  1  0  0  0  0  0  0
  189.7330  177.9770  144.2470 N   0  0  0  0  0  0  0  0  0  0  0  0
  188.7380  176.7660  142.7590 C   0  0  2  0  0  3  0  0  0  0  0  0
  190.1080  176.8530  143.3970 C   0  0  0  0  0  2  0  0  0  0  0  0
  187.3650  177.5480  144.6720 C   0  0  0  0  0  2  0  0  0  0  0  0
  185.2340  178.7540  145.1850 C   0  0  0  0  0  3  0  0  0  0  0  0
  185.5040  177.7320  143.0040 C   0  0  0  0  0  3  0  0  0  0  0  0
  183.9480  179.1750  144.8280 C   0  0  0  0  0  3  0  0  0  0  0  0
  183.4380  178.8690  143.5600 C   0  0  0  0  0  0  0  0  0  0  0  0
  184.2200  178.1560  142.6470 C   0  0  0  0  0  3  0  0  0  0  0  0
  186.0090  178.0260  144.2770 C   0  0  0  0  0  0  0  0  0  0  0  0
  182.0650  179.3090  143.1820 C   0  0  0  0  0  2  0  0  0  0  0  0
  180.5350  178.4340  141.8550 C   0  0  0  0  0  1  0  0  0  0  0  0
  181.8130  178.9960  141.8440 O   0  0  0  0  0  0  0  0  0  0  0  0
  190.1590  176.9060  140.7220 C   0  0  0  0  0  0  0  0  0  0  0  0
  191.1970  177.3490  141.2880 O   0  0  0  0  0  0  0  0  0  0  0  0
  190.2600  176.1430  139.5210 N   0  0  0  0  0  2  0  0  0  0  0  0
  194.4390  173.2760  136.5850 C   0  0  2  0  0  3  0  0  0  0  0  0
  192.3820  173.9960  137.3680 C   0  0  1  0  0  3  0  0  0  0  0  0
  191.3090  175.0810  137.6200 C   0  0  1  0  0  3  0  0  0  0  0  0
  191.5430  175.7870  138.9420 C   0  0  1  0  0  3  0  0  0  0  0  0
  193.9460  175.7900  136.7740 C   0  0  0  0  0  0  0  0  0  0  0  0
  193.2340  176.8810  137.4870 C   0  0  0  0  0  2  0  0  0  0  0  0
  194.5260  176.0180  135.7230 O   0  0  0  0  0  0  0  0  0  0  0  0
  191.7430  176.5640  137.6470 C   0  0  1  0  0  3  0  0  0  0  0  0
  192.1010  173.2970  136.1730 O   0  0  0  0  0  0  0  0  0  0  0  0
  193.3380  172.9070  135.6170 C   0  0  0  0  0  2  0  0  0  0  0  0
  193.8440  174.4130  137.3780 C   0  0  2  0  0  3  0  0  0  0  0  0
  195.9620  173.2640  134.7500 O   0  0  0  0  0  0  0  0  0  0  0  0
  196.8670  174.0340  136.7620 N   0  0  0  0  0  2  0  0  0  0  0  0
  195.7880  173.5200  135.9720 C   0  0  0  0  0  0  0  0  0  0  0  0
  199.0950  173.1260  136.2760 C   0  0  2  0  0  3  0  0  0  0  0  0
  199.8970  174.8360  138.1770 O   0  0  0  0  0  0  0  0  0  0  0  0
  198.2020  174.2450  136.2210 C   0  0  1  0  0  0  0  0  0  0  0  0
  198.3290  175.1700  135.1830 O   0  0  0  0  0  1  0  0  0  0  0  0
  199.3020  174.2940  137.2650 C   0  0  0  0  0  0  0  0  0  0  0  0
  200.1910  173.1690  135.2210 C   0  0  0  0  0  2  0  0  0  0  0  0
  199.3020  171.0930  134.5330 O   0  0  0  0  0  0  0  0  0  0  0  0
  200.2240  171.8900  134.4520 C   0  0  0  0  0  3  0  0  0  0  0  0
  188.5120  178.5490  141.1810 O   0  0  0  0  0  0  0  0  0  0  0  0
  188.3860  178.7690  139.8480 N   0  0  0  0  0  2  0  0  0  0  0  0
  187.0960  178.3590  139.4860 N   0  0  0  0  0  2  0  0  0  0  0  0
  187.5270  178.3850  137.1150 C   0  0  0  0  0  2  0  0  0  0  0  0
  186.7490  178.0290  138.1360 C   0  0  0  0  0  0  0  0  0  0  0  0
  185.4760  177.3060  137.8630 C   0  0  0  0  0  2  0  0  0  0  0  0
  185.7700  175.9510  137.2380 C   0  0  0  0  0  2  0  0  0  0  0  0
  184.5500  175.3200  136.5650 C   0  0  1  0  0  3  0  0  0  0  0  0
  184.4580  172.7790  136.5660 C   0  0  1  0  0  0  0  0  0  0  0  0
  184.4380  172.9320  135.1580 O   0  0  0  0  0  0  0  0  0  0  0  0
  184.6500  175.2280  135.1570 O   0  0  0  0  0  0  0  0  0  0  0  0
  185.2770  174.0120  134.8280 C   0  0  0  0  0  2  0  0  0  0  0  0
  185.7360  172.4610  136.9990 F   0  0  0  0  0  0  0  0  0  0  0  0
  183.9870  174.0660  137.2550 C   0  0  0  0  0  2  0  0  0  0  0  0
  182.6990  171.2080  135.9580 O   0  0  0  0  0  0  0  0  0  0  0  0
  183.7830  170.3830  136.3090 C   0  0  0  0  0  2  0  0  0  0  0  0
  183.5130  171.6550  137.0170 C   0  0  1  0  0  3  0  0  0  0  0  0
  1 17  1  1  0  0  0
  2  4  1  0  0  0  0
  2  7  1  1  0  0  0
  3  4  1  0  0  0  0
  5  1  1  6  0  0  0
  5  6  1  0  0  0  0
  5  2  1  0  0  0  0
  6  4  1  0  0  0  0
  9 13  1  0  0  0  0
 10  8  1  0  0  0  0
 11 10  2  0  0  0  0
 12  9  2  0  0  0  0
 12 11  1  0  0  0  0
 13  7  1  0  0  0  0
 13  8  2  0  0  0  0
 14 11  1  0  0  0  0
 16 15  1  0  0  0  0
 16 14  1  0  0  0  0
 17 18  2  0  0  0  0
 19 17  1  0  0  0  0
 20 33  1  6  0  0  0
 20 30  1  0  0  0  0
 21 28  1  6  0  0  0
 21 30  1  0  0  0  0
 21 22  1  0  0  0  0
 22 27  1  0  0  0  0
 22 23  1  0  0  0  0
 23 19  1  0  0  0  0
 24 30  1  0  0  0  0
 24 25  1  0  0  0  0
 25 27  1  0  0  0  0
 26 24  2  0  0  0  0
 27 23  1  0  0  0  0
 29 28  1  0  0  0  0
 29 20  1  0  0  0  0
 31 33  2  0  0  0  0
 33 32  1  0  0  0  0
 34 38  1  0  0  0  0
 36 34  1  0  0  0  0
 36 32  1  0  0  0  0
 36 38  1  0  0  0  0
 37 36  1  0  0  0  0
 38 35  2  0  0  0  0
 39 34  1  0  0  0  0
 41 40  2  0  0  0  0
 41 39  1  0  0  0  0
 42  1  1  0  0  0  0
 43 42  1  0  0  0  0
 44 43  1  0  0  0  0
 45 46  2  0  0  0  0
 46 44  1  0  0  0  0
 47 46  1  0  0  0  0
 48 47  1  0  0  0  0
 49 48  1  0  0  0  0
 49 55  1  0  0  0  0
 50 54  1  0  0  0  0
 50 58  1  0  0  0  0
 50 55  1  0  0  0  0
 51 50  1  0  0  0  0
 52 49  1  0  0  0  0
 53 52  1  0  0  0  0
 53 51  1  0  0  0  0
 56 57  1  0  0  0  0
 56 58  1  0  0  0  0
 57 58  1  0  0  0  0
M  END
>  <MODEL>
7

>  <REMARK>
 VINA RESULT:      -6.9      2.680      4.970
  Name = 
  19 active torsions:
  status: ('A' for Active; 'I' for Inactive)
    1  A    between atoms: N_1  and  N_6
    2  A    between atoms: N_1  and  C_57
    3  A    between atoms: C_2  and  C_46
    4  A    between atoms: C_3  and  C_5
    5  A    between atoms: C_3  and  C_22
    6  A    between atoms: N_6  and  O_56
    7  A    between atoms: C_7  and  C_38
    8  A    between atoms: C_9  and  C_51
    9  A    between atoms: C_14  and  C_35
   10  A    between atoms: C_17  and  N_54
   11  A    between atoms: C_22  and  C_57
   12  A    between atoms: C_27  and  C_43
   13  A    between atoms: C_28  and  C_43
   14  A    between atoms: C_30  and  N_42
   15  A    between atoms: C_32  and  C_35
   16  A    between atoms: C_37  and  C_39
   17  A    between atoms: C_37  and  O_45
   18  A    between atoms: C_38  and  C_49
   19  A    between atoms: C_43  and  O_56
                            x       y       z     vdW  Elec       q    Type
                         _______ _______ _______ _____ _____    ______ ____

>  <TORSDO>
F 19

$$$$
=
 OpenBabel10232409593D

 58 65  0  0  1  0  0  0  0  0999 V2000
  186.0650  177.7550  143.8520 C   0  0  2  0  0  3  0  0  0  0  0  0
  185.9740  178.1660  146.3150 C   0  0  1  0  0  3  0  0  0  0  0  0
  183.7120  178.5870  146.2990 N   0  0  0  0  0  1  0  0  0  0  0  0
  184.9600  179.2020  146.4750 N   0  0  0  0  0  0  0  0  0  0  0  0
  186.4410  178.7100  144.9790 C   0  0  2  0  0  3  0  0  0  0  0  0
  185.3530  179.7430  145.1790 C   0  0  0  0  0  2  0  0  0  0  0  0
  187.0740  178.3450  147.3510 C   0  0  0  0  0  2  0  0  0  0  0  0
  189.0340  178.4110  145.7970 C   0  0  0  0  0  3  0  0  0  0  0  0
  188.9030  176.6340  147.4410 C   0  0  0  0  0  3  0  0  0  0  0  0
  190.2300  177.8720  145.3110 C   0  0  0  0  0  3  0  0  0  0  0  0
  190.7590  176.7100  145.8850 C   0  0  0  0  0  0  0  0  0  0  0  0
  190.1000  176.0980  146.9550 C   0  0  0  0  0  3  0  0  0  0  0  0
  188.3660  177.7890  146.8570 C   0  0  0  0  0  0  0  0  0  0  0  0
  192.0280  176.1290  145.3600 C   0  0  0  0  0  2  0  0  0  0  0  0
  191.3310  174.8340  143.7170 C   0  0  0  0  0  1  0  0  0  0  0  0
  191.9770  176.0460  143.9670 O   0  0  0  0  0  0  0  0  0  0  0  0
  187.2900  177.1690  143.2210 C   0  0  0  0  0  0  0  0  0  0  0  0
  187.8430  176.1520  143.7240 O   0  0  0  0  0  0  0  0  0  0  0  0
  187.8310  177.7830  142.0530 N   0  0  0  0  0  2  0  0  0  0  0  0
  191.4110  175.9450  137.7970 C   0  0  2  0  0  3  0  0  0  0  0  0
  189.6910  176.9860  138.9450 C   0  0  1  0  0  3  0  0  0  0  0  0
  189.1420  177.9440  140.0280 C   0  0  1  0  0  3  0  0  0  0  0  0
  188.9830  177.2350  141.3590 C   0  0  1  0  0  3  0  0  0  0  0  0
  191.9060  177.2210  139.9710 C   0  0  0  0  0  0  0  0  0  0  0  0
  191.4300  177.6580  141.3080 C   0  0  0  0  0  2  0  0  0  0  0  0
  192.9470  177.6680  139.5130 O   0  0  0  0  0  0  0  0  0  0  0  0
  190.0480  178.3150  141.2230 C   0  0  1  0  0  3  0  0  0  0  0  0
  189.7550  177.6430  137.6970 O   0  0  0  0  0  0  0  0  0  0  0  0
  190.8470  177.0920  136.9910 C   0  0  0  0  0  2  0  0  0  0  0  0
  191.0090  176.2770  139.2140 C   0  0  2  0  0  3  0  0  0  0  0  0
  193.6280  176.5640  137.1700 O   0  0  0  0  0  0  0  0  0  0  0  0
  193.3810  174.3250  137.7930 N   0  0  0  0  0  2  0  0  0  0  0  0
  192.8640  175.6420  137.5680 C   0  0  0  0  0  0  0  0  0  0  0  0
  195.2750  172.8290  138.2370 C   0  0  2  0  0  3  0  0  0  0  0  0
  196.3220  174.9750  139.4530 O   0  0  0  0  0  0  0  0  0  0  0  0
  194.7720  173.9770  137.5420 C   0  0  1  0  0  0  0  0  0  0  0  0
  195.2930  174.2990  136.2880 O   0  0  0  0  0  1  0  0  0  0  0  0
  195.7040  174.2340  138.7120 C   0  0  0  0  0  0  0  0  0  0  0  0
  196.4510  172.1610  137.5370 C   0  0  0  0  0  2  0  0  0  0  0  0
  195.5500  170.1790  138.4510 O   0  0  0  0  0  0  0  0  0  0  0  0
  196.4040  170.6830  137.7370 C   0  0  0  0  0  3  0  0  0  0  0  0
  185.3100  178.4310  142.8900 O   0  0  0  0  0  0  0  0  0  0  0  0
  184.0280  178.0530  143.1220 N   0  0  0  0  0  2  0  0  0  0  0  0
  183.3580  178.1000  141.8920 N   0  0  0  0  0  2  0  0  0  0  0  0
  181.3520  179.0940  142.7850 C   0  0  0  0  0  2  0  0  0  0  0  0
  182.0980  178.7630  141.7310 C   0  0  0  0  0  0  0  0  0  0  0  0
  181.5930  179.0540  140.3620 C   0  0  0  0  0  2  0  0  0  0  0  0
  182.2080  178.0860  139.3630 C   0  0  0  0  0  2  0  0  0  0  0  0
  183.1190  178.7690  138.3420 C   0  0  1  0  0  3  0  0  0  0  0  0
  184.7550  177.2600  137.1110 C   0  0  1  0  0  0  0  0  0  0  0  0
  185.7330  178.1050  137.6920 O   0  0  0  0  0  0  0  0  0  0  0  0
  184.2550  179.3920  138.9080 O   0  0  0  0  0  0  0  0  0  0  0  0
  185.2960  178.4480  138.9850 C   0  0  0  0  0  2  0  0  0  0  0  0
  184.6390  176.0850  137.8380 F   0  0  0  0  0  0  0  0  0  0  0  0
  183.3950  177.9680  137.0590 C   0  0  0  0  0  2  0  0  0  0  0  0
  186.4810  176.5180  135.5620 O   0  0  0  0  0  0  0  0  0  0  0  0
  185.5400  175.4730  135.5460 C   0  0  0  0  0  2  0  0  0  0  0  0
  185.1260  176.8890  135.6680 C   0  0  1  0  0  3  0  0  0  0  0  0
  1 42  1  6  0  0  0
  2  4  1  0  0  0  0
  2  7  1  1  0  0  0
  3  4  1  0  0  0  0
  5  1  1  6  0  0  0
  5  6  1  0  0  0  0
  5  2  1  0  0  0  0
  6  4  1  0  0  0  0
  8 13  1  0  0  0  0
 10  8  2  0  0  0  0
 10 11  1  0  0  0  0
 11 12  2  0  0  0  0
 12  9  1  0  0  0  0
 13  7  1  0  0  0  0
 13  9  2  0  0  0  0
 14 11  1  0  0  0  0
 15 16  1  0  0  0  0
 16 14  1  0  0  0  0
 17 18  2  0  0  0  0
 17  1  1  0  0  0  0
 19 17  1  0  0  0  0
 20 33  1  1  0  0  0
 20 30  1  0  0  0  0
 21 28  1  6  0  0  0
 21 30  1  0  0  0  0
 21 22  1  0  0  0  0
 22 27  1  0  0  0  0
 22 23  1  0  0  0  0
 23 19  1  0  0  0  0
 24 25  1  0  0  0  0
 26 24  2  0  0  0  0
 27 25  1  0  0  0  0
 27 23  1  0  0  0  0
 29 28  1  0  0  0  0
 29 20  1  0  0  0  0
 30 24  1  0  0  0  0
 31 33  2  0  0  0  0
 33 32  1  0  0  0  0
 34 38  1  0  0  0  0
 36 32  1  0  0  0  0
 36 34  1  0  0  0  0
 36 38  1  0  0  0  0
 37 36  1  0  0  0  0
 38 35  2  0  0  0  0
 39 41  1  0  0  0  0
 39 34  1  0  0  0  0
 41 40  2  0  0  0  0
 42 43  1  0  0  0  0
 44 43  1  0  0  0  0
 46 44  1  0  0  0  0
 46 45  2  0  0  0  0
 47 46  1  0  0  0  0
 48 47  1  0  0  0  0
 49 52  1  0  0  0  0
 49 48  1  0  0  0  0
 50 51  1  0  0  0  0
 50 54  1  0  0  0  0
 51 53  1  0  0  0  0
 52 53  1  0  0  0  0
 55 50  1  0  0  0  0
 55 49  1  0  0  0  0
 56 58  1  0  0  0  0
 57 56  1  0  0  0  0
 57 58  1  0  0  0  0
 58 50  1  0  0  0  0
M  END
>  <MODEL>
8

>  <REMARK>
 VINA RESULT:      -6.9      1.420      2.336
  Name = 
  19 active torsions:
  status: ('A' for Active; 'I' for Inactive)
    1  A    between atoms: N_1  and  N_6
    2  A    between atoms: N_1  and  C_57
    3  A    between atoms: C_2  and  C_46
    4  A    between atoms: C_3  and  C_5
    5  A    between atoms: C_3  and  C_22
    6  A    between atoms: N_6  and  O_56
    7  A    between atoms: C_7  and  C_38
    8  A    between atoms: C_9  and  C_51
    9  A    between atoms: C_14  and  C_35
   10  A    between atoms: C_17  and  N_54
   11  A    between atoms: C_22  and  C_57
   12  A    between atoms: C_27  and  C_43
   13  A    between atoms: C_28  and  C_43
   14  A    between atoms: C_30  and  N_42
   15  A    between atoms: C_32  and  C_35
   16  A    between atoms: C_37  and  C_39
   17  A    between atoms: C_37  and  O_45
   18  A    between atoms: C_38  and  C_49
   19  A    between atoms: C_43  and  O_56
                            x       y       z     vdW  Elec       q    Type
                         _______ _______ _______ _____ _____    ______ ____

>  <TORSDO>
F 19

$$$$
=
 OpenBabel10232409593D

 58 65  0  0  1  0  0  0  0  0999 V2000
  185.8200  178.7710  141.3210 C   0  0  2  0  0  3  0  0  0  0  0  0
  185.1000  178.0250  143.5960 C   0  0  1  0  0  3  0  0  0  0  0  0
  182.9620  178.8290  143.3330 N   0  0  0  0  0  1  0  0  0  0  0  0
  184.1560  179.0470  144.0330 N   0  0  0  0  0  0  0  0  0  0  0  0
  185.9450  179.0170  142.8210 C   0  0  2  0  0  3  0  0  0  0  0  0
  184.9200  180.0320  143.2770 C   0  0  0  0  0  2  0  0  0  0  0  0
  185.8930  177.4990  144.7840 C   0  0  0  0  0  2  0  0  0  0  0  0
  187.6530  176.2750  143.4960 C   0  0  0  0  0  3  0  0  0  0  0  0
  188.3270  178.0510  145.0010 C   0  0  0  0  0  3  0  0  0  0  0  0
  188.9940  176.0400  143.1730 C   0  0  0  0  0  3  0  0  0  0  0  0
  190.0030  176.8070  143.7700 C   0  0  0  0  0  0  0  0  0  0  0  0
  189.6670  177.8180  144.6760 C   0  0  0  0  0  3  0  0  0  0  0  0
  187.3190  177.2740  144.4150 C   0  0  0  0  0  0  0  0  0  0  0  0
  191.4330  176.5510  143.4340 C   0  0  0  0  0  2  0  0  0  0  0  0
  192.1210  174.7150  144.4450 C   0  0  0  0  0  1  0  0  0  0  0  0
  192.1180  176.1060  144.5670 O   0  0  0  0  0  0  0  0  0  0  0  0
  187.1710  178.6400  140.6890 C   0  0  0  0  0  0  0  0  0  0  0  0
  188.2160  178.8340  141.3700 O   0  0  0  0  0  0  0  0  0  0  0  0
  187.2600  178.3070  139.3060 N   0  0  0  0  0  2  0  0  0  0  0  0
  192.7720  176.6510  138.2190 C   0  0  2  0  0  3  0  0  0  0  0  0
  190.6570  176.8270  139.1430 C   0  0  1  0  0  3  0  0  0  0  0  0
  189.1130  176.7720  139.0660 C   0  0  1  0  0  3  0  0  0  0  0  0
  188.5370  178.1100  138.6430 C   0  0  1  0  0  3  0  0  0  0  0  0
  190.7060  176.7050  136.6940 C   0  0  0  0  0  0  0  0  0  0  0  0
  189.3210  177.1940  136.4710 C   0  0  0  0  0  2  0  0  0  0  0  0
  191.1870  175.8610  135.9530 O   0  0  0  0  0  0  0  0  0  0  0  0
  188.4300  176.9270  137.6890 C   0  0  1  0  0  3  0  0  0  0  0  0
  191.1670  175.5980  139.6160 O   0  0  0  0  0  0  0  0  0  0  0  0
  192.4290  175.4110  139.0120 C   0  0  0  0  0  2  0  0  0  0  0  0
  191.4240  177.2500  137.9010 C   0  0  2  0  0  3  0  0  0  0  0  0
  194.0290  177.4340  136.3500 O   0  0  0  0  0  0  0  0  0  0  0  0
  194.2180  175.1410  136.7570 N   0  0  0  0  0  2  0  0  0  0  0  0
  193.7040  176.4440  137.0590 C   0  0  0  0  0  0  0  0  0  0  0  0
  196.0610  173.8480  135.7800 C   0  0  2  0  0  3  0  0  0  0  0  0
  197.3930  176.1690  135.9270 O   0  0  0  0  0  0  0  0  0  0  0  0
  195.0880  174.8880  135.6180 C   0  0  1  0  0  0  0  0  0  0  0  0
  194.5660  175.1440  134.3490 O   0  0  0  0  0  1  0  0  0  0  0  0
  196.5280  175.3200  135.8200 C   0  0  0  0  0  0  0  0  0  0  0  0
  196.5070  173.2220  134.4660 C   0  0  0  0  0  2  0  0  0  0  0  0
  195.3930  171.3080  135.2850 O   0  0  0  0  0  0  0  0  0  0  0  0
  195.9950  171.8250  134.3560 C   0  0  0  0  0  3  0  0  0  0  0  0
  185.1140  179.8210  140.7270 O   0  0  0  0  0  0  0  0  0  0  0  0
  184.6480  179.3120  139.5590 N   0  0  0  0  0  2  0  0  0  0  0  0
  183.3160  178.9350  139.7800 N   0  0  0  0  0  2  0  0  0  0  0  0
  181.8780  179.8570  138.0800 C   0  0  0  0  0  2  0  0  0  0  0  0
  182.3730  178.7930  138.7110 C   0  0  0  0  0  0  0  0  0  0  0  0
  181.9090  177.4340  138.3200 C   0  0  0  0  0  2  0  0  0  0  0  0
  183.0890  176.4760  138.2650 C   0  0  0  0  0  2  0  0  0  0  0  0
  182.9680  175.4340  137.1520 C   0  0  1  0  0  3  0  0  0  0  0  0
  185.0260  174.0000  136.7310 C   0  0  1  0  0  0  0  0  0  0  0  0
  184.9600  174.5570  135.4310 O   0  0  0  0  0  0  0  0  0  0  0  0
  183.1720  175.9510  135.8520 O   0  0  0  0  0  0  0  0  0  0  0  0
  184.5470  175.8960  135.5540 C   0  0  0  0  0  2  0  0  0  0  0  0
  185.9780  174.6610  137.4920 F   0  0  0  0  0  0  0  0  0  0  0  0
  183.6610  174.0880  137.4260 C   0  0  0  0  0  2  0  0  0  0  0  0
  185.2930  171.9930  135.3780 O   0  0  0  0  0  0  0  0  0  0  0  0
  186.5960  172.2730  135.8270 C   0  0  0  0  0  2  0  0  0  0  0  0
  185.4100  172.5130  136.6810 C   0  0  1  0  0  3  0  0  0  0  0  0
  1 17  1  6  0  0  0
  2  4  1  0  0  0  0
  2  7  1  1  0  0  0
  3  4  1  0  0  0  0
  5  1  1  6  0  0  0
  5  6  1  0  0  0  0
  5  2  1  0  0  0  0
  6  4  1  0  0  0  0
  8 13  1  0  0  0  0
 10  8  2  0  0  0  0
 10 11  1  0  0  0  0
 11 12  2  0  0  0  0
 12  9  1  0  0  0  0
 13  7  1  0  0  0  0
 13  9  2  0  0  0  0
 14 11  1  0  0  0  0
 14 16  1  0  0  0  0
 15 16  1  0  0  0  0
 17 18  2  0  0  0  0
 19 17  1  0  0  0  0
 20 33  1  6  0  0  0
 20 29  1  0  0  0  0
 21 28  1  6  0  0  0
 22 21  1  0  0  0  0
 23 22  1  0  0  0  0
 23 19  1  0  0  0  0
 24 30  1  0  0  0  0
 25 24  1  0  0  0  0
 25 27  1  0  0  0  0
 26 24  2  0  0  0  0
 27 23  1  0  0  0  0
 27 22  1  0  0  0  0
 29 28  1  0  0  0  0
 30 20  1  0  0  0  0
 30 21  1  0  0  0  0
 31 33  2  0  0  0  0
 32 33  1  0  0  0  0
 34 38  1  0  0  0  0
 36 34  1  0  0  0  0
 36 38  1  0  0  0  0
 36 32  1  0  0  0  0
 37 36  1  0  0  0  0
 38 35  2  0  0  0  0
 39 34  1  0  0  0  0
 41 39  1  0  0  0  0
 41 40  2  0  0  0  0
 42  1  1  0  0  0  0
 43 44  1  0  0  0  0
 43 42  1  0  0  0  0
 45 46  2  0  0  0  0
 46 44  1  0  0  0  0
 47 46  1  0  0  0  0
 48 47  1  0  0  0  0
 49 55  1  0  0  0  0
 49 48  1  0  0  0  0
 50 55  1  0  0  0  0
 50 54  1  0  0  0  0
 51 53  1  0  0  0  0
 51 50  1  0  0  0  0
 52 49  1  0  0  0  0
 53 52  1  0  0  0  0
 56 57  1  0  0  0  0
 56 58  1  0  0  0  0
 57 58  1  0  0  0  0
 58 50  1  0  0  0  0
M  END
>  <MODEL>
9

>  <REMARK>
 VINA RESULT:      -6.4      2.069      2.883
  Name = 
  19 active torsions:
  status: ('A' for Active; 'I' for Inactive)
    1  A    between atoms: N_1  and  N_6
    2  A    between atoms: N_1  and  C_57
    3  A    between atoms: C_2  and  C_46
    4  A    between atoms: C_3  and  C_5
    5  A    between atoms: C_3  and  C_22
    6  A    between atoms: N_6  and  O_56
    7  A    between atoms: C_7  and  C_38
    8  A    between atoms: C_9  and  C_51
    9  A    between atoms: C_14  and  C_35
   10  A    between atoms: C_17  and  N_54
   11  A    between atoms: C_22  and  C_57
   12  A    between atoms: C_27  and  C_43
   13  A    between atoms: C_28  and  C_43
   14  A    between atoms: C_30  and  N_42
   15  A    between atoms: C_32  and  C_35
   16  A    between atoms: C_37  and  C_39
   17  A    between atoms: C_37  and  O_45
   18  A    between atoms: C_38  and  C_49
   19  A    between atoms: C_43  and  O_56
                            x       y       z     vdW  Elec       q    Type
                         _______ _______ _______ _____ _____    ______ ____

>  <TORSDO>
F 19

$$$$
