=
 OpenBabel10222421573D

 40 41  0  0  1  0  0  0  0  0999 V2000
  187.4500  178.0840  144.2560 N   0  0  0  0  0  2  0  0  0  0  0  0
  189.8420  177.4430  143.9900 N   0  0  0  0  0  0  0  0  0  0  0  0
  188.4440  177.1750  143.7580 C   0  0  0  0  0  0  0  0  0  0  0  0
  188.0880  176.1360  143.1360 O   0  0  0  0  0  0  0  0  0  0  0  0
  186.0110  177.9360  144.0530 C   0  0  1  0  0  3  0  0  0  0  0  0
  185.2490  178.4510  145.2640 C   0  0  0  0  0  1  0  0  0  0  0  0
  185.5690  178.6500  142.7850 C   0  0  0  0  0  2  0  0  0  0  0  0
  184.4980  177.9090  142.1420 N   0  0  0  0  0  2  0  0  0  0  0  0
  183.4560  178.8740  141.8290 C   0  0  0  0  0  2  0  0  0  0  0  0
  182.6960  178.4770  140.5640 C   0  0  1  0  0  3  0  0  0  0  0  0
  181.2190  178.8080  140.6880 C   0  0  0  0  0  1  0  0  0  0  0  0
  182.4190  180.2240  138.5330 O   0  0  0  0  0  0  0  0  0  0  0  0
  183.7120  177.9770  137.8720 C   0  0  0  0  0  1  0  0  0  0  0  0
  184.6800  179.9300  139.4310 O   0  0  0  0  0  0  0  0  0  0  0  0
  183.3950  179.2270  139.0950 S   0  0  0  0  0  0  0  0  0  0  0  0
  190.8900  176.7870  143.2350 C   0  0  0  0  0  0  0  0  0  0  0  0
  191.4520  175.3210  143.7330 S   0  0  0  0  0  0  0  0  0  0  0  0
  191.5270  177.5150  142.1030 C   0  0  0  0  0  3  0  0  0  0  0  0
  191.2890  177.4340  140.7880 C   0  0  0  0  0  3  0  0  0  0  0  0
  190.2620  176.5760  140.1210 C   0  0  0  0  0  2  0  0  0  0  0  0
  187.4460  174.9560  136.6460 C   0  0  0  0  0  3  0  0  0  0  0  0
  188.4890  178.8260  139.1260 O   0  0  0  0  0  0  0  0  0  0  0  0
  188.1960  175.8310  137.3200 C   0  0  0  0  0  0  0  0  0  0  0  0
  190.0230  177.0180  138.6800 C   0  0  2  0  0  3  0  0  0  0  0  0
  187.6860  177.0320  137.8720 N   0  0  0  0  0  2  0  0  0  0  0  0
  188.7010  177.7060  138.5900 C   0  0  0  0  0  0  0  0  0  0  0  0
  189.9450  175.5520  137.5720 S   0  0  0  0  0  0  0  0  0  0  0  0
  185.5360  176.0210  135.5830 O   0  0  0  0  0  1  0  0  0  0  0  0
  186.0310  175.1010  136.4500 N   0  0  0  0  0  0  0  0  0  0  0  0
  185.1360  174.4290  137.3840 C   0  0  1  0  0  3  0  0  0  0  0  0
  184.8130  172.1310  136.8960 O   0  0  0  0  0  0  0  0  0  0  0  0
  183.7790  174.2530  136.7620 C   0  0  0  0  0  2  0  0  0  0  0  0
  183.5610  172.7580  136.8050 C   0  0  0  0  0  2  0  0  0  0  0  0
  185.6050  173.0110  137.6500 C   0  0  0  0  0  2  0  0  0  0  0  0
  190.1930  178.4120  145.0270 C   0  0  0  0  0  2  0  0  0  0  0  0
  189.5130  178.0440  146.3350 C   0  0  0  0  0  2  0  0  0  0  0  0
  190.2390  176.9220  146.9870 C   0  0  0  0  0  0  0  0  0  0  0  0
  192.4270  175.8320  147.6010 C   0  0  0  0  0  1  0  0  0  0  0  0
  191.6680  176.9050  146.9810 N   0  0  0  0  0  2  0  0  0  0  0  0
  189.5880  176.0000  147.5490 O   0  0  0  0  0  0  0  0  0  0  0  0
  2 35  1  0  0  0  0
  3  2  1  0  0  0  0
  3  1  1  0  0  0  0
  4  3  2  0  0  0  0
  5  1  1  0  0  0  0
  5  6  1  1  0  0  0
  7  5  1  0  0  0  0
  8  7  1  0  0  0  0
  9  8  1  0  0  0  0
 10 11  1  1  0  0  0
 10  9  1  0  0  0  0
 12 15  2  0  0  0  0
 13 15  1  0  0  0  0
 15 14  2  0  0  0  0
 15 10  1  0  0  0  0
 16 17  2  0  0  0  0
 16  2  1  0  0  0  0
 18 16  1  0  0  0  0
 19 18  2  0  0  0  0
 20 19  1  0  0  0  0
 21 23  2  0  0  0  0
 23 27  1  0  0  0  0
 23 25  1  0  0  0  0
 24 20  1  1  0  0  0
 25 26  1  0  0  0  0
 26 24  1  0  0  0  0
 26 22  2  0  0  0  0
 27 24  1  0  0  0  0
 28 29  1  0  0  0  0
 29 21  1  0  0  0  0
 30 29  1  6  0  0  0
 30 34  1  0  0  0  0
 31 34  1  0  0  0  0
 32 33  1  0  0  0  0
 32 30  1  0  0  0  0
 33 31  1  0  0  0  0
 35 36  1  0  0  0  0
 36 37  1  0  0  0  0
 37 40  2  0  0  0  0
 39 37  1  0  0  0  0
 39 38  1  0  0  0  0
M  END
>  <MODEL>
1

>  <REMARK>
 VINA RESULT:      -6.9      0.000      0.000
  Name = 
  15 active torsions:
  status: ('A' for Active; 'I' for Inactive)
    1  A    between atoms: C_1  and  C_2
    2  A    between atoms: C_1  and  C_23
    3  A    between atoms: N_3  and  C_6
    4  A    between atoms: C_4  and  C_6
    5  A    between atoms: C_4  and  N_7
    6  A    between atoms: C_5  and  N_31
    7  A    between atoms: N_7  and  C_37
    8  A    between atoms: C_9  and  C_20
    9  A    between atoms: C_9  and  N_21
   10  A    between atoms: C_12  and  N_31
   11  A    between atoms: C_13  and  C_37
   12  A    between atoms: C_13  and  S_39
   13  A    between atoms: N_21  and  C_23
   14  A    between atoms: C_22  and  C_33
   15  A    between atoms: C_25  and  C_33
                            x       y       z     vdW  Elec       q    Type
                         _______ _______ _______ _____ _____    ______ ____

>  <TORSDO>
F 15

$$$$
=
 OpenBabel10222421573D

 40 41  0  0  1  0  0  0  0  0999 V2000
  187.3190  178.1810  143.4550 N   0  0  0  0  0  2  0  0  0  0  0  0
  189.6830  177.4720  143.7880 N   0  0  0  0  0  0  0  0  0  0  0  0
  188.4180  177.3210  143.1130 C   0  0  0  0  0  0  0  0  0  0  0  0
  188.2630  176.4260  142.2380 O   0  0  0  0  0  0  0  0  0  0  0  0
  186.0050  178.1450  142.8170 C   0  0  1  0  0  3  0  0  0  0  0  0
  184.9060  178.2860  143.8590 C   0  0  0  0  0  1  0  0  0  0  0  0
  185.8920  179.2270  141.7530 C   0  0  0  0  0  2  0  0  0  0  0  0
  185.5400  178.6340  140.4750 N   0  0  0  0  0  2  0  0  0  0  0  0
  184.1970  179.0950  140.1600 C   0  0  0  0  0  2  0  0  0  0  0  0
  183.1470  178.0630  140.5700 C   0  0  1  0  0  3  0  0  0  0  0  0
  182.0080  178.7160  141.3340 C   0  0  0  0  0  1  0  0  0  0  0  0
  183.1800  177.6470  137.9090 O   0  0  0  0  0  0  0  0  0  0  0  0
  180.7660  177.3670  139.0290 C   0  0  0  0  0  1  0  0  0  0  0  0
  182.8260  175.6780  139.3260 O   0  0  0  0  0  0  0  0  0  0  0  0
  182.5240  177.1420  139.1650 S   0  0  0  0  0  0  0  0  0  0  0  0
  190.9090  176.9040  143.2660 C   0  0  0  0  0  0  0  0  0  0  0  0
  191.5360  175.5510  143.9650 S   0  0  0  0  0  0  0  0  0  0  0  0
  191.6450  177.6330  142.1970 C   0  0  0  0  0  3  0  0  0  0  0  0
  191.5550  177.5230  140.8650 C   0  0  0  0  0  3  0  0  0  0  0  0
  190.6340  176.6210  140.1070 C   0  0  0  0  0  2  0  0  0  0  0  0
  187.8350  175.1560  136.5510 C   0  0  0  0  0  3  0  0  0  0  0  0
  188.7000  178.8360  139.3630 O   0  0  0  0  0  0  0  0  0  0  0  0
  188.5470  176.0100  137.2890 C   0  0  0  0  0  0  0  0  0  0  0  0
  190.3310  177.1790  138.7190 C   0  0  2  0  0  3  0  0  0  0  0  0
  187.9780  177.1200  137.9620 N   0  0  0  0  0  2  0  0  0  0  0  0
  188.9680  177.7870  138.7200 C   0  0  0  0  0  0  0  0  0  0  0  0
  190.3150  175.8200  137.4790 S   0  0  0  0  0  0  0  0  0  0  0  0
  185.8350  176.2100  135.6560 O   0  0  0  0  0  1  0  0  0  0  0  0
  186.4100  175.2280  136.3960 N   0  0  0  0  0  0  0  0  0  0  0  0
  185.5830  174.3890  137.2550 C   0  0  1  0  0  3  0  0  0  0  0  0
  185.4510  172.1350  136.5320 O   0  0  0  0  0  0  0  0  0  0  0  0
  184.2410  174.1640  136.6190 C   0  0  0  0  0  2  0  0  0  0  0  0
  184.1490  172.6600  136.5060 C   0  0  0  0  0  2  0  0  0  0  0  0
  186.1720  172.9970  137.3730 C   0  0  0  0  0  2  0  0  0  0  0  0
  189.7090  178.2290  145.0390 C   0  0  0  0  0  2  0  0  0  0  0  0
  189.5240  177.2890  146.2190 C   0  0  0  0  0  2  0  0  0  0  0  0
  188.4630  177.8090  147.1200 C   0  0  0  0  0  0  0  0  0  0  0  0
  186.0940  178.6090  147.4320 C   0  0  0  0  0  1  0  0  0  0  0  0
  187.1660  178.0980  146.5950 N   0  0  0  0  0  2  0  0  0  0  0  0
  188.7130  177.9800  148.3440 O   0  0  0  0  0  0  0  0  0  0  0  0
  2 35  1  0  0  0  0
  3  1  1  0  0  0  0
  3  2  1  0  0  0  0
  4  3  2  0  0  0  0
  5  1  1  0  0  0  0
  5  6  1  1  0  0  0
  7  5  1  0  0  0  0
  8  7  1  0  0  0  0
  9  8  1  0  0  0  0
  9 10  1  0  0  0  0
 10 11  1  6  0  0  0
 12 15  2  0  0  0  0
 13 15  1  0  0  0  0
 15 14  2  0  0  0  0
 15 10  1  0  0  0  0
 16  2  1  0  0  0  0
 16 17  2  0  0  0  0
 18 16  1  0  0  0  0
 19 18  2  0  0  0  0
 20 19  1  0  0  0  0
 21 23  2  0  0  0  0
 23 27  1  0  0  0  0
 23 25  1  0  0  0  0
 24 26  1  0  0  0  0
 24 20  1  1  0  0  0
 25 26  1  0  0  0  0
 26 22  2  0  0  0  0
 27 24  1  0  0  0  0
 28 29  1  0  0  0  0
 29 21  1  0  0  0  0
 30 29  1  6  0  0  0
 30 34  1  0  0  0  0
 31 34  1  0  0  0  0
 32 30  1  0  0  0  0
 33 31  1  0  0  0  0
 33 32  1  0  0  0  0
 35 36  1  0  0  0  0
 36 37  1  0  0  0  0
 37 40  2  0  0  0  0
 39 37  1  0  0  0  0
 39 38  1  0  0  0  0
M  END
>  <MODEL>
2

>  <REMARK>
 VINA RESULT:      -6.7      1.425      1.900
  Name = 
  15 active torsions:
  status: ('A' for Active; 'I' for Inactive)
    1  A    between atoms: C_1  and  C_2
    2  A    between atoms: C_1  and  C_23
    3  A    between atoms: N_3  and  C_6
    4  A    between atoms: C_4  and  C_6
    5  A    between atoms: C_4  and  N_7
    6  A    between atoms: C_5  and  N_31
    7  A    between atoms: N_7  and  C_37
    8  A    between atoms: C_9  and  C_20
    9  A    between atoms: C_9  and  N_21
   10  A    between atoms: C_12  and  N_31
   11  A    between atoms: C_13  and  C_37
   12  A    between atoms: C_13  and  S_39
   13  A    between atoms: N_21  and  C_23
   14  A    between atoms: C_22  and  C_33
   15  A    between atoms: C_25  and  C_33
                            x       y       z     vdW  Elec       q    Type
                         _______ _______ _______ _____ _____    ______ ____

>  <TORSDO>
F 15

$$$$
=
 OpenBabel10222421573D

 40 41  0  0  1  0  0  0  0  0999 V2000
  184.1130  177.7670  138.6640 N   0  0  0  0  0  2  0  0  0  0  0  0
  184.9210  176.0810  137.0180 N   0  0  0  0  0  0  0  0  0  0  0  0
  185.1110  177.3190  137.7330 C   0  0  0  0  0  0  0  0  0  0  0  0
  186.1400  178.0220  137.5310 O   0  0  0  0  0  0  0  0  0  0  0  0
  184.2120  178.9820  139.4690 C   0  0  1  0  0  3  0  0  0  0  0  0
  183.2860  180.0570  138.9230 C   0  0  0  0  0  1  0  0  0  0  0  0
  183.9050  178.6870  140.9300 C   0  0  0  0  0  2  0  0  0  0  0  0
  184.9290  179.2670  141.7820 N   0  0  0  0  0  2  0  0  0  0  0  0
  184.9720  178.4560  142.9880 C   0  0  0  0  0  2  0  0  0  0  0  0
  184.3890  179.2090  144.1830 C   0  0  1  0  0  3  0  0  0  0  0  0
  182.8880  178.9980  144.2820 C   0  0  0  0  0  1  0  0  0  0  0  0
  185.8170  179.9910  146.3280 O   0  0  0  0  0  0  0  0  0  0  0  0
  186.4730  177.5670  145.4030 C   0  0  0  0  0  1  0  0  0  0  0  0
  184.1990  178.1840  146.6820 O   0  0  0  0  0  0  0  0  0  0  0  0
  185.1960  178.7640  145.7180 S   0  0  0  0  0  0  0  0  0  0  0  0
  186.0110  175.3990  136.3510 C   0  0  0  0  0  0  0  0  0  0  0  0
  185.9450  175.1670  134.7220 S   0  0  0  0  0  0  0  0  0  0  0  0
  187.1010  174.8060  137.1730 C   0  0  0  0  0  3  0  0  0  0  0  0
  188.4140  175.0690  137.1760 C   0  0  0  0  0  3  0  0  0  0  0  0
  189.1190  176.0870  136.3380 C   0  0  0  0  0  2  0  0  0  0  0  0
  189.2900  178.0150  140.6830 C   0  0  0  0  0  2  0  0  0  0  0  0
  191.3760  174.8190  137.9180 O   0  0  0  0  0  0  0  0  0  0  0  0
  189.7520  177.4620  139.5590 C   0  0  0  0  0  0  0  0  0  0  0  0
  190.2230  176.7850  137.1270 C   0  0  2  0  0  3  0  0  0  0  0  0
  190.4330  176.2200  139.5250 N   0  0  0  0  0  0  0  0  0  0  0  0
  190.7270  175.8640  138.1880 C   0  0  0  0  0  0  0  0  0  0  0  0
  189.5510  178.2720  137.9770 S   0  0  0  0  0  0  0  0  0  0  0  0
  188.3950  176.5770  142.4280 O   0  0  0  0  0  1  0  0  0  0  0  0
  189.3800  177.3950  141.9740 N   0  0  0  0  0  0  0  0  0  0  0  0
  190.4140  177.8630  142.8900 C   0  0  1  0  0  3  0  0  0  0  0  0
  191.6130  176.1070  143.9380 O   0  0  0  0  0  0  0  0  0  0  0  0
  189.9410  177.7360  144.3100 C   0  0  0  0  0  2  0  0  0  0  0  0
  190.9780  176.8420  144.9500 C   0  0  0  0  0  2  0  0  0  0  0  0
  191.6330  176.9630  142.8260 C   0  0  0  0  0  2  0  0  0  0  0  0
  183.5750  175.5110  136.9760 C   0  0  0  0  0  2  0  0  0  0  0  0
  183.5140  174.2590  137.8360 C   0  0  0  0  0  2  0  0  0  0  0  0
  183.3770  173.0570  136.9730 C   0  0  0  0  0  0  0  0  0  0  0  0
  182.0790  171.7900  135.2230 C   0  0  0  0  0  1  0  0  0  0  0  0
  182.2620  172.9450  136.0870 N   0  0  0  0  0  2  0  0  0  0  0  0
  184.2530  172.1510  137.0220 O   0  0  0  0  0  0  0  0  0  0  0  0
  1  5  1  0  0  0  0
  2  3  1  0  0  0  0
  3  1  1  0  0  0  0
  4  3  2  0  0  0  0
  5  6  1  6  0  0  0
  5  7  1  0  0  0  0
  7  8  1  0  0  0  0
  8  9  1  0  0  0  0
  9 10  1  0  0  0  0
 10 11  1  1  0  0  0
 10 15  1  0  0  0  0
 13 15  1  0  0  0  0
 15 12  2  0  0  0  0
 15 14  2  0  0  0  0
 16  2  1  0  0  0  0
 16 18  1  0  0  0  0
 17 16  2  0  0  0  0
 18 19  2  0  0  0  0
 20 19  1  0  0  0  0
 21 29  1  0  0  0  0
 22 26  2  0  0  0  0
 23 21  1  0  0  0  0
 24 20  1  1  0  0  0
 24 27  1  0  0  0  0
 24 26  1  0  0  0  0
 25 23  2  0  0  0  0
 26 25  1  0  0  0  0
 27 23  1  0  0  0  0
 29 28  1  0  0  0  0
 30 29  1  6  0  0  0
 30 32  1  0  0  0  0
 31 33  1  0  0  0  0
 32 33  1  0  0  0  0
 34 30  1  0  0  0  0
 34 31  1  0  0  0  0
 35  2  1  0  0  0  0
 35 36  1  0  0  0  0
 37 40  2  0  0  0  0
 37 36  1  0  0  0  0
 38 39  1  0  0  0  0
 39 37  1  0  0  0  0
M  END
>  <MODEL>
3

>  <REMARK>
 VINA RESULT:      -6.4      2.712      8.055
  Name = 
  15 active torsions:
  status: ('A' for Active; 'I' for Inactive)
    1  A    between atoms: C_1  and  C_2
    2  A    between atoms: C_1  and  C_23
    3  A    between atoms: N_3  and  C_6
    4  A    between atoms: C_4  and  C_6
    5  A    between atoms: C_4  and  N_7
    6  A    between atoms: C_5  and  N_31
    7  A    between atoms: N_7  and  C_37
    8  A    between atoms: C_9  and  C_20
    9  A    between atoms: C_9  and  N_21
   10  A    between atoms: C_12  and  N_31
   11  A    between atoms: C_13  and  C_37
   12  A    between atoms: C_13  and  S_39
   13  A    between atoms: N_21  and  C_23
   14  A    between atoms: C_22  and  C_33
   15  A    between atoms: C_25  and  C_33
                            x       y       z     vdW  Elec       q    Type
                         _______ _______ _______ _____ _____    ______ ____

>  <TORSDO>
F 15

$$$$
=
 OpenBabel10222421573D

 40 41  0  0  1  0  0  0  0  0999 V2000
  186.7640  178.3290  144.7340 N   0  0  0  0  0  2  0  0  0  0  0  0
  188.9480  177.6270  143.7650 N   0  0  0  0  0  0  0  0  0  0  0  0
  187.5110  177.5180  143.8130 C   0  0  0  0  0  0  0  0  0  0  0  0
  186.9070  176.7010  143.0660 O   0  0  0  0  0  0  0  0  0  0  0  0
  185.3080  178.3310  144.8490 C   0  0  1  0  0  3  0  0  0  0  0  0
  184.8890  178.6220  146.2820 C   0  0  0  0  0  1  0  0  0  0  0  0
  184.6920  179.3340  143.8850 C   0  0  0  0  0  2  0  0  0  0  0  0
  183.7200  178.6740  143.0320 N   0  0  0  0  0  2  0  0  0  0  0  0
  184.3210  178.5820  141.7120 C   0  0  0  0  0  2  0  0  0  0  0  0
  183.2730  178.2690  140.6450 C   0  0  1  0  0  3  0  0  0  0  0  0
  181.8940  178.7340  141.0820 C   0  0  0  0  0  1  0  0  0  0  0  0
  182.4480  179.2250  138.2660 O   0  0  0  0  0  0  0  0  0  0  0  0
  184.7240  177.8230  138.1510 C   0  0  0  0  0  1  0  0  0  0  0  0
  184.4480  180.2590  139.2340 O   0  0  0  0  0  0  0  0  0  0  0  0
  183.7040  178.9660  139.0520 S   0  0  0  0  0  0  0  0  0  0  0  0
  189.7230  177.1230  142.6490 C   0  0  0  0  0  0  0  0  0  0  0  0
  190.5990  175.7400  142.8290 S   0  0  0  0  0  0  0  0  0  0  0  0
  189.8170  177.9410  141.4080 C   0  0  0  0  0  3  0  0  0  0  0  0
  190.0960  177.5670  140.1530 C   0  0  0  0  0  3  0  0  0  0  0  0
  190.3650  176.1740  139.6780 C   0  0  0  0  0  2  0  0  0  0  0  0
  194.5120  175.0430  137.6410 C   0  0  0  0  0  2  0  0  0  0  0  0
  189.9060  174.0480  137.5650 O   0  0  0  0  0  0  0  0  0  0  0  0
  193.1970  175.2560  137.7280 C   0  0  0  0  0  0  0  0  0  0  0  0
  190.8490  176.1670  138.2310 C   0  0  2  0  0  3  0  0  0  0  0  0
  192.2280  174.2460  137.5070 N   0  0  0  0  0  0  0  0  0  0  0  0
  190.9310  174.7560  137.7480 C   0  0  0  0  0  0  0  0  0  0  0  0
  192.5440  176.8730  138.1260 S   0  0  0  0  0  0  0  0  0  0  0  0
  194.4830  172.8700  136.5500 O   0  0  0  0  0  1  0  0  0  0  0  0
  195.0970  173.7620  137.3700 N   0  0  0  0  0  0  0  0  0  0  0  0
  196.2250  173.3340  138.1910 C   0  0  1  0  0  3  0  0  0  0  0  0
  197.6370  175.1170  138.8600 O   0  0  0  0  0  0  0  0  0  0  0  0
  197.4780  173.2940  137.3630 C   0  0  0  0  0  2  0  0  0  0  0  0
  198.4110  174.2380  138.0870 C   0  0  0  0  0  2  0  0  0  0  0  0
  196.5260  174.3620  139.2650 C   0  0  0  0  0  2  0  0  0  0  0  0
  189.6280  178.2700  144.8880 C   0  0  0  0  0  2  0  0  0  0  0  0
  189.6290  177.3450  146.0940 C   0  0  0  0  0  2  0  0  0  0  0  0
  191.0220  176.9450  146.4250 C   0  0  0  0  0  0  0  0  0  0  0  0
  192.6080  175.6780  147.9190 C   0  0  0  0  0  1  0  0  0  0  0  0
  191.2660  176.0970  147.5490 N   0  0  0  0  0  2  0  0  0  0  0  0
  191.9750  177.3470  145.7050 O   0  0  0  0  0  0  0  0  0  0  0  0
  1  5  1  0  0  0  0
  2  3  1  0  0  0  0
  2 35  1  0  0  0  0
  3  1  1  0  0  0  0
  4  3  2  0  0  0  0
  5  6  1  1  0  0  0
  7  5  1  0  0  0  0
  8  7  1  0  0  0  0
  9  8  1  0  0  0  0
 10 11  1  1  0  0  0
 10  9  1  0  0  0  0
 12 15  2  0  0  0  0
 13 15  1  0  0  0  0
 15 14  2  0  0  0  0
 15 10  1  0  0  0  0
 16 17  2  0  0  0  0
 16  2  1  0  0  0  0
 18 16  1  0  0  0  0
 19 18  2  0  0  0  0
 20 19  1  0  0  0  0
 21 23  1  0  0  0  0
 22 26  2  0  0  0  0
 23 27  1  0  0  0  0
 24 20  1  1  0  0  0
 25 23  2  0  0  0  0
 25 26  1  0  0  0  0
 26 24  1  0  0  0  0
 27 24  1  0  0  0  0
 28 29  1  0  0  0  0
 29 21  1  0  0  0  0
 30 29  1  6  0  0  0
 30 34  1  0  0  0  0
 31 34  1  0  0  0  0
 32 33  1  0  0  0  0
 32 30  1  0  0  0  0
 33 31  1  0  0  0  0
 35 36  1  0  0  0  0
 36 37  1  0  0  0  0
 37 39  1  0  0  0  0
 39 38  1  0  0  0  0
 40 37  2  0  0  0  0
M  END
>  <MODEL>
4

>  <REMARK>
 VINA RESULT:      -6.1      3.912      5.502
  Name = 
  15 active torsions:
  status: ('A' for Active; 'I' for Inactive)
    1  A    between atoms: C_1  and  C_2
    2  A    between atoms: C_1  and  C_23
    3  A    between atoms: N_3  and  C_6
    4  A    between atoms: C_4  and  C_6
    5  A    between atoms: C_4  and  N_7
    6  A    between atoms: C_5  and  N_31
    7  A    between atoms: N_7  and  C_37
    8  A    between atoms: C_9  and  C_20
    9  A    between atoms: C_9  and  N_21
   10  A    between atoms: C_12  and  N_31
   11  A    between atoms: C_13  and  C_37
   12  A    between atoms: C_13  and  S_39
   13  A    between atoms: N_21  and  C_23
   14  A    between atoms: C_22  and  C_33
   15  A    between atoms: C_25  and  C_33
                            x       y       z     vdW  Elec       q    Type
                         _______ _______ _______ _____ _____    ______ ____

>  <TORSDO>
F 15

$$$$
=
 OpenBabel10222421573D

 40 41  0  0  1  0  0  0  0  0999 V2000
  191.3110  177.5210  141.6700 N   0  0  0  0  0  2  0  0  0  0  0  0
  189.8690  177.6980  143.6930 N   0  0  0  0  0  0  0  0  0  0  0  0
  190.0200  177.7410  142.2590 C   0  0  0  0  0  0  0  0  0  0  0  0
  189.0290  177.9910  141.5200 O   0  0  0  0  0  0  0  0  0  0  0  0
  191.5790  177.5060  140.2330 C   0  0  1  0  0  3  0  0  0  0  0  0
  193.0670  177.3300  139.9730 C   0  0  0  0  0  1  0  0  0  0  0  0
  190.7710  176.4160  139.5450 C   0  0  0  0  0  2  0  0  0  0  0  0
  190.5320  176.7730  138.1580 N   0  0  0  0  0  2  0  0  0  0  0  0
  189.5870  177.8780  138.1710 C   0  0  0  0  0  2  0  0  0  0  0  0
  188.9180  178.0510  136.8080 C   0  0  1  0  0  3  0  0  0  0  0  0
  189.5830  177.1770  135.7580 C   0  0  0  0  0  1  0  0  0  0  0  0
  186.9180  176.3910  137.5150 O   0  0  0  0  0  0  0  0  0  0  0  0
  186.4810  177.7170  135.2320 C   0  0  0  0  0  1  0  0  0  0  0  0
  186.4670  178.7940  137.6870 O   0  0  0  0  0  0  0  0  0  0  0  0
  187.1570  177.7320  136.8770 S   0  0  0  0  0  0  0  0  0  0  0  0
  188.5750  177.5560  144.3290 C   0  0  0  0  0  0  0  0  0  0  0  0
  188.4200  177.8940  145.9330 S   0  0  0  0  0  0  0  0  0  0  0  0
  187.4470  176.9790  143.5480 C   0  0  0  0  0  3  0  0  0  0  0  0
  186.1520  177.3210  143.5310 C   0  0  0  0  0  3  0  0  0  0  0  0
  185.5140  178.4300  144.3050 C   0  0  0  0  0  2  0  0  0  0  0  0
  183.6240  177.8880  139.9730 C   0  0  0  0  0  3  0  0  0  0  0  0
  182.5500  179.0640  144.4090 O   0  0  0  0  0  0  0  0  0  0  0  0
  183.7890  178.4080  141.1920 C   0  0  0  0  0  0  0  0  0  0  0  0
  184.7180  179.3560  143.3900 C   0  0  2  0  0  3  0  0  0  0  0  0
  182.7860  178.3810  142.1920 N   0  0  0  0  0  2  0  0  0  0  0  0
  183.2850  178.9380  143.3940 C   0  0  0  0  0  0  0  0  0  0  0  0
  185.3200  179.2080  141.6590 S   0  0  0  0  0  0  0  0  0  0  0  0
  182.3280  175.8500  139.6960 O   0  0  0  0  0  1  0  0  0  0  0  0
  182.4390  177.1960  139.5540 N   0  0  0  0  0  0  0  0  0  0  0  0
  181.4720  177.9220  138.7390 C   0  0  1  0  0  3  0  0  0  0  0  0
  182.0830  180.1740  138.3270 O   0  0  0  0  0  0  0  0  0  0  0  0
  180.6340  178.8160  139.6080 C   0  0  0  0  0  2  0  0  0  0  0  0
  180.8690  180.1930  139.0310 C   0  0  0  0  0  2  0  0  0  0  0  0
  182.1750  178.8780  137.7960 C   0  0  0  0  0  2  0  0  0  0  0  0
  191.0740  177.8000  144.5140 C   0  0  0  0  0  2  0  0  0  0  0  0
  191.4730  176.4260  145.0260 C   0  0  0  0  0  2  0  0  0  0  0  0
  191.8280  176.5040  146.4670 C   0  0  0  0  0  0  0  0  0  0  0  0
  192.9090  175.4510  148.4860 C   0  0  0  0  0  1  0  0  0  0  0  0
  192.5390  175.4270  147.0800 N   0  0  0  0  0  2  0  0  0  0  0  0
  191.5100  177.5260  147.1340 O   0  0  0  0  0  0  0  0  0  0  0  0
  1  3  1  0  0  0  0
  2 16  1  0  0  0  0
  2 35  1  0  0  0  0
  3  2  1  0  0  0  0
  4  3  2  0  0  0  0
  5  6  1  1  0  0  0
  5  1  1  0  0  0  0
  7  5  1  0  0  0  0
  8  9  1  0  0  0  0
  8  7  1  0  0  0  0
 10 11  1  6  0  0  0
 10 15  1  0  0  0  0
 10  9  1  0  0  0  0
 13 15  1  0  0  0  0
 15 12  2  0  0  0  0
 15 14  2  0  0  0  0
 16 17  2  0  0  0  0
 18 16  1  0  0  0  0
 19 18  2  0  0  0  0
 19 20  1  0  0  0  0
 21 23  2  0  0  0  0
 23 27  1  0  0  0  0
 23 25  1  0  0  0  0
 24 26  1  0  0  0  0
 24 20  1  1  0  0  0
 25 26  1  0  0  0  0
 26 22  2  0  0  0  0
 27 24  1  0  0  0  0
 29 28  1  0  0  0  0
 29 21  1  0  0  0  0
 30 29  1  1  0  0  0
 30 32  1  0  0  0  0
 31 33  1  0  0  0  0
 33 32  1  0  0  0  0
 34 31  1  0  0  0  0
 34 30  1  0  0  0  0
 35 36  1  0  0  0  0
 36 37  1  0  0  0  0
 37 39  1  0  0  0  0
 37 40  2  0  0  0  0
 39 38  1  0  0  0  0
M  END
>  <MODEL>
5

>  <REMARK>
 VINA RESULT:      -6.0      2.713      5.804
  Name = 
  15 active torsions:
  status: ('A' for Active; 'I' for Inactive)
    1  A    between atoms: C_1  and  C_2
    2  A    between atoms: C_1  and  C_23
    3  A    between atoms: N_3  and  C_6
    4  A    between atoms: C_4  and  C_6
    5  A    between atoms: C_4  and  N_7
    6  A    between atoms: C_5  and  N_31
    7  A    between atoms: N_7  and  C_37
    8  A    between atoms: C_9  and  C_20
    9  A    between atoms: C_9  and  N_21
   10  A    between atoms: C_12  and  N_31
   11  A    between atoms: C_13  and  C_37
   12  A    between atoms: C_13  and  S_39
   13  A    between atoms: N_21  and  C_23
   14  A    between atoms: C_22  and  C_33
   15  A    between atoms: C_25  and  C_33
                            x       y       z     vdW  Elec       q    Type
                         _______ _______ _______ _____ _____    ______ ____

>  <TORSDO>
F 15

$$$$
=
 OpenBabel10222421573D

 40 41  0  0  1  0  0  0  0  0999 V2000
  187.7880  178.1790  145.4510 N   0  0  0  0  0  2  0  0  0  0  0  0
  189.2720  177.8700  143.4740 N   0  0  0  0  0  0  0  0  0  0  0  0
  188.1270  177.4650  144.2510 C   0  0  0  0  0  0  0  0  0  0  0  0
  187.4310  176.4740  143.8950 O   0  0  0  0  0  0  0  0  0  0  0  0
  186.6360  177.8830  146.2980 C   0  0  1  0  0  3  0  0  0  0  0  0
  187.0250  177.9540  147.7670 C   0  0  0  0  0  1  0  0  0  0  0  0
  185.4840  178.8300  145.9920 C   0  0  0  0  0  2  0  0  0  0  0  0
  184.6340  178.2640  144.9600 N   0  0  0  0  0  2  0  0  0  0  0  0
  183.5060  179.1690  144.8100 C   0  0  0  0  0  2  0  0  0  0  0  0
  183.1400  179.3590  143.3380 C   0  0  1  0  0  3  0  0  0  0  0  0
  183.9580  178.4380  142.4490 C   0  0  0  0  0  1  0  0  0  0  0  0
  180.7950  178.3280  144.1700 O   0  0  0  0  0  0  0  0  0  0  0  0
  181.1380  178.2610  141.5170 C   0  0  0  0  0  1  0  0  0  0  0  0
  180.6950  180.4660  142.9760 O   0  0  0  0  0  0  0  0  0  0  0  0
  181.3870  179.1330  143.0470 S   0  0  0  0  0  0  0  0  0  0  0  0
  189.4640  177.4440  142.1030 C   0  0  0  0  0  0  0  0  0  0  0  0
  190.7510  176.4880  141.7250 S   0  0  0  0  0  0  0  0  0  0  0  0
  188.5700  177.9900  141.0450 C   0  0  0  0  0  3  0  0  0  0  0  0
  188.7800  178.1230  139.7290 C   0  0  0  0  0  3  0  0  0  0  0  0
  190.0050  177.7100  138.9770 C   0  0  0  0  0  2  0  0  0  0  0  0
  186.3640  175.9610  136.4650 C   0  0  0  0  0  3  0  0  0  0  0  0
  188.9370  179.8550  137.1170 O   0  0  0  0  0  0  0  0  0  0  0  0
  187.4420  176.7050  136.7210 C   0  0  0  0  0  0  0  0  0  0  0  0
  189.7250  177.6030  137.4810 C   0  0  2  0  0  3  0  0  0  0  0  0
  187.4310  178.1220  136.7160 N   0  0  0  0  0  2  0  0  0  0  0  0
  188.6990  178.6180  137.0990 C   0  0  0  0  0  0  0  0  0  0  0  0
  189.0230  175.9500  137.0840 S   0  0  0  0  0  0  0  0  0  0  0  0
  184.8120  177.2370  135.0950 O   0  0  0  0  0  1  0  0  0  0  0  0
  185.0600  176.5050  136.2110 N   0  0  0  0  0  0  0  0  0  0  0  0
  184.0830  176.4790  137.2930 C   0  0  1  0  0  3  0  0  0  0  0  0
  182.4900  178.2310  137.1710 O   0  0  0  0  0  0  0  0  0  0  0  0
  184.4260  177.5170  138.3240 C   0  0  0  0  0  2  0  0  0  0  0  0
  183.1920  178.3870  138.3760 C   0  0  0  0  0  2  0  0  0  0  0  0
  182.7150  176.8990  136.7900 C   0  0  0  0  0  2  0  0  0  0  0  0
  190.2600  178.7410  144.1090 C   0  0  0  0  0  2  0  0  0  0  0  0
  191.5080  177.9460  144.4540 C   0  0  0  0  0  2  0  0  0  0  0  0
  191.3450  177.2950  145.7800 C   0  0  0  0  0  0  0  0  0  0  0  0
  191.8400  175.3530  147.3090 C   0  0  0  0  0  1  0  0  0  0  0  0
  191.9690  176.0340  146.0310 N   0  0  0  0  0  2  0  0  0  0  0  0
  190.6660  177.8660  146.6770 O   0  0  0  0  0  0  0  0  0  0  0  0
  1  5  1  0  0  0  0
  2 35  1  0  0  0  0
  2  3  1  0  0  0  0
  3  1  1  0  0  0  0
  4  3  2  0  0  0  0
  5  6  1  1  0  0  0
  7  5  1  0  0  0  0
  8  7  1  0  0  0  0
  9  8  1  0  0  0  0
 10 11  1  6  0  0  0
 10  9  1  0  0  0  0
 13 15  1  0  0  0  0
 14 15  2  0  0  0  0
 15 10  1  0  0  0  0
 15 12  2  0  0  0  0
 16  2  1  0  0  0  0
 17 16  2  0  0  0  0
 18 16  1  0  0  0  0
 19 18  2  0  0  0  0
 20 19  1  0  0  0  0
 21 23  2  0  0  0  0
 23 27  1  0  0  0  0
 24 20  1  1  0  0  0
 25 23  1  0  0  0  0
 25 26  1  0  0  0  0
 26 22  2  0  0  0  0
 26 24  1  0  0  0  0
 27 24  1  0  0  0  0
 28 29  1  0  0  0  0
 29 21  1  0  0  0  0
 30 29  1  6  0  0  0
 30 32  1  0  0  0  0
 31 33  1  0  0  0  0
 32 33  1  0  0  0  0
 34 31  1  0  0  0  0
 34 30  1  0  0  0  0
 35 36  1  0  0  0  0
 36 37  1  0  0  0  0
 37 39  1  0  0  0  0
 37 40  2  0  0  0  0
 39 38  1  0  0  0  0
M  END
>  <MODEL>
6

>  <REMARK>
 VINA RESULT:      -5.9      2.156      3.020
  Name = 
  15 active torsions:
  status: ('A' for Active; 'I' for Inactive)
    1  A    between atoms: C_1  and  C_2
    2  A    between atoms: C_1  and  C_23
    3  A    between atoms: N_3  and  C_6
    4  A    between atoms: C_4  and  C_6
    5  A    between atoms: C_4  and  N_7
    6  A    between atoms: C_5  and  N_31
    7  A    between atoms: N_7  and  C_37
    8  A    between atoms: C_9  and  C_20
    9  A    between atoms: C_9  and  N_21
   10  A    between atoms: C_12  and  N_31
   11  A    between atoms: C_13  and  C_37
   12  A    between atoms: C_13  and  S_39
   13  A    between atoms: N_21  and  C_23
   14  A    between atoms: C_22  and  C_33
   15  A    between atoms: C_25  and  C_33
                            x       y       z     vdW  Elec       q    Type
                         _______ _______ _______ _____ _____    ______ ____

>  <TORSDO>
F 15

$$$$
=
 OpenBabel10222421573D

 40 41  0  0  1  0  0  0  0  0999 V2000
  188.1490  178.0400  145.2710 N   0  0  0  0  0  2  0  0  0  0  0  0
  189.3200  177.8770  143.0790 N   0  0  0  0  0  0  0  0  0  0  0  0
  188.3180  177.3960  143.9980 C   0  0  0  0  0  0  0  0  0  0  0  0
  187.6020  176.4010  143.6990 O   0  0  0  0  0  0  0  0  0  0  0  0
  187.1470  177.6650  146.2660 C   0  0  1  0  0  3  0  0  0  0  0  0
  187.8160  177.3190  147.5880 C   0  0  0  0  0  1  0  0  0  0  0  0
  186.1230  178.7760  146.4460 C   0  0  0  0  0  2  0  0  0  0  0  0
  184.8580  178.3900  145.8450 N   0  0  0  0  0  2  0  0  0  0  0  0
  185.0340  178.4960  144.4050 C   0  0  0  0  0  2  0  0  0  0  0  0
  183.7060  178.3150  143.6700 C   0  0  1  0  0  3  0  0  0  0  0  0
  182.6270  179.2040  144.2640 C   0  0  0  0  0  1  0  0  0  0  0  0
  185.0200  179.5360  141.6600 O   0  0  0  0  0  0  0  0  0  0  0  0
  182.3790  179.3420  141.2800 C   0  0  0  0  0  1  0  0  0  0  0  0
  184.1200  177.3050  141.1920 O   0  0  0  0  0  0  0  0  0  0  0  0
  183.8680  178.6020  141.9090 S   0  0  0  0  0  0  0  0  0  0  0  0
  189.3110  177.5240  141.6740 C   0  0  0  0  0  0  0  0  0  0  0  0
  190.5200  176.5820  141.0680 S   0  0  0  0  0  0  0  0  0  0  0  0
  188.2850  178.1310  140.7830 C   0  0  0  0  0  3  0  0  0  0  0  0
  188.3280  178.3800  139.4680 C   0  0  0  0  0  3  0  0  0  0  0  0
  189.4580  178.0650  138.5400 C   0  0  0  0  0  2  0  0  0  0  0  0
  186.1510  174.9800  137.0660 C   0  0  0  0  0  2  0  0  0  0  0  0
  187.4290  179.5090  136.8090 O   0  0  0  0  0  0  0  0  0  0  0  0
  186.9650  176.0360  137.0110 C   0  0  0  0  0  0  0  0  0  0  0  0
  188.9450  177.6650  137.1590 C   0  0  2  0  0  3  0  0  0  0  0  0
  186.5040  177.3710  136.8980 N   0  0  0  0  0  0  0  0  0  0  0  0
  187.5970  178.2680  136.9420 C   0  0  0  0  0  0  0  0  0  0  0  0
  188.7430  175.8390  137.0630 S   0  0  0  0  0  0  0  0  0  0  0  0
  184.0710  175.8020  138.0210 O   0  0  0  0  0  1  0  0  0  0  0  0
  184.7190  175.0750  137.0740 N   0  0  0  0  0  0  0  0  0  0  0  0
  183.9660  174.1730  136.2110 C   0  0  1  0  0  3  0  0  0  0  0  0
  184.6510  171.9100  136.3800 O   0  0  0  0  0  0  0  0  0  0  0  0
  184.7780  173.8230  134.9970 C   0  0  0  0  0  2  0  0  0  0  0  0
  184.8700  172.3150  135.0540 C   0  0  0  0  0  2  0  0  0  0  0  0
  183.7370  172.8410  136.8980 C   0  0  0  0  0  2  0  0  0  0  0  0
  190.3700  178.7490  143.6010 C   0  0  0  0  0  2  0  0  0  0  0  0
  191.6900  177.9970  143.6580 C   0  0  0  0  0  2  0  0  0  0  0  0
  191.6140  176.9150  144.6730 C   0  0  0  0  0  0  0  0  0  0  0  0
  191.4670  176.2300  147.0940 C   0  0  0  0  0  1  0  0  0  0  0  0
  191.5400  177.2490  146.0610 N   0  0  0  0  0  2  0  0  0  0  0  0
  191.6050  175.7100  144.3010 O   0  0  0  0  0  0  0  0  0  0  0  0
  1  5  1  0  0  0  0
  2 35  1  0  0  0  0
  2  3  1  0  0  0  0
  3  1  1  0  0  0  0
  4  3  2  0  0  0  0
  5  7  1  0  0  0  0
  5  6  1  1  0  0  0
  8  7  1  0  0  0  0
  9  8  1  0  0  0  0
 10 11  1  1  0  0  0
 10  9  1  0  0  0  0
 12 15  2  0  0  0  0
 13 15  1  0  0  0  0
 14 15  2  0  0  0  0
 15 10  1  0  0  0  0
 16  2  1  0  0  0  0
 17 16  2  0  0  0  0
 18 16  1  0  0  0  0
 19 18  2  0  0  0  0
 20 19  1  0  0  0  0
 21 29  1  0  0  0  0
 22 26  2  0  0  0  0
 23 27  1  0  0  0  0
 23 21  1  0  0  0  0
 24 20  1  1  0  0  0
 25 26  1  0  0  0  0
 25 23  2  0  0  0  0
 26 24  1  0  0  0  0
 27 24  1  0  0  0  0
 29 28  1  0  0  0  0
 30 34  1  0  0  0  0
 30 29  1  1  0  0  0
 31 34  1  0  0  0  0
 32 33  1  0  0  0  0
 32 30  1  0  0  0  0
 33 31  1  0  0  0  0
 35 36  1  0  0  0  0
 36 37  1  0  0  0  0
 37 39  1  0  0  0  0
 39 38  1  0  0  0  0
 40 37  2  0  0  0  0
M  END
>  <MODEL>
7

>  <REMARK>
 VINA RESULT:      -5.9      1.977      2.595
  Name = 
  15 active torsions:
  status: ('A' for Active; 'I' for Inactive)
    1  A    between atoms: C_1  and  C_2
    2  A    between atoms: C_1  and  C_23
    3  A    between atoms: N_3  and  C_6
    4  A    between atoms: C_4  and  C_6
    5  A    between atoms: C_4  and  N_7
    6  A    between atoms: C_5  and  N_31
    7  A    between atoms: N_7  and  C_37
    8  A    between atoms: C_9  and  C_20
    9  A    between atoms: C_9  and  N_21
   10  A    between atoms: C_12  and  N_31
   11  A    between atoms: C_13  and  C_37
   12  A    between atoms: C_13  and  S_39
   13  A    between atoms: N_21  and  C_23
   14  A    between atoms: C_22  and  C_33
   15  A    between atoms: C_25  and  C_33
                            x       y       z     vdW  Elec       q    Type
                         _______ _______ _______ _____ _____    ______ ____

>  <TORSDO>
F 15

$$$$
=
 OpenBabel10222421573D

 40 41  0  0  1  0  0  0  0  0999 V2000
  185.7370  178.7340  141.2670 N   0  0  0  0  0  2  0  0  0  0  0  0
  186.3720  178.4000  138.8820 N   0  0  0  0  0  0  0  0  0  0  0  0
  186.7480  178.5200  140.2690 C   0  0  0  0  0  0  0  0  0  0  0  0
  187.9610  178.4580  140.6100 O   0  0  0  0  0  0  0  0  0  0  0  0
  185.9930  178.8360  142.7020 C   0  0  1  0  0  3  0  0  0  0  0  0
  184.8410  179.5460  143.3970 C   0  0  0  0  0  1  0  0  0  0  0  0
  186.2330  177.4610  143.3060 C   0  0  0  0  0  2  0  0  0  0  0  0
  187.0520  177.5760  144.5000 N   0  0  0  0  0  2  0  0  0  0  0  0
  188.4280  177.3650  144.0790 C   0  0  0  0  0  2  0  0  0  0  0  0
  189.4130  177.9420  145.0960 C   0  0  1  0  0  3  0  0  0  0  0  0
  189.1400  177.4010  146.4890 C   0  0  0  0  0  1  0  0  0  0  0  0
  191.7060  178.9230  144.0780 O   0  0  0  0  0  0  0  0  0  0  0  0
  191.1860  176.3970  143.3640 C   0  0  0  0  0  1  0  0  0  0  0  0
  191.9180  177.2040  145.8130 O   0  0  0  0  0  0  0  0  0  0  0  0
  191.1160  177.6510  144.6230 S   0  0  0  0  0  0  0  0  0  0  0  0
  187.2630  177.8400  137.8860 C   0  0  0  0  0  0  0  0  0  0  0  0
  188.5180  178.7460  137.3220 S   0  0  0  0  0  0  0  0  0  0  0  0
  186.9440  176.5100  137.2980 C   0  0  0  0  0  3  0  0  0  0  0  0
  187.7470  175.6210  136.6990 C   0  0  0  0  0  3  0  0  0  0  0  0
  189.2230  175.7510  136.4970 C   0  0  0  0  0  2  0  0  0  0  0  0
  193.7090  174.1710  136.4020 C   0  0  0  0  0  3  0  0  0  0  0  0
  190.4910  176.1440  139.2240 O   0  0  0  0  0  0  0  0  0  0  0  0
  192.5040  174.4350  136.9130 C   0  0  0  0  0  0  0  0  0  0  0  0
  189.9880  174.7300  137.3350 C   0  0  2  0  0  3  0  0  0  0  0  0
  192.2960  175.3140  138.0040 N   0  0  0  0  0  2  0  0  0  0  0  0
  190.9120  175.4490  138.2620 C   0  0  0  0  0  0  0  0  0  0  0  0
  191.0290  173.6720  136.2490 S   0  0  0  0  0  0  0  0  0  0  0  0
  195.2700  176.0350  136.4580 O   0  0  0  0  0  1  0  0  0  0  0  0
  194.9220  174.7850  136.8600 N   0  0  0  0  0  0  0  0  0  0  0  0
  195.8960  173.9490  137.5520 C   0  0  1  0  0  3  0  0  0  0  0  0
  196.9700  175.0460  139.3580 O   0  0  0  0  0  0  0  0  0  0  0  0
  197.2890  174.3220  137.1300 C   0  0  0  0  0  2  0  0  0  0  0  0
  197.9640  174.6990  138.4290 C   0  0  0  0  0  2  0  0  0  0  0  0
  195.8770  174.2250  139.0430 C   0  0  0  0  0  2  0  0  0  0  0  0
  185.0420  178.8630  138.4880 C   0  0  0  0  0  2  0  0  0  0  0  0
  184.0380  177.7300  138.6170 C   0  0  0  0  0  2  0  0  0  0  0  0
  182.7340  178.2580  139.0960 C   0  0  0  0  0  0  0  0  0  0  0  0
  180.5110  179.3230  138.5720 C   0  0  0  0  0  1  0  0  0  0  0  0
  181.7980  178.7920  138.1570 N   0  0  0  0  0  2  0  0  0  0  0  0
  182.4600  178.2210  140.3260 O   0  0  0  0  0  0  0  0  0  0  0  0
  1  5  1  0  0  0  0
  2  3  1  0  0  0  0
  3  4  2  0  0  0  0
  3  1  1  0  0  0  0
  5  7  1  0  0  0  0
  5  6  1  1  0  0  0
  7  8  1  0  0  0  0
  9  8  1  0  0  0  0
  9 10  1  0  0  0  0
 10 11  1  1  0  0  0
 12 15  2  0  0  0  0
 13 15  1  0  0  0  0
 15 10  1  0  0  0  0
 15 14  2  0  0  0  0
 16  2  1  0  0  0  0
 17 16  2  0  0  0  0
 18 16  1  0  0  0  0
 19 18  2  0  0  0  0
 20 19  1  0  0  0  0
 21 29  1  0  0  0  0
 21 23  2  0  0  0  0
 23 25  1  0  0  0  0
 24 20  1  6  0  0  0
 24 26  1  0  0  0  0
 25 26  1  0  0  0  0
 26 22  2  0  0  0  0
 27 23  1  0  0  0  0
 27 24  1  0  0  0  0
 28 29  1  0  0  0  0
 30 29  1  6  0  0  0
 30 34  1  0  0  0  0
 32 30  1  0  0  0  0
 32 33  1  0  0  0  0
 33 31  1  0  0  0  0
 34 31  1  0  0  0  0
 35 36  1  0  0  0  0
 35  2  1  0  0  0  0
 36 37  1  0  0  0  0
 37 40  2  0  0  0  0
 39 38  1  0  0  0  0
 39 37  1  0  0  0  0
M  END
>  <MODEL>
8

>  <REMARK>
 VINA RESULT:      -5.8      3.921      8.330
  Name = 
  15 active torsions:
  status: ('A' for Active; 'I' for Inactive)
    1  A    between atoms: C_1  and  C_2
    2  A    between atoms: C_1  and  C_23
    3  A    between atoms: N_3  and  C_6
    4  A    between atoms: C_4  and  C_6
    5  A    between atoms: C_4  and  N_7
    6  A    between atoms: C_5  and  N_31
    7  A    between atoms: N_7  and  C_37
    8  A    between atoms: C_9  and  C_20
    9  A    between atoms: C_9  and  N_21
   10  A    between atoms: C_12  and  N_31
   11  A    between atoms: C_13  and  C_37
   12  A    between atoms: C_13  and  S_39
   13  A    between atoms: N_21  and  C_23
   14  A    between atoms: C_22  and  C_33
   15  A    between atoms: C_25  and  C_33
                            x       y       z     vdW  Elec       q    Type
                         _______ _______ _______ _____ _____    ______ ____

>  <TORSDO>
F 15

$$$$
=
 OpenBabel10222421573D

 40 41  0  0  1  0  0  0  0  0999 V2000
  184.5440  178.1700  141.7520 N   0  0  0  0  0  2  0  0  0  0  0  0
  183.2870  177.8540  139.6250 N   0  0  0  0  0  0  0  0  0  0  0  0
  184.1290  178.6660  140.4690 C   0  0  0  0  0  0  0  0  0  0  0  0
  184.4890  179.8160  140.0960 O   0  0  0  0  0  0  0  0  0  0  0  0
  185.4210  178.8850  142.6760 C   0  0  1  0  0  3  0  0  0  0  0  0
  184.6020  179.6100  143.7320 C   0  0  0  0  0  1  0  0  0  0  0  0
  186.4200  177.9320  143.3170 C   0  0  0  0  0  2  0  0  0  0  0  0
  186.3800  178.0680  144.7620 N   0  0  0  0  0  2  0  0  0  0  0  0
  187.3910  177.1660  145.2910 C   0  0  0  0  0  2  0  0  0  0  0  0
  188.6240  177.9340  145.7680 C   0  0  1  0  0  3  0  0  0  0  0  0
  188.9640  177.5810  147.2060 C   0  0  0  0  0  1  0  0  0  0  0  0
  189.6450  176.7510  143.5740 O   0  0  0  0  0  0  0  0  0  0  0  0
  191.3620  176.9270  145.6190 C   0  0  0  0  0  1  0  0  0  0  0  0
  190.5040  178.9800  144.1230 O   0  0  0  0  0  0  0  0  0  0  0  0
  190.0360  177.6720  144.6970 S   0  0  0  0  0  0  0  0  0  0  0  0
  183.1260  178.1210  138.2100 C   0  0  0  0  0  0  0  0  0  0  0  0
  182.0120  179.2290  137.7170 S   0  0  0  0  0  0  0  0  0  0  0  0
  183.8770  177.2900  137.2290 C   0  0  0  0  0  3  0  0  0  0  0  0
  185.1850  177.2740  136.9410 C   0  0  0  0  0  3  0  0  0  0  0  0
  186.2480  178.1040  137.5860 C   0  0  0  0  0  2  0  0  0  0  0  0
  190.6700  176.3510  137.5920 C   0  0  0  0  0  2  0  0  0  0  0  0
  186.7920  176.7240  134.9410 O   0  0  0  0  0  0  0  0  0  0  0  0
  189.5600  176.8960  137.0910 C   0  0  0  0  0  0  0  0  0  0  0  0
  187.4450  178.2880  136.6570 C   0  0  2  0  0  3  0  0  0  0  0  0
  188.7660  176.2740  136.0970 N   0  0  0  0  0  0  0  0  0  0  0  0
  187.6190  177.0580  135.8290 C   0  0  0  0  0  0  0  0  0  0  0  0
  188.9850  178.4980  137.6430 S   0  0  0  0  0  0  0  0  0  0  0  0
  190.5820  173.9240  137.7150 O   0  0  0  0  0  1  0  0  0  0  0  0
  191.1580  175.0520  137.2250 N   0  0  0  0  0  0  0  0  0  0  0  0
  192.4360  174.9700  136.5290 C   0  0  1  0  0  3  0  0  0  0  0  0
  194.0770  173.7300  137.7080 O   0  0  0  0  0  0  0  0  0  0  0  0
  193.4190  175.9280  137.1400 C   0  0  0  0  0  2  0  0  0  0  0  0
  194.5640  175.0380  137.5650 C   0  0  0  0  0  2  0  0  0  0  0  0
  193.0730  173.6090  136.7350 C   0  0  0  0  0  2  0  0  0  0  0  0
  182.5820  176.7290  140.2360 C   0  0  0  0  0  2  0  0  0  0  0  0
  181.1170  176.7520  139.8310 C   0  0  0  0  0  2  0  0  0  0  0  0
  180.6890  175.3970  139.3940 C   0  0  0  0  0  0  0  0  0  0  0  0
  180.5700  173.6490  137.5830 C   0  0  0  0  0  1  0  0  0  0  0  0
  180.9680  174.9620  138.0620 N   0  0  0  0  0  2  0  0  0  0  0  0
  180.0950  174.6390  140.2070 O   0  0  0  0  0  0  0  0  0  0  0  0
  1  5  1  0  0  0  0
  2 35  1  0  0  0  0
  2  3  1  0  0  0  0
  3  1  1  0  0  0  0
  4  3  2  0  0  0  0
  5  7  1  0  0  0  0
  5  6  1  1  0  0  0
  7  8  1  0  0  0  0
  8  9  1  0  0  0  0
  9 10  1  0  0  0  0
 10 11  1  1  0  0  0
 12 15  2  0  0  0  0
 14 15  2  0  0  0  0
 15 13  1  0  0  0  0
 15 10  1  0  0  0  0
 16  2  1  0  0  0  0
 17 16  2  0  0  0  0
 18 16  1  0  0  0  0
 19 18  2  0  0  0  0
 19 20  1  0  0  0  0
 22 26  2  0  0  0  0
 23 21  1  0  0  0  0
 23 27  1  0  0  0  0
 24 20  1  1  0  0  0
 24 27  1  0  0  0  0
 25 23  2  0  0  0  0
 26 25  1  0  0  0  0
 26 24  1  0  0  0  0
 29 21  1  0  0  0  0
 29 28  1  0  0  0  0
 30 34  1  0  0  0  0
 30 32  1  0  0  0  0
 30 29  1  1  0  0  0
 32 33  1  0  0  0  0
 33 31  1  0  0  0  0
 34 31  1  0  0  0  0
 36 35  1  0  0  0  0
 37 36  1  0  0  0  0
 37 40  2  0  0  0  0
 38 39  1  0  0  0  0
 39 37  1  0  0  0  0
M  END
>  <MODEL>
9

>  <REMARK>
 VINA RESULT:      -5.7      3.097      8.050
  Name = 
  15 active torsions:
  status: ('A' for Active; 'I' for Inactive)
    1  A    between atoms: C_1  and  C_2
    2  A    between atoms: C_1  and  C_23
    3  A    between atoms: N_3  and  C_6
    4  A    between atoms: C_4  and  C_6
    5  A    between atoms: C_4  and  N_7
    6  A    between atoms: C_5  and  N_31
    7  A    between atoms: N_7  and  C_37
    8  A    between atoms: C_9  and  C_20
    9  A    between atoms: C_9  and  N_21
   10  A    between atoms: C_12  and  N_31
   11  A    between atoms: C_13  and  C_37
   12  A    between atoms: C_13  and  S_39
   13  A    between atoms: N_21  and  C_23
   14  A    between atoms: C_22  and  C_33
   15  A    between atoms: C_25  and  C_33
                            x       y       z     vdW  Elec       q    Type
                         _______ _______ _______ _____ _____    ______ ____

>  <TORSDO>
F 15

$$$$
