=
 OpenBabel10232411523D

 31 34  0  0  1  0  0  0  0  0999 V2000
  184.3900  179.1980  139.5160 C   0  0  0  0  0  1  0  0  0  0  0  0
  186.2180  177.8810  144.8640 C   0  0  0  0  0  1  0  0  0  0  0  0
  190.1560  178.7370  143.2890 O   0  0  0  0  0  1  0  0  0  0  0  0
  189.3890  177.7530  142.6640 C   0  0  2  0  0  0  0  0  0  0  0  0
  188.9640  178.0710  141.3720 C   0  0  0  0  0  0  0  0  0  0  0  0
  184.9210  178.8540  140.8670 C   0  0  0  0  0  0  0  0  0  0  0  0
  183.4550  178.4810  144.2220 N   0  0  0  0  0  1  0  0  0  0  0  0
  185.7780  178.2190  143.4750 C   0  0  0  0  0  0  0  0  0  0  0  0
  186.2830  178.5830  141.0710 C   0  0  0  0  0  0  0  0  0  0  0  0
  187.2350  178.6270  139.9520 C   0  0  0  0  0  3  0  0  0  0  0  0
  188.0270  178.0170  142.4950 C   0  0  0  0  0  0  0  0  0  0  0  0
  188.6430  178.3680  140.0820 C   0  0  0  0  0  0  0  0  0  0  0  0
  184.0520  178.8080  141.9160 N   0  0  0  0  0  0  0  0  0  0  0  0
  186.6890  178.2600  142.4190 C   0  0  0  0  0  0  0  0  0  0  0  0
  184.4350  178.5050  143.1890 C   0  0  0  0  0  0  0  0  0  0  0  0
  188.6040  175.3290  136.9810 C   0  0  1  0  0  3  0  0  0  0  0  0
  190.3280  175.7390  138.7790 C   0  0  0  0  0  2  0  0  0  0  0  0
  190.9470  174.5030  136.7230 C   0  0  0  0  0  1  0  0  0  0  0  0
  189.0210  178.2620  137.5700 N   0  0  0  0  0  2  0  0  0  0  0  0
  187.6640  177.7060  137.5350 C   0  0  2  0  0  3  0  0  0  0  0  0
  189.6020  178.3740  138.9200 C   0  0  2  0  0  3  0  0  0  0  0  0
  187.6250  176.1920  137.7940 C   0  0  0  0  0  2  0  0  0  0  0  0
  188.3550  175.4600  135.6130 O   0  0  0  0  0  1  0  0  0  0  0  0
  186.9990  178.0490  136.2170 C   0  0  0  0  0  1  0  0  0  0  0  0
  191.1050  177.3460  139.1400 S   0  0  0  0  0  0  0  0  0  0  0  0
  190.0770  175.6100  137.2850 C   0  0  1  0  0  3  0  0  0  0  0  0
  189.7840  176.3640  142.8480 N   0  0  0  0  0  2  0  0  0  0  0  0
  191.2360  176.3060  142.9290 C   0  0  0  0  0  2  0  0  0  0  0  0
  191.6440  175.7740  144.2570 C   0  0  0  0  0  0  0  0  0  0  0  0
  191.6140  176.5430  145.2920 N   0  0  0  0  0  1  0  0  0  0  0  0
  192.2290  174.4800  144.3540 N   0  0  0  0  0  2  0  0  0  0  0  0
  1  6  1  0  0  0  0
  4 27  1  0  0  0  0
  4  3  1  1  0  0  0
  5 11  1  0  0  0  0
  5  4  1  0  0  0  0
  6  9  1  0  0  0  0
  6 13  2  0  0  0  0
  8  2  1  0  0  0  0
  9 14  1  0  0  0  0
 10 12  1  0  0  0  0
 10  9  2  0  0  0  0
 11  4  1  0  0  0  0
 12  5  2  0  0  0  0
 13 15  1  0  0  0  0
 14 11  2  0  0  0  0
 14  8  1  0  0  0  0
 15  8  2  0  0  0  0
 15  7  1  0  0  0  0
 16 23  1  6  0  0  0
 16 26  1  0  0  0  0
 16 22  1  0  0  0  0
 17 25  1  0  0  0  0
 19 21  1  0  0  0  0
 20 24  1  6  0  0  0
 20 19  1  0  0  0  0
 20 22  1  0  0  0  0
 21 25  1  0  0  0  0
 21 12  1  1  0  0  0
 26 18  1  1  0  0  0
 26 17  1  0  0  0  0
 27 28  1  0  0  0  0
 28 29  1  0  0  0  0
 29 31  2  0  0  0  0
 29 30  1  0  0  0  0
M  END
>  <MODEL>
1

>  <REMARK>
 VINA RESULT:      -7.8      0.000      0.000
  Name = 
  4 active torsions:
  status: ('A' for Active; 'I' for Inactive)
    1  A    between atoms: C_5  and  N_14
    2  A    between atoms: C_7  and  C_31
    3  A    between atoms: N_14  and  C_31
    4  A    between atoms: C_19  and  C_25
                            x       y       z     vdW  Elec       q    Type
                         _______ _______ _______ _____ _____    ______ ____

>  <TORSDO>
F 4

$$$$
=
 OpenBabel10232411523D

 31 34  0  0  1  0  0  0  0  0999 V2000
  181.7520  179.1640  143.5040 C   0  0  0  0  0  1  0  0  0  0  0  0
  187.2110  178.2360  145.2420 C   0  0  0  0  0  1  0  0  0  0  0  0
  188.2710  179.5450  141.2560 O   0  0  0  0  0  1  0  0  0  0  0  0
  187.4110  178.4540  141.3920 C   0  0  2  0  0  0  0  0  0  0  0  0
  186.1020  178.6800  140.9580 C   0  0  0  0  0  0  0  0  0  0  0  0
  183.1740  178.9280  143.8880 C   0  0  0  0  0  0  0  0  0  0  0  0
  184.9700  178.4620  147.0660 N   0  0  0  0  0  1  0  0  0  0  0  0
  185.8140  178.4780  144.7630 C   0  0  0  0  0  0  0  0  0  0  0  0
  184.1880  178.8380  142.9200 C   0  0  0  0  0  0  0  0  0  0  0  0
  183.8780  178.9730  141.4900 C   0  0  0  0  0  3  0  0  0  0  0  0
  186.4250  178.5380  142.3790 C   0  0  0  0  0  0  0  0  0  0  0  0
  184.8600  178.9000  140.4430 C   0  0  0  0  0  0  0  0  0  0  0  0
  183.4800  178.8000  145.2100 N   0  0  0  0  0  0  0  0  0  0  0  0
  185.5300  178.6060  143.4030 C   0  0  0  0  0  0  0  0  0  0  0  0
  184.7460  178.5830  145.6650 C   0  0  0  0  0  0  0  0  0  0  0  0
  183.0360  175.6430  138.2250 C   0  0  1  0  0  3  0  0  0  0  0  0
  185.3780  176.5690  138.0460 C   0  0  0  0  0  2  0  0  0  0  0  0
  184.3960  175.3020  136.1570 C   0  0  0  0  0  1  0  0  0  0  0  0
  183.1510  178.6400  138.5790 N   0  0  0  0  0  2  0  0  0  0  0  0
  182.4300  177.8130  139.5520 C   0  0  2  0  0  3  0  0  0  0  0  0
  184.5240  178.9960  138.9780 C   0  0  2  0  0  3  0  0  0  0  0  0
  182.9140  176.3540  139.5830 C   0  0  0  0  0  2  0  0  0  0  0  0
  181.7980  175.5910  137.5830 O   0  0  0  0  0  1  0  0  0  0  0  0
  180.9390  177.8860  139.2880 C   0  0  0  0  0  1  0  0  0  0  0  0
  185.7970  178.3280  137.8370 S   0  0  0  0  0  0  0  0  0  0  0  0
  184.0920  176.2510  137.3000 C   0  0  1  0  0  3  0  0  0  0  0  0
  187.9340  177.1320  141.0770 N   0  0  0  0  0  2  0  0  0  0  0  0
  189.3780  177.2330  140.9250 C   0  0  0  0  0  2  0  0  0  0  0  0
  190.0490  176.6630  142.1240 C   0  0  0  0  0  0  0  0  0  0  0  0
  189.3910  175.8890  142.9200 N   0  0  0  0  0  1  0  0  0  0  0  0
  191.3520  177.1070  142.4850 N   0  0  0  0  0  2  0  0  0  0  0  0
  1  6  1  0  0  0  0
  4  3  1  6  0  0  0
  4 11  1  0  0  0  0
  5  4  1  0  0  0  0
  5 11  1  0  0  0  0
  6 13  2  0  0  0  0
  8  2  1  0  0  0  0
  8 15  2  0  0  0  0
  9 14  1  0  0  0  0
  9  6  1  0  0  0  0
 10  9  2  0  0  0  0
 11 14  2  0  0  0  0
 12  5  2  0  0  0  0
 12 10  1  0  0  0  0
 13 15  1  0  0  0  0
 14  8  1  0  0  0  0
 15  7  1  0  0  0  0
 16 23  1  6  0  0  0
 16 22  1  0  0  0  0
 19 21  1  0  0  0  0
 19 20  1  0  0  0  0
 20 24  1  6  0  0  0
 20 22  1  0  0  0  0
 21 12  1  1  0  0  0
 25 17  1  0  0  0  0
 25 21  1  0  0  0  0
 26 18  1  6  0  0  0
 26 17  1  0  0  0  0
 26 16  1  0  0  0  0
 27  4  1  0  0  0  0
 28 27  1  0  0  0  0
 28 29  1  0  0  0  0
 29 31  2  0  0  0  0
 29 30  1  0  0  0  0
M  END
>  <MODEL>
2

>  <REMARK>
 VINA RESULT:      -7.5      2.808      4.240
  Name = 
  4 active torsions:
  status: ('A' for Active; 'I' for Inactive)
    1  A    between atoms: C_5  and  N_14
    2  A    between atoms: C_7  and  C_31
    3  A    between atoms: N_14  and  C_31
    4  A    between atoms: C_19  and  C_25
                            x       y       z     vdW  Elec       q    Type
                         _______ _______ _______ _____ _____    ______ ____

>  <TORSDO>
F 4

$$$$
=
 OpenBabel10232411523D

 31 34  0  0  1  0  0  0  0  0999 V2000
  184.1470  178.6950  144.4610 C   0  0  0  0  0  1  0  0  0  0  0  0
  189.6450  177.2130  143.3390 C   0  0  0  0  0  1  0  0  0  0  0  0
  188.9650  179.1600  139.5340 O   0  0  0  0  0  1  0  0  0  0  0  0
  188.1280  178.1040  139.9010 C   0  0  2  0  0  0  0  0  0  0  0  0
  186.8030  178.4660  140.1560 C   0  0  0  0  0  0  0  0  0  0  0  0
  185.5490  178.3270  144.1090 C   0  0  0  0  0  0  0  0  0  0  0  0
  188.5030  177.2170  146.0030 N   0  0  0  0  0  1  0  0  0  0  0  0
  188.2240  177.6020  143.5960 C   0  0  0  0  0  0  0  0  0  0  0  0
  186.0040  178.3630  142.7810 C   0  0  0  0  0  0  0  0  0  0  0  0
  185.1070  178.7650  141.6890 C   0  0  0  0  0  3  0  0  0  0  0  0
  187.7070  178.0580  141.2330 C   0  0  0  0  0  0  0  0  0  0  0  0
  185.5000  178.8330  140.3080 C   0  0  0  0  0  0  0  0  0  0  0  0
  186.3960  177.9500  145.1090 N   0  0  0  0  0  0  0  0  0  0  0  0
  187.3800  177.9850  142.5530 C   0  0  0  0  0  0  0  0  0  0  0  0
  187.6940  177.5960  144.8950 C   0  0  0  0  0  0  0  0  0  0  0  0
  182.2360  176.2720  139.0260 C   0  0  1  0  0  3  0  0  0  0  0  0
  184.3710  176.8510  137.8090 C   0  0  0  0  0  2  0  0  0  0  0  0
  182.3960  176.0550  136.5430 C   0  0  0  0  0  1  0  0  0  0  0  0
  183.1150  179.1260  139.4770 N   0  0  0  0  0  2  0  0  0  0  0  0
  182.7660  178.2770  140.6200 C   0  0  2  0  0  3  0  0  0  0  0  0
  184.5590  179.2050  139.1920 C   0  0  2  0  0  3  0  0  0  0  0  0
  182.8970  176.7750  140.3200 C   0  0  0  0  0  2  0  0  0  0  0  0
  180.8600  176.5080  139.0530 O   0  0  0  0  0  1  0  0  0  0  0  0
  181.3700  178.6140  141.1060 C   0  0  0  0  0  1  0  0  0  0  0  0
  185.0000  178.5380  137.5400 S   0  0  0  0  0  0  0  0  0  0  0  0
  182.8510  176.8510  137.7500 C   0  0  1  0  0  3  0  0  0  0  0  0
  188.2870  176.8360  139.2040 N   0  0  0  0  0  2  0  0  0  0  0  0
  189.3310  176.9900  138.2010 C   0  0  0  0  0  2  0  0  0  0  0  0
  190.5310  176.2090  138.6040 C   0  0  0  0  0  0  0  0  0  0  0  0
  191.4360  176.7580  139.3420 N   0  0  0  0  0  1  0  0  0  0  0  0
  190.7660  174.9260  138.0340 N   0  0  0  0  0  2  0  0  0  0  0  0
  2  8  1  0  0  0  0
  4  3  1  6  0  0  0
  4  5  1  0  0  0  0
  4 11  1  0  0  0  0
  5 12  2  0  0  0  0
  5 11  1  0  0  0  0
  6  1  1  0  0  0  0
  6 13  2  0  0  0  0
  8 15  2  0  0  0  0
  9  6  1  0  0  0  0
 10  9  2  0  0  0  0
 11 14  2  0  0  0  0
 12 10  1  0  0  0  0
 14  9  1  0  0  0  0
 14  8  1  0  0  0  0
 15 13  1  0  0  0  0
 15  7  1  0  0  0  0
 16 23  1  1  0  0  0
 16 22  1  0  0  0  0
 19 20  1  0  0  0  0
 20 24  1  6  0  0  0
 21 19  1  0  0  0  0
 21 12  1  1  0  0  0
 22 20  1  0  0  0  0
 25 17  1  0  0  0  0
 25 21  1  0  0  0  0
 26 18  1  6  0  0  0
 26 17  1  0  0  0  0
 26 16  1  0  0  0  0
 27  4  1  0  0  0  0
 28 29  1  0  0  0  0
 28 27  1  0  0  0  0
 29 30  1  0  0  0  0
 31 29  2  0  0  0  0
M  END
>  <MODEL>
3

>  <REMARK>
 VINA RESULT:      -7.3      3.002      5.184
  Name = 
  4 active torsions:
  status: ('A' for Active; 'I' for Inactive)
    1  A    between atoms: C_5  and  N_14
    2  A    between atoms: C_7  and  C_31
    3  A    between atoms: N_14  and  C_31
    4  A    between atoms: C_19  and  C_25
                            x       y       z     vdW  Elec       q    Type
                         _______ _______ _______ _____ _____    ______ ____

>  <TORSDO>
F 4

$$$$
=
 OpenBabel10232411523D

 31 34  0  0  1  0  0  0  0  0999 V2000
  189.5380  177.7400  141.8770 C   0  0  0  0  0  1  0  0  0  0  0  0
  183.9440  178.4650  143.2400 C   0  0  0  0  0  1  0  0  0  0  0  0
  183.2440  177.7290  139.0340 O   0  0  0  0  0  1  0  0  0  0  0  0
  184.0850  178.7830  139.3940 C   0  0  2  0  0  0  0  0  0  0  0  0
  185.4270  178.6080  139.0500 C   0  0  0  0  0  0  0  0  0  0  0  0
  188.0870  177.9330  142.1630 C   0  0  0  0  0  0  0  0  0  0  0  0
  186.0160  177.9700  145.2060 N   0  0  0  0  0  1  0  0  0  0  0  0
  185.3780  178.2810  142.8570 C   0  0  0  0  0  0  0  0  0  0  0  0
  187.1620  178.1640  141.1320 C   0  0  0  0  0  0  0  0  0  0  0  0
  187.5970  178.2260  139.7300 C   0  0  0  0  0  3  0  0  0  0  0  0
  184.9800  178.5550  140.4430 C   0  0  0  0  0  0  0  0  0  0  0  0
  186.7100  178.4510  138.6210 C   0  0  0  0  0  0  0  0  0  0  0  0
  187.6650  177.8800  143.4580 N   0  0  0  0  0  0  0  0  0  0  0  0
  185.7810  178.3390  141.5220 C   0  0  0  0  0  0  0  0  0  0  0  0
  186.3630  178.0430  143.8260 C   0  0  0  0  0  0  0  0  0  0  0  0
  188.1950  175.0450  136.3740 C   0  0  1  0  0  3  0  0  0  0  0  0
  189.4620  177.0520  137.2360 C   0  0  0  0  0  2  0  0  0  0  0  0
  190.3730  175.7230  135.3540 C   0  0  0  0  0  1  0  0  0  0  0  0
  186.5960  177.6030  136.2270 N   0  0  0  0  0  2  0  0  0  0  0  0
  186.0080  176.4040  136.8330 C   0  0  2  0  0  3  0  0  0  0  0  0
  187.1750  178.5550  137.1920 C   0  0  2  0  0  3  0  0  0  0  0  0
  187.0610  175.4080  137.3460 C   0  0  0  0  0  2  0  0  0  0  0  0
  187.6830  174.4530  135.2180 O   0  0  0  0  0  1  0  0  0  0  0  0
  185.0640  175.7390  135.8500 C   0  0  0  0  0  1  0  0  0  0  0  0
  188.9820  178.7880  136.9710 S   0  0  0  0  0  0  0  0  0  0  0  0
  189.1020  176.2240  136.0130 C   0  0  1  0  0  3  0  0  0  0  0  0
  183.5870  180.1400  139.2210 N   0  0  0  0  0  2  0  0  0  0  0  0
  182.3540  180.0820  138.4490 C   0  0  0  0  0  2  0  0  0  0  0  0
  181.4680  181.2140  138.8330 C   0  0  0  0  0  0  0  0  0  0  0  0
  180.5530  181.0380  139.7270 N   0  0  0  0  0  1  0  0  0  0  0  0
  181.5120  182.4310  138.0960 N   0  0  0  0  0  2  0  0  0  0  0  0
  1  6  1  0  0  0  0
  4  3  1  6  0  0  0
  4 11  1  0  0  0  0
  5  4  1  0  0  0  0
  5 11  1  0  0  0  0
  6 13  2  0  0  0  0
  8  2  1  0  0  0  0
  8 15  2  0  0  0  0
  9 14  1  0  0  0  0
  9  6  1  0  0  0  0
 10  9  2  0  0  0  0
 11 14  2  0  0  0  0
 12  5  2  0  0  0  0
 12 10  1  0  0  0  0
 13 15  1  0  0  0  0
 14  8  1  0  0  0  0
 15  7  1  0  0  0  0
 16 23  1  6  0  0  0
 16 22  1  0  0  0  0
 19 20  1  0  0  0  0
 19 21  1  0  0  0  0
 20 24  1  6  0  0  0
 20 22  1  0  0  0  0
 21 12  1  1  0  0  0
 25 21  1  0  0  0  0
 25 17  1  0  0  0  0
 26 18  1  1  0  0  0
 26 16  1  0  0  0  0
 26 17  1  0  0  0  0
 27  4  1  0  0  0  0
 28 29  1  0  0  0  0
 28 27  1  0  0  0  0
 29 30  1  0  0  0  0
 31 29  2  0  0  0  0
M  END
>  <MODEL>
4

>  <REMARK>
 VINA RESULT:      -7.1      2.624      5.739
  Name = 
  4 active torsions:
  status: ('A' for Active; 'I' for Inactive)
    1  A    between atoms: C_5  and  N_14
    2  A    between atoms: C_7  and  C_31
    3  A    between atoms: N_14  and  C_31
    4  A    between atoms: C_19  and  C_25
                            x       y       z     vdW  Elec       q    Type
                         _______ _______ _______ _____ _____    ______ ____

>  <TORSDO>
F 4

$$$$
=
 OpenBabel10232411523D

 31 34  0  0  1  0  0  0  0  0999 V2000
  182.3250  178.9390  139.2420 C   0  0  0  0  0  1  0  0  0  0  0  0
  185.5430  178.4320  144.0450 C   0  0  0  0  0  1  0  0  0  0  0  0
  188.8620  179.3620  141.4280 O   0  0  0  0  0  1  0  0  0  0  0  0
  188.0660  178.2550  141.1270 C   0  0  2  0  0  0  0  0  0  0  0  0
  187.3050  178.3790  139.9620 C   0  0  0  0  0  0  0  0  0  0  0  0
  183.2060  178.8050  140.4390 C   0  0  0  0  0  0  0  0  0  0  0  0
  182.6620  178.7510  144.0780 N   0  0  0  0  0  1  0  0  0  0  0  0
  184.7410  178.5620  142.7890 C   0  0  0  0  0  0  0  0  0  0  0  0
  184.5960  178.6590  140.3110 C   0  0  0  0  0  0  0  0  0  0  0  0
  185.2320  178.6300  138.9870 C   0  0  0  0  0  3  0  0  0  0  0  0
  186.6860  178.4000  141.2890 C   0  0  0  0  0  0  0  0  0  0  0  0
  186.6470  178.4900  138.7750 C   0  0  0  0  0  0  0  0  0  0  0  0
  182.6330  178.8290  141.6760 N   0  0  0  0  0  0  0  0  0  0  0  0
  185.3540  178.5360  141.5350 C   0  0  0  0  0  0  0  0  0  0  0  0
  183.3470  178.7150  142.8310 C   0  0  0  0  0  0  0  0  0  0  0  0
  187.2380  174.7530  136.6440 C   0  0  1  0  0  3  0  0  0  0  0  0
  188.9610  176.2760  137.6860 C   0  0  0  0  0  2  0  0  0  0  0  0
  189.6200  174.6970  135.8940 C   0  0  0  0  0  1  0  0  0  0  0  0
  186.5490  177.6800  136.3670 N   0  0  0  0  0  2  0  0  0  0  0  0
  185.5490  176.7360  136.8770 C   0  0  2  0  0  3  0  0  0  0  0  0
  187.2820  178.4190  137.4110 C   0  0  2  0  0  3  0  0  0  0  0  0
  186.1700  175.4700  137.4870 C   0  0  0  0  0  2  0  0  0  0  0  0
  186.7020  174.3320  135.4260 O   0  0  0  0  0  1  0  0  0  0  0  0
  184.5640  176.3850  135.7800 C   0  0  0  0  0  1  0  0  0  0  0  0
  189.0830  178.0700  137.4030 S   0  0  0  0  0  0  0  0  0  0  0  0
  188.5040  175.5810  136.4130 C   0  0  1  0  0  3  0  0  0  0  0  0
  188.6320  176.9310  141.3440 N   0  0  0  0  0  2  0  0  0  0  0  0
  190.0780  177.0200  141.2050 C   0  0  0  0  0  2  0  0  0  0  0  0
  190.7320  176.5490  142.4550 C   0  0  0  0  0  0  0  0  0  0  0  0
  190.4020  175.4090  142.9620 N   0  0  0  0  0  2  0  0  0  0  0  0
  191.5860  177.4260  143.1830 N   0  0  0  0  0  1  0  0  0  0  0  0
  1  6  1  0  0  0  0
  4 11  1  0  0  0  0
  4 27  1  0  0  0  0
  4  3  1  1  0  0  0
  5  4  1  0  0  0  0
  5 11  1  0  0  0  0
  6 13  2  0  0  0  0
  8 15  2  0  0  0  0
  8  2  1  0  0  0  0
  9  6  1  0  0  0  0
  9 14  1  0  0  0  0
 10  9  2  0  0  0  0
 11 14  2  0  0  0  0
 12 10  1  0  0  0  0
 12  5  2  0  0  0  0
 13 15  1  0  0  0  0
 14  8  1  0  0  0  0
 15  7  1  0  0  0  0
 16 23  1  6  0  0  0
 16 22  1  0  0  0  0
 19 20  1  0  0  0  0
 19 21  1  0  0  0  0
 20 24  1  6  0  0  0
 20 22  1  0  0  0  0
 21 12  1  1  0  0  0
 25 21  1  0  0  0  0
 25 17  1  0  0  0  0
 26 18  1  1  0  0  0
 26 16  1  0  0  0  0
 26 17  1  0  0  0  0
 28 27  1  0  0  0  0
 28 29  1  0  0  0  0
 29 30  2  0  0  0  0
 29 31  1  0  0  0  0
M  END
>  <MODEL>
5

>  <REMARK>
 VINA RESULT:      -7.0      1.587      2.108
  Name = 
  4 active torsions:
  status: ('A' for Active; 'I' for Inactive)
    1  A    between atoms: C_5  and  N_14
    2  A    between atoms: C_7  and  C_31
    3  A    between atoms: N_14  and  C_31
    4  A    between atoms: C_19  and  C_25
                            x       y       z     vdW  Elec       q    Type
                         _______ _______ _______ _____ _____    ______ ____

>  <TORSDO>
F 4

$$$$
=
 OpenBabel10232411523D

 31 34  0  0  1  0  0  0  0  0999 V2000
  187.3680  178.2980  142.1380 C   0  0  0  0  0  1  0  0  0  0  0  0
  182.0630  178.9130  144.4110 C   0  0  0  0  0  1  0  0  0  0  0  0
  180.6900  177.5910  140.5260 O   0  0  0  0  0  1  0  0  0  0  0  0
  181.5010  178.7250  140.5950 C   0  0  2  0  0  0  0  0  0  0  0  0
  182.7710  178.5740  140.0340 C   0  0  0  0  0  0  0  0  0  0  0  0
  185.9790  178.4540  142.6620 C   0  0  0  0  0  0  0  0  0  0  0  0
  184.4800  178.7890  146.0060 N   0  0  0  0  0  1  0  0  0  0  0  0
  183.4170  178.7520  143.7950 C   0  0  0  0  0  0  0  0  0  0  0  0
  184.8730  178.4990  141.7990 C   0  0  0  0  0  0  0  0  0  0  0  0
  185.0480  178.3960  140.3440 C   0  0  0  0  0  3  0  0  0  0  0  0
  182.5810  178.6840  141.4810 C   0  0  0  0  0  0  0  0  0  0  0  0
  183.9660  178.4270  139.3970 C   0  0  0  0  0  0  0  0  0  0  0  0
  185.7970  178.5520  144.0090 N   0  0  0  0  0  0  0  0  0  0  0  0
  183.5740  178.6530  142.4120 C   0  0  0  0  0  0  0  0  0  0  0  0
  184.5720  178.6950  144.5880 C   0  0  0  0  0  0  0  0  0  0  0  0
  184.1710  174.6840  137.2050 C   0  0  1  0  0  3  0  0  0  0  0  0
  186.0070  176.3550  137.6680 C   0  0  0  0  0  2  0  0  0  0  0  0
  186.2130  174.7780  135.7690 C   0  0  0  0  0  1  0  0  0  0  0  0
  183.2080  177.5460  137.1360 N   0  0  0  0  0  2  0  0  0  0  0  0
  182.4850  176.5470  137.9300 C   0  0  2  0  0  3  0  0  0  0  0  0
  184.1630  178.3640  137.9050 C   0  0  2  0  0  3  0  0  0  0  0  0
  183.3570  175.3460  138.3290 C   0  0  0  0  0  2  0  0  0  0  0  0
  183.3270  174.1920  136.2090 O   0  0  0  0  0  1  0  0  0  0  0  0
  181.2440  176.0950  137.1850 C   0  0  0  0  0  1  0  0  0  0  0  0
  185.8990  178.1450  137.3530 S   0  0  0  0  0  0  0  0  0  0  0  0
  185.2410  175.5950  136.5980 C   0  0  1  0  0  3  0  0  0  0  0  0
  180.8810  180.0200  140.3530 N   0  0  0  0  0  2  0  0  0  0  0  0
  180.2090  179.9740  139.0620 C   0  0  0  0  0  2  0  0  0  0  0  0
  181.0100  180.7170  138.0530 C   0  0  0  0  0  0  0  0  0  0  0  0
  181.0610  180.2930  136.8360 N   0  0  0  0  0  2  0  0  0  0  0  0
  181.8570  181.7850  138.4670 N   0  0  0  0  0  1  0  0  0  0  0  0
  1  6  1  0  0  0  0
  4  3  1  6  0  0  0
  4 11  1  0  0  0  0
  5  4  1  0  0  0  0
  5 11  1  0  0  0  0
  6 13  2  0  0  0  0
  8  2  1  0  0  0  0
  8 15  2  0  0  0  0
  9 14  1  0  0  0  0
  9  6  1  0  0  0  0
 10  9  2  0  0  0  0
 11 14  2  0  0  0  0
 12  5  2  0  0  0  0
 12 10  1  0  0  0  0
 13 15  1  0  0  0  0
 14  8  1  0  0  0  0
 15  7  1  0  0  0  0
 16 23  1  6  0  0  0
 16 22  1  0  0  0  0
 19 21  1  0  0  0  0
 19 20  1  0  0  0  0
 20 24  1  6  0  0  0
 20 22  1  0  0  0  0
 21 12  1  1  0  0  0
 25 17  1  0  0  0  0
 25 21  1  0  0  0  0
 26 18  1  1  0  0  0
 26 16  1  0  0  0  0
 26 17  1  0  0  0  0
 27  4  1  0  0  0  0
 28 27  1  0  0  0  0
 29 31  1  0  0  0  0
 29 28  1  0  0  0  0
 30 29  2  0  0  0  0
M  END
>  <MODEL>
6

>  <REMARK>
 VINA RESULT:      -6.7      4.005      6.840
  Name = 
  4 active torsions:
  status: ('A' for Active; 'I' for Inactive)
    1  A    between atoms: C_5  and  N_14
    2  A    between atoms: C_7  and  C_31
    3  A    between atoms: N_14  and  C_31
    4  A    between atoms: C_19  and  C_25
                            x       y       z     vdW  Elec       q    Type
                         _______ _______ _______ _____ _____    ______ ____

>  <TORSDO>
F 4

$$$$
=
 OpenBabel10232411523D

 31 34  0  0  1  0  0  0  0  0999 V2000
  187.7780  178.0260  142.4870 C   0  0  0  0  0  1  0  0  0  0  0  0
  182.1130  179.1610  143.0250 C   0  0  0  0  0  1  0  0  0  0  0  0
  181.9020  178.0110  138.8580 O   0  0  0  0  0  1  0  0  0  0  0  0
  182.7550  179.0560  139.2180 C   0  0  2  0  0  0  0  0  0  0  0  0
  184.1160  178.7810  139.0730 C   0  0  0  0  0  0  0  0  0  0  0  0
  186.3170  178.3190  142.5600 C   0  0  0  0  0  0  0  0  0  0  0  0
  183.8870  178.7820  145.2850 N   0  0  0  0  0  1  0  0  0  0  0  0
  183.5690  178.8680  142.8530 C   0  0  0  0  0  0  0  0  0  0  0  0
  185.5450  178.4810  141.3990 C   0  0  0  0  0  0  0  0  0  0  0  0
  186.1550  178.3710  140.0670 C   0  0  0  0  0  3  0  0  0  0  0  0
  183.4950  178.9000  140.3940 C   0  0  0  0  0  0  0  0  0  0  0  0
  185.4310  178.5180  138.8340 C   0  0  0  0  0  0  0  0  0  0  0  0
  185.7340  178.4250  143.7870 N   0  0  0  0  0  0  0  0  0  0  0  0
  184.1400  178.7630  141.5850 C   0  0  0  0  0  0  0  0  0  0  0  0
  184.4090  178.6890  143.9630 C   0  0  0  0  0  0  0  0  0  0  0  0
  186.1660  174.7660  136.7740 C   0  0  1  0  0  3  0  0  0  0  0  0
  187.8290  176.3670  137.7990 C   0  0  0  0  0  2  0  0  0  0  0  0
  188.5540  174.7800  136.0390 C   0  0  0  0  0  1  0  0  0  0  0  0
  185.3770  177.6620  136.4400 N   0  0  0  0  0  2  0  0  0  0  0  0
  184.4080  176.6930  136.9620 C   0  0  2  0  0  3  0  0  0  0  0  0
  186.0770  178.4450  137.4750 C   0  0  2  0  0  3  0  0  0  0  0  0
  185.0690  175.4600  137.5980 C   0  0  0  0  0  2  0  0  0  0  0  0
  185.6530  174.3050  135.5610 O   0  0  0  0  0  1  0  0  0  0  0  0
  183.4430  176.2880  135.8650 C   0  0  0  0  0  1  0  0  0  0  0  0
  187.8900  178.1590  137.4840 S   0  0  0  0  0  0  0  0  0  0  0  0
  187.4040  175.6340  136.5360 C   0  0  1  0  0  3  0  0  0  0  0  0
  182.3660  180.4090  138.8460 N   0  0  0  0  0  2  0  0  0  0  0  0
  181.0910  180.3460  138.1470 C   0  0  0  0  0  2  0  0  0  0  0  0
  180.9660  181.5060  137.2250 C   0  0  0  0  0  0  0  0  0  0  0  0
  181.0220  182.7070  137.6930 N   0  0  0  0  0  1  0  0  0  0  0  0
  180.6110  181.2940  135.8620 N   0  0  0  0  0  2  0  0  0  0  0  0
  1  6  1  0  0  0  0
  4  3  1  6  0  0  0
  4 11  1  0  0  0  0
  5  4  1  0  0  0  0
  5 11  1  0  0  0  0
  6 13  2  0  0  0  0
  8  2  1  0  0  0  0
  8 15  2  0  0  0  0
  9 14  1  0  0  0  0
  9  6  1  0  0  0  0
 10  9  2  0  0  0  0
 11 14  2  0  0  0  0
 12  5  2  0  0  0  0
 12 10  1  0  0  0  0
 13 15  1  0  0  0  0
 14  8  1  0  0  0  0
 15  7  1  0  0  0  0
 16 23  1  6  0  0  0
 16 22  1  0  0  0  0
 19 20  1  0  0  0  0
 19 21  1  0  0  0  0
 20 24  1  6  0  0  0
 20 22  1  0  0  0  0
 21 25  1  0  0  0  0
 21 12  1  1  0  0  0
 25 17  1  0  0  0  0
 26 18  1  1  0  0  0
 26 16  1  0  0  0  0
 26 17  1  0  0  0  0
 27  4  1  0  0  0  0
 28 27  1  0  0  0  0
 29 30  1  0  0  0  0
 29 28  1  0  0  0  0
 31 29  2  0  0  0  0
M  END
>  <MODEL>
7

>  <REMARK>
 VINA RESULT:      -6.4      3.340      6.443
  Name = 
  4 active torsions:
  status: ('A' for Active; 'I' for Inactive)
    1  A    between atoms: C_5  and  N_14
    2  A    between atoms: C_7  and  C_31
    3  A    between atoms: N_14  and  C_31
    4  A    between atoms: C_19  and  C_25
                            x       y       z     vdW  Elec       q    Type
                         _______ _______ _______ _____ _____    ______ ____

>  <TORSDO>
F 4

$$$$
=
 OpenBabel10232411523D

 31 34  0  0  1  0  0  0  0  0999 V2000
  191.5220  177.2590  141.2140 C   0  0  0  0  0  1  0  0  0  0  0  0
  187.0380  177.2860  144.8980 C   0  0  0  0  0  1  0  0  0  0  0  0
  184.6170  177.4000  141.3130 O   0  0  0  0  0  1  0  0  0  0  0  0
  185.5580  178.4120  141.5140 C   0  0  2  0  0  0  0  0  0  0  0  0
  186.6270  178.4070  140.6150 C   0  0  0  0  0  0  0  0  0  0  0  0
  190.3300  177.2850  142.1110 C   0  0  0  0  0  0  0  0  0  0  0  0
  189.7320  176.5380  145.6650 N   0  0  0  0  0  1  0  0  0  0  0  0
  188.1730  177.2880  143.9240 C   0  0  0  0  0  0  0  0  0  0  0  0
  189.0640  177.6610  141.6360 C   0  0  0  0  0  0  0  0  0  0  0  0
  188.8710  178.0460  140.2310 C   0  0  0  0  0  3  0  0  0  0  0  0
  186.8050  178.0330  142.0190 C   0  0  0  0  0  0  0  0  0  0  0  0
  187.6060  178.4350  139.6690 C   0  0  0  0  0  0  0  0  0  0  0  0
  190.4910  176.9320  143.4180 N   0  0  0  0  0  0  0  0  0  0  0  0
  187.9800  177.6520  142.5910 C   0  0  0  0  0  0  0  0  0  0  0  0
  189.4690  176.9220  144.3190 C   0  0  0  0  0  0  0  0  0  0  0  0
  187.9310  175.6900  136.3200 C   0  0  1  0  0  3  0  0  0  0  0  0
  189.4880  177.5590  136.9980 C   0  0  0  0  0  2  0  0  0  0  0  0
  189.4940  176.7220  134.6660 C   0  0  0  0  0  1  0  0  0  0  0  0
  186.4770  178.1000  137.4160 N   0  0  0  0  0  2  0  0  0  0  0  0
  186.1710  176.7620  137.9310 C   0  0  2  0  0  3  0  0  0  0  0  0
  187.4300  178.8690  138.2370 C   0  0  2  0  0  3  0  0  0  0  0  0
  187.3190  175.7590  137.7290 C   0  0  0  0  0  2  0  0  0  0  0  0
  186.9670  175.3170  135.3820 O   0  0  0  0  0  1  0  0  0  0  0  0
  184.8870  176.2500  137.3080 C   0  0  0  0  0  1  0  0  0  0  0  0
  188.9810  179.2730  137.3440 S   0  0  0  0  0  0  0  0  0  0  0  0
  188.6290  176.9810  135.8840 C   0  0  1  0  0  3  0  0  0  0  0  0
  185.0670  179.7370  141.8660 N   0  0  0  0  0  2  0  0  0  0  0  0
  185.1710  179.8980  143.3090 C   0  0  0  0  0  2  0  0  0  0  0  0
  183.9150  179.4360  143.9570 C   0  0  0  0  0  0  0  0  0  0  0  0
  182.8100  179.4400  143.2900 N   0  0  0  0  0  2  0  0  0  0  0  0
  183.8970  179.1610  145.3540 N   0  0  0  0  0  1  0  0  0  0  0  0
  1  6  1  0  0  0  0
  4  3  1  6  0  0  0
  4 27  1  0  0  0  0
  4 11  1  0  0  0  0
  5  4  1  0  0  0  0
  5 11  1  0  0  0  0
  6 13  2  0  0  0  0
  8 15  2  0  0  0  0
  8  2  1  0  0  0  0
  9  6  1  0  0  0  0
  9 14  1  0  0  0  0
 10  9  2  0  0  0  0
 11 14  2  0  0  0  0
 12 10  1  0  0  0  0
 12  5  2  0  0  0  0
 13 15  1  0  0  0  0
 14  8  1  0  0  0  0
 15  7  1  0  0  0  0
 16 23  1  6  0  0  0
 16 22  1  0  0  0  0
 17 25  1  0  0  0  0
 19 20  1  0  0  0  0
 19 21  1  0  0  0  0
 20 24  1  6  0  0  0
 21 12  1  1  0  0  0
 22 20  1  0  0  0  0
 25 21  1  0  0  0  0
 26 18  1  6  0  0  0
 26 16  1  0  0  0  0
 26 17  1  0  0  0  0
 27 28  1  0  0  0  0
 28 29  1  0  0  0  0
 29 31  1  0  0  0  0
 30 29  2  0  0  0  0
M  END
>  <MODEL>
8

>  <REMARK>
 VINA RESULT:      -6.3      2.052      4.750
  Name = 
  4 active torsions:
  status: ('A' for Active; 'I' for Inactive)
    1  A    between atoms: C_5  and  N_14
    2  A    between atoms: C_7  and  C_31
    3  A    between atoms: N_14  and  C_31
    4  A    between atoms: C_19  and  C_25
                            x       y       z     vdW  Elec       q    Type
                         _______ _______ _______ _____ _____    ______ ____

>  <TORSDO>
F 4

$$$$
=
 OpenBabel10232411523D

 31 34  0  0  1  0  0  0  0  0999 V2000
  183.4410  174.3210  136.4420 C   0  0  0  0  0  1  0  0  0  0  0  0
  184.4960  179.0670  139.6100 C   0  0  0  0  0  1  0  0  0  0  0  0
  187.4830  179.9190  136.5960 O   0  0  0  0  0  1  0  0  0  0  0  0
  187.5630  178.7110  137.2910 C   0  0  2  0  0  0  0  0  0  0  0  0
  187.3220  177.5720  136.5190 C   0  0  0  0  0  0  0  0  0  0  0  0
  183.7690  175.5480  137.2240 C   0  0  0  0  0  0  0  0  0  0  0  0
  182.0950  177.4660  139.8820 N   0  0  0  0  0  1  0  0  0  0  0  0
  184.2520  177.8490  138.7770 C   0  0  0  0  0  0  0  0  0  0  0  0
  184.9630  176.2550  137.0090 C   0  0  0  0  0  0  0  0  0  0  0  0
  185.9350  175.8040  136.0050 C   0  0  0  0  0  3  0  0  0  0  0  0
  186.3660  178.0300  137.5290 C   0  0  0  0  0  0  0  0  0  0  0  0
  187.1750  176.4760  135.7240 C   0  0  0  0  0  0  0  0  0  0  0  0
  182.8790  175.9810  138.1610 N   0  0  0  0  0  0  0  0  0  0  0  0
  185.1800  177.4290  137.8230 C   0  0  0  0  0  0  0  0  0  0  0  0
  183.0820  177.0890  138.9270 C   0  0  0  0  0  0  0  0  0  0  0  0
  190.8470  174.4650  136.8740 C   0  0  1  0  0  3  0  0  0  0  0  0
  190.5430  176.7590  135.8660 C   0  0  0  0  0  2  0  0  0  0  0  0
  192.7190  175.5930  135.6650 C   0  0  0  0  0  1  0  0  0  0  0  0
  188.6150  174.5760  134.8420 N   0  0  0  0  0  2  0  0  0  0  0  0
  188.3790  173.9780  136.1600 C   0  0  2  0  0  3  0  0  0  0  0  0
  188.1830  175.9790  134.7210 C   0  0  2  0  0  3  0  0  0  0  0  0
  189.3530  174.4820  137.2360 C   0  0  0  0  0  2  0  0  0  0  0  0
  191.2700  173.1640  136.5960 O   0  0  0  0  0  1  0  0  0  0  0  0
  188.4190  172.4660  136.0560 C   0  0  0  0  0  1  0  0  0  0  0  0
  189.5710  177.1280  134.3710 S   0  0  0  0  0  0  0  0  0  0  0  0
  191.2160  175.4040  135.7230 C   0  0  1  0  0  3  0  0  0  0  0  0
  188.6250  178.5620  138.2760 N   0  0  0  0  0  2  0  0  0  0  0  0
  188.0400  178.0620  139.5120 C   0  0  0  0  0  2  0  0  0  0  0  0
  189.1080  177.4950  140.3790 C   0  0  0  0  0  0  0  0  0  0  0  0
  190.1340  176.9260  139.8430 N   0  0  0  0  0  2  0  0  0  0  0  0
  188.9150  177.4240  141.7870 N   0  0  0  0  0  1  0  0  0  0  0  0
  1  6  1  0  0  0  0
  4  3  1  6  0  0  0
  4 11  1  0  0  0  0
  4 27  1  0  0  0  0
  5  4  1  0  0  0  0
  5 11  1  0  0  0  0
  6 13  2  0  0  0  0
  8 15  2  0  0  0  0
  8  2  1  0  0  0  0
  9  6  1  0  0  0  0
  9 14  1  0  0  0  0
 10  9  2  0  0  0  0
 11 14  2  0  0  0  0
 12 10  1  0  0  0  0
 12  5  2  0  0  0  0
 13 15  1  0  0  0  0
 14  8  1  0  0  0  0
 15  7  1  0  0  0  0
 16 23  1  6  0  0  0
 16 22  1  0  0  0  0
 19 20  1  0  0  0  0
 20 24  1  6  0  0  0
 20 22  1  0  0  0  0
 21 19  1  0  0  0  0
 21 12  1  1  0  0  0
 25 21  1  0  0  0  0
 25 17  1  0  0  0  0
 26 18  1  1  0  0  0
 26 17  1  0  0  0  0
 26 16  1  0  0  0  0
 27 28  1  0  0  0  0
 28 29  1  0  0  0  0
 29 31  1  0  0  0  0
 30 29  2  0  0  0  0
M  END
>  <MODEL>
9

>  <REMARK>
 VINA RESULT:      -6.2      3.210      4.829
  Name = 
  4 active torsions:
  status: ('A' for Active; 'I' for Inactive)
    1  A    between atoms: C_5  and  N_14
    2  A    between atoms: C_7  and  C_31
    3  A    between atoms: N_14  and  C_31
    4  A    between atoms: C_19  and  C_25
                            x       y       z     vdW  Elec       q    Type
                         _______ _______ _______ _____ _____    ______ ____

>  <TORSDO>
F 4

$$$$
