=
 OpenBabel10232410243D

 42 44  0  0  1  0  0  0  0  0999 V2000
  186.2580  178.2080  143.0290 C   0  0  0  0  0  0  0  0  0  0  0  0
  187.4260  178.1630  140.8580 C   0  0  0  0  0  0  0  0  0  0  0  0
  185.4060  179.5360  141.4920 N   0  0  0  0  0  0  0  0  0  0  0  0
  186.8400  176.6550  144.9070 C   0  0  0  0  0  1  0  0  0  0  0  0
  187.3350  178.4060  139.5800 N   0  0  0  0  0  0  0  0  0  0  0  0
  186.3850  178.6570  141.7610 C   0  0  0  0  0  0  0  0  0  0  0  0
  184.7050  179.5890  142.6530 C   0  0  0  0  0  3  0  0  0  0  0  0
  185.1970  178.7740  143.6230 N   0  0  0  0  0  2  0  0  0  0  0  0
  187.0940  177.1860  143.5770 N   0  0  0  0  0  0  0  0  0  0  0  0
  188.1450  176.6510  142.7460 C   0  0  0  0  0  0  0  0  0  0  0  0
  188.5670  177.3680  141.4710 C   0  0  2  0  0  3  0  0  0  0  0  0
  188.7520  175.6020  143.0870 O   0  0  0  0  0  0  0  0  0  0  0  0
  187.4590  177.6520  137.2690 C   0  0  0  0  0  2  0  0  0  0  0  0
  188.2540  177.9710  138.5260 C   0  0  1  0  0  0  0  0  0  0  0  0
  187.9140  176.2680  136.8170 C   0  0  1  0  0  3  0  0  0  0  0  0
  189.2750  179.0480  138.2030 C   0  0  0  0  0  1  0  0  0  0  0  0
  188.9270  176.6850  138.8730 C   0  0  0  0  0  3  0  0  0  0  0  0
  188.7420  175.7610  137.9440 C   0  0  0  0  0  3  0  0  0  0  0  0
  186.8030  175.4420  136.6390 O   0  0  0  0  0  0  0  0  0  0  0  0
  185.7620  176.3090  136.3080 C   0  0  0  0  0  2  0  0  0  0  0  0
  184.4740  175.5240  136.1580 C   0  0  0  0  0  2  0  0  0  0  0  0
  183.7060  175.6210  137.3860 N   0  0  0  0  0  2  0  0  0  0  0  0
  183.4670  177.0320  137.6480 C   0  0  0  0  0  2  0  0  0  0  0  0
  183.3420  177.3020  139.1490 C   0  0  0  0  0  2  0  0  0  0  0  0
  181.9550  177.8000  139.5680 C   0  0  2  0  0  3  0  0  0  0  0  0
  181.0400  177.6280  138.5270 O   0  0  0  0  0  1  0  0  0  0  0  0
  181.9790  179.2540  140.0360 C   0  0  2  0  0  3  0  0  0  0  0  0
  180.7740  179.5690  140.6660 O   0  0  0  0  0  1  0  0  0  0  0  0
  183.4720  180.7250  138.8910 O   0  0  0  0  0  1  0  0  0  0  0  0
  182.1850  180.1890  138.8550 C   0  0  0  0  0  2  0  0  0  0  0  0
  189.7150  178.3120  141.7920 C   0  0  0  0  0  2  0  0  0  0  0  0
  191.0480  177.6150  141.5800 C   0  0  0  0  0  2  0  0  0  0  0  0
  191.7690  177.4460  142.9080 C   0  0  2  0  0  3  0  0  0  0  0  0
  191.7530  175.9870  143.3270 C   0  0  0  0  0  1  0  0  0  0  0  0
  191.1750  178.3400  143.9980 C   0  0  0  0  0  2  0  0  0  0  0  0
  190.6960  177.5440  145.2060 C   0  0  0  0  0  2  0  0  0  0  0  0
  191.7420  177.3960  146.1190 O   0  0  0  0  0  0  0  0  0  0  0  0
  191.1340  176.8820  147.2650 C   0  0  0  0  0  2  0  0  0  0  0  0
  189.6230  176.8670  147.1010 C   0  0  0  0  0  2  0  0  0  0  0  0
  187.6650  177.3780  148.5530 O   0  0  0  0  0  0  0  0  0  0  0  0
  188.9680  177.6660  148.1760 C   0  0  0  0  0  0  0  0  0  0  0  0
  189.5990  178.5870  148.7550 O   0  0  0  0  0  1  0  0  0  0  0  0
  1  9  1  0  0  0  0
  1  8  1  0  0  0  0
  2 11  1  0  0  0  0
  2  6  1  0  0  0  0
  3  6  1  0  0  0  0
  3  7  2  0  0  0  0
  5  2  2  0  0  0  0
  6  1  2  0  0  0  0
  7  8  1  0  0  0  0
  9  4  1  0  0  0  0
 10 12  2  0  0  0  0
 10  9  1  0  0  0  0
 11 31  1  1  0  0  0
 11 10  1  0  0  0  0
 13 14  1  0  0  0  0
 14 16  1  6  0  0  0
 14 17  1  0  0  0  0
 14  5  1  0  0  0  0
 15 19  1  1  0  0  0
 15 13  1  0  0  0  0
 15 18  1  0  0  0  0
 18 17  2  0  0  0  0
 20 19  1  0  0  0  0
 21 20  1  0  0  0  0
 21 22  1  0  0  0  0
 22 23  1  0  0  0  0
 23 24  1  0  0  0  0
 24 25  1  0  0  0  0
 25 26  1  6  0  0  0
 25 27  1  0  0  0  0
 27 28  1  6  0  0  0
 30 29  1  0  0  0  0
 30 27  1  0  0  0  0
 32 31  1  0  0  0  0
 32 33  1  0  0  0  0
 33 34  1  1  0  0  0
 33 35  1  0  0  0  0
 35 36  1  0  0  0  0
 36 37  1  0  0  0  0
 37 38  1  0  0  0  0
 39 38  1  0  0  0  0
 39 41  1  0  0  0  0
 41 40  2  0  0  0  0
 41 42  1  0  0  0  0
M  END
>  <MODEL>
1

>  <REMARK>
 VINA RESULT:      -5.9      0.000      0.000
  Name = 
  19 active torsions:
  status: ('A' for Active; 'I' for Inactive)
    1  A    between atoms: C_2  and  N_13
    2  A    between atoms: C_3  and  C_16
    3  A    between atoms: C_3  and  C_22
    4  A    between atoms: C_4  and  O_34
    5  A    between atoms: C_6  and  C_25
    6  A    between atoms: C_6  and  C_31
    7  A    between atoms: C_8  and  C_24
    8  A    between atoms: C_8  and  O_38
    9  A    between atoms: C_15  and  C_25
   10  A    between atoms: C_15  and  C_33
   11  A    between atoms: C_16  and  C_40
   12  A    between atoms: C_17  and  C_21
   13  A    between atoms: C_17  and  O_34
   14  A    between atoms: C_19  and  C_24
   15  A    between atoms: C_21  and  N_29
   16  A    between atoms: C_22  and  C_23
   17  A    between atoms: C_23  and  O_38
   18  A    between atoms: N_29  and  C_33
   19  A    between atoms: C_36  and  C_40
                            x       y       z     vdW  Elec       q    Type
                         _______ _______ _______ _____ _____    ______ ____

>  <TORSDO>
F 19

$$$$
=
 OpenBabel10232410243D

 42 44  0  0  1  0  0  0  0  0999 V2000
  192.4990  174.8610  136.5990 C   0  0  0  0  0  0  0  0  0  0  0  0
  191.3640  176.2440  138.2960 C   0  0  0  0  0  0  0  0  0  0  0  0
  193.7170  176.5020  137.4230 N   0  0  0  0  0  0  0  0  0  0  0  0
  191.4680  172.7910  135.6360 C   0  0  0  0  0  1  0  0  0  0  0  0
  191.5190  177.0690  139.2940 N   0  0  0  0  0  0  0  0  0  0  0  0
  192.5130  175.9090  137.4530 C   0  0  1  0  0  3  0  0  0  0  0  0
  194.4050  175.7650  136.5130 C   0  0  0  0  0  3  0  0  0  0  0  0
  193.6880  174.7370  135.9910 N   0  0  0  0  0  0  0  0  0  0  0  0
  191.3870  173.9710  136.4820 N   0  0  0  0  0  0  0  0  0  0  0  0
  190.2160  174.2390  137.2820 C   0  0  0  0  0  0  0  0  0  0  0  0
  190.0340  175.5880  137.9630 C   0  0  2  0  0  3  0  0  0  0  0  0
  189.3110  173.3700  137.3930 O   0  0  0  0  0  0  0  0  0  0  0  0
  191.1900  178.1160  141.4670 C   0  0  0  0  0  2  0  0  0  0  0  0
  190.5030  177.4970  140.2580 C   0  0  1  0  0  0  0  0  0  0  0  0
  190.5940  177.4330  142.6920 C   0  0  1  0  0  3  0  0  0  0  0  0
  189.5590  178.5200  139.6510 C   0  0  0  0  0  1  0  0  0  0  0  0
  189.7470  176.3380  140.8180 C   0  0  0  0  0  3  0  0  0  0  0  0
  189.7960  176.3050  142.1400 C   0  0  0  0  0  3  0  0  0  0  0  0
  191.6180  176.9350  143.5000 O   0  0  0  0  0  0  0  0  0  0  0  0
  190.9640  176.3060  144.5580 C   0  0  0  0  0  2  0  0  0  0  0  0
  191.3290  176.9880  145.8610 C   0  0  0  0  0  2  0  0  0  0  0  0
  190.2310  177.8390  146.2820 N   0  0  0  0  0  2  0  0  0  0  0  0
  189.1470  176.9760  146.7250 C   0  0  0  0  0  2  0  0  0  0  0  0
  187.8690  177.7780  146.9780 C   0  0  0  0  0  2  0  0  0  0  0  0
  186.8980  177.7720  145.7930 C   0  0  2  0  0  3  0  0  0  0  0  0
  187.5980  177.8730  144.5880 O   0  0  0  0  0  1  0  0  0  0  0  0
  185.8440  178.8720  145.9020 C   0  0  2  0  0  3  0  0  0  0  0  0
  185.4980  179.0670  147.2400 O   0  0  0  0  0  1  0  0  0  0  0  0
  183.5020  179.2130  145.5860 O   0  0  0  0  0  1  0  0  0  0  0  0
  184.6010  178.4970  145.1120 C   0  0  0  0  0  2  0  0  0  0  0  0
  189.2430  176.5040  137.0430 C   0  0  0  0  0  2  0  0  0  0  0  0
  187.7560  176.3860  137.3280 C   0  0  0  0  0  2  0  0  0  0  0  0
  186.9570  176.6270  136.0570 C   0  0  2  0  0  3  0  0  0  0  0  0
  187.7450  177.5110  135.1070 C   0  0  0  0  0  1  0  0  0  0  0  0
  185.5810  177.2240  136.3520 C   0  0  0  0  0  2  0  0  0  0  0  0
  184.4960  176.1590  136.4640 C   0  0  0  0  0  2  0  0  0  0  0  0
  183.7150  176.3960  137.5960 O   0  0  0  0  0  0  0  0  0  0  0  0
  183.9140  177.7470  137.8810 C   0  0  0  0  0  2  0  0  0  0  0  0
  183.8780  177.9820  139.3820 C   0  0  0  0  0  2  0  0  0  0  0  0
  185.5660  179.3380  140.6120 O   0  0  0  0  0  1  0  0  0  0  0  0
  184.5000  179.2920  139.7250 C   0  0  0  0  0  0  0  0  0  0  0  0
  184.0760  180.3540  139.2000 O   0  0  0  0  0  0  0  0  0  0  0  0
  2  5  2  0  0  0  0
  3  6  1  0  0  0  0
  4  9  1  0  0  0  0
  5 14  1  0  0  0  0
  6  1  1  1  0  0  0
  6  2  1  0  0  0  0
  7  3  2  0  0  0  0
  8  7  1  0  0  0  0
  8  1  2  0  0  0  0
  9  1  1  0  0  0  0
  9 10  1  0  0  0  0
 10 12  2  0  0  0  0
 10 11  1  0  0  0  0
 11 31  1  6  0  0  0
 11  2  1  0  0  0  0
 13 15  1  0  0  0  0
 14 16  1  6  0  0  0
 14 17  1  0  0  0  0
 14 13  1  0  0  0  0
 15 19  1  1  0  0  0
 17 18  2  0  0  0  0
 18 15  1  0  0  0  0
 19 20  1  0  0  0  0
 20 21  1  0  0  0  0
 21 22  1  0  0  0  0
 22 23  1  0  0  0  0
 23 24  1  0  0  0  0
 25 26  1  6  0  0  0
 25 27  1  0  0  0  0
 25 24  1  0  0  0  0
 27 28  1  1  0  0  0
 30 29  1  0  0  0  0
 30 27  1  0  0  0  0
 31 32  1  0  0  0  0
 33 34  1  6  0  0  0
 33 35  1  0  0  0  0
 33 32  1  0  0  0  0
 35 36  1  0  0  0  0
 36 37  1  0  0  0  0
 37 38  1  0  0  0  0
 38 39  1  0  0  0  0
 39 41  1  0  0  0  0
 41 40  1  0  0  0  0
 42 41  2  0  0  0  0
M  END
>  <MODEL>
2

>  <REMARK>
 VINA RESULT:      -5.9      3.217      8.543
  Name = 
  19 active torsions:
  status: ('A' for Active; 'I' for Inactive)
    1  A    between atoms: C_2  and  N_13
    2  A    between atoms: C_3  and  C_16
    3  A    between atoms: C_3  and  C_22
    4  A    between atoms: C_4  and  O_34
    5  A    between atoms: C_6  and  C_25
    6  A    between atoms: C_6  and  C_31
    7  A    between atoms: C_8  and  C_24
    8  A    between atoms: C_8  and  O_38
    9  A    between atoms: C_15  and  C_25
   10  A    between atoms: C_15  and  C_33
   11  A    between atoms: C_16  and  C_40
   12  A    between atoms: C_17  and  C_21
   13  A    between atoms: C_17  and  O_34
   14  A    between atoms: C_19  and  C_24
   15  A    between atoms: C_21  and  N_29
   16  A    between atoms: C_22  and  C_23
   17  A    between atoms: C_23  and  O_38
   18  A    between atoms: N_29  and  C_33
   19  A    between atoms: C_36  and  C_40
                            x       y       z     vdW  Elec       q    Type
                         _______ _______ _______ _____ _____    ______ ____

>  <TORSDO>
F 19

$$$$
=
 OpenBabel10232410243D

 42 44  0  0  1  0  0  0  0  0999 V2000
  181.6850  177.5950  138.8380 C   0  0  0  0  0  0  0  0  0  0  0  0
  183.5770  178.0680  140.3480 C   0  0  0  0  0  0  0  0  0  0  0  0
  182.2730  175.9170  140.1390 N   0  0  0  0  0  0  0  0  0  0  0  0
  180.6370  179.3560  137.3970 C   0  0  0  0  0  1  0  0  0  0  0  0
  184.1910  177.7250  141.4460 N   0  0  0  0  0  0  0  0  0  0  0  0
  182.5520  177.1830  139.7890 C   0  0  1  0  0  3  0  0  0  0  0  0
  181.2140  175.6020  139.3510 C   0  0  0  0  0  3  0  0  0  0  0  0
  180.8170  176.6170  138.5410 N   0  0  0  0  0  0  0  0  0  0  0  0
  181.6660  178.9320  138.3340 N   0  0  0  0  0  0  0  0  0  0  0  0
  182.6480  179.8620  138.8370 C   0  0  0  0  0  0  0  0  0  0  0  0
  183.8610  179.3660  139.6100 C   0  0  2  0  0  3  0  0  0  0  0  0
  182.5300  181.0950  138.6070 O   0  0  0  0  0  0  0  0  0  0  0  0
  185.6800  177.6850  143.3720 C   0  0  0  0  0  2  0  0  0  0  0  0
  185.2130  178.4880  142.1660 C   0  0  1  0  0  0  0  0  0  0  0  0
  185.5970  178.6270  144.5680 C   0  0  1  0  0  3  0  0  0  0  0  0
  186.4100  178.7840  141.2800 C   0  0  0  0  0  1  0  0  0  0  0  0
  184.6590  179.7440  142.7520 C   0  0  0  0  0  3  0  0  0  0  0  0
  184.8680  179.8180  144.0560 C   0  0  0  0  0  3  0  0  0  0  0  0
  184.8600  178.0270  145.5910 O   0  0  0  0  0  0  0  0  0  0  0  0
  185.6310  178.2050  146.7390 C   0  0  0  0  0  2  0  0  0  0  0  0
  187.0130  177.6220  146.5210 C   0  0  0  0  0  2  0  0  0  0  0  0
  187.7650  177.6920  147.7600 N   0  0  0  0  0  2  0  0  0  0  0  0
  189.1710  177.5010  147.4360 C   0  0  0  0  0  2  0  0  0  0  0  0
  189.4540  177.8490  145.9730 C   0  0  0  0  0  2  0  0  0  0  0  0
  190.5860  177.0230  145.3550 C   0  0  2  0  0  3  0  0  0  0  0  0
  191.7480  177.1370  146.1220 O   0  0  0  0  0  1  0  0  0  0  0  0
  190.8550  177.4050  143.9020 C   0  0  2  0  0  3  0  0  0  0  0  0
  191.5530  178.6130  143.8500 O   0  0  0  0  0  1  0  0  0  0  0  0
  189.0480  176.2890  142.8120 O   0  0  0  0  0  1  0  0  0  0  0  0
  189.5480  177.5480  143.1390 C   0  0  0  0  0  2  0  0  0  0  0  0
  185.0100  179.1460  138.6390 C   0  0  0  0  0  2  0  0  0  0  0  0
  185.0490  177.6970  138.1840 C   0  0  0  0  0  2  0  0  0  0  0  0
  185.2900  177.6240  136.6850 C   0  0  2  0  0  3  0  0  0  0  0  0
  184.1480  176.8870  136.0100 C   0  0  0  0  0  1  0  0  0  0  0  0
  186.6360  176.9780  136.3540 C   0  0  0  0  0  2  0  0  0  0  0  0
  187.7540  178.0030  136.2080 C   0  0  0  0  0  2  0  0  0  0  0  0
  188.9100  177.5350  136.8340 O   0  0  0  0  0  0  0  0  0  0  0  0
  188.9350  178.1980  138.0610 C   0  0  0  0  0  2  0  0  0  0  0  0
  189.0220  177.1970  139.2020 C   0  0  0  0  0  2  0  0  0  0  0  0
  191.3250  177.4820  140.1070 O   0  0  0  0  0  1  0  0  0  0  0  0
  190.4230  176.7200  139.3790 C   0  0  0  0  0  0  0  0  0  0  0  0
  190.7860  175.6210  138.8860 O   0  0  0  0  0  0  0  0  0  0  0  0
  2  5  2  0  0  0  0
  4  9  1  0  0  0  0
  5 14  1  0  0  0  0
  6  1  1  1  0  0  0
  6  3  1  0  0  0  0
  6  2  1  0  0  0  0
  7  3  2  0  0  0  0
  8  1  2  0  0  0  0
  8  7  1  0  0  0  0
  9 10  1  0  0  0  0
  9  1  1  0  0  0  0
 10 11  1  0  0  0  0
 11 31  1  6  0  0  0
 11  2  1  0  0  0  0
 12 10  2  0  0  0  0
 13 15  1  0  0  0  0
 14 16  1  6  0  0  0
 14 17  1  0  0  0  0
 14 13  1  0  0  0  0
 15 19  1  1  0  0  0
 17 18  2  0  0  0  0
 18 15  1  0  0  0  0
 19 20  1  0  0  0  0
 21 20  1  0  0  0  0
 21 22  1  0  0  0  0
 23 22  1  0  0  0  0
 24 23  1  0  0  0  0
 25 24  1  0  0  0  0
 25 26  1  1  0  0  0
 27 28  1  1  0  0  0
 27 25  1  0  0  0  0
 29 30  1  0  0  0  0
 30 27  1  0  0  0  0
 32 31  1  0  0  0  0
 33 34  1  6  0  0  0
 33 32  1  0  0  0  0
 35 33  1  0  0  0  0
 36 35  1  0  0  0  0
 36 37  1  0  0  0  0
 37 38  1  0  0  0  0
 38 39  1  0  0  0  0
 39 41  1  0  0  0  0
 41 40  1  0  0  0  0
 42 41  2  0  0  0  0
M  END
>  <MODEL>
3

>  <REMARK>
 VINA RESULT:      -5.8      2.165      8.564
  Name = 
  19 active torsions:
  status: ('A' for Active; 'I' for Inactive)
    1  A    between atoms: C_2  and  N_13
    2  A    between atoms: C_3  and  C_16
    3  A    between atoms: C_3  and  C_22
    4  A    between atoms: C_4  and  O_34
    5  A    between atoms: C_6  and  C_25
    6  A    between atoms: C_6  and  C_31
    7  A    between atoms: C_8  and  C_24
    8  A    between atoms: C_8  and  O_38
    9  A    between atoms: C_15  and  C_25
   10  A    between atoms: C_15  and  C_33
   11  A    between atoms: C_16  and  C_40
   12  A    between atoms: C_17  and  C_21
   13  A    between atoms: C_17  and  O_34
   14  A    between atoms: C_19  and  C_24
   15  A    between atoms: C_21  and  N_29
   16  A    between atoms: C_22  and  C_23
   17  A    between atoms: C_23  and  O_38
   18  A    between atoms: N_29  and  C_33
   19  A    between atoms: C_36  and  C_40
                            x       y       z     vdW  Elec       q    Type
                         _______ _______ _______ _____ _____    ______ ____

>  <TORSDO>
F 19

$$$$
=
 OpenBabel10232410243D

 42 44  0  0  1  0  0  0  0  0999 V2000
  189.1940  173.9500  135.5700 C   0  0  0  0  0  0  0  0  0  0  0  0
  189.2540  175.8560  137.1330 C   0  0  0  0  0  0  0  0  0  0  0  0
  191.1290  174.9970  135.6790 N   0  0  0  0  0  0  0  0  0  0  0  0
  187.2180  172.4220  135.3820 C   0  0  0  0  0  1  0  0  0  0  0  0
  190.0110  176.6390  137.8490 N   0  0  0  0  0  0  0  0  0  0  0  0
  189.8660  174.9780  136.1350 C   0  0  1  0  0  3  0  0  0  0  0  0
  191.1680  173.9460  134.8220 C   0  0  0  0  0  3  0  0  0  0  0  0
  189.9940  173.2690  134.7360 N   0  0  0  0  0  0  0  0  0  0  0  0
  187.8540  173.6080  135.9320 N   0  0  0  0  0  0  0  0  0  0  0  0
  187.1840  174.4310  136.9100 C   0  0  0  0  0  0  0  0  0  0  0  0
  187.7430  175.7940  137.2910 C   0  0  2  0  0  3  0  0  0  0  0  0
  186.1050  174.0440  137.4320 O   0  0  0  0  0  0  0  0  0  0  0  0
  190.7270  177.7350  139.9020 C   0  0  0  0  0  2  0  0  0  0  0  0
  189.5880  177.5580  138.9090 C   0  0  1  0  0  0  0  0  0  0  0  0
  190.1280  177.4940  141.2840 C   0  0  1  0  0  3  0  0  0  0  0  0
  189.2110  178.9170  138.3450 C   0  0  0  0  0  1  0  0  0  0  0  0
  188.4730  176.9900  139.7230 C   0  0  0  0  0  3  0  0  0  0  0  0
  188.7680  176.9560  141.0120 C   0  0  0  0  0  3  0  0  0  0  0  0
  190.8850  176.5400  141.9660 O   0  0  0  0  0  0  0  0  0  0  0  0
  191.8410  177.2750  142.6650 C   0  0  0  0  0  2  0  0  0  0  0  0
  191.2760  177.7030  144.0050 C   0  0  0  0  0  2  0  0  0  0  0  0
  191.5760  176.6880  144.9990 N   0  0  0  0  0  2  0  0  0  0  0  0
  190.6090  176.8240  146.0770 C   0  0  0  0  0  2  0  0  0  0  0  0
  189.3880  177.6290  145.6260 C   0  0  0  0  0  2  0  0  0  0  0  0
  188.5040  178.1020  146.7840 C   0  0  2  0  0  3  0  0  0  0  0  0
  189.0140  177.6500  148.0030 O   0  0  0  0  0  1  0  0  0  0  0  0
  187.0480  177.6770  146.6130 C   0  0  2  0  0  3  0  0  0  0  0  0
  186.7560  177.5150  145.2580 O   0  0  0  0  0  1  0  0  0  0  0  0
  184.7930  178.4150  146.8870 O   0  0  0  0  0  1  0  0  0  0  0  0
  186.1160  178.7220  147.2050 C   0  0  0  0  0  2  0  0  0  0  0  0
  187.1060  176.8550  136.4070 C   0  0  0  0  0  2  0  0  0  0  0  0
  185.6010  176.6600  136.3480 C   0  0  0  0  0  2  0  0  0  0  0  0
  184.9710  177.0310  137.6800 C   0  0  2  0  0  3  0  0  0  0  0  0
  183.5100  176.6180  137.6980 C   0  0  0  0  0  1  0  0  0  0  0  0
  185.1270  178.5200  137.9910 C   0  0  0  0  0  2  0  0  0  0  0  0
  185.7920  178.7670  139.3390 C   0  0  0  0  0  2  0  0  0  0  0  0
  184.9320  179.4920  140.1660 O   0  0  0  0  0  0  0  0  0  0  0  0
  185.1520  178.9710  141.4410 C   0  0  0  0  0  2  0  0  0  0  0  0
  183.8320  178.6000  142.0960 C   0  0  0  0  0  2  0  0  0  0  0  0
  182.7310  178.7460  144.3250 O   0  0  0  0  0  1  0  0  0  0  0  0
  183.7620  179.1380  143.4840 C   0  0  0  0  0  0  0  0  0  0  0  0
  184.6430  179.9320  143.9020 O   0  0  0  0  0  0  0  0  0  0  0  0
  1  9  1  0  0  0  0
  2 11  1  0  0  0  0
  2  5  2  0  0  0  0
  3  6  1  0  0  0  0
  4  9  1  0  0  0  0
  5 14  1  0  0  0  0
  6  1  1  1  0  0  0
  6  2  1  0  0  0  0
  7  3  2  0  0  0  0
  8  7  1  0  0  0  0
  8  1  2  0  0  0  0
  9 10  1  0  0  0  0
 10 11  1  0  0  0  0
 10 12  2  0  0  0  0
 11 31  1  6  0  0  0
 13 15  1  0  0  0  0
 14 16  1  6  0  0  0
 14 17  1  0  0  0  0
 14 13  1  0  0  0  0
 15 19  1  6  0  0  0
 17 18  2  0  0  0  0
 18 15  1  0  0  0  0
 19 20  1  0  0  0  0
 20 21  1  0  0  0  0
 21 22  1  0  0  0  0
 22 23  1  0  0  0  0
 24 23  1  0  0  0  0
 24 25  1  0  0  0  0
 25 26  1  1  0  0  0
 27 28  1  6  0  0  0
 27 25  1  0  0  0  0
 27 30  1  0  0  0  0
 29 30  1  0  0  0  0
 32 31  1  0  0  0  0
 32 33  1  0  0  0  0
 33 34  1  6  0  0  0
 33 35  1  0  0  0  0
 35 36  1  0  0  0  0
 36 37  1  0  0  0  0
 37 38  1  0  0  0  0
 38 39  1  0  0  0  0
 39 41  1  0  0  0  0
 41 42  2  0  0  0  0
 41 40  1  0  0  0  0
M  END
>  <MODEL>
4

>  <REMARK>
 VINA RESULT:      -5.5      2.837      8.074
  Name = 
  19 active torsions:
  status: ('A' for Active; 'I' for Inactive)
    1  A    between atoms: C_2  and  N_13
    2  A    between atoms: C_3  and  C_16
    3  A    between atoms: C_3  and  C_22
    4  A    between atoms: C_4  and  O_34
    5  A    between atoms: C_6  and  C_25
    6  A    between atoms: C_6  and  C_31
    7  A    between atoms: C_8  and  C_24
    8  A    between atoms: C_8  and  O_38
    9  A    between atoms: C_15  and  C_25
   10  A    between atoms: C_15  and  C_33
   11  A    between atoms: C_16  and  C_40
   12  A    between atoms: C_17  and  C_21
   13  A    between atoms: C_17  and  O_34
   14  A    between atoms: C_19  and  C_24
   15  A    between atoms: C_21  and  N_29
   16  A    between atoms: C_22  and  C_23
   17  A    between atoms: C_23  and  O_38
   18  A    between atoms: N_29  and  C_33
   19  A    between atoms: C_36  and  C_40
                            x       y       z     vdW  Elec       q    Type
                         _______ _______ _______ _____ _____    ______ ____

>  <TORSDO>
F 19

$$$$
=
 OpenBabel10232410243D

 42 44  0  0  1  0  0  0  0  0999 V2000
  190.3750  176.5680  146.7590 C   0  0  0  0  0  0  0  0  0  0  0  0
  190.3800  177.0690  144.3440 C   0  0  0  0  0  0  0  0  0  0  0  0
  192.1070  175.7740  145.6520 N   0  0  0  0  0  0  0  0  0  0  0  0
  188.6680  177.5140  148.3300 C   0  0  0  0  0  1  0  0  0  0  0  0
  191.1070  177.1780  143.2680 N   0  0  0  0  0  0  0  0  0  0  0  0
  190.9550  176.4560  145.5430 C   0  0  0  0  0  0  0  0  0  0  0  0
  192.1750  175.4860  146.9760 C   0  0  0  0  0  3  0  0  0  0  0  0
  191.1280  175.9690  147.6940 N   0  0  0  0  0  2  0  0  0  0  0  0
  189.1850  177.3270  146.9830 N   0  0  0  0  0  0  0  0  0  0  0  0
  188.5600  177.9600  145.8470 C   0  0  0  0  0  0  0  0  0  0  0  0
  188.9450  177.5650  144.4290 C   0  0  2  0  0  3  0  0  0  0  0  0
  187.6570  178.8220  146.0190 O   0  0  0  0  0  0  0  0  0  0  0  0
  189.9210  176.7770  141.1800 C   0  0  0  0  0  2  0  0  0  0  0  0
  190.7190  177.7850  141.9920 C   0  0  1  0  0  0  0  0  0  0  0  0
  190.5610  176.7420  139.7960 C   0  0  1  0  0  3  0  0  0  0  0  0
  189.8720  179.0270  142.2050 C   0  0  0  0  0  1  0  0  0  0  0  0
  191.9060  178.0890  141.1390 C   0  0  0  0  0  3  0  0  0  0  0  0
  191.8190  177.5220  139.9470 C   0  0  0  0  0  3  0  0  0  0  0  0
  190.8620  175.4240  139.4490 O   0  0  0  0  0  0  0  0  0  0  0  0
  191.2110  175.4800  138.1000 C   0  0  0  0  0  2  0  0  0  0  0  0
  190.5300  174.3530  137.3500 C   0  0  0  0  0  2  0  0  0  0  0  0
  189.6420  174.9120  136.3470 N   0  0  0  0  0  2  0  0  0  0  0  0
  188.3450  175.1240  136.9720 C   0  0  0  0  0  2  0  0  0  0  0  0
  187.3360  175.6930  135.9730 C   0  0  0  0  0  2  0  0  0  0  0  0
  187.3160  177.2240  135.9280 C   0  0  2  0  0  3  0  0  0  0  0  0
  188.0800  177.6900  134.8550 O   0  0  0  0  0  1  0  0  0  0  0  0
  187.7860  177.8490  137.2400 C   0  0  2  0  0  3  0  0  0  0  0  0
  186.7660  178.6310  137.7840 O   0  0  0  0  0  1  0  0  0  0  0  0
  189.1390  179.6480  138.0360 O   0  0  0  0  0  1  0  0  0  0  0  0
  189.0130  178.7160  137.0070 C   0  0  0  0  0  2  0  0  0  0  0  0
  188.0090  176.4660  143.9500 C   0  0  0  0  0  2  0  0  0  0  0  0
  187.2970  176.8950  142.6780 C   0  0  0  0  0  2  0  0  0  0  0  0
  186.5690  178.2100  142.9030 C   0  0  2  0  0  3  0  0  0  0  0  0
  185.2640  177.9630  143.6370 C   0  0  0  0  0  1  0  0  0  0  0  0
  186.3310  178.9630  141.5940 C   0  0  0  0  0  2  0  0  0  0  0  0
  184.8730  178.9160  141.1520 C   0  0  0  0  0  2  0  0  0  0  0  0
  184.6860  179.7530  140.0500 O   0  0  0  0  0  0  0  0  0  0  0  0
  183.5310  179.2690  139.4360 C   0  0  0  0  0  2  0  0  0  0  0  0
  183.1330  177.9310  140.0370 C   0  0  0  0  0  2  0  0  0  0  0  0
  182.2130  175.8430  139.0400 O   0  0  0  0  0  1  0  0  0  0  0  0
  183.1550  176.8600  139.0000 C   0  0  0  0  0  0  0  0  0  0  0  0
  184.0120  176.8850  138.0790 O   0  0  0  0  0  0  0  0  0  0  0  0
  1  9  1  0  0  0  0
  1  8  1  0  0  0  0
  2 11  1  0  0  0  0
  2  6  1  0  0  0  0
  3  7  2  0  0  0  0
  5  2  2  0  0  0  0
  6  3  1  0  0  0  0
  6  1  2  0  0  0  0
  7  8  1  0  0  0  0
  9  4  1  0  0  0  0
 10 12  2  0  0  0  0
 10  9  1  0  0  0  0
 11 31  1  1  0  0  0
 11 10  1  0  0  0  0
 13 14  1  0  0  0  0
 14 16  1  1  0  0  0
 14  5  1  0  0  0  0
 15 19  1  1  0  0  0
 15 18  1  0  0  0  0
 15 13  1  0  0  0  0
 17 14  1  0  0  0  0
 18 17  2  0  0  0  0
 20 19  1  0  0  0  0
 21 20  1  0  0  0  0
 22 23  1  0  0  0  0
 22 21  1  0  0  0  0
 24 23  1  0  0  0  0
 25 26  1  6  0  0  0
 25 24  1  0  0  0  0
 25 27  1  0  0  0  0
 27 28  1  6  0  0  0
 30 27  1  0  0  0  0
 30 29  1  0  0  0  0
 32 33  1  0  0  0  0
 32 31  1  0  0  0  0
 33 34  1  6  0  0  0
 35 33  1  0  0  0  0
 36 35  1  0  0  0  0
 37 36  1  0  0  0  0
 38 39  1  0  0  0  0
 38 37  1  0  0  0  0
 41 40  1  0  0  0  0
 41 39  1  0  0  0  0
 42 41  2  0  0  0  0
M  END
>  <MODEL>
5

>  <REMARK>
 VINA RESULT:      -5.2      2.654      6.695
  Name = 
  19 active torsions:
  status: ('A' for Active; 'I' for Inactive)
    1  A    between atoms: C_2  and  N_13
    2  A    between atoms: C_3  and  C_16
    3  A    between atoms: C_3  and  C_22
    4  A    between atoms: C_4  and  O_34
    5  A    between atoms: C_6  and  C_25
    6  A    between atoms: C_6  and  C_31
    7  A    between atoms: C_8  and  C_24
    8  A    between atoms: C_8  and  O_38
    9  A    between atoms: C_15  and  C_25
   10  A    between atoms: C_15  and  C_33
   11  A    between atoms: C_16  and  C_40
   12  A    between atoms: C_17  and  C_21
   13  A    between atoms: C_17  and  O_34
   14  A    between atoms: C_19  and  C_24
   15  A    between atoms: C_21  and  N_29
   16  A    between atoms: C_22  and  C_23
   17  A    between atoms: C_23  and  O_38
   18  A    between atoms: N_29  and  C_33
   19  A    between atoms: C_36  and  C_40
                            x       y       z     vdW  Elec       q    Type
                         _______ _______ _______ _____ _____    ______ ____

>  <TORSDO>
F 19

$$$$
=
 OpenBabel10232410243D

 42 44  0  0  1  0  0  0  0  0999 V2000
  190.4150  176.5820  146.6230 C   0  0  0  0  0  0  0  0  0  0  0  0
  190.1710  177.0080  144.2060 C   0  0  0  0  0  0  0  0  0  0  0  0
  191.9840  175.6870  145.3620 N   0  0  0  0  0  0  0  0  0  0  0  0
  188.9270  177.6430  148.3370 C   0  0  0  0  0  1  0  0  0  0  0  0
  190.7780  177.0560  143.0540 N   0  0  0  0  0  0  0  0  0  0  0  0
  190.8520  176.4100  145.3560 C   0  0  0  0  0  0  0  0  0  0  0  0
  192.1880  175.4370  146.6800 C   0  0  0  0  0  3  0  0  0  0  0  0
  191.2440  175.9830  147.4900 N   0  0  0  0  0  2  0  0  0  0  0  0
  189.2850  177.3940  146.9490 N   0  0  0  0  0  0  0  0  0  0  0  0
  188.5600  178.0160  145.8670 C   0  0  0  0  0  0  0  0  0  0  0  0
  188.7730  177.5630  144.4300 C   0  0  2  0  0  3  0  0  0  0  0  0
  187.7140  178.9180  146.1060 O   0  0  0  0  0  0  0  0  0  0  0  0
  189.6190  176.5470  140.9740 C   0  0  0  0  0  2  0  0  0  0  0  0
  190.2740  177.6380  141.8080 C   0  0  1  0  0  0  0  0  0  0  0  0
  190.2250  176.6550  139.5790 C   0  0  1  0  0  3  0  0  0  0  0  0
  189.2520  178.7290  142.0800 C   0  0  0  0  0  1  0  0  0  0  0  0
  191.3810  178.1470  140.9460 C   0  0  0  0  0  3  0  0  0  0  0  0
  191.3540  177.6130  139.7360 C   0  0  0  0  0  3  0  0  0  0  0  0
  190.7150  175.4110  139.1800 O   0  0  0  0  0  0  0  0  0  0  0  0
  190.5910  175.4070  137.7910 C   0  0  0  0  0  2  0  0  0  0  0  0
  191.9610  175.5440  137.1560 C   0  0  0  0  0  2  0  0  0  0  0  0
  192.7700  174.3900  137.5050 N   0  0  0  0  0  2  0  0  0  0  0  0
  194.0240  174.8790  138.0570 C   0  0  0  0  0  2  0  0  0  0  0  0
  195.1490  173.8600  137.8620 C   0  0  0  0  0  2  0  0  0  0  0  0
  196.3170  174.0430  138.8360 C   0  0  2  0  0  3  0  0  0  0  0  0
  196.0260  175.0480  139.7620 O   0  0  0  0  0  1  0  0  0  0  0  0
  197.6310  174.3340  138.1160 C   0  0  2  0  0  3  0  0  0  0  0  0
  198.2780  175.4100  138.7250 O   0  0  0  0  0  1  0  0  0  0  0  0
  197.6060  176.0200  136.4250 O   0  0  0  0  0  1  0  0  0  0  0  0
  197.3750  174.6640  136.6540 C   0  0  0  0  0  2  0  0  0  0  0  0
  187.7510  176.4880  144.0940 C   0  0  0  0  0  2  0  0  0  0  0  0
  186.3440  176.9890  144.3720 C   0  0  0  0  0  2  0  0  0  0  0  0
  185.9980  178.1290  143.4290 C   0  0  2  0  0  3  0  0  0  0  0  0
  185.3440  179.2620  144.1990 C   0  0  0  0  0  1  0  0  0  0  0  0
  185.1110  177.6650  142.2730 C   0  0  0  0  0  2  0  0  0  0  0  0
  184.4980  178.8300  141.5050 C   0  0  0  0  0  2  0  0  0  0  0  0
  185.3780  179.2550  140.5080 O   0  0  0  0  0  0  0  0  0  0  0  0
  184.6130  179.2490  139.3410 C   0  0  0  0  0  2  0  0  0  0  0  0
  184.6500  177.8760  138.6910 C   0  0  0  0  0  2  0  0  0  0  0  0
  186.7170  178.7720  137.6300 O   0  0  0  0  0  1  0  0  0  0  0  0
  185.7140  177.8150  137.6490 C   0  0  0  0  0  0  0  0  0  0  0  0
  185.7160  176.8880  136.7980 O   0  0  0  0  0  0  0  0  0  0  0  0
  1  9  1  0  0  0  0
  1  8  1  0  0  0  0
  2 11  1  0  0  0  0
  2  6  1  0  0  0  0
  3  7  2  0  0  0  0
  5  2  2  0  0  0  0
  6  3  1  0  0  0  0
  6  1  2  0  0  0  0
  7  8  1  0  0  0  0
  9  4  1  0  0  0  0
 10 12  2  0  0  0  0
 10  9  1  0  0  0  0
 11 31  1  1  0  0  0
 11 10  1  0  0  0  0
 13 14  1  0  0  0  0
 14 16  1  1  0  0  0
 14  5  1  0  0  0  0
 15 19  1  1  0  0  0
 15 18  1  0  0  0  0
 15 13  1  0  0  0  0
 17 14  1  0  0  0  0
 18 17  2  0  0  0  0
 20 19  1  0  0  0  0
 21 22  1  0  0  0  0
 21 20  1  0  0  0  0
 22 23  1  0  0  0  0
 24 23  1  0  0  0  0
 24 25  1  0  0  0  0
 25 26  1  1  0  0  0
 27 28  1  1  0  0  0
 27 25  1  0  0  0  0
 29 30  1  0  0  0  0
 30 27  1  0  0  0  0
 31 32  1  0  0  0  0
 33 34  1  1  0  0  0
 33 32  1  0  0  0  0
 35 33  1  0  0  0  0
 36 35  1  0  0  0  0
 37 36  1  0  0  0  0
 38 37  1  0  0  0  0
 39 38  1  0  0  0  0
 40 41  1  0  0  0  0
 41 39  1  0  0  0  0
 42 41  2  0  0  0  0
M  END
>  <MODEL>
6

>  <REMARK>
 VINA RESULT:      -5.1      4.345      9.023
  Name = 
  19 active torsions:
  status: ('A' for Active; 'I' for Inactive)
    1  A    between atoms: C_2  and  N_13
    2  A    between atoms: C_3  and  C_16
    3  A    between atoms: C_3  and  C_22
    4  A    between atoms: C_4  and  O_34
    5  A    between atoms: C_6  and  C_25
    6  A    between atoms: C_6  and  C_31
    7  A    between atoms: C_8  and  C_24
    8  A    between atoms: C_8  and  O_38
    9  A    between atoms: C_15  and  C_25
   10  A    between atoms: C_15  and  C_33
   11  A    between atoms: C_16  and  C_40
   12  A    between atoms: C_17  and  C_21
   13  A    between atoms: C_17  and  O_34
   14  A    between atoms: C_19  and  C_24
   15  A    between atoms: C_21  and  N_29
   16  A    between atoms: C_22  and  C_23
   17  A    between atoms: C_23  and  O_38
   18  A    between atoms: N_29  and  C_33
   19  A    between atoms: C_36  and  C_40
                            x       y       z     vdW  Elec       q    Type
                         _______ _______ _______ _____ _____    ______ ____

>  <TORSDO>
F 19

$$$$
=
 OpenBabel10232410243D

 42 44  0  0  1  0  0  0  0  0999 V2000
  191.9270  175.6470  137.3760 C   0  0  0  0  0  0  0  0  0  0  0  0
  190.6630  176.7310  139.1950 C   0  0  0  0  0  0  0  0  0  0  0  0
  193.1390  176.8880  138.7340 N   0  0  0  0  0  0  0  0  0  0  0  0
  190.8840  173.9990  135.8040 C   0  0  0  0  0  1  0  0  0  0  0  0
  190.7290  177.2780  140.3760 N   0  0  0  0  0  0  0  0  0  0  0  0
  191.8970  176.4590  138.4560 C   0  0  1  0  0  3  0  0  0  0  0  0
  193.8950  176.3020  137.7720 C   0  0  0  0  0  3  0  0  0  0  0  0
  193.1820  175.5190  136.9210 N   0  0  0  0  0  0  0  0  0  0  0  0
  190.7740  174.9530  136.8960 N   0  0  0  0  0  0  0  0  0  0  0  0
  189.5180  175.1730  137.5730 C   0  0  0  0  0  0  0  0  0  0  0  0
  189.3500  176.3400  138.5350 C   0  0  2  0  0  3  0  0  0  0  0  0
  188.5340  174.4210  137.3450 O   0  0  0  0  0  0  0  0  0  0  0  0
  190.1300  178.4240  142.4390 C   0  0  0  0  0  2  0  0  0  0  0  0
  189.6140  177.5950  141.2720 C   0  0  1  0  0  0  0  0  0  0  0  0
  189.6120  177.7480  143.7040 C   0  0  1  0  0  3  0  0  0  0  0  0
  188.5310  178.3790  140.5510 C   0  0  0  0  0  1  0  0  0  0  0  0
  189.0500  176.3700  141.9110 C   0  0  0  0  0  3  0  0  0  0  0  0
  189.0500  176.4540  143.2310 C   0  0  0  0  0  3  0  0  0  0  0  0
  190.6720  177.5100  144.5790 O   0  0  0  0  0  0  0  0  0  0  0  0
  190.2040  176.5270  145.4490 C   0  0  0  0  0  2  0  0  0  0  0  0
  189.9100  177.1420  146.8030 C   0  0  0  0  0  2  0  0  0  0  0  0
  188.8790  178.1540  146.6580 N   0  0  0  0  0  2  0  0  0  0  0  0
  187.6340  177.5900  147.1560 C   0  0  0  0  0  2  0  0  0  0  0  0
  186.6480  177.3300  146.0150 C   0  0  0  0  0  2  0  0  0  0  0  0
  186.0020  178.6040  145.4610 C   0  0  2  0  0  3  0  0  0  0  0  0
  185.2160  179.2170  146.4400 O   0  0  0  0  0  1  0  0  0  0  0  0
  185.1870  178.3380  144.1980 C   0  0  2  0  0  3  0  0  0  0  0  0
  185.9500  177.6070  143.2860 O   0  0  0  0  0  1  0  0  0  0  0  0
  185.3880  179.8010  142.3210 O   0  0  0  0  0  1  0  0  0  0  0  0
  184.7590  179.6490  143.5560 C   0  0  0  0  0  2  0  0  0  0  0  0
  188.8010  177.5350  137.7720 C   0  0  0  0  0  2  0  0  0  0  0  0
  187.2830  177.4830  137.7280 C   0  0  0  0  0  2  0  0  0  0  0  0
  186.8100  177.1580  136.3200 C   0  0  2  0  0  3  0  0  0  0  0  0
  187.0290  178.3520  135.4090 C   0  0  0  0  0  1  0  0  0  0  0  0
  185.3490  176.7080  136.2980 C   0  0  0  0  0  2  0  0  0  0  0  0
  185.1190  175.5240  135.3660 C   0  0  0  0  0  2  0  0  0  0  0  0
  185.5640  174.3490  135.9750 O   0  0  0  0  0  0  0  0  0  0  0  0
  184.9450  174.3480  137.2250 C   0  0  0  0  0  2  0  0  0  0  0  0
  184.8350  172.9290  137.7590 C   0  0  0  0  0  2  0  0  0  0  0  0
  182.6230  172.3980  136.7450 O   0  0  0  0  0  1  0  0  0  0  0  0
  183.9710  172.0980  136.8730 C   0  0  0  0  0  0  0  0  0  0  0  0
  184.4630  171.1380  136.2260 O   0  0  0  0  0  0  0  0  0  0  0  0
  2  5  2  0  0  0  0
  4  9  1  0  0  0  0
  5 14  1  0  0  0  0
  6  1  1  1  0  0  0
  6  3  1  0  0  0  0
  6  2  1  0  0  0  0
  7  3  2  0  0  0  0
  8  1  2  0  0  0  0
  8  7  1  0  0  0  0
  9  1  1  0  0  0  0
  9 10  1  0  0  0  0
 10 11  1  0  0  0  0
 11 31  1  6  0  0  0
 11  2  1  0  0  0  0
 12 10  2  0  0  0  0
 13 15  1  0  0  0  0
 14 16  1  6  0  0  0
 14 17  1  0  0  0  0
 14 13  1  0  0  0  0
 15 19  1  1  0  0  0
 17 18  2  0  0  0  0
 18 15  1  0  0  0  0
 19 20  1  0  0  0  0
 20 21  1  0  0  0  0
 22 21  1  0  0  0  0
 22 23  1  0  0  0  0
 24 23  1  0  0  0  0
 25 24  1  0  0  0  0
 25 26  1  1  0  0  0
 27 28  1  6  0  0  0
 27 25  1  0  0  0  0
 29 30  1  0  0  0  0
 30 27  1  0  0  0  0
 32 31  1  0  0  0  0
 33 34  1  6  0  0  0
 33 32  1  0  0  0  0
 35 33  1  0  0  0  0
 36 37  1  0  0  0  0
 36 35  1  0  0  0  0
 37 38  1  0  0  0  0
 38 39  1  0  0  0  0
 40 41  1  0  0  0  0
 41 39  1  0  0  0  0
 42 41  2  0  0  0  0
M  END
>  <MODEL>
7

>  <REMARK>
 VINA RESULT:      -5.0      3.070      8.692
  Name = 
  19 active torsions:
  status: ('A' for Active; 'I' for Inactive)
    1  A    between atoms: C_2  and  N_13
    2  A    between atoms: C_3  and  C_16
    3  A    between atoms: C_3  and  C_22
    4  A    between atoms: C_4  and  O_34
    5  A    between atoms: C_6  and  C_25
    6  A    between atoms: C_6  and  C_31
    7  A    between atoms: C_8  and  C_24
    8  A    between atoms: C_8  and  O_38
    9  A    between atoms: C_15  and  C_25
   10  A    between atoms: C_15  and  C_33
   11  A    between atoms: C_16  and  C_40
   12  A    between atoms: C_17  and  C_21
   13  A    between atoms: C_17  and  O_34
   14  A    between atoms: C_19  and  C_24
   15  A    between atoms: C_21  and  N_29
   16  A    between atoms: C_22  and  C_23
   17  A    between atoms: C_23  and  O_38
   18  A    between atoms: N_29  and  C_33
   19  A    between atoms: C_36  and  C_40
                            x       y       z     vdW  Elec       q    Type
                         _______ _______ _______ _____ _____    ______ ____

>  <TORSDO>
F 19

$$$$
=
 OpenBabel10232410243D

 42 44  0  0  1  0  0  0  0  0999 V2000
  186.3500  178.1580  142.9820 C   0  0  0  0  0  0  0  0  0  0  0  0
  187.7800  178.0990  140.9730 C   0  0  0  0  0  0  0  0  0  0  0  0
  185.7210  179.5060  141.3570 N   0  0  0  0  0  0  0  0  0  0  0  0
  186.6660  176.5890  144.9090 C   0  0  0  0  0  1  0  0  0  0  0  0
  187.8540  178.3470  139.6960 N   0  0  0  0  0  0  0  0  0  0  0  0
  186.6430  178.6090  141.7420 C   0  0  0  0  0  0  0  0  0  0  0  0
  184.8810  179.5670  142.4210 C   0  0  0  0  0  3  0  0  0  0  0  0
  185.2330  178.7410  143.4410 N   0  0  0  0  0  2  0  0  0  0  0  0
  187.0940  177.1200  143.6240 N   0  0  0  0  0  0  0  0  0  0  0  0
  188.2310  176.5690  142.9280 C   0  0  0  0  0  0  0  0  0  0  0  0
  188.8220  177.2820  141.7210 C   0  0  2  0  0  3  0  0  0  0  0  0
  188.7730  175.5080  143.3380 O   0  0  0  0  0  0  0  0  0  0  0  0
  188.8790  178.7950  137.5330 C   0  0  0  0  0  2  0  0  0  0  0  0
  188.8910  177.8990  138.7630 C   0  0  1  0  0  0  0  0  0  0  0  0
  188.8340  177.8630  136.3270 C   0  0  1  0  0  3  0  0  0  0  0  0
  190.2690  177.9550  139.3980 C   0  0  0  0  0  1  0  0  0  0  0  0
  188.6050  176.5350  138.2280 C   0  0  0  0  0  3  0  0  0  0  0  0
  188.5740  176.5160  136.9060 C   0  0  0  0  0  3  0  0  0  0  0  0
  187.7790  178.2270  135.4890 O   0  0  0  0  0  0  0  0  0  0  0  0
  187.3110  177.0240  134.9610 C   0  0  0  0  0  2  0  0  0  0  0  0
  185.8270  177.1370  134.6740 C   0  0  0  0  0  2  0  0  0  0  0  0
  185.0820  176.9180  135.9010 N   0  0  0  0  0  2  0  0  0  0  0  0
  184.0500  175.9310  135.6210 C   0  0  0  0  0  2  0  0  0  0  0  0
  183.1350  175.7300  136.8310 C   0  0  0  0  0  2  0  0  0  0  0  0
  183.1240  174.2910  137.3570 C   0  0  2  0  0  3  0  0  0  0  0  0
  184.2480  173.5970  136.9040 O   0  0  0  0  0  1  0  0  0  0  0  0
  181.8420  173.5490  136.9860 C   0  0  2  0  0  3  0  0  0  0  0  0
  182.0560  172.7730  135.8450 O   0  0  0  0  0  1  0  0  0  0  0  0
  180.3810  174.5180  135.3650 O   0  0  0  0  0  1  0  0  0  0  0  0
  180.7150  174.5340  136.7180 C   0  0  0  0  0  2  0  0  0  0  0  0
  189.9370  178.2040  142.1870 C   0  0  0  0  0  2  0  0  0  0  0  0
  189.7100  178.6230  143.6300 C   0  0  0  0  0  2  0  0  0  0  0  0
  190.9870  178.4430  144.4360 C   0  0  2  0  0  3  0  0  0  0  0  0
  191.9770  179.5410  144.0940 C   0  0  0  0  0  1  0  0  0  0  0  0
  191.6040  177.0590  144.2270 C   0  0  0  0  0  2  0  0  0  0  0  0
  191.6740  176.2520  145.5180 C   0  0  0  0  0  2  0  0  0  0  0  0
  191.5910  177.1100  146.6170 O   0  0  0  0  0  0  0  0  0  0  0  0
  190.6750  176.4950  147.4710 C   0  0  0  0  0  2  0  0  0  0  0  0
  189.2570  176.8980  147.1040 C   0  0  0  0  0  2  0  0  0  0  0  0
  187.4490  178.4140  147.9020 O   0  0  0  0  0  0  0  0  0  0  0  0
  188.7450  177.9390  148.0400 C   0  0  0  0  0  0  0  0  0  0  0  0
  189.4770  178.3750  148.9660 O   0  0  0  0  0  1  0  0  0  0  0  0
  1  8  1  0  0  0  0
  1  9  1  0  0  0  0
  2 11  1  0  0  0  0
  2  6  1  0  0  0  0
  3  6  1  0  0  0  0
  3  7  2  0  0  0  0
  5  2  2  0  0  0  0
  6  1  2  0  0  0  0
  7  8  1  0  0  0  0
  9  4  1  0  0  0  0
 10 12  2  0  0  0  0
 10  9  1  0  0  0  0
 11 31  1  1  0  0  0
 11 10  1  0  0  0  0
 13 14  1  0  0  0  0
 14 16  1  1  0  0  0
 14  5  1  0  0  0  0
 15 19  1  6  0  0  0
 15 18  1  0  0  0  0
 15 13  1  0  0  0  0
 17 14  1  0  0  0  0
 18 17  2  0  0  0  0
 20 19  1  0  0  0  0
 21 20  1  0  0  0  0
 21 22  1  0  0  0  0
 23 22  1  0  0  0  0
 23 24  1  0  0  0  0
 24 25  1  0  0  0  0
 25 26  1  6  0  0  0
 27 28  1  6  0  0  0
 27 25  1  0  0  0  0
 29 30  1  0  0  0  0
 30 27  1  0  0  0  0
 31 32  1  0  0  0  0
 32 33  1  0  0  0  0
 33 34  1  6  0  0  0
 35 33  1  0  0  0  0
 35 36  1  0  0  0  0
 36 37  1  0  0  0  0
 37 38  1  0  0  0  0
 39 38  1  0  0  0  0
 39 41  1  0  0  0  0
 40 41  2  0  0  0  0
 41 42  1  0  0  0  0
M  END
>  <MODEL>
8

>  <REMARK>
 VINA RESULT:      -4.9      2.210      2.873
  Name = 
  19 active torsions:
  status: ('A' for Active; 'I' for Inactive)
    1  A    between atoms: C_2  and  N_13
    2  A    between atoms: C_3  and  C_16
    3  A    between atoms: C_3  and  C_22
    4  A    between atoms: C_4  and  O_34
    5  A    between atoms: C_6  and  C_25
    6  A    between atoms: C_6  and  C_31
    7  A    between atoms: C_8  and  C_24
    8  A    between atoms: C_8  and  O_38
    9  A    between atoms: C_15  and  C_25
   10  A    between atoms: C_15  and  C_33
   11  A    between atoms: C_16  and  C_40
   12  A    between atoms: C_17  and  C_21
   13  A    between atoms: C_17  and  O_34
   14  A    between atoms: C_19  and  C_24
   15  A    between atoms: C_21  and  N_29
   16  A    between atoms: C_22  and  C_23
   17  A    between atoms: C_23  and  O_38
   18  A    between atoms: N_29  and  C_33
   19  A    between atoms: C_36  and  C_40
                            x       y       z     vdW  Elec       q    Type
                         _______ _______ _______ _____ _____    ______ ____

>  <TORSDO>
F 19

$$$$
=
 OpenBabel10232410243D

 42 44  0  0  1  0  0  0  0  0999 V2000
  180.8170  180.6270  139.5960 C   0  0  0  0  0  0  0  0  0  0  0  0
  181.8600  178.7590  138.3690 C   0  0  0  0  0  0  0  0  0  0  0  0
  181.2680  181.0460  137.4810 N   0  0  0  0  0  0  0  0  0  0  0  0
  179.9820  180.3970  141.9470 C   0  0  0  0  0  1  0  0  0  0  0  0
  182.0940  178.2370  137.1980 N   0  0  0  0  0  0  0  0  0  0  0  0
  181.3490  180.1280  138.4580 C   0  0  0  0  0  0  0  0  0  0  0  0
  180.6750  182.1020  138.0930 C   0  0  0  0  0  3  0  0  0  0  0  0
  180.3730  181.8760  139.3980 N   0  0  0  0  0  2  0  0  0  0  0  0
  180.6680  179.8500  140.7870 N   0  0  0  0  0  0  0  0  0  0  0  0
  181.1510  178.4900  140.7760 C   0  0  0  0  0  0  0  0  0  0  0  0
  182.0790  178.0060  139.6710 C   0  0  2  0  0  3  0  0  0  0  0  0
  180.8380  177.6980  141.7040 O   0  0  0  0  0  0  0  0  0  0  0  0
  184.0450  176.7830  137.2820 C   0  0  0  0  0  2  0  0  0  0  0  0
  182.5740  176.8830  136.9090 C   0  0  1  0  0  0  0  0  0  0  0  0
  184.7520  176.1870  136.0690 C   0  0  1  0  0  3  0  0  0  0  0  0
  181.7950  175.8410  137.6940 C   0  0  0  0  0  1  0  0  0  0  0  0
  182.5420  176.5830  135.4470 C   0  0  0  0  0  3  0  0  0  0  0  0
  183.7250  176.2060  134.9920 C   0  0  0  0  0  3  0  0  0  0  0  0
  185.8300  176.9960  135.7060 O   0  0  0  0  0  0  0  0  0  0  0  0
  186.0340  177.8330  136.8030 C   0  0  0  0  0  2  0  0  0  0  0  0
  187.4750  178.3030  136.8240 C   0  0  0  0  0  2  0  0  0  0  0  0
  187.8290  178.7080  138.1730 N   0  0  0  0  0  2  0  0  0  0  0  0
  189.2730  178.5960  138.3030 C   0  0  0  0  0  2  0  0  0  0  0  0
  189.7590  177.2040  137.8940 C   0  0  0  0  0  2  0  0  0  0  0  0
  190.6140  176.5150  138.9620 C   0  0  2  0  0  3  0  0  0  0  0  0
  191.0450  177.4410  139.9140 O   0  0  0  0  0  1  0  0  0  0  0  0
  191.7990  175.7640  138.3600 C   0  0  2  0  0  3  0  0  0  0  0  0
  192.8420  176.6550  138.0970 O   0  0  0  0  0  1  0  0  0  0  0  0
  190.5910  173.9690  137.3500 O   0  0  0  0  0  1  0  0  0  0  0  0
  191.3910  175.0750  137.0670 C   0  0  0  0  0  2  0  0  0  0  0  0
  183.5200  178.1940  140.1180 C   0  0  0  0  0  2  0  0  0  0  0  0
  183.5680  178.7830  141.5180 C   0  0  0  0  0  2  0  0  0  0  0  0
  184.8780  178.4160  142.1970 C   0  0  2  0  0  3  0  0  0  0  0  0
  184.9110  178.9840  143.6040 C   0  0  0  0  0  1  0  0  0  0  0  0
  186.0900  178.8770  141.3870 C   0  0  0  0  0  2  0  0  0  0  0  0
  187.3870  178.8000  142.1850 C   0  0  0  0  0  2  0  0  0  0  0  0
  188.2400  177.8570  141.6090 O   0  0  0  0  0  0  0  0  0  0  0  0
  188.4810  176.9350  142.6280 C   0  0  0  0  0  2  0  0  0  0  0  0
  189.4680  177.5050  143.6340 C   0  0  0  0  0  2  0  0  0  0  0  0
  189.6660  177.8880  146.0870 O   0  0  0  0  0  1  0  0  0  0  0  0
  188.9280  177.3980  145.0200 C   0  0  0  0  0  0  0  0  0  0  0  0
  187.7990  176.8810  145.2230 O   0  0  0  0  0  0  0  0  0  0  0  0
  1  9  1  0  0  0  0
  2  6  1  0  0  0  0
  2 11  1  0  0  0  0
  3  7  2  0  0  0  0
  3  6  1  0  0  0  0
  5  2  2  0  0  0  0
  6  1  2  0  0  0  0
  7  8  1  0  0  0  0
  8  1  1  0  0  0  0
  9  4  1  0  0  0  0
 10  9  1  0  0  0  0
 10 12  2  0  0  0  0
 11 31  1  1  0  0  0
 11 10  1  0  0  0  0
 14  5  1  0  0  0  0
 14 13  1  0  0  0  0
 14 16  1  1  0  0  0
 15 19  1  6  0  0  0
 15 13  1  0  0  0  0
 17 14  1  0  0  0  0
 18 17  2  0  0  0  0
 18 15  1  0  0  0  0
 19 20  1  0  0  0  0
 20 21  1  0  0  0  0
 21 22  1  0  0  0  0
 22 23  1  0  0  0  0
 24 23  1  0  0  0  0
 24 25  1  0  0  0  0
 25 26  1  1  0  0  0
 27 28  1  6  0  0  0
 27 25  1  0  0  0  0
 30 29  1  0  0  0  0
 30 27  1  0  0  0  0
 31 32  1  0  0  0  0
 32 33  1  0  0  0  0
 33 34  1  1  0  0  0
 35 36  1  0  0  0  0
 35 33  1  0  0  0  0
 37 36  1  0  0  0  0
 37 38  1  0  0  0  0
 38 39  1  0  0  0  0
 39 41  1  0  0  0  0
 41 42  2  0  0  0  0
 41 40  1  0  0  0  0
M  END
>  <MODEL>
9

>  <REMARK>
 VINA RESULT:      -4.9      2.620      6.832
  Name = 
  19 active torsions:
  status: ('A' for Active; 'I' for Inactive)
    1  A    between atoms: C_2  and  N_13
    2  A    between atoms: C_3  and  C_16
    3  A    between atoms: C_3  and  C_22
    4  A    between atoms: C_4  and  O_34
    5  A    between atoms: C_6  and  C_25
    6  A    between atoms: C_6  and  C_31
    7  A    between atoms: C_8  and  C_24
    8  A    between atoms: C_8  and  O_38
    9  A    between atoms: C_15  and  C_25
   10  A    between atoms: C_15  and  C_33
   11  A    between atoms: C_16  and  C_40
   12  A    between atoms: C_17  and  C_21
   13  A    between atoms: C_17  and  O_34
   14  A    between atoms: C_19  and  C_24
   15  A    between atoms: C_21  and  N_29
   16  A    between atoms: C_22  and  C_23
   17  A    between atoms: C_23  and  O_38
   18  A    between atoms: N_29  and  C_33
   19  A    between atoms: C_36  and  C_40
                            x       y       z     vdW  Elec       q    Type
                         _______ _______ _______ _____ _____    ______ ____

>  <TORSDO>
F 19

$$$$
