=
 OpenBabel10232411573D

 61 64  0  0  1  0  0  0  0  0999 V2000
  190.8200  176.1210  142.6370 C   0  0  0  0  0  2  0  0  0  0  0  0
  191.7500  176.6150  141.5410 C   0  0  0  0  0  2  0  0  0  0  0  0
  189.6330  177.4840  140.4070 C   0  0  0  0  0  0  0  0  0  0  0  0
  189.0450  177.5670  141.6140 C   0  0  0  0  0  3  0  0  0  0  0  0
  190.9790  176.7990  140.2290 C   0  0  1  0  0  3  0  0  0  0  0  0
  189.7530  177.1810  142.8910 C   0  0  1  0  0  3  0  0  0  0  0  0
  187.4230  176.6170  143.4510 N   0  0  0  0  0  1  0  0  0  0  0  0
  188.7820  176.7050  143.9700 C   0  0  2  0  0  3  0  0  0  0  0  0
  188.8260  177.6080  145.1920 C   0  0  0  0  0  2  0  0  0  0  0  0
  187.4670  178.0240  145.5470 C   0  0  0  0  0  0  0  0  0  0  0  0
  186.3450  178.3710  145.8140 C   0  0  0  0  0  0  0  0  0  0  0  0
  184.3290  177.8190  146.8630 O   0  0  0  0  0  1  0  0  0  0  0  0
  184.9780  178.8020  146.1150 C   0  0  2  0  0  3  0  0  0  0  0  0
  184.0720  179.0770  144.5650 P   0  0  2  0  0  0  0  0  0  0  0  0
  184.3180  180.6770  144.0680 O   0  0  0  0  0  0  0  0  0  0  0  0
  182.5990  178.8500  144.8190 O   0  0  0  0  0  1  0  0  0  0  0  0
  184.6470  177.9750  143.4060 O   0  0  0  0  0  0  0  0  0  0  0  0
  182.5990  179.2770  142.0150 O   0  0  0  0  0  1  0  0  0  0  0  0
  183.9290  177.2820  140.9920 O   0  0  0  0  0  0  0  0  0  0  0  0
  185.2200  179.5380  141.1730 O   0  0  0  0  0  1  0  0  0  0  0  0
  184.0950  178.4930  141.8810 P   0  0  0  0  0  0  0  0  0  0  0  0
  188.6290  177.8580  138.9600 S   0  0  0  0  0  0  0  0  0  0  0  0
  188.8370  176.2090  138.2160 C   0  0  0  0  0  2  0  0  0  0  0  0
  187.4970  175.6990  137.6890 C   0  0  0  0  0  2  0  0  0  0  0  0
  187.4360  175.6620  136.2210 N   0  0  0  0  0  0  0  0  0  0  0  0
  187.4380  174.2710  135.7030 C   0  0  1  0  0  3  0  0  0  0  0  0
  188.7680  173.9470  135.0060 C   0  0  1  0  0  3  0  0  0  0  0  0
  189.5370  175.0960  134.7900 O   0  0  0  0  0  1  0  0  0  0  0  0
  190.2130  173.4020  136.8510 O   0  0  0  0  0  1  0  0  0  0  0  0
  189.5730  172.8740  135.7300 C   0  0  0  0  0  2  0  0  0  0  0  0
  187.1620  173.2550  136.8160 C   0  0  0  0  0  2  0  0  0  0  0  0
  185.9500  172.4170  136.4520 C   0  0  0  0  0  1  0  0  0  0  0  0
  186.2970  176.5020  135.7900 C   0  0  1  0  0  3  0  0  0  0  0  0
  188.1450  177.6430  134.7440 O   0  0  0  0  0  1  0  0  0  0  0  0
  186.7670  177.6910  134.9550 C   0  0  0  0  0  2  0  0  0  0  0  0
  185.1120  175.7460  135.1680 C   0  0  0  0  0  2  0  0  0  0  0  0
  182.7700  177.5560  137.6350 C   0  0  0  0  0  0  0  0  0  0  0  0
  182.2630  175.1010  137.6560 C   0  0  1  0  0  3  0  0  0  0  0  0
  183.8880  177.3680  136.6350 C   0  0  0  0  0  2  0  0  0  0  0  0
  183.6170  174.9070  136.9690 C   0  0  0  0  0  2  0  0  0  0  0  0
  182.5220  178.9170  138.1880 C   0  0  0  0  0  1  0  0  0  0  0  0
  182.0920  176.5180  138.1490 C   0  0  0  0  0  3  0  0  0  0  0  0
  183.8270  176.0080  135.9370 C   0  0  2  0  0  3  0  0  0  0  0  0
  181.2350  174.7950  136.7590 O   0  0  0  0  0  0  0  0  0  0  0  0
  180.4860  173.7990  137.3930 C   0  0  0  0  0  2  0  0  0  0  0  0
  180.8990  172.4430  136.8600 C   0  0  0  0  0  2  0  0  0  0  0  0
  179.9890  171.4720  137.2830 O   0  0  0  0  0  1  0  0  0  0  0  0
  191.8600  177.5350  139.2360 C   0  0  0  0  0  2  0  0  0  0  0  0
  192.1820  176.6460  138.0470 C   0  0  0  0  0  2  0  0  0  0  0  0
  193.6080  176.7080  137.7660 N   0  0  0  0  0  2  0  0  0  0  0  0
  193.9920  175.4450  137.1530 C   0  0  0  0  0  2  0  0  0  0  0  0
  194.7220  174.5480  138.1570 C   0  0  0  0  0  2  0  0  0  0  0  0
  195.1840  169.7200  135.3910 C   0  0  0  0  0  2  0  0  0  0  0  0
  195.0680  172.0390  138.0310 C   0  0  0  0  0  2  0  0  0  0  0  0
  194.8310  169.9890  136.6330 C   0  0  0  0  0  2  0  0  0  0  0  0
  195.3990  173.3830  136.0020 C   0  0  0  0  0  2  0  0  0  0  0  0
  196.9930  173.5910  137.8880 C   0  0  0  0  0  1  0  0  0  0  0  0
  194.5470  171.3570  136.8680 N   0  0  2  0  0  0  0  0  0  0  0  0
  194.5540  172.1680  135.6730 C   0  0  2  0  0  3  0  0  0  0  0  0
  195.5320  173.4030  137.5290 C   0  0  1  0  0  0  0  0  0  0  0  0
  195.3060  171.1720  134.3470 S   0  0  0  0  0  0  0  0  0  0  0  0
  1  6  1  0  0  0  0
  2  1  1  0  0  0  0
  3  4  2  0  0  0  0
  4  6  1  0  0  0  0
  5 48  1  6  0  0  0
  5  3  1  0  0  0  0
  5  2  1  0  0  0  0
  6  8  1  1  0  0  0
  8  7  1  6  0  0  0
  8  9  1  0  0  0  0
  9 10  1  0  0  0  0
 10 11  3  0  0  0  0
 11 13  1  0  0  0  0
 13 12  1  1  0  0  0
 14 15  2  6  0  0  0
 14 16  1  0  0  0  0
 14 13  1  0  0  0  0
 17 14  1  0  0  0  0
 19 21  2  0  0  0  0
 20 21  1  0  0  0  0
 21 18  1  0  0  0  0
 21 17  1  0  0  0  0
 22  3  1  0  0  0  0
 23 22  1  0  0  0  0
 24 23  1  0  0  0  0
 25 24  1  0  0  0  0
 26 25  1  0  0  0  0
 26 31  1  1  0  0  0
 27 28  1  1  0  0  0
 27 26  1  0  0  0  0
 27 30  1  0  0  0  0
 30 29  1  0  0  0  0
 32 31  1  0  0  0  0
 33 35  1  6  0  0  0
 33 25  1  0  0  0  0
 34 35  1  0  0  0  0
 36 33  1  0  0  0  0
 37 42  2  0  0  0  0
 37 41  1  0  0  0  0
 38 44  1  6  0  0  0
 38 42  1  0  0  0  0
 39 37  1  0  0  0  0
 40 38  1  0  0  0  0
 43 36  1  1  0  0  0
 43 39  1  0  0  0  0
 43 40  1  0  0  0  0
 44 45  1  0  0  0  0
 46 47  1  0  0  0  0
 46 45  1  0  0  0  0
 49 48  1  0  0  0  0
 50 49  1  0  0  0  0
 51 50  1  0  0  0  0
 51 52  1  0  0  0  0
 53 55  1  0  0  0  0
 56 60  1  0  0  0  0
 58 55  1  6  0  0  0
 58 54  1  0  0  0  0
 59 56  1  1  0  0  0
 59 58  1  0  0  0  0
 60 57  1  1  0  0  0
 60 54  1  0  0  0  0
 60 52  1  0  0  0  0
 61 53  1  0  0  0  0
 61 59  1  0  0  0  0
M  END
>  <MODEL>
1

>  <REMARK>
 VINA RESULT:      -5.1      0.000      0.000
  Name = 
  28 active torsions:
  status: ('A' for Active; 'I' for Inactive)
    1  A    between atoms: N_1  and  C_24
    2  A    between atoms: N_1  and  C_35
    3  A    between atoms: N_1  and  C_52
    4  A    between atoms: C_3  and  C_52
    5  A    between atoms: C_6  and  C_35
    6  A    between atoms: C_6  and  C_61
    7  A    between atoms: C_7  and  C_15
    8  A    between atoms: P_10  and  O_27
    9  A    between atoms: P_10  and  C_60
   10  A    between atoms: C_15  and  C_29
   11  A    between atoms: O_16  and  C_28
   12  A    between atoms: O_16  and  C_47
   13  A    between atoms: C_17  and  C_52
   14  A    between atoms: C_17  and  C_57
   15  A    between atoms: C_18  and  C_24
   16  A    between atoms: C_18  and  S_43
   17  A    between atoms: C_19  and  C_25
   18  A    between atoms: C_19  and  N_39
   19  A    between atoms: C_21  and  C_50
   20  A    between atoms: C_21  and  C_53
   21  A    between atoms: C_23  and  C_60
   22  A    between atoms: C_25  and  C_49
   23  A    between atoms: O_27  and  P_58
   24  A    between atoms: C_29  and  C_59
   25  A    between atoms: C_34  and  C_47
   26  A    between atoms: C_35  and  C_56
   27  A    between atoms: N_39  and  C_53
   28  A    between atoms: C_42  and  S_43
                            x       y       z     vdW  Elec       q    Type
                         _______ _______ _______ _____ _____    ______ ____

>  <TORSDO>
F 28

$$$$
=
 OpenBabel10232411573D

 61 64  0  0  1  0  0  0  0  0999 V2000
  190.7790  176.0060  142.9200 C   0  0  0  0  0  2  0  0  0  0  0  0
  191.8360  176.4730  141.9330 C   0  0  0  0  0  2  0  0  0  0  0  0
  189.8830  177.4320  140.5950 C   0  0  0  0  0  0  0  0  0  0  0  0
  189.1760  177.5260  141.7340 C   0  0  0  0  0  3  0  0  0  0  0  0
  191.2140  176.6970  140.5500 C   0  0  1  0  0  3  0  0  0  0  0  0
  189.7310  177.1030  143.0740 C   0  0  1  0  0  3  0  0  0  0  0  0
  187.3980  176.3590  143.3290 N   0  0  0  0  0  1  0  0  0  0  0  0
  188.6360  176.6560  144.0400 C   0  0  2  0  0  3  0  0  0  0  0  0
  188.3910  177.6970  145.1200 C   0  0  0  0  0  2  0  0  0  0  0  0
  187.0330  178.2310  144.9910 C   0  0  0  0  0  0  0  0  0  0  0  0
  185.9220  178.6790  144.8610 C   0  0  0  0  0  0  0  0  0  0  0  0
  183.7110  178.6770  145.6200 O   0  0  0  0  0  1  0  0  0  0  0  0
  184.5790  179.2360  144.6820 C   0  0  2  0  0  3  0  0  0  0  0  0
  183.9840  178.8600  143.0080 P   0  0  2  0  0  0  0  0  0  0  0  0
  182.3050  179.0750  142.9670 O   0  0  0  0  0  1  0  0  0  0  0  0
  184.3150  177.4200  142.6880 O   0  0  0  0  0  0  0  0  0  0  0  0
  184.7670  179.9000  141.9150 O   0  0  0  0  0  0  0  0  0  0  0  0
  183.6950  177.8330  140.3650 O   0  0  0  0  0  1  0  0  0  0  0  0
  186.1670  178.6220  140.1170 O   0  0  0  0  0  1  0  0  0  0  0  0
  184.3540  180.2440  139.1810 O   0  0  0  0  0  0  0  0  0  0  0  0
  184.7730  179.1390  140.3920 P   0  0  0  0  0  0  0  0  0  0  0  0
  189.0510  177.8540  139.0560 S   0  0  0  0  0  0  0  0  0  0  0  0
  189.1830  176.1770  138.3590 C   0  0  0  0  0  2  0  0  0  0  0  0
  187.8370  175.7400  137.7860 C   0  0  0  0  0  2  0  0  0  0  0  0
  187.6970  176.0460  136.3550 N   0  0  0  0  0  0  0  0  0  0  0  0
  187.6810  174.8160  135.5250 C   0  0  1  0  0  3  0  0  0  0  0  0
  188.9040  174.7630  134.5980 C   0  0  1  0  0  3  0  0  0  0  0  0
  189.4480  176.0330  134.3790 O   0  0  0  0  0  1  0  0  0  0  0  0
  190.8800  174.4080  135.9250 O   0  0  0  0  0  1  0  0  0  0  0  0
  189.9700  173.7810  135.0740 C   0  0  0  0  0  2  0  0  0  0  0  0
  187.6190  173.5530  136.3920 C   0  0  0  0  0  2  0  0  0  0  0  0
  186.3080  172.8290  136.1440 C   0  0  0  0  0  1  0  0  0  0  0  0
  186.5310  176.9420  136.1920 C   0  0  1  0  0  3  0  0  0  0  0  0
  186.9180  179.2340  136.8280 O   0  0  0  0  0  1  0  0  0  0  0  0
  186.9600  178.3410  135.7570 C   0  0  0  0  0  2  0  0  0  0  0  0
  185.3680  176.3720  135.3630 C   0  0  0  0  0  2  0  0  0  0  0  0
  181.9490  175.3020  136.7800 C   0  0  0  0  0  0  0  0  0  0  0  0
  181.8310  177.6950  136.0420 C   0  0  1  0  0  3  0  0  0  0  0  0
  183.3850  175.1800  136.3250 C   0  0  0  0  0  2  0  0  0  0  0  0
  183.1170  177.4230  135.2580 C   0  0  0  0  0  2  0  0  0  0  0  0
  181.2600  174.0970  137.3200 C   0  0  0  0  0  1  0  0  0  0  0  0
  181.2300  176.4180  136.5770 C   0  0  0  0  0  3  0  0  0  0  0  0
  184.0420  176.5410  136.0870 C   0  0  2  0  0  3  0  0  0  0  0  0
  182.1060  178.5610  137.1060 O   0  0  0  0  0  0  0  0  0  0  0  0
  181.1300  178.2740  138.0660 C   0  0  0  0  0  2  0  0  0  0  0  0
  180.3940  179.5470  138.4300 C   0  0  0  0  0  2  0  0  0  0  0  0
  181.0910  180.2250  139.4330 O   0  0  0  0  0  1  0  0  0  0  0  0
  192.2210  177.4070  139.6630 C   0  0  0  0  0  2  0  0  0  0  0  0
  192.4080  176.6530  138.3580 C   0  0  0  0  0  2  0  0  0  0  0  0
  193.7870  176.7860  137.9130 N   0  0  0  0  0  2  0  0  0  0  0  0
  194.4740  175.5420  138.2250 C   0  0  0  0  0  2  0  0  0  0  0  0
  193.7540  174.3460  137.5960 C   0  0  0  0  0  2  0  0  0  0  0  0
  198.3670  171.3460  136.6440 C   0  0  0  0  0  2  0  0  0  0  0  0
  196.0600  173.9980  136.5960 C   0  0  0  0  0  2  0  0  0  0  0  0
  198.1540  172.6480  136.6530 C   0  0  0  0  0  2  0  0  0  0  0  0
  194.7740  172.0340  137.3180 C   0  0  0  0  0  2  0  0  0  0  0  0
  194.0250  173.3360  135.3470 C   0  0  0  0  0  1  0  0  0  0  0  0
  196.9170  173.0250  137.2330 N   0  0  2  0  0  0  0  0  0  0  0  0
  196.1960  171.9280  137.8330 C   0  0  2  0  0  3  0  0  0  0  0  0
  194.6450  173.4420  136.7270 C   0  0  1  0  0  0  0  0  0  0  0  0
  196.9920  170.3870  137.2790 S   0  0  0  0  0  0  0  0  0  0  0  0
  1  6  1  0  0  0  0
  2  1  1  0  0  0  0
  3  4  2  0  0  0  0
  4  6  1  0  0  0  0
  5 48  1  6  0  0  0
  5  3  1  0  0  0  0
  5  2  1  0  0  0  0
  6  8  1  1  0  0  0
  8  7  1  6  0  0  0
  8  9  1  0  0  0  0
 10  9  1  0  0  0  0
 11 10  3  0  0  0  0
 13 11  1  0  0  0  0
 13 12  1  1  0  0  0
 14 16  2  6  0  0  0
 14 13  1  0  0  0  0
 15 14  1  0  0  0  0
 17 14  1  0  0  0  0
 18 21  1  0  0  0  0
 19 21  1  0  0  0  0
 20 21  2  0  0  0  0
 21 17  1  0  0  0  0
 22  3  1  0  0  0  0
 23 22  1  0  0  0  0
 24 23  1  0  0  0  0
 25 24  1  0  0  0  0
 26 25  1  0  0  0  0
 26 31  1  1  0  0  0
 27 28  1  1  0  0  0
 27 30  1  0  0  0  0
 27 26  1  0  0  0  0
 30 29  1  0  0  0  0
 32 31  1  0  0  0  0
 33 36  1  6  0  0  0
 33 25  1  0  0  0  0
 35 33  1  0  0  0  0
 35 34  1  0  0  0  0
 37 41  1  0  0  0  0
 38 42  1  0  0  0  0
 38 44  1  1  0  0  0
 39 37  1  0  0  0  0
 40 38  1  0  0  0  0
 40 43  1  0  0  0  0
 42 37  2  0  0  0  0
 43 36  1  6  0  0  0
 43 39  1  0  0  0  0
 44 45  1  0  0  0  0
 45 46  1  0  0  0  0
 46 47  1  0  0  0  0
 49 48  1  0  0  0  0
 50 51  1  0  0  0  0
 50 49  1  0  0  0  0
 52 51  1  0  0  0  0
 53 55  1  0  0  0  0
 53 61  1  0  0  0  0
 54 60  1  0  0  0  0
 55 58  1  0  0  0  0
 58 54  1  6  0  0  0
 58 59  1  0  0  0  0
 59 56  1  6  0  0  0
 60 57  1  6  0  0  0
 60 56  1  0  0  0  0
 60 52  1  0  0  0  0
 61 59  1  0  0  0  0
M  END
>  <MODEL>
2

>  <REMARK>
 VINA RESULT:      -5.0      1.655      2.548
  Name = 
  28 active torsions:
  status: ('A' for Active; 'I' for Inactive)
    1  A    between atoms: N_1  and  C_24
    2  A    between atoms: N_1  and  C_35
    3  A    between atoms: N_1  and  C_52
    4  A    between atoms: C_3  and  C_52
    5  A    between atoms: C_6  and  C_35
    6  A    between atoms: C_6  and  C_61
    7  A    between atoms: C_7  and  C_15
    8  A    between atoms: P_10  and  O_27
    9  A    between atoms: P_10  and  C_60
   10  A    between atoms: C_15  and  C_29
   11  A    between atoms: O_16  and  C_28
   12  A    between atoms: O_16  and  C_47
   13  A    between atoms: C_17  and  C_52
   14  A    between atoms: C_17  and  C_57
   15  A    between atoms: C_18  and  C_24
   16  A    between atoms: C_18  and  S_43
   17  A    between atoms: C_19  and  C_25
   18  A    between atoms: C_19  and  N_39
   19  A    between atoms: C_21  and  C_50
   20  A    between atoms: C_21  and  C_53
   21  A    between atoms: C_23  and  C_60
   22  A    between atoms: C_25  and  C_49
   23  A    between atoms: O_27  and  P_58
   24  A    between atoms: C_29  and  C_59
   25  A    between atoms: C_34  and  C_47
   26  A    between atoms: C_35  and  C_56
   27  A    between atoms: N_39  and  C_53
   28  A    between atoms: C_42  and  S_43
                            x       y       z     vdW  Elec       q    Type
                         _______ _______ _______ _____ _____    ______ ____

>  <TORSDO>
F 28

$$$$
=
 OpenBabel10232411573D

 61 64  0  0  1  0  0  0  0  0999 V2000
  192.8210  176.8510  140.8030 C   0  0  0  0  0  2  0  0  0  0  0  0
  193.2600  176.9390  139.3510 C   0  0  0  0  0  2  0  0  0  0  0  0
  190.7770  176.7340  138.7920 C   0  0  0  0  0  0  0  0  0  0  0  0
  190.4840  177.2600  139.9940 C   0  0  0  0  0  3  0  0  0  0  0  0
  192.1970  176.3250  138.4330 C   0  0  1  0  0  3  0  0  0  0  0  0
  191.5480  177.6720  140.9830 C   0  0  1  0  0  3  0  0  0  0  0  0
  191.3810  178.7990  143.1650 N   0  0  0  0  0  1  0  0  0  0  0  0
  191.0620  177.5830  142.4280 C   0  0  2  0  0  3  0  0  0  0  0  0
  191.6410  176.3670  143.1330 C   0  0  0  0  0  2  0  0  0  0  0  0
  191.4020  176.4730  144.5750 C   0  0  0  0  0  0  0  0  0  0  0  0
  191.1810  176.5550  145.7560 C   0  0  0  0  0  0  0  0  0  0  0  0
  190.6500  175.3820  147.7080 O   0  0  0  0  0  1  0  0  0  0  0  0
  190.8860  176.6550  147.1880 C   0  0  2  0  0  3  0  0  0  0  0  0
  189.4150  177.6920  147.4340 P   0  0  2  0  0  0  0  0  0  0  0  0
  189.5220  179.0390  146.4150 O   0  0  0  0  0  0  0  0  0  0  0  0
  189.3820  178.1510  148.8740 O   0  0  0  0  0  1  0  0  0  0  0  0
  188.0380  176.7580  147.0820 O   0  0  0  0  0  0  0  0  0  0  0  0
  186.5580  179.1080  146.7480 O   0  0  0  0  0  1  0  0  0  0  0  0
  185.8360  176.8430  145.6800 O   0  0  0  0  0  1  0  0  0  0  0  0
  187.8990  178.0070  144.5950 O   0  0  0  0  0  0  0  0  0  0  0  0
  187.0590  177.6630  146.0220 P   0  0  0  0  0  0  0  0  0  0  0  0
  189.4070  176.1730  137.7670 S   0  0  0  0  0  0  0  0  0  0  0  0
  188.1250  176.8920  138.8410 C   0  0  0  0  0  2  0  0  0  0  0  0
  187.2740  177.8840  138.0500 C   0  0  0  0  0  2  0  0  0  0  0  0
  186.0030  177.3080  137.5870 N   0  0  0  0  0  0  0  0  0  0  0  0
  184.8620  177.7340  138.4350 C   0  0  1  0  0  3  0  0  0  0  0  0
  185.2520  178.9260  139.3220 C   0  0  1  0  0  3  0  0  0  0  0  0
  184.4710  180.0540  139.0530 O   0  0  0  0  0  1  0  0  0  0  0  0
  185.4350  179.7360  141.5800 O   0  0  0  0  0  1  0  0  0  0  0  0
  185.2420  178.5890  140.8090 C   0  0  0  0  0  2  0  0  0  0  0  0
  183.6320  178.0840  137.5890 C   0  0  0  0  0  2  0  0  0  0  0  0
  182.4590  177.2190  138.0140 C   0  0  0  0  0  1  0  0  0  0  0  0
  185.8690  177.5980  136.1430 C   0  0  1  0  0  3  0  0  0  0  0  0
  187.8050  177.7920  134.7180 O   0  0  0  0  0  1  0  0  0  0  0  0
  187.0140  178.4760  135.6430 C   0  0  0  0  0  2  0  0  0  0  0  0
  185.5930  176.3810  135.2450 C   0  0  0  0  0  2  0  0  0  0  0  0
  186.4330  172.9260  136.7280 C   0  0  0  0  0  0  0  0  0  0  0  0
  183.9620  173.0820  136.3320 C   0  0  1  0  0  3  0  0  0  0  0  0
  186.6610  174.3100  136.1660 C   0  0  0  0  0  2  0  0  0  0  0  0
  184.2730  174.2820  135.4340 C   0  0  0  0  0  2  0  0  0  0  0  0
  187.6100  172.1150  137.1440 C   0  0  0  0  0  1  0  0  0  0  0  0
  185.2200  172.3490  136.7280 C   0  0  0  0  0  3  0  0  0  0  0  0
  185.3700  175.1260  136.0720 C   0  0  2  0  0  3  0  0  0  0  0  0
  183.2980  173.5190  137.4830 O   0  0  0  0  0  0  0  0  0  0  0  0
  181.9440  173.5320  137.1360 C   0  0  0  0  0  2  0  0  0  0  0  0
  181.5340  172.1560  136.6550 C   0  0  0  0  0  2  0  0  0  0  0  0
  180.5620  171.6280  137.5060 O   0  0  0  0  0  1  0  0  0  0  0  0
  192.5340  176.6600  136.9910 C   0  0  0  0  0  2  0  0  0  0  0  0
  193.4030  175.5740  136.3800 C   0  0  0  0  0  2  0  0  0  0  0  0
  192.5560  174.5500  135.7880 N   0  0  0  0  0  2  0  0  0  0  0  0
  193.3730  173.3620  135.5900 C   0  0  0  0  0  2  0  0  0  0  0  0
  193.7320  172.7150  136.9310 C   0  0  0  0  0  2  0  0  0  0  0  0
  199.1000  174.2470  136.8110 C   0  0  0  0  0  2  0  0  0  0  0  0
  196.0430  172.7760  135.8880 C   0  0  0  0  0  2  0  0  0  0  0  0
  198.2620  173.9100  135.8490 C   0  0  0  0  0  2  0  0  0  0  0  0
  195.8040  173.3260  138.2700 C   0  0  0  0  0  2  0  0  0  0  0  0
  195.4290  171.0000  137.5020 C   0  0  0  0  0  1  0  0  0  0  0  0
  196.9050  173.8780  136.2530 N   0  0  2  0  0  0  0  0  0  0  0  0
  196.6830  174.3610  137.5950 C   0  0  2  0  0  3  0  0  0  0  0  0
  195.2330  172.4600  137.1420 C   0  0  1  0  0  0  0  0  0  0  0  0
  198.3110  174.4820  138.4030 S   0  0  0  0  0  0  0  0  0  0  0  0
  1  6  1  0  0  0  0
  2  1  1  0  0  0  0
  3  4  2  0  0  0  0
  4  6  1  0  0  0  0
  5 48  1  6  0  0  0
  5  3  1  0  0  0  0
  5  2  1  0  0  0  0
  6  8  1  1  0  0  0
  8  9  1  0  0  0  0
  8  7  1  1  0  0  0
  9 10  1  0  0  0  0
 10 11  3  0  0  0  0
 11 13  1  0  0  0  0
 13 14  1  0  0  0  0
 13 12  1  6  0  0  0
 14 15  2  6  0  0  0
 14 16  1  0  0  0  0
 17 14  1  0  0  0  0
 19 21  1  0  0  0  0
 20 21  2  0  0  0  0
 21 18  1  0  0  0  0
 21 17  1  0  0  0  0
 22  3  1  0  0  0  0
 22 23  1  0  0  0  0
 24 23  1  0  0  0  0
 25 24  1  0  0  0  0
 25 26  1  0  0  0  0
 26 31  1  6  0  0  0
 26 27  1  0  0  0  0
 27 28  1  1  0  0  0
 27 30  1  0  0  0  0
 30 29  1  0  0  0  0
 31 32  1  0  0  0  0
 33 36  1  6  0  0  0
 33 25  1  0  0  0  0
 34 35  1  0  0  0  0
 35 33  1  0  0  0  0
 37 42  2  0  0  0  0
 37 41  1  0  0  0  0
 38 42  1  0  0  0  0
 38 44  1  1  0  0  0
 39 37  1  0  0  0  0
 40 43  1  0  0  0  0
 40 38  1  0  0  0  0
 43 36  1  6  0  0  0
 43 39  1  0  0  0  0
 45 44  1  0  0  0  0
 46 45  1  0  0  0  0
 46 47  1  0  0  0  0
 49 48  1  0  0  0  0
 50 49  1  0  0  0  0
 51 50  1  0  0  0  0
 51 52  1  0  0  0  0
 52 60  1  0  0  0  0
 53 61  1  0  0  0  0
 54 58  1  0  0  0  0
 54 60  1  0  0  0  0
 55 53  1  0  0  0  0
 58 55  1  1  0  0  0
 58 59  1  0  0  0  0
 59 56  1  1  0  0  0
 59 61  1  0  0  0  0
 60 57  1  1  0  0  0
 60 56  1  0  0  0  0
M  END
>  <MODEL>
3

>  <REMARK>
 VINA RESULT:      -5.0      2.582      4.542
  Name = 
  28 active torsions:
  status: ('A' for Active; 'I' for Inactive)
    1  A    between atoms: N_1  and  C_24
    2  A    between atoms: N_1  and  C_35
    3  A    between atoms: N_1  and  C_52
    4  A    between atoms: C_3  and  C_52
    5  A    between atoms: C_6  and  C_35
    6  A    between atoms: C_6  and  C_61
    7  A    between atoms: C_7  and  C_15
    8  A    between atoms: P_10  and  O_27
    9  A    between atoms: P_10  and  C_60
   10  A    between atoms: C_15  and  C_29
   11  A    between atoms: O_16  and  C_28
   12  A    between atoms: O_16  and  C_47
   13  A    between atoms: C_17  and  C_52
   14  A    between atoms: C_17  and  C_57
   15  A    between atoms: C_18  and  C_24
   16  A    between atoms: C_18  and  S_43
   17  A    between atoms: C_19  and  C_25
   18  A    between atoms: C_19  and  N_39
   19  A    between atoms: C_21  and  C_50
   20  A    between atoms: C_21  and  C_53
   21  A    between atoms: C_23  and  C_60
   22  A    between atoms: C_25  and  C_49
   23  A    between atoms: O_27  and  P_58
   24  A    between atoms: C_29  and  C_59
   25  A    between atoms: C_34  and  C_47
   26  A    between atoms: C_35  and  C_56
   27  A    between atoms: N_39  and  C_53
   28  A    between atoms: C_42  and  S_43
                            x       y       z     vdW  Elec       q    Type
                         _______ _______ _______ _____ _____    ______ ____

>  <TORSDO>
F 28

$$$$
=
 OpenBabel10232411573D

 61 64  0  0  1  0  0  0  0  0999 V2000
  191.1480  174.9610  136.5440 C   0  0  0  0  0  2  0  0  0  0  0  0
  190.2070  176.1400  136.7300 C   0  0  0  0  0  2  0  0  0  0  0  0
  191.7460  176.8140  138.6540 C   0  0  0  0  0  0  0  0  0  0  0  0
  192.7540  176.1640  138.0480 C   0  0  0  0  0  3  0  0  0  0  0  0
  190.3140  176.6890  138.1570 C   0  0  1  0  0  3  0  0  0  0  0  0
  192.5830  175.4430  136.7310 C   0  0  1  0  0  3  0  0  0  0  0  0
  194.4610  174.1950  137.7190 N   0  0  0  0  0  1  0  0  0  0  0  0
  193.5560  174.2760  136.5790 C   0  0  2  0  0  3  0  0  0  0  0  0
  194.3440  174.3780  135.2830 C   0  0  0  0  0  2  0  0  0  0  0  0
  195.6670  173.7740  135.4610 C   0  0  0  0  0  0  0  0  0  0  0  0
  196.7640  173.2930  135.5900 C   0  0  0  0  0  0  0  0  0  0  0  0
  198.0090  171.3440  135.9310 O   0  0  0  0  0  1  0  0  0  0  0  0
  198.1050  172.7210  135.7260 C   0  0  2  0  0  3  0  0  0  0  0  0
  198.9520  173.4840  137.1400 P   0  0  2  0  0  0  0  0  0  0  0  0
  199.8540  174.8050  136.5840 O   0  0  0  0  0  0  0  0  0  0  0  0
  199.8810  172.4630  137.7560 O   0  0  0  0  0  1  0  0  0  0  0  0
  197.7770  173.9690  138.2690 O   0  0  0  0  0  0  0  0  0  0  0  0
  198.6980  176.5040  139.0100 O   0  0  0  0  0  0  0  0  0  0  0  0
  199.9530  174.3180  139.6720 O   0  0  0  0  0  1  0  0  0  0  0  0
  197.7200  174.7750  140.9350 O   0  0  0  0  0  1  0  0  0  0  0  0
  198.5640  174.8800  139.4730 P   0  0  0  0  0  0  0  0  0  0  0  0
  192.0620  177.5210  140.2790 S   0  0  0  0  0  0  0  0  0  0  0  0
  190.5030  176.9200  141.0000 C   0  0  0  0  0  2  0  0  0  0  0  0
  189.9710  177.9290  142.0170 C   0  0  0  0  0  2  0  0  0  0  0  0
  189.7590  177.3420  143.3480 N   0  0  0  0  0  0  0  0  0  0  0  0
  189.9950  178.3300  144.4310 C   0  0  1  0  0  3  0  0  0  0  0  0
  190.8340  177.7140  145.5610 C   0  0  1  0  0  3  0  0  0  0  0  0
  190.0550  177.4120  146.6830 O   0  0  0  0  0  1  0  0  0  0  0  0
  192.1270  175.7910  146.2080 O   0  0  0  0  0  1  0  0  0  0  0  0
  191.6440  176.5040  145.1100 C   0  0  0  0  0  2  0  0  0  0  0  0
  190.6730  179.5980  143.8980 C   0  0  0  0  0  2  0  0  0  0  0  0
  192.0490  179.7400  144.5240 C   0  0  0  0  0  1  0  0  0  0  0  0
  188.4300  176.6940  143.3540 C   0  0  1  0  0  3  0  0  0  0  0  0
  189.8620  174.7840  143.0130 O   0  0  0  0  0  1  0  0  0  0  0  0
  188.5520  175.1730  143.2990 C   0  0  0  0  0  2  0  0  0  0  0  0
  187.4540  177.1910  144.4330 C   0  0  0  0  0  2  0  0  0  0  0  0
  185.2170  178.8080  141.7450 C   0  0  0  0  0  0  0  0  0  0  0  0
  184.3370  179.3900  144.0190 C   0  0  1  0  0  3  0  0  0  0  0  0
  186.3740  178.0350  142.3350 C   0  0  0  0  0  2  0  0  0  0  0  0
  185.6980  178.9480  144.5600 C   0  0  0  0  0  2  0  0  0  0  0  0
  185.1350  178.9630  140.2660 C   0  0  0  0  0  1  0  0  0  0  0  0
  184.3450  179.4820  142.5120 C   0  0  0  0  0  3  0  0  0  0  0  0
  186.1640  177.7030  143.8140 C   0  0  2  0  0  3  0  0  0  0  0  0
  183.3540  178.4800  144.4230 O   0  0  0  0  0  0  0  0  0  0  0  0
  182.1590  179.2050  144.3990 C   0  0  0  0  0  2  0  0  0  0  0  0
  181.0390  178.3120  143.9080 C   0  0  0  0  0  2  0  0  0  0  0  0
  180.8440  178.5070  142.5390 O   0  0  0  0  0  1  0  0  0  0  0  0
  189.5710  178.0110  138.2360 C   0  0  0  0  0  2  0  0  0  0  0  0
  188.0930  177.7790  138.4980 C   0  0  0  0  0  2  0  0  0  0  0  0
  187.3740  177.7530  137.2340 N   0  0  0  0  0  2  0  0  0  0  0  0
  186.5330  176.5660  137.2280 C   0  0  0  0  0  2  0  0  0  0  0  0
  185.7500  176.4550  135.9170 C   0  0  0  0  0  2  0  0  0  0  0  0
  180.9710  174.8010  138.2840 C   0  0  0  0  0  2  0  0  0  0  0  0
  183.6210  175.0780  135.9910 C   0  0  0  0  0  2  0  0  0  0  0  0
  181.7710  174.2100  137.4170 C   0  0  0  0  0  2  0  0  0  0  0  0
  183.7980  177.0620  137.4280 C   0  0  0  0  0  2  0  0  0  0  0  0
  183.6340  177.3350  134.9700 C   0  0  0  0  0  1  0  0  0  0  0  0
  183.0400  174.8280  137.2900 N   0  0  2  0  0  0  0  0  0  0  0  0
  183.2670  175.8950  138.2360 C   0  0  2  0  0  3  0  0  0  0  0  0
  184.2210  176.4780  136.0750 C   0  0  1  0  0  0  0  0  0  0  0  0
  181.6620  176.2900  139.0020 S   0  0  0  0  0  0  0  0  0  0  0  0
  1  2  1  0  0  0  0
  1  6  1  0  0  0  0
  2  5  1  0  0  0  0
  3 22  1  0  0  0  0
  4  3  2  0  0  0  0
  5 48  1  6  0  0  0
  5  3  1  0  0  0  0
  6  8  1  1  0  0  0
  6  4  1  0  0  0  0
  8  7  1  1  0  0  0
  9 10  1  0  0  0  0
  9  8  1  0  0  0  0
 10 11  3  0  0  0  0
 11 13  1  0  0  0  0
 13 12  1  1  0  0  0
 13 14  1  0  0  0  0
 14 15  2  6  0  0  0
 14 16  1  0  0  0  0
 14 17  1  0  0  0  0
 17 21  1  0  0  0  0
 18 21  2  0  0  0  0
 21 19  1  0  0  0  0
 21 20  1  0  0  0  0
 22 23  1  0  0  0  0
 23 24  1  0  0  0  0
 24 25  1  0  0  0  0
 25 33  1  0  0  0  0
 25 26  1  0  0  0  0
 26 31  1  6  0  0  0
 26 27  1  0  0  0  0
 27 28  1  1  0  0  0
 30 27  1  0  0  0  0
 30 29  1  0  0  0  0
 31 32  1  0  0  0  0
 33 35  1  1  0  0  0
 33 36  1  0  0  0  0
 34 35  1  0  0  0  0
 37 39  1  0  0  0  0
 37 42  2  0  0  0  0
 38 44  1  6  0  0  0
 38 40  1  0  0  0  0
 39 43  1  0  0  0  0
 41 37  1  0  0  0  0
 42 38  1  0  0  0  0
 43 36  1  1  0  0  0
 43 40  1  0  0  0  0
 45 44  1  0  0  0  0
 46 45  1  0  0  0  0
 47 46  1  0  0  0  0
 48 49  1  0  0  0  0
 50 49  1  0  0  0  0
 51 50  1  0  0  0  0
 52 60  1  0  0  0  0
 52 51  1  0  0  0  0
 53 61  1  0  0  0  0
 54 60  1  0  0  0  0
 55 53  1  0  0  0  0
 58 54  1  6  0  0  0
 58 55  1  0  0  0  0
 58 59  1  0  0  0  0
 59 56  1  6  0  0  0
 59 61  1  0  0  0  0
 60 57  1  6  0  0  0
 60 56  1  0  0  0  0
M  END
>  <MODEL>
4

>  <REMARK>
 VINA RESULT:      -4.5      4.969     11.053
  Name = 
  28 active torsions:
  status: ('A' for Active; 'I' for Inactive)
    1  A    between atoms: N_1  and  C_24
    2  A    between atoms: N_1  and  C_35
    3  A    between atoms: N_1  and  C_52
    4  A    between atoms: C_3  and  C_52
    5  A    between atoms: C_6  and  C_35
    6  A    between atoms: C_6  and  C_61
    7  A    between atoms: C_7  and  C_15
    8  A    between atoms: P_10  and  O_27
    9  A    between atoms: P_10  and  C_60
   10  A    between atoms: C_15  and  C_29
   11  A    between atoms: O_16  and  C_28
   12  A    between atoms: O_16  and  C_47
   13  A    between atoms: C_17  and  C_52
   14  A    between atoms: C_17  and  C_57
   15  A    between atoms: C_18  and  C_24
   16  A    between atoms: C_18  and  S_43
   17  A    between atoms: C_19  and  C_25
   18  A    between atoms: C_19  and  N_39
   19  A    between atoms: C_21  and  C_50
   20  A    between atoms: C_21  and  C_53
   21  A    between atoms: C_23  and  C_60
   22  A    between atoms: C_25  and  C_49
   23  A    between atoms: O_27  and  P_58
   24  A    between atoms: C_29  and  C_59
   25  A    between atoms: C_34  and  C_47
   26  A    between atoms: C_35  and  C_56
   27  A    between atoms: N_39  and  C_53
   28  A    between atoms: C_42  and  S_43
                            x       y       z     vdW  Elec       q    Type
                         _______ _______ _______ _____ _____    ______ ____

>  <TORSDO>
F 28

$$$$
=
 OpenBabel10232411573D

 61 64  0  0  1  0  0  0  0  0999 V2000
  189.2740  175.0550  135.4160 C   0  0  0  0  0  2  0  0  0  0  0  0
  187.9060  175.6330  135.0910 C   0  0  0  0  0  2  0  0  0  0  0  0
  188.4310  177.3730  136.8850 C   0  0  0  0  0  0  0  0  0  0  0  0
  189.7420  177.1830  136.6560 C   0  0  0  0  0  3  0  0  0  0  0  0
  187.3820  176.4600  136.2690 C   0  0  1  0  0  3  0  0  0  0  0  0
  190.2550  176.2040  135.6270 C   0  0  1  0  0  3  0  0  0  0  0  0
  192.2740  175.0460  134.8250 N   0  0  0  0  0  1  0  0  0  0  0  0
  191.6370  175.6590  135.9840 C   0  0  2  0  0  3  0  0  0  0  0  0
  191.5600  174.6670  137.1340 C   0  0  0  0  0  2  0  0  0  0  0  0
  192.8070  173.9010  137.2070 C   0  0  0  0  0  0  0  0  0  0  0  0
  193.8410  173.2860  137.2850 C   0  0  0  0  0  0  0  0  0  0  0  0
  195.3540  172.2430  138.7310 O   0  0  0  0  0  1  0  0  0  0  0  0
  195.1070  172.5600  137.3940 C   0  0  2  0  0  3  0  0  0  0  0  0
  196.4580  173.5950  136.7600 P   0  0  2  0  0  0  0  0  0  0  0  0
  195.8760  175.1680  136.5310 O   0  0  0  0  0  1  0  0  0  0  0  0
  196.9180  173.0310  135.4340 O   0  0  0  0  0  0  0  0  0  0  0  0
  197.7310  173.5630  137.8860 O   0  0  0  0  0  0  0  0  0  0  0  0
  199.8200  172.6000  136.2950 O   0  0  0  0  0  1  0  0  0  0  0  0
  200.1680  174.4870  138.0580 O   0  0  0  0  0  1  0  0  0  0  0  0
  198.8620  175.1660  135.9080 O   0  0  0  0  0  0  0  0  0  0  0  0
  199.1640  173.9620  137.0580 P   0  0  0  0  0  0  0  0  0  0  0  0
  187.9680  178.4790  138.2270 S   0  0  0  0  0  0  0  0  0  0  0  0
  188.8990  177.5620  139.4940 C   0  0  0  0  0  2  0  0  0  0  0  0
  189.1400  178.4490  140.7140 C   0  0  0  0  0  2  0  0  0  0  0  0
  188.9070  177.7500  141.9860 N   0  0  0  0  0  0  0  0  0  0  0  0
  190.0130  177.9750  142.9500 C   0  0  1  0  0  3  0  0  0  0  0  0
  190.2040  176.7530  143.8610 C   0  0  1  0  0  3  0  0  0  0  0  0
  189.8640  175.5610  143.2130 O   0  0  0  0  0  1  0  0  0  0  0  0
  191.7870  177.6690  145.4240 O   0  0  0  0  0  1  0  0  0  0  0  0
  191.6010  176.6730  144.4650 C   0  0  0  0  0  2  0  0  0  0  0  0
  191.3250  178.3110  142.2340 C   0  0  0  0  0  2  0  0  0  0  0  0
  191.8010  177.1020  141.4480 C   0  0  0  0  0  1  0  0  0  0  0  0
  187.5560  178.1130  142.4660 C   0  0  1  0  0  3  0  0  0  0  0  0
  185.9460  179.8320  141.9520 O   0  0  0  0  0  1  0  0  0  0  0  0
  186.7610  178.8480  141.3900 C   0  0  0  0  0  2  0  0  0  0  0  0
  186.7680  176.9820  143.1460 C   0  0  0  0  0  2  0  0  0  0  0  0
  184.0370  178.7780  145.1870 C   0  0  0  0  0  0  0  0  0  0  0  0
  186.2360  178.9910  146.3720 C   0  0  1  0  0  3  0  0  0  0  0  0
  184.6700  178.0170  144.0440 C   0  0  0  0  0  2  0  0  0  0  0  0
  186.8870  178.5780  145.0500 C   0  0  0  0  0  2  0  0  0  0  0  0
  182.5900  179.1200  145.1090 C   0  0  0  0  0  1  0  0  0  0  0  0
  184.7650  179.2810  146.1960 C   0  0  0  0  0  3  0  0  0  0  0  0
  186.0590  177.4790  144.3950 C   0  0  2  0  0  3  0  0  0  0  0  0
  186.3980  177.9690  147.3120 O   0  0  0  0  0  0  0  0  0  0  0  0
  187.5870  177.3280  146.9480 C   0  0  0  0  0  2  0  0  0  0  0  0
  188.5050  177.2490  148.1500 C   0  0  0  0  0  2  0  0  0  0  0  0
  188.8410  178.5360  148.5740 O   0  0  0  0  0  1  0  0  0  0  0  0
  186.1530  177.2330  135.8250 C   0  0  0  0  0  2  0  0  0  0  0  0
  185.0820  177.1990  136.9020 C   0  0  0  0  0  2  0  0  0  0  0  0
  184.1730  176.0920  136.6490 N   0  0  0  0  0  2  0  0  0  0  0  0
  183.1540  176.1110  137.6880 C   0  0  0  0  0  2  0  0  0  0  0  0
  183.7270  176.6360  139.0070 C   0  0  0  0  0  2  0  0  0  0  0  0
  181.0730  181.5310  138.5930 C   0  0  0  0  0  2  0  0  0  0  0  0
  183.6080  179.1650  139.1690 C   0  0  0  0  0  2  0  0  0  0  0  0
  182.3520  181.2190  138.5230 C   0  0  0  0  0  2  0  0  0  0  0  0
  181.5140  177.8800  139.1500 C   0  0  0  0  0  2  0  0  0  0  0  0
  183.0230  177.7430  141.1110 C   0  0  0  0  0  1  0  0  0  0  0  0
  182.5990  179.8320  138.3770 N   0  0  2  0  0  0  0  0  0  0  0  0
  181.4050  179.0430  138.1840 C   0  0  2  0  0  3  0  0  0  0  0  0
  182.9800  177.8420  139.5980 C   0  0  1  0  0  0  0  0  0  0  0  0
  179.9820  180.1090  138.5820 S   0  0  0  0  0  0  0  0  0  0  0  0
  1  6  1  0  0  0  0
  2  1  1  0  0  0  0
  2  5  1  0  0  0  0
  3 22  1  0  0  0  0
  4  3  2  0  0  0  0
  5 48  1  6  0  0  0
  5  3  1  0  0  0  0
  6  8  1  1  0  0  0
  6  4  1  0  0  0  0
  8  7  1  6  0  0  0
  8  9  1  0  0  0  0
  9 10  1  0  0  0  0
 10 11  3  0  0  0  0
 11 13  1  0  0  0  0
 13 12  1  1  0  0  0
 14 16  2  6  0  0  0
 14 13  1  0  0  0  0
 14 17  1  0  0  0  0
 15 14  1  0  0  0  0
 18 21  1  0  0  0  0
 20 21  2  0  0  0  0
 21 17  1  0  0  0  0
 21 19  1  0  0  0  0
 22 23  1  0  0  0  0
 23 24  1  0  0  0  0
 24 25  1  0  0  0  0
 25 33  1  0  0  0  0
 25 26  1  0  0  0  0
 26 31  1  6  0  0  0
 26 27  1  0  0  0  0
 27 28  1  6  0  0  0
 27 30  1  0  0  0  0
 30 29  1  0  0  0  0
 32 31  1  0  0  0  0
 33 35  1  6  0  0  0
 33 36  1  0  0  0  0
 35 34  1  0  0  0  0
 37 42  2  0  0  0  0
 38 44  1  1  0  0  0
 39 43  1  0  0  0  0
 39 37  1  0  0  0  0
 40 38  1  0  0  0  0
 41 37  1  0  0  0  0
 42 38  1  0  0  0  0
 43 36  1  6  0  0  0
 43 40  1  0  0  0  0
 45 44  1  0  0  0  0
 45 46  1  0  0  0  0
 46 47  1  0  0  0  0
 48 49  1  0  0  0  0
 50 49  1  0  0  0  0
 50 51  1  0  0  0  0
 51 52  1  0  0  0  0
 52 60  1  0  0  0  0
 54 60  1  0  0  0  0
 55 53  1  0  0  0  0
 56 60  1  0  0  0  0
 58 55  1  1  0  0  0
 58 54  1  0  0  0  0
 59 58  1  0  0  0  0
 59 61  1  0  0  0  0
 59 56  1  1  0  0  0
 60 57  1  1  0  0  0
 61 53  1  0  0  0  0
M  END
>  <MODEL>
5

>  <REMARK>
 VINA RESULT:      -4.4      4.671     11.568
  Name = 
  28 active torsions:
  status: ('A' for Active; 'I' for Inactive)
    1  A    between atoms: N_1  and  C_24
    2  A    between atoms: N_1  and  C_35
    3  A    between atoms: N_1  and  C_52
    4  A    between atoms: C_3  and  C_52
    5  A    between atoms: C_6  and  C_35
    6  A    between atoms: C_6  and  C_61
    7  A    between atoms: C_7  and  C_15
    8  A    between atoms: P_10  and  O_27
    9  A    between atoms: P_10  and  C_60
   10  A    between atoms: C_15  and  C_29
   11  A    between atoms: O_16  and  C_28
   12  A    between atoms: O_16  and  C_47
   13  A    between atoms: C_17  and  C_52
   14  A    between atoms: C_17  and  C_57
   15  A    between atoms: C_18  and  C_24
   16  A    between atoms: C_18  and  S_43
   17  A    between atoms: C_19  and  C_25
   18  A    between atoms: C_19  and  N_39
   19  A    between atoms: C_21  and  C_50
   20  A    between atoms: C_21  and  C_53
   21  A    between atoms: C_23  and  C_60
   22  A    between atoms: C_25  and  C_49
   23  A    between atoms: O_27  and  P_58
   24  A    between atoms: C_29  and  C_59
   25  A    between atoms: C_34  and  C_47
   26  A    between atoms: C_35  and  C_56
   27  A    between atoms: N_39  and  C_53
   28  A    between atoms: C_42  and  S_43
                            x       y       z     vdW  Elec       q    Type
                         _______ _______ _______ _____ _____    ______ ____

>  <TORSDO>
F 28

$$$$
=
 OpenBabel10232411573D

 61 64  0  0  1  0  0  0  0  0999 V2000
  190.7430  174.3370  137.1170 C   0  0  0  0  0  2  0  0  0  0  0  0
  189.3090  174.6020  136.6890 C   0  0  0  0  0  2  0  0  0  0  0  0
  189.5880  176.8620  137.8460 C   0  0  0  0  0  0  0  0  0  0  0  0
  190.9130  176.7860  137.6310 C   0  0  0  0  0  3  0  0  0  0  0  0
  188.6750  175.6750  137.5810 C   0  0  1  0  0  3  0  0  0  0  0  0
  191.5560  175.6140  136.9280 C   0  0  1  0  0  3  0  0  0  0  0  0
  193.4610  176.4860  138.2210 N   0  0  0  0  0  1  0  0  0  0  0  0
  193.0000  175.3910  137.3760 C   0  0  2  0  0  3  0  0  0  0  0  0
  193.9280  175.2120  136.1860 C   0  0  0  0  0  2  0  0  0  0  0  0
  194.0660  173.7860  135.8800 C   0  0  0  0  0  0  0  0  0  0  0  0
  194.1600  172.6150  135.6130 C   0  0  0  0  0  0  0  0  0  0  0  0
  193.2900  170.4790  135.9960 O   0  0  0  0  0  1  0  0  0  0  0  0
  194.2510  171.1920  135.2770 C   0  0  2  0  0  3  0  0  0  0  0  0
  195.9040  170.5720  135.7010 P   0  0  2  0  0  0  0  0  0  0  0  0
  196.0760  169.0090  135.0720 O   0  0  0  0  0  0  0  0  0  0  0  0
  196.0330  170.5250  137.2070 O   0  0  0  0  0  1  0  0  0  0  0  0
  197.0580  171.6320  135.0430 O   0  0  0  0  0  0  0  0  0  0  0  0
  198.8020  170.6300  136.9870 O   0  0  0  0  0  1  0  0  0  0  0  0
  197.4270  172.8150  137.3430 O   0  0  0  0  0  1  0  0  0  0  0  0
  199.4150  172.9810  135.6670 O   0  0  0  0  0  0  0  0  0  0  0  0
  198.1590  172.0280  136.2800 P   0  0  0  0  0  0  0  0  0  0  0  0
  188.9740  178.2560  138.8060 S   0  0  0  0  0  0  0  0  0  0  0  0
  188.8240  177.3060  140.3520 C   0  0  0  0  0  2  0  0  0  0  0  0
  189.1460  178.1990  141.5490 C   0  0  0  0  0  2  0  0  0  0  0  0
  188.7350  177.6080  142.8310 N   0  0  0  0  0  0  0  0  0  0  0  0
  189.6060  178.0510  143.9480 C   0  0  1  0  0  3  0  0  0  0  0  0
  190.0130  176.8630  144.8320 C   0  0  1  0  0  3  0  0  0  0  0  0
  191.1770  176.2420  144.3670 O   0  0  0  0  0  1  0  0  0  0  0  0
  190.8460  176.2550  147.0060 O   0  0  0  0  0  1  0  0  0  0  0  0
  190.1370  177.2310  146.3060 C   0  0  0  0  0  2  0  0  0  0  0  0
  190.8530  178.7810  143.4350 C   0  0  0  0  0  2  0  0  0  0  0  0
  191.2120  179.9060  144.3880 C   0  0  0  0  0  1  0  0  0  0  0  0
  187.2890  177.8620  143.0090 C   0  0  1  0  0  3  0  0  0  0  0  0
  186.5840  176.7790  145.0440 O   0  0  0  0  0  1  0  0  0  0  0  0
  186.9270  178.0110  144.4850 C   0  0  0  0  0  2  0  0  0  0  0  0
  186.6950  178.9640  142.1170 C   0  0  0  0  0  2  0  0  0  0  0  0
  184.2710  178.1360  139.2390 C   0  0  0  0  0  0  0  0  0  0  0  0
  182.9740  179.0400  141.1840 C   0  0  1  0  0  3  0  0  0  0  0  0
  185.5830  178.3080  139.9690 C   0  0  0  0  0  2  0  0  0  0  0  0
  184.3120  179.5530  141.7230 C   0  0  0  0  0  2  0  0  0  0  0  0
  184.2900  177.6540  137.8300 C   0  0  0  0  0  1  0  0  0  0  0  0
  183.1040  178.5410  139.7660 C   0  0  0  0  0  3  0  0  0  0  0  0
  185.3950  178.5100  141.4740 C   0  0  2  0  0  3  0  0  0  0  0  0
  182.5080  178.0030  142.0000 O   0  0  0  0  0  0  0  0  0  0  0  0
  182.2200  178.6100  143.2260 C   0  0  0  0  0  2  0  0  0  0  0  0
  180.9360  179.4040  143.1050 C   0  0  0  0  0  2  0  0  0  0  0  0
  179.9830  178.6590  142.4080 O   0  0  0  0  0  1  0  0  0  0  0  0
  187.3510  176.1050  136.9740 C   0  0  0  0  0  2  0  0  0  0  0  0
  186.8990  175.1100  135.9190 C   0  0  0  0  0  2  0  0  0  0  0  0
  186.0170  174.1250  136.5270 N   0  0  0  0  0  2  0  0  0  0  0  0
  185.8420  173.0410  135.5720 C   0  0  0  0  0  2  0  0  0  0  0  0
  185.0840  171.8700  136.2050 C   0  0  0  0  0  2  0  0  0  0  0  0
  180.1160  174.4100  135.9870 C   0  0  0  0  0  2  0  0  0  0  0  0
  182.8170  172.4910  137.1600 C   0  0  0  0  0  2  0  0  0  0  0  0
  180.8610  174.0280  137.0060 C   0  0  0  0  0  2  0  0  0  0  0  0
  183.1840  172.7150  134.7420 C   0  0  0  0  0  2  0  0  0  0  0  0
  183.0910  170.4610  135.7670 C   0  0  0  0  0  1  0  0  0  0  0  0
  182.1910  173.6900  136.6520 N   0  0  2  0  0  0  0  0  0  0  0  0
  182.5160  173.9690  135.2730 C   0  0  2  0  0  3  0  0  0  0  0  0
  183.5640  171.8870  135.9750 C   0  0  1  0  0  0  0  0  0  0  0  0
  180.9520  174.3090  134.4050 S   0  0  0  0  0  0  0  0  0  0  0  0
  2  1  1  0  0  0  0
  2  5  1  0  0  0  0
  3 22  1  0  0  0  0
  4  3  2  0  0  0  0
  5 48  1  6  0  0  0
  5  3  1  0  0  0  0
  6  1  1  0  0  0  0
  6  8  1  1  0  0  0
  6  4  1  0  0  0  0
  8  7  1  6  0  0  0
  9  8  1  0  0  0  0
 10  9  1  0  0  0  0
 11 10  3  0  0  0  0
 13 11  1  0  0  0  0
 13 14  1  0  0  0  0
 13 12  1  1  0  0  0
 14 15  2  6  0  0  0
 14 16  1  0  0  0  0
 17 14  1  0  0  0  0
 17 21  1  0  0  0  0
 20 21  2  0  0  0  0
 21 18  1  0  0  0  0
 21 19  1  0  0  0  0
 22 23  1  0  0  0  0
 23 24  1  0  0  0  0
 24 25  1  0  0  0  0
 25 33  1  0  0  0  0
 25 26  1  0  0  0  0
 26 31  1  6  0  0  0
 26 27  1  0  0  0  0
 27 28  1  6  0  0  0
 27 30  1  0  0  0  0
 30 29  1  0  0  0  0
 31 32  1  0  0  0  0
 33 36  1  6  0  0  0
 33 35  1  0  0  0  0
 35 34  1  0  0  0  0
 37 42  2  0  0  0  0
 37 39  1  0  0  0  0
 38 40  1  0  0  0  0
 38 44  1  1  0  0  0
 39 43  1  0  0  0  0
 41 37  1  0  0  0  0
 42 38  1  0  0  0  0
 43 40  1  0  0  0  0
 43 36  1  6  0  0  0
 44 45  1  0  0  0  0
 46 45  1  0  0  0  0
 47 46  1  0  0  0  0
 49 50  1  0  0  0  0
 49 48  1  0  0  0  0
 51 52  1  0  0  0  0
 51 50  1  0  0  0  0
 53 55  1  0  0  0  0
 56 60  1  0  0  0  0
 58 55  1  6  0  0  0
 58 54  1  0  0  0  0
 59 56  1  6  0  0  0
 59 58  1  0  0  0  0
 60 57  1  6  0  0  0
 60 52  1  0  0  0  0
 60 54  1  0  0  0  0
 61 59  1  0  0  0  0
 61 53  1  0  0  0  0
M  END
>  <MODEL>
6

>  <REMARK>
 VINA RESULT:      -4.1      4.699     10.802
  Name = 
  28 active torsions:
  status: ('A' for Active; 'I' for Inactive)
    1  A    between atoms: N_1  and  C_24
    2  A    between atoms: N_1  and  C_35
    3  A    between atoms: N_1  and  C_52
    4  A    between atoms: C_3  and  C_52
    5  A    between atoms: C_6  and  C_35
    6  A    between atoms: C_6  and  C_61
    7  A    between atoms: C_7  and  C_15
    8  A    between atoms: P_10  and  O_27
    9  A    between atoms: P_10  and  C_60
   10  A    between atoms: C_15  and  C_29
   11  A    between atoms: O_16  and  C_28
   12  A    between atoms: O_16  and  C_47
   13  A    between atoms: C_17  and  C_52
   14  A    between atoms: C_17  and  C_57
   15  A    between atoms: C_18  and  C_24
   16  A    between atoms: C_18  and  S_43
   17  A    between atoms: C_19  and  C_25
   18  A    between atoms: C_19  and  N_39
   19  A    between atoms: C_21  and  C_50
   20  A    between atoms: C_21  and  C_53
   21  A    between atoms: C_23  and  C_60
   22  A    between atoms: C_25  and  C_49
   23  A    between atoms: O_27  and  P_58
   24  A    between atoms: C_29  and  C_59
   25  A    between atoms: C_34  and  C_47
   26  A    between atoms: C_35  and  C_56
   27  A    between atoms: N_39  and  C_53
   28  A    between atoms: C_42  and  S_43
                            x       y       z     vdW  Elec       q    Type
                         _______ _______ _______ _____ _____    ______ ____

>  <TORSDO>
F 28

$$$$
=
 OpenBabel10232411573D

 61 64  0  0  1  0  0  0  0  0999 V2000
  187.2860  178.1230  144.3610 C   0  0  0  0  0  2  0  0  0  0  0  0
  187.8300  178.3580  142.9620 C   0  0  0  0  0  2  0  0  0  0  0  0
  185.3920  178.2590  142.2080 C   0  0  0  0  0  0  0  0  0  0  0  0
  185.0180  178.6590  143.4350 C   0  0  0  0  0  3  0  0  0  0  0  0
  186.8310  177.8650  141.9100 C   0  0  1  0  0  3  0  0  0  0  0  0
  186.0120  178.9430  144.5370 C   0  0  1  0  0  3  0  0  0  0  0  0
  185.8780  179.7220  146.8680 N   0  0  0  0  0  1  0  0  0  0  0  0
  185.4200  178.7090  145.9260 C   0  0  2  0  0  3  0  0  0  0  0  0
  185.7490  177.3170  146.4400 C   0  0  0  0  0  2  0  0  0  0  0  0
  187.1270  177.2880  146.9360 C   0  0  0  0  0  0  0  0  0  0  0  0
  188.2540  177.2800  147.3630 C   0  0  0  0  0  0  0  0  0  0  0  0
  189.9500  178.5830  148.3070 O   0  0  0  0  0  1  0  0  0  0  0  0
  189.6170  177.2910  147.8970 C   0  0  2  0  0  3  0  0  0  0  0  0
  190.7790  176.7480  146.6110 P   0  0  2  0  0  0  0  0  0  0  0  0
  191.7190  175.4830  147.2260 O   0  0  0  0  0  1  0  0  0  0  0  0
  191.6750  177.9110  146.2460 O   0  0  0  0  0  0  0  0  0  0  0  0
  189.8810  176.2490  145.2560 O   0  0  0  0  0  0  0  0  0  0  0  0
  192.2560  175.0780  144.3550 O   0  0  0  0  0  1  0  0  0  0  0  0
  191.5080  177.4610  143.6100 O   0  0  0  0  0  1  0  0  0  0  0  0
  190.1610  175.4750  142.5950 O   0  0  0  0  0  0  0  0  0  0  0  0
  190.9620  176.0930  143.9500 P   0  0  0  0  0  0  0  0  0  0  0  0
  184.0950  177.8360  141.0330 S   0  0  0  0  0  0  0  0  0  0  0  0
  184.6200  179.0640  139.7960 C   0  0  0  0  0  2  0  0  0  0  0  0
  183.6200  179.1060  138.6420 C   0  0  0  0  0  2  0  0  0  0  0  0
  182.3530  178.4290  138.9560 N   0  0  0  0  0  0  0  0  0  0  0  0
  181.2040  179.3670  138.9300 C   0  0  1  0  0  3  0  0  0  0  0  0
  181.0750  180.1150  140.2660 C   0  0  1  0  0  3  0  0  0  0  0  0
  180.0100  181.0210  140.2560 O   0  0  0  0  0  1  0  0  0  0  0  0
  179.9890  178.2260  141.2850 O   0  0  0  0  0  1  0  0  0  0  0  0
  180.9920  179.1790  141.4660 C   0  0  0  0  0  2  0  0  0  0  0  0
  181.3200  180.3670  137.7730 C   0  0  0  0  0  2  0  0  0  0  0  0
  181.6080  181.7520  138.3240 C   0  0  0  0  0  1  0  0  0  0  0  0
  182.2350  177.2490  138.0720 C   0  0  1  0  0  3  0  0  0  0  0  0
  181.0000  175.2210  138.4940 O   0  0  0  0  0  1  0  0  0  0  0  0
  180.8680  176.5820  138.2130 C   0  0  0  0  0  2  0  0  0  0  0  0
  182.6620  177.4680  136.6120 C   0  0  0  0  0  2  0  0  0  0  0  0
  186.1180  176.3430  135.3350 C   0  0  0  0  0  0  0  0  0  0  0  0
  184.3760  174.7160  134.5590 C   0  0  1  0  0  3  0  0  0  0  0  0
  185.0810  177.2100  136.0110 C   0  0  0  0  0  2  0  0  0  0  0  0
  183.3450  175.7930  134.9060 C   0  0  0  0  0  2  0  0  0  0  0  0
  187.5380  176.7930  135.3280 C   0  0  0  0  0  1  0  0  0  0  0  0
  185.7820  175.2600  134.6150 C   0  0  0  0  0  3  0  0  0  0  0  0
  183.7470  176.4860  136.2020 C   0  0  2  0  0  3  0  0  0  0  0  0
  184.2550  173.6490  135.4550 O   0  0  0  0  0  0  0  0  0  0  0  0
  185.5700  173.2830  135.7600 C   0  0  0  0  0  2  0  0  0  0  0  0
  185.7700  173.3290  137.2610 C   0  0  0  0  0  2  0  0  0  0  0  0
  184.6120  172.8890  137.9050 O   0  0  0  0  0  1  0  0  0  0  0  0
  187.2750  178.3460  140.5400 C   0  0  0  0  0  2  0  0  0  0  0  0
  188.7140  177.9370  140.2720 C   0  0  0  0  0  2  0  0  0  0  0  0
  188.9800  178.0080  138.8430 N   0  0  0  0  0  2  0  0  0  0  0  0
  190.4000  177.7560  138.6460 C   0  0  0  0  0  2  0  0  0  0  0  0
  190.6770  176.2560  138.5130 C   0  0  0  0  0  2  0  0  0  0  0  0
  194.1500  173.0760  135.5130 C   0  0  0  0  0  2  0  0  0  0  0  0
  192.8840  175.7900  137.3540 C   0  0  0  0  0  2  0  0  0  0  0  0
  194.3750  174.0510  136.3730 C   0  0  0  0  0  2  0  0  0  0  0  0
  190.9190  174.4510  136.7400 C   0  0  0  0  0  2  0  0  0  0  0  0
  191.0100  176.8520  136.1290 C   0  0  0  0  0  1  0  0  0  0  0  0
  193.2450  174.4060  137.1500 N   0  0  2  0  0  0  0  0  0  0  0  0
  192.1080  173.5370  136.9580 C   0  0  2  0  0  3  0  0  0  0  0  0
  191.3670  175.8420  137.2040 C   0  0  1  0  0  0  0  0  0  0  0  0
  192.4460  172.5200  135.4850 S   0  0  0  0  0  0  0  0  0  0  0  0
  1  6  1  0  0  0  0
  2  1  1  0  0  0  0
  3  4  2  0  0  0  0
  4  6  1  0  0  0  0
  5 48  1  6  0  0  0
  5  3  1  0  0  0  0
  5  2  1  0  0  0  0
  6  8  1  1  0  0  0
  8  9  1  0  0  0  0
  8  7  1  1  0  0  0
  9 10  1  0  0  0  0
 10 11  3  0  0  0  0
 11 13  1  0  0  0  0
 13 12  1  6  0  0  0
 14 16  2  6  0  0  0
 14 15  1  0  0  0  0
 14 13  1  0  0  0  0
 17 14  1  0  0  0  0
 19 21  1  0  0  0  0
 20 21  2  0  0  0  0
 21 18  1  0  0  0  0
 21 17  1  0  0  0  0
 22  3  1  0  0  0  0
 23 22  1  0  0  0  0
 24 25  1  0  0  0  0
 24 23  1  0  0  0  0
 26 31  1  6  0  0  0
 26 25  1  0  0  0  0
 26 27  1  0  0  0  0
 27 28  1  6  0  0  0
 27 30  1  0  0  0  0
 29 30  1  0  0  0  0
 31 32  1  0  0  0  0
 33 36  1  6  0  0  0
 33 35  1  0  0  0  0
 33 25  1  0  0  0  0
 35 34  1  0  0  0  0
 37 39  1  0  0  0  0
 38 42  1  0  0  0  0
 38 40  1  0  0  0  0
 38 44  1  1  0  0  0
 39 43  1  0  0  0  0
 40 43  1  0  0  0  0
 41 37  1  0  0  0  0
 42 37  2  0  0  0  0
 43 36  1  6  0  0  0
 44 45  1  0  0  0  0
 45 46  1  0  0  0  0
 46 47  1  0  0  0  0
 49 48  1  0  0  0  0
 50 49  1  0  0  0  0
 51 50  1  0  0  0  0
 52 51  1  0  0  0  0
 53 55  1  0  0  0  0
 56 60  1  0  0  0  0
 58 55  1  6  0  0  0
 58 54  1  0  0  0  0
 59 56  1  6  0  0  0
 59 58  1  0  0  0  0
 60 57  1  6  0  0  0
 60 54  1  0  0  0  0
 60 52  1  0  0  0  0
 61 53  1  0  0  0  0
 61 59  1  0  0  0  0
M  END
>  <MODEL>
7

>  <REMARK>
 VINA RESULT:      -4.0      3.532      6.256
  Name = 
  28 active torsions:
  status: ('A' for Active; 'I' for Inactive)
    1  A    between atoms: N_1  and  C_24
    2  A    between atoms: N_1  and  C_35
    3  A    between atoms: N_1  and  C_52
    4  A    between atoms: C_3  and  C_52
    5  A    between atoms: C_6  and  C_35
    6  A    between atoms: C_6  and  C_61
    7  A    between atoms: C_7  and  C_15
    8  A    between atoms: P_10  and  O_27
    9  A    between atoms: P_10  and  C_60
   10  A    between atoms: C_15  and  C_29
   11  A    between atoms: O_16  and  C_28
   12  A    between atoms: O_16  and  C_47
   13  A    between atoms: C_17  and  C_52
   14  A    between atoms: C_17  and  C_57
   15  A    between atoms: C_18  and  C_24
   16  A    between atoms: C_18  and  S_43
   17  A    between atoms: C_19  and  C_25
   18  A    between atoms: C_19  and  N_39
   19  A    between atoms: C_21  and  C_50
   20  A    between atoms: C_21  and  C_53
   21  A    between atoms: C_23  and  C_60
   22  A    between atoms: C_25  and  C_49
   23  A    between atoms: O_27  and  P_58
   24  A    between atoms: C_29  and  C_59
   25  A    between atoms: C_34  and  C_47
   26  A    between atoms: C_35  and  C_56
   27  A    between atoms: N_39  and  C_53
   28  A    between atoms: C_42  and  S_43
                            x       y       z     vdW  Elec       q    Type
                         _______ _______ _______ _____ _____    ______ ____

>  <TORSDO>
F 28

$$$$
=
 OpenBabel10232411573D

 61 64  0  0  1  0  0  0  0  0999 V2000
  190.6320  174.3270  137.0300 C   0  0  0  0  0  2  0  0  0  0  0  0
  189.1690  174.5630  136.6950 C   0  0  0  0  0  2  0  0  0  0  0  0
  189.5060  176.8710  137.7360 C   0  0  0  0  0  0  0  0  0  0  0  0
  190.8130  176.7950  137.4310 C   0  0  0  0  0  3  0  0  0  0  0  0
  188.5880  175.6670  137.5860 C   0  0  1  0  0  3  0  0  0  0  0  0
  191.4170  175.6000  136.7320 C   0  0  1  0  0  3  0  0  0  0  0  0
  193.3770  176.4980  137.9210 N   0  0  0  0  0  1  0  0  0  0  0  0
  192.8910  175.4070  137.0850 C   0  0  2  0  0  3  0  0  0  0  0  0
  193.7460  175.2730  135.8360 C   0  0  0  0  0  2  0  0  0  0  0  0
  194.8910  174.4020  136.1130 C   0  0  0  0  0  0  0  0  0  0  0  0
  195.8260  173.6720  136.3210 C   0  0  0  0  0  0  0  0  0  0  0  0
  197.7320  172.6770  135.4030 O   0  0  0  0  0  1  0  0  0  0  0  0
  196.9530  172.7670  136.5570 C   0  0  2  0  0  3  0  0  0  0  0  0
  196.3280  171.1180  136.9930 P   0  0  2  0  0  0  0  0  0  0  0  0
  195.5140  171.2200  138.4740 O   0  0  0  0  0  1  0  0  0  0  0  0
  197.5030  170.1750  137.1270 O   0  0  0  0  0  0  0  0  0  0  0  0
  195.2910  170.5940  135.7530 O   0  0  0  0  0  0  0  0  0  0  0  0
  193.5180  168.5000  136.2970 O   0  0  0  0  0  1  0  0  0  0  0  0
  196.0220  168.4270  137.0160 O   0  0  0  0  0  1  0  0  0  0  0  0
  195.5600  168.1370  134.4680 O   0  0  0  0  0  0  0  0  0  0  0  0
  195.1150  168.9070  135.9060 P   0  0  0  0  0  0  0  0  0  0  0  0
  188.9480  178.2990  138.6800 S   0  0  0  0  0  0  0  0  0  0  0  0
  188.5380  177.3330  140.1680 C   0  0  0  0  0  2  0  0  0  0  0  0
  189.0200  178.0660  141.4180 C   0  0  0  0  0  2  0  0  0  0  0  0
  188.6920  177.3530  142.6620 N   0  0  0  0  0  0  0  0  0  0  0  0
  189.6640  177.6520  143.7430 C   0  0  1  0  0  3  0  0  0  0  0  0
  190.3160  176.3630  144.2670 C   0  0  1  0  0  3  0  0  0  0  0  0
  190.5930  175.4610  143.2340 O   0  0  0  0  0  1  0  0  0  0  0  0
  191.3190  176.2980  146.4530 O   0  0  0  0  0  1  0  0  0  0  0  0
  191.5540  176.6250  145.1170 C   0  0  0  0  0  2  0  0  0  0  0  0
  190.7420  178.6370  143.2740 C   0  0  0  0  0  2  0  0  0  0  0  0
  191.2340  179.4520  144.4560 C   0  0  0  0  0  1  0  0  0  0  0  0
  187.2750  177.6250  142.9840 C   0  0  1  0  0  3  0  0  0  0  0  0
  185.8320  177.3550  144.8960 O   0  0  0  0  0  1  0  0  0  0  0  0
  187.0750  177.8360  144.4830 C   0  0  0  0  0  2  0  0  0  0  0  0
  186.5920  178.6950  142.1180 C   0  0  0  0  0  2  0  0  0  0  0  0
  183.5310  177.9530  139.8990 C   0  0  0  0  0  0  0  0  0  0  0  0
  182.7680  179.0030  142.0430 C   0  0  1  0  0  3  0  0  0  0  0  0
  184.9830  178.0550  140.3060 C   0  0  0  0  0  2  0  0  0  0  0  0
  184.2210  179.4380  142.2430 C   0  0  0  0  0  2  0  0  0  0  0  0
  183.2000  177.4280  138.5450 C   0  0  0  0  0  1  0  0  0  0  0  0
  182.5420  178.4540  140.6550 C   0  0  0  0  0  3  0  0  0  0  0  0
  185.1540  178.3150  141.8050 C   0  0  2  0  0  3  0  0  0  0  0  0
  182.4370  178.0270  142.9880 O   0  0  0  0  0  0  0  0  0  0  0  0
  182.0010  178.7410  144.1090 C   0  0  0  0  0  2  0  0  0  0  0  0
  180.5050  178.5670  144.2660 C   0  0  0  0  0  2  0  0  0  0  0  0
  180.0930  177.4060  143.6090 O   0  0  0  0  0  1  0  0  0  0  0  0
  187.2210  176.0630  137.0570 C   0  0  0  0  0  2  0  0  0  0  0  0
  186.9000  175.3000  135.7830 C   0  0  0  0  0  2  0  0  0  0  0  0
  185.6840  174.5240  135.9750 N   0  0  0  0  0  2  0  0  0  0  0  0
  184.5760  175.4620  136.0870 C   0  0  0  0  0  2  0  0  0  0  0  0
  183.3500  174.9550  135.3220 C   0  0  0  0  0  2  0  0  0  0  0  0
  181.7660  169.6000  135.2950 C   0  0  0  0  0  2  0  0  0  0  0  0
  181.6500  173.1010  134.9920 C   0  0  0  0  0  2  0  0  0  0  0  0
  181.2990  170.6560  134.6560 C   0  0  0  0  0  2  0  0  0  0  0  0
  183.6770  172.6300  136.2980 C   0  0  0  0  0  2  0  0  0  0  0  0
  181.9540  174.1600  137.2110 C   0  0  0  0  0  1  0  0  0  0  0  0
  182.1600  171.7810  134.6970 N   0  0  2  0  0  0  0  0  0  0  0  0
  183.4440  171.5120  135.3010 C   0  0  2  0  0  3  0  0  0  0  0  0
  182.6660  173.7270  135.9440 C   0  0  1  0  0  0  0  0  0  0  0  0
  183.3240  169.8950  136.1300 S   0  0  0  0  0  0  0  0  0  0  0  0
  2  1  1  0  0  0  0
  2  5  1  0  0  0  0
  3 22  1  0  0  0  0
  4  3  2  0  0  0  0
  5 48  1  6  0  0  0
  5  3  1  0  0  0  0
  6  1  1  0  0  0  0
  6  8  1  1  0  0  0
  6  4  1  0  0  0  0
  8  7  1  6  0  0  0
  9 10  1  0  0  0  0
  9  8  1  0  0  0  0
 10 11  3  0  0  0  0
 11 13  1  0  0  0  0
 13 12  1  6  0  0  0
 13 14  1  0  0  0  0
 14 16  2  1  0  0  0
 14 15  1  0  0  0  0
 17 21  1  0  0  0  0
 17 14  1  0  0  0  0
 20 21  2  0  0  0  0
 21 18  1  0  0  0  0
 21 19  1  0  0  0  0
 22 23  1  0  0  0  0
 23 24  1  0  0  0  0
 24 25  1  0  0  0  0
 25 33  1  0  0  0  0
 25 26  1  0  0  0  0
 26 31  1  6  0  0  0
 26 27  1  0  0  0  0
 27 28  1  6  0  0  0
 27 30  1  0  0  0  0
 30 29  1  0  0  0  0
 31 32  1  0  0  0  0
 33 36  1  6  0  0  0
 33 35  1  0  0  0  0
 35 34  1  0  0  0  0
 37 39  1  0  0  0  0
 37 42  2  0  0  0  0
 38 40  1  0  0  0  0
 38 44  1  1  0  0  0
 39 43  1  0  0  0  0
 41 37  1  0  0  0  0
 42 38  1  0  0  0  0
 43 36  1  6  0  0  0
 43 40  1  0  0  0  0
 44 45  1  0  0  0  0
 45 46  1  0  0  0  0
 47 46  1  0  0  0  0
 49 50  1  0  0  0  0
 49 48  1  0  0  0  0
 50 51  1  0  0  0  0
 52 60  1  0  0  0  0
 52 51  1  0  0  0  0
 53 61  1  0  0  0  0
 54 60  1  0  0  0  0
 55 53  1  0  0  0  0
 58 55  1  1  0  0  0
 58 54  1  0  0  0  0
 58 59  1  0  0  0  0
 59 61  1  0  0  0  0
 59 56  1  1  0  0  0
 60 56  1  0  0  0  0
 60 57  1  1  0  0  0
M  END
>  <MODEL>
8

>  <REMARK>
 VINA RESULT:      -3.7      4.620     10.643
  Name = 
  28 active torsions:
  status: ('A' for Active; 'I' for Inactive)
    1  A    between atoms: N_1  and  C_24
    2  A    between atoms: N_1  and  C_35
    3  A    between atoms: N_1  and  C_52
    4  A    between atoms: C_3  and  C_52
    5  A    between atoms: C_6  and  C_35
    6  A    between atoms: C_6  and  C_61
    7  A    between atoms: C_7  and  C_15
    8  A    between atoms: P_10  and  O_27
    9  A    between atoms: P_10  and  C_60
   10  A    between atoms: C_15  and  C_29
   11  A    between atoms: O_16  and  C_28
   12  A    between atoms: O_16  and  C_47
   13  A    between atoms: C_17  and  C_52
   14  A    between atoms: C_17  and  C_57
   15  A    between atoms: C_18  and  C_24
   16  A    between atoms: C_18  and  S_43
   17  A    between atoms: C_19  and  C_25
   18  A    between atoms: C_19  and  N_39
   19  A    between atoms: C_21  and  C_50
   20  A    between atoms: C_21  and  C_53
   21  A    between atoms: C_23  and  C_60
   22  A    between atoms: C_25  and  C_49
   23  A    between atoms: O_27  and  P_58
   24  A    between atoms: C_29  and  C_59
   25  A    between atoms: C_34  and  C_47
   26  A    between atoms: C_35  and  C_56
   27  A    between atoms: N_39  and  C_53
   28  A    between atoms: C_42  and  S_43
                            x       y       z     vdW  Elec       q    Type
                         _______ _______ _______ _____ _____    ______ ____

>  <TORSDO>
F 28

$$$$
=
 OpenBabel10232411573D

 61 64  0  0  1  0  0  0  0  0999 V2000
  191.9720  176.4320  136.7730 C   0  0  0  0  0  2  0  0  0  0  0  0
  191.9790  176.8490  138.2350 C   0  0  0  0  0  2  0  0  0  0  0  0
  189.4350  176.6790  138.0940 C   0  0  0  0  0  0  0  0  0  0  0  0
  189.5700  175.7880  137.0960 C   0  0  0  0  0  3  0  0  0  0  0  0
  190.6280  177.4590  138.6230 C   0  0  1  0  0  3  0  0  0  0  0  0
  190.9180  175.3470  136.5770 C   0  0  1  0  0  3  0  0  0  0  0  0
  190.4130  173.5440  134.9790 N   0  0  0  0  0  1  0  0  0  0  0  0
  190.8640  174.9240  135.1100 C   0  0  2  0  0  3  0  0  0  0  0  0
  192.2100  175.1100  134.4300 C   0  0  0  0  0  2  0  0  0  0  0  0
  193.1800  174.1650  134.9900 C   0  0  0  0  0  0  0  0  0  0  0  0
  193.9590  173.3760  135.4620 C   0  0  0  0  0  0  0  0  0  0  0  0
  194.7630  172.4260  137.4410 O   0  0  0  0  0  1  0  0  0  0  0  0
  194.8860  172.4080  136.0510 C   0  0  2  0  0  3  0  0  0  0  0  0
  196.5890  172.8390  135.5900 P   0  0  2  0  0  0  0  0  0  0  0  0
  196.5920  174.3890  134.9100 O   0  0  0  0  0  1  0  0  0  0  0  0
  197.0820  171.8390  134.5690 O   0  0  0  0  0  0  0  0  0  0  0  0
  197.5540  172.7770  136.9890 O   0  0  0  0  0  0  0  0  0  0  0  0
  196.2550  175.2420  137.2270 O   0  0  0  0  0  1  0  0  0  0  0  0
  198.8470  175.0460  137.0400 O   0  0  0  0  0  0  0  0  0  0  0  0
  197.8090  174.2960  139.3100 O   0  0  0  0  0  1  0  0  0  0  0  0
  197.6390  174.3530  137.6280 P   0  0  0  0  0  0  0  0  0  0  0  0
  187.7680  177.2060  138.5250 S   0  0  0  0  0  0  0  0  0  0  0  0
  187.0860  176.8850  136.8680 C   0  0  0  0  0  2  0  0  0  0  0  0
  187.0530  175.3820  136.5960 C   0  0  0  0  0  2  0  0  0  0  0  0
  185.7360  174.9100  136.1440 N   0  0  0  0  0  0  0  0  0  0  0  0
  185.5540  173.4580  136.3920 C   0  0  1  0  0  3  0  0  0  0  0  0
  184.1330  173.0120  136.0180 C   0  0  1  0  0  3  0  0  0  0  0  0
  184.0300  172.6800  134.6620 O   0  0  0  0  0  1  0  0  0  0  0  0
  183.8480  170.6410  136.3160 O   0  0  0  0  0  1  0  0  0  0  0  0
  183.6110  171.8850  136.9020 C   0  0  0  0  0  2  0  0  0  0  0  0
  186.5890  172.6230  135.6300 C   0  0  0  0  0  2  0  0  0  0  0  0
  187.4460  171.8500  136.6170 C   0  0  0  0  0  1  0  0  0  0  0  0
  184.7070  175.7930  136.7360 C   0  0  1  0  0  3  0  0  0  0  0  0
  184.2380  176.1970  134.4060 O   0  0  0  0  0  1  0  0  0  0  0  0
  183.6910  176.2450  135.6890 C   0  0  0  0  0  2  0  0  0  0  0  0
  184.0630  175.2820  138.0350 C   0  0  0  0  0  2  0  0  0  0  0  0
  182.7750  178.1020  140.3230 C   0  0  0  0  0  0  0  0  0  0  0  0
  180.8860  176.5480  139.7750 C   0  0  1  0  0  3  0  0  0  0  0  0
  183.7570  177.2680  139.5320 C   0  0  0  0  0  2  0  0  0  0  0  0
  181.9560  175.5490  139.3280 C   0  0  0  0  0  2  0  0  0  0  0  0
  183.2770  179.2870  141.0720 C   0  0  0  0  0  1  0  0  0  0  0  0
  181.4970  177.7270  140.4910 C   0  0  0  0  0  3  0  0  0  0  0  0
  183.0640  176.2860  138.5860 C   0  0  2  0  0  3  0  0  0  0  0  0
  180.1740  177.0000  138.6590 O   0  0  0  0  0  0  0  0  0  0  0  0
  180.0030  175.8680  137.8560 C   0  0  0  0  0  2  0  0  0  0  0  0
  180.4750  176.1720  136.4500 C   0  0  0  0  0  2  0  0  0  0  0  0
  179.9830  175.2080  135.5680 O   0  0  0  0  0  1  0  0  0  0  0  0
  190.5720  177.6200  140.1320 C   0  0  0  0  0  2  0  0  0  0  0  0
  191.0040  176.3370  140.8220 C   0  0  0  0  0  2  0  0  0  0  0  0
  190.0730  176.0260  141.8960 N   0  0  0  0  0  2  0  0  0  0  0  0
  190.8440  175.8860  143.1220 C   0  0  0  0  0  2  0  0  0  0  0  0
  191.4320  177.2320  143.5570 C   0  0  0  0  0  2  0  0  0  0  0  0
  187.0460  177.9430  146.9390 C   0  0  0  0  0  2  0  0  0  0  0  0
  189.0350  177.9100  144.0410 C   0  0  0  0  0  2  0  0  0  0  0  0
  187.1270  177.7530  145.6360 C   0  0  0  0  0  2  0  0  0  0  0  0
  190.6150  177.7260  145.9130 C   0  0  0  0  0  2  0  0  0  0  0  0
  190.8820  179.5470  144.2540 C   0  0  0  0  0  1  0  0  0  0  0  0
  188.4010  177.3170  145.1960 N   0  0  2  0  0  0  0  0  0  0  0  0
  189.3200  177.0220  146.2700 C   0  0  2  0  0  3  0  0  0  0  0  0
  190.5000  178.0900  144.4280 C   0  0  1  0  0  0  0  0  0  0  0  0
  188.5970  177.6930  147.8010 S   0  0  0  0  0  0  0  0  0  0  0  0
  1  2  1  0  0  0  0
  2  5  1  0  0  0  0
  3 22  1  0  0  0  0
  3  5  1  0  0  0  0
  4  3  2  0  0  0  0
  5 48  1  1  0  0  0
  6  8  1  6  0  0  0
  6  1  1  0  0  0  0
  6  4  1  0  0  0  0
  8  7  1  1  0  0  0
  9 10  1  0  0  0  0
  9  8  1  0  0  0  0
 10 11  3  0  0  0  0
 11 13  1  0  0  0  0
 13 12  1  1  0  0  0
 14 16  2  6  0  0  0
 14 13  1  0  0  0  0
 14 17  1  0  0  0  0
 15 14  1  0  0  0  0
 17 21  1  0  0  0  0
 18 21  1  0  0  0  0
 19 21  2  0  0  0  0
 21 20  1  0  0  0  0
 23 22  1  0  0  0  0
 24 23  1  0  0  0  0
 25 26  1  0  0  0  0
 25 24  1  0  0  0  0
 25 33  1  0  0  0  0
 26 31  1  6  0  0  0
 27 28  1  6  0  0  0
 27 26  1  0  0  0  0
 27 30  1  0  0  0  0
 29 30  1  0  0  0  0
 31 32  1  0  0  0  0
 33 35  1  6  0  0  0
 33 36  1  0  0  0  0
 34 35  1  0  0  0  0
 37 42  2  0  0  0  0
 37 41  1  0  0  0  0
 38 44  1  6  0  0  0
 38 42  1  0  0  0  0
 39 37  1  0  0  0  0
 40 38  1  0  0  0  0
 43 36  1  1  0  0  0
 43 40  1  0  0  0  0
 43 39  1  0  0  0  0
 45 44  1  0  0  0  0
 46 45  1  0  0  0  0
 47 46  1  0  0  0  0
 48 49  1  0  0  0  0
 49 50  1  0  0  0  0
 50 51  1  0  0  0  0
 51 52  1  0  0  0  0
 52 60  1  0  0  0  0
 53 61  1  0  0  0  0
 54 60  1  0  0  0  0
 55 53  1  0  0  0  0
 58 54  1  6  0  0  0
 58 55  1  0  0  0  0
 58 59  1  0  0  0  0
 59 56  1  6  0  0  0
 59 61  1  0  0  0  0
 60 57  1  6  0  0  0
 60 56  1  0  0  0  0
M  END
>  <MODEL>
9

>  <REMARK>
 VINA RESULT:      -3.5      4.390      9.251
  Name = 
  28 active torsions:
  status: ('A' for Active; 'I' for Inactive)
    1  A    between atoms: N_1  and  C_24
    2  A    between atoms: N_1  and  C_35
    3  A    between atoms: N_1  and  C_52
    4  A    between atoms: C_3  and  C_52
    5  A    between atoms: C_6  and  C_35
    6  A    between atoms: C_6  and  C_61
    7  A    between atoms: C_7  and  C_15
    8  A    between atoms: P_10  and  O_27
    9  A    between atoms: P_10  and  C_60
   10  A    between atoms: C_15  and  C_29
   11  A    between atoms: O_16  and  C_28
   12  A    between atoms: O_16  and  C_47
   13  A    between atoms: C_17  and  C_52
   14  A    between atoms: C_17  and  C_57
   15  A    between atoms: C_18  and  C_24
   16  A    between atoms: C_18  and  S_43
   17  A    between atoms: C_19  and  C_25
   18  A    between atoms: C_19  and  N_39
   19  A    between atoms: C_21  and  C_50
   20  A    between atoms: C_21  and  C_53
   21  A    between atoms: C_23  and  C_60
   22  A    between atoms: C_25  and  C_49
   23  A    between atoms: O_27  and  P_58
   24  A    between atoms: C_29  and  C_59
   25  A    between atoms: C_34  and  C_47
   26  A    between atoms: C_35  and  C_56
   27  A    between atoms: N_39  and  C_53
   28  A    between atoms: C_42  and  S_43
                            x       y       z     vdW  Elec       q    Type
                         _______ _______ _______ _____ _____    ______ ____

>  <TORSDO>
F 28

$$$$
