=
 OpenBabel10232412463D

 39 41  0  0  1  0  0  0  0  0999 V2000
  186.1220  178.6240  140.9710 C   0  0  0  0  0  3  0  0  0  0  0  0
  187.2420  178.4830  141.5940 N   0  0  0  0  0  0  0  0  0  0  0  0
  188.4470  177.9770  139.4830 C   0  0  0  0  0  0  0  0  0  0  0  0
  190.6380  177.3770  138.1910 C   0  0  0  0  0  3  0  0  0  0  0  0
  187.0850  177.7970  138.8450 C   0  0  1  0  0  3  0  0  0  0  0  0
  186.0780  178.7560  139.4780 C   0  0  0  0  0  2  0  0  0  0  0  0
  188.5400  178.4470  140.9240 C   0  0  2  0  0  3  0  0  0  0  0  0
  189.5440  177.6800  138.8310 C   0  0  0  0  0  0  0  0  0  0  0  0
  187.0980  177.9590  137.3460 C   0  0  0  0  0  0  0  0  0  0  0  0
  187.0650  179.1110  136.8350 O   0  0  0  0  0  0  0  0  0  0  0  0
  187.2140  176.8200  136.4900 N   0  0  0  0  0  2  0  0  0  0  0  0
  187.3330  175.4650  137.0060 C   0  0  0  0  0  2  0  0  0  0  0  0
  186.2140  174.6040  136.4530 C   0  0  0  0  0  2  0  0  0  0  0  0
  185.9070  173.4640  137.4100 C   0  0  0  0  0  2  0  0  0  0  0  0
  184.4080  173.2080  137.4660 C   0  0  0  0  0  2  0  0  0  0  0  0
  183.6150  174.4510  137.0820 C   0  0  0  0  0  2  0  0  0  0  0  0
  181.6460  175.3290  138.2930 C   0  0  0  0  0  2  0  0  0  0  0  0
  183.6660  176.5040  138.3170 O   0  0  0  0  0  0  0  0  0  0  0  0
  181.3560  176.7070  138.6140 N   0  0  0  0  0  2  0  0  0  0  0  0
  183.1440  175.2070  138.3160 C   0  0  2  0  0  3  0  0  0  0  0  0
  182.6570  177.2960  138.8860 C   0  0  0  0  0  2  0  0  0  0  0  0
  189.5190  177.6540  141.6880 N   0  0  0  0  0  0  0  0  0  0  0  0
  188.9190  176.4140  142.1730 C   0  0  0  0  0  1  0  0  0  0  0  0
  189.9490  178.4320  142.8410 C   0  0  0  0  0  2  0  0  0  0  0  0
  190.2500  177.5030  144.0010 C   0  0  0  0  0  2  0  0  0  0  0  0
  189.7800  178.0990  145.2400 N   0  0  0  0  0  2  0  0  0  0  0  0
  188.7640  177.2650  145.7280 N   0  0  0  0  0  2  0  0  0  0  0  0
  184.7680  178.2300  146.4800 C   0  0  0  0  0  2  0  0  0  0  0  0
  185.8450  178.7220  147.4420 C   0  0  0  0  0  2  0  0  0  0  0  0
  185.2770  178.2070  145.0400 C   0  0  1  0  0  3  0  0  0  0  0  0
  188.1700  178.4810  148.2180 C   0  0  0  0  0  1  0  0  0  0  0  0
  185.4050  179.6120  144.4770 C   0  0  0  0  0  1  0  0  0  0  0  0
  187.6090  178.0540  145.8610 N   0  0  0  0  0  0  0  0  0  0  0  0
  186.6110  177.4630  144.9640 C   0  0  0  0  0  2  0  0  0  0  0  0
  187.1370  177.9290  147.2500 C   0  0  2  0  0  3  0  0  0  0  0  0
  192.8870  176.7540  138.9460 C   0  0  0  0  0  1  0  0  0  0  0  0
  191.4830  176.2490  138.6650 C   0  0  2  0  0  3  0  0  0  0  0  0
  190.5270  174.2200  137.8480 O   0  0  0  0  0  1  0  0  0  0  0  0
  191.5220  175.1660  137.6020 C   0  0  0  0  0  2  0  0  0  0  0  0
  1  2  2  0  0  0  0
  3  7  1  0  0  0  0
  4 37  1  0  0  0  0
  4  8  2  0  0  0  0
  5  9  1  6  0  0  0
  5  6  1  0  0  0  0
  5  3  1  0  0  0  0
  6  1  1  0  0  0  0
  7  2  1  0  0  0  0
  7 22  1  1  0  0  0
  8  3  2  0  0  0  0
 10  9  2  0  0  0  0
 11 12  1  0  0  0  0
 11  9  1  0  0  0  0
 13 12  1  0  0  0  0
 13 14  1  0  0  0  0
 14 15  1  0  0  0  0
 16 15  1  0  0  0  0
 17 20  1  0  0  0  0
 17 19  1  0  0  0  0
 18 21  1  0  0  0  0
 19 21  1  0  0  0  0
 20 16  1  6  0  0  0
 20 18  1  0  0  0  0
 22 23  1  0  0  0  0
 22 24  1  0  0  0  0
 24 25  1  0  0  0  0
 25 26  1  0  0  0  0
 26 27  1  0  0  0  0
 27 33  1  0  0  0  0
 28 29  1  0  0  0  0
 30 32  1  1  0  0  0
 30 28  1  0  0  0  0
 33 35  1  0  0  0  0
 34 30  1  0  0  0  0
 34 33  1  0  0  0  0
 35 29  1  0  0  0  0
 35 31  1  1  0  0  0
 37 36  1  6  0  0  0
 39 38  1  0  0  0  0
 39 37  1  0  0  0  0
M  END
>  <MODEL>
1

>  <REMARK>
 VINA RESULT:      -6.6      0.000      0.000
  Name = 
  15 active torsions:
  status: ('A' for Active; 'I' for Inactive)
    1  A    between atoms: C_2  and  C_22
    2  A    between atoms: C_2  and  C_27
    3  A    between atoms: C_7  and  C_25
    4  A    between atoms: C_12  and  N_16
    5  A    between atoms: C_12  and  C_28
    6  A    between atoms: C_13  and  C_21
    7  A    between atoms: N_16  and  C_38
    8  A    between atoms: N_19  and  N_30
    9  A    between atoms: N_19  and  N_35
   10  A    between atoms: N_20  and  C_31
   11  A    between atoms: C_21  and  C_22
   12  A    between atoms: C_24  and  C_26
   13  A    between atoms: C_26  and  C_36
   14  A    between atoms: C_27  and  C_31
   15  A    between atoms: C_28  and  N_35
                            x       y       z     vdW  Elec       q    Type
                         _______ _______ _______ _____ _____    ______ ____

>  <TORSDO>
F 15

$$$$
=
 OpenBabel10232412463D

 39 41  0  0  1  0  0  0  0  0999 V2000
  187.3880  178.6290  141.0170 C   0  0  0  0  0  3  0  0  0  0  0  0
  187.4120  178.5120  139.7330 N   0  0  0  0  0  0  0  0  0  0  0  0
  189.4870  177.1520  139.8150 C   0  0  0  0  0  0  0  0  0  0  0  0
  191.3880  175.8110  138.6230 C   0  0  0  0  0  3  0  0  0  0  0  0
  189.6280  177.6010  141.2540 C   0  0  1  0  0  3  0  0  0  0  0  0
  188.2490  177.7660  141.8900 C   0  0  0  0  0  2  0  0  0  0  0  0
  188.2520  177.5470  139.0270 C   0  0  2  0  0  3  0  0  0  0  0  0
  190.4400  176.4760  139.2210 C   0  0  0  0  0  0  0  0  0  0  0  0
  190.4890  176.6870  142.0890 C   0  0  0  0  0  0  0  0  0  0  0  0
  190.4690  175.4420  141.8860 O   0  0  0  0  0  0  0  0  0  0  0  0
  191.3830  177.2190  143.0680 N   0  0  0  0  0  2  0  0  0  0  0  0
  191.5180  178.6470  143.3080 C   0  0  0  0  0  2  0  0  0  0  0  0
  190.6260  179.0630  144.4620 C   0  0  0  0  0  2  0  0  0  0  0  0
  190.4570  177.9100  145.4370 C   0  0  0  0  0  2  0  0  0  0  0  0
  189.0320  177.3780  145.3880 C   0  0  0  0  0  2  0  0  0  0  0  0
  188.2620  177.7270  146.6550 C   0  0  0  0  0  2  0  0  0  0  0  0
  186.4860  177.3730  144.9720 C   0  0  0  0  0  2  0  0  0  0  0  0
  186.1670  178.8880  146.7220 O   0  0  0  0  0  0  0  0  0  0  0  0
  185.4560  178.3030  144.5720 N   0  0  0  0  0  2  0  0  0  0  0  0
  186.7600  177.6580  146.4220 C   0  0  2  0  0  3  0  0  0  0  0  0
  185.1220  179.0180  145.7930 C   0  0  0  0  0  2  0  0  0  0  0  0
  188.6020  178.0240  137.6770 N   0  0  0  0  0  0  0  0  0  0  0  0
  188.9670  179.4390  137.7050 C   0  0  0  0  0  1  0  0  0  0  0  0
  187.4400  177.8730  136.8140 C   0  0  0  0  0  2  0  0  0  0  0  0
  187.1360  176.4000  136.6180 C   0  0  0  0  0  2  0  0  0  0  0  0
  185.7360  176.1460  136.9110 N   0  0  0  0  0  2  0  0  0  0  0  0
  185.1070  177.3970  136.9900 N   0  0  0  0  0  2  0  0  0  0  0  0
  182.2630  176.0180  139.7240 C   0  0  0  0  0  2  0  0  0  0  0  0
  182.5640  177.5130  139.6540 C   0  0  0  0  0  2  0  0  0  0  0  0
  182.3570  175.3680  138.3460 C   0  0  1  0  0  3  0  0  0  0  0  0
  184.1190  179.2600  138.8830 C   0  0  0  0  0  1  0  0  0  0  0  0
  181.1790  175.7570  137.4690 C   0  0  0  0  0  1  0  0  0  0  0  0
  183.8490  177.1910  137.5800 N   0  0  0  0  0  0  0  0  0  0  0  0
  183.6820  175.7370  137.6770 C   0  0  0  0  0  2  0  0  0  0  0  0
  183.8910  177.7580  138.9380 C   0  0  2  0  0  3  0  0  0  0  0  0
  191.3650  176.1770  136.1980 C   0  0  0  0  0  1  0  0  0  0  0  0
  192.1230  176.4320  137.4890 C   0  0  2  0  0  3  0  0  0  0  0  0
  194.3830  176.7350  136.7820 O   0  0  0  0  0  1  0  0  0  0  0  0
  193.5160  175.8350  137.4010 C   0  0  0  0  0  2  0  0  0  0  0  0
  1  6  1  0  0  0  0
  2  1  2  0  0  0  0
  3  5  1  0  0  0  0
  4  8  2  0  0  0  0
  5  6  1  0  0  0  0
  5  9  1  1  0  0  0
  7 22  1  6  0  0  0
  7  2  1  0  0  0  0
  7  3  1  0  0  0  0
  8  3  2  0  0  0  0
  9 11  1  0  0  0  0
 10  9  2  0  0  0  0
 11 12  1  0  0  0  0
 12 13  1  0  0  0  0
 13 14  1  0  0  0  0
 15 14  1  0  0  0  0
 15 16  1  0  0  0  0
 17 20  1  0  0  0  0
 19 17  1  0  0  0  0
 19 21  1  0  0  0  0
 20 16  1  6  0  0  0
 20 18  1  0  0  0  0
 21 18  1  0  0  0  0
 22 23  1  0  0  0  0
 24 22  1  0  0  0  0
 25 24  1  0  0  0  0
 25 26  1  0  0  0  0
 26 27  1  0  0  0  0
 27 33  1  0  0  0  0
 29 28  1  0  0  0  0
 30 32  1  6  0  0  0
 30 28  1  0  0  0  0
 33 34  1  0  0  0  0
 33 35  1  0  0  0  0
 34 30  1  0  0  0  0
 35 31  1  6  0  0  0
 35 29  1  0  0  0  0
 37 36  1  6  0  0  0
 37  4  1  0  0  0  0
 38 39  1  0  0  0  0
 39 37  1  0  0  0  0
M  END
>  <MODEL>
2

>  <REMARK>
 VINA RESULT:      -6.5      2.469      7.193
  Name = 
  15 active torsions:
  status: ('A' for Active; 'I' for Inactive)
    1  A    between atoms: C_2  and  C_22
    2  A    between atoms: C_2  and  C_27
    3  A    between atoms: C_7  and  C_25
    4  A    between atoms: C_12  and  N_16
    5  A    between atoms: C_12  and  C_28
    6  A    between atoms: C_13  and  C_21
    7  A    between atoms: N_16  and  C_38
    8  A    between atoms: N_19  and  N_30
    9  A    between atoms: N_19  and  N_35
   10  A    between atoms: N_20  and  C_31
   11  A    between atoms: C_21  and  C_22
   12  A    between atoms: C_24  and  C_26
   13  A    between atoms: C_26  and  C_36
   14  A    between atoms: C_27  and  C_31
   15  A    between atoms: C_28  and  N_35
                            x       y       z     vdW  Elec       q    Type
                         _______ _______ _______ _____ _____    ______ ____

>  <TORSDO>
F 15

$$$$
=
 OpenBabel10232412463D

 39 41  0  0  1  0  0  0  0  0999 V2000
  186.4490  178.2340  142.0530 C   0  0  0  0  0  3  0  0  0  0  0  0
  187.6320  177.7400  142.1970 N   0  0  0  0  0  0  0  0  0  0  0  0
  187.3900  177.6650  144.6660 C   0  0  0  0  0  0  0  0  0  0  0  0
  188.3380  177.1150  147.0390 C   0  0  0  0  0  3  0  0  0  0  0  0
  186.1800  178.5600  144.4930 C   0  0  1  0  0  3  0  0  0  0  0  0
  185.4650  178.2270  143.1850 C   0  0  0  0  0  2  0  0  0  0  0  0
  188.1090  177.1360  143.4390 C   0  0  2  0  0  3  0  0  0  0  0  0
  187.8610  177.3870  145.8580 C   0  0  0  0  0  0  0  0  0  0  0  0
  185.2160  178.4990  145.6510 C   0  0  0  0  0  0  0  0  0  0  0  0
  185.6110  178.1030  146.7810 O   0  0  0  0  0  0  0  0  0  0  0  0
  183.8680  178.9500  145.5030 N   0  0  0  0  0  2  0  0  0  0  0  0
  183.3600  179.4910  144.2520 C   0  0  0  0  0  2  0  0  0  0  0  0
  182.2070  178.6420  143.7540 C   0  0  0  0  0  2  0  0  0  0  0  0
  181.0980  179.5270  143.2110 C   0  0  0  0  0  2  0  0  0  0  0  0
  180.8770  179.2510  141.7300 C   0  0  0  0  0  2  0  0  0  0  0  0
  181.9360  178.3080  141.1740 C   0  0  0  0  0  2  0  0  0  0  0  0
  183.8330  179.0670  139.7810 C   0  0  0  0  0  2  0  0  0  0  0  0
  181.6780  179.8780  139.3830 O   0  0  0  0  0  0  0  0  0  0  0  0
  183.9530  180.3160  139.0670 N   0  0  0  0  0  2  0  0  0  0  0  0
  182.3680  178.7280  139.7770 C   0  0  2  0  0  3  0  0  0  0  0  0
  182.6010  180.6060  138.6160 C   0  0  0  0  0  2  0  0  0  0  0  0
  189.5710  177.2620  143.5730 N   0  0  0  0  0  0  0  0  0  0  0  0
  189.9840  178.6590  143.4570 C   0  0  0  0  0  1  0  0  0  0  0  0
  190.2030  176.5110  142.4980 C   0  0  0  0  0  2  0  0  0  0  0  0
  191.3030  177.3450  141.8700 C   0  0  0  0  0  2  0  0  0  0  0  0
  191.0880  177.4390  140.4360 N   0  0  0  0  0  2  0  0  0  0  0  0
  190.3410  176.3110  140.0660 N   0  0  0  0  0  2  0  0  0  0  0  0
  189.3000  178.3380  136.5640 C   0  0  0  0  0  2  0  0  0  0  0  0
  189.7150  176.8720  136.4780 C   0  0  0  0  0  2  0  0  0  0  0  0
  188.5340  178.6250  137.8530 C   0  0  1  0  0  3  0  0  0  0  0  0
  190.8170  174.9820  137.6090 C   0  0  0  0  0  1  0  0  0  0  0  0
  187.1350  178.0350  137.8080 C   0  0  0  0  0  1  0  0  0  0  0  0
  189.5960  176.6630  138.9280 N   0  0  0  0  0  0  0  0  0  0  0  0
  189.3120  178.0950  139.0580 C   0  0  0  0  0  2  0  0  0  0  0  0
  190.4520  176.4510  137.7490 C   0  0  2  0  0  3  0  0  0  0  0  0
  190.6770  176.4650  147.3890 C   0  0  0  0  0  1  0  0  0  0  0  0
  189.6850  177.6140  147.4240 C   0  0  2  0  0  3  0  0  0  0  0  0
  188.3010  178.2470  149.2630 O   0  0  0  0  0  1  0  0  0  0  0  0
  189.6240  178.2070  148.8200 C   0  0  0  0  0  2  0  0  0  0  0  0
  1  2  2  0  0  0  0
  1  6  1  0  0  0  0
  2  7  1  0  0  0  0
  3  8  2  0  0  0  0
  4 37  1  0  0  0  0
  5  3  1  0  0  0  0
  5  9  1  1  0  0  0
  6  5  1  0  0  0  0
  7 22  1  1  0  0  0
  7  3  1  0  0  0  0
  8  4  2  0  0  0  0
  9 10  2  0  0  0  0
 11  9  1  0  0  0  0
 12 11  1  0  0  0  0
 13 12  1  0  0  0  0
 14 13  1  0  0  0  0
 15 14  1  0  0  0  0
 16 15  1  0  0  0  0
 18 20  1  0  0  0  0
 19 17  1  0  0  0  0
 20 17  1  0  0  0  0
 20 16  1  1  0  0  0
 21 19  1  0  0  0  0
 21 18  1  0  0  0  0
 23 22  1  0  0  0  0
 24 22  1  0  0  0  0
 25 24  1  0  0  0  0
 26 25  1  0  0  0  0
 27 26  1  0  0  0  0
 28 30  1  0  0  0  0
 29 28  1  0  0  0  0
 29 35  1  0  0  0  0
 30 32  1  6  0  0  0
 30 34  1  0  0  0  0
 33 34  1  0  0  0  0
 33 27  1  0  0  0  0
 35 31  1  6  0  0  0
 35 33  1  0  0  0  0
 37 36  1  1  0  0  0
 37 39  1  0  0  0  0
 39 38  1  0  0  0  0
M  END
>  <MODEL>
3

>  <REMARK>
 VINA RESULT:      -6.5      3.302      7.468
  Name = 
  15 active torsions:
  status: ('A' for Active; 'I' for Inactive)
    1  A    between atoms: C_2  and  C_22
    2  A    between atoms: C_2  and  C_27
    3  A    between atoms: C_7  and  C_25
    4  A    between atoms: C_12  and  N_16
    5  A    between atoms: C_12  and  C_28
    6  A    between atoms: C_13  and  C_21
    7  A    between atoms: N_16  and  C_38
    8  A    between atoms: N_19  and  N_30
    9  A    between atoms: N_19  and  N_35
   10  A    between atoms: N_20  and  C_31
   11  A    between atoms: C_21  and  C_22
   12  A    between atoms: C_24  and  C_26
   13  A    between atoms: C_26  and  C_36
   14  A    between atoms: C_27  and  C_31
   15  A    between atoms: C_28  and  N_35
                            x       y       z     vdW  Elec       q    Type
                         _______ _______ _______ _____ _____    ______ ____

>  <TORSDO>
F 15

$$$$
=
 OpenBabel10232412463D

 39 41  0  0  1  0  0  0  0  0999 V2000
  187.1830  178.6620  140.9760 C   0  0  0  0  0  3  0  0  0  0  0  0
  187.1770  178.5300  139.6930 N   0  0  0  0  0  0  0  0  0  0  0  0
  189.2710  177.1970  139.7380 C   0  0  0  0  0  0  0  0  0  0  0  0
  191.1590  175.8670  138.5140 C   0  0  0  0  0  3  0  0  0  0  0  0
  189.4410  177.6650  141.1680 C   0  0  1  0  0  3  0  0  0  0  0  0
  188.0750  177.8190  141.8370 C   0  0  0  0  0  2  0  0  0  0  0  0
  188.0110  177.5680  138.9760 C   0  0  2  0  0  3  0  0  0  0  0  0
  190.2170  176.5270  139.1280 C   0  0  0  0  0  0  0  0  0  0  0  0
  190.3330  176.7700  141.9910 C   0  0  0  0  0  0  0  0  0  0  0  0
  190.4540  175.5510  141.6920 O   0  0  0  0  0  0  0  0  0  0  0  0
  191.1010  177.3010  143.0730 N   0  0  0  0  0  2  0  0  0  0  0  0
  191.0730  178.7110  143.4320 C   0  0  0  0  0  2  0  0  0  0  0  0
  190.4150  178.8850  144.7870 C   0  0  0  0  0  2  0  0  0  0  0  0
  189.6270  177.6390  145.1530 C   0  0  0  0  0  2  0  0  0  0  0  0
  188.9990  177.7940  146.5300 C   0  0  0  0  0  2  0  0  0  0  0  0
  187.5350  177.3710  146.5280 C   0  0  0  0  0  2  0  0  0  0  0  0
  185.5510  178.8040  146.8760 C   0  0  0  0  0  2  0  0  0  0  0  0
  186.0460  177.9700  144.7500 O   0  0  0  0  0  0  0  0  0  0  0  0
  184.3360  178.8250  146.0960 N   0  0  0  0  0  2  0  0  0  0  0  0
  186.6520  178.4470  145.9160 C   0  0  2  0  0  3  0  0  0  0  0  0
  184.7770  178.5680  144.7340 C   0  0  0  0  0  2  0  0  0  0  0  0
  188.3220  178.0340  137.6130 N   0  0  0  0  0  0  0  0  0  0  0  0
  189.0480  179.3020  137.6510 C   0  0  0  0  0  1  0  0  0  0  0  0
  187.0720  178.2480  136.8980 C   0  0  0  0  0  2  0  0  0  0  0  0
  187.2070  177.7500  135.4730 C   0  0  0  0  0  2  0  0  0  0  0  0
  185.9730  177.1030  135.0620 N   0  0  0  0  0  2  0  0  0  0  0  0
  186.2520  175.7320  134.9590 N   0  0  0  0  0  2  0  0  0  0  0  0
  184.4770  172.7450  137.2800 C   0  0  0  0  0  2  0  0  0  0  0  0
  185.9100  173.1710  137.5860 C   0  0  0  0  0  2  0  0  0  0  0  0
  183.6350  173.9280  136.8060 C   0  0  1  0  0  3  0  0  0  0  0  0
  187.9210  174.3400  136.7760 C   0  0  0  0  0  1  0  0  0  0  0  0
  183.3110  174.8710  137.9520 C   0  0  0  0  0  1  0  0  0  0  0  0
  185.6890  175.1090  136.0850 N   0  0  0  0  0  0  0  0  0  0  0  0
  184.3520  174.6670  135.6750 C   0  0  0  0  0  2  0  0  0  0  0  0
  186.5070  173.9260  136.4000 C   0  0  2  0  0  3  0  0  0  0  0  0
  191.0840  176.1860  136.0840 C   0  0  0  0  0  1  0  0  0  0  0  0
  191.8570  176.4850  137.3560 C   0  0  2  0  0  3  0  0  0  0  0  0
  194.1670  176.9420  136.9580 O   0  0  0  0  0  1  0  0  0  0  0  0
  193.2630  175.9200  137.2550 C   0  0  0  0  0  2  0  0  0  0  0  0
  1  6  1  0  0  0  0
  2  1  2  0  0  0  0
  3  5  1  0  0  0  0
  4  8  2  0  0  0  0
  5  6  1  0  0  0  0
  5  9  1  1  0  0  0
  7 22  1  6  0  0  0
  7  2  1  0  0  0  0
  7  3  1  0  0  0  0
  8  3  2  0  0  0  0
  9 11  1  0  0  0  0
 10  9  2  0  0  0  0
 11 12  1  0  0  0  0
 12 13  1  0  0  0  0
 13 14  1  0  0  0  0
 14 15  1  0  0  0  0
 16 15  1  0  0  0  0
 18 20  1  0  0  0  0
 19 17  1  0  0  0  0
 20 16  1  1  0  0  0
 20 17  1  0  0  0  0
 21 18  1  0  0  0  0
 21 19  1  0  0  0  0
 22 23  1  0  0  0  0
 24 22  1  0  0  0  0
 25 24  1  0  0  0  0
 26 25  1  0  0  0  0
 27 26  1  0  0  0  0
 27 33  1  0  0  0  0
 28 29  1  0  0  0  0
 30 28  1  0  0  0  0
 30 32  1  1  0  0  0
 33 35  1  0  0  0  0
 34 33  1  0  0  0  0
 34 30  1  0  0  0  0
 35 31  1  1  0  0  0
 35 29  1  0  0  0  0
 37 36  1  6  0  0  0
 37  4  1  0  0  0  0
 38 39  1  0  0  0  0
 39 37  1  0  0  0  0
M  END
>  <MODEL>
4

>  <REMARK>
 VINA RESULT:      -6.5      2.427      7.783
  Name = 
  15 active torsions:
  status: ('A' for Active; 'I' for Inactive)
    1  A    between atoms: C_2  and  C_22
    2  A    between atoms: C_2  and  C_27
    3  A    between atoms: C_7  and  C_25
    4  A    between atoms: C_12  and  N_16
    5  A    between atoms: C_12  and  C_28
    6  A    between atoms: C_13  and  C_21
    7  A    between atoms: N_16  and  C_38
    8  A    between atoms: N_19  and  N_30
    9  A    between atoms: N_19  and  N_35
   10  A    between atoms: N_20  and  C_31
   11  A    between atoms: C_21  and  C_22
   12  A    between atoms: C_24  and  C_26
   13  A    between atoms: C_26  and  C_36
   14  A    between atoms: C_27  and  C_31
   15  A    between atoms: C_28  and  N_35
                            x       y       z     vdW  Elec       q    Type
                         _______ _______ _______ _____ _____    ______ ____

>  <TORSDO>
F 15

$$$$
=
 OpenBabel10232412463D

 39 41  0  0  1  0  0  0  0  0999 V2000
  186.7500  178.4420  141.4140 C   0  0  0  0  0  3  0  0  0  0  0  0
  187.9260  178.2170  141.8930 N   0  0  0  0  0  0  0  0  0  0  0  0
  188.8500  177.7660  139.6330 C   0  0  0  0  0  0  0  0  0  0  0  0
  190.8420  177.1320  138.0650 C   0  0  0  0  0  3  0  0  0  0  0  0
  187.4160  177.6830  139.1530 C   0  0  1  0  0  3  0  0  0  0  0  0
  186.5400  178.6540  139.9440 C   0  0  0  0  0  2  0  0  0  0  0  0
  189.1340  178.1560  141.0730 C   0  0  2  0  0  3  0  0  0  0  0  0
  189.8470  177.4520  138.8430 C   0  0  0  0  0  0  0  0  0  0  0  0
  187.2630  177.9210  137.6720 C   0  0  0  0  0  0  0  0  0  0  0  0
  187.2870  179.0960  137.2150 O   0  0  0  0  0  0  0  0  0  0  0  0
  187.1570  176.8230  136.7630 N   0  0  0  0  0  2  0  0  0  0  0  0
  187.1970  175.4370  137.2060 C   0  0  0  0  0  2  0  0  0  0  0  0
  186.5490  174.5450  136.1650 C   0  0  0  0  0  2  0  0  0  0  0  0
  186.3940  173.1340  136.7060 C   0  0  0  0  0  2  0  0  0  0  0  0
  185.2540  173.0740  137.7120 C   0  0  0  0  0  2  0  0  0  0  0  0
  184.1130  172.1980  137.2110 C   0  0  0  0  0  2  0  0  0  0  0  0
  182.9020  174.3440  137.4090 C   0  0  0  0  0  2  0  0  0  0  0  0
  181.7510  172.3870  136.8560 O   0  0  0  0  0  0  0  0  0  0  0  0
  181.5090  174.5400  137.7380 N   0  0  0  0  0  2  0  0  0  0  0  0
  182.9710  173.0410  136.6620 C   0  0  2  0  0  3  0  0  0  0  0  0
  180.8300  173.4150  137.1140 C   0  0  0  0  0  2  0  0  0  0  0  0
  190.1520  177.2800  141.6780 N   0  0  0  0  0  0  0  0  0  0  0  0
  189.5420  176.0610  142.2060 C   0  0  0  0  0  1  0  0  0  0  0  0
  190.7780  177.9890  142.7850 C   0  0  0  0  0  2  0  0  0  0  0  0
  190.5220  177.2450  144.0800 C   0  0  0  0  0  2  0  0  0  0  0  0
  189.7710  178.0910  144.9910 N   0  0  0  0  0  2  0  0  0  0  0  0
  188.8200  177.2700  145.6130 N   0  0  0  0  0  2  0  0  0  0  0  0
  184.8810  178.2150  146.6410 C   0  0  0  0  0  2  0  0  0  0  0  0
  186.0200  178.7140  147.5250 C   0  0  0  0  0  2  0  0  0  0  0  0
  185.2880  178.1930  145.1700 C   0  0  1  0  0  3  0  0  0  0  0  0
  188.3950  178.4860  148.1370 C   0  0  0  0  0  1  0  0  0  0  0  0
  185.3700  179.5970  144.5970 C   0  0  0  0  0  1  0  0  0  0  0  0
  187.6730  178.0530  145.8250 N   0  0  0  0  0  0  0  0  0  0  0  0
  186.6180  177.4550  145.0010 C   0  0  0  0  0  2  0  0  0  0  0  0
  187.2990  177.9270  147.2440 C   0  0  2  0  0  3  0  0  0  0  0  0
  193.1390  176.3470  138.4170 C   0  0  0  0  0  1  0  0  0  0  0  0
  191.6760  175.9420  138.3830 C   0  0  2  0  0  3  0  0  0  0  0  0
  190.3920  174.0510  137.6970 O   0  0  0  0  0  1  0  0  0  0  0  0
  191.4560  174.8740  137.3270 C   0  0  0  0  0  2  0  0  0  0  0  0
  1  2  2  0  0  0  0
  3  7  1  0  0  0  0
  4 37  1  0  0  0  0
  4  8  2  0  0  0  0
  5  9  1  6  0  0  0
  5  3  1  0  0  0  0
  5  6  1  0  0  0  0
  6  1  1  0  0  0  0
  7 22  1  1  0  0  0
  7  2  1  0  0  0  0
  8  3  2  0  0  0  0
 10  9  2  0  0  0  0
 11 12  1  0  0  0  0
 11  9  1  0  0  0  0
 13 14  1  0  0  0  0
 13 12  1  0  0  0  0
 14 15  1  0  0  0  0
 16 15  1  0  0  0  0
 17 19  1  0  0  0  0
 18 21  1  0  0  0  0
 20 18  1  0  0  0  0
 20 16  1  1  0  0  0
 20 17  1  0  0  0  0
 21 19  1  0  0  0  0
 22 23  1  0  0  0  0
 22 24  1  0  0  0  0
 24 25  1  0  0  0  0
 25 26  1  0  0  0  0
 26 27  1  0  0  0  0
 27 33  1  0  0  0  0
 28 29  1  0  0  0  0
 30 32  1  1  0  0  0
 30 28  1  0  0  0  0
 33 35  1  0  0  0  0
 34 30  1  0  0  0  0
 34 33  1  0  0  0  0
 35 29  1  0  0  0  0
 35 31  1  1  0  0  0
 37 36  1  6  0  0  0
 39 38  1  0  0  0  0
 39 37  1  0  0  0  0
M  END
>  <MODEL>
5

>  <REMARK>
 VINA RESULT:      -6.5      1.148      1.381
  Name = 
  15 active torsions:
  status: ('A' for Active; 'I' for Inactive)
    1  A    between atoms: C_2  and  C_22
    2  A    between atoms: C_2  and  C_27
    3  A    between atoms: C_7  and  C_25
    4  A    between atoms: C_12  and  N_16
    5  A    between atoms: C_12  and  C_28
    6  A    between atoms: C_13  and  C_21
    7  A    between atoms: N_16  and  C_38
    8  A    between atoms: N_19  and  N_30
    9  A    between atoms: N_19  and  N_35
   10  A    between atoms: N_20  and  C_31
   11  A    between atoms: C_21  and  C_22
   12  A    between atoms: C_24  and  C_26
   13  A    between atoms: C_26  and  C_36
   14  A    between atoms: C_27  and  C_31
   15  A    between atoms: C_28  and  N_35
                            x       y       z     vdW  Elec       q    Type
                         _______ _______ _______ _____ _____    ______ ____

>  <TORSDO>
F 15

$$$$
=
 OpenBabel10232412463D

 39 41  0  0  1  0  0  0  0  0999 V2000
  185.9860  178.6250  141.7580 C   0  0  0  0  0  3  0  0  0  0  0  0
  187.1160  178.0210  141.9060 N   0  0  0  0  0  0  0  0  0  0  0  0
  186.8580  177.9690  144.3740 C   0  0  0  0  0  0  0  0  0  0  0  0
  187.7410  177.3310  146.7510 C   0  0  0  0  0  3  0  0  0  0  0  0
  185.7390  178.9740  144.1970 C   0  0  1  0  0  3  0  0  0  0  0  0
  185.0010  178.7120  142.8850 C   0  0  0  0  0  2  0  0  0  0  0  0
  187.5290  177.3740  143.1490 C   0  0  2  0  0  3  0  0  0  0  0  0
  187.2960  177.6480  145.5670 C   0  0  0  0  0  0  0  0  0  0  0  0
  184.7700  179.0050  145.3510 C   0  0  0  0  0  0  0  0  0  0  0  0
  185.1910  179.1790  146.5260 O   0  0  0  0  0  0  0  0  0  0  0  0
  183.3620  178.9050  145.1240 N   0  0  0  0  0  2  0  0  0  0  0  0
  182.7940  178.7790  143.7910 C   0  0  0  0  0  2  0  0  0  0  0  0
  181.2820  178.8660  143.8640 C   0  0  0  0  0  2  0  0  0  0  0  0
  180.6670  178.4770  142.5310 C   0  0  0  0  0  2  0  0  0  0  0  0
  181.6610  178.7070  141.4010 C   0  0  0  0  0  2  0  0  0  0  0  0
  181.5490  177.6290  140.3300 C   0  0  0  0  0  2  0  0  0  0  0  0
  183.5130  178.3000  138.9870 C   0  0  0  0  0  2  0  0  0  0  0  0
  182.8120  176.0710  139.0200 O   0  0  0  0  0  0  0  0  0  0  0  0
  184.0290  177.6540  137.8030 N   0  0  0  0  0  2  0  0  0  0  0  0
  182.9220  177.2050  139.8310 C   0  0  2  0  0  3  0  0  0  0  0  0
  183.7980  176.2370  138.0350 C   0  0  0  0  0  2  0  0  0  0  0  0
  188.9960  177.3620  143.2890 N   0  0  0  0  0  0  0  0  0  0  0  0
  189.5660  178.6460  142.8890 C   0  0  0  0  0  1  0  0  0  0  0  0
  189.5380  176.3320  142.4150 C   0  0  0  0  0  2  0  0  0  0  0  0
  190.6220  176.9260  141.5370 C   0  0  0  0  0  2  0  0  0  0  0  0
  190.4450  176.4740  140.1670 N   0  0  0  0  0  2  0  0  0  0  0  0
  190.1720  177.6150  139.3990 N   0  0  0  0  0  2  0  0  0  0  0  0
  189.5080  175.7420  135.7230 C   0  0  0  0  0  2  0  0  0  0  0  0
  189.2920  177.2480  135.8390 C   0  0  0  0  0  2  0  0  0  0  0  0
  190.6640  175.2760  136.6050 C   0  0  1  0  0  3  0  0  0  0  0  0
  188.9730  179.1650  137.3520 C   0  0  0  0  0  1  0  0  0  0  0  0
  192.0040  175.7030  136.0310 C   0  0  0  0  0  1  0  0  0  0  0  0
  190.3690  177.2640  138.0530 N   0  0  0  0  0  0  0  0  0  0  0  0
  190.4860  175.8020  138.0300 C   0  0  0  0  0  2  0  0  0  0  0  0
  189.1630  177.6580  137.3060 C   0  0  2  0  0  3  0  0  0  0  0  0
  190.0550  176.5290  146.8730 C   0  0  0  0  0  1  0  0  0  0  0  0
  189.1270  177.7010  147.1410 C   0  0  2  0  0  3  0  0  0  0  0  0
  187.8740  178.3940  149.0510 O   0  0  0  0  0  1  0  0  0  0  0  0
  189.1580  178.0620  148.6150 C   0  0  0  0  0  2  0  0  0  0  0  0
  1  2  2  0  0  0  0
  1  6  1  0  0  0  0
  2  7  1  0  0  0  0
  3  8  2  0  0  0  0
  4 37  1  0  0  0  0
  5  3  1  0  0  0  0
  5  9  1  1  0  0  0
  6  5  1  0  0  0  0
  7 22  1  1  0  0  0
  7  3  1  0  0  0  0
  8  4  2  0  0  0  0
  9 10  2  0  0  0  0
 11  9  1  0  0  0  0
 12 13  1  0  0  0  0
 12 11  1  0  0  0  0
 14 13  1  0  0  0  0
 15 14  1  0  0  0  0
 16 15  1  0  0  0  0
 17 20  1  0  0  0  0
 18 20  1  0  0  0  0
 19 21  1  0  0  0  0
 19 17  1  0  0  0  0
 20 16  1  6  0  0  0
 21 18  1  0  0  0  0
 23 22  1  0  0  0  0
 24 22  1  0  0  0  0
 25 24  1  0  0  0  0
 26 25  1  0  0  0  0
 27 26  1  0  0  0  0
 28 29  1  0  0  0  0
 28 30  1  0  0  0  0
 29 35  1  0  0  0  0
 30 32  1  6  0  0  0
 30 34  1  0  0  0  0
 33 27  1  0  0  0  0
 34 33  1  0  0  0  0
 35 31  1  6  0  0  0
 35 33  1  0  0  0  0
 37 36  1  1  0  0  0
 37 39  1  0  0  0  0
 39 38  1  0  0  0  0
M  END
>  <MODEL>
6

>  <REMARK>
 VINA RESULT:      -6.1      3.150      7.601
  Name = 
  15 active torsions:
  status: ('A' for Active; 'I' for Inactive)
    1  A    between atoms: C_2  and  C_22
    2  A    between atoms: C_2  and  C_27
    3  A    between atoms: C_7  and  C_25
    4  A    between atoms: C_12  and  N_16
    5  A    between atoms: C_12  and  C_28
    6  A    between atoms: C_13  and  C_21
    7  A    between atoms: N_16  and  C_38
    8  A    between atoms: N_19  and  N_30
    9  A    between atoms: N_19  and  N_35
   10  A    between atoms: N_20  and  C_31
   11  A    between atoms: C_21  and  C_22
   12  A    between atoms: C_24  and  C_26
   13  A    between atoms: C_26  and  C_36
   14  A    between atoms: C_27  and  C_31
   15  A    between atoms: C_28  and  N_35
                            x       y       z     vdW  Elec       q    Type
                         _______ _______ _______ _____ _____    ______ ____

>  <TORSDO>
F 15

$$$$
=
 OpenBabel10232412463D

 39 41  0  0  1  0  0  0  0  0999 V2000
  191.9800  176.0220  147.1540 C   0  0  0  0  0  3  0  0  0  0  0  0
  192.0700  176.0020  145.8680 N   0  0  0  0  0  0  0  0  0  0  0  0
  189.9990  177.3470  145.6200 C   0  0  0  0  0  0  0  0  0  0  0  0
  188.2130  178.5390  144.1290 C   0  0  0  0  0  3  0  0  0  0  0  0
  189.7300  177.0520  147.0810 C   0  0  1  0  0  3  0  0  0  0  0  0
  191.0480  176.9670  147.8510 C   0  0  0  0  0  2  0  0  0  0  0  0
  191.2980  176.8800  144.9910 C   0  0  2  0  0  3  0  0  0  0  0  0
  189.1030  177.9490  144.8760 C   0  0  0  0  0  0  0  0  0  0  0  0
  188.8010  178.0440  147.7340 C   0  0  0  0  0  0  0  0  0  0  0  0
  189.2700  179.0580  148.3190 O   0  0  0  0  0  0  0  0  0  0  0  0
  187.3830  177.8860  147.6430 N   0  0  0  0  0  2  0  0  0  0  0  0
  186.7660  176.7830  146.9210 C   0  0  0  0  0  2  0  0  0  0  0  0
  185.6200  177.3000  146.0730 C   0  0  0  0  0  2  0  0  0  0  0  0
  185.3640  178.7670  146.3730 C   0  0  0  0  0  2  0  0  0  0  0  0
  184.8040  179.4690  145.1450 C   0  0  0  0  0  2  0  0  0  0  0  0
  183.4650  178.8770  144.7240 C   0  0  0  0  0  2  0  0  0  0  0  0
  181.6000  179.1570  143.1260 C   0  0  0  0  0  2  0  0  0  0  0  0
  183.7180  178.5270  142.3670 O   0  0  0  0  0  0  0  0  0  0  0  0
  181.4390  178.5150  141.8420 N   0  0  0  0  0  2  0  0  0  0  0  0
  183.0810  179.3250  143.3220 C   0  0  2  0  0  3  0  0  0  0  0  0
  182.7920  178.4130  141.3180 C   0  0  0  0  0  2  0  0  0  0  0  0
  191.0680  176.2600  143.6740 N   0  0  0  0  0  0  0  0  0  0  0  0
  191.3340  174.8230  143.7230 C   0  0  0  0  0  1  0  0  0  0  0  0
  191.9820  176.8580  142.7120 C   0  0  0  0  0  2  0  0  0  0  0  0
  191.1980  177.6630  141.6940 C   0  0  0  0  0  2  0  0  0  0  0  0
  191.5900  177.2700  140.3520 N   0  0  0  0  0  2  0  0  0  0  0  0
  190.4200  176.8650  139.6920 N   0  0  0  0  0  2  0  0  0  0  0  0
  190.2090  175.6290  135.7060 C   0  0  0  0  0  2  0  0  0  0  0  0
  189.7300  177.0300  136.0760 C   0  0  0  0  0  2  0  0  0  0  0  0
  191.4000  175.2050  136.5610 C   0  0  1  0  0  3  0  0  0  0  0  0
  189.0330  178.5500  137.8860 C   0  0  0  0  0  1  0  0  0  0  0  0
  192.6630  175.9490  136.1590 C   0  0  0  0  0  1  0  0  0  0  0  0
  190.7170  176.8090  138.3200 N   0  0  0  0  0  0  0  0  0  0  0  0
  191.0890  175.4180  138.0430 C   0  0  0  0  0  2  0  0  0  0  0  0
  189.4850  177.1300  137.5810 C   0  0  2  0  0  3  0  0  0  0  0  0
  188.0030  176.3390  143.0680 C   0  0  0  0  0  1  0  0  0  0  0  0
  187.5810  177.7960  143.0080 C   0  0  2  0  0  3  0  0  0  0  0  0
  186.8930  178.7850  140.9470 O   0  0  0  0  0  1  0  0  0  0  0  0
  188.0130  178.4090  141.6880 C   0  0  0  0  0  2  0  0  0  0  0  0
  1  6  1  0  0  0  0
  2  1  2  0  0  0  0
  3  5  1  0  0  0  0
  4  8  2  0  0  0  0
  5  9  1  1  0  0  0
  5  6  1  0  0  0  0
  7 22  1  6  0  0  0
  7  3  1  0  0  0  0
  7  2  1  0  0  0  0
  8  3  2  0  0  0  0
  9 10  2  0  0  0  0
 11  9  1  0  0  0  0
 12 11  1  0  0  0  0
 13 14  1  0  0  0  0
 13 12  1  0  0  0  0
 15 14  1  0  0  0  0
 16 15  1  0  0  0  0
 17 20  1  0  0  0  0
 18 20  1  0  0  0  0
 19 17  1  0  0  0  0
 20 16  1  1  0  0  0
 21 19  1  0  0  0  0
 21 18  1  0  0  0  0
 22 23  1  0  0  0  0
 24 22  1  0  0  0  0
 25 24  1  0  0  0  0
 26 25  1  0  0  0  0
 27 26  1  0  0  0  0
 28 29  1  0  0  0  0
 28 30  1  0  0  0  0
 29 35  1  0  0  0  0
 30 32  1  6  0  0  0
 30 34  1  0  0  0  0
 33 27  1  0  0  0  0
 34 33  1  0  0  0  0
 35 31  1  6  0  0  0
 35 33  1  0  0  0  0
 37 36  1  6  0  0  0
 37  4  1  0  0  0  0
 38 39  1  0  0  0  0
 39 37  1  0  0  0  0
M  END
>  <MODEL>
7

>  <REMARK>
 VINA RESULT:      -6.1      3.109      8.145
  Name = 
  15 active torsions:
  status: ('A' for Active; 'I' for Inactive)
    1  A    between atoms: C_2  and  C_22
    2  A    between atoms: C_2  and  C_27
    3  A    between atoms: C_7  and  C_25
    4  A    between atoms: C_12  and  N_16
    5  A    between atoms: C_12  and  C_28
    6  A    between atoms: C_13  and  C_21
    7  A    between atoms: N_16  and  C_38
    8  A    between atoms: N_19  and  N_30
    9  A    between atoms: N_19  and  N_35
   10  A    between atoms: N_20  and  C_31
   11  A    between atoms: C_21  and  C_22
   12  A    between atoms: C_24  and  C_26
   13  A    between atoms: C_26  and  C_36
   14  A    between atoms: C_27  and  C_31
   15  A    between atoms: C_28  and  N_35
                            x       y       z     vdW  Elec       q    Type
                         _______ _______ _______ _____ _____    ______ ____

>  <TORSDO>
F 15

$$$$
=
 OpenBabel10232412463D

 39 41  0  0  1  0  0  0  0  0999 V2000
  192.8990  176.8810  139.1760 C   0  0  0  0  0  3  0  0  0  0  0  0
  191.6690  177.0700  139.5140 N   0  0  0  0  0  0  0  0  0  0  0  0
  190.8570  175.5840  137.6990 C   0  0  0  0  0  0  0  0  0  0  0  0
  188.9100  174.4310  136.3900 C   0  0  0  0  0  3  0  0  0  0  0  0
  192.2520  175.6690  137.1160 C   0  0  1  0  0  3  0  0  0  0  0  0
  193.2840  175.7760  138.2380 C   0  0  0  0  0  2  0  0  0  0  0  0
  190.5640  176.2420  139.0350 C   0  0  2  0  0  3  0  0  0  0  0  0
  189.8830  175.0010  137.0420 C   0  0  0  0  0  0  0  0  0  0  0  0
  192.5900  174.5230  136.1960 C   0  0  0  0  0  0  0  0  0  0  0  0
  192.3550  173.3370  136.5520 O   0  0  0  0  0  0  0  0  0  0  0  0
  193.1160  174.7670  134.8900 N   0  0  0  0  0  2  0  0  0  0  0  0
  193.3440  176.1100  134.3790 C   0  0  0  0  0  2  0  0  0  0  0  0
  194.8300  176.4090  134.3610 C   0  0  0  0  0  2  0  0  0  0  0  0
  195.6110  175.2240  134.9030 C   0  0  0  0  0  2  0  0  0  0  0  0
  196.3620  175.6180  136.1670 C   0  0  0  0  0  2  0  0  0  0  0  0
  197.6460  174.8140  136.3280 C   0  0  0  0  0  2  0  0  0  0  0  0
  196.4960  174.0560  138.3810 C   0  0  0  0  0  2  0  0  0  0  0  0
  198.4160  175.3810  138.5240 O   0  0  0  0  0  0  0  0  0  0  0  0
  196.4990  174.6960  139.6760 N   0  0  0  0  0  2  0  0  0  0  0  0
  197.8350  174.3600  137.7670 C   0  0  2  0  0  3  0  0  0  0  0  0
  197.8340  175.2610  139.7960 C   0  0  0  0  0  2  0  0  0  0  0  0
  189.3000  176.9990  138.9990 N   0  0  0  0  0  0  0  0  0  0  0  0
  189.5070  178.3300  138.4330 C   0  0  0  0  0  1  0  0  0  0  0  0
  188.8140  177.1560  140.3620 C   0  0  0  0  0  2  0  0  0  0  0  0
  187.7540  178.2400  140.4050 C   0  0  0  0  0  2  0  0  0  0  0  0
  187.5120  178.6340  141.7820 N   0  0  0  0  0  2  0  0  0  0  0  0
  188.1680  177.6940  142.5910 N   0  0  0  0  0  2  0  0  0  0  0  0
  187.5840  177.2790  146.7080 C   0  0  0  0  0  2  0  0  0  0  0  0
  188.8680  177.9300  146.2010 C   0  0  0  0  0  2  0  0  0  0  0  0
  186.3960  177.6230  145.8120 C   0  0  1  0  0  3  0  0  0  0  0  0
  190.3630  178.2950  144.2780 C   0  0  0  0  0  1  0  0  0  0  0  0
  185.9620  179.0670  145.9980 C   0  0  0  0  0  1  0  0  0  0  0  0
  187.9390  178.0670  143.9260 N   0  0  0  0  0  0  0  0  0  0  0  0
  186.7390  177.3380  144.3490 C   0  0  0  0  0  2  0  0  0  0  0  0
  189.0860  177.6030  144.7240 C   0  0  2  0  0  3  0  0  0  0  0  0
  188.2680  176.6120  135.4720 C   0  0  0  0  0  1  0  0  0  0  0  0
  187.7650  175.2490  135.9100 C   0  0  2  0  0  3  0  0  0  0  0  0
  186.5850  176.7520  137.3400 O   0  0  0  0  0  1  0  0  0  0  0  0
  186.7500  175.4020  137.0280 C   0  0  0  0  0  2  0  0  0  0  0  0
  1  2  2  0  0  0  0
  3  7  1  0  0  0  0
  4  8  2  0  0  0  0
  5  9  1  1  0  0  0
  5  3  1  0  0  0  0
  5  6  1  0  0  0  0
  6  1  1  0  0  0  0
  7 22  1  6  0  0  0
  7  2  1  0  0  0  0
  8  3  2  0  0  0  0
  9 10  2  0  0  0  0
 11  9  1  0  0  0  0
 12 11  1  0  0  0  0
 13 12  1  0  0  0  0
 13 14  1  0  0  0  0
 14 15  1  0  0  0  0
 15 16  1  0  0  0  0
 17 19  1  0  0  0  0
 18 21  1  0  0  0  0
 19 21  1  0  0  0  0
 20 16  1  6  0  0  0
 20 17  1  0  0  0  0
 20 18  1  0  0  0  0
 22 24  1  0  0  0  0
 23 22  1  0  0  0  0
 24 25  1  0  0  0  0
 25 26  1  0  0  0  0
 26 27  1  0  0  0  0
 27 33  1  0  0  0  0
 29 28  1  0  0  0  0
 30 32  1  6  0  0  0
 30 28  1  0  0  0  0
 33 34  1  0  0  0  0
 33 35  1  0  0  0  0
 34 30  1  0  0  0  0
 35 31  1  6  0  0  0
 35 29  1  0  0  0  0
 37 36  1  1  0  0  0
 37  4  1  0  0  0  0
 37 39  1  0  0  0  0
 39 38  1  0  0  0  0
M  END
>  <MODEL>
8

>  <REMARK>
 VINA RESULT:      -6.0      3.334      7.716
  Name = 
  15 active torsions:
  status: ('A' for Active; 'I' for Inactive)
    1  A    between atoms: C_2  and  C_22
    2  A    between atoms: C_2  and  C_27
    3  A    between atoms: C_7  and  C_25
    4  A    between atoms: C_12  and  N_16
    5  A    between atoms: C_12  and  C_28
    6  A    between atoms: C_13  and  C_21
    7  A    between atoms: N_16  and  C_38
    8  A    between atoms: N_19  and  N_30
    9  A    between atoms: N_19  and  N_35
   10  A    between atoms: N_20  and  C_31
   11  A    between atoms: C_21  and  C_22
   12  A    between atoms: C_24  and  C_26
   13  A    between atoms: C_26  and  C_36
   14  A    between atoms: C_27  and  C_31
   15  A    between atoms: C_28  and  N_35
                            x       y       z     vdW  Elec       q    Type
                         _______ _______ _______ _____ _____    ______ ____

>  <TORSDO>
F 15

$$$$
=
 OpenBabel10232412463D

 39 41  0  0  1  0  0  0  0  0999 V2000
  193.0420  177.0000  139.7790 C   0  0  0  0  0  3  0  0  0  0  0  0
  192.9390  176.5520  138.5740 N   0  0  0  0  0  0  0  0  0  0  0  0
  190.4620  176.7070  138.6400 C   0  0  0  0  0  0  0  0  0  0  0  0
  188.1240  176.4020  137.5140 C   0  0  0  0  0  3  0  0  0  0  0  0
  190.5950  176.8820  140.1390 C   0  0  1  0  0  3  0  0  0  0  0  0
  191.8770  177.6460  140.4670 C   0  0  0  0  0  2  0  0  0  0  0  0
  191.7140  176.6360  137.7830 C   0  0  2  0  0  3  0  0  0  0  0  0
  189.2880  176.5590  138.0780 C   0  0  0  0  0  0  0  0  0  0  0  0
  189.4030  177.5530  140.7740 C   0  0  0  0  0  0  0  0  0  0  0  0
  188.7890  178.4650  140.1570 O   0  0  0  0  0  0  0  0  0  0  0  0
  188.9150  177.1220  142.0460 N   0  0  0  0  0  2  0  0  0  0  0  0
  189.5240  176.0270  142.7850 C   0  0  0  0  0  2  0  0  0  0  0  0
  190.1830  176.5570  144.0440 C   0  0  0  0  0  2  0  0  0  0  0  0
  189.4960  177.8340  144.4980 C   0  0  0  0  0  2  0  0  0  0  0  0
  188.8360  177.6270  145.8540 C   0  0  0  0  0  2  0  0  0  0  0  0
  187.3780  177.2110  145.7080 C   0  0  0  0  0  2  0  0  0  0  0  0
  185.5280  178.6300  146.5310 C   0  0  0  0  0  2  0  0  0  0  0  0
  185.7340  178.1640  144.2500 O   0  0  0  0  0  0  0  0  0  0  0  0
  184.2350  178.8290  145.9180 N   0  0  0  0  0  2  0  0  0  0  0  0
  186.4920  178.4080  145.3990 C   0  0  2  0  0  3  0  0  0  0  0  0
  184.5050  178.8000  144.4890 C   0  0  0  0  0  2  0  0  0  0  0  0
  191.6320  175.5440  136.7980 N   0  0  0  0  0  0  0  0  0  0  0  0
  192.1390  174.2950  137.3630 C   0  0  0  0  0  1  0  0  0  0  0  0
  192.4560  175.8900  135.6490 C   0  0  0  0  0  2  0  0  0  0  0  0
  193.6270  174.9320  135.5520 C   0  0  0  0  0  2  0  0  0  0  0  0
  194.8700  175.6820  135.5070 N   0  0  0  0  0  2  0  0  0  0  0  0
  195.5340  175.4370  136.7180 N   0  0  0  0  0  2  0  0  0  0  0  0
  199.4890  174.2840  136.0190 C   0  0  0  0  0  2  0  0  0  0  0  0
  198.7910  173.8110  137.2910 C   0  0  0  0  0  2  0  0  0  0  0  0
  198.5130  174.3680  134.8480 C   0  0  1  0  0  3  0  0  0  0  0  0
  196.8950  174.1280  138.8310 C   0  0  0  0  0  1  0  0  0  0  0  0
  198.1280  172.9860  134.3480 C   0  0  0  0  0  1  0  0  0  0  0  0
  196.6220  174.5960  136.4310 N   0  0  0  0  0  0  0  0  0  0  0  0
  197.2740  175.1690  135.2490 C   0  0  0  0  0  2  0  0  0  0  0  0
  197.5530  174.6630  137.5690 C   0  0  2  0  0  3  0  0  0  0  0  0
  188.2740  175.1300  135.4230 C   0  0  0  0  0  1  0  0  0  0  0  0
  187.7880  175.1090  136.8610 C   0  0  2  0  0  3  0  0  0  0  0  0
  185.9040  173.9960  135.9060 O   0  0  0  0  0  1  0  0  0  0  0  0
  186.2850  174.8990  136.8990 C   0  0  0  0  0  2  0  0  0  0  0  0
  1  6  1  0  0  0  0
  2  1  2  0  0  0  0
  3  5  1  0  0  0  0
  4  8  2  0  0  0  0
  5  6  1  0  0  0  0
  5  9  1  6  0  0  0
  7 22  1  6  0  0  0
  7  2  1  0  0  0  0
  7  3  1  0  0  0  0
  8  3  2  0  0  0  0
  9 11  1  0  0  0  0
 10  9  2  0  0  0  0
 11 12  1  0  0  0  0
 12 13  1  0  0  0  0
 13 14  1  0  0  0  0
 14 15  1  0  0  0  0
 16 15  1  0  0  0  0
 18 21  1  0  0  0  0
 18 20  1  0  0  0  0
 19 17  1  0  0  0  0
 20 16  1  1  0  0  0
 20 17  1  0  0  0  0
 21 19  1  0  0  0  0
 22 23  1  0  0  0  0
 24 22  1  0  0  0  0
 25 24  1  0  0  0  0
 26 25  1  0  0  0  0
 26 27  1  0  0  0  0
 28 29  1  0  0  0  0
 29 35  1  0  0  0  0
 30 32  1  1  0  0  0
 30 34  1  0  0  0  0
 30 28  1  0  0  0  0
 33 27  1  0  0  0  0
 33 35  1  0  0  0  0
 34 33  1  0  0  0  0
 35 31  1  1  0  0  0
 37 36  1  6  0  0  0
 37 39  1  0  0  0  0
 37  4  1  0  0  0  0
 38 39  1  0  0  0  0
M  END
>  <MODEL>
9

>  <REMARK>
 VINA RESULT:      -6.0      4.221      9.590
  Name = 
  15 active torsions:
  status: ('A' for Active; 'I' for Inactive)
    1  A    between atoms: C_2  and  C_22
    2  A    between atoms: C_2  and  C_27
    3  A    between atoms: C_7  and  C_25
    4  A    between atoms: C_12  and  N_16
    5  A    between atoms: C_12  and  C_28
    6  A    between atoms: C_13  and  C_21
    7  A    between atoms: N_16  and  C_38
    8  A    between atoms: N_19  and  N_30
    9  A    between atoms: N_19  and  N_35
   10  A    between atoms: N_20  and  C_31
   11  A    between atoms: C_21  and  C_22
   12  A    between atoms: C_24  and  C_26
   13  A    between atoms: C_26  and  C_36
   14  A    between atoms: C_27  and  C_31
   15  A    between atoms: C_28  and  N_35
                            x       y       z     vdW  Elec       q    Type
                         _______ _______ _______ _____ _____    ______ ____

>  <TORSDO>
F 15

$$$$
