=
 OpenBabel10232410263D

 70 74  0  0  1  0  0  0  0  0999 V2000
  192.4760  174.3590  137.5750 C   0  0  0  0  0  2  0  0  0  0  0  0
  194.8790  173.5390  137.5430 C   0  0  2  0  0  3  0  0  0  0  0  0
  195.5930  172.4860  136.9440 O   0  0  0  0  0  0  0  0  0  0  0  0
  193.6420  173.8470  136.7240 C   0  0  1  0  0  3  0  0  0  0  0  0
  194.7130  171.8520  136.0430 C   0  0  0  0  0  2  0  0  0  0  0  0
  193.3550  172.5160  136.1170 C   0  0  2  0  0  3  0  0  0  0  0  0
  195.7070  174.6970  137.6840 O   0  0  0  0  0  0  0  0  0  0  0  0
  196.4320  175.1610  140.2660 S   0  0  0  0  0  0  0  0  0  0  0  0
  198.0880  174.7130  138.4270 C   0  0  0  0  0  3  0  0  0  0  0  0
  198.0540  175.1690  140.7150 C   0  0  0  0  0  0  0  0  0  0  0  0
  198.8390  174.9060  139.5950 C   0  0  0  0  0  3  0  0  0  0  0  0
  196.7180  174.8270  138.6440 C   0  0  0  0  0  0  0  0  0  0  0  0
  199.7830  174.8210  142.4920 N   0  0  0  0  0  1  0  0  0  0  0  0
  198.5650  175.4130  142.0700 C   0  0  0  0  0  0  0  0  0  0  0  0
  197.9190  176.1360  142.8690 O   0  0  0  0  0  0  0  0  0  0  0  0
  192.6830  172.5990  134.7480 C   0  0  0  0  0  2  0  0  0  0  0  0
  191.5950  173.4830  134.7560 O   0  0  0  0  0  0  0  0  0  0  0  0
  190.4820  172.6680  134.9950 C   0  0  2  0  0  3  0  0  0  0  0  0
  189.2690  174.6880  134.4450 O   0  0  0  0  0  1  0  0  0  0  0  0
  188.4300  170.6240  134.3460 O   0  0  0  0  0  0  0  0  0  0  0  0
  190.7350  171.2990  134.3620 C   0  0  0  0  0  2  0  0  0  0  0  0
  187.8480  171.3450  135.3960 C   0  0  1  0  0  3  0  0  0  0  0  0
  189.2040  173.2930  134.4030 C   0  0  2  0  0  3  0  0  0  0  0  0
  187.9290  172.8520  135.1300 C   0  0  0  0  0  2  0  0  0  0  0  0
  189.7010  170.2720  134.8140 C   0  0  0  0  0  2  0  0  0  0  0  0
  186.3950  170.9030  135.5540 C   0  0  0  0  0  2  0  0  0  0  0  0
  185.5060  172.0450  136.0330 C   0  0  0  0  0  2  0  0  0  0  0  0
  183.0170  172.7440  136.3060 C   0  0  1  0  0  3  0  0  0  0  0  0
  184.0250  171.6890  135.9590 C   0  0  2  0  0  0  0  0  0  0  0  0
  183.6310  170.2220  135.8400 C   0  0  0  0  0  1  0  0  0  0  0  0
  183.3810  172.4500  134.9620 O   0  0  0  0  0  0  0  0  0  0  0  0
  181.6250  172.1810  136.6530 C   0  0  0  0  0  2  0  0  0  0  0  0
  180.6870  173.1920  137.2410 C   0  0  0  0  0  0  0  0  0  0  0  0
  180.4850  174.4550  136.5980 N   0  0  0  0  0  1  0  0  0  0  0  0
  180.0350  172.8990  138.2810 O   0  0  0  0  0  0  0  0  0  0  0  0
  192.1920  175.8440  137.3920 C   0  0  0  0  0  2  0  0  0  0  0  0
  190.6970  176.0880  137.2690 C   0  0  0  0  0  2  0  0  0  0  0  0
  190.4870  177.2470  136.5240 O   0  0  0  0  0  0  0  0  0  0  0  0
  188.9840  177.1650  138.3730 C   0  0  0  0  0  2  0  0  0  0  0  0
  189.2790  177.7700  136.9940 C   0  0  2  0  0  3  0  0  0  0  0  0
  187.9450  177.8870  139.1940 C   0  0  0  0  0  0  0  0  0  0  0  0
  186.8300  177.0010  136.4960 C   0  0  0  0  0  2  0  0  0  0  0  0
  186.7250  178.2240  138.7310 C   0  0  0  0  0  3  0  0  0  0  0  0
  186.1950  178.1160  137.3220 C   0  0  0  0  0  2  0  0  0  0  0  0
  188.3520  177.6450  134.8250 O   0  0  0  0  0  0  0  0  0  0  0  0
  188.1720  177.4640  136.0210 C   0  0  0  0  0  0  0  0  0  0  0  0
  189.1930  178.9410  140.9200 O   0  0  0  0  0  0  0  0  0  0  0  0
  188.2660  178.1330  140.6220 C   0  0  0  0  0  0  0  0  0  0  0  0
  187.5780  177.5090  141.6650 O   0  0  0  0  0  0  0  0  0  0  0  0
  186.9400  178.2420  142.6970 C   0  0  0  0  0  2  0  0  0  0  0  0
  185.6450  177.5480  143.1120 C   0  0  0  0  0  2  0  0  0  0  0  0
  185.0550  178.2040  144.2920 N   0  0  0  0  0  0  0  0  0  0  0  0
  185.8100  177.8770  145.5190 C   0  0  2  0  0  3  0  0  0  0  0  0
  184.2580  178.0590  147.4750 O   0  0  0  0  0  1  0  0  0  0  0  0
  185.8550  179.6650  147.1550 O   0  0  0  0  0  0  0  0  0  0  0  0
  185.3150  178.5960  146.7590 C   0  0  0  0  0  0  0  0  0  0  0  0
  187.3060  178.1280  145.3310 C   0  0  0  0  0  2  0  0  0  0  0  0
  188.0960  176.8820  145.6850 C   0  0  0  0  0  2  0  0  0  0  0  0
  189.1510  175.6430  147.8130 O   0  0  0  0  0  0  0  0  0  0  0  0
  187.9250  177.7200  148.2200 O   0  0  0  0  0  0  0  0  0  0  0  0
  188.8780  177.0250  147.2860 S   0  0  0  0  0  0  0  0  0  0  0  0
  190.3960  177.9770  147.2470 C   0  0  0  0  0  2  0  0  0  0  0  0
  191.1160  177.7940  145.9220 C   0  0  0  0  0  2  0  0  0  0  0  0
  191.3580  175.6820  144.7000 C   0  0  0  0  0  2  0  0  0  0  0  0
  191.6490  176.4040  145.7830 C   0  0  0  0  0  0  0  0  0  0  0  0
  192.3700  175.7650  146.9180 C   0  0  0  0  0  1  0  0  0  0  0  0
  185.0370  179.6540  144.0940 C   0  0  0  0  0  2  0  0  0  0  0  0
  183.6050  180.1710  144.0150 C   0  0  0  0  0  2  0  0  0  0  0  0
  182.6220  179.0590  144.2530 C   0  0  0  0  0  3  0  0  0  0  0  0
  181.9740  178.4740  143.2360 C   0  0  0  0  0  2  0  0  0  0  0  0
  2  7  1  6  0  0  0
  3  2  1  0  0  0  0
  4  2  1  0  0  0  0
  4  1  1  1  0  0  0
  5  6  1  0  0  0  0
  5  3  1  0  0  0  0
  6 16  1  6  0  0  0
  6  4  1  0  0  0  0
  7 12  1  0  0  0  0
  8 10  1  0  0  0  0
  9 12  2  0  0  0  0
  9 11  1  0  0  0  0
 10 14  1  0  0  0  0
 11 10  2  0  0  0  0
 12  8  1  0  0  0  0
 14 13  1  0  0  0  0
 14 15  2  0  0  0  0
 16 17  1  0  0  0  0
 18 17  1  6  0  0  0
 20 25  1  0  0  0  0
 20 22  1  0  0  0  0
 21 25  1  0  0  0  0
 21 18  1  0  0  0  0
 22 26  1  6  0  0  0
 23 19  1  1  0  0  0
 23 18  1  0  0  0  0
 23 24  1  0  0  0  0
 24 22  1  0  0  0  0
 26 27  1  0  0  0  0
 28 32  1  6  0  0  0
 29 30  1  1  0  0  0
 29 27  1  0  0  0  0
 29 28  1  0  0  0  0
 31 29  1  0  0  0  0
 31 28  1  0  0  0  0
 32 33  1  0  0  0  0
 33 35  2  0  0  0  0
 34 33  1  0  0  0  0
 36  1  1  0  0  0  0
 37 36  1  0  0  0  0
 38 37  1  0  0  0  0
 39 41  1  0  0  0  0
 40 38  1  6  0  0  0
 40 39  1  0  0  0  0
 41 48  1  0  0  0  0
 42 44  1  0  0  0  0
 43 41  2  0  0  0  0
 44 43  1  0  0  0  0
 45 46  2  0  0  0  0
 46 42  1  0  0  0  0
 46 40  1  0  0  0  0
 48 47  2  0  0  0  0
 48 49  1  0  0  0  0
 49 50  1  0  0  0  0
 50 51  1  0  0  0  0
 51 52  1  0  0  0  0
 52 53  1  0  0  0  0
 53 57  1  6  0  0  0
 53 56  1  0  0  0  0
 56 55  2  0  0  0  0
 56 54  1  0  0  0  0
 57 58  1  0  0  0  0
 58 61  1  0  0  0  0
 61 59  2  0  0  0  0
 61 60  2  0  0  0  0
 62 61  1  0  0  0  0
 63 62  1  0  0  0  0
 64 65  2  0  0  0  0
 65 63  1  0  0  0  0
 65 66  1  0  0  0  0
 67 52  1  0  0  0  0
 68 67  1  0  0  0  0
 68 69  1  0  0  0  0
 70 69  2  0  0  0  0
M  END
>  <MODEL>
1

>  <REMARK>
 VINA RESULT:      -4.9      0.000      0.000
  Name = 
  32 active torsions:
  status: ('A' for Active; 'I' for Inactive)
    1  A    between atoms: C_1  and  O_49
    2  A    between atoms: C_3  and  C_51
    3  A    between atoms: C_4  and  N_22
    4  A    between atoms: C_4  and  C_41
    5  A    between atoms: C_7  and  C_51
    6  A    between atoms: C_7  and  S_58
    7  A    between atoms: C_8  and  O_34
    8  A    between atoms: O_9  and  C_63
    9  A    between atoms: O_9  and  C_70
   10  A    between atoms: C_10  and  C_47
   11  A    between atoms: C_11  and  C_26
   12  A    between atoms: C_11  and  C_42
   13  A    between atoms: C_15  and  C_41
   14  A    between atoms: O_19  and  C_24
   15  A    between atoms: O_19  and  C_60
   16  A    between atoms: N_22  and  C_46
   17  A    between atoms: N_22  and  C_69
   18  A    between atoms: C_23  and  C_37
   19  A    between atoms: C_23  and  S_58
   20  A    between atoms: C_26  and  C_60
   21  A    between atoms: C_27  and  C_69
   22  A    between atoms: C_28  and  C_40
   23  A    between atoms: C_29  and  C_47
   24  A    between atoms: C_30  and  O_49
   25  A    between atoms: C_30  and  C_65
   26  A    between atoms: C_31  and  C_63
   27  A    between atoms: C_33  and  C_61
   28  A    between atoms: O_34  and  C_68
   29  A    between atoms: C_37  and  C_69
   30  A    between atoms: C_40  and  C_55
   31  A    between atoms: C_46  and  C_70
   32  A    between atoms: C_50  and  C_55
                            x       y       z     vdW  Elec       q    Type
                         _______ _______ _______ _____ _____    ______ ____

>  <TORSDO>
F 32

$$$$
=
 OpenBabel10232410263D

 70 74  0  0  1  0  0  0  0  0999 V2000
  186.4160  177.3590  137.6650 C   0  0  0  0  0  2  0  0  0  0  0  0
  185.6390  175.5250  136.0900 C   0  0  2  0  0  3  0  0  0  0  0  0
  185.9410  175.1030  134.7820 O   0  0  0  0  0  0  0  0  0  0  0  0
  186.8240  176.2660  136.6730 C   0  0  1  0  0  3  0  0  0  0  0  0
  187.0590  175.8480  134.3570 C   0  0  0  0  0  2  0  0  0  0  0  0
  187.4520  176.8280  135.4420 C   0  0  2  0  0  3  0  0  0  0  0  0
  185.2710  174.4120  136.9080 O   0  0  0  0  0  0  0  0  0  0  0  0
  183.8770  172.0770  136.7980 S   0  0  0  0  0  0  0  0  0  0  0  0
  186.0790  172.4240  135.6350 C   0  0  0  0  0  3  0  0  0  0  0  0
  184.4690  170.7610  135.9310 C   0  0  0  0  0  0  0  0  0  0  0  0
  185.6850  171.1100  135.3490 C   0  0  0  0  0  3  0  0  0  0  0  0
  185.1640  173.0950  136.4420 C   0  0  0  0  0  0  0  0  0  0  0  0
  182.7130  169.2890  134.9250 N   0  0  0  0  0  1  0  0  0  0  0  0
  183.8130  169.4540  135.8050 C   0  0  0  0  0  0  0  0  0  0  0  0
  184.2120  168.4770  136.4870 O   0  0  0  0  0  0  0  0  0  0  0  0
  188.9670  176.9910  135.5470 C   0  0  0  0  0  2  0  0  0  0  0  0
  189.4520  176.5580  136.7890 O   0  0  0  0  0  0  0  0  0  0  0  0
  190.7870  176.2170  136.5440 C   0  0  2  0  0  3  0  0  0  0  0  0
  190.4380  174.7510  138.4370 O   0  0  0  0  0  1  0  0  0  0  0  0
  193.0210  174.8090  135.1870 O   0  0  0  0  0  0  0  0  0  0  0  0
  190.9870  176.0780  135.0340 C   0  0  0  0  0  2  0  0  0  0  0  0
  193.5740  175.1850  136.4170 C   0  0  1  0  0  3  0  0  0  0  0  0
  191.1560  174.8970  137.2470 C   0  0  2  0  0  3  0  0  0  0  0  0
  192.6500  174.7870  137.5730 C   0  0  0  0  0  2  0  0  0  0  0  0
  192.4660  175.9850  134.6700 C   0  0  0  0  0  2  0  0  0  0  0  0
  194.9410  174.5210  136.5680 C   0  0  0  0  0  2  0  0  0  0  0  0
  194.9340  173.4530  137.6560 C   0  0  0  0  0  2  0  0  0  0  0  0
  196.8320  171.6850  137.4780 C   0  0  1  0  0  3  0  0  0  0  0  0
  195.4320  172.1070  137.1420 C   0  0  2  0  0  0  0  0  0  0  0  0
  194.6230  171.3890  136.0700 C   0  0  0  0  0  1  0  0  0  0  0  0
  195.7020  171.2340  138.2170 O   0  0  0  0  0  0  0  0  0  0  0  0
  197.3850  170.5820  136.5560 C   0  0  0  0  0  2  0  0  0  0  0  0
  198.4980  169.7810  137.1640 C   0  0  0  0  0  0  0  0  0  0  0  0
  199.8190  169.8420  136.6160 N   0  0  0  0  0  1  0  0  0  0  0  0
  198.2710  169.0930  138.1960 O   0  0  0  0  0  0  0  0  0  0  0  0
  185.0880  177.0860  138.3600 C   0  0  0  0  0  2  0  0  0  0  0  0
  183.9420  177.7030  137.5740 C   0  0  0  0  0  2  0  0  0  0  0  0
  183.8960  179.0700  137.8370 O   0  0  0  0  0  0  0  0  0  0  0  0
  184.1540  178.4100  140.1140 C   0  0  0  0  0  2  0  0  0  0  0  0
  183.3010  179.1810  139.0980 C   0  0  2  0  0  3  0  0  0  0  0  0
  183.8920  178.7330  141.5640 C   0  0  0  0  0  0  0  0  0  0  0  0
  181.3650  177.7740  140.1500 C   0  0  0  0  0  2  0  0  0  0  0  0
  182.6650  178.7350  142.1210 C   0  0  0  0  0  3  0  0  0  0  0  0
  181.3260  178.5870  141.4400 C   0  0  0  0  0  2  0  0  0  0  0  0
  181.1560  178.9620  138.1310 O   0  0  0  0  0  0  0  0  0  0  0  0
  181.8970  178.6430  139.0530 C   0  0  0  0  0  0  0  0  0  0  0  0
  185.6520  180.0770  142.4280 O   0  0  0  0  0  0  0  0  0  0  0  0
  185.0770  178.9500  142.4310 C   0  0  0  0  0  0  0  0  0  0  0  0
  185.5900  177.9530  143.2640 O   0  0  0  0  0  0  0  0  0  0  0  0
  186.5460  178.2280  144.2740 C   0  0  0  0  0  2  0  0  0  0  0  0
  186.9350  176.9400  144.9950 C   0  0  0  0  0  2  0  0  0  0  0  0
  187.0470  177.1650  146.4470 N   0  0  0  0  0  0  0  0  0  0  0  0
  188.4600  177.1660  146.8810 C   0  0  2  0  0  3  0  0  0  0  0  0
  190.0310  178.1860  148.5420 O   0  0  0  0  0  0  0  0  0  0  0  0
  187.7810  178.5320  148.7640 O   0  0  0  0  0  1  0  0  0  0  0  0
  188.7250  177.9990  148.1200 C   0  0  0  0  0  0  0  0  0  0  0  0
  189.3860  177.6030  145.7470 C   0  0  0  0  0  2  0  0  0  0  0  0
  190.6300  176.7330  145.7200 C   0  0  0  0  0  2  0  0  0  0  0  0
  192.1440  175.2540  144.0800 O   0  0  0  0  0  0  0  0  0  0  0  0
  191.8720  177.6190  143.5230 O   0  0  0  0  0  0  0  0  0  0  0  0
  191.1690  176.3980  144.0490 S   0  0  0  0  0  0  0  0  0  0  0  0
  189.8170  176.0220  142.9340 C   0  0  0  0  0  2  0  0  0  0  0  0
  189.1430  177.2950  142.4510 C   0  0  0  0  0  2  0  0  0  0  0  0
  190.4380  176.9820  140.3930 C   0  0  0  0  0  2  0  0  0  0  0  0
  189.3640  177.5030  140.9880 C   0  0  0  0  0  0  0  0  0  0  0  0
  188.4750  178.4210  140.2230 C   0  0  0  0  0  1  0  0  0  0  0  0
  186.4220  178.4410  146.7980 C   0  0  0  0  0  2  0  0  0  0  0  0
  184.9210  178.2700  147.0000 C   0  0  0  0  0  2  0  0  0  0  0  0
  184.1510  179.1280  146.0350 C   0  0  0  0  0  3  0  0  0  0  0  0
  183.1940  178.6090  145.2540 C   0  0  0  0  0  2  0  0  0  0  0  0
  1 36  1  0  0  0  0
  2  4  1  0  0  0  0
  2  7  1  1  0  0  0
  3  2  1  0  0  0  0
  4  1  1  1  0  0  0
  5  3  1  0  0  0  0
  5  6  1  0  0  0  0
  6 16  1  1  0  0  0
  6  4  1  0  0  0  0
  9 12  2  0  0  0  0
 10  8  1  0  0  0  0
 11  9  1  0  0  0  0
 11 10  2  0  0  0  0
 12  8  1  0  0  0  0
 12  7  1  0  0  0  0
 13 14  1  0  0  0  0
 14 10  1  0  0  0  0
 14 15  2  0  0  0  0
 16 17  1  0  0  0  0
 18 17  1  6  0  0  0
 18 23  1  0  0  0  0
 20 22  1  0  0  0  0
 21 18  1  0  0  0  0
 22 26  1  1  0  0  0
 22 24  1  0  0  0  0
 23 24  1  0  0  0  0
 23 19  1  1  0  0  0
 25 21  1  0  0  0  0
 25 20  1  0  0  0  0
 26 27  1  0  0  0  0
 28 32  1  6  0  0  0
 28 31  1  0  0  0  0
 29 30  1  6  0  0  0
 29 28  1  0  0  0  0
 29 27  1  0  0  0  0
 29 31  1  0  0  0  0
 32 33  1  0  0  0  0
 33 35  2  0  0  0  0
 34 33  1  0  0  0  0
 37 38  1  0  0  0  0
 37 36  1  0  0  0  0
 39 41  1  0  0  0  0
 40 38  1  6  0  0  0
 40 39  1  0  0  0  0
 41 43  2  0  0  0  0
 41 48  1  0  0  0  0
 42 44  1  0  0  0  0
 44 43  1  0  0  0  0
 45 46  2  0  0  0  0
 46 40  1  0  0  0  0
 46 42  1  0  0  0  0
 47 48  2  0  0  0  0
 48 49  1  0  0  0  0
 49 50  1  0  0  0  0
 50 51  1  0  0  0  0
 51 52  1  0  0  0  0
 52 67  1  0  0  0  0
 52 53  1  0  0  0  0
 53 57  1  6  0  0  0
 53 56  1  0  0  0  0
 56 54  2  0  0  0  0
 56 55  1  0  0  0  0
 58 57  1  0  0  0  0
 60 61  2  0  0  0  0
 61 59  2  0  0  0  0
 61 58  1  0  0  0  0
 62 61  1  0  0  0  0
 63 62  1  0  0  0  0
 64 65  2  0  0  0  0
 65 63  1  0  0  0  0
 66 65  1  0  0  0  0
 67 68  1  0  0  0  0
 69 68  1  0  0  0  0
 70 69  2  0  0  0  0
M  END
>  <MODEL>
2

>  <REMARK>
 VINA RESULT:      -4.6      3.099      9.001
  Name = 
  32 active torsions:
  status: ('A' for Active; 'I' for Inactive)
    1  A    between atoms: C_1  and  O_49
    2  A    between atoms: C_3  and  C_51
    3  A    between atoms: C_4  and  N_22
    4  A    between atoms: C_4  and  C_41
    5  A    between atoms: C_7  and  C_51
    6  A    between atoms: C_7  and  S_58
    7  A    between atoms: C_8  and  O_34
    8  A    between atoms: O_9  and  C_63
    9  A    between atoms: O_9  and  C_70
   10  A    between atoms: C_10  and  C_47
   11  A    between atoms: C_11  and  C_26
   12  A    between atoms: C_11  and  C_42
   13  A    between atoms: C_15  and  C_41
   14  A    between atoms: O_19  and  C_24
   15  A    between atoms: O_19  and  C_60
   16  A    between atoms: N_22  and  C_46
   17  A    between atoms: N_22  and  C_69
   18  A    between atoms: C_23  and  C_37
   19  A    between atoms: C_23  and  S_58
   20  A    between atoms: C_26  and  C_60
   21  A    between atoms: C_27  and  C_69
   22  A    between atoms: C_28  and  C_40
   23  A    between atoms: C_29  and  C_47
   24  A    between atoms: C_30  and  O_49
   25  A    between atoms: C_30  and  C_65
   26  A    between atoms: C_31  and  C_63
   27  A    between atoms: C_33  and  C_61
   28  A    between atoms: O_34  and  C_68
   29  A    between atoms: C_37  and  C_69
   30  A    between atoms: C_40  and  C_55
   31  A    between atoms: C_46  and  C_70
   32  A    between atoms: C_50  and  C_55
                            x       y       z     vdW  Elec       q    Type
                         _______ _______ _______ _____ _____    ______ ____

>  <TORSDO>
F 32

$$$$
=
 OpenBabel10232410263D

 70 74  0  0  1  0  0  0  0  0999 V2000
  190.8920  175.0710  135.5650 C   0  0  0  0  0  2  0  0  0  0  0  0
  193.3840  174.7990  135.1590 C   0  0  2  0  0  3  0  0  0  0  0  0
  194.5520  175.5360  135.4290 O   0  0  0  0  0  0  0  0  0  0  0  0
  192.3030  175.1740  136.1520 C   0  0  1  0  0  3  0  0  0  0  0  0
  194.1760  176.6150  136.2540 C   0  0  0  0  0  2  0  0  0  0  0  0
  192.6790  176.5810  136.4740 C   0  0  2  0  0  3  0  0  0  0  0  0
  193.6520  173.3950  135.1920 O   0  0  0  0  0  0  0  0  0  0  0  0
  195.7870  171.7470  134.8230 S   0  0  0  0  0  0  0  0  0  0  0  0
  195.4110  173.0650  136.9310 C   0  0  0  0  0  3  0  0  0  0  0  0
  196.9430  171.5530  136.0320 C   0  0  0  0  0  0  0  0  0  0  0  0
  196.5960  172.3430  137.1250 C   0  0  0  0  0  3  0  0  0  0  0  0
  194.8370  172.8330  135.6840 C   0  0  0  0  0  0  0  0  0  0  0  0
  199.3650  171.2170  135.4980 N   0  0  0  0  0  1  0  0  0  0  0  0
  198.1280  170.6910  135.9510 C   0  0  0  0  0  0  0  0  0  0  0  0
  198.0510  169.4770  136.2690 O   0  0  0  0  0  0  0  0  0  0  0  0
  192.2980  177.0070  137.8910 C   0  0  0  0  0  2  0  0  0  0  0  0
  190.9080  177.0280  138.0720 O   0  0  0  0  0  0  0  0  0  0  0  0
  190.7340  177.3920  139.4120 C   0  0  2  0  0  3  0  0  0  0  0  0
  188.3910  177.2510  138.8270 O   0  0  0  0  0  1  0  0  0  0  0  0
  190.5760  176.9490  142.3430 O   0  0  0  0  0  0  0  0  0  0  0  0
  191.7300  176.6050  140.2650 C   0  0  0  0  0  2  0  0  0  0  0  0
  189.8750  178.1460  142.1580 C   0  0  1  0  0  3  0  0  0  0  0  0
  189.2960  177.1000  139.8800 C   0  0  2  0  0  3  0  0  0  0  0  0
  188.8450  178.0040  141.0330 C   0  0  0  0  0  2  0  0  0  0  0  0
  191.7990  177.1450  141.6910 C   0  0  0  0  0  2  0  0  0  0  0  0
  189.1900  178.5260  143.4690 C   0  0  0  0  0  2  0  0  0  0  0  0
  190.0070  178.0920  144.6810 C   0  0  0  0  0  2  0  0  0  0  0  0
  187.6340  177.8260  145.7080 C   0  0  1  0  0  3  0  0  0  0  0  0
  189.1220  177.7150  145.8640 C   0  0  2  0  0  0  0  0  0  0  0  0
  189.7660  177.5410  147.2330 C   0  0  0  0  0  1  0  0  0  0  0  0
  188.3270  176.5920  145.5510 O   0  0  0  0  0  0  0  0  0  0  0  0
  186.8730  177.8830  147.0470 C   0  0  0  0  0  2  0  0  0  0  0  0
  185.8300  178.9590  147.1110 C   0  0  0  0  0  0  0  0  0  0  0  0
  184.4660  178.6670  146.7880 N   0  0  0  0  0  1  0  0  0  0  0  0
  186.1560  180.1120  147.5040 O   0  0  0  0  0  0  0  0  0  0  0  0
  189.8400  174.6430  136.5790 C   0  0  0  0  0  2  0  0  0  0  0  0
  188.8540  173.6750  135.9440 C   0  0  0  0  0  2  0  0  0  0  0  0
  189.3260  172.3750  136.1090 O   0  0  0  0  0  0  0  0  0  0  0  0
  187.1530  171.4110  136.2840 C   0  0  0  0  0  2  0  0  0  0  0  0
  188.4150  171.5650  135.4250 C   0  0  2  0  0  3  0  0  0  0  0  0
  185.9290  170.9050  135.5620 C   0  0  0  0  0  0  0  0  0  0  0  0
  188.2640  168.9570  135.3190 C   0  0  0  0  0  2  0  0  0  0  0  0
  185.9180  169.8030  134.7870 C   0  0  0  0  0  3  0  0  0  0  0  0
  187.0870  168.9540  134.3490 C   0  0  0  0  0  2  0  0  0  0  0  0
  190.1720  170.1720  134.6820 O   0  0  0  0  0  0  0  0  0  0  0  0
  189.0350  170.2260  135.1320 C   0  0  0  0  0  0  0  0  0  0  0  0
  183.6910  171.4850  135.0080 O   0  0  0  0  0  0  0  0  0  0  0  0
  184.6510  171.6160  135.8210 C   0  0  0  0  0  0  0  0  0  0  0  0
  184.4590  172.4290  136.9400 O   0  0  0  0  0  0  0  0  0  0  0  0
  183.2210  172.4880  137.6290 C   0  0  0  0  0  2  0  0  0  0  0  0
  182.4490  173.7400  137.2160 C   0  0  0  0  0  2  0  0  0  0  0  0
  183.1520  174.9570  137.6590 N   0  0  0  0  0  0  0  0  0  0  0  0
  183.3240  175.9100  136.5420 C   0  0  2  0  0  3  0  0  0  0  0  0
  184.8100  174.7700  134.8810 O   0  0  0  0  0  1  0  0  0  0  0  0
  182.6090  175.1200  134.3650 O   0  0  0  0  0  0  0  0  0  0  0  0
  183.5500  175.2490  135.1960 C   0  0  0  0  0  0  0  0  0  0  0  0
  184.4460  176.9060  136.8320 C   0  0  0  0  0  2  0  0  0  0  0  0
  184.6020  177.0990  138.3300 C   0  0  0  0  0  2  0  0  0  0  0  0
  183.4990  179.5380  138.2830 O   0  0  0  0  0  0  0  0  0  0  0  0
  185.9310  179.4050  138.0620 O   0  0  0  0  0  0  0  0  0  0  0  0
  184.7330  178.8280  138.7650 S   0  0  0  0  0  0  0  0  0  0  0  0
  184.9490  179.0980  140.5240 C   0  0  0  0  0  2  0  0  0  0  0  0
  184.1560  178.0830  141.3290 C   0  0  0  0  0  2  0  0  0  0  0  0
  185.0820  178.9300  143.4350 C   0  0  0  0  0  2  0  0  0  0  0  0
  184.0140  178.5140  142.7530 C   0  0  0  0  0  0  0  0  0  0  0  0
  182.7170  178.3300  143.4630 C   0  0  0  0  0  1  0  0  0  0  0  0
  182.4030  175.5940  138.7420 C   0  0  0  0  0  2  0  0  0  0  0  0
  181.0050  174.9960  138.8560 C   0  0  0  0  0  2  0  0  0  0  0  0
  179.9840  176.0710  139.1040 C   0  0  0  0  0  3  0  0  0  0  0  0
  180.0740  177.2670  138.5060 C   0  0  0  0  0  2  0  0  0  0  0  0
  1 36  1  0  0  0  0
  2  7  1  1  0  0  0
  2  3  1  0  0  0  0
  2  4  1  0  0  0  0
  3  5  1  0  0  0  0
  4  1  1  6  0  0  0
  4  6  1  0  0  0  0
  5  6  1  0  0  0  0
  6 16  1  1  0  0  0
  7 12  1  0  0  0  0
  8 12  1  0  0  0  0
  8 10  1  0  0  0  0
  9 11  1  0  0  0  0
 10 11  2  0  0  0  0
 12  9  2  0  0  0  0
 13 14  1  0  0  0  0
 14 10  1  0  0  0  0
 14 15  2  0  0  0  0
 16 17  1  0  0  0  0
 18 17  1  6  0  0  0
 18 23  1  0  0  0  0
 18 21  1  0  0  0  0
 21 25  1  0  0  0  0
 22 20  1  0  0  0  0
 22 26  1  1  0  0  0
 23 19  1  6  0  0  0
 23 24  1  0  0  0  0
 24 22  1  0  0  0  0
 25 20  1  0  0  0  0
 26 27  1  0  0  0  0
 27 29  1  0  0  0  0
 28 29  1  0  0  0  0
 28 32  1  1  0  0  0
 29 30  1  1  0  0  0
 31 28  1  0  0  0  0
 31 29  1  0  0  0  0
 32 33  1  0  0  0  0
 33 35  2  0  0  0  0
 34 33  1  0  0  0  0
 37 38  1  0  0  0  0
 37 36  1  0  0  0  0
 40 38  1  1  0  0  0
 40 39  1  0  0  0  0
 41 48  1  0  0  0  0
 41 39  1  0  0  0  0
 43 41  2  0  0  0  0
 44 43  1  0  0  0  0
 44 42  1  0  0  0  0
 45 46  2  0  0  0  0
 46 42  1  0  0  0  0
 46 40  1  0  0  0  0
 47 48  2  0  0  0  0
 48 49  1  0  0  0  0
 49 50  1  0  0  0  0
 51 50  1  0  0  0  0
 51 52  1  0  0  0  0
 52 67  1  0  0  0  0
 53 57  1  1  0  0  0
 53 52  1  0  0  0  0
 54 56  1  0  0  0  0
 55 56  2  0  0  0  0
 56 53  1  0  0  0  0
 57 58  1  0  0  0  0
 58 61  1  0  0  0  0
 59 61  2  0  0  0  0
 60 61  2  0  0  0  0
 61 62  1  0  0  0  0
 62 63  1  0  0  0  0
 63 65  1  0  0  0  0
 65 64  2  0  0  0  0
 65 66  1  0  0  0  0
 67 68  1  0  0  0  0
 68 69  1  0  0  0  0
 70 69  2  0  0  0  0
M  END
>  <MODEL>
3

>  <REMARK>
 VINA RESULT:      -4.5      2.957      8.653
  Name = 
  32 active torsions:
  status: ('A' for Active; 'I' for Inactive)
    1  A    between atoms: C_1  and  O_49
    2  A    between atoms: C_3  and  C_51
    3  A    between atoms: C_4  and  N_22
    4  A    between atoms: C_4  and  C_41
    5  A    between atoms: C_7  and  C_51
    6  A    between atoms: C_7  and  S_58
    7  A    between atoms: C_8  and  O_34
    8  A    between atoms: O_9  and  C_63
    9  A    between atoms: O_9  and  C_70
   10  A    between atoms: C_10  and  C_47
   11  A    between atoms: C_11  and  C_26
   12  A    between atoms: C_11  and  C_42
   13  A    between atoms: C_15  and  C_41
   14  A    between atoms: O_19  and  C_24
   15  A    between atoms: O_19  and  C_60
   16  A    between atoms: N_22  and  C_46
   17  A    between atoms: N_22  and  C_69
   18  A    between atoms: C_23  and  C_37
   19  A    between atoms: C_23  and  S_58
   20  A    between atoms: C_26  and  C_60
   21  A    between atoms: C_27  and  C_69
   22  A    between atoms: C_28  and  C_40
   23  A    between atoms: C_29  and  C_47
   24  A    between atoms: C_30  and  O_49
   25  A    between atoms: C_30  and  C_65
   26  A    between atoms: C_31  and  C_63
   27  A    between atoms: C_33  and  C_61
   28  A    between atoms: O_34  and  C_68
   29  A    between atoms: C_37  and  C_69
   30  A    between atoms: C_40  and  C_55
   31  A    between atoms: C_46  and  C_70
   32  A    between atoms: C_50  and  C_55
                            x       y       z     vdW  Elec       q    Type
                         _______ _______ _______ _____ _____    ______ ____

>  <TORSDO>
F 32

$$$$
=
 OpenBabel10232410263D

 70 74  0  0  1  0  0  0  0  0999 V2000
  190.6680  174.9880  136.8730 C   0  0  0  0  0  2  0  0  0  0  0  0
  192.0420  173.1030  135.8690 C   0  0  2  0  0  3  0  0  0  0  0  0
  191.7880  171.9240  135.1440 O   0  0  0  0  0  0  0  0  0  0  0  0
  190.9090  174.0860  135.6590 C   0  0  1  0  0  3  0  0  0  0  0  0
  190.4180  171.9320  134.8140 C   0  0  0  0  0  2  0  0  0  0  0  0
  189.7650  173.1630  135.4070 C   0  0  2  0  0  3  0  0  0  0  0  0
  193.2970  173.6720  135.4860 O   0  0  0  0  0  0  0  0  0  0  0  0
  195.9130  174.3120  135.8780 S   0  0  0  0  0  0  0  0  0  0  0  0
  194.7260  172.5100  137.1690 C   0  0  0  0  0  3  0  0  0  0  0  0
  196.8380  173.4910  137.0210 C   0  0  0  0  0  0  0  0  0  0  0  0
  196.0440  172.5340  137.6470 C   0  0  0  0  0  3  0  0  0  0  0  0
  194.5000  173.4520  136.1690 C   0  0  0  0  0  0  0  0  0  0  0  0
  199.2260  172.7420  137.0600 N   0  0  0  0  0  1  0  0  0  0  0  0
  198.2540  173.7420  137.3160 C   0  0  0  0  0  0  0  0  0  0  0  0
  198.6120  174.8410  137.8110 O   0  0  0  0  0  0  0  0  0  0  0  0
  188.6980  173.7470  134.4830 C   0  0  0  0  0  2  0  0  0  0  0  0
  187.6010  172.8860  134.3460 O   0  0  0  0  0  0  0  0  0  0  0  0
  186.4860  173.7330  134.3640 C   0  0  2  0  0  3  0  0  0  0  0  0
  185.5320  171.9430  135.6840 O   0  0  0  0  0  1  0  0  0  0  0  0
  184.8300  176.0160  135.2910 O   0  0  0  0  0  0  0  0  0  0  0  0
  186.9660  175.1670  134.5920 C   0  0  0  0  0  2  0  0  0  0  0  0
  183.9010  175.1710  134.6730 C   0  0  1  0  0  3  0  0  0  0  0  0
  185.5020  173.3250  135.4770 C   0  0  2  0  0  3  0  0  0  0  0  0
  184.0550  173.7330  135.1770 C   0  0  0  0  0  2  0  0  0  0  0  0
  185.8500  176.1780  134.3460 C   0  0  0  0  0  2  0  0  0  0  0  0
  182.4940  175.6930  134.9570 C   0  0  0  0  0  2  0  0  0  0  0  0
  181.9720  175.2090  136.3050 C   0  0  0  0  0  2  0  0  0  0  0  0
  181.6500  177.7130  136.9270 C   0  0  1  0  0  3  0  0  0  0  0  0
  181.9850  176.3140  137.3550 C   0  0  2  0  0  0  0  0  0  0  0  0
  182.6260  176.0300  138.7070 C   0  0  0  0  0  1  0  0  0  0  0  0
  180.6920  176.8490  137.5290 O   0  0  0  0  0  0  0  0  0  0  0  0
  182.1360  178.7950  137.9100 C   0  0  0  0  0  2  0  0  0  0  0  0
  181.5290  180.1470  137.6780 C   0  0  0  0  0  0  0  0  0  0  0  0
  180.7670  180.4060  136.4950 N   0  0  0  0  0  1  0  0  0  0  0  0
  181.6520  181.0380  138.5630 O   0  0  0  0  0  0  0  0  0  0  0  0
  189.8570  176.2360  136.5540 C   0  0  0  0  0  2  0  0  0  0  0  0
  190.2280  177.3670  137.4990 C   0  0  0  0  0  2  0  0  0  0  0  0
  189.4430  178.4800  137.2060 O   0  0  0  0  0  0  0  0  0  0  0  0
  189.3080  177.8800  139.5090 C   0  0  0  0  0  2  0  0  0  0  0  0
  188.7380  178.7510  138.3820 C   0  0  2  0  0  3  0  0  0  0  0  0
  188.9460  178.3060  140.9100 C   0  0  0  0  0  0  0  0  0  0  0  0
  186.4630  177.7710  139.2200 C   0  0  0  0  0  2  0  0  0  0  0  0
  187.6850  178.5580  141.3150 C   0  0  0  0  0  3  0  0  0  0  0  0
  186.4300  178.6310  140.4790 C   0  0  0  0  0  2  0  0  0  0  0  0
  186.7160  178.8910  137.1680 O   0  0  0  0  0  0  0  0  0  0  0  0
  187.2720  178.4800  138.1780 C   0  0  0  0  0  0  0  0  0  0  0  0
  191.2100  177.9960  141.5630 O   0  0  0  0  0  0  0  0  0  0  0  0
  190.0430  178.3380  141.9100 C   0  0  0  0  0  0  0  0  0  0  0  0
  189.8410  178.7380  143.2330 O   0  0  0  0  0  0  0  0  0  0  0  0
  190.9060  179.1730  144.0620 C   0  0  0  0  0  2  0  0  0  0  0  0
  191.6230  177.9690  144.6690 C   0  0  0  0  0  2  0  0  0  0  0  0
  190.6750  177.1060  145.3950 N   0  0  0  0  0  0  0  0  0  0  0  0
  189.6820  177.9100  146.1380 C   0  0  2  0  0  3  0  0  0  0  0  0
  189.0980  178.3610  148.5300 O   0  0  0  0  0  1  0  0  0  0  0  0
  189.5410  176.2170  147.8670 O   0  0  0  0  0  0  0  0  0  0  0  0
  189.4430  177.4370  147.5590 C   0  0  0  0  0  0  0  0  0  0  0  0
  188.3560  177.9870  145.3820 C   0  0  0  0  0  2  0  0  0  0  0  0
  187.3800  178.8810  146.1240 C   0  0  0  0  0  2  0  0  0  0  0  0
  184.8820  178.7260  147.0780 O   0  0  0  0  0  0  0  0  0  0  0  0
  185.6570  176.8880  145.6630 O   0  0  0  0  0  0  0  0  0  0  0  0
  185.6850  178.3800  145.8550 S   0  0  0  0  0  0  0  0  0  0  0  0
  184.9490  179.1320  144.4050 C   0  0  0  0  0  2  0  0  0  0  0  0
  184.2210  178.0950  143.5660 C   0  0  0  0  0  2  0  0  0  0  0  0
  183.3410  179.0740  141.4980 C   0  0  0  0  0  2  0  0  0  0  0  0
  183.1240  178.7190  142.7650 C   0  0  0  0  0  0  0  0  0  0  0  0
  181.8410  179.0930  143.4230 C   0  0  0  0  0  1  0  0  0  0  0  0
  189.9890  176.2220  144.4520 C   0  0  0  0  0  2  0  0  0  0  0  0
  190.9800  175.6090  143.4680 C   0  0  0  0  0  2  0  0  0  0  0  0
  191.4810  174.2840  143.9720 C   0  0  0  0  0  3  0  0  0  0  0  0
  192.3170  174.2080  145.0170 C   0  0  0  0  0  2  0  0  0  0  0  0
  2  7  1  6  0  0  0
  3  2  1  0  0  0  0
  4  2  1  0  0  0  0
  4  1  1  1  0  0  0
  5  3  1  0  0  0  0
  5  6  1  0  0  0  0
  6 16  1  6  0  0  0
  6  4  1  0  0  0  0
  7 12  1  0  0  0  0
  8 12  1  0  0  0  0
  8 10  1  0  0  0  0
  9 11  1  0  0  0  0
 10 14  1  0  0  0  0
 10 11  2  0  0  0  0
 12  9  2  0  0  0  0
 13 14  1  0  0  0  0
 14 15  2  0  0  0  0
 17 16  1  0  0  0  0
 18 17  1  1  0  0  0
 18 21  1  0  0  0  0
 18 23  1  0  0  0  0
 22 26  1  1  0  0  0
 22 24  1  0  0  0  0
 22 20  1  0  0  0  0
 23 19  1  6  0  0  0
 24 23  1  0  0  0  0
 25 21  1  0  0  0  0
 25 20  1  0  0  0  0
 26 27  1  0  0  0  0
 27 29  1  0  0  0  0
 28 29  1  0  0  0  0
 28 31  1  0  0  0  0
 28 32  1  1  0  0  0
 29 31  1  0  0  0  0
 29 30  1  1  0  0  0
 33 32  1  0  0  0  0
 33 35  2  0  0  0  0
 34 33  1  0  0  0  0
 36  1  1  0  0  0  0
 36 37  1  0  0  0  0
 38 37  1  0  0  0  0
 39 41  1  0  0  0  0
 40 38  1  6  0  0  0
 40 39  1  0  0  0  0
 41 43  2  0  0  0  0
 41 48  1  0  0  0  0
 42 44  1  0  0  0  0
 44 43  1  0  0  0  0
 45 46  2  0  0  0  0
 46 40  1  0  0  0  0
 46 42  1  0  0  0  0
 47 48  2  0  0  0  0
 48 49  1  0  0  0  0
 49 50  1  0  0  0  0
 50 51  1  0  0  0  0
 51 52  1  0  0  0  0
 52 53  1  0  0  0  0
 53 57  1  6  0  0  0
 53 56  1  0  0  0  0
 56 55  2  0  0  0  0
 56 54  1  0  0  0  0
 57 58  1  0  0  0  0
 60 61  2  0  0  0  0
 61 58  1  0  0  0  0
 61 59  2  0  0  0  0
 62 61  1  0  0  0  0
 63 62  1  0  0  0  0
 64 65  2  0  0  0  0
 65 66  1  0  0  0  0
 65 63  1  0  0  0  0
 67 52  1  0  0  0  0
 68 69  1  0  0  0  0
 68 67  1  0  0  0  0
 69 70  2  0  0  0  0
M  END
>  <MODEL>
4

>  <REMARK>
 VINA RESULT:      -4.2      2.654      5.304
  Name = 
  32 active torsions:
  status: ('A' for Active; 'I' for Inactive)
    1  A    between atoms: C_1  and  O_49
    2  A    between atoms: C_3  and  C_51
    3  A    between atoms: C_4  and  N_22
    4  A    between atoms: C_4  and  C_41
    5  A    between atoms: C_7  and  C_51
    6  A    between atoms: C_7  and  S_58
    7  A    between atoms: C_8  and  O_34
    8  A    between atoms: O_9  and  C_63
    9  A    between atoms: O_9  and  C_70
   10  A    between atoms: C_10  and  C_47
   11  A    between atoms: C_11  and  C_26
   12  A    between atoms: C_11  and  C_42
   13  A    between atoms: C_15  and  C_41
   14  A    between atoms: O_19  and  C_24
   15  A    between atoms: O_19  and  C_60
   16  A    between atoms: N_22  and  C_46
   17  A    between atoms: N_22  and  C_69
   18  A    between atoms: C_23  and  C_37
   19  A    between atoms: C_23  and  S_58
   20  A    between atoms: C_26  and  C_60
   21  A    between atoms: C_27  and  C_69
   22  A    between atoms: C_28  and  C_40
   23  A    between atoms: C_29  and  C_47
   24  A    between atoms: C_30  and  O_49
   25  A    between atoms: C_30  and  C_65
   26  A    between atoms: C_31  and  C_63
   27  A    between atoms: C_33  and  C_61
   28  A    between atoms: O_34  and  C_68
   29  A    between atoms: C_37  and  C_69
   30  A    between atoms: C_40  and  C_55
   31  A    between atoms: C_46  and  C_70
   32  A    between atoms: C_50  and  C_55
                            x       y       z     vdW  Elec       q    Type
                         _______ _______ _______ _____ _____    ______ ____

>  <TORSDO>
F 32

$$$$
=
 OpenBabel10232410263D

 70 74  0  0  1  0  0  0  0  0999 V2000
  186.4290  177.6310  137.8650 C   0  0  0  0  0  2  0  0  0  0  0  0
  185.0290  176.2810  136.2320 C   0  0  2  0  0  3  0  0  0  0  0  0
  185.0500  176.0000  134.8540 O   0  0  0  0  0  0  0  0  0  0  0  0
  186.4250  176.6340  136.7020 C   0  0  1  0  0  3  0  0  0  0  0  0
  186.2570  176.5230  134.3460 C   0  0  0  0  0  2  0  0  0  0  0  0
  187.0130  177.2130  135.4600 C   0  0  2  0  0  3  0  0  0  0  0  0
  184.5010  175.1730  136.9660 O   0  0  0  0  0  0  0  0  0  0  0  0
  186.0560  173.1040  136.1230 S   0  0  0  0  0  0  0  0  0  0  0  0
  183.5670  172.9200  136.4370 C   0  0  0  0  0  3  0  0  0  0  0  0
  185.3750  171.6050  135.7700 C   0  0  0  0  0  0  0  0  0  0  0  0
  184.0020  171.6640  135.9930 C   0  0  0  0  0  3  0  0  0  0  0  0
  184.6080  173.8370  136.5570 C   0  0  0  0  0  0  0  0  0  0  0  0
  185.4450  169.1740  135.1760 N   0  0  0  0  0  1  0  0  0  0  0  0
  186.1080  170.4210  135.3030 C   0  0  0  0  0  0  0  0  0  0  0  0
  187.3310  170.5030  135.0270 O   0  0  0  0  0  0  0  0  0  0  0  0
  188.5220  177.0060  135.3430 C   0  0  0  0  0  2  0  0  0  0  0  0
  189.0910  176.6230  136.5650 O   0  0  0  0  0  0  0  0  0  0  0  0
  190.4470  176.4310  136.2760 C   0  0  2  0  0  3  0  0  0  0  0  0
  190.3170  174.9150  138.1570 O   0  0  0  0  0  1  0  0  0  0  0  0
  192.7770  175.2900  134.8340 O   0  0  0  0  0  0  0  0  0  0  0  0
  190.6140  176.3320  134.7600 C   0  0  0  0  0  2  0  0  0  0  0  0
  193.3240  175.7090  136.0520 C   0  0  1  0  0  3  0  0  0  0  0  0
  190.9780  175.1510  136.9490 C   0  0  2  0  0  3  0  0  0  0  0  0
  192.4850  175.2010  137.2280 C   0  0  0  0  0  2  0  0  0  0  0  0
  192.0820  176.4040  134.3500 C   0  0  0  0  0  2  0  0  0  0  0  0
  194.7580  175.1950  136.1530 C   0  0  0  0  0  2  0  0  0  0  0  0
  194.9050  174.1370  137.2410 C   0  0  0  0  0  2  0  0  0  0  0  0
  197.4700  173.8030  137.5040 C   0  0  1  0  0  3  0  0  0  0  0  0
  196.1450  173.2740  137.0380 C   0  0  2  0  0  0  0  0  0  0  0  0
  196.0540  172.0690  136.1110 C   0  0  0  0  0  1  0  0  0  0  0  0
  196.6950  172.8950  138.2800 O   0  0  0  0  0  0  0  0  0  0  0  0
  198.6800  173.1050  136.8540 C   0  0  0  0  0  2  0  0  0  0  0  0
  199.2730  173.8610  135.7020 C   0  0  0  0  0  0  0  0  0  0  0  0
  198.8040  175.1720  135.3760 N   0  0  0  0  0  1  0  0  0  0  0  0
  200.2290  173.3500  135.0570 O   0  0  0  0  0  0  0  0  0  0  0  0
  185.1590  177.5940  138.7040 C   0  0  0  0  0  2  0  0  0  0  0  0
  184.1410  178.5910  138.1710 C   0  0  0  0  0  2  0  0  0  0  0  0
  184.3860  179.8370  138.7430 O   0  0  0  0  0  0  0  0  0  0  0  0
  184.4140  178.5370  140.7410 C   0  0  0  0  0  2  0  0  0  0  0  0
  183.8360  179.7660  140.0270 C   0  0  2  0  0  3  0  0  0  0  0  0
  184.2420  178.5130  142.2400 C   0  0  0  0  0  0  0  0  0  0  0  0
  181.5600  178.7410  140.8040 C   0  0  0  0  0  2  0  0  0  0  0  0
  183.0640  178.7140  142.8630 C   0  0  0  0  0  3  0  0  0  0  0  0
  181.7490  179.1470  142.2620 C   0  0  0  0  0  2  0  0  0  0  0  0
  181.7330  180.4410  139.1900 O   0  0  0  0  0  0  0  0  0  0  0  0
  182.3360  179.6850  139.9400 C   0  0  0  0  0  0  0  0  0  0  0  0
  185.2670  177.5470  144.1550 O   0  0  0  0  0  0  0  0  0  0  0  0
  185.4300  178.1370  143.0480 C   0  0  0  0  0  0  0  0  0  0  0  0
  186.7360  178.4040  142.6320 O   0  0  0  0  0  0  0  0  0  0  0  0
  187.8590  177.7490  143.1960 C   0  0  0  0  0  2  0  0  0  0  0  0
  189.0500  178.7020  143.2530 C   0  0  0  0  0  2  0  0  0  0  0  0
  190.2800  178.0300  142.7970 N   0  0  0  0  0  0  0  0  0  0  0  0
  190.9440  177.3200  143.9100 C   0  0  2  0  0  3  0  0  0  0  0  0
  192.0080  175.0860  144.2940 O   0  0  0  0  0  1  0  0  0  0  0  0
  192.4440  176.2200  142.3550 O   0  0  0  0  0  0  0  0  0  0  0  0
  191.8470  176.1850  143.4670 C   0  0  0  0  0  0  0  0  0  0  0  0
  189.9250  176.8110  144.9280 C   0  0  0  0  0  2  0  0  0  0  0  0
  190.5550  176.7310  146.3070 C   0  0  0  0  0  2  0  0  0  0  0  0
  190.2930  177.7210  148.7820 O   0  0  0  0  0  0  0  0  0  0  0  0
  188.4810  176.3090  147.9440 O   0  0  0  0  0  0  0  0  0  0  0  0
  189.4690  177.3800  147.5710 S   0  0  0  0  0  0  0  0  0  0  0  0
  188.5430  178.8170  147.0350 C   0  0  0  0  0  2  0  0  0  0  0  0
  187.2610  178.4040  146.3320 C   0  0  0  0  0  2  0  0  0  0  0  0
  185.0310  177.9330  147.2360 C   0  0  0  0  0  2  0  0  0  0  0  0
  186.0580  178.7780  147.1370 C   0  0  0  0  0  0  0  0  0  0  0  0
  185.9330  180.1530  147.6950 C   0  0  0  0  0  1  0  0  0  0  0  0
  189.9600  177.0840  141.7290 C   0  0  0  0  0  2  0  0  0  0  0  0
  190.4100  177.6230  140.3760 C   0  0  0  0  0  2  0  0  0  0  0  0
  189.2280  177.8740  139.4810 C   0  0  0  0  0  3  0  0  0  0  0  0
  189.1630  178.9650  138.7040 C   0  0  0  0  0  2  0  0  0  0  0  0
  1 36  1  0  0  0  0
  2  4  1  0  0  0  0
  2  7  1  1  0  0  0
  3  2  1  0  0  0  0
  4  1  1  1  0  0  0
  5  3  1  0  0  0  0
  5  6  1  0  0  0  0
  6 16  1  6  0  0  0
  6  4  1  0  0  0  0
  8 12  1  0  0  0  0
  9 12  2  0  0  0  0
 10 11  2  0  0  0  0
 10  8  1  0  0  0  0
 11  9  1  0  0  0  0
 12  7  1  0  0  0  0
 13 14  1  0  0  0  0
 14 10  1  0  0  0  0
 15 14  2  0  0  0  0
 16 17  1  0  0  0  0
 18 17  1  6  0  0  0
 18 23  1  0  0  0  0
 20 22  1  0  0  0  0
 21 18  1  0  0  0  0
 22 26  1  1  0  0  0
 22 24  1  0  0  0  0
 23 24  1  0  0  0  0
 23 19  1  1  0  0  0
 25 21  1  0  0  0  0
 25 20  1  0  0  0  0
 26 27  1  0  0  0  0
 28 32  1  6  0  0  0
 28 31  1  0  0  0  0
 29 30  1  6  0  0  0
 29 27  1  0  0  0  0
 29 28  1  0  0  0  0
 29 31  1  0  0  0  0
 33 32  1  0  0  0  0
 34 33  1  0  0  0  0
 35 33  2  0  0  0  0
 37 36  1  0  0  0  0
 37 38  1  0  0  0  0
 39 41  1  0  0  0  0
 40 38  1  6  0  0  0
 40 39  1  0  0  0  0
 41 43  2  0  0  0  0
 41 48  1  0  0  0  0
 42 44  1  0  0  0  0
 44 43  1  0  0  0  0
 45 46  2  0  0  0  0
 46 40  1  0  0  0  0
 46 42  1  0  0  0  0
 48 47  2  0  0  0  0
 49 48  1  0  0  0  0
 49 50  1  0  0  0  0
 50 51  1  0  0  0  0
 52 51  1  0  0  0  0
 52 53  1  0  0  0  0
 53 57  1  1  0  0  0
 55 56  2  0  0  0  0
 56 53  1  0  0  0  0
 56 54  1  0  0  0  0
 57 58  1  0  0  0  0
 58 61  1  0  0  0  0
 61 60  2  0  0  0  0
 61 59  2  0  0  0  0
 62 61  1  0  0  0  0
 63 62  1  0  0  0  0
 63 65  1  0  0  0  0
 65 64  2  0  0  0  0
 65 66  1  0  0  0  0
 67 52  1  0  0  0  0
 68 67  1  0  0  0  0
 69 68  1  0  0  0  0
 70 69  2  0  0  0  0
M  END
>  <MODEL>
5

>  <REMARK>
 VINA RESULT:      -3.3      3.003      9.364
  Name = 
  32 active torsions:
  status: ('A' for Active; 'I' for Inactive)
    1  A    between atoms: C_1  and  O_49
    2  A    between atoms: C_3  and  C_51
    3  A    between atoms: C_4  and  N_22
    4  A    between atoms: C_4  and  C_41
    5  A    between atoms: C_7  and  C_51
    6  A    between atoms: C_7  and  S_58
    7  A    between atoms: C_8  and  O_34
    8  A    between atoms: O_9  and  C_63
    9  A    between atoms: O_9  and  C_70
   10  A    between atoms: C_10  and  C_47
   11  A    between atoms: C_11  and  C_26
   12  A    between atoms: C_11  and  C_42
   13  A    between atoms: C_15  and  C_41
   14  A    between atoms: O_19  and  C_24
   15  A    between atoms: O_19  and  C_60
   16  A    between atoms: N_22  and  C_46
   17  A    between atoms: N_22  and  C_69
   18  A    between atoms: C_23  and  C_37
   19  A    between atoms: C_23  and  S_58
   20  A    between atoms: C_26  and  C_60
   21  A    between atoms: C_27  and  C_69
   22  A    between atoms: C_28  and  C_40
   23  A    between atoms: C_29  and  C_47
   24  A    between atoms: C_30  and  O_49
   25  A    between atoms: C_30  and  C_65
   26  A    between atoms: C_31  and  C_63
   27  A    between atoms: C_33  and  C_61
   28  A    between atoms: O_34  and  C_68
   29  A    between atoms: C_37  and  C_69
   30  A    between atoms: C_40  and  C_55
   31  A    between atoms: C_46  and  C_70
   32  A    between atoms: C_50  and  C_55
                            x       y       z     vdW  Elec       q    Type
                         _______ _______ _______ _____ _____    ______ ____

>  <TORSDO>
F 32

$$$$
=
 OpenBabel10232410263D

 70 74  0  0  1  0  0  0  0  0999 V2000
  186.4340  177.5870  137.8490 C   0  0  0  0  0  2  0  0  0  0  0  0
  184.9800  176.2760  136.2320 C   0  0  2  0  0  3  0  0  0  0  0  0
  184.9930  175.9720  134.8580 O   0  0  0  0  0  0  0  0  0  0  0  0
  186.3890  176.5730  136.7020 C   0  0  1  0  0  3  0  0  0  0  0  0
  186.2230  176.4320  134.3470 C   0  0  0  0  0  2  0  0  0  0  0  0
  187.0070  177.1050  135.4540 C   0  0  2  0  0  3  0  0  0  0  0  0
  184.4000  175.2050  136.9820 O   0  0  0  0  0  0  0  0  0  0  0  0
  183.1090  172.8160  136.7990 S   0  0  0  0  0  0  0  0  0  0  0  0
  185.4340  173.1980  135.9190 C   0  0  0  0  0  3  0  0  0  0  0  0
  183.8540  171.4880  136.0790 C   0  0  0  0  0  0  0  0  0  0  0  0
  185.1240  171.8590  135.6460 C   0  0  0  0  0  3  0  0  0  0  0  0
  184.3990  173.8670  136.5670 C   0  0  0  0  0  0  0  0  0  0  0  0
  181.9900  169.9990  135.3230 N   0  0  0  0  0  1  0  0  0  0  0  0
  183.2630  170.1530  135.9290 C   0  0  0  0  0  0  0  0  0  0  0  0
  183.8750  169.1390  136.3490 O   0  0  0  0  0  0  0  0  0  0  0  0
  188.5050  176.8270  135.3450 C   0  0  0  0  0  2  0  0  0  0  0  0
  189.0500  176.4260  136.5730 O   0  0  0  0  0  0  0  0  0  0  0  0
  190.3930  176.1540  136.2890 C   0  0  2  0  0  3  0  0  0  0  0  0
  190.1800  174.6810  138.1960 O   0  0  0  0  0  1  0  0  0  0  0  0
  192.6560  174.8600  134.8690 O   0  0  0  0  0  0  0  0  0  0  0  0
  190.5540  176.0190  134.7740 C   0  0  0  0  0  2  0  0  0  0  0  0
  193.2260  175.2700  136.0800 C   0  0  1  0  0  3  0  0  0  0  0  0
  190.8520  174.8590  136.9850 C   0  0  2  0  0  3  0  0  0  0  0  0
  192.3590  174.8300  137.2650 C   0  0  0  0  0  2  0  0  0  0  0  0
  192.0250  176.0020  134.3650 C   0  0  0  0  0  2  0  0  0  0  0  0
  194.6290  174.6790  136.1920 C   0  0  0  0  0  2  0  0  0  0  0  0
  194.7360  173.6860  137.3440 C   0  0  0  0  0  2  0  0  0  0  0  0
  194.4070  171.5210  135.9430 C   0  0  1  0  0  3  0  0  0  0  0  0
  195.2530  172.3280  136.8840 C   0  0  2  0  0  0  0  0  0  0  0  0
  196.4360  171.7090  137.6170 C   0  0  0  0  0  1  0  0  0  0  0  0
  195.4880  172.3320  135.4930 O   0  0  0  0  0  0  0  0  0  0  0  0
  194.7690  170.0240  135.9130 C   0  0  0  0  0  2  0  0  0  0  0  0
  193.8650  169.1600  136.7420 C   0  0  0  0  0  0  0  0  0  0  0  0
  194.1200  168.9730  138.1370 N   0  0  0  0  0  1  0  0  0  0  0  0
  192.8460  168.6440  136.2080 O   0  0  0  0  0  0  0  0  0  0  0  0
  185.1800  177.5890  138.7110 C   0  0  0  0  0  2  0  0  0  0  0  0
  184.1870  178.6210  138.2020 C   0  0  0  0  0  2  0  0  0  0  0  0
  184.4460  179.8420  138.8220 O   0  0  0  0  0  0  0  0  0  0  0  0
  184.5010  178.4860  140.7810 C   0  0  0  0  0  2  0  0  0  0  0  0
  183.9020  179.7250  140.1040 C   0  0  2  0  0  3  0  0  0  0  0  0
  184.3360  178.4150  142.2790 C   0  0  0  0  0  0  0  0  0  0  0  0
  181.6450  178.6410  140.8590 C   0  0  0  0  0  2  0  0  0  0  0  0
  183.1570  178.5790  142.9110 C   0  0  0  0  0  3  0  0  0  0  0  0
  181.8320  179.0090  142.3270 C   0  0  0  0  0  2  0  0  0  0  0  0
  181.7840  180.3900  139.2940 O   0  0  0  0  0  0  0  0  0  0  0  0
  182.4030  179.6230  140.0200 C   0  0  0  0  0  0  0  0  0  0  0  0
  185.3810  177.4330  144.1740 O   0  0  0  0  0  0  0  0  0  0  0  0
  185.5310  178.0350  143.0720 C   0  0  0  0  0  0  0  0  0  0  0  0
  186.8330  178.3120  142.6470 O   0  0  0  0  0  0  0  0  0  0  0  0
  187.9630  177.6510  143.1900 C   0  0  0  0  0  2  0  0  0  0  0  0
  189.1490  178.6110  143.2630 C   0  0  0  0  0  2  0  0  0  0  0  0
  190.4100  177.9090  142.9660 N   0  0  0  0  0  0  0  0  0  0  0  0
  190.9870  177.3090  144.1870 C   0  0  2  0  0  3  0  0  0  0  0  0
  192.2190  175.7410  142.6730 O   0  0  0  0  0  0  0  0  0  0  0  0
  191.9500  175.1950  144.8780 O   0  0  0  0  0  1  0  0  0  0  0  0
  191.7410  176.0160  143.9430 C   0  0  0  0  0  0  0  0  0  0  0  0
  189.9190  177.0990  145.2590 C   0  0  0  0  0  2  0  0  0  0  0  0
  190.5540  177.0840  146.6380 C   0  0  0  0  0  2  0  0  0  0  0  0
  190.1940  177.9520  149.1450 O   0  0  0  0  0  0  0  0  0  0  0  0
  188.4530  176.5200  148.1960 O   0  0  0  0  0  0  0  0  0  0  0  0
  189.4140  177.6390  147.8980 S   0  0  0  0  0  0  0  0  0  0  0  0
  188.4530  179.0680  147.4010 C   0  0  0  0  0  2  0  0  0  0  0  0
  187.2870  178.6560  146.5190 C   0  0  0  0  0  2  0  0  0  0  0  0
  185.7740  180.2130  147.6600 C   0  0  0  0  0  2  0  0  0  0  0  0
  185.9790  178.9930  147.1600 C   0  0  0  0  0  0  0  0  0  0  0  0
  184.9630  177.9280  147.3860 C   0  0  0  0  0  1  0  0  0  0  0  0
  190.1710  176.8650  141.9690 C   0  0  0  0  0  2  0  0  0  0  0  0
  190.5660  177.3460  140.5770 C   0  0  0  0  0  2  0  0  0  0  0  0
  189.3490  177.5570  139.7200 C   0  0  0  0  0  3  0  0  0  0  0  0
  189.1540  178.7060  139.0590 C   0  0  0  0  0  2  0  0  0  0  0  0
  1 36  1  0  0  0  0
  2  4  1  0  0  0  0
  2  7  1  1  0  0  0
  3  2  1  0  0  0  0
  4  1  1  1  0  0  0
  5  3  1  0  0  0  0
  5  6  1  0  0  0  0
  6 16  1  6  0  0  0
  6  4  1  0  0  0  0
  9 12  2  0  0  0  0
 10  8  1  0  0  0  0
 11  9  1  0  0  0  0
 11 10  2  0  0  0  0
 12  8  1  0  0  0  0
 12  7  1  0  0  0  0
 13 14  1  0  0  0  0
 14 10  1  0  0  0  0
 14 15  2  0  0  0  0
 16 17  1  0  0  0  0
 18 17  1  6  0  0  0
 18 23  1  0  0  0  0
 20 22  1  0  0  0  0
 21 18  1  0  0  0  0
 22 26  1  1  0  0  0
 22 24  1  0  0  0  0
 23 24  1  0  0  0  0
 23 19  1  1  0  0  0
 25 21  1  0  0  0  0
 25 20  1  0  0  0  0
 26 27  1  0  0  0  0
 28 32  1  1  0  0  0
 28 29  1  0  0  0  0
 29 27  1  0  0  0  0
 29 30  1  1  0  0  0
 31 28  1  0  0  0  0
 31 29  1  0  0  0  0
 32 33  1  0  0  0  0
 33 34  1  0  0  0  0
 35 33  2  0  0  0  0
 37 36  1  0  0  0  0
 37 38  1  0  0  0  0
 39 41  1  0  0  0  0
 40 38  1  6  0  0  0
 40 39  1  0  0  0  0
 41 43  2  0  0  0  0
 41 48  1  0  0  0  0
 42 44  1  0  0  0  0
 44 43  1  0  0  0  0
 45 46  2  0  0  0  0
 46 40  1  0  0  0  0
 46 42  1  0  0  0  0
 48 47  2  0  0  0  0
 49 48  1  0  0  0  0
 49 50  1  0  0  0  0
 50 51  1  0  0  0  0
 52 51  1  0  0  0  0
 52 53  1  0  0  0  0
 53 57  1  1  0  0  0
 54 56  2  0  0  0  0
 56 53  1  0  0  0  0
 56 55  1  0  0  0  0
 57 58  1  0  0  0  0
 58 61  1  0  0  0  0
 61 60  2  0  0  0  0
 61 59  2  0  0  0  0
 62 61  1  0  0  0  0
 63 65  1  0  0  0  0
 63 62  1  0  0  0  0
 65 66  1  0  0  0  0
 65 64  2  0  0  0  0
 67 52  1  0  0  0  0
 68 67  1  0  0  0  0
 69 68  1  0  0  0  0
 70 69  2  0  0  0  0
M  END
>  <MODEL>
6

>  <REMARK>
 VINA RESULT:      -3.0      3.123      8.973
  Name = 
  32 active torsions:
  status: ('A' for Active; 'I' for Inactive)
    1  A    between atoms: C_1  and  O_49
    2  A    between atoms: C_3  and  C_51
    3  A    between atoms: C_4  and  N_22
    4  A    between atoms: C_4  and  C_41
    5  A    between atoms: C_7  and  C_51
    6  A    between atoms: C_7  and  S_58
    7  A    between atoms: C_8  and  O_34
    8  A    between atoms: O_9  and  C_63
    9  A    between atoms: O_9  and  C_70
   10  A    between atoms: C_10  and  C_47
   11  A    between atoms: C_11  and  C_26
   12  A    between atoms: C_11  and  C_42
   13  A    between atoms: C_15  and  C_41
   14  A    between atoms: O_19  and  C_24
   15  A    between atoms: O_19  and  C_60
   16  A    between atoms: N_22  and  C_46
   17  A    between atoms: N_22  and  C_69
   18  A    between atoms: C_23  and  C_37
   19  A    between atoms: C_23  and  S_58
   20  A    between atoms: C_26  and  C_60
   21  A    between atoms: C_27  and  C_69
   22  A    between atoms: C_28  and  C_40
   23  A    between atoms: C_29  and  C_47
   24  A    between atoms: C_30  and  O_49
   25  A    between atoms: C_30  and  C_65
   26  A    between atoms: C_31  and  C_63
   27  A    between atoms: C_33  and  C_61
   28  A    between atoms: O_34  and  C_68
   29  A    between atoms: C_37  and  C_69
   30  A    between atoms: C_40  and  C_55
   31  A    between atoms: C_46  and  C_70
   32  A    between atoms: C_50  and  C_55
                            x       y       z     vdW  Elec       q    Type
                         _______ _______ _______ _____ _____    ______ ____

>  <TORSDO>
F 32

$$$$
