=
 OpenBabel10232409063D

 28 32  0  0  1  0  0  0  0  0999 V2000
  182.8370  178.7610  143.6110 C   0  0  0  0  0  0  0  0  0  0  0  0
  183.1240  179.1470  141.0510 C   0  0  2  0  0  3  0  0  0  0  0  0
  183.6840  178.5120  142.3480 C   0  0  1  0  0  3  0  0  0  0  0  0
  185.1740  178.8480  142.4620 C   0  0  2  0  0  3  0  0  0  0  0  0
  180.4720  178.5960  142.7240 C   0  0  0  0  0  3  0  0  0  0  0  0
  184.6670  179.2020  145.3850 C   0  0  0  0  0  3  0  0  0  0  0  0
  183.3040  179.0350  144.8430 C   0  0  0  0  0  3  0  0  0  0  0  0
  180.6960  179.2780  141.4230 C   0  0  0  0  0  2  0  0  0  0  0  0
  185.8020  178.7780  144.8380 C   0  0  0  0  0  3  0  0  0  0  0  0
  185.8500  178.0380  143.5520 C   0  0  2  0  0  3  0  0  0  0  0  0
  181.7800  178.5720  140.6490 C   0  0  0  0  0  2  0  0  0  0  0  0
  185.3960  180.2130  142.5780 F   0  0  0  0  0  0  0  0  0  0  0  0
  181.4010  178.4150  143.6610 C   0  0  0  0  0  3  0  0  0  0  0  0
  184.0400  179.0000  139.9400 N   0  0  0  0  0  0  0  0  0  0  0  0
  184.4350  179.9520  139.3370 O   0  0  0  0  0  0  0  0  0  0  0  0
  187.2420  177.7680  143.1930 N   0  0  0  0  0  2  0  0  0  0  0  0
  189.6570  176.6510  142.2240 C   0  0  0  0  0  2  0  0  0  0  0  0
  191.0450  176.5460  142.0800 O   0  0  0  0  0  0  0  0  0  0  0  0
  191.3770  177.8360  144.1770 C   0  0  2  0  0  3  0  0  0  0  0  0
  190.1560  177.0450  144.6760 C   0  0  1  0  0  0  0  0  0  0  0  0
  187.8540  176.7520  144.0690 C   0  0  2  0  0  3  0  0  0  0  0  0
  187.9250  177.2170  145.5310 C   0  0  0  0  0  2  0  0  0  0  0  0
  191.9900  175.3990  144.2920 O   0  0  0  0  0  1  0  0  0  0  0  0
  189.3560  177.6680  145.7960 C   0  0  0  0  0  2  0  0  0  0  0  0
  189.2740  176.3260  143.6690 C   0  0  1  0  0  3  0  0  0  0  0  0
  192.0160  176.7020  146.2810 O   0  0  0  0  0  1  0  0  0  0  0  0
  191.5930  177.7120  142.6470 C   0  0  0  0  0  2  0  0  0  0  0  0
  191.5550  176.5380  144.9750 C   0  0  0  0  0  0  0  0  0  0  0  0
  1 13  1  0  0  0  0
  1  7  2  0  0  0  0
  2 14  1  6  0  0  0
  2  3  1  0  0  0  0
  3  4  1  0  0  0  0
  3  1  1  1  0  0  0
  4 12  1  1  0  0  0
  4 10  1  0  0  0  0
  5 13  2  0  0  0  0
  7  6  1  0  0  0  0
  8  5  1  0  0  0  0
  9  6  2  0  0  0  0
 10 16  1  6  0  0  0
 10  9  1  0  0  0  0
 11  2  1  0  0  0  0
 11  8  1  0  0  0  0
 15 14  2  0  0  0  0
 18 17  1  0  0  0  0
 18 27  1  0  0  0  0
 19 27  1  6  0  0  0
 19 20  1  0  0  0  0
 19 28  1  0  0  0  0
 20 28  1  0  0  0  0
 20 24  1  1  0  0  0
 21 16  1  6  0  0  0
 21 22  1  0  0  0  0
 22 24  1  0  0  0  0
 23 28  1  0  0  0  0
 25 17  1  6  0  0  0
 25 21  1  0  0  0  0
 25 20  1  0  0  0  0
 28 26  1  0  0  0  0
M  END
>  <MODEL>
1

>  <REMARK>
 VINA RESULT:     -10.5      0.000      0.000
  Name = 
  3 active torsions:
  status: ('A' for Active; 'I' for Inactive)
    1  A    between atoms: C_4  and  N_9
    2  A    between atoms: C_11  and  N_12
    3  A    between atoms: N_12  and  C_24
                            x       y       z     vdW  Elec       q    Type
                         _______ _______ _______ _____ _____    ______ ____

>  <TORSDO>
F 3

$$$$
=
 OpenBabel10232409063D

 28 32  0  0  1  0  0  0  0  0999 V2000
  186.9910  177.9880  145.2750 C   0  0  0  0  0  0  0  0  0  0  0  0
  189.3640  176.9370  145.4910 C   0  0  2  0  0  3  0  0  0  0  0  0
  188.4130  177.8620  144.6940 C   0  0  1  0  0  3  0  0  0  0  0  0
  188.5020  177.5050  143.2070 C   0  0  2  0  0  3  0  0  0  0  0  0
  187.4200  178.0170  147.7690 C   0  0  0  0  0  3  0  0  0  0  0  0
  185.5470  177.9450  143.1280 C   0  0  0  0  0  3  0  0  0  0  0  0
  185.8430  178.0240  144.5730 C   0  0  0  0  0  3  0  0  0  0  0  0
  188.5140  177.0110  147.7980 C   0  0  0  0  0  2  0  0  0  0  0  0
  186.3930  178.1630  142.1270 C   0  0  0  0  0  3  0  0  0  0  0  0
  187.8140  178.5400  142.3380 C   0  0  2  0  0  3  0  0  0  0  0  0
  189.6390  177.4440  146.8940 C   0  0  0  0  0  2  0  0  0  0  0  0
  188.0750  176.2080  142.9550 F   0  0  0  0  0  0  0  0  0  0  0  0
  186.7600  178.3960  146.6770 C   0  0  0  0  0  3  0  0  0  0  0  0
  190.6290  176.7500  144.8120 N   0  0  0  0  0  0  0  0  0  0  0  0
  191.6640  176.8340  145.4010 O   0  0  0  0  0  0  0  0  0  0  0  0
  188.4910  178.6480  141.0470 N   0  0  0  0  0  2  0  0  0  0  0  0
  187.1300  178.1120  138.6220 C   0  0  0  0  0  2  0  0  0  0  0  0
  186.9680  178.0730  137.2320 O   0  0  0  0  0  0  0  0  0  0  0  0
  189.4310  178.1800  136.9270 C   0  0  2  0  0  3  0  0  0  0  0  0
  189.4700  177.2610  138.1600 C   0  0  1  0  0  0  0  0  0  0  0  0
  188.7710  177.3280  140.4540 C   0  0  2  0  0  3  0  0  0  0  0  0
  190.2750  177.0250  140.4040 C   0  0  0  0  0  2  0  0  0  0  0  0
  188.3570  175.9860  136.3290 O   0  0  0  0  0  1  0  0  0  0  0  0
  190.7420  177.2730  138.9750 C   0  0  0  0  0  2  0  0  0  0  0  0
  188.2310  177.1320  139.0290 C   0  0  1  0  0  3  0  0  0  0  0  0
  190.7290  176.1600  136.3280 O   0  0  0  0  0  1  0  0  0  0  0  0
  188.0360  178.8120  136.6870 C   0  0  0  0  0  2  0  0  0  0  0  0
  189.5020  176.6560  136.7690 C   0  0  0  0  0  0  0  0  0  0  0  0
  1 13  1  0  0  0  0
  2 14  1  6  0  0  0
  2 11  1  0  0  0  0
  3  1  1  1  0  0  0
  3  2  1  0  0  0  0
  4 12  1  1  0  0  0
  4  3  1  0  0  0  0
  5  8  1  0  0  0  0
  6  7  1  0  0  0  0
  7  1  2  0  0  0  0
  9 10  1  0  0  0  0
  9  6  2  0  0  0  0
 10 16  1  6  0  0  0
 10  4  1  0  0  0  0
 11  8  1  0  0  0  0
 13  5  2  0  0  0  0
 14 15  2  0  0  0  0
 18 17  1  0  0  0  0
 19 27  1  6  0  0  0
 19 20  1  0  0  0  0
 20 24  1  1  0  0  0
 20 25  1  0  0  0  0
 21 16  1  6  0  0  0
 22 21  1  0  0  0  0
 23 28  1  0  0  0  0
 24 22  1  0  0  0  0
 25 17  1  6  0  0  0
 25 21  1  0  0  0  0
 26 28  1  0  0  0  0
 27 18  1  0  0  0  0
 28 19  1  0  0  0  0
 28 20  1  0  0  0  0
M  END
>  <MODEL>
2

>  <REMARK>
 VINA RESULT:      -9.9      3.441      6.700
  Name = 
  3 active torsions:
  status: ('A' for Active; 'I' for Inactive)
    1  A    between atoms: C_4  and  N_9
    2  A    between atoms: C_11  and  N_12
    3  A    between atoms: N_12  and  C_24
                            x       y       z     vdW  Elec       q    Type
                         _______ _______ _______ _____ _____    ______ ____

>  <TORSDO>
F 3

$$$$
=
 OpenBabel10232409063D

 28 32  0  0  1  0  0  0  0  0999 V2000
  187.1630  178.0310  145.5770 C   0  0  0  0  0  0  0  0  0  0  0  0
  189.4910  177.0660  146.2370 C   0  0  2  0  0  3  0  0  0  0  0  0
  188.6590  177.8970  145.2300 C   0  0  1  0  0  3  0  0  0  0  0  0
  188.9800  177.4230  143.8100 C   0  0  2  0  0  3  0  0  0  0  0  0
  187.2050  178.2740  148.0960 C   0  0  0  0  0  3  0  0  0  0  0  0
  186.0660  177.7750  143.2470 C   0  0  0  0  0  3  0  0  0  0  0  0
  186.1360  177.9780  144.7090 C   0  0  0  0  0  3  0  0  0  0  0  0
  188.2960  177.3040  148.3740 C   0  0  0  0  0  2  0  0  0  0  0  0
  187.0520  177.9340  142.3710 C   0  0  0  0  0  3  0  0  0  0  0  0
  188.4180  178.3650  142.7630 C   0  0  2  0  0  3  0  0  0  0  0  0
  189.5400  177.6930  147.6180 C   0  0  0  0  0  2  0  0  0  0  0  0
  188.6160  176.0990  143.6050 F   0  0  0  0  0  0  0  0  0  0  0  0
  186.7140  178.5450  146.8880 C   0  0  0  0  0  3  0  0  0  0  0  0
  190.8470  176.8600  145.7760 N   0  0  0  0  0  0  0  0  0  0  0  0
  191.7700  176.9020  146.5330 O   0  0  0  0  0  0  0  0  0  0  0  0
  189.2830  178.3870  141.5840 N   0  0  0  0  0  2  0  0  0  0  0  0
  188.6930  176.8080  139.3080 C   0  0  0  0  0  2  0  0  0  0  0  0
  188.8430  176.3680  137.9880 O   0  0  0  0  0  0  0  0  0  0  0  0
  191.1540  177.2770  137.9310 C   0  0  2  0  0  3  0  0  0  0  0  0
  191.2240  176.7730  139.3830 C   0  0  1  0  0  0  0  0  0  0  0  0
  190.0810  177.1530  141.4570 C   0  0  2  0  0  3  0  0  0  0  0  0
  191.5800  177.4120  141.6640 C   0  0  0  0  0  2  0  0  0  0  0  0
  190.9730  174.7680  137.9210 O   0  0  0  0  0  1  0  0  0  0  0  0
  192.2310  177.4460  140.2860 C   0  0  0  0  0  2  0  0  0  0  0  0
  189.9370  176.4270  140.1110 C   0  0  1  0  0  3  0  0  0  0  0  0
  193.1160  175.7810  138.1220 O   0  0  0  0  0  1  0  0  0  0  0  0
  189.7120  177.2810  137.3610 C   0  0  0  0  0  2  0  0  0  0  0  0
  191.7310  175.8930  138.2550 C   0  0  0  0  0  0  0  0  0  0  0  0
  1 13  1  0  0  0  0
  2 14  1  6  0  0  0
  2 11  1  0  0  0  0
  3  1  1  1  0  0  0
  3  2  1  0  0  0  0
  4 12  1  6  0  0  0
  4  3  1  0  0  0  0
  5  8  1  0  0  0  0
  6  7  1  0  0  0  0
  7  1  2  0  0  0  0
  9 10  1  0  0  0  0
  9  6  2  0  0  0  0
 10 16  1  6  0  0  0
 10  4  1  0  0  0  0
 11  8  1  0  0  0  0
 13  5  2  0  0  0  0
 14 15  2  0  0  0  0
 18 17  1  0  0  0  0
 19 27  1  6  0  0  0
 19 28  1  0  0  0  0
 19 20  1  0  0  0  0
 20 25  1  0  0  0  0
 20 24  1  1  0  0  0
 21 16  1  6  0  0  0
 21 22  1  0  0  0  0
 23 28  1  0  0  0  0
 24 22  1  0  0  0  0
 25 17  1  6  0  0  0
 25 21  1  0  0  0  0
 26 28  1  0  0  0  0
 27 18  1  0  0  0  0
 28 20  1  0  0  0  0
M  END
>  <MODEL>
3

>  <REMARK>
 VINA RESULT:      -9.8      3.354      6.346
  Name = 
  3 active torsions:
  status: ('A' for Active; 'I' for Inactive)
    1  A    between atoms: C_4  and  N_9
    2  A    between atoms: C_11  and  N_12
    3  A    between atoms: N_12  and  C_24
                            x       y       z     vdW  Elec       q    Type
                         _______ _______ _______ _____ _____    ______ ____

>  <TORSDO>
F 3

$$$$
=
 OpenBabel10232409063D

 28 32  0  0  1  0  0  0  0  0999 V2000
  187.0410  178.1160  146.8280 C   0  0  0  0  0  0  0  0  0  0  0  0
  188.6190  177.1190  145.0120 C   0  0  2  0  0  3  0  0  0  0  0  0
  187.5100  178.1410  145.3600 C   0  0  1  0  0  3  0  0  0  0  0  0
  186.4060  178.0580  144.3010 C   0  0  2  0  0  3  0  0  0  0  0  0
  189.2000  177.7130  148.0850 C   0  0  0  0  0  3  0  0  0  0  0  0
  184.4840  178.4130  146.5600 C   0  0  0  0  0  3  0  0  0  0  0  0
  185.7720  178.2410  147.2620 C   0  0  0  0  0  3  0  0  0  0  0  0
  189.8130  176.7530  147.1300 C   0  0  0  0  0  2  0  0  0  0  0  0
  184.3040  178.8330  145.3130 C   0  0  0  0  0  3  0  0  0  0  0  0
  185.4270  179.2100  144.4180 C   0  0  2  0  0  3  0  0  0  0  0  0
  189.9110  177.3750  145.7620 C   0  0  0  0  0  2  0  0  0  0  0  0
  185.7890  176.8150  144.2850 F   0  0  0  0  0  0  0  0  0  0  0  0
  187.9930  178.2600  147.9480 C   0  0  0  0  0  3  0  0  0  0  0  0
  188.9050  177.0960  143.5930 N   0  0  0  0  0  0  0  0  0  0  0  0
  188.7510  176.1020  142.9490 O   0  0  0  0  0  0  0  0  0  0  0  0
  184.9060  179.5680  143.1000 N   0  0  0  0  0  2  0  0  0  0  0  0
  182.4350  178.4410  142.2960 C   0  0  0  0  0  2  0  0  0  0  0  0
  181.3070  178.2910  141.4810 O   0  0  0  0  0  0  0  0  0  0  0  0
  182.5060  179.3790  139.5950 C   0  0  2  0  0  3  0  0  0  0  0  0
  183.7230  178.5990  140.1200 C   0  0  1  0  0  0  0  0  0  0  0  0
  185.0120  178.4560  142.1380 C   0  0  2  0  0  3  0  0  0  0  0  0
  185.9540  178.7880  140.9720 C   0  0  0  0  0  2  0  0  0  0  0  0
  182.0610  176.9180  139.3250 O   0  0  0  0  0  1  0  0  0  0  0  0
  185.0850  179.1540  139.7750 C   0  0  0  0  0  2  0  0  0  0  0  0
  183.6800  178.0080  141.5190 C   0  0  1  0  0  3  0  0  0  0  0  0
  183.4140  178.0400  137.7230 O   0  0  0  0  0  1  0  0  0  0  0  0
  181.3150  179.3800  140.5880 C   0  0  0  0  0  2  0  0  0  0  0  0
  182.8730  178.0100  139.0090 C   0  0  0  0  0  0  0  0  0  0  0  0
  1  7  2  0  0  0  0
  1 13  1  0  0  0  0
  2 14  1  6  0  0  0
  2  3  1  0  0  0  0
  2 11  1  0  0  0  0
  3  1  1  1  0  0  0
  4 12  1  1  0  0  0
  4 10  1  0  0  0  0
  4  3  1  0  0  0  0
  6  7  1  0  0  0  0
  8  5  1  0  0  0  0
  9  6  2  0  0  0  0
 10 16  1  6  0  0  0
 10  9  1  0  0  0  0
 11  8  1  0  0  0  0
 13  5  2  0  0  0  0
 15 14  2  0  0  0  0
 18 17  1  0  0  0  0
 19 20  1  0  0  0  0
 19 27  1  1  0  0  0
 20 24  1  6  0  0  0
 20 25  1  0  0  0  0
 21 16  1  1  0  0  0
 22 21  1  0  0  0  0
 24 22  1  0  0  0  0
 25 21  1  0  0  0  0
 25 17  1  1  0  0  0
 26 28  1  0  0  0  0
 27 18  1  0  0  0  0
 28 23  1  0  0  0  0
 28 19  1  0  0  0  0
 28 20  1  0  0  0  0
M  END
>  <MODEL>
4

>  <REMARK>
 VINA RESULT:      -9.4      2.169      7.509
  Name = 
  3 active torsions:
  status: ('A' for Active; 'I' for Inactive)
    1  A    between atoms: C_4  and  N_9
    2  A    between atoms: C_11  and  N_12
    3  A    between atoms: N_12  and  C_24
                            x       y       z     vdW  Elec       q    Type
                         _______ _______ _______ _____ _____    ______ ____

>  <TORSDO>
F 3

$$$$
=
 OpenBabel10232409063D

 28 32  0  0  1  0  0  0  0  0999 V2000
  183.2860  178.0430  141.1520 C   0  0  0  0  0  0  0  0  0  0  0  0
  184.9420  178.4720  139.1880 C   0  0  2  0  0  3  0  0  0  0  0  0
  184.7480  178.0460  140.6640 C   0  0  1  0  0  3  0  0  0  0  0  0
  185.7470  178.8100  141.5380 C   0  0  2  0  0  3  0  0  0  0  0  0
  182.0360  177.1740  139.1310 C   0  0  0  0  0  3  0  0  0  0  0  0
  183.5330  179.0250  143.5330 C   0  0  0  0  0  3  0  0  0  0  0  0
  182.8470  178.4550  142.3560 C   0  0  0  0  0  3  0  0  0  0  0  0
  182.8240  177.8790  138.0870 C   0  0  0  0  0  2  0  0  0  0  0  0
  184.8290  178.9530  143.8150 C   0  0  0  0  0  3  0  0  0  0  0  0
  185.8060  178.2490  142.9450 C   0  0  2  0  0  3  0  0  0  0  0  0
  184.2830  177.5200  138.2100 C   0  0  0  0  0  2  0  0  0  0  0  0
  185.5290  180.1810  141.5050 F   0  0  0  0  0  0  0  0  0  0  0  0
  182.2340  177.2860  140.4430 C   0  0  0  0  0  3  0  0  0  0  0  0
  186.3420  178.5950  138.8420 N   0  0  0  0  0  0  0  0  0  0  0  0
  186.6820  178.8260  137.7210 O   0  0  0  0  0  0  0  0  0  0  0  0
  187.1520  178.4010  143.4960 N   0  0  0  0  0  2  0  0  0  0  0  0
  189.6110  177.5680  142.3660 C   0  0  0  0  0  2  0  0  0  0  0  0
  191.0040  177.4600  142.2820 O   0  0  0  0  0  0  0  0  0  0  0  0
  191.2070  177.9800  144.7020 C   0  0  2  0  0  3  0  0  0  0  0  0
  189.9400  177.1190  144.8370 C   0  0  1  0  0  0  0  0  0  0  0  0
  187.6820  177.1310  144.0260 C   0  0  2  0  0  3  0  0  0  0  0  0
  187.6560  177.0900  145.5600 C   0  0  0  0  0  2  0  0  0  0  0  0
  191.7680  175.6170  144.0480 O   0  0  0  0  0  1  0  0  0  0  0  0
  189.0720  177.3730  146.0470 C   0  0  0  0  0  2  0  0  0  0  0  0
  189.1200  176.8040  143.5970 C   0  0  1  0  0  3  0  0  0  0  0  0
  191.6740  176.1970  146.3530 O   0  0  0  0  0  1  0  0  0  0  0  0
  191.5300  178.3550  143.2330 C   0  0  0  0  0  2  0  0  0  0  0  0
  191.3050  176.4870  145.0390 C   0  0  0  0  0  0  0  0  0  0  0  0
  1  7  2  0  0  0  0
  2 14  1  6  0  0  0
  2  3  1  0  0  0  0
  3  1  1  1  0  0  0
  3  4  1  0  0  0  0
  4 12  1  1  0  0  0
  4 10  1  0  0  0  0
  5 13  2  0  0  0  0
  6  9  2  0  0  0  0
  7  6  1  0  0  0  0
  8 11  1  0  0  0  0
  8  5  1  0  0  0  0
 10 16  1  1  0  0  0
 10  9  1  0  0  0  0
 11  2  1  0  0  0  0
 13  1  1  0  0  0  0
 15 14  2  0  0  0  0
 18 17  1  0  0  0  0
 18 27  1  0  0  0  0
 19 27  1  6  0  0  0
 19 20  1  0  0  0  0
 19 28  1  0  0  0  0
 20 28  1  0  0  0  0
 20 24  1  1  0  0  0
 21 16  1  1  0  0  0
 21 22  1  0  0  0  0
 22 24  1  0  0  0  0
 23 28  1  0  0  0  0
 25 17  1  6  0  0  0
 25 21  1  0  0  0  0
 25 20  1  0  0  0  0
 28 26  1  0  0  0  0
M  END
>  <MODEL>
5

>  <REMARK>
 VINA RESULT:      -9.2      1.527      2.031
  Name = 
  3 active torsions:
  status: ('A' for Active; 'I' for Inactive)
    1  A    between atoms: C_4  and  N_9
    2  A    between atoms: C_11  and  N_12
    3  A    between atoms: N_12  and  C_24
                            x       y       z     vdW  Elec       q    Type
                         _______ _______ _______ _____ _____    ______ ____

>  <TORSDO>
F 3

$$$$
=
 OpenBabel10232409063D

 28 32  0  0  1  0  0  0  0  0999 V2000
  189.8640  177.4230  145.6330 C   0  0  0  0  0  0  0  0  0  0  0  0
  187.3410  178.0380  145.4310 C   0  0  2  0  0  3  0  0  0  0  0  0
  188.5550  177.2870  144.8310 C   0  0  1  0  0  3  0  0  0  0  0  0
  188.6480  177.6070  143.3360 C   0  0  2  0  0  3  0  0  0  0  0  0
  189.0470  177.3460  148.0280 C   0  0  0  0  0  3  0  0  0  0  0  0
  191.6070  177.6950  143.7410 C   0  0  0  0  0  3  0  0  0  0  0  0
  191.0990  177.5820  145.1230 C   0  0  0  0  0  3  0  0  0  0  0  0
  187.8070  178.1430  147.8430 C   0  0  0  0  0  2  0  0  0  0  0  0
  190.9850  177.3200  142.6280 C   0  0  0  0  0  3  0  0  0  0  0  0
  189.6360  176.7000  142.6280 C   0  0  2  0  0  3  0  0  0  0  0  0
  186.9350  177.5070  146.7910 C   0  0  0  0  0  2  0  0  0  0  0  0
  188.8790  178.9560  143.1020 F   0  0  0  0  0  0  0  0  0  0  0  0
  189.9310  177.0780  147.0690 C   0  0  0  0  0  3  0  0  0  0  0  0
  186.1910  177.9910  144.5530 N   0  0  0  0  0  0  0  0  0  0  0  0
  185.1920  178.5920  144.8130 O   0  0  0  0  0  0  0  0  0  0  0  0
  189.2060  176.4590  141.2510 N   0  0  0  0  0  2  0  0  0  0  0  0
  190.4870  176.1630  138.7430 C   0  0  0  0  0  2  0  0  0  0  0  0
  190.5540  175.9160  137.3670 O   0  0  0  0  0  0  0  0  0  0  0  0
  188.1410  176.4600  137.1350 C   0  0  2  0  0  3  0  0  0  0  0  0
  188.4430  177.5500  138.1780 C   0  0  1  0  0  0  0  0  0  0  0  0
  189.2580  177.6830  140.4300 C   0  0  2  0  0  3  0  0  0  0  0  0
  187.8960  178.3860  140.3550 C   0  0  0  0  0  2  0  0  0  0  0  0
  189.7320  178.1230  136.1210 O   0  0  0  0  0  1  0  0  0  0  0  0
  187.2780  178.0380  139.0060 C   0  0  0  0  0  2  0  0  0  0  0  0
  189.7290  177.4700  138.9840 C   0  0  1  0  0  3  0  0  0  0  0  0
  187.4090  178.6310  136.1990 O   0  0  0  0  0  1  0  0  0  0  0  0
  189.2880  175.4280  136.9890 C   0  0  0  0  0  2  0  0  0  0  0  0
  188.4810  177.8910  136.7000 C   0  0  0  0  0  0  0  0  0  0  0  0
  1 13  1  0  0  0  0
  2 14  1  6  0  0  0
  2 11  1  0  0  0  0
  3  2  1  0  0  0  0
  3  1  1  1  0  0  0
  4 12  1  1  0  0  0
  4  3  1  0  0  0  0
  6  7  1  0  0  0  0
  7  1  2  0  0  0  0
  8  5  1  0  0  0  0
  9 10  1  0  0  0  0
  9  6  2  0  0  0  0
 10 16  1  6  0  0  0
 10  4  1  0  0  0  0
 11  8  1  0  0  0  0
 13  5  2  0  0  0  0
 14 15  2  0  0  0  0
 18 17  1  0  0  0  0
 19 27  1  6  0  0  0
 19 20  1  0  0  0  0
 20 25  1  0  0  0  0
 20 24  1  1  0  0  0
 21 16  1  6  0  0  0
 22 21  1  0  0  0  0
 23 28  1  0  0  0  0
 24 22  1  0  0  0  0
 25 17  1  1  0  0  0
 25 21  1  0  0  0  0
 26 28  1  0  0  0  0
 27 18  1  0  0  0  0
 28 19  1  0  0  0  0
 28 20  1  0  0  0  0
M  END
>  <MODEL>
6

>  <REMARK>
 VINA RESULT:      -9.2      4.184      6.883
  Name = 
  3 active torsions:
  status: ('A' for Active; 'I' for Inactive)
    1  A    between atoms: C_4  and  N_9
    2  A    between atoms: C_11  and  N_12
    3  A    between atoms: N_12  and  C_24
                            x       y       z     vdW  Elec       q    Type
                         _______ _______ _______ _____ _____    ______ ____

>  <TORSDO>
F 3

$$$$
=
 OpenBabel10232409063D

 28 32  0  0  1  0  0  0  0  0999 V2000
  182.8790  178.8590  143.6830 C   0  0  0  0  0  0  0  0  0  0  0  0
  183.3010  178.9310  141.1130 C   0  0  2  0  0  3  0  0  0  0  0  0
  183.6980  178.3360  142.4860 C   0  0  1  0  0  3  0  0  0  0  0  0
  185.2210  178.4020  142.6340 C   0  0  2  0  0  3  0  0  0  0  0  0
  180.5490  179.0430  142.7110 C   0  0  0  0  0  3  0  0  0  0  0  0
  184.7130  179.1310  145.4870 C   0  0  0  0  0  3  0  0  0  0  0  0
  183.3570  179.1630  144.9040 C   0  0  0  0  0  3  0  0  0  0  0  0
  180.9310  179.5400  141.3640 C   0  0  0  0  0  2  0  0  0  0  0  0
  185.7620  178.4540  145.0330 C   0  0  0  0  0  3  0  0  0  0  0  0
  185.7060  177.5950  143.8230 C   0  0  2  0  0  3  0  0  0  0  0  0
  181.8840  178.5750  140.7070 C   0  0  0  0  0  2  0  0  0  0  0  0
  185.6910  179.7090  142.6340 F   0  0  0  0  0  0  0  0  0  0  0  0
  181.4030  178.7880  143.7010 C   0  0  0  0  0  3  0  0  0  0  0  0
  184.2020  178.5100  140.0620 N   0  0  0  0  0  0  0  0  0  0  0  0
  184.8250  179.3070  139.4280 O   0  0  0  0  0  0  0  0  0  0  0  0
  187.0310  177.0400  143.5530 N   0  0  0  0  0  2  0  0  0  0  0  0
  189.3180  177.7160  145.0790 C   0  0  0  0  0  2  0  0  0  0  0  0
  190.6510  177.6100  145.4950 O   0  0  0  0  0  0  0  0  0  0  0  0
  191.2400  176.4630  143.3720 C   0  0  2  0  0  3  0  0  0  0  0  0
  190.2530  177.4590  142.7390 C   0  0  1  0  0  0  0  0  0  0  0  0
  187.9300  178.0260  142.9250 C   0  0  2  0  0  3  0  0  0  0  0  0
  188.2380  177.6780  141.4620 C   0  0  0  0  0  2  0  0  0  0  0  0
  192.1590  178.7880  143.6420 O   0  0  0  0  0  1  0  0  0  0  0  0
  189.6260  177.0500  141.4260 C   0  0  0  0  0  2  0  0  0  0  0  0
  189.2810  178.2100  143.6320 C   0  0  1  0  0  3  0  0  0  0  0  0
  192.4280  177.6630  141.5630 O   0  0  0  0  0  1  0  0  0  0  0  0
  191.1540  176.4280  144.9190 C   0  0  0  0  0  2  0  0  0  0  0  0
  191.7350  177.7840  142.7690 C   0  0  0  0  0  0  0  0  0  0  0  0
  1 13  1  0  0  0  0
  1  7  2  0  0  0  0
  2 14  1  6  0  0  0
  2  3  1  0  0  0  0
  3  4  1  0  0  0  0
  3  1  1  1  0  0  0
  4 12  1  1  0  0  0
  4 10  1  0  0  0  0
  5 13  2  0  0  0  0
  7  6  1  0  0  0  0
  8  5  1  0  0  0  0
  9  6  2  0  0  0  0
 10 16  1  6  0  0  0
 10  9  1  0  0  0  0
 11  2  1  0  0  0  0
 11  8  1  0  0  0  0
 15 14  2  0  0  0  0
 17 18  1  0  0  0  0
 19 27  1  1  0  0  0
 20 24  1  6  0  0  0
 20 28  1  0  0  0  0
 20 19  1  0  0  0  0
 20 25  1  0  0  0  0
 21 16  1  1  0  0  0
 21 25  1  0  0  0  0
 22 21  1  0  0  0  0
 24 22  1  0  0  0  0
 25 17  1  1  0  0  0
 26 28  1  0  0  0  0
 27 18  1  0  0  0  0
 28 19  1  0  0  0  0
 28 23  1  0  0  0  0
M  END
>  <MODEL>
7

>  <REMARK>
 VINA RESULT:      -9.1      1.094      2.102
  Name = 
  3 active torsions:
  status: ('A' for Active; 'I' for Inactive)
    1  A    between atoms: C_4  and  N_9
    2  A    between atoms: C_11  and  N_12
    3  A    between atoms: N_12  and  C_24
                            x       y       z     vdW  Elec       q    Type
                         _______ _______ _______ _____ _____    ______ ____

>  <TORSDO>
F 3

$$$$
=
 OpenBabel10232409063D

 28 32  0  0  1  0  0  0  0  0999 V2000
  188.8760  176.2630  137.0840 C   0  0  0  0  0  0  0  0  0  0  0  0
  191.3820  176.5600  137.7280 C   0  0  2  0  0  3  0  0  0  0  0  0
  189.9150  176.4510  138.2080 C   0  0  1  0  0  3  0  0  0  0  0  0
  189.6310  177.5810  139.2020 C   0  0  2  0  0  3  0  0  0  0  0  0
  190.0810  174.7200  135.4790 C   0  0  0  0  0  3  0  0  0  0  0  0
  186.9530  177.7920  137.8940 C   0  0  0  0  0  3  0  0  0  0  0  0
  187.6630  176.8410  137.0150 C   0  0  0  0  0  3  0  0  0  0  0  0
  191.4370  175.3140  135.6080 C   0  0  0  0  0  2  0  0  0  0  0  0
  187.2180  178.0510  139.1700 C   0  0  0  0  0  3  0  0  0  0  0  0
  188.3100  177.3800  139.9190 C   0  0  2  0  0  3  0  0  0  0  0  0
  191.8750  175.2960  137.0500 C   0  0  0  0  0  2  0  0  0  0  0  0
  189.7500  178.8350  138.6170 F   0  0  0  0  0  0  0  0  0  0  0  0
  188.9900  175.1670  136.1000 C   0  0  0  0  0  3  0  0  0  0  0  0
  192.2820  176.8820  138.8150 N   0  0  0  0  0  0  0  0  0  0  0  0
  193.4660  176.8910  138.6540 O   0  0  0  0  0  0  0  0  0  0  0  0
  188.3820  177.9240  141.2750 N   0  0  0  0  0  2  0  0  0  0  0  0
  190.9600  177.5120  142.3710 C   0  0  0  0  0  2  0  0  0  0  0  0
  191.9980  177.6940  143.2920 O   0  0  0  0  0  0  0  0  0  0  0  0
  190.3730  178.5110  144.9850 C   0  0  2  0  0  3  0  0  0  0  0  0
  189.4550  177.4200  144.4070 C   0  0  1  0  0  0  0  0  0  0  0  0
  188.4620  176.8630  142.2960 C   0  0  2  0  0  3  0  0  0  0  0  0
  187.3510  176.9880  143.3470 C   0  0  0  0  0  2  0  0  0  0  0  0
  191.3980  176.2640  145.4590 O   0  0  0  0  0  1  0  0  0  0  0  0
  187.9690  177.6170  144.5900 C   0  0  0  0  0  2  0  0  0  0  0  0
  189.7930  176.8030  143.0600 C   0  0  1  0  0  3  0  0  0  0  0  0
  189.6450  177.0620  146.8540 O   0  0  0  0  0  1  0  0  0  0  0  0
  191.6210  178.7800  144.1050 C   0  0  0  0  0  2  0  0  0  0  0  0
  190.3070  177.1190  145.6270 C   0  0  0  0  0  0  0  0  0  0  0  0
  2  3  1  0  0  0  0
  2 14  1  1  0  0  0
  3  1  1  6  0  0  0
  3  4  1  0  0  0  0
  4 12  1  6  0  0  0
  4 10  1  0  0  0  0
  5  8  1  0  0  0  0
  5 13  2  0  0  0  0
  6  9  2  0  0  0  0
  7  1  2  0  0  0  0
  7  6  1  0  0  0  0
  8 11  1  0  0  0  0
  9 10  1  0  0  0  0
 10 16  1  1  0  0  0
 11  2  1  0  0  0  0
 13  1  1  0  0  0  0
 15 14  2  0  0  0  0
 17 18  1  0  0  0  0
 18 27  1  0  0  0  0
 19 27  1  6  0  0  0
 19 28  1  0  0  0  0
 20 24  1  1  0  0  0
 20 19  1  0  0  0  0
 20 28  1  0  0  0  0
 21 16  1  6  0  0  0
 21 25  1  0  0  0  0
 21 22  1  0  0  0  0
 22 24  1  0  0  0  0
 23 28  1  0  0  0  0
 25 17  1  6  0  0  0
 25 20  1  0  0  0  0
 28 26  1  0  0  0  0
M  END
>  <MODEL>
8

>  <REMARK>
 VINA RESULT:      -8.8      4.022      6.773
  Name = 
  3 active torsions:
  status: ('A' for Active; 'I' for Inactive)
    1  A    between atoms: C_4  and  N_9
    2  A    between atoms: C_11  and  N_12
    3  A    between atoms: N_12  and  C_24
                            x       y       z     vdW  Elec       q    Type
                         _______ _______ _______ _____ _____    ______ ____

>  <TORSDO>
F 3

$$$$
=
 OpenBabel10232409063D

 28 32  0  0  1  0  0  0  0  0999 V2000
  188.5460  177.4010  146.0720 C   0  0  0  0  0  0  0  0  0  0  0  0
  190.4110  176.4470  144.5250 C   0  0  2  0  0  3  0  0  0  0  0  0
  189.1500  177.3350  144.6560 C   0  0  1  0  0  3  0  0  0  0  0  0
  188.1770  176.9860  143.5260 C   0  0  2  0  0  3  0  0  0  0  0  0
  190.6040  177.4390  147.5440 C   0  0  0  0  0  3  0  0  0  0  0  0
  186.0110  177.3070  145.5600 C   0  0  0  0  0  3  0  0  0  0  0  0
  187.2360  177.3930  146.3810 C   0  0  0  0  0  3  0  0  0  0  0  0
  191.4280  176.4790  146.7640 C   0  0  0  0  0  2  0  0  0  0  0  0
  185.9020  177.5620  144.2610 C   0  0  0  0  0  3  0  0  0  0  0  0
  187.0500  177.9960  143.4240 C   0  0  2  0  0  3  0  0  0  0  0  0
  191.5790  176.9600  145.3450 C   0  0  0  0  0  2  0  0  0  0  0  0
  187.7300  175.6740  143.6060 F   0  0  0  0  0  0  0  0  0  0  0  0
  189.3570  177.7950  147.2430 C   0  0  0  0  0  3  0  0  0  0  0  0
  190.8360  176.3140  143.1480 N   0  0  0  0  0  0  0  0  0  0  0  0
  191.7850  176.9100  142.7340 O   0  0  0  0  0  0  0  0  0  0  0  0
  186.6190  178.1360  142.0340 N   0  0  0  0  0  2  0  0  0  0  0  0
  185.7400  178.5440  139.3730 C   0  0  0  0  0  2  0  0  0  0  0  0
  184.8880  178.3890  138.2730 O   0  0  0  0  0  0  0  0  0  0  0  0
  183.0360  177.7080  139.7830 C   0  0  2  0  0  3  0  0  0  0  0  0
  183.6080  178.7870  140.7190 C   0  0  1  0  0  0  0  0  0  0  0  0
  185.6690  179.2500  141.8550 C   0  0  2  0  0  3  0  0  0  0  0  0
  184.5340  179.2120  142.8870 C   0  0  0  0  0  2  0  0  0  0  0  0
  182.7700  179.9530  138.6800 O   0  0  0  0  0  1  0  0  0  0  0  0
  183.3050  178.6380  142.1910 C   0  0  0  0  0  2  0  0  0  0  0  0
  185.0090  179.3200  140.4700 C   0  0  1  0  0  3  0  0  0  0  0  0
  181.2060  179.2780  140.3400 O   0  0  0  0  0  1  0  0  0  0  0  0
  183.9880  177.3590  138.6110 C   0  0  0  0  0  2  0  0  0  0  0  0
  182.4730  179.1350  139.7730 C   0  0  0  0  0  0  0  0  0  0  0  0
  1  7  2  0  0  0  0
  1 13  1  0  0  0  0
  2 14  1  6  0  0  0
  2  3  1  0  0  0  0
  2 11  1  0  0  0  0
  3  1  1  1  0  0  0
  4 12  1  1  0  0  0
  4  3  1  0  0  0  0
  6  7  1  0  0  0  0
  8  5  1  0  0  0  0
  9  6  2  0  0  0  0
 10 16  1  6  0  0  0
 10  4  1  0  0  0  0
 10  9  1  0  0  0  0
 11  8  1  0  0  0  0
 13  5  2  0  0  0  0
 15 14  2  0  0  0  0
 18 27  1  0  0  0  0
 18 17  1  0  0  0  0
 19 27  1  6  0  0  0
 19 20  1  0  0  0  0
 20 24  1  1  0  0  0
 21 16  1  6  0  0  0
 21 22  1  0  0  0  0
 23 28  1  0  0  0  0
 24 22  1  0  0  0  0
 25 17  1  6  0  0  0
 25 20  1  0  0  0  0
 25 21  1  0  0  0  0
 28 19  1  0  0  0  0
 28 26  1  0  0  0  0
 28 20  1  0  0  0  0
M  END
>  <MODEL>
9

>  <REMARK>
 VINA RESULT:      -8.8      2.054      7.751
  Name = 
  3 active torsions:
  status: ('A' for Active; 'I' for Inactive)
    1  A    between atoms: C_4  and  N_9
    2  A    between atoms: C_11  and  N_12
    3  A    between atoms: N_12  and  C_24
                            x       y       z     vdW  Elec       q    Type
                         _______ _______ _______ _____ _____    ______ ____

>  <TORSDO>
F 3

$$$$
