=
 OpenBabel10232411093D

 36 38  0  0  1  0  0  0  0  0999 V2000
  188.5420  177.1980  139.9540 C   0  0  0  0  0  2  0  0  0  0  0  0
  184.6770  178.5130  138.2960 C   0  0  0  0  0  0  0  0  0  0  0  0
  185.2160  178.3600  141.3730 C   0  0  0  0  0  0  0  0  0  0  0  0
  189.5800  178.1000  139.3000 C   0  0  2  0  0  3  0  0  0  0  0  0
  187.6860  178.9750  141.5380 C   0  0  0  0  0  2  0  0  0  0  0  0
  184.4430  177.3040  137.6630 C   0  0  0  0  0  0  0  0  0  0  0  0
  185.4430  177.1050  136.7830 N   0  0  0  0  0  0  0  0  0  0  0  0
  188.3120  177.5890  141.4080 C   0  0  0  0  0  2  0  0  0  0  0  0
  188.9900  178.7840  138.0670 C   0  0  0  0  0  2  0  0  0  0  0  0
  188.6350  177.7880  136.9710 C   0  0  0  0  0  2  0  0  0  0  0  0
  186.2310  178.1640  136.8850 N   0  0  0  0  0  0  0  0  0  0  0  0
  185.8100  179.0320  137.7920 N   0  0  0  0  0  0  0  0  0  0  0  0
  187.4740  178.3140  136.1440 C   0  0  0  0  0  2  0  0  0  0  0  0
  183.8930  179.1470  139.4020 C   0  0  0  0  0  2  0  0  0  0  0  0
  184.0680  178.4130  140.6970 C   0  0  0  0  0  3  0  0  0  0  0  0
  186.3850  179.0270  140.8820 N   0  0  0  0  0  2  0  0  0  0  0  0
  191.9040  177.2400  139.8220 C   0  0  0  0  0  0  0  0  0  0  0  0
  191.8910  177.7880  140.9570 O   0  0  0  0  0  0  0  0  0  0  0  0
  190.7690  177.3280  138.9580 N   0  0  0  0  0  2  0  0  0  0  0  0
  193.1000  176.4650  139.3910 C   0  0  0  0  0  2  0  0  0  0  0  0
  193.0810  176.1610  136.7860 N   0  0  0  0  0  0  0  0  0  0  0  0
  193.0880  176.2970  137.9360 C   0  0  0  0  0  0  0  0  0  0  0  0
  183.3360  176.3600  137.8770 C   0  0  0  0  0  0  0  0  0  0  0  0
  182.0320  176.6780  137.4040 N   0  0  0  0  0  1  0  0  0  0  0  0
  183.5270  175.2700  138.4780 O   0  0  0  0  0  0  0  0  0  0  0  0
  185.2400  177.6130  142.6650 C   0  0  0  0  0  2  0  0  0  0  0  0
  185.1560  178.5480  143.7760 N   0  0  0  0  0  2  0  0  0  0  0  0
  186.2890  178.6770  147.4690 C   0  0  0  0  0  2  0  0  0  0  0  0
  185.5210  179.1340  146.2290 C   0  0  0  0  0  2  0  0  0  0  0  0
  187.0690  177.7050  144.9030 C   0  0  0  0  0  3  0  0  0  0  0  0
  185.9280  178.4000  144.9680 C   0  0  0  0  0  0  0  0  0  0  0  0
  187.9450  177.4660  146.1000 C   0  0  0  0  0  2  0  0  0  0  0  0
  187.7770  178.5670  147.1470 C   0  0  2  0  0  3  0  0  0  0  0  0
  187.8700  177.3510  149.2120 O   0  0  0  0  0  1  0  0  0  0  0  0
  188.5810  178.2390  148.4050 C   0  0  1  0  0  3  0  0  0  0  0  0
  189.9120  177.6030  148.0380 C   0  0  0  0  0  1  0  0  0  0  0  0
  1  8  1  0  0  0  0
  2 14  1  0  0  0  0
  3 26  1  0  0  0  0
  4 19  1  6  0  0  0
  4  1  1  0  0  0  0
  6 23  1  0  0  0  0
  6  2  1  0  0  0  0
  7 11  1  0  0  0  0
  7  6  2  0  0  0  0
  8  5  1  0  0  0  0
  9  4  1  0  0  0  0
 10  9  1  0  0  0  0
 11 12  1  0  0  0  0
 12  2  2  0  0  0  0
 13 11  1  0  0  0  0
 13 10  1  0  0  0  0
 14 15  1  0  0  0  0
 15  3  2  0  0  0  0
 16  3  1  0  0  0  0
 16  5  1  0  0  0  0
 17 18  2  0  0  0  0
 19 17  1  0  0  0  0
 20 17  1  0  0  0  0
 21 22  3  0  0  0  0
 22 20  1  0  0  0  0
 23 25  2  0  0  0  0
 24 23  1  0  0  0  0
 26 27  1  0  0  0  0
 27 31  1  0  0  0  0
 29 28  1  0  0  0  0
 30 31  2  0  0  0  0
 30 32  1  0  0  0  0
 31 29  1  0  0  0  0
 32 33  1  0  0  0  0
 33 28  1  0  0  0  0
 33 35  1  1  0  0  0
 35 36  1  6  0  0  0
 35 34  1  0  0  0  0
M  END
>  <MODEL>
1

>  <REMARK>
 VINA RESULT:      -7.3      0.000      0.000
  Name = 
  8 active torsions:
  status: ('A' for Active; 'I' for Inactive)
    1  A    between atoms: C_4  and  C_19
    2  A    between atoms: C_6  and  C_34
    3  A    between atoms: C_7  and  N_24
    4  A    between atoms: C_8  and  C_32
    5  A    between atoms: C_10  and  C_13
    6  A    between atoms: C_19  and  C_33
    7  A    between atoms: N_25  and  C_28
    8  A    between atoms: N_25  and  C_34
                            x       y       z     vdW  Elec       q    Type
                         _______ _______ _______ _____ _____    ______ ____

>  <TORSDO>
F 8

$$$$
=
 OpenBabel10232411093D

 36 38  0  0  1  0  0  0  0  0999 V2000
  188.9260  176.7260  139.2280 C   0  0  0  0  0  2  0  0  0  0  0  0
  184.9370  178.5950  139.1170 C   0  0  0  0  0  0  0  0  0  0  0  0
  186.5030  178.1460  141.7860 C   0  0  0  0  0  0  0  0  0  0  0  0
  189.7760  177.5520  138.2720 C   0  0  2  0  0  3  0  0  0  0  0  0
  188.9310  178.4620  141.0690 C   0  0  0  0  0  2  0  0  0  0  0  0
  184.3350  177.4730  138.5730 C   0  0  0  0  0  0  0  0  0  0  0  0
  184.9230  177.2300  137.3870 N   0  0  0  0  0  0  0  0  0  0  0  0
  189.2790  177.0280  140.6790 C   0  0  0  0  0  2  0  0  0  0  0  0
  188.8860  178.3920  137.3570 C   0  0  0  0  0  2  0  0  0  0  0  0
  188.0360  177.5300  136.4320 C   0  0  0  0  0  2  0  0  0  0  0  0
  185.8310  178.1820  137.2310 N   0  0  0  0  0  0  0  0  0  0  0  0
  185.8770  179.0200  138.2560 N   0  0  0  0  0  0  0  0  0  0  0  0
  186.7390  178.2460  136.0970 C   0  0  0  0  0  2  0  0  0  0  0  0
  184.6870  179.2270  140.4510 C   0  0  0  0  0  2  0  0  0  0  0  0
  185.2090  178.3810  141.5720 C   0  0  0  0  0  2  0  0  0  0  0  0
  187.5020  178.7110  140.9290 N   0  0  0  0  0  0  0  0  0  0  0  0
  191.9920  176.3820  137.9040 C   0  0  0  0  0  0  0  0  0  0  0  0
  192.4480  176.8260  138.9910 O   0  0  0  0  0  0  0  0  0  0  0  0
  190.6530  176.6790  137.5010 N   0  0  0  0  0  2  0  0  0  0  0  0
  192.8440  175.5130  137.0460 C   0  0  0  0  0  2  0  0  0  0  0  0
  194.7530  176.9330  135.9440 N   0  0  0  0  0  0  0  0  0  0  0  0
  193.9090  176.3070  136.4320 C   0  0  0  0  0  0  0  0  0  0  0  0
  183.2600  176.6480  139.1430 C   0  0  0  0  0  0  0  0  0  0  0  0
  182.2630  177.2490  139.9630 N   0  0  0  0  0  1  0  0  0  0  0  0
  183.2100  175.4100  138.9150 O   0  0  0  0  0  0  0  0  0  0  0  0
  186.8830  177.3040  142.9590 C   0  0  0  0  0  2  0  0  0  0  0  0
  187.3030  178.1550  144.0620 N   0  0  0  0  0  2  0  0  0  0  0  0
  190.9900  177.7350  145.1400 C   0  0  0  0  0  2  0  0  0  0  0  0
  189.8190  177.7640  144.1590 C   0  0  0  0  0  2  0  0  0  0  0  0
  188.3220  177.6370  146.1440 C   0  0  0  0  0  3  0  0  0  0  0  0
  188.4710  177.8890  144.8390 C   0  0  0  0  0  0  0  0  0  0  0  0
  189.4840  177.3700  147.0590 C   0  0  0  0  0  2  0  0  0  0  0  0
  190.6760  176.7900  146.2970 C   0  0  2  0  0  3  0  0  0  0  0  0
  191.7160  177.4340  148.3600 O   0  0  0  0  0  1  0  0  0  0  0  0
  191.8830  176.6440  147.2220 C   0  0  1  0  0  3  0  0  0  0  0  0
  192.0540  175.1980  147.6550 C   0  0  0  0  0  1  0  0  0  0  0  0
  1  8  1  0  0  0  0
  2 14  1  0  0  0  0
  3 26  1  0  0  0  0
  4 19  1  6  0  0  0
  4  1  1  0  0  0  0
  6  2  1  0  0  0  0
  6 23  1  0  0  0  0
  7  6  2  0  0  0  0
  8  5  1  0  0  0  0
  9  4  1  0  0  0  0
 10  9  1  0  0  0  0
 11  7  1  0  0  0  0
 11 12  1  0  0  0  0
 12  2  2  0  0  0  0
 13 10  1  0  0  0  0
 13 11  1  0  0  0  0
 14 15  1  0  0  0  0
 15  3  1  0  0  0  0
 16  5  1  0  0  0  0
 16  3  2  0  0  0  0
 17 18  2  0  0  0  0
 19 17  1  0  0  0  0
 20 17  1  0  0  0  0
 21 22  3  0  0  0  0
 22 20  1  0  0  0  0
 23 24  1  0  0  0  0
 25 23  2  0  0  0  0
 26 27  1  0  0  0  0
 27 31  1  0  0  0  0
 28 33  1  0  0  0  0
 29 31  1  0  0  0  0
 29 28  1  0  0  0  0
 30 32  1  0  0  0  0
 31 30  2  0  0  0  0
 33 32  1  0  0  0  0
 33 35  1  1  0  0  0
 35 36  1  1  0  0  0
 35 34  1  0  0  0  0
M  END
>  <MODEL>
2

>  <REMARK>
 VINA RESULT:      -7.2      1.698      2.233
  Name = 
  8 active torsions:
  status: ('A' for Active; 'I' for Inactive)
    1  A    between atoms: C_4  and  C_19
    2  A    between atoms: C_6  and  C_34
    3  A    between atoms: C_7  and  N_24
    4  A    between atoms: C_8  and  C_32
    5  A    between atoms: C_10  and  C_13
    6  A    between atoms: C_19  and  C_33
    7  A    between atoms: N_25  and  C_28
    8  A    between atoms: N_25  and  C_34
                            x       y       z     vdW  Elec       q    Type
                         _______ _______ _______ _____ _____    ______ ____

>  <TORSDO>
F 8

$$$$
=
 OpenBabel10232411093D

 36 38  0  0  1  0  0  0  0  0999 V2000
  190.3490  175.7120  138.1050 C   0  0  0  0  0  2  0  0  0  0  0  0
  186.4640  176.5770  136.2150 C   0  0  0  0  0  0  0  0  0  0  0  0
  187.4400  178.0550  138.7930 C   0  0  0  0  0  0  0  0  0  0  0  0
  191.3770  175.8910  136.9960 C   0  0  2  0  0  3  0  0  0  0  0  0
  189.9630  178.1890  138.4370 C   0  0  0  0  0  2  0  0  0  0  0  0
  185.9940  175.2880  136.3990 C   0  0  0  0  0  0  0  0  0  0  0  0
  186.8170  174.4550  135.7350 N   0  0  0  0  0  0  0  0  0  0  0  0
  190.3900  176.8760  139.0860 C   0  0  0  0  0  2  0  0  0  0  0  0
  190.6940  175.8740  135.6290 C   0  0  0  0  0  2  0  0  0  0  0  0
  190.0600  174.5240  135.3190 C   0  0  0  0  0  2  0  0  0  0  0  0
  187.7340  175.2270  135.1700 N   0  0  0  0  0  0  0  0  0  0  0  0
  187.5610  176.5110  135.4420 N   0  0  0  0  0  0  0  0  0  0  0  0
  188.8590  174.7090  134.4070 C   0  0  0  0  0  2  0  0  0  0  0  0
  185.9380  177.8490  136.8040 C   0  0  0  0  0  2  0  0  0  0  0  0
  186.2180  177.9370  138.2740 C   0  0  0  0  0  2  0  0  0  0  0  0
  188.5930  178.1100  137.9450 N   0  0  0  0  0  0  0  0  0  0  0  0
  193.6440  175.0600  137.7610 C   0  0  0  0  0  0  0  0  0  0  0  0
  193.8800  176.1450  138.3580 O   0  0  0  0  0  0  0  0  0  0  0  0
  192.3990  174.8550  137.0890 N   0  0  0  0  0  2  0  0  0  0  0  0
  194.6580  173.9700  137.7820 C   0  0  0  0  0  2  0  0  0  0  0  0
  196.3830  174.3860  139.7120 N   0  0  0  0  0  0  0  0  0  0  0  0
  195.6210  174.2040  138.8590 C   0  0  0  0  0  0  0  0  0  0  0  0
  184.8260  174.8450  137.1750 C   0  0  0  0  0  0  0  0  0  0  0  0
  184.8480  173.5800  137.8270 N   0  0  0  0  0  1  0  0  0  0  0  0
  183.8020  175.5720  137.2690 O   0  0  0  0  0  0  0  0  0  0  0  0
  187.5700  178.1580  140.2760 C   0  0  0  0  0  2  0  0  0  0  0  0
  186.2750  178.4670  140.8640 N   0  0  0  0  0  2  0  0  0  0  0  0
  184.6500  179.0040  144.3290 C   0  0  0  0  0  2  0  0  0  0  0  0
  184.9040  179.2860  142.8490 C   0  0  0  0  0  2  0  0  0  0  0  0
  186.9520  177.8890  143.0670 C   0  0  0  0  0  3  0  0  0  0  0  0
  186.0540  178.4870  142.2750 C   0  0  0  0  0  0  0  0  0  0  0  0
  186.8050  177.8280  144.5600 C   0  0  0  0  0  2  0  0  0  0  0  0
  185.9730  178.9940  145.0910 C   0  0  2  0  0  3  0  0  0  0  0  0
  184.4690  178.3010  146.8250 O   0  0  0  0  0  1  0  0  0  0  0  0
  185.7330  178.8430  146.5920 C   0  0  1  0  0  3  0  0  0  0  0  0
  186.7760  177.9270  147.2110 C   0  0  0  0  0  1  0  0  0  0  0  0
  1  8  1  0  0  0  0
  2  6  1  0  0  0  0
  2 14  1  0  0  0  0
  3 26  1  0  0  0  0
  4 19  1  6  0  0  0
  4  1  1  0  0  0  0
  5  8  1  0  0  0  0
  6 23  1  0  0  0  0
  7  6  2  0  0  0  0
  9  4  1  0  0  0  0
 10  9  1  0  0  0  0
 11 12  1  0  0  0  0
 11  7  1  0  0  0  0
 12  2  2  0  0  0  0
 13 11  1  0  0  0  0
 13 10  1  0  0  0  0
 14 15  1  0  0  0  0
 15  3  1  0  0  0  0
 16  5  1  0  0  0  0
 16  3  2  0  0  0  0
 17 20  1  0  0  0  0
 17 18  2  0  0  0  0
 19 17  1  0  0  0  0
 20 22  1  0  0  0  0
 22 21  3  0  0  0  0
 23 25  2  0  0  0  0
 23 24  1  0  0  0  0
 26 27  1  0  0  0  0
 27 31  1  0  0  0  0
 28 33  1  0  0  0  0
 29 28  1  0  0  0  0
 30 32  1  0  0  0  0
 31 29  1  0  0  0  0
 31 30  2  0  0  0  0
 32 33  1  0  0  0  0
 33 35  1  1  0  0  0
 35 34  1  0  0  0  0
 35 36  1  6  0  0  0
M  END
>  <MODEL>
3

>  <REMARK>
 VINA RESULT:      -7.2      2.494      3.424
  Name = 
  8 active torsions:
  status: ('A' for Active; 'I' for Inactive)
    1  A    between atoms: C_4  and  C_19
    2  A    between atoms: C_6  and  C_34
    3  A    between atoms: C_7  and  N_24
    4  A    between atoms: C_8  and  C_32
    5  A    between atoms: C_10  and  C_13
    6  A    between atoms: C_19  and  C_33
    7  A    between atoms: N_25  and  C_28
    8  A    between atoms: N_25  and  C_34
                            x       y       z     vdW  Elec       q    Type
                         _______ _______ _______ _____ _____    ______ ____

>  <TORSDO>
F 8

$$$$
=
 OpenBabel10232411093D

 36 38  0  0  1  0  0  0  0  0999 V2000
  187.1430  177.3320  142.4430 C   0  0  0  0  0  2  0  0  0  0  0  0
  187.5070  177.9650  138.0970 C   0  0  0  0  0  0  0  0  0  0  0  0
  184.8440  178.4930  139.6510 C   0  0  0  0  0  0  0  0  0  0  0  0
  188.2640  178.1590  143.0590 C   0  0  2  0  0  3  0  0  0  0  0  0
  185.6750  179.3230  141.9160 C   0  0  0  0  0  2  0  0  0  0  0  0
  187.8060  176.6370  137.8460 C   0  0  0  0  0  0  0  0  0  0  0  0
  188.9380  176.3410  138.5110 N   0  0  0  0  0  0  0  0  0  0  0  0
  185.7890  177.9940  142.6580 C   0  0  0  0  0  2  0  0  0  0  0  0
  189.3000  178.5250  141.9970 C   0  0  0  0  0  2  0  0  0  0  0  0
  190.0170  177.2990  141.4450 C   0  0  0  0  0  2  0  0  0  0  0  0
  189.3000  177.4580  139.1240 N   0  0  0  0  0  0  0  0  0  0  0  0
  188.4590  178.4570  138.9080 N   0  0  0  0  0  0  0  0  0  0  0  0
  190.4490  177.5500  140.0110 C   0  0  0  0  0  2  0  0  0  0  0  0
  186.3150  178.7490  137.6450 C   0  0  0  0  0  2  0  0  0  0  0  0
  185.0650  178.3150  138.3490 C   0  0  0  0  0  3  0  0  0  0  0  0
  185.8220  179.1350  140.4780 N   0  0  0  0  0  2  0  0  0  0  0  0
  188.4500  177.5910  145.5200 C   0  0  0  0  0  0  0  0  0  0  0  0
  187.4760  178.3380  145.8030 O   0  0  0  0  0  0  0  0  0  0  0  0
  188.8750  177.4300  144.1640 N   0  0  0  0  0  2  0  0  0  0  0  0
  189.1460  176.8430  146.6030 C   0  0  0  0  0  2  0  0  0  0  0  0
  191.7430  176.9950  146.2740 N   0  0  0  0  0  0  0  0  0  0  0  0
  190.5960  176.9290  146.4170 C   0  0  0  0  0  0  0  0  0  0  0  0
  187.0580  175.6730  137.0250 C   0  0  0  0  0  0  0  0  0  0  0  0
  186.8070  175.9550  135.6520 N   0  0  0  0  0  1  0  0  0  0  0  0
  186.6330  174.5970  137.5230 O   0  0  0  0  0  0  0  0  0  0  0  0
  183.5410  178.0330  140.2160 C   0  0  0  0  0  2  0  0  0  0  0  0
  182.5680  177.8780  139.1460 N   0  0  0  0  0  2  0  0  0  0  0  0
  180.6100  180.1200  136.6810 C   0  0  0  0  0  2  0  0  0  0  0  0
  181.5770  179.0090  137.0890 C   0  0  0  0  0  2  0  0  0  0  0  0
  181.5890  180.0320  139.3590 C   0  0  0  0  0  3  0  0  0  0  0  0
  181.8670  178.9830  138.5750 C   0  0  0  0  0  0  0  0  0  0  0  0
  180.8360  181.2360  138.8690 C   0  0  0  0  0  2  0  0  0  0  0  0
  181.0040  181.4280  137.3620 C   0  0  2  0  0  3  0  0  0  0  0  0
  180.0990  183.6020  137.8170 O   0  0  0  0  0  1  0  0  0  0  0  0
  180.1310  182.5800  136.8670 C   0  0  1  0  0  3  0  0  0  0  0  0
  180.6760  183.1450  135.5660 C   0  0  0  0  0  1  0  0  0  0  0  0
  1  8  1  0  0  0  0
  1  4  1  0  0  0  0
  2 12  2  0  0  0  0
  3 26  1  0  0  0  0
  3 16  1  0  0  0  0
  4 19  1  1  0  0  0
  5  8  1  0  0  0  0
  6  2  1  0  0  0  0
  6  7  2  0  0  0  0
  7 11  1  0  0  0  0
  9  4  1  0  0  0  0
 10  9  1  0  0  0  0
 11 13  1  0  0  0  0
 12 11  1  0  0  0  0
 13 10  1  0  0  0  0
 14  2  1  0  0  0  0
 14 15  1  0  0  0  0
 15  3  2  0  0  0  0
 16  5  1  0  0  0  0
 17 18  2  0  0  0  0
 17 20  1  0  0  0  0
 19 17  1  0  0  0  0
 21 22  3  0  0  0  0
 22 20  1  0  0  0  0
 23 25  2  0  0  0  0
 23  6  1  0  0  0  0
 24 23  1  0  0  0  0
 27 26  1  0  0  0  0
 28 29  1  0  0  0  0
 28 33  1  0  0  0  0
 29 31  1  0  0  0  0
 31 27  1  0  0  0  0
 31 30  2  0  0  0  0
 32 30  1  0  0  0  0
 33 35  1  6  0  0  0
 33 32  1  0  0  0  0
 35 36  1  6  0  0  0
 35 34  1  0  0  0  0
M  END
>  <MODEL>
4

>  <REMARK>
 VINA RESULT:      -7.1      3.248      7.434
  Name = 
  8 active torsions:
  status: ('A' for Active; 'I' for Inactive)
    1  A    between atoms: C_4  and  C_19
    2  A    between atoms: C_6  and  C_34
    3  A    between atoms: C_7  and  N_24
    4  A    between atoms: C_8  and  C_32
    5  A    between atoms: C_10  and  C_13
    6  A    between atoms: C_19  and  C_33
    7  A    between atoms: N_25  and  C_28
    8  A    between atoms: N_25  and  C_34
                            x       y       z     vdW  Elec       q    Type
                         _______ _______ _______ _____ _____    ______ ____

>  <TORSDO>
F 8

$$$$
=
 OpenBabel10232411093D

 36 38  0  0  1  0  0  0  0  0999 V2000
  188.0310  174.0450  136.6570 C   0  0  0  0  0  2  0  0  0  0  0  0
  187.3290  178.3910  136.8480 C   0  0  0  0  0  0  0  0  0  0  0  0
  189.8850  177.0520  138.0530 C   0  0  0  0  0  0  0  0  0  0  0  0
  187.9200  173.6900  135.1800 C   0  0  2  0  0  3  0  0  0  0  0  0
  190.3130  175.1170  136.4460 C   0  0  0  0  0  2  0  0  0  0  0  0
  186.1690  178.2550  137.5890 C   0  0  0  0  0  0  0  0  0  0  0  0
  185.2990  177.5330  136.8570 N   0  0  0  0  0  0  0  0  0  0  0  0
  189.4830  174.0270  137.1190 C   0  0  0  0  0  2  0  0  0  0  0  0
  187.2200  174.8130  134.4150 C   0  0  0  0  0  2  0  0  0  0  0  0
  185.7720  174.9930  134.8530 C   0  0  0  0  0  2  0  0  0  0  0  0
  185.9210  177.2630  135.7200 N   0  0  0  0  0  0  0  0  0  0  0  0
  187.1500  177.7550  135.6770 N   0  0  0  0  0  0  0  0  0  0  0  0
  185.3470  176.4390  134.6670 C   0  0  0  0  0  2  0  0  0  0  0  0
  188.6130  179.0480  137.2470 C   0  0  0  0  0  2  0  0  0  0  0  0
  189.3470  178.2490  138.2820 C   0  0  0  0  0  2  0  0  0  0  0  0
  189.7930  176.4420  136.7600 N   0  0  0  0  0  0  0  0  0  0  0  0
  187.8990  171.1720  134.9100 C   0  0  0  0  0  0  0  0  0  0  0  0
  189.1540  171.1150  135.0070 O   0  0  0  0  0  0  0  0  0  0  0  0
  187.2160  172.4230  135.0210 N   0  0  0  0  0  2  0  0  0  0  0  0
  187.1170  169.9220  134.7100 C   0  0  0  0  0  2  0  0  0  0  0  0
  184.6010  170.3350  135.3220 N   0  0  0  0  0  0  0  0  0  0  0  0
  185.7120  170.1510  135.0510 C   0  0  0  0  0  0  0  0  0  0  0  0
  185.8820  178.7670  138.9380 C   0  0  0  0  0  0  0  0  0  0  0  0
  184.7450  179.5950  139.1540 N   0  0  0  0  0  1  0  0  0  0  0  0
  186.6340  178.4820  139.9070 O   0  0  0  0  0  0  0  0  0  0  0  0
  190.6110  176.3790  139.1710 C   0  0  0  0  0  2  0  0  0  0  0  0
  191.0120  177.3650  140.1630 N   0  0  0  0  0  2  0  0  0  0  0  0
  190.5150  178.0750  143.9290 C   0  0  0  0  0  2  0  0  0  0  0  0
  191.3140  177.8440  142.6470 C   0  0  0  0  0  2  0  0  0  0  0  0
  189.2180  176.9340  141.6590 C   0  0  0  0  0  3  0  0  0  0  0  0
  190.4570  177.4050  141.4780 C   0  0  0  0  0  0  0  0  0  0  0  0
  188.5290  176.9510  142.9940 C   0  0  0  0  0  2  0  0  0  0  0  0
  189.5350  176.9260  144.1450 C   0  0  2  0  0  3  0  0  0  0  0  0
  189.5900  177.8290  146.3660 O   0  0  0  0  0  1  0  0  0  0  0  0
  188.8180  177.0700  145.4870 C   0  0  1  0  0  3  0  0  0  0  0  0
  187.4740  177.7550  145.3050 C   0  0  0  0  0  1  0  0  0  0  0  0
  1  8  1  0  0  0  0
  2 14  1  0  0  0  0
  2  6  1  0  0  0  0
  3 15  1  0  0  0  0
  3 26  1  0  0  0  0
  4 19  1  1  0  0  0
  4  1  1  0  0  0  0
  5 16  1  0  0  0  0
  5  8  1  0  0  0  0
  6 23  1  0  0  0  0
  7  6  2  0  0  0  0
  9 10  1  0  0  0  0
  9  4  1  0  0  0  0
 11  7  1  0  0  0  0
 12 11  1  0  0  0  0
 12  2  2  0  0  0  0
 13 10  1  0  0  0  0
 13 11  1  0  0  0  0
 14 15  1  0  0  0  0
 16  3  2  0  0  0  0
 17 18  2  0  0  0  0
 17 19  1  0  0  0  0
 20 17  1  0  0  0  0
 20 22  1  0  0  0  0
 22 21  3  0  0  0  0
 23 24  1  0  0  0  0
 23 25  2  0  0  0  0
 26 27  1  0  0  0  0
 27 31  1  0  0  0  0
 28 33  1  0  0  0  0
 29 28  1  0  0  0  0
 30 32  1  0  0  0  0
 31 30  2  0  0  0  0
 31 29  1  0  0  0  0
 32 33  1  0  0  0  0
 33 35  1  1  0  0  0
 35 36  1  6  0  0  0
 35 34  1  0  0  0  0
M  END
>  <MODEL>
5

>  <REMARK>
 VINA RESULT:      -6.9      3.739      5.813
  Name = 
  8 active torsions:
  status: ('A' for Active; 'I' for Inactive)
    1  A    between atoms: C_4  and  C_19
    2  A    between atoms: C_6  and  C_34
    3  A    between atoms: C_7  and  N_24
    4  A    between atoms: C_8  and  C_32
    5  A    between atoms: C_10  and  C_13
    6  A    between atoms: C_19  and  C_33
    7  A    between atoms: N_25  and  C_28
    8  A    between atoms: N_25  and  C_34
                            x       y       z     vdW  Elec       q    Type
                         _______ _______ _______ _____ _____    ______ ____

>  <TORSDO>
F 8

$$$$
=
 OpenBabel10232411093D

 36 38  0  0  1  0  0  0  0  0999 V2000
  187.1930  177.2980  142.6210 C   0  0  0  0  0  2  0  0  0  0  0  0
  187.8210  177.9980  138.3160 C   0  0  0  0  0  0  0  0  0  0  0  0
  185.0660  178.4950  139.7110 C   0  0  0  0  0  0  0  0  0  0  0  0
  188.2700  178.1190  143.3170 C   0  0  2  0  0  3  0  0  0  0  0  0
  185.7520  179.2930  142.0340 C   0  0  0  0  0  2  0  0  0  0  0  0
  188.1400  176.6760  138.0630 C   0  0  0  0  0  0  0  0  0  0  0  0
  189.2310  176.3730  138.7930 N   0  0  0  0  0  0  0  0  0  0  0  0
  185.8250  177.9530  142.7620 C   0  0  0  0  0  2  0  0  0  0  0  0
  189.3680  178.5050  142.3260 C   0  0  0  0  0  2  0  0  0  0  0  0
  190.1220  177.2900  141.8020 C   0  0  0  0  0  2  0  0  0  0  0  0
  189.5500  177.4810  139.4430 N   0  0  0  0  0  0  0  0  0  0  0  0
  188.7190  178.4820  139.1910 N   0  0  0  0  0  0  0  0  0  0  0  0
  190.6420  177.5630  140.4010 C   0  0  0  0  0  2  0  0  0  0  0  0
  186.6560  178.7860  137.8030 C   0  0  0  0  0  2  0  0  0  0  0  0
  185.3670  178.3370  138.4220 C   0  0  0  0  0  3  0  0  0  0  0  0
  185.9880  179.1270  140.6060 N   0  0  0  0  0  2  0  0  0  0  0  0
  188.3810  177.5920  145.7920 C   0  0  0  0  0  0  0  0  0  0  0  0
  187.4530  178.4070  146.0430 O   0  0  0  0  0  0  0  0  0  0  0  0
  188.8140  177.3750  144.4470 N   0  0  0  0  0  2  0  0  0  0  0  0
  189.0090  176.8240  146.9010 C   0  0  0  0  0  2  0  0  0  0  0  0
  191.6200  176.9160  146.6840 N   0  0  0  0  0  0  0  0  0  0  0  0
  190.4670  176.8740  146.7810 C   0  0  0  0  0  0  0  0  0  0  0  0
  187.4480  175.7220  137.1830 C   0  0  0  0  0  0  0  0  0  0  0  0
  187.7860  175.6580  135.8020 N   0  0  0  0  0  1  0  0  0  0  0  0
  186.5550  174.9590  137.6380 O   0  0  0  0  0  0  0  0  0  0  0  0
  183.7320  178.0220  140.1870 C   0  0  0  0  0  2  0  0  0  0  0  0
  182.7590  178.1260  139.1100 N   0  0  0  0  0  2  0  0  0  0  0  0
  180.4490  175.0410  138.8290 C   0  0  0  0  0  2  0  0  0  0  0  0
  181.3560  176.0430  139.5410 C   0  0  0  0  0  2  0  0  0  0  0  0
  182.1400  176.7390  137.2830 C   0  0  0  0  0  3  0  0  0  0  0  0
  182.0570  176.9950  138.5940 C   0  0  0  0  0  0  0  0  0  0  0  0
  181.4230  175.5920  136.6310 C   0  0  0  0  0  2  0  0  0  0  0  0
  181.1710  174.4530  137.6190 C   0  0  2  0  0  3  0  0  0  0  0  0
  180.7320  173.1630  135.6450 O   0  0  0  0  0  1  0  0  0  0  0  0
  180.3320  173.3540  136.9690 C   0  0  1  0  0  3  0  0  0  0  0  0
  180.4950  172.0420  137.7180 C   0  0  0  0  0  1  0  0  0  0  0  0
  1  8  1  0  0  0  0
  1  4  1  0  0  0  0
  2 12  2  0  0  0  0
  3 26  1  0  0  0  0
  3 16  1  0  0  0  0
  4 19  1  1  0  0  0
  5  8  1  0  0  0  0
  6  2  1  0  0  0  0
  6  7  2  0  0  0  0
  7 11  1  0  0  0  0
  9  4  1  0  0  0  0
 10  9  1  0  0  0  0
 11 13  1  0  0  0  0
 12 11  1  0  0  0  0
 13 10  1  0  0  0  0
 14  2  1  0  0  0  0
 14 15  1  0  0  0  0
 15  3  2  0  0  0  0
 16  5  1  0  0  0  0
 17 18  2  0  0  0  0
 17 20  1  0  0  0  0
 19 17  1  0  0  0  0
 21 22  3  0  0  0  0
 22 20  1  0  0  0  0
 23 25  2  0  0  0  0
 23  6  1  0  0  0  0
 24 23  1  0  0  0  0
 27 26  1  0  0  0  0
 28 29  1  0  0  0  0
 30 31  2  0  0  0  0
 31 27  1  0  0  0  0
 31 29  1  0  0  0  0
 32 30  1  0  0  0  0
 32 33  1  0  0  0  0
 33 35  1  6  0  0  0
 33 28  1  0  0  0  0
 34 35  1  0  0  0  0
 35 36  1  1  0  0  0
M  END
>  <MODEL>
6

>  <REMARK>
 VINA RESULT:      -6.7      2.666      7.482
  Name = 
  8 active torsions:
  status: ('A' for Active; 'I' for Inactive)
    1  A    between atoms: C_4  and  C_19
    2  A    between atoms: C_6  and  C_34
    3  A    between atoms: C_7  and  N_24
    4  A    between atoms: C_8  and  C_32
    5  A    between atoms: C_10  and  C_13
    6  A    between atoms: C_19  and  C_33
    7  A    between atoms: N_25  and  C_28
    8  A    between atoms: N_25  and  C_34
                            x       y       z     vdW  Elec       q    Type
                         _______ _______ _______ _____ _____    ______ ____

>  <TORSDO>
F 8

$$$$
=
 OpenBabel10232411093D

 36 38  0  0  1  0  0  0  0  0999 V2000
  190.6760  175.7540  138.4590 C   0  0  0  0  0  2  0  0  0  0  0  0
  186.9030  175.8570  136.1850 C   0  0  0  0  0  0  0  0  0  0  0  0
  187.5860  177.9620  138.3960 C   0  0  0  0  0  0  0  0  0  0  0  0
  191.7740  175.7500  137.4040 C   0  0  2  0  0  3  0  0  0  0  0  0
  190.1160  178.2040  138.1730 C   0  0  0  0  0  2  0  0  0  0  0  0
  186.4990  174.6140  136.6390 C   0  0  0  0  0  0  0  0  0  0  0  0
  187.4200  173.7150  136.2420 N   0  0  0  0  0  0  0  0  0  0  0  0
  190.5710  177.1130  139.1380 C   0  0  0  0  0  2  0  0  0  0  0  0
  191.2000  175.3650  136.0410 C   0  0  0  0  0  2  0  0  0  0  0  0
  190.6750  173.9350  136.0200 C   0  0  0  0  0  2  0  0  0  0  0  0
  188.3290  174.4040  135.5680 N   0  0  0  0  0  0  0  0  0  0  0  0
  188.0590  175.6990  135.5180 N   0  0  0  0  0  0  0  0  0  0  0  0
  189.5390  173.8120  135.0190 C   0  0  0  0  0  2  0  0  0  0  0  0
  186.2570  177.1860  136.4240 C   0  0  0  0  0  2  0  0  0  0  0  0
  186.4170  177.6330  137.8460 C   0  0  0  0  0  2  0  0  0  0  0  0
  188.7960  177.9070  137.6300 N   0  0  0  0  0  0  0  0  0  0  0  0
  194.2190  175.0960  137.4900 C   0  0  0  0  0  0  0  0  0  0  0  0
  194.5610  176.1580  136.9040 O   0  0  0  0  0  0  0  0  0  0  0  0
  192.8470  174.8450  137.8010 N   0  0  0  0  0  2  0  0  0  0  0  0
  195.2580  174.1090  137.8940 C   0  0  0  0  0  2  0  0  0  0  0  0
  196.5830  174.9970  139.9740 N   0  0  0  0  0  0  0  0  0  0  0  0
  195.9960  174.6060  139.0550 C   0  0  0  0  0  0  0  0  0  0  0  0
  185.3040  174.2730  137.4260 C   0  0  0  0  0  0  0  0  0  0  0  0
  185.2300  173.0200  138.0960 N   0  0  0  0  0  1  0  0  0  0  0  0
  184.3400  175.0800  137.5130 O   0  0  0  0  0  0  0  0  0  0  0  0
  187.5940  178.4150  139.8180 C   0  0  0  0  0  2  0  0  0  0  0  0
  187.8760  177.2870  140.6930 N   0  0  0  0  0  2  0  0  0  0  0  0
  189.7860  177.9990  143.9760 C   0  0  0  0  0  2  0  0  0  0  0  0
  189.6350  177.5880  142.5120 C   0  0  0  0  0  2  0  0  0  0  0  0
  187.2000  177.3410  142.9700 C   0  0  0  0  0  3  0  0  0  0  0  0
  188.1910  177.4450  142.0770 C   0  0  0  0  0  0  0  0  0  0  0  0
  187.4140  177.5150  144.4460 C   0  0  0  0  0  2  0  0  0  0  0  0
  188.8480  177.1710  144.8490 C   0  0  2  0  0  3  0  0  0  0  0  0
  188.0590  176.9080  147.0990 O   0  0  0  0  0  1  0  0  0  0  0  0
  189.0760  177.4730  146.3300 C   0  0  1  0  0  3  0  0  0  0  0  0
  190.4080  176.9060  146.7930 C   0  0  0  0  0  1  0  0  0  0  0  0
  1  8  1  0  0  0  0
  2 14  1  0  0  0  0
  2  6  1  0  0  0  0
  3 26  1  0  0  0  0
  4 19  1  1  0  0  0
  4  1  1  0  0  0  0
  5  8  1  0  0  0  0
  6 23  1  0  0  0  0
  7  6  2  0  0  0  0
  9  4  1  0  0  0  0
 10  9  1  0  0  0  0
 11  7  1  0  0  0  0
 12 11  1  0  0  0  0
 12  2  2  0  0  0  0
 13 11  1  0  0  0  0
 13 10  1  0  0  0  0
 14 15  1  0  0  0  0
 15  3  1  0  0  0  0
 16  5  1  0  0  0  0
 16  3  2  0  0  0  0
 17 19  1  0  0  0  0
 17 20  1  0  0  0  0
 18 17  2  0  0  0  0
 20 22  1  0  0  0  0
 22 21  3  0  0  0  0
 23 25  2  0  0  0  0
 23 24  1  0  0  0  0
 26 27  1  0  0  0  0
 27 31  1  0  0  0  0
 28 33  1  0  0  0  0
 29 28  1  0  0  0  0
 30 32  1  0  0  0  0
 31 29  1  0  0  0  0
 31 30  2  0  0  0  0
 32 33  1  0  0  0  0
 33 35  1  1  0  0  0
 35 36  1  1  0  0  0
 35 34  1  0  0  0  0
M  END
>  <MODEL>
7

>  <REMARK>
 VINA RESULT:      -6.5      2.751      3.864
  Name = 
  8 active torsions:
  status: ('A' for Active; 'I' for Inactive)
    1  A    between atoms: C_4  and  C_19
    2  A    between atoms: C_6  and  C_34
    3  A    between atoms: C_7  and  N_24
    4  A    between atoms: C_8  and  C_32
    5  A    between atoms: C_10  and  C_13
    6  A    between atoms: C_19  and  C_33
    7  A    between atoms: N_25  and  C_28
    8  A    between atoms: N_25  and  C_34
                            x       y       z     vdW  Elec       q    Type
                         _______ _______ _______ _____ _____    ______ ____

>  <TORSDO>
F 8

$$$$
=
 OpenBabel10232411093D

 36 38  0  0  1  0  0  0  0  0999 V2000
  190.8050  175.3670  138.3800 C   0  0  0  0  0  2  0  0  0  0  0  0
  187.5570  177.5390  136.3420 C   0  0  0  0  0  0  0  0  0  0  0  0
  188.2370  177.9890  139.3610 C   0  0  0  0  0  0  0  0  0  0  0  0
  192.0450  175.6270  137.5360 C   0  0  2  0  0  3  0  0  0  0  0  0
  190.7680  177.6750  139.4160 C   0  0  0  0  0  2  0  0  0  0  0  0
  186.8580  176.3820  136.0460 C   0  0  0  0  0  0  0  0  0  0  0  0
  187.6490  175.6130  135.2740 N   0  0  0  0  0  0  0  0  0  0  0  0
  190.8420  176.1730  139.6730 C   0  0  0  0  0  2  0  0  0  0  0  0
  191.6490  176.1410  136.1520 C   0  0  0  0  0  2  0  0  0  0  0  0
  190.8770  175.1010  135.3510 C   0  0  0  0  0  2  0  0  0  0  0  0
  188.7710  176.2980  135.1110 N   0  0  0  0  0  0  0  0  0  0  0  0
  188.7590  177.4600  135.7460 N   0  0  0  0  0  0  0  0  0  0  0  0
  189.9240  175.7860  134.3870 C   0  0  0  0  0  2  0  0  0  0  0  0
  187.1400  178.6760  137.2210 C   0  0  0  0  0  2  0  0  0  0  0  0
  187.1380  178.2850  138.6680 C   0  0  0  0  0  3  0  0  0  0  0  0
  189.5270  178.0320  138.7400 N   0  0  0  0  0  2  0  0  0  0  0  0
  194.1880  174.3350  137.9300 C   0  0  0  0  0  0  0  0  0  0  0  0
  194.7100  175.3130  138.5290 O   0  0  0  0  0  0  0  0  0  0  0  0
  192.8470  174.4130  137.4390 N   0  0  0  0  0  2  0  0  0  0  0  0
  194.9610  173.0740  137.7620 C   0  0  0  0  0  2  0  0  0  0  0  0
  195.0310  172.3980  135.2300 N   0  0  0  0  0  0  0  0  0  0  0  0
  194.9990  172.6960  136.3480 C   0  0  0  0  0  0  0  0  0  0  0  0
  185.5040  175.9980  136.4760 C   0  0  0  0  0  0  0  0  0  0  0  0
  184.3930  176.8190  136.1340 N   0  0  0  0  0  1  0  0  0  0  0  0
  185.3160  174.9500  137.1480 O   0  0  0  0  0  0  0  0  0  0  0  0
  188.0890  177.6410  140.8050 C   0  0  0  0  0  2  0  0  0  0  0  0
  189.0080  178.4400  141.6010 N   0  0  0  0  0  2  0  0  0  0  0  0
  190.9400  177.9950  144.9180 C   0  0  0  0  0  2  0  0  0  0  0  0
  190.7780  178.0990  143.4020 C   0  0  0  0  0  2  0  0  0  0  0  0
  188.3430  177.7340  143.7700 C   0  0  0  0  0  3  0  0  0  0  0  0
  189.3310  178.1230  142.9560 C   0  0  0  0  0  0  0  0  0  0  0  0
  188.5660  177.4010  145.2180 C   0  0  0  0  0  2  0  0  0  0  0  0
  189.9970  176.9300  145.4710 C   0  0  2  0  0  3  0  0  0  0  0  0
  191.5820  176.9170  147.2710 O   0  0  0  0  0  1  0  0  0  0  0  0
  190.2360  176.7170  146.9650 C   0  0  1  0  0  3  0  0  0  0  0  0
  189.4020  177.6890  147.7840 C   0  0  0  0  0  1  0  0  0  0  0  0
  1  8  1  0  0  0  0
  2 14  1  0  0  0  0
  3 26  1  0  0  0  0
  4 19  1  6  0  0  0
  4  1  1  0  0  0  0
  5  8  1  0  0  0  0
  6  2  1  0  0  0  0
  6 23  1  0  0  0  0
  7  6  2  0  0  0  0
  9  4  1  0  0  0  0
 10  9  1  0  0  0  0
 11  7  1  0  0  0  0
 11 12  1  0  0  0  0
 12  2  2  0  0  0  0
 13 11  1  0  0  0  0
 13 10  1  0  0  0  0
 14 15  1  0  0  0  0
 15  3  2  0  0  0  0
 16  3  1  0  0  0  0
 16  5  1  0  0  0  0
 17 18  2  0  0  0  0
 19 17  1  0  0  0  0
 20 17  1  0  0  0  0
 21 22  3  0  0  0  0
 22 20  1  0  0  0  0
 23 25  2  0  0  0  0
 24 23  1  0  0  0  0
 26 27  1  0  0  0  0
 27 31  1  0  0  0  0
 28 33  1  0  0  0  0
 29 28  1  0  0  0  0
 30 32  1  0  0  0  0
 31 29  1  0  0  0  0
 31 30  2  0  0  0  0
 32 33  1  0  0  0  0
 33 35  1  1  0  0  0
 35 34  1  0  0  0  0
 35 36  1  1  0  0  0
M  END
>  <MODEL>
8

>  <REMARK>
 VINA RESULT:      -6.5      2.589      3.726
  Name = 
  8 active torsions:
  status: ('A' for Active; 'I' for Inactive)
    1  A    between atoms: C_4  and  C_19
    2  A    between atoms: C_6  and  C_34
    3  A    between atoms: C_7  and  N_24
    4  A    between atoms: C_8  and  C_32
    5  A    between atoms: C_10  and  C_13
    6  A    between atoms: C_19  and  C_33
    7  A    between atoms: N_25  and  C_28
    8  A    between atoms: N_25  and  C_34
                            x       y       z     vdW  Elec       q    Type
                         _______ _______ _______ _____ _____    ______ ____

>  <TORSDO>
F 8

$$$$
=
 OpenBabel10232411093D

 36 38  0  0  1  0  0  0  0  0999 V2000
  186.9690  176.0390  137.3210 C   0  0  0  0  0  2  0  0  0  0  0  0
  183.0800  178.0350  137.8830 C   0  0  0  0  0  0  0  0  0  0  0  0
  185.5950  178.7520  139.5980 C   0  0  0  0  0  0  0  0  0  0  0  0
  187.2930  176.2140  135.8440 C   0  0  2  0  0  3  0  0  0  0  0  0
  187.5100  178.4310  137.9420 C   0  0  0  0  0  2  0  0  0  0  0  0
  182.4330  176.8590  138.2230 C   0  0  0  0  0  0  0  0  0  0  0  0
  182.5360  176.0190  137.1760 N   0  0  0  0  0  0  0  0  0  0  0  0
  187.8230  176.9570  138.1850 C   0  0  0  0  0  2  0  0  0  0  0  0
  186.0370  176.6040  135.0650 C   0  0  0  0  0  2  0  0  0  0  0  0
  184.9880  175.4990  135.0760 C   0  0  0  0  0  2  0  0  0  0  0  0
  183.2110  176.6810  136.2470 N   0  0  0  0  0  0  0  0  0  0  0  0
  183.5650  177.8950  136.6370 N   0  0  0  0  0  0  0  0  0  0  0  0
  183.5970  176.1000  134.9700 C   0  0  0  0  0  2  0  0  0  0  0  0
  183.3030  179.2490  138.7300 C   0  0  0  0  0  2  0  0  0  0  0  0
  184.3030  178.9910  139.8160 C   0  0  0  0  0  2  0  0  0  0  0  0
  186.1200  178.7320  138.2650 N   0  0  0  0  0  0  0  0  0  0  0  0
  189.2940  174.7430  135.3470 C   0  0  0  0  0  0  0  0  0  0  0  0
  190.0780  175.5600  135.9000 O   0  0  0  0  0  0  0  0  0  0  0  0
  187.8870  174.9920  135.3140 N   0  0  0  0  0  2  0  0  0  0  0  0
  189.8340  173.4900  134.7510 C   0  0  0  0  0  2  0  0  0  0  0  0
  192.0750  172.8260  135.9380 N   0  0  0  0  0  0  0  0  0  0  0  0
  191.0860  173.1210  135.4130 C   0  0  0  0  0  0  0  0  0  0  0  0
  181.7520  176.5240  139.4820 C   0  0  0  0  0  0  0  0  0  0  0  0
  180.8510  177.4550  140.0710 N   0  0  0  0  0  1  0  0  0  0  0  0
  181.9580  175.4180  140.0500 O   0  0  0  0  0  0  0  0  0  0  0  0
  186.4830  178.5370  140.7780 C   0  0  0  0  0  2  0  0  0  0  0  0
  185.6770  178.3610  141.9760 N   0  0  0  0  0  2  0  0  0  0  0  0
  186.1210  177.7680  145.7690 C   0  0  0  0  0  2  0  0  0  0  0  0
  185.5240  178.4140  144.5190 C   0  0  0  0  0  2  0  0  0  0  0  0
  187.4630  177.4770  143.2690 C   0  0  0  0  0  3  0  0  0  0  0  0
  186.2420  178.0250  143.2430 C   0  0  0  0  0  0  0  0  0  0  0  0
  188.1410  177.0630  144.5440 C   0  0  0  0  0  2  0  0  0  0  0  0
  187.6420  177.8790  145.7360 C   0  0  2  0  0  3  0  0  0  0  0  0
  189.6430  177.3110  146.9310 O   0  0  0  0  0  1  0  0  0  0  0  0
  188.2520  177.3570  147.0360 C   0  0  1  0  0  3  0  0  0  0  0  0
  187.8830  178.2610  148.2010 C   0  0  0  0  0  1  0  0  0  0  0  0
  1  8  1  0  0  0  0
  2  6  1  0  0  0  0
  2 14  1  0  0  0  0
  3 15  1  0  0  0  0
  3 26  1  0  0  0  0
  4 19  1  6  0  0  0
  4  1  1  0  0  0  0
  5  8  1  0  0  0  0
  5 16  1  0  0  0  0
  6 23  1  0  0  0  0
  7  6  2  0  0  0  0
  9 10  1  0  0  0  0
  9  4  1  0  0  0  0
 11 12  1  0  0  0  0
 11  7  1  0  0  0  0
 12  2  2  0  0  0  0
 13 10  1  0  0  0  0
 13 11  1  0  0  0  0
 14 15  1  0  0  0  0
 16  3  2  0  0  0  0
 17 18  2  0  0  0  0
 19 17  1  0  0  0  0
 20 17  1  0  0  0  0
 20 22  1  0  0  0  0
 22 21  3  0  0  0  0
 23 25  2  0  0  0  0
 23 24  1  0  0  0  0
 26 27  1  0  0  0  0
 27 31  1  0  0  0  0
 29 28  1  0  0  0  0
 30 32  1  0  0  0  0
 31 30  2  0  0  0  0
 31 29  1  0  0  0  0
 32 33  1  0  0  0  0
 33 28  1  0  0  0  0
 33 35  1  1  0  0  0
 34 35  1  0  0  0  0
 35 36  1  1  0  0  0
M  END
>  <MODEL>
9

>  <REMARK>
 VINA RESULT:      -6.4      2.444      3.341
  Name = 
  8 active torsions:
  status: ('A' for Active; 'I' for Inactive)
    1  A    between atoms: C_4  and  C_19
    2  A    between atoms: C_6  and  C_34
    3  A    between atoms: C_7  and  N_24
    4  A    between atoms: C_8  and  C_32
    5  A    between atoms: C_10  and  C_13
    6  A    between atoms: C_19  and  C_33
    7  A    between atoms: N_25  and  C_28
    8  A    between atoms: N_25  and  C_34
                            x       y       z     vdW  Elec       q    Type
                         _______ _______ _______ _____ _____    ______ ____

>  <TORSDO>
F 8

$$$$
