=
 OpenBabel10232411343D

 48 52  0  0  1  0  0  0  0  0999 V2000
  189.1670  177.0610  137.7420 C   0  0  1  0  0  0  0  0  0  0  0  0
  189.2280  178.3340  138.6350 C   0  0  0  0  0  2  0  0  0  0  0  0
  188.8070  178.1420  140.1230 C   0  0  1  0  0  3  0  0  0  0  0  0
  190.7430  175.4220  136.9660 N   0  0  0  0  0  0  0  0  0  0  0  0
  187.7460  176.4550  137.7300 C   0  0  0  0  0  2  0  0  0  0  0  0
  188.8130  177.0410  143.0970 C   0  0  2  0  0  3  0  0  0  0  0  0
  187.3320  177.7540  140.4420 C   0  0  1  0  0  3  0  0  0  0  0  0
  189.7650  176.6710  141.9990 C   0  0  0  0  0  3  0  0  0  0  0  0
  190.1440  173.0380  137.6510 C   0  0  0  0  0  1  0  0  0  0  0  0
  189.5810  177.3810  136.3030 C   0  0  0  0  0  2  0  0  0  0  0  0
  187.4510  176.9060  142.7350 O   0  0  0  0  0  0  0  0  0  0  0  0
  187.0940  178.0000  141.9320 C   0  0  0  0  0  2  0  0  0  0  0  0
  190.1790  176.0080  138.1750 C   0  0  0  0  0  2  0  0  0  0  0  0
  186.5450  177.4220  137.4580 C   0  0  1  0  0  3  0  0  0  0  0  0
  190.3170  176.1380  135.7810 C   0  0  1  0  0  3  0  0  0  0  0  0
  191.8590  173.5660  136.0890 O   0  0  0  0  0  0  0  0  0  0  0  0
  186.1370  178.4120  139.6570 C   0  0  2  0  0  3  0  0  0  0  0  0
  186.4440  178.6620  138.2520 N   0  0  0  0  0  2  0  0  0  0  0  0
  189.7640  177.1630  140.7520 C   0  0  0  0  0  3  0  0  0  0  0  0
  191.0050  174.0070  136.8910 C   0  0  0  0  0  0  0  0  0  0  0  0
  185.2420  176.3730  135.2790 C   0  0  2  0  0  3  0  0  0  0  0  0
  186.0110  177.4760  135.9900 C   0  0  1  0  0  3  0  0  0  0  0  0
  184.5830  177.3840  135.9930 O   0  0  0  0  0  0  0  0  0  0  0  0
  184.9560  174.7480  136.0850 P   0  0  0  0  0  0  0  0  0  0  0  0
  184.4920  174.8560  137.5160 O   0  0  0  0  0  1  0  0  0  0  0  0
  186.4350  173.9440  136.0490 O   0  0  0  0  0  1  0  0  0  0  0  0
  183.7590  173.8460  135.2590 O   0  0  0  0  0  0  0  0  0  0  0  0
  192.7220  176.1550  135.2370 C   0  0  0  0  0  3  0  0  0  0  0  0
  191.4760  176.4800  134.8800 C   0  0  0  0  0  3  0  0  0  0  0  0
  193.8770  176.4570  134.3460 C   0  0  0  0  0  2  0  0  0  0  0  0
  196.5750  176.9280  134.8250 O   0  0  0  0  0  1  0  0  0  0  0  0
  195.9080  174.3990  134.5930 O   0  0  0  0  0  0  0  0  0  0  0  0
  195.4650  175.9440  135.1510 P   0  0  0  0  0  0  0  0  0  0  0  0
  195.2440  175.8910  136.8370 O   0  0  0  0  0  1  0  0  0  0  0  0
  189.2210  178.3260  143.8260 C   0  0  0  0  0  2  0  0  0  0  0  0
  190.4790  178.0700  144.6230 C   0  0  0  0  0  2  0  0  0  0  0  0
  190.2880  176.8930  145.5560 C   0  0  0  0  0  2  0  0  0  0  0  0
  189.8660  177.8490  147.7980 C   0  0  0  0  0  3  0  0  0  0  0  0
  186.9770  178.7220  147.7710 C   0  0  0  0  0  2  0  0  0  0  0  0
  186.9000  177.8140  146.5340 C   0  0  0  0  0  2  0  0  0  0  0  0
  189.3330  177.2460  146.6000 N   0  0  0  0  0  0  0  0  0  0  0  0
  187.9720  176.7060  146.4750 C   0  0  0  0  0  2  0  0  0  0  0  0
  187.6360  178.0520  148.9640 C   0  0  0  0  0  2  0  0  0  0  0  0
  189.1280  178.2270  148.8600 C   0  0  0  0  0  3  0  0  0  0  0  0
  185.6580  179.6130  140.2510 O   0  0  0  0  0  0  0  0  0  0  0  0
  183.6830  178.3190  140.9440 C   0  0  0  0  0  1  0  0  0  0  0  0
  183.6700  179.8350  139.0760 O   0  0  0  0  0  1  0  0  0  0  0  0
  184.2440  179.5870  140.3220 C   0  0  2  0  0  3  0  0  0  0  0  0
  1 10  1  6  0  0  0
  1 13  1  0  0  0  0
  1  2  1  0  0  0  0
  3  2  1  6  0  0  0
  3  7  1  0  0  0  0
  3 19  1  0  0  0  0
  4 13  1  0  0  0  0
  5  1  1  0  0  0  0
  6 35  1  6  0  0  0
  7 12  1  1  0  0  0
  8  6  1  0  0  0  0
 11  6  1  0  0  0  0
 12 11  1  0  0  0  0
 14  5  1  6  0  0  0
 14 18  1  0  0  0  0
 15 29  1  6  0  0  0
 15 10  1  0  0  0  0
 15  4  1  0  0  0  0
 16 20  2  0  0  0  0
 17 45  1  1  0  0  0
 17  7  1  0  0  0  0
 18 17  1  0  0  0  0
 19  8  2  0  0  0  0
 20  4  1  0  0  0  0
 20  9  1  0  0  0  0
 21 22  1  0  0  0  0
 21 23  1  0  0  0  0
 21 24  1  1  0  0  0
 22 23  1  1  0  0  0
 22 14  1  0  0  0  0
 24 25  1  0  0  0  0
 26 24  1  0  0  0  0
 27 24  2  0  0  0  0
 29 28  2  0  0  0  0
 30 33  1  0  0  0  0
 30 28  1  0  0  0  0
 31 33  1  0  0  0  0
 32 33  2  0  0  0  0
 33 34  1  0  0  0  0
 35 36  1  0  0  0  0
 36 37  1  0  0  0  0
 37 41  1  0  0  0  0
 38 44  2  0  0  0  0
 39 43  1  0  0  0  0
 40 39  1  0  0  0  0
 41 38  1  0  0  0  0
 42 40  1  0  0  0  0
 42 41  1  0  0  0  0
 44 43  1  0  0  0  0
 45 48  1  0  0  0  0
 47 48  1  0  0  0  0
 48 46  1  6  0  0  0
M  END
>  <MODEL>
1

>  <REMARK>
 VINA RESULT:      -5.8      0.000      0.000
  Name = 
  11 active torsions:
  status: ('A' for Active; 'I' for Inactive)
    1  A    between atoms: C_1  and  C_21
    2  A    between atoms: C_7  and  C_15
    3  A    between atoms: C_7  and  C_30
    4  A    between atoms: P_12  and  C_14
    5  A    between atoms: C_21  and  P_22
    6  A    between atoms: N_25  and  C_40
    7  A    between atoms: C_30  and  C_40
    8  A    between atoms: C_32  and  C_37
    9  A    between atoms: C_33  and  C_45
   10  A    between atoms: O_34  and  C_36
   11  A    between atoms: O_34  and  C_39
                            x       y       z     vdW  Elec       q    Type
                         _______ _______ _______ _____ _____    ______ ____

>  <TORSDO>
F 11

$$$$
=
 OpenBabel10232411343D

 48 52  0  0  1  0  0  0  0  0999 V2000
  184.0930  178.7410  139.0080 C   0  0  1  0  0  0  0  0  0  0  0  0
  185.3960  179.4960  138.6140 C   0  0  0  0  0  2  0  0  0  0  0  0
  186.6040  178.6010  138.2080 C   0  0  1  0  0  3  0  0  0  0  0  0
  182.0410  178.1510  137.9060 N   0  0  0  0  0  0  0  0  0  0  0  0
  184.3450  177.7700  140.1830 C   0  0  0  0  0  2  0  0  0  0  0  0
  188.3200  176.4680  136.6060 C   0  0  2  0  0  3  0  0  0  0  0  0
  187.2410  177.6660  139.2800 C   0  0  1  0  0  3  0  0  0  0  0  0
  186.9130  176.8950  136.3110 C   0  0  0  0  0  3  0  0  0  0  0  0
  181.5980  175.6390  137.8700 C   0  0  0  0  0  1  0  0  0  0  0  0
  182.9890  179.7250  139.4070 C   0  0  0  0  0  2  0  0  0  0  0  0
  188.5180  176.0600  137.9480 O   0  0  0  0  0  0  0  0  0  0  0  0
  188.6000  177.2060  138.7530 C   0  0  0  0  0  2  0  0  0  0  0  0
  183.4870  177.9890  137.8290 C   0  0  0  0  0  2  0  0  0  0  0  0
  185.1050  178.3230  141.4340 C   0  0  1  0  0  3  0  0  0  0  0  0
  181.6670  179.1030  138.9310 C   0  0  1  0  0  3  0  0  0  0  0  0
  179.9860  177.2670  137.2310 O   0  0  0  0  0  0  0  0  0  0  0  0
  187.4500  178.1620  140.7590 C   0  0  2  0  0  3  0  0  0  0  0  0
  186.3790  179.0370  141.2260 N   0  0  0  0  0  2  0  0  0  0  0  0
  186.2080  177.8160  136.9840 C   0  0  0  0  0  3  0  0  0  0  0  0
  181.1640  177.0500  137.5970 C   0  0  0  0  0  0  0  0  0  0  0  0
  184.5910  178.6680  144.1110 C   0  0  2  0  0  3  0  0  0  0  0  0
  184.2230  178.7860  142.6390 C   0  0  1  0  0  3  0  0  0  0  0  0
  184.9010  179.8150  143.3650 O   0  0  0  0  0  0  0  0  0  0  0  0
  186.1350  177.8260  144.6360 P   0  0  0  0  0  0  0  0  0  0  0  0
  186.1300  177.4010  146.0830 O   0  0  0  0  0  1  0  0  0  0  0  0
  187.3760  178.9390  144.3960 O   0  0  0  0  0  1  0  0  0  0  0  0
  186.4120  176.4070  143.7190 O   0  0  0  0  0  0  0  0  0  0  0  0
  180.9490  181.4330  138.5640 C   0  0  0  0  0  3  0  0  0  0  0  0
  180.6890  180.1300  138.4210 C   0  0  0  0  0  3  0  0  0  0  0  0
  180.0100  182.4630  138.0390 C   0  0  0  0  0  2  0  0  0  0  0  0
  182.3970  183.8770  137.8450 O   0  0  0  0  0  1  0  0  0  0  0  0
  180.2300  185.3550  137.9580 O   0  0  0  0  0  1  0  0  0  0  0  0
  180.9490  183.9220  137.3890 P   0  0  0  0  0  0  0  0  0  0  0  0
  180.8980  183.9050  135.6890 O   0  0  0  0  0  0  0  0  0  0  0  0
  189.3640  177.4090  135.9980 C   0  0  0  0  0  2  0  0  0  0  0  0
  189.8860  176.8130  134.7110 C   0  0  0  0  0  2  0  0  0  0  0  0
  190.2480  175.3560  134.9080 C   0  0  0  0  0  2  0  0  0  0  0  0
  192.7120  175.5770  134.8930 C   0  0  0  0  0  3  0  0  0  0  0  0
  193.5020  175.9870  137.7780 C   0  0  0  0  0  2  0  0  0  0  0  0
  192.0870  175.4580  138.0540 C   0  0  0  0  0  2  0  0  0  0  0  0
  191.5120  175.2600  135.6300 N   0  0  0  0  0  0  0  0  0  0  0  0
  191.4910  174.5810  136.9330 C   0  0  0  0  0  2  0  0  0  0  0  0
  194.2880  175.1160  136.8110 C   0  0  0  0  0  2  0  0  0  0  0  0
  193.9590  175.5320  135.4020 C   0  0  0  0  0  3  0  0  0  0  0  0
  188.7030  178.8010  140.9730 O   0  0  0  0  0  0  0  0  0  0  0  0
  190.9160  177.8390  141.4530 C   0  0  0  0  0  1  0  0  0  0  0  0
  188.8600  176.8410  142.2050 O   0  0  0  0  0  1  0  0  0  0  0  0
  189.4770  178.0520  141.8920 C   0  0  2  0  0  3  0  0  0  0  0  0
  1 13  1  6  0  0  0
  1 10  1  0  0  0  0
  1  5  1  0  0  0  0
  2  1  1  0  0  0  0
  3 19  1  6  0  0  0
  3  2  1  0  0  0  0
  3  7  1  0  0  0  0
  4 15  1  0  0  0  0
  6 35  1  1  0  0  0
  6 11  1  0  0  0  0
  7 12  1  6  0  0  0
  7 17  1  0  0  0  0
  8  6  1  0  0  0  0
  8 19  2  0  0  0  0
 11 12  1  0  0  0  0
 13  4  1  0  0  0  0
 14  5  1  6  0  0  0
 14 22  1  0  0  0  0
 15 29  1  6  0  0  0
 15 10  1  0  0  0  0
 16 20  2  0  0  0  0
 17 45  1  6  0  0  0
 17 18  1  0  0  0  0
 18 14  1  0  0  0  0
 20  9  1  0  0  0  0
 20  4  1  0  0  0  0
 21 24  1  6  0  0  0
 22 23  1  6  0  0  0
 22 21  1  0  0  0  0
 23 21  1  0  0  0  0
 24 25  1  0  0  0  0
 26 24  1  0  0  0  0
 27 24  2  0  0  0  0
 29 28  2  0  0  0  0
 30 28  1  0  0  0  0
 33 31  1  0  0  0  0
 33 32  1  0  0  0  0
 33 30  1  0  0  0  0
 34 33  2  0  0  0  0
 36 37  1  0  0  0  0
 36 35  1  0  0  0  0
 37 41  1  0  0  0  0
 38 44  2  0  0  0  0
 38 41  1  0  0  0  0
 39 40  1  0  0  0  0
 41 42  1  0  0  0  0
 42 40  1  0  0  0  0
 43 39  1  0  0  0  0
 44 43  1  0  0  0  0
 45 48  1  0  0  0  0
 48 46  1  6  0  0  0
 48 47  1  0  0  0  0
M  END
>  <MODEL>
2

>  <REMARK>
 VINA RESULT:      -5.7      4.270      9.867
  Name = 
  11 active torsions:
  status: ('A' for Active; 'I' for Inactive)
    1  A    between atoms: C_1  and  C_21
    2  A    between atoms: C_7  and  C_15
    3  A    between atoms: C_7  and  C_30
    4  A    between atoms: P_12  and  C_14
    5  A    between atoms: C_21  and  P_22
    6  A    between atoms: N_25  and  C_40
    7  A    between atoms: C_30  and  C_40
    8  A    between atoms: C_32  and  C_37
    9  A    between atoms: C_33  and  C_45
   10  A    between atoms: O_34  and  C_36
   11  A    between atoms: O_34  and  C_39
                            x       y       z     vdW  Elec       q    Type
                         _______ _______ _______ _____ _____    ______ ____

>  <TORSDO>
F 11

$$$$
=
 OpenBabel10232411343D

 48 52  0  0  1  0  0  0  0  0999 V2000
  188.6630  176.9200  137.2480 C   0  0  1  0  0  0  0  0  0  0  0  0
  188.7150  178.2650  138.0310 C   0  0  0  0  0  2  0  0  0  0  0  0
  188.1920  178.2180  139.4970 C   0  0  1  0  0  3  0  0  0  0  0  0
  190.2210  175.1680  136.7240 N   0  0  0  0  0  0  0  0  0  0  0  0
  187.2230  176.3640  137.1920 C   0  0  0  0  0  2  0  0  0  0  0  0
  187.9630  177.3850  142.5490 C   0  0  2  0  0  3  0  0  0  0  0  0
  186.6850  177.9090  139.7480 C   0  0  1  0  0  3  0  0  0  0  0  0
  188.9680  176.8880  141.5540 C   0  0  0  0  0  3  0  0  0  0  0  0
  189.4870  172.8750  137.5690 C   0  0  0  0  0  1  0  0  0  0  0  0
  189.1810  177.0980  135.8180 C   0  0  0  0  0  2  0  0  0  0  0  0
  186.6220  177.2640  142.1080 O   0  0  0  0  0  0  0  0  0  0  0  0
  186.3610  178.2940  141.1910 C   0  0  0  0  0  2  0  0  0  0  0  0
  189.6030  175.8770  137.8380 C   0  0  0  0  0  2  0  0  0  0  0  0
  186.0810  177.3420  136.7570 C   0  0  1  0  0  3  0  0  0  0  0  0
  189.9010  175.7900  135.4560 C   0  0  1  0  0  3  0  0  0  0  0  0
  191.3180  173.2060  136.0870 O   0  0  0  0  0  0  0  0  0  0  0  0
  185.5700  178.5340  138.8300 C   0  0  2  0  0  3  0  0  0  0  0  0
  185.9770  178.6490  137.4330 N   0  0  0  0  0  2  0  0  0  0  0  0
  189.0680  177.2680  140.2720 C   0  0  0  0  0  3  0  0  0  0  0  0
  190.4320  173.7440  136.7890 C   0  0  0  0  0  0  0  0  0  0  0  0
  184.7390  176.2350  134.6310 C   0  0  2  0  0  3  0  0  0  0  0  0
  185.6450  177.2840  135.2570 C   0  0  1  0  0  3  0  0  0  0  0  0
  184.2250  177.4270  135.1610 O   0  0  0  0  0  0  0  0  0  0  0  0
  184.1350  174.8020  135.6070 P   0  0  0  0  0  0  0  0  0  0  0  0
  185.2130  173.8030  135.9460 O   0  0  0  0  0  1  0  0  0  0  0  0
  182.9700  174.0480  134.6530 O   0  0  0  0  0  0  0  0  0  0  0  0
  183.4600  175.3060  137.0970 O   0  0  0  0  0  1  0  0  0  0  0  0
  192.3410  175.9960  135.1690 C   0  0  0  0  0  3  0  0  0  0  0  0
  191.1280  176.0140  134.6090 C   0  0  0  0  0  3  0  0  0  0  0  0
  193.5670  176.1830  134.3460 C   0  0  0  0  0  2  0  0  0  0  0  0
  195.2510  178.0760  135.4940 O   0  0  0  0  0  1  0  0  0  0  0  0
  196.4110  175.8250  134.8010 O   0  0  0  0  0  0  0  0  0  0  0  0
  195.0190  176.5760  135.4270 P   0  0  0  0  0  0  0  0  0  0  0  0
  194.7210  175.9880  136.9960 O   0  0  0  0  0  1  0  0  0  0  0  0
  188.3720  178.7140  143.1910 C   0  0  0  0  0  2  0  0  0  0  0  0
  189.6670  178.5260  143.9470 C   0  0  0  0  0  2  0  0  0  0  0  0
  189.3980  178.0050  145.3420 C   0  0  0  0  0  2  0  0  0  0  0  0
  190.4650  176.6560  147.1200 C   0  0  0  0  0  3  0  0  0  0  0  0
  192.1700  174.6250  145.6760 C   0  0  0  0  0  2  0  0  0  0  0  0
  191.9740  175.5730  144.4830 C   0  0  0  0  0  2  0  0  0  0  0  0
  190.4870  177.1290  145.7560 N   0  0  0  0  0  0  0  0  0  0  0  0
  191.6490  177.0340  144.8620 C   0  0  0  0  0  2  0  0  0  0  0  0
  192.6130  175.3400  146.9420 C   0  0  0  0  0  2  0  0  0  0  0  0
  191.3940  175.8480  147.6670 C   0  0  0  0  0  3  0  0  0  0  0  0
  185.1010  179.7980  139.2850 O   0  0  0  0  0  0  0  0  0  0  0  0
  183.0900  178.3810  139.3250 C   0  0  0  0  0  1  0  0  0  0  0  0
  183.0860  180.6430  138.5040 O   0  0  0  0  0  1  0  0  0  0  0  0
  183.6910  179.7740  139.4120 C   0  0  2  0  0  3  0  0  0  0  0  0
  1 10  1  6  0  0  0
  1 13  1  0  0  0  0
  1  2  1  0  0  0  0
  3  2  1  6  0  0  0
  3  7  1  0  0  0  0
  3 19  1  0  0  0  0
  4 20  1  0  0  0  0
  4 13  1  0  0  0  0
  5  1  1  0  0  0  0
  6 35  1  6  0  0  0
  7 12  1  1  0  0  0
  8  6  1  0  0  0  0
 11  6  1  0  0  0  0
 12 11  1  0  0  0  0
 14  5  1  6  0  0  0
 14 18  1  0  0  0  0
 15 29  1  1  0  0  0
 15 10  1  0  0  0  0
 15  4  1  0  0  0  0
 16 20  2  0  0  0  0
 17 45  1  1  0  0  0
 17  7  1  0  0  0  0
 18 17  1  0  0  0  0
 19  8  2  0  0  0  0
 20  9  1  0  0  0  0
 21 23  1  0  0  0  0
 21 22  1  0  0  0  0
 21 24  1  1  0  0  0
 22 23  1  1  0  0  0
 22 14  1  0  0  0  0
 24 25  1  0  0  0  0
 24 27  1  0  0  0  0
 26 24  2  0  0  0  0
 29 28  2  0  0  0  0
 30 28  1  0  0  0  0
 30 33  1  0  0  0  0
 32 33  2  0  0  0  0
 33 31  1  0  0  0  0
 33 34  1  0  0  0  0
 35 36  1  0  0  0  0
 36 37  1  0  0  0  0
 37 41  1  0  0  0  0
 38 44  2  0  0  0  0
 39 43  1  0  0  0  0
 40 42  1  0  0  0  0
 40 39  1  0  0  0  0
 41 38  1  0  0  0  0
 42 41  1  0  0  0  0
 43 44  1  0  0  0  0
 45 48  1  0  0  0  0
 47 48  1  0  0  0  0
 48 46  1  6  0  0  0
M  END
>  <MODEL>
3

>  <REMARK>
 VINA RESULT:      -5.5      1.342      2.102
  Name = 
  11 active torsions:
  status: ('A' for Active; 'I' for Inactive)
    1  A    between atoms: C_1  and  C_21
    2  A    between atoms: C_7  and  C_15
    3  A    between atoms: C_7  and  C_30
    4  A    between atoms: P_12  and  C_14
    5  A    between atoms: C_21  and  P_22
    6  A    between atoms: N_25  and  C_40
    7  A    between atoms: C_30  and  C_40
    8  A    between atoms: C_32  and  C_37
    9  A    between atoms: C_33  and  C_45
   10  A    between atoms: O_34  and  C_36
   11  A    between atoms: O_34  and  C_39
                            x       y       z     vdW  Elec       q    Type
                         _______ _______ _______ _____ _____    ______ ____

>  <TORSDO>
F 11

$$$$
=
 OpenBabel10232411343D

 48 52  0  0  1  0  0  0  0  0999 V2000
  188.1030  176.0850  136.7650 C   0  0  1  0  0  0  0  0  0  0  0  0
  189.3880  176.5480  136.0190 C   0  0  0  0  0  2  0  0  0  0  0  0
  190.6100  175.5870  136.1100 C   0  0  1  0  0  3  0  0  0  0  0  0
  186.0550  174.9880  136.1550 N   0  0  0  0  0  0  0  0  0  0  0  0
  188.3820  175.8570  138.2670 C   0  0  0  0  0  2  0  0  0  0  0  0
  192.3550  172.9560  135.8000 C   0  0  2  0  0  3  0  0  0  0  0  0
  191.2730  175.3430  137.4990 C   0  0  1  0  0  3  0  0  0  0  0  0
  190.9390  173.1540  135.3510 C   0  0  0  0  0  3  0  0  0  0  0  0
  185.6610  172.8060  137.4190 C   0  0  0  0  0  1  0  0  0  0  0  0
  186.9830  177.1200  136.6220 C   0  0  0  0  0  2  0  0  0  0  0  0
  192.5720  173.2970  137.1580 O   0  0  0  0  0  0  0  0  0  0  0  0
  192.6360  174.6950  137.2610 C   0  0  0  0  0  2  0  0  0  0  0  0
  187.5030  174.8270  136.1490 C   0  0  0  0  0  2  0  0  0  0  0  0
  189.1410  176.9840  139.0460 C   0  0  1  0  0  3  0  0  0  0  0  0
  185.6700  176.3260  136.5530 C   0  0  1  0  0  3  0  0  0  0  0  0
  184.0130  173.8560  136.0620 O   0  0  0  0  0  0  0  0  0  0  0  0
  191.4830  176.5290  138.5110 C   0  0  2  0  0  3  0  0  0  0  0  0
  190.4000  177.5070  138.4810 N   0  0  0  0  0  2  0  0  0  0  0  0
  190.2210  174.2800  135.4670 C   0  0  0  0  0  3  0  0  0  0  0  0
  185.1970  173.8730  136.4690 C   0  0  0  0  0  0  0  0  0  0  0  0
  188.1960  178.0960  141.3730 C   0  0  2  0  0  3  0  0  0  0  0  0
  188.2590  177.9880  139.8570 C   0  0  1  0  0  3  0  0  0  0  0  0
  189.0990  178.8600  140.6200 O   0  0  0  0  0  0  0  0  0  0  0  0
  189.1130  176.9200  142.4450 P   0  0  0  0  0  0  0  0  0  0  0  0
  190.0990  176.0600  141.6950 O   0  0  0  0  0  0  0  0  0  0  0  0
  187.9480  175.9300  143.1510 O   0  0  0  0  0  1  0  0  0  0  0  0
  190.0110  177.7450  143.6460 O   0  0  0  0  0  1  0  0  0  0  0  0
  183.4150  177.1620  136.0090 C   0  0  0  0  0  3  0  0  0  0  0  0
  184.6680  176.9320  135.6050 C   0  0  0  0  0  3  0  0  0  0  0  0
  182.4190  177.7900  135.0980 C   0  0  0  0  0  2  0  0  0  0  0  0
  179.9890  177.7410  136.4480 O   0  0  0  0  0  1  0  0  0  0  0  0
  180.4970  179.9630  135.1440 O   0  0  0  0  0  0  0  0  0  0  0  0
  181.1210  178.6820  136.0730 P   0  0  0  0  0  0  0  0  0  0  0  0
  181.8220  179.3060  137.4920 O   0  0  0  0  0  1  0  0  0  0  0  0
  193.3770  173.4660  134.7790 C   0  0  0  0  0  2  0  0  0  0  0  0
  194.7690  173.1030  135.2410 C   0  0  0  0  0  2  0  0  0  0  0  0
  195.7360  174.2310  134.9530 C   0  0  0  0  0  2  0  0  0  0  0  0
  196.7340  174.4870  137.2020 C   0  0  0  0  0  3  0  0  0  0  0  0
  199.1130  172.6280  137.2440 C   0  0  0  0  0  2  0  0  0  0  0  0
  198.9290  172.6470  135.7190 C   0  0  0  0  0  2  0  0  0  0  0  0
  196.9030  174.1080  135.8190 N   0  0  0  0  0  0  0  0  0  0  0  0
  198.2030  173.8930  135.1680 C   0  0  0  0  0  2  0  0  0  0  0  0
  199.1260  174.0160  137.8620 C   0  0  0  0  0  2  0  0  0  0  0  0
  197.7070  174.4430  138.1330 C   0  0  0  0  0  3  0  0  0  0  0  0
  192.7260  177.2040  138.3470 O   0  0  0  0  0  0  0  0  0  0  0  0
  194.3880  176.3350  139.9390 C   0  0  0  0  0  1  0  0  0  0  0  0
  192.4000  177.5030  140.6250 O   0  0  0  0  0  1  0  0  0  0  0  0
  193.3460  177.3890  139.6060 C   0  0  2  0  0  3  0  0  0  0  0  0
  1  2  1  6  0  0  0
  1  5  1  0  0  0  0
  2  3  1  0  0  0  0
  3 19  1  1  0  0  0
  3  7  1  0  0  0  0
  4 20  1  0  0  0  0
  4 15  1  0  0  0  0
  6 35  1  6  0  0  0
  6 11  1  0  0  0  0
  7 12  1  6  0  0  0
  7 17  1  0  0  0  0
  8 19  2  0  0  0  0
  8  6  1  0  0  0  0
 10  1  1  0  0  0  0
 11 12  1  0  0  0  0
 13  4  1  0  0  0  0
 13  1  1  0  0  0  0
 14  5  1  6  0  0  0
 14 22  1  0  0  0  0
 15 29  1  6  0  0  0
 15 10  1  0  0  0  0
 16 20  2  0  0  0  0
 17 45  1  6  0  0  0
 18 17  1  0  0  0  0
 18 14  1  0  0  0  0
 20  9  1  0  0  0  0
 21 24  1  1  0  0  0
 22 23  1  6  0  0  0
 22 21  1  0  0  0  0
 23 21  1  0  0  0  0
 24 26  1  0  0  0  0
 24 27  1  0  0  0  0
 25 24  2  0  0  0  0
 29 28  2  0  0  0  0
 30 28  1  0  0  0  0
 30 33  1  0  0  0  0
 32 33  2  0  0  0  0
 33 31  1  0  0  0  0
 33 34  1  0  0  0  0
 35 36  1  0  0  0  0
 37 36  1  0  0  0  0
 37 41  1  0  0  0  0
 38 44  2  0  0  0  0
 39 43  1  0  0  0  0
 40 39  1  0  0  0  0
 41 38  1  0  0  0  0
 42 40  1  0  0  0  0
 42 41  1  0  0  0  0
 43 44  1  0  0  0  0
 45 48  1  0  0  0  0
 48 46  1  1  0  0  0
 48 47  1  0  0  0  0
M  END
>  <MODEL>
4

>  <REMARK>
 VINA RESULT:      -5.3      3.868      9.851
  Name = 
  11 active torsions:
  status: ('A' for Active; 'I' for Inactive)
    1  A    between atoms: C_1  and  C_21
    2  A    between atoms: C_7  and  C_15
    3  A    between atoms: C_7  and  C_30
    4  A    between atoms: P_12  and  C_14
    5  A    between atoms: C_21  and  P_22
    6  A    between atoms: N_25  and  C_40
    7  A    between atoms: C_30  and  C_40
    8  A    between atoms: C_32  and  C_37
    9  A    between atoms: C_33  and  C_45
   10  A    between atoms: O_34  and  C_36
   11  A    between atoms: O_34  and  C_39
                            x       y       z     vdW  Elec       q    Type
                         _______ _______ _______ _____ _____    ______ ____

>  <TORSDO>
F 11

$$$$
=
 OpenBabel10232411343D

 48 52  0  0  1  0  0  0  0  0999 V2000
  187.9390  176.1330  136.9500 C   0  0  1  0  0  0  0  0  0  0  0  0
  189.1960  176.6050  136.1640 C   0  0  0  0  0  2  0  0  0  0  0  0
  190.4270  175.6500  136.2140 C   0  0  1  0  0  3  0  0  0  0  0  0
  185.8790  175.0240  136.4050 N   0  0  0  0  0  0  0  0  0  0  0  0
  188.2670  175.9050  138.4430 C   0  0  0  0  0  2  0  0  0  0  0  0
  192.1760  173.0300  135.8450 C   0  0  2  0  0  3  0  0  0  0  0  0
  191.1350  175.4080  137.5810 C   0  0  1  0  0  3  0  0  0  0  0  0
  190.7450  173.2200  135.4420 C   0  0  0  0  0  3  0  0  0  0  0  0
  185.5380  172.8390  137.6770 C   0  0  0  0  0  1  0  0  0  0  0  0
  186.8090  177.1610  136.8440 C   0  0  0  0  0  2  0  0  0  0  0  0
  192.4340  173.3700  137.1960 O   0  0  0  0  0  0  0  0  0  0  0  0
  192.4940  174.7690  137.2980 C   0  0  0  0  0  2  0  0  0  0  0  0
  187.3270  174.8720  136.3520 C   0  0  0  0  0  2  0  0  0  0  0  0
  189.0440  177.0350  139.1980 C   0  0  1  0  0  3  0  0  0  0  0  0
  185.4990  176.3590  136.8170 C   0  0  1  0  0  3  0  0  0  0  0  0
  183.8410  173.8800  136.3750 O   0  0  0  0  0  0  0  0  0  0  0  0
  191.3700  176.5950  138.5880 C   0  0  2  0  0  3  0  0  0  0  0  0
  190.2800  177.5660  138.5930 N   0  0  0  0  0  2  0  0  0  0  0  0
  190.0250  174.3420  135.5830 C   0  0  0  0  0  3  0  0  0  0  0  0
  185.0380  173.9040  136.7440 C   0  0  0  0  0  0  0  0  0  0  0  0
  188.1690  178.1400  141.5560 C   0  0  2  0  0  3  0  0  0  0  0  0
  188.1820  178.0320  140.0390 C   0  0  1  0  0  3  0  0  0  0  0  0
  189.0410  178.9100  140.7730 O   0  0  0  0  0  0  0  0  0  0  0  0
  189.1280  176.9700  142.5960 P   0  0  0  0  0  0  0  0  0  0  0  0
  188.2730  176.1450  143.5260 O   0  0  0  0  0  1  0  0  0  0  0  0
  190.1770  177.9160  143.5120 O   0  0  0  0  0  1  0  0  0  0  0  0
  190.0030  175.8570  141.6340 O   0  0  0  0  0  0  0  0  0  0  0  0
  183.2410  177.2410  136.3640 C   0  0  0  0  0  3  0  0  0  0  0  0
  184.4640  176.9610  135.9020 C   0  0  0  0  0  3  0  0  0  0  0  0
  182.2140  177.8640  135.4840 C   0  0  0  0  0  2  0  0  0  0  0  0
  179.9910  177.8560  137.1550 O   0  0  0  0  0  1  0  0  0  0  0  0
  180.1320  179.8850  135.4940 O   0  0  0  0  0  0  0  0  0  0  0  0
  180.9790  178.8030  136.4970 P   0  0  0  0  0  0  0  0  0  0  0  0
  181.7990  179.6800  137.7030 O   0  0  0  0  0  1  0  0  0  0  0  0
  193.1610  173.5480  134.7920 C   0  0  0  0  0  2  0  0  0  0  0  0
  194.1630  172.4620  134.4690 C   0  0  0  0  0  2  0  0  0  0  0  0
  195.3840  172.5840  135.3560 C   0  0  0  0  0  2  0  0  0  0  0  0
  196.8670  171.1840  136.7540 C   0  0  0  0  0  3  0  0  0  0  0  0
  195.0610  169.1450  138.0550 C   0  0  0  0  0  2  0  0  0  0  0  0
  194.0740  169.5860  136.9620 C   0  0  0  0  0  2  0  0  0  0  0  0
  195.6220  171.3180  136.0370 N   0  0  0  0  0  0  0  0  0  0  0  0
  194.7290  170.1980  135.7060 C   0  0  0  0  0  2  0  0  0  0  0  0
  196.4420  168.8140  137.5150 C   0  0  0  0  0  2  0  0  0  0  0  0
  197.2490  170.0830  137.4300 C   0  0  0  0  0  3  0  0  0  0  0  0
  192.6030  177.2770  138.3850 O   0  0  0  0  0  0  0  0  0  0  0  0
  194.2540  176.3700  139.9680 C   0  0  0  0  0  1  0  0  0  0  0  0
  192.3450  177.6620  140.6590 O   0  0  0  0  0  1  0  0  0  0  0  0
  193.2600  177.4670  139.6240 C   0  0  2  0  0  3  0  0  0  0  0  0
  1  2  1  6  0  0  0
  1  5  1  0  0  0  0
  2  3  1  0  0  0  0
  3 19  1  1  0  0  0
  3  7  1  0  0  0  0
  4 20  1  0  0  0  0
  4 15  1  0  0  0  0
  6 35  1  6  0  0  0
  6 11  1  0  0  0  0
  7 12  1  6  0  0  0
  7 17  1  0  0  0  0
  8 19  2  0  0  0  0
  8  6  1  0  0  0  0
 10  1  1  0  0  0  0
 11 12  1  0  0  0  0
 13  4  1  0  0  0  0
 13  1  1  0  0  0  0
 14  5  1  6  0  0  0
 14 22  1  0  0  0  0
 15 29  1  6  0  0  0
 15 10  1  0  0  0  0
 16 20  2  0  0  0  0
 17 45  1  6  0  0  0
 17 18  1  0  0  0  0
 18 14  1  0  0  0  0
 20  9  1  0  0  0  0
 21 24  1  1  0  0  0
 22 23  1  6  0  0  0
 22 21  1  0  0  0  0
 23 21  1  0  0  0  0
 24 26  1  0  0  0  0
 24 25  1  0  0  0  0
 27 24  2  0  0  0  0
 29 28  2  0  0  0  0
 30 28  1  0  0  0  0
 30 33  1  0  0  0  0
 32 33  2  0  0  0  0
 33 31  1  0  0  0  0
 33 34  1  0  0  0  0
 36 35  1  0  0  0  0
 36 37  1  0  0  0  0
 37 41  1  0  0  0  0
 38 44  2  0  0  0  0
 40 39  1  0  0  0  0
 41 38  1  0  0  0  0
 42 41  1  0  0  0  0
 42 40  1  0  0  0  0
 43 39  1  0  0  0  0
 44 43  1  0  0  0  0
 45 48  1  0  0  0  0
 48 46  1  1  0  0  0
 48 47  1  0  0  0  0
M  END
>  <MODEL>
5

>  <REMARK>
 VINA RESULT:      -5.1      3.833      9.852
  Name = 
  11 active torsions:
  status: ('A' for Active; 'I' for Inactive)
    1  A    between atoms: C_1  and  C_21
    2  A    between atoms: C_7  and  C_15
    3  A    between atoms: C_7  and  C_30
    4  A    between atoms: P_12  and  C_14
    5  A    between atoms: C_21  and  P_22
    6  A    between atoms: N_25  and  C_40
    7  A    between atoms: C_30  and  C_40
    8  A    between atoms: C_32  and  C_37
    9  A    between atoms: C_33  and  C_45
   10  A    between atoms: O_34  and  C_36
   11  A    between atoms: O_34  and  C_39
                            x       y       z     vdW  Elec       q    Type
                         _______ _______ _______ _____ _____    ______ ____

>  <TORSDO>
F 11

$$$$
=
 OpenBabel10232411343D

 48 52  0  0  1  0  0  0  0  0999 V2000
  183.7330  177.7330  138.0680 C   0  0  1  0  0  0  0  0  0  0  0  0
  184.1290  176.8430  139.2820 C   0  0  0  0  0  2  0  0  0  0  0  0
  184.5190  177.6040  140.5840 C   0  0  1  0  0  3  0  0  0  0  0  0
  181.6790  178.4960  137.0850 N   0  0  0  0  0  0  0  0  0  0  0  0
  184.8750  178.7050  137.6940 C   0  0  0  0  0  2  0  0  0  0  0  0
  184.2640  179.5140  143.1030 C   0  0  2  0  0  3  0  0  0  0  0  0
  185.7950  178.4970  140.5790 C   0  0  1  0  0  3  0  0  0  0  0  0
  183.2030  179.2210  142.0850 C   0  0  0  0  0  3  0  0  0  0  0  0
  181.4860  181.0380  136.9860 C   0  0  0  0  0  1  0  0  0  0  0  0
  183.3940  176.8750  136.8460 C   0  0  0  0  0  2  0  0  0  0  0  0
  185.4920  179.9350  142.5360 O   0  0  0  0  0  0  0  0  0  0  0  0
  186.1570  178.8070  142.0310 C   0  0  0  0  0  2  0  0  0  0  0  0
  182.4490  178.5120  138.3220 C   0  0  0  0  0  2  0  0  0  0  0  0
  186.3160  178.1110  137.5440 C   0  0  1  0  0  3  0  0  0  0  0  0
  182.2700  177.6130  136.1020 C   0  0  1  0  0  3  0  0  0  0  0  0
  179.9820  179.5620  135.8830 O   0  0  0  0  0  0  0  0  0  0  0  0
  187.1090  178.0210  139.8550 C   0  0  2  0  0  3  0  0  0  0  0  0
  186.8490  177.2690  138.6320 N   0  0  0  0  0  2  0  0  0  0  0  0
  183.3180  178.3920  141.0380 C   0  0  0  0  0  3  0  0  0  0  0  0
  180.9630  179.6700  136.6530 C   0  0  0  0  0  0  0  0  0  0  0  0
  188.1740  177.3070  135.6870 C   0  0  2  0  0  3  0  0  0  0  0  0
  186.7820  177.7690  136.0910 C   0  0  1  0  0  3  0  0  0  0  0  0
  187.1650  176.3920  136.0190 O   0  0  0  0  0  0  0  0  0  0  0  0
  189.5340  177.2130  136.9170 P   0  0  0  0  0  0  0  0  0  0  0  0
  190.8810  176.9140  136.3080 O   0  0  0  0  0  0  0  0  0  0  0  0
  189.1220  175.9670  137.9720 O   0  0  0  0  0  1  0  0  0  0  0  0
  189.7080  178.6890  137.7660 O   0  0  0  0  0  1  0  0  0  0  0  0
  181.3990  175.3540  135.6360 C   0  0  0  0  0  3  0  0  0  0  0  0
  181.2560  176.6750  135.4990 C   0  0  0  0  0  3  0  0  0  0  0  0
  180.3920  174.4120  135.0750 C   0  0  0  0  0  2  0  0  0  0  0  0
  179.9970  171.6830  134.7160 O   0  0  0  0  0  0  0  0  0  0  0  0
  180.4530  172.4290  137.1920 O   0  0  0  0  0  1  0  0  0  0  0  0
  180.8030  172.6680  135.5450 P   0  0  0  0  0  0  0  0  0  0  0  0
  182.4620  172.3960  135.2770 O   0  0  0  0  0  1  0  0  0  0  0  0
  184.3290  178.4580  144.2110 C   0  0  0  0  0  2  0  0  0  0  0  0
  185.0640  179.0290  145.4020 C   0  0  0  0  0  2  0  0  0  0  0  0
  185.3690  177.9420  146.4100 C   0  0  0  0  0  2  0  0  0  0  0  0
  187.1650  177.9600  148.1110 C   0  0  0  0  0  3  0  0  0  0  0  0
  189.5960  176.8220  146.7300 C   0  0  0  0  0  2  0  0  0  0  0  0
  188.7900  177.1190  145.4560 C   0  0  0  0  0  2  0  0  0  0  0  0
  186.7950  177.9440  146.7160 N   0  0  0  0  0  0  0  0  0  0  0  0
  187.7190  178.2200  145.6080 C   0  0  0  0  0  2  0  0  0  0  0  0
  189.6540  177.9990  147.6890 C   0  0  0  0  0  2  0  0  0  0  0  0
  188.4320  177.9720  148.5690 C   0  0  0  0  0  3  0  0  0  0  0  0
  187.9790  177.2670  140.6920 O   0  0  0  0  0  0  0  0  0  0  0  0
  190.4160  176.9990  140.8980 C   0  0  0  0  0  1  0  0  0  0  0  0
  189.2060  178.8190  141.9030 O   0  0  0  0  0  1  0  0  0  0  0  0
  189.2200  177.9340  140.8260 C   0  0  2  0  0  3  0  0  0  0  0  0
  1 10  1  6  0  0  0
  1 13  1  0  0  0  0
  1  2  1  0  0  0  0
  3  2  1  6  0  0  0
  3 19  1  0  0  0  0
  4 13  1  0  0  0  0
  5  1  1  0  0  0  0
  6 35  1  6  0  0  0
  7  3  1  0  0  0  0
  7 12  1  1  0  0  0
  8  6  1  0  0  0  0
 11  6  1  0  0  0  0
 12 11  1  0  0  0  0
 14  5  1  6  0  0  0
 14 18  1  0  0  0  0
 15 29  1  1  0  0  0
 15 10  1  0  0  0  0
 15  4  1  0  0  0  0
 16 20  2  0  0  0  0
 17  7  1  0  0  0  0
 17 45  1  1  0  0  0
 18 17  1  0  0  0  0
 19  8  2  0  0  0  0
 20  9  1  0  0  0  0
 20  4  1  0  0  0  0
 21 23  1  0  0  0  0
 21 22  1  0  0  0  0
 21 24  1  1  0  0  0
 22 23  1  1  0  0  0
 22 14  1  0  0  0  0
 24 27  1  0  0  0  0
 24 26  1  0  0  0  0
 25 24  2  0  0  0  0
 29 28  2  0  0  0  0
 30 33  1  0  0  0  0
 30 28  1  0  0  0  0
 31 33  2  0  0  0  0
 33 32  1  0  0  0  0
 34 33  1  0  0  0  0
 35 36  1  0  0  0  0
 36 37  1  0  0  0  0
 37 41  1  0  0  0  0
 38 44  2  0  0  0  0
 39 43  1  0  0  0  0
 40 42  1  0  0  0  0
 40 39  1  0  0  0  0
 41 38  1  0  0  0  0
 42 41  1  0  0  0  0
 43 44  1  0  0  0  0
 45 48  1  0  0  0  0
 48 46  1  1  0  0  0
 48 47  1  0  0  0  0
M  END
>  <MODEL>
6

>  <REMARK>
 VINA RESULT:      -5.0      3.006      7.556
  Name = 
  11 active torsions:
  status: ('A' for Active; 'I' for Inactive)
    1  A    between atoms: C_1  and  C_21
    2  A    between atoms: C_7  and  C_15
    3  A    between atoms: C_7  and  C_30
    4  A    between atoms: P_12  and  C_14
    5  A    between atoms: C_21  and  P_22
    6  A    between atoms: N_25  and  C_40
    7  A    between atoms: C_30  and  C_40
    8  A    between atoms: C_32  and  C_37
    9  A    between atoms: C_33  and  C_45
   10  A    between atoms: O_34  and  C_36
   11  A    between atoms: O_34  and  C_39
                            x       y       z     vdW  Elec       q    Type
                         _______ _______ _______ _____ _____    ______ ____

>  <TORSDO>
F 11

$$$$
=
 OpenBabel10232411343D

 48 52  0  0  1  0  0  0  0  0999 V2000
  189.9060  175.7660  136.9440 C   0  0  1  0  0  0  0  0  0  0  0  0
  190.3540  175.0240  138.2360 C   0  0  0  0  0  2  0  0  0  0  0  0
  190.7090  175.9320  139.4520 C   0  0  1  0  0  3  0  0  0  0  0  0
  187.8080  176.3160  135.9100 N   0  0  0  0  0  0  0  0  0  0  0  0
  190.9920  176.7540  136.4630 C   0  0  0  0  0  2  0  0  0  0  0  0
  190.3630  178.0690  141.7700 C   0  0  2  0  0  3  0  0  0  0  0  0
  191.9350  176.8860  139.3450 C   0  0  1  0  0  3  0  0  0  0  0  0
  189.3150  177.6200  140.7970 C   0  0  0  0  0  3  0  0  0  0  0  0
  187.4790  178.8220  135.5590 C   0  0  0  0  0  1  0  0  0  0  0  0
  189.6070  174.7730  135.8180 C   0  0  0  0  0  2  0  0  0  0  0  0
  191.5640  178.4950  141.1510 O   0  0  0  0  0  0  0  0  0  0  0  0
  192.2870  177.3590  140.7550 C   0  0  0  0  0  2  0  0  0  0  0  0
  188.5820  176.4970  137.1310 C   0  0  0  0  0  2  0  0  0  0  0  0
  192.4620  176.2260  136.3580 C   0  0  1  0  0  3  0  0  0  0  0  0
  188.4420  175.3710  135.0140 C   0  0  1  0  0  3  0  0  0  0  0  0
  186.0510  177.1650  134.6240 O   0  0  0  0  0  0  0  0  0  0  0  0
  193.2700  176.4100  138.6590 C   0  0  2  0  0  3  0  0  0  0  0  0
  193.0440  175.5260  137.5200 N   0  0  0  0  0  2  0  0  0  0  0  0
  189.4690  176.6970  139.8370 C   0  0  0  0  0  3  0  0  0  0  0  0
  187.0290  177.4010  135.3700 C   0  0  0  0  0  0  0  0  0  0  0  0
  194.3190  175.9980  134.3470 C   0  0  2  0  0  3  0  0  0  0  0  0
  192.9390  175.7640  134.9430 C   0  0  1  0  0  3  0  0  0  0  0  0
  194.0210  174.8380  135.0770 O   0  0  0  0  0  0  0  0  0  0  0  0
  195.5790  176.9930  135.2390 P   0  0  0  0  0  0  0  0  0  0  0  0
  196.3390  177.9440  134.3490 O   0  0  0  0  0  0  0  0  0  0  0  0
  196.6580  175.8860  135.9050 O   0  0  0  0  0  1  0  0  0  0  0  0
  194.8620  177.9490  136.4640 O   0  0  0  0  0  1  0  0  0  0  0  0
  186.4900  173.8940  135.3110 C   0  0  0  0  0  3  0  0  0  0  0  0
  187.4760  174.3250  134.5180 C   0  0  0  0  0  3  0  0  0  0  0  0
  185.5070  172.8850  134.8290 C   0  0  0  0  0  2  0  0  0  0  0  0
  184.6650  170.5740  136.1270 O   0  0  0  0  0  0  0  0  0  0  0  0
  183.0300  172.6200  136.3170 O   0  0  0  0  0  1  0  0  0  0  0  0
  184.6440  172.0870  136.2610 P   0  0  0  0  0  0  0  0  0  0  0  0
  185.4320  172.5300  137.7030 O   0  0  0  0  0  1  0  0  0  0  0  0
  190.4900  177.1350  142.9770 C   0  0  0  0  0  2  0  0  0  0  0  0
  190.4150  177.9490  144.2490 C   0  0  0  0  0  2  0  0  0  0  0  0
  189.8140  177.1290  145.3700 C   0  0  0  0  0  2  0  0  0  0  0  0
  187.8910  178.0010  146.6580 C   0  0  0  0  0  3  0  0  0  0  0  0
  185.7720  178.6450  144.6060 C   0  0  0  0  0  2  0  0  0  0  0  0
  186.6380  177.7600  143.6970 C   0  0  0  0  0  2  0  0  0  0  0  0
  188.3810  177.3840  145.4490 N   0  0  0  0  0  0  0  0  0  0  0  0
  187.5280  176.7410  144.4390 C   0  0  0  0  0  2  0  0  0  0  0  0
  185.4670  178.0040  145.9500 C   0  0  0  0  0  2  0  0  0  0  0  0
  186.5990  178.2980  146.8990 C   0  0  0  0  0  3  0  0  0  0  0  0
  194.1820  175.7910  139.5580 O   0  0  0  0  0  0  0  0  0  0  0  0
  194.7830  173.6110  138.5870 C   0  0  0  0  0  1  0  0  0  0  0  0
  196.4140  175.1680  139.4290 O   0  0  0  0  0  1  0  0  0  0  0  0
  195.1570  175.0630  138.8330 C   0  0  2  0  0  3  0  0  0  0  0  0
  1 10  1  6  0  0  0
  1 13  1  0  0  0  0
  1  2  1  0  0  0  0
  3  2  1  6  0  0  0
  3 19  1  0  0  0  0
  4 13  1  0  0  0  0
  5  1  1  0  0  0  0
  6 35  1  1  0  0  0
  7  3  1  0  0  0  0
  7 12  1  1  0  0  0
  8  6  1  0  0  0  0
 11  6  1  0  0  0  0
 12 11  1  0  0  0  0
 14  5  1  6  0  0  0
 14 18  1  0  0  0  0
 15 29  1  1  0  0  0
 15 10  1  0  0  0  0
 15  4  1  0  0  0  0
 16 20  2  0  0  0  0
 17  7  1  0  0  0  0
 17 45  1  1  0  0  0
 18 17  1  0  0  0  0
 19  8  2  0  0  0  0
 20  9  1  0  0  0  0
 20  4  1  0  0  0  0
 21 22  1  0  0  0  0
 21 23  1  0  0  0  0
 21 24  1  1  0  0  0
 22 23  1  1  0  0  0
 22 14  1  0  0  0  0
 24 26  1  0  0  0  0
 24 27  1  0  0  0  0
 25 24  2  0  0  0  0
 29 28  2  0  0  0  0
 30 28  1  0  0  0  0
 30 33  1  0  0  0  0
 31 33  2  0  0  0  0
 33 32  1  0  0  0  0
 33 34  1  0  0  0  0
 35 36  1  0  0  0  0
 36 37  1  0  0  0  0
 37 41  1  0  0  0  0
 38 44  2  0  0  0  0
 39 43  1  0  0  0  0
 40 42  1  0  0  0  0
 40 39  1  0  0  0  0
 41 38  1  0  0  0  0
 42 41  1  0  0  0  0
 43 44  1  0  0  0  0
 48 46  1  1  0  0  0
 48 47  1  0  0  0  0
 48 45  1  0  0  0  0
M  END
>  <MODEL>
7

>  <REMARK>
 VINA RESULT:      -5.0      2.383      7.283
  Name = 
  11 active torsions:
  status: ('A' for Active; 'I' for Inactive)
    1  A    between atoms: C_1  and  C_21
    2  A    between atoms: C_7  and  C_15
    3  A    between atoms: C_7  and  C_30
    4  A    between atoms: P_12  and  C_14
    5  A    between atoms: C_21  and  P_22
    6  A    between atoms: N_25  and  C_40
    7  A    between atoms: C_30  and  C_40
    8  A    between atoms: C_32  and  C_37
    9  A    between atoms: C_33  and  C_45
   10  A    between atoms: O_34  and  C_36
   11  A    between atoms: O_34  and  C_39
                            x       y       z     vdW  Elec       q    Type
                         _______ _______ _______ _____ _____    ______ ____

>  <TORSDO>
F 11

$$$$
=
 OpenBabel10232411343D

 48 52  0  0  1  0  0  0  0  0999 V2000
  189.7690  175.7350  137.3010 C   0  0  1  0  0  0  0  0  0  0  0  0
  190.4230  174.9920  138.5020 C   0  0  0  0  0  2  0  0  0  0  0  0
  191.0040  175.8980  139.6280 C   0  0  1  0  0  3  0  0  0  0  0  0
  187.5340  176.3230  136.6460 N   0  0  0  0  0  0  0  0  0  0  0  0
  190.7740  176.6970  136.6280 C   0  0  0  0  0  2  0  0  0  0  0  0
  191.1120  178.0560  141.9510 C   0  0  2  0  0  3  0  0  0  0  0  0
  192.2110  176.8270  139.2980 C   0  0  1  0  0  3  0  0  0  0  0  0
  189.9010  177.6230  141.1810 C   0  0  0  0  0  3  0  0  0  0  0  0
  187.1980  178.8330  136.3350 C   0  0  0  0  0  1  0  0  0  0  0  0
  189.2580  174.7420  136.2540 C   0  0  0  0  0  2  0  0  0  0  0  0
  192.1940  178.4530  141.1270 O   0  0  0  0  0  0  0  0  0  0  0  0
  192.8140  177.3000  140.6200 C   0  0  0  0  0  2  0  0  0  0  0  0
  188.5140  176.4950  137.7110 C   0  0  0  0  0  2  0  0  0  0  0  0
  192.1920  176.1380  136.2720 C   0  0  1  0  0  3  0  0  0  0  0  0
  187.9820  175.3600  135.6620 C   0  0  1  0  0  3  0  0  0  0  0  0
  185.5960  177.2010  135.6810 O   0  0  0  0  0  0  0  0  0  0  0  0
  193.3940  176.3190  138.3930 C   0  0  2  0  0  3  0  0  0  0  0  0
  192.9550  175.4330  137.3200 N   0  0  0  0  0  2  0  0  0  0  0  0
  189.8660  176.6910  140.2180 C   0  0  0  0  0  3  0  0  0  0  0  0
  186.6940  177.4210  136.2410 C   0  0  0  0  0  0  0  0  0  0  0  0
  192.5700  174.2160  134.3460 C   0  0  2  0  0  3  0  0  0  0  0  0
  192.4040  175.6590  134.7990 C   0  0  1  0  0  3  0  0  0  0  0  0
  191.3100  174.8280  134.4000 O   0  0  0  0  0  0  0  0  0  0  0  0
  192.6540  172.8450  135.5640 P   0  0  0  0  0  0  0  0  0  0  0  0
  191.8070  173.0730  136.7910 O   0  0  0  0  0  1  0  0  0  0  0  0
  194.2690  172.7330  136.0270 O   0  0  0  0  0  1  0  0  0  0  0  0
  192.1200  171.3710  134.8790 O   0  0  0  0  0  0  0  0  0  0  0  0
  186.9980  173.1110  135.8920 C   0  0  0  0  0  3  0  0  0  0  0  0
  186.9240  174.3320  135.3530 C   0  0  0  0  0  3  0  0  0  0  0  0
  185.9460  172.0910  135.6240 C   0  0  0  0  0  2  0  0  0  0  0  0
  183.5320  173.4520  135.8580 O   0  0  0  0  0  0  0  0  0  0  0  0
  184.8560  173.1330  138.1040 O   0  0  0  0  0  1  0  0  0  0  0  0
  184.4180  172.4660  136.6010 P   0  0  0  0  0  0  0  0  0  0  0  0
  183.5530  171.0240  136.8580 O   0  0  0  0  0  1  0  0  0  0  0  0
  191.4310  177.1260  143.1260 C   0  0  0  0  0  2  0  0  0  0  0  0
  190.1400  176.6420  143.7440 C   0  0  0  0  0  2  0  0  0  0  0  0
  189.2460  177.8110  144.0960 C   0  0  0  0  0  2  0  0  0  0  0  0
  189.6570  177.5010  146.5150 C   0  0  0  0  0  3  0  0  0  0  0  0
  187.1260  178.4130  147.8860 C   0  0  0  0  0  2  0  0  0  0  0  0
  186.5260  178.2740  146.4780 C   0  0  0  0  0  2  0  0  0  0  0  0
  188.7050  177.6270  145.4370 N   0  0  0  0  0  0  0  0  0  0  0  0
  187.2770  177.3000  145.5460 C   0  0  0  0  0  2  0  0  0  0  0  0
  187.9190  177.1920  148.3210 C   0  0  0  0  0  2  0  0  0  0  0  0
  189.3300  177.3190  147.8100 C   0  0  0  0  0  3  0  0  0  0  0  0
  194.4380  175.6850  139.1250 O   0  0  0  0  0  0  0  0  0  0  0  0
  196.0250  173.8060  139.0530 C   0  0  0  0  0  1  0  0  0  0  0  0
  195.8050  175.4070  137.2700 O   0  0  0  0  0  1  0  0  0  0  0  0
  195.1160  174.7590  138.2950 C   0  0  2  0  0  3  0  0  0  0  0  0
  1 10  1  6  0  0  0
  1 13  1  0  0  0  0
  1  2  1  0  0  0  0
  3  2  1  6  0  0  0
  3 19  1  0  0  0  0
  4 13  1  0  0  0  0
  5  1  1  0  0  0  0
  6 35  1  6  0  0  0
  7  3  1  0  0  0  0
  7 12  1  1  0  0  0
  8  6  1  0  0  0  0
 11  6  1  0  0  0  0
 12 11  1  0  0  0  0
 14  5  1  1  0  0  0
 14 18  1  0  0  0  0
 15 29  1  1  0  0  0
 15 10  1  0  0  0  0
 15  4  1  0  0  0  0
 16 20  2  0  0  0  0
 17 45  1  1  0  0  0
 17  7  1  0  0  0  0
 18 17  1  0  0  0  0
 19  8  2  0  0  0  0
 20  9  1  0  0  0  0
 20  4  1  0  0  0  0
 21 23  1  0  0  0  0
 21 22  1  0  0  0  0
 21 24  1  1  0  0  0
 22 23  1  6  0  0  0
 22 14  1  0  0  0  0
 24 26  1  0  0  0  0
 24 25  1  0  0  0  0
 27 24  2  0  0  0  0
 29 28  2  0  0  0  0
 30 28  1  0  0  0  0
 30 33  1  0  0  0  0
 31 33  2  0  0  0  0
 33 34  1  0  0  0  0
 33 32  1  0  0  0  0
 35 36  1  0  0  0  0
 36 37  1  0  0  0  0
 37 41  1  0  0  0  0
 38 44  2  0  0  0  0
 39 43  1  0  0  0  0
 40 39  1  0  0  0  0
 41 42  1  0  0  0  0
 41 38  1  0  0  0  0
 42 40  1  0  0  0  0
 44 43  1  0  0  0  0
 47 48  1  0  0  0  0
 48 46  1  1  0  0  0
 48 45  1  0  0  0  0
M  END
>  <MODEL>
8

>  <REMARK>
 VINA RESULT:      -4.5      2.406      6.817
  Name = 
  11 active torsions:
  status: ('A' for Active; 'I' for Inactive)
    1  A    between atoms: C_1  and  C_21
    2  A    between atoms: C_7  and  C_15
    3  A    between atoms: C_7  and  C_30
    4  A    between atoms: P_12  and  C_14
    5  A    between atoms: C_21  and  P_22
    6  A    between atoms: N_25  and  C_40
    7  A    between atoms: C_30  and  C_40
    8  A    between atoms: C_32  and  C_37
    9  A    between atoms: C_33  and  C_45
   10  A    between atoms: O_34  and  C_36
   11  A    between atoms: O_34  and  C_39
                            x       y       z     vdW  Elec       q    Type
                         _______ _______ _______ _____ _____    ______ ____

>  <TORSDO>
F 11

$$$$
=
 OpenBabel10232411343D

 48 52  0  0  1  0  0  0  0  0999 V2000
  188.5280  177.3060  141.7740 C   0  0  1  0  0  0  0  0  0  0  0  0
  187.4610  176.5410  142.6100 C   0  0  0  0  0  2  0  0  0  0  0  0
  186.3250  177.4120  143.2240 C   0  0  1  0  0  3  0  0  0  0  0  0
  188.9140  177.7280  139.4410 N   0  0  0  0  0  0  0  0  0  0  0  0
  189.2130  178.4050  142.6170 C   0  0  0  0  0  2  0  0  0  0  0  0
  183.8540  179.3940  143.3860 C   0  0  2  0  0  3  0  0  0  0  0  0
  186.6920  178.4720  144.3060 C   0  0  1  0  0  3  0  0  0  0  0  0
  184.5360  178.9060  142.1440 C   0  0  0  0  0  3  0  0  0  0  0  0
  188.9820  180.2110  138.8590 C   0  0  0  0  0  1  0  0  0  0  0  0
  189.5990  176.3490  141.2450 C   0  0  0  0  0  2  0  0  0  0  0  0
  184.7420  179.9500  144.3390 O   0  0  0  0  0  0  0  0  0  0  0  0
  185.4000  178.9010  145.0000 C   0  0  0  0  0  2  0  0  0  0  0  0
  187.9380  177.9120  140.5070 C   0  0  0  0  0  2  0  0  0  0  0  0
  189.7490  178.0090  144.0330 C   0  0  1  0  0  3  0  0  0  0  0  0
  190.0130  176.8860  139.8660 C   0  0  1  0  0  3  0  0  0  0  0  0
  189.6120  178.4880  137.3450 O   0  0  0  0  0  0  0  0  0  0  0  0
  187.7460  178.1460  145.4290 C   0  0  2  0  0  3  0  0  0  0  0  0
  188.8410  177.3040  144.9590 N   0  0  0  0  0  2  0  0  0  0  0  0
  185.5650  178.0490  142.0890 C   0  0  0  0  0  3  0  0  0  0  0  0
  189.1440  178.7690  138.4720 C   0  0  0  0  0  0  0  0  0  0  0  0
  191.9820  177.1170  145.3610 C   0  0  2  0  0  3  0  0  0  0  0  0
  191.2700  177.6620  144.1320 C   0  0  1  0  0  3  0  0  0  0  0  0
  191.4290  176.2640  144.3950 O   0  0  0  0  0  0  0  0  0  0  0  0
  191.0950  176.9130  146.9560 P   0  0  0  0  0  0  0  0  0  0  0  0
  189.9940  175.8840  146.9090 O   0  0  0  0  0  0  0  0  0  0  0  0
  190.4250  178.4170  147.3100 O   0  0  0  0  0  1  0  0  0  0  0  0
  192.1610  176.4200  148.2010 O   0  0  0  0  0  1  0  0  0  0  0  0
  191.4760  175.7550  138.2360 C   0  0  0  0  0  3  0  0  0  0  0  0
  190.3020  175.7890  138.8740 C   0  0  0  0  0  3  0  0  0  0  0  0
  191.7930  174.6620  137.2760 C   0  0  0  0  0  2  0  0  0  0  0  0
  194.3390  173.6320  137.7160 O   0  0  0  0  0  1  0  0  0  0  0  0
  194.2520  176.2010  137.1810 O   0  0  0  0  0  1  0  0  0  0  0  0
  193.6020  174.6590  136.8740 P   0  0  0  0  0  0  0  0  0  0  0  0
  193.8060  174.2810  135.2280 O   0  0  0  0  0  0  0  0  0  0  0  0
  182.7960  178.4140  143.9040 C   0  0  0  0  0  2  0  0  0  0  0  0
  181.4400  179.0820  143.8760 C   0  0  0  0  0  2  0  0  0  0  0  0
  180.4620  178.2670  143.0570 C   0  0  0  0  0  2  0  0  0  0  0  0
  180.3560  179.9320  141.2300 C   0  0  0  0  0  3  0  0  0  0  0  0
  182.1840  178.8770  139.0720 C   0  0  0  0  0  2  0  0  0  0  0  0
  182.0580  177.5620  139.8560 C   0  0  0  0  0  2  0  0  0  0  0  0
  180.6330  178.5760  141.6420 N   0  0  0  0  0  0  0  0  0  0  0  0
  180.7850  177.4420  140.7200 C   0  0  0  0  0  2  0  0  0  0  0  0
  180.8440  179.5330  138.7850 C   0  0  0  0  0  2  0  0  0  0  0  0
  180.4550  180.3840  139.9650 C   0  0  0  0  0  3  0  0  0  0  0  0
  187.1730  177.5610  146.5930 O   0  0  0  0  0  0  0  0  0  0  0  0
  187.8000  177.6800  148.9700 C   0  0  0  0  0  1  0  0  0  0  0  0
  186.2510  179.2090  147.9420 O   0  0  0  0  0  1  0  0  0  0  0  0
  187.3710  178.4110  147.7080 C   0  0  2  0  0  3  0  0  0  0  0  0
  1 13  1  6  0  0  0
  1  2  1  0  0  0  0
  1  5  1  0  0  0  0
  2  3  1  0  0  0  0
  3 19  1  6  0  0  0
  3  7  1  0  0  0  0
  4 15  1  0  0  0  0
  4 13  1  0  0  0  0
  6 35  1  1  0  0  0
  6 11  1  0  0  0  0
  7 12  1  1  0  0  0
  7 17  1  0  0  0  0
  8  6  1  0  0  0  0
 10  1  1  0  0  0  0
 11 12  1  0  0  0  0
 14  5  1  6  0  0  0
 14 22  1  0  0  0  0
 14 18  1  0  0  0  0
 15 29  1  6  0  0  0
 15 10  1  0  0  0  0
 16 20  2  0  0  0  0
 17 45  1  1  0  0  0
 18 17  1  0  0  0  0
 19  8  2  0  0  0  0
 20  9  1  0  0  0  0
 20  4  1  0  0  0  0
 21 24  1  1  0  0  0
 22 23  1  6  0  0  0
 22 21  1  0  0  0  0
 23 21  1  0  0  0  0
 24 26  1  0  0  0  0
 24 27  1  0  0  0  0
 25 24  2  0  0  0  0
 28 29  2  0  0  0  0
 30 28  1  0  0  0  0
 33 32  1  0  0  0  0
 33 30  1  0  0  0  0
 33 31  1  0  0  0  0
 34 33  2  0  0  0  0
 36 35  1  0  0  0  0
 37 36  1  0  0  0  0
 38 41  1  0  0  0  0
 39 40  1  0  0  0  0
 40 42  1  0  0  0  0
 41 37  1  0  0  0  0
 42 41  1  0  0  0  0
 43 39  1  0  0  0  0
 43 44  1  0  0  0  0
 44 38  2  0  0  0  0
 45 48  1  0  0  0  0
 48 47  1  0  0  0  0
 48 46  1  1  0  0  0
M  END
>  <MODEL>
9

>  <REMARK>
 VINA RESULT:      -4.3      3.554      7.907
  Name = 
  11 active torsions:
  status: ('A' for Active; 'I' for Inactive)
    1  A    between atoms: C_1  and  C_21
    2  A    between atoms: C_7  and  C_15
    3  A    between atoms: C_7  and  C_30
    4  A    between atoms: P_12  and  C_14
    5  A    between atoms: C_21  and  P_22
    6  A    between atoms: N_25  and  C_40
    7  A    between atoms: C_30  and  C_40
    8  A    between atoms: C_32  and  C_37
    9  A    between atoms: C_33  and  C_45
   10  A    between atoms: O_34  and  C_36
   11  A    between atoms: O_34  and  C_39
                            x       y       z     vdW  Elec       q    Type
                         _______ _______ _______ _____ _____    ______ ____

>  <TORSDO>
F 11

$$$$
