=
 OpenBabel10232411303D

 54 62  0  0  1  0  0  0  0  0999 V2000
  184.2640  178.8500  139.6740 C   0  0  0  0  0  3  0  0  0  0  0  0
  182.7490  176.9380  134.7400 N   0  0  0  0  0  0  0  0  0  0  0  0
  184.8760  177.8310  137.5880 N   0  0  0  0  0  0  0  0  0  0  0  0
  180.8200  177.9260  136.4060 C   0  0  0  0  0  3  0  0  0  0  0  0
  185.9410  179.1300  141.5670 C   0  0  2  0  0  3  0  0  0  0  0  0
  180.4950  177.4510  135.1800 N   0  0  0  0  0  0  0  0  0  0  0  0
  186.3100  177.8470  137.9120 C   0  0  0  0  0  2  0  0  0  0  0  0
  182.4790  178.4050  138.0630 C   0  0  0  0  0  0  0  0  0  0  0  0
  186.5830  178.2200  139.3470 C   0  0  0  0  0  3  0  0  0  0  0  0
  185.3930  176.7930  135.3980 N   0  0  0  0  0  1  0  0  0  0  0  0
  181.4500  176.9650  134.3490 C   0  0  0  0  0  3  0  0  0  0  0  0
  181.8550  179.3470  142.1330 C   0  0  2  0  0  3  0  0  0  0  0  0
  181.7520  179.0240  143.6040 C   0  0  0  0  0  2  0  0  0  0  0  0
  181.2640  177.8750  140.1670 C   0  0  2  0  0  3  0  0  0  0  0  0
  180.7530  178.5770  141.4190 C   0  0  0  0  0  2  0  0  0  0  0  0
  183.1360  177.4010  135.9590 C   0  0  0  0  0  0  0  0  0  0  0  0
  184.4380  177.3440  136.3060 C   0  0  0  0  0  0  0  0  0  0  0  0
  182.8660  178.4070  142.7790 C   0  0  2  0  0  3  0  0  0  0  0  0
  182.1520  177.9270  136.8420 C   0  0  0  0  0  0  0  0  0  0  0  0
  183.8970  178.3940  138.4760 C   0  0  0  0  0  0  0  0  0  0  0  0
  184.0490  179.1040  143.0440 O   0  0  0  0  0  0  0  0  0  0  0  0
  185.0940  178.3120  142.5600 C   0  0  2  0  0  3  0  0  0  0  0  0
  181.4230  178.8790  139.0290 C   0  0  0  0  0  2  0  0  0  0  0  0
  185.6450  178.7380  140.1460 C   0  0  0  0  0  0  0  0  0  0  0  0
  187.6950  179.2880  141.9340 Cl  0  0  0  0  0  0  0  0  0  0  0  0
  185.8800  177.6730  143.7100 C   0  0  0  0  0  2  0  0  0  0  0  0
  185.5710  178.3260  145.0510 C   0  0  0  0  0  2  0  0  0  0  0  0
  186.5650  177.8410  146.0880 C   0  0  0  0  0  2  0  0  0  0  0  0
  187.8070  177.3170  145.3880 C   0  0  0  0  0  2  0  0  0  0  0  0
  189.0660  177.9040  146.0080 C   0  0  1  0  0  3  0  0  0  0  0  0
  189.5320  177.0530  147.0130 O   0  0  0  0  0  0  0  0  0  0  0  0
  189.4990  177.8180  148.1790 C   0  0  0  0  0  1  0  0  0  0  0  0
  190.1460  178.0700  144.9450 C   0  0  0  0  0  2  0  0  0  0  0  0
  190.8780  176.7670  144.7220 C   0  0  0  0  0  2  0  0  0  0  0  0
  192.0470  177.1660  142.6140 O   0  0  0  0  0  0  0  0  0  0  0  0
  190.1880  176.7150  141.1360 C   0  0  0  0  0  2  0  0  0  0  0  0
  191.4460  177.5470  141.3810 C   0  0  0  0  0  2  0  0  0  0  0  0
  188.9560  175.5840  142.8640 O   0  0  0  0  0  0  0  0  0  0  0  0
  191.0620  176.5340  143.3050 N   0  0  0  0  0  0  0  0  0  0  0  0
  189.9810  176.1980  142.4750 C   0  0  0  0  0  0  0  0  0  0  0  0
  180.3360  176.7500  139.7280 C   0  0  0  0  0  2  0  0  0  0  0  0
  181.0890  175.4400  139.5420 C   0  0  0  0  0  2  0  0  0  0  0  0
  180.4680  174.6810  138.4680 N   0  0  0  0  0  2  0  0  0  0  0  0
  183.7130  173.5460  136.9820 C   0  0  1  0  0  3  0  0  0  0  0  0
  182.4900  171.3150  136.6510 C   0  0  1  0  0  0  0  0  0  0  0  0
  185.0210  173.9970  137.1590 O   0  0  0  0  0  1  0  0  0  0  0  0
  182.3710  171.1600  135.1630 C   0  0  0  0  0  2  0  0  0  0  0  0
  184.6300  170.4750  135.5990 C   0  0  0  0  0  1  0  0  0  0  0  0
  181.1780  172.0730  137.0020 C   0  0  0  0  0  2  0  0  0  0  0  0
  183.6830  172.0820  137.1130 N   0  0  1  0  0  0  0  0  0  0  0  0
  181.4520  174.5370  137.4040 C   0  0  2  0  0  3  0  0  0  0  0  0
  180.9830  173.4690  136.4160 C   0  0  0  0  0  2  0  0  0  0  0  0
  183.6620  171.6370  135.7160 C   0  0  2  0  0  0  0  0  0  0  0  0
  182.8130  174.2090  138.0140 C   0  0  0  0  0  2  0  0  0  0  0  0
  1 24  1  0  0  0  0
  2 16  1  0  0  0  0
  3  7  1  0  0  0  0
  3 20  1  0  0  0  0
  4 19  1  0  0  0  0
  5 25  1  1  0  0  0
  5 22  1  0  0  0  0
  6  4  2  0  0  0  0
  7  9  1  0  0  0  0
  8 20  1  0  0  0  0
  8 23  1  0  0  0  0
  9 24  2  0  0  0  0
 10 17  1  0  0  0  0
 11  2  2  0  0  0  0
 11  6  1  0  0  0  0
 12 15  1  6  0  0  0
 12 18  1  0  0  0  0
 12 13  1  0  0  0  0
 14 41  1  6  0  0  0
 14 15  1  0  0  0  0
 16 17  2  0  0  0  0
 16 19  1  0  0  0  0
 17  3  1  0  0  0  0
 18 21  1  0  0  0  0
 18 13  1  1  0  0  0
 19  8  2  0  0  0  0
 20  1  2  0  0  0  0
 22 21  1  0  0  0  0
 22 26  1  1  0  0  0
 23 14  1  0  0  0  0
 24  5  1  0  0  0  0
 26 27  1  0  0  0  0
 27 28  1  0  0  0  0
 29 30  1  0  0  0  0
 29 28  1  0  0  0  0
 30 33  1  6  0  0  0
 30 31  1  0  0  0  0
 31 32  1  0  0  0  0
 34 33  1  0  0  0  0
 35 39  1  0  0  0  0
 36 37  1  0  0  0  0
 36 40  1  0  0  0  0
 37 35  1  0  0  0  0
 39 34  1  0  0  0  0
 40 38  2  0  0  0  0
 40 39  1  0  0  0  0
 42 41  1  0  0  0  0
 43 42  1  0  0  0  0
 44 50  1  0  0  0  0
 44 46  1  1  0  0  0
 44 54  1  0  0  0  0
 45 47  1  1  0  0  0
 45 49  1  0  0  0  0
 45 50  1  0  0  0  0
 47 53  1  0  0  0  0
 48 53  1  0  0  0  0
 51 54  1  0  0  0  0
 51 43  1  0  0  0  0
 52 49  1  0  0  0  0
 52 51  1  0  0  0  0
 53 45  1  0  0  0  0
 53 50  1  0  0  0  0
M  END
>  <MODEL>
1

>  <REMARK>
 VINA RESULT:      -7.8      0.000      0.000
  Name = 
  13 active torsions:
  status: ('A' for Active; 'I' for Inactive)
    1  A    between atoms: O_4  and  C_12
    2  A    between atoms: C_8  and  C_23
    3  A    between atoms: C_8  and  N_43
    4  A    between atoms: C_10  and  C_16
    5  A    between atoms: C_10  and  C_29
    6  A    between atoms: C_12  and  C_17
    7  A    between atoms: C_12  and  C_23
    8  A    between atoms: C_16  and  C_17
    9  A    between atoms: N_28  and  C_34
   10  A    between atoms: N_28  and  C_42
   11  A    between atoms: C_29  and  C_46
   12  A    between atoms: C_32  and  C_52
   13  A    between atoms: C_34  and  C_52
                            x       y       z     vdW  Elec       q    Type
                         _______ _______ _______ _____ _____    ______ ____

>  <TORSDO>
F 13

$$$$
=
 OpenBabel10232411303D

 54 62  0  0  1  0  0  0  0  0999 V2000
  187.1230  175.1040  136.3670 C   0  0  0  0  0  3  0  0  0  0  0  0
  181.8650  173.6000  136.9890 N   0  0  0  0  0  0  0  0  0  0  0  0
  185.5180  173.3730  136.8110 N   0  0  0  0  0  0  0  0  0  0  0  0
  182.4220  176.2300  136.4930 C   0  0  0  0  0  3  0  0  0  0  0  0
  189.6260  174.6830  136.5460 C   0  0  2  0  0  3  0  0  0  0  0  0
  181.1420  175.8130  136.6460 N   0  0  0  0  0  0  0  0  0  0  0  0
  186.5470  172.3230  136.8510 C   0  0  0  0  0  2  0  0  0  0  0  0
  184.7610  175.7350  136.4210 C   0  0  0  0  0  0  0  0  0  0  0  0
  187.9500  172.8750  136.8510 C   0  0  0  0  0  3  0  0  0  0  0  0
  183.7740  171.6680  137.2480 N   0  0  0  0  0  1  0  0  0  0  0  0
  180.8610  174.5090  136.8880 C   0  0  0  0  0  3  0  0  0  0  0  0
  187.9770  178.4700  136.5560 C   0  0  2  0  0  3  0  0  0  0  0  0
  189.0670  179.2550  137.2440 C   0  0  0  0  0  2  0  0  0  0  0  0
  185.7410  177.7540  137.4900 C   0  0  2  0  0  3  0  0  0  0  0  0
  186.6480  178.9280  137.1390 C   0  0  0  0  0  2  0  0  0  0  0  0
  183.1690  173.9600  136.8440 C   0  0  0  0  0  0  0  0  0  0  0  0
  184.1300  173.0220  136.9640 C   0  0  0  0  0  0  0  0  0  0  0  0
  188.8500  177.7990  137.6100 C   0  0  2  0  0  3  0  0  0  0  0  0
  183.4850  175.3210  136.5780 C   0  0  0  0  0  0  0  0  0  0  0  0
  185.8490  174.7390  136.5100 C   0  0  0  0  0  0  0  0  0  0  0  0
  189.8370  177.0340  136.9820 O   0  0  0  0  0  0  0  0  0  0  0  0
  189.8270  175.7820  137.6060 C   0  0  2  0  0  3  0  0  0  0  0  0
  185.0970  177.1920  136.2270 C   0  0  0  0  0  2  0  0  0  0  0  0
  188.2190  174.1540  136.5700 C   0  0  0  0  0  0  0  0  0  0  0  0
  190.8870  173.4040  136.4550 Cl  0  0  0  0  0  0  0  0  0  0  0  0
  191.0580  175.6030  138.5020 C   0  0  0  0  0  2  0  0  0  0  0  0
  191.8470  176.8970  138.6600 C   0  0  0  0  0  2  0  0  0  0  0  0
  192.1340  177.1340  140.1300 C   0  0  0  0  0  2  0  0  0  0  0  0
  190.9130  177.7540  140.7870 C   0  0  0  0  0  2  0  0  0  0  0  0
  190.6750  177.1540  142.1640 C   0  0  1  0  0  3  0  0  0  0  0  0
  190.5050  175.7710  142.0470 O   0  0  0  0  0  0  0  0  0  0  0  0
  189.5870  175.4340  143.0420 C   0  0  0  0  0  1  0  0  0  0  0  0
  191.8610  177.4410  143.0760 C   0  0  0  0  0  2  0  0  0  0  0  0
  191.4550  178.3590  144.2050 C   0  0  0  0  0  2  0  0  0  0  0  0
  189.3110  178.1060  145.3480 O   0  0  0  0  0  0  0  0  0  0  0  0
  190.1420  176.9910  147.3270 C   0  0  0  0  0  2  0  0  0  0  0  0
  189.1210  177.9720  146.7530 C   0  0  0  0  0  2  0  0  0  0  0  0
  192.2190  176.4220  146.2570 O   0  0  0  0  0  0  0  0  0  0  0  0
  190.5760  177.6640  145.1220 N   0  0  0  0  0  0  0  0  0  0  0  0
  191.0830  176.9570  146.2230 C   0  0  0  0  0  0  0  0  0  0  0  0
  184.6580  178.1510  138.4830 C   0  0  0  0  0  2  0  0  0  0  0  0
  185.2470  178.7840  139.7360 C   0  0  0  0  0  2  0  0  0  0  0  0
  184.1750  179.0590  140.6800 N   0  0  0  0  0  2  0  0  0  0  0  0
  185.8910  177.6690  143.7050 C   0  0  1  0  0  3  0  0  0  0  0  0
  184.6960  179.5700  144.9440 C   0  0  1  0  0  0  0  0  0  0  0  0
  187.0500  176.9050  143.8430 O   0  0  0  0  0  1  0  0  0  0  0  0
  183.7130  178.8820  145.8470 C   0  0  0  0  0  2  0  0  0  0  0  0
  185.7830  178.6770  147.0450 C   0  0  0  0  0  1  0  0  0  0  0  0
  183.8560  179.7780  143.6530 C   0  0  0  0  0  2  0  0  0  0  0  0
  185.9340  178.7940  144.6500 N   0  0  1  0  0  0  0  0  0  0  0  0
  184.3310  178.1460  141.8040 C   0  0  2  0  0  3  0  0  0  0  0  0
  183.3600  178.5360  142.9170 C   0  0  0  0  0  2  0  0  0  0  0  0
  185.0840  178.3220  145.7470 C   0  0  2  0  0  0  0  0  0  0  0  0
  185.7860  178.1600  142.2680 C   0  0  0  0  0  2  0  0  0  0  0  0
  1 20  2  0  0  0  0
  1 24  1  0  0  0  0
  3  7  1  0  0  0  0
  3 17  1  0  0  0  0
  4 19  1  0  0  0  0
  4  6  2  0  0  0  0
  5 25  1  1  0  0  0
  5 24  1  0  0  0  0
  5 22  1  0  0  0  0
  6 11  1  0  0  0  0
  7  9  1  0  0  0  0
  8 20  1  0  0  0  0
  8 19  2  0  0  0  0
 11  2  2  0  0  0  0
 12 15  1  1  0  0  0
 12 13  1  0  0  0  0
 12 18  1  0  0  0  0
 14 41  1  1  0  0  0
 15 14  1  0  0  0  0
 16 17  2  0  0  0  0
 16  2  1  0  0  0  0
 17 10  1  0  0  0  0
 18 13  1  6  0  0  0
 19 16  1  0  0  0  0
 20  3  1  0  0  0  0
 21 22  1  0  0  0  0
 21 18  1  0  0  0  0
 22 26  1  6  0  0  0
 23  8  1  0  0  0  0
 23 14  1  0  0  0  0
 24  9  2  0  0  0  0
 26 27  1  0  0  0  0
 27 28  1  0  0  0  0
 28 29  1  0  0  0  0
 30 29  1  6  0  0  0
 30 33  1  0  0  0  0
 31 30  1  0  0  0  0
 31 32  1  0  0  0  0
 33 34  1  0  0  0  0
 34 39  1  0  0  0  0
 35 37  1  0  0  0  0
 37 36  1  0  0  0  0
 39 35  1  0  0  0  0
 39 40  1  0  0  0  0
 40 38  2  0  0  0  0
 40 36  1  0  0  0  0
 41 42  1  0  0  0  0
 42 43  1  0  0  0  0
 43 51  1  0  0  0  0
 44 46  1  6  0  0  0
 44 50  1  0  0  0  0
 45 49  1  6  0  0  0
 45 53  1  0  0  0  0
 45 47  1  0  0  0  0
 50 45  1  0  0  0  0
 50 53  1  0  0  0  0
 51 54  1  0  0  0  0
 51 52  1  0  0  0  0
 52 49  1  0  0  0  0
 53 47  1  0  0  0  0
 53 48  1  0  0  0  0
 54 44  1  0  0  0  0
M  END
>  <MODEL>
2

>  <REMARK>
 VINA RESULT:      -7.7      2.639      6.957
  Name = 
  13 active torsions:
  status: ('A' for Active; 'I' for Inactive)
    1  A    between atoms: O_4  and  C_12
    2  A    between atoms: C_8  and  C_23
    3  A    between atoms: C_8  and  N_43
    4  A    between atoms: C_10  and  C_16
    5  A    between atoms: C_10  and  C_29
    6  A    between atoms: C_12  and  C_17
    7  A    between atoms: C_12  and  C_23
    8  A    between atoms: C_16  and  C_17
    9  A    between atoms: N_28  and  C_34
   10  A    between atoms: N_28  and  C_42
   11  A    between atoms: C_29  and  C_46
   12  A    between atoms: C_32  and  C_52
   13  A    between atoms: C_34  and  C_52
                            x       y       z     vdW  Elec       q    Type
                         _______ _______ _______ _____ _____    ______ ____

>  <TORSDO>
F 13

$$$$
=
 OpenBabel10232411303D

 54 62  0  0  1  0  0  0  0  0999 V2000
  186.3140  178.6150  140.8600 C   0  0  0  0  0  3  0  0  0  0  0  0
  190.1060  177.3310  144.6360 N   0  0  0  0  0  0  0  0  0  0  0  0
  186.8360  177.9780  143.1150 N   0  0  0  0  0  0  0  0  0  0  0  0
  190.9330  177.8810  142.0890 C   0  0  0  0  0  3  0  0  0  0  0  0
  183.9120  178.7610  140.0340 C   0  0  2  0  0  3  0  0  0  0  0  0
  191.8310  177.5660  143.0530 N   0  0  0  0  0  0  0  0  0  0  0  0
  185.4340  178.0760  143.5490 C   0  0  0  0  0  2  0  0  0  0  0  0
  188.6670  178.2550  141.4200 C   0  0  0  0  0  0  0  0  0  0  0  0
  184.4750  178.2530  142.3990 C   0  0  0  0  0  3  0  0  0  0  0  0
  187.4920  177.3290  145.4150 N   0  0  0  0  0  1  0  0  0  0  0  0
  191.4260  177.2970  144.3180 C   0  0  0  0  0  3  0  0  0  0  0  0
  187.1540  178.5200  137.4860 C   0  0  2  0  0  3  0  0  0  0  0  0
  186.4990  177.9740  136.2400 C   0  0  0  0  0  2  0  0  0  0  0  0
  188.6520  177.3100  139.1200 C   0  0  2  0  0  3  0  0  0  0  0  0
  188.4630  177.7680  137.6800 C   0  0  0  0  0  2  0  0  0  0  0  0
  189.1590  177.6400  143.7100 C   0  0  0  0  0  0  0  0  0  0  0  0
  187.8600  177.6500  144.0720 C   0  0  0  0  0  0  0  0  0  0  0  0
  185.9510  177.5900  137.6020 C   0  0  2  0  0  3  0  0  0  0  0  0
  189.5630  177.9370  142.3790 C   0  0  0  0  0  0  0  0  0  0  0  0
  187.2340  178.3110  141.7750 C   0  0  0  0  0  0  0  0  0  0  0  0
  184.7990  178.3440  137.8430 O   0  0  0  0  0  0  0  0  0  0  0  0
  184.1390  177.7310  138.9120 C   0  0  2  0  0  3  0  0  0  0  0  0
  189.0910  178.4830  139.9920 C   0  0  0  0  0  2  0  0  0  0  0  0
  184.8830  178.5600  141.1630 C   0  0  0  0  0  0  0  0  0  0  0  0
  182.2130  179.0210  140.5660 Cl  0  0  0  0  0  0  0  0  0  0  0  0
  182.8770  177.0010  138.4350 C   0  0  0  0  0  2  0  0  0  0  0  0
  182.6460  177.1690  136.9400 C   0  0  0  0  0  2  0  0  0  0  0  0
  182.1330  175.8650  136.3600 C   0  0  0  0  0  2  0  0  0  0  0  0
  183.3070  174.9500  136.0640 C   0  0  0  0  0  2  0  0  0  0  0  0
  183.2830  173.7270  136.9690 C   0  0  1  0  0  3  0  0  0  0  0  0
  183.0350  172.5850  136.2030 O   0  0  0  0  0  0  0  0  0  0  0  0
  181.8850  172.0210  136.7560 C   0  0  0  0  0  1  0  0  0  0  0  0
  184.6210  173.5760  137.6830 C   0  0  0  0  0  2  0  0  0  0  0  0
  185.4890  172.5610  136.9770 C   0  0  0  0  0  2  0  0  0  0  0  0
  187.1810  174.3200  137.0940 O   0  0  0  0  0  0  0  0  0  0  0  0
  188.8770  173.2100  135.7760 C   0  0  0  0  0  2  0  0  0  0  0  0
  188.2270  174.5400  136.1540 C   0  0  0  0  0  2  0  0  0  0  0  0
  187.8170  171.0660  136.0320 O   0  0  0  0  0  0  0  0  0  0  0  0
  186.8680  173.0030  136.9690 N   0  0  0  0  0  0  0  0  0  0  0  0
  187.8550  172.3020  136.2600 C   0  0  0  0  0  0  0  0  0  0  0  0
  189.6710  176.1840  139.2290 C   0  0  0  0  0  2  0  0  0  0  0  0
  190.6840  176.2290  138.0930 C   0  0  0  0  0  2  0  0  0  0  0  0
  191.4610  175.0000  138.0970 N   0  0  0  0  0  2  0  0  0  0  0  0
  194.5330  175.9810  136.1950 C   0  0  1  0  0  3  0  0  0  0  0  0
  195.6170  174.0070  137.4220 C   0  0  1  0  0  0  0  0  0  0  0  0
  194.9250  177.1960  135.6310 O   0  0  0  0  0  1  0  0  0  0  0  0
  195.9210  173.0060  136.3440 C   0  0  0  0  0  2  0  0  0  0  0  0
  197.7270  174.5740  136.1510 C   0  0  0  0  0  1  0  0  0  0  0  0
  194.1820  173.5900  137.8530 C   0  0  0  0  0  2  0  0  0  0  0  0
  195.6440  175.4330  136.9850 N   0  0  1  0  0  0  0  0  0  0  0  0
  192.3390  175.0290  136.9360 C   0  0  2  0  0  3  0  0  0  0  0  0
  193.0680  173.6910  136.8140 C   0  0  0  0  0  2  0  0  0  0  0  0
  196.2190  174.4350  136.0780 C   0  0  2  0  0  0  0  0  0  0  0  0
  193.3010  176.2080  137.0590 C   0  0  0  0  0  2  0  0  0  0  0  0
  1 24  1  0  0  0  0
  1 20  2  0  0  0  0
  3  7  1  0  0  0  0
  3 17  1  0  0  0  0
  4 19  1  0  0  0  0
  4  6  2  0  0  0  0
  5 25  1  1  0  0  0
  5 24  1  0  0  0  0
  6 11  1  0  0  0  0
  8 20  1  0  0  0  0
  8 19  2  0  0  0  0
  9  7  1  0  0  0  0
 11  2  2  0  0  0  0
 12 13  1  6  0  0  0
 12 18  1  0  0  0  0
 12 15  1  0  0  0  0
 14 41  1  6  0  0  0
 14 23  1  0  0  0  0
 15 14  1  0  0  0  0
 16 17  2  0  0  0  0
 16  2  1  0  0  0  0
 17 10  1  0  0  0  0
 18 13  1  6  0  0  0
 18 21  1  0  0  0  0
 19 16  1  0  0  0  0
 20  3  1  0  0  0  0
 21 22  1  0  0  0  0
 22 26  1  6  0  0  0
 22  5  1  0  0  0  0
 23  8  1  0  0  0  0
 24  9  2  0  0  0  0
 27 26  1  0  0  0  0
 28 27  1  0  0  0  0
 29 28  1  0  0  0  0
 30 29  1  6  0  0  0
 30 33  1  0  0  0  0
 31 32  1  0  0  0  0
 31 30  1  0  0  0  0
 34 33  1  0  0  0  0
 36 37  1  0  0  0  0
 36 40  1  0  0  0  0
 37 35  1  0  0  0  0
 38 40  2  0  0  0  0
 39 34  1  0  0  0  0
 39 35  1  0  0  0  0
 40 39  1  0  0  0  0
 42 43  1  0  0  0  0
 42 41  1  0  0  0  0
 44 46  1  1  0  0  0
 44 50  1  0  0  0  0
 44 54  1  0  0  0  0
 45 47  1  1  0  0  0
 45 49  1  0  0  0  0
 50 45  1  0  0  0  0
 51 54  1  0  0  0  0
 51 43  1  0  0  0  0
 52 51  1  0  0  0  0
 52 49  1  0  0  0  0
 53 48  1  0  0  0  0
 53 47  1  0  0  0  0
 53 50  1  0  0  0  0
 53 45  1  0  0  0  0
M  END
>  <MODEL>
3

>  <REMARK>
 VINA RESULT:      -7.6      3.893      9.656
  Name = 
  13 active torsions:
  status: ('A' for Active; 'I' for Inactive)
    1  A    between atoms: O_4  and  C_12
    2  A    between atoms: C_8  and  C_23
    3  A    between atoms: C_8  and  N_43
    4  A    between atoms: C_10  and  C_16
    5  A    between atoms: C_10  and  C_29
    6  A    between atoms: C_12  and  C_17
    7  A    between atoms: C_12  and  C_23
    8  A    between atoms: C_16  and  C_17
    9  A    between atoms: N_28  and  C_34
   10  A    between atoms: N_28  and  C_42
   11  A    between atoms: C_29  and  C_46
   12  A    between atoms: C_32  and  C_52
   13  A    between atoms: C_34  and  C_52
                            x       y       z     vdW  Elec       q    Type
                         _______ _______ _______ _____ _____    ______ ____

>  <TORSDO>
F 13

$$$$
=
 OpenBabel10232411303D

 54 62  0  0  1  0  0  0  0  0999 V2000
  187.6850  174.6390  135.5710 C   0  0  0  0  0  3  0  0  0  0  0  0
  182.9230  171.9740  134.8560 N   0  0  0  0  0  0  0  0  0  0  0  0
  186.5000  172.5580  135.3930 N   0  0  0  0  0  0  0  0  0  0  0  0
  182.8940  174.7070  134.9150 C   0  0  0  0  0  3  0  0  0  0  0  0
  190.1520  174.7240  136.1860 C   0  0  2  0  0  3  0  0  0  0  0  0
  181.7470  174.0090  134.7350 N   0  0  0  0  0  0  0  0  0  0  0  0
  187.7340  171.7610  135.4720 C   0  0  0  0  0  2  0  0  0  0  0  0
  185.2640  174.7380  135.2430 C   0  0  0  0  0  0  0  0  0  0  0  0
  188.9410  172.5820  135.8470 C   0  0  0  0  0  3  0  0  0  0  0  0
  185.1770  170.4730  135.1840 N   0  0  0  0  0  1  0  0  0  0  0  0
  181.7580  172.6540  134.7010 C   0  0  0  0  0  3  0  0  0  0  0  0
  187.6510  177.9990  136.4700 C   0  0  2  0  0  3  0  0  0  0  0  0
  188.3920  178.8380  137.4840 C   0  0  0  0  0  2  0  0  0  0  0  0
  185.5370  176.6560  136.8010 C   0  0  2  0  0  3  0  0  0  0  0  0
  186.1750  178.0390  136.8370 C   0  0  0  0  0  2  0  0  0  0  0  0
  184.1050  172.6210  135.0410 C   0  0  0  0  0  0  0  0  0  0  0  0
  185.2340  171.9010  135.2010 C   0  0  0  0  0  0  0  0  0  0  0  0
  188.4790  177.3240  137.5580 C   0  0  2  0  0  3  0  0  0  0  0  0
  184.1190  174.0430  135.0680 C   0  0  0  0  0  0  0  0  0  0  0  0
  186.5320  173.9950  135.3910 C   0  0  0  0  0  0  0  0  0  0  0  0
  189.7110  176.9270  137.0300 O   0  0  0  0  0  0  0  0  0  0  0  0
  189.9060  175.6020  137.4280 C   0  0  2  0  0  3  0  0  0  0  0  0
  185.2610  176.2410  135.3590 C   0  0  0  0  0  2  0  0  0  0  0  0
  188.9320  173.9190  135.8370 C   0  0  0  0  0  0  0  0  0  0  0  0
  191.6850  173.7830  136.1490 Cl  0  0  0  0  0  0  0  0  0  0  0  0
  190.9820  175.5050  138.5150 C   0  0  0  0  0  2  0  0  0  0  0  0
  191.8870  176.7300  138.5390 C   0  0  0  0  0  2  0  0  0  0  0  0
  191.9000  177.3190  139.9360 C   0  0  0  0  0  2  0  0  0  0  0  0
  190.7030  176.7990  140.7120 C   0  0  0  0  0  2  0  0  0  0  0  0
  190.3470  177.7400  141.8540 C   0  0  1  0  0  3  0  0  0  0  0  0
  189.0610  177.4460  142.3160 O   0  0  0  0  0  0  0  0  0  0  0  0
  188.2010  177.9750  141.3520 C   0  0  0  0  0  1  0  0  0  0  0  0
  191.3420  177.5800  142.9960 C   0  0  0  0  0  2  0  0  0  0  0  0
  190.8660  176.5320  143.9750 C   0  0  0  0  0  2  0  0  0  0  0  0
  191.8820  176.9600  146.1550 O   0  0  0  0  0  0  0  0  0  0  0  0
  189.8370  177.0440  147.4420 C   0  0  0  0  0  2  0  0  0  0  0  0
  191.3120  176.6460  147.4220 C   0  0  0  0  0  2  0  0  0  0  0  0
  188.4910  177.3470  145.4720 O   0  0  0  0  0  0  0  0  0  0  0  0
  190.8220  177.0830  145.3140 N   0  0  0  0  0  0  0  0  0  0  0  0
  189.6130  177.1950  146.0170 C   0  0  0  0  0  0  0  0  0  0  0  0
  184.2440  176.6050  137.6030 C   0  0  0  0  0  2  0  0  0  0  0  0
  183.8620  177.9770  138.1430 C   0  0  0  0  0  2  0  0  0  0  0  0
  182.6140  177.8690  138.8820 N   0  0  0  0  0  2  0  0  0  0  0  0
  181.9610  179.2660  142.2940 C   0  0  1  0  0  3  0  0  0  0  0  0
  184.1960  178.1600  142.8980 C   0  0  1  0  0  0  0  0  0  0  0  0
  180.7770  179.6330  142.9340 O   0  0  0  0  0  1  0  0  0  0  0  0
  185.1220  179.3040  143.1940 C   0  0  0  0  0  2  0  0  0  0  0  0
  183.8550  179.0970  145.2210 C   0  0  0  0  0  1  0  0  0  0  0  0
  184.4150  177.9530  141.3730 C   0  0  0  0  0  2  0  0  0  0  0  0
  182.7570  178.4200  143.1940 N   0  0  1  0  0  0  0  0  0  0  0  0
  182.6150  178.9060  139.9030 C   0  0  2  0  0  3  0  0  0  0  0  0
  184.0340  179.0970  140.4370 C   0  0  0  0  0  2  0  0  0  0  0  0
  183.7410  179.3640  143.7330 C   0  0  2  0  0  0  0  0  0  0  0  0
  181.6250  178.5330  141.0040 C   0  0  0  0  0  2  0  0  0  0  0  0
  1 24  1  0  0  0  0
  2 16  1  0  0  0  0
  3  7  1  0  0  0  0
  4 19  1  0  0  0  0
  5 25  1  1  0  0  0
  5 22  1  0  0  0  0
  6  4  2  0  0  0  0
  7  9  1  0  0  0  0
  8 23  1  0  0  0  0
  8 20  1  0  0  0  0
 10 17  1  0  0  0  0
 11  6  1  0  0  0  0
 11  2  2  0  0  0  0
 12 15  1  1  0  0  0
 12 13  1  0  0  0  0
 12 18  1  0  0  0  0
 14 15  1  0  0  0  0
 14 41  1  1  0  0  0
 16 19  1  0  0  0  0
 16 17  2  0  0  0  0
 17  3  1  0  0  0  0
 18 13  1  1  0  0  0
 19  8  2  0  0  0  0
 20  3  1  0  0  0  0
 20  1  2  0  0  0  0
 21 22  1  0  0  0  0
 21 18  1  0  0  0  0
 22 26  1  1  0  0  0
 23 14  1  0  0  0  0
 24  9  2  0  0  0  0
 24  5  1  0  0  0  0
 26 27  1  0  0  0  0
 27 28  1  0  0  0  0
 28 29  1  0  0  0  0
 30 29  1  6  0  0  0
 30 31  1  0  0  0  0
 30 33  1  0  0  0  0
 32 31  1  0  0  0  0
 33 34  1  0  0  0  0
 34 39  1  0  0  0  0
 35 37  1  0  0  0  0
 37 36  1  0  0  0  0
 38 40  2  0  0  0  0
 39 40  1  0  0  0  0
 39 35  1  0  0  0  0
 40 36  1  0  0  0  0
 41 42  1  0  0  0  0
 42 43  1  0  0  0  0
 43 51  1  0  0  0  0
 44 46  1  1  0  0  0
 44 50  1  0  0  0  0
 45 49  1  6  0  0  0
 45 47  1  0  0  0  0
 45 50  1  0  0  0  0
 45 53  1  0  0  0  0
 47 53  1  0  0  0  0
 50 53  1  0  0  0  0
 51 52  1  0  0  0  0
 51 54  1  0  0  0  0
 52 49  1  0  0  0  0
 53 48  1  0  0  0  0
 54 44  1  0  0  0  0
M  END
>  <MODEL>
4

>  <REMARK>
 VINA RESULT:      -7.1      2.884      6.821
  Name = 
  13 active torsions:
  status: ('A' for Active; 'I' for Inactive)
    1  A    between atoms: O_4  and  C_12
    2  A    between atoms: C_8  and  C_23
    3  A    between atoms: C_8  and  N_43
    4  A    between atoms: C_10  and  C_16
    5  A    between atoms: C_10  and  C_29
    6  A    between atoms: C_12  and  C_17
    7  A    between atoms: C_12  and  C_23
    8  A    between atoms: C_16  and  C_17
    9  A    between atoms: N_28  and  C_34
   10  A    between atoms: N_28  and  C_42
   11  A    between atoms: C_29  and  C_46
   12  A    between atoms: C_32  and  C_52
   13  A    between atoms: C_34  and  C_52
                            x       y       z     vdW  Elec       q    Type
                         _______ _______ _______ _____ _____    ______ ____

>  <TORSDO>
F 13

$$$$
=
 OpenBabel10232411303D

 54 62  0  0  1  0  0  0  0  0999 V2000
  186.7900  175.1220  136.3140 C   0  0  0  0  0  3  0  0  0  0  0  0
  181.5710  173.6810  137.3030 N   0  0  0  0  0  0  0  0  0  0  0  0
  185.1840  173.3940  136.7630 N   0  0  0  0  0  0  0  0  0  0  0  0
  182.1550  176.3320  136.9760 C   0  0  0  0  0  3  0  0  0  0  0  0
  189.2860  174.6350  136.2200 C   0  0  2  0  0  3  0  0  0  0  0  0
  180.8830  175.9300  137.2150 N   0  0  0  0  0  0  0  0  0  0  0  0
  186.1810  172.3230  136.6180 C   0  0  0  0  0  2  0  0  0  0  0  0
  184.4620  175.7960  136.6430 C   0  0  0  0  0  0  0  0  0  0  0  0
  187.5940  172.8440  136.5310 C   0  0  0  0  0  3  0  0  0  0  0  0
  183.4400  171.6950  137.2200 N   0  0  0  0  0  1  0  0  0  0  0  0
  180.5890  174.6160  137.3730 C   0  0  0  0  0  3  0  0  0  0  0  0
  187.7540  178.4410  136.7000 C   0  0  2  0  0  3  0  0  0  0  0  0
  188.9260  179.1420  137.3440 C   0  0  0  0  0  2  0  0  0  0  0  0
  185.5950  177.6960  137.7780 C   0  0  2  0  0  3  0  0  0  0  0  0
  186.4990  178.8750  137.4420 C   0  0  0  0  0  2  0  0  0  0  0  0
  182.8660  174.0250  137.0660 C   0  0  0  0  0  0  0  0  0  0  0  0
  183.8070  173.0600  137.0170 C   0  0  0  0  0  0  0  0  0  0  0  0
  188.7010  177.6650  137.6080 C   0  0  2  0  0  3  0  0  0  0  0  0
  183.1950  175.3970  136.8850 C   0  0  0  0  0  0  0  0  0  0  0  0
  185.5250  174.7740  136.5470 C   0  0  0  0  0  0  0  0  0  0  0  0
  189.6040  176.9360  136.8280 O   0  0  0  0  0  0  0  0  0  0  0  0
  189.6160  175.6360  137.3430 C   0  0  2  0  0  3  0  0  0  0  0  0
  184.8210  177.2560  136.5400 C   0  0  0  0  0  2  0  0  0  0  0  0
  187.8720  174.1360  136.3330 C   0  0  0  0  0  0  0  0  0  0  0  0
  190.4960  173.3420  135.9050 Cl  0  0  0  0  0  0  0  0  0  0  0  0
  190.9180  175.3560  138.1020 C   0  0  0  0  0  2  0  0  0  0  0  0
  191.8760  176.5390  138.0570 C   0  0  0  0  0  2  0  0  0  0  0  0
  193.2470  176.0610  137.6210 C   0  0  0  0  0  2  0  0  0  0  0  0
  193.3010  174.5460  137.7060 C   0  0  0  0  0  2  0  0  0  0  0  0
  194.6760  174.0290  137.3060 C   0  0  1  0  0  3  0  0  0  0  0  0
  194.6670  172.6320  137.3080 O   0  0  0  0  0  0  0  0  0  0  0  0
  193.8610  172.2740  136.2270 C   0  0  0  0  0  1  0  0  0  0  0  0
  195.0420  174.5310  135.9150 C   0  0  0  0  0  2  0  0  0  0  0  0
  196.2870  175.3830  135.9670 C   0  0  0  0  0  2  0  0  0  0  0  0
  197.5570  173.4000  135.3150 O   0  0  0  0  0  0  0  0  0  0  0  0
  198.8310  173.1610  137.3560 C   0  0  0  0  0  2  0  0  0  0  0  0
  198.1330  172.4460  136.2010 C   0  0  0  0  0  2  0  0  0  0  0  0
  198.3440  175.4130  138.0440 O   0  0  0  0  0  0  0  0  0  0  0  0
  197.4650  174.5440  136.0440 N   0  0  0  0  0  0  0  0  0  0  0  0
  198.2370  174.4760  137.2140 C   0  0  0  0  0  0  0  0  0  0  0  0
  184.6200  178.0280  138.8990 C   0  0  0  0  0  2  0  0  0  0  0  0
  185.3240  178.6680  140.0870 C   0  0  0  0  0  2  0  0  0  0  0  0
  184.7700  178.1270  141.3180 N   0  0  0  0  0  2  0  0  0  0  0  0
  185.6100  178.7100  144.9210 C   0  0  1  0  0  3  0  0  0  0  0  0
  187.4800  177.0060  144.4980 C   0  0  1  0  0  0  0  0  0  0  0  0
  184.8370  179.1600  145.9910 O   0  0  0  0  0  1  0  0  0  0  0  0
  188.7530  177.7930  144.6300 C   0  0  0  0  0  2  0  0  0  0  0  0
  188.1420  177.3660  146.9120 C   0  0  0  0  0  1  0  0  0  0  0  0
  187.1650  177.1540  142.9830 C   0  0  0  0  0  2  0  0  0  0  0  0
  186.3430  177.5020  145.3250 N   0  0  1  0  0  0  0  0  0  0  0  0
  185.3860  178.8390  142.4300 C   0  0  2  0  0  3  0  0  0  0  0  0
  186.8880  178.5570  142.4470 C   0  0  0  0  0  2  0  0  0  0  0  0
  187.6790  178.0250  145.6270 C   0  0  2  0  0  0  0  0  0  0  0  0
  184.7020  178.4310  143.7320 C   0  0  0  0  0  2  0  0  0  0  0  0
  1 24  1  0  0  0  0
  1 20  2  0  0  0  0
  2 11  2  0  0  0  0
  3 17  1  0  0  0  0
  4  6  2  0  0  0  0
  5 25  1  1  0  0  0
  5 24  1  0  0  0  0
  5 22  1  0  0  0  0
  6 11  1  0  0  0  0
  7  3  1  0  0  0  0
  8 19  2  0  0  0  0
  9  7  1  0  0  0  0
 12 13  1  1  0  0  0
 12 15  1  0  0  0  0
 12 18  1  0  0  0  0
 14 41  1  1  0  0  0
 15 14  1  0  0  0  0
 16  2  1  0  0  0  0
 17 16  2  0  0  0  0
 17 10  1  0  0  0  0
 18 13  1  1  0  0  0
 19  4  1  0  0  0  0
 19 16  1  0  0  0  0
 20  8  1  0  0  0  0
 20  3  1  0  0  0  0
 21 22  1  0  0  0  0
 21 18  1  0  0  0  0
 22 26  1  6  0  0  0
 23  8  1  0  0  0  0
 23 14  1  0  0  0  0
 24  9  2  0  0  0  0
 27 26  1  0  0  0  0
 28 29  1  0  0  0  0
 28 27  1  0  0  0  0
 30 33  1  6  0  0  0
 30 31  1  0  0  0  0
 30 29  1  0  0  0  0
 32 31  1  0  0  0  0
 33 34  1  0  0  0  0
 34 39  1  0  0  0  0
 35 39  1  0  0  0  0
 35 37  1  0  0  0  0
 37 36  1  0  0  0  0
 39 40  1  0  0  0  0
 40 36  1  0  0  0  0
 40 38  2  0  0  0  0
 41 42  1  0  0  0  0
 42 43  1  0  0  0  0
 43 51  1  0  0  0  0
 44 50  1  0  0  0  0
 44 46  1  1  0  0  0
 45 49  1  6  0  0  0
 45 47  1  0  0  0  0
 45 50  1  0  0  0  0
 45 53  1  0  0  0  0
 47 53  1  0  0  0  0
 50 53  1  0  0  0  0
 51 52  1  0  0  0  0
 51 54  1  0  0  0  0
 52 49  1  0  0  0  0
 53 48  1  0  0  0  0
 54 44  1  0  0  0  0
M  END
>  <MODEL>
5

>  <REMARK>
 VINA RESULT:      -7.0      4.631      8.479
  Name = 
  13 active torsions:
  status: ('A' for Active; 'I' for Inactive)
    1  A    between atoms: O_4  and  C_12
    2  A    between atoms: C_8  and  C_23
    3  A    between atoms: C_8  and  N_43
    4  A    between atoms: C_10  and  C_16
    5  A    between atoms: C_10  and  C_29
    6  A    between atoms: C_12  and  C_17
    7  A    between atoms: C_12  and  C_23
    8  A    between atoms: C_16  and  C_17
    9  A    between atoms: N_28  and  C_34
   10  A    between atoms: N_28  and  C_42
   11  A    between atoms: C_29  and  C_46
   12  A    between atoms: C_32  and  C_52
   13  A    between atoms: C_34  and  C_52
                            x       y       z     vdW  Elec       q    Type
                         _______ _______ _______ _____ _____    ______ ____

>  <TORSDO>
F 13

$$$$
=
 OpenBabel10232411303D

 54 62  0  0  1  0  0  0  0  0999 V2000
  185.2210  178.3790  138.7840 C   0  0  0  0  0  3  0  0  0  0  0  0
  180.5200  178.2890  141.6460 N   0  0  0  0  0  0  0  0  0  0  0  0
  182.8780  177.8600  138.8730 N   0  0  0  0  0  0  0  0  0  0  0  0
  182.7850  179.1910  142.8820 C   0  0  0  0  0  3  0  0  0  0  0  0
  186.6550  177.7420  136.7820 C   0  0  2  0  0  3  0  0  0  0  0  0
  181.6040  179.1570  143.5450 N   0  0  0  0  0  0  0  0  0  0  0  0
  182.8340  177.4620  137.4580 C   0  0  0  0  0  2  0  0  0  0  0  0
  184.0430  178.8090  140.8840 C   0  0  0  0  0  0  0  0  0  0  0  0
  184.2020  177.3540  136.8360 C   0  0  0  0  0  3  0  0  0  0  0  0
  180.4570  177.3740  139.0760 N   0  0  0  0  0  1  0  0  0  0  0  0
  180.4770  178.7150  142.9340 C   0  0  0  0  0  3  0  0  0  0  0  0
  188.2460  178.7140  140.4680 C   0  0  2  0  0  3  0  0  0  0  0  0
  189.5900  178.0320  140.3880 C   0  0  0  0  0  2  0  0  0  0  0  0
  186.2150  178.0120  141.7960 C   0  0  2  0  0  3  0  0  0  0  0  0
  187.6770  178.4390  141.8520 C   0  0  0  0  0  2  0  0  0  0  0  0
  181.6770  178.2990  140.9300 C   0  0  0  0  0  0  0  0  0  0  0  0
  181.6700  177.8560  139.6560 C   0  0  0  0  0  0  0  0  0  0  0  0
  188.4020  177.4300  139.6620 C   0  0  2  0  0  3  0  0  0  0  0  0
  182.8670  178.7710  141.5480 C   0  0  0  0  0  0  0  0  0  0  0  0
  184.0810  178.3640  139.4760 C   0  0  0  0  0  0  0  0  0  0  0  0
  188.5110  177.7400  138.3030 O   0  0  0  0  0  0  0  0  0  0  0  0
  187.6240  176.8970  137.6290 C   0  0  2  0  0  3  0  0  0  0  0  0
  185.3200  179.2260  141.5700 C   0  0  0  0  0  2  0  0  0  0  0  0
  185.3010  177.8320  137.4280 C   0  0  0  0  0  0  0  0  0  0  0  0
  186.6020  177.3920  135.0180 Cl  0  0  0  0  0  0  0  0  0  0  0  0
  188.3770  175.8050  136.8600 C   0  0  0  0  0  2  0  0  0  0  0  0
  189.8580  176.1270  136.7080 C   0  0  0  0  0  2  0  0  0  0  0  0
  190.6820  174.9830  137.2670 C   0  0  0  0  0  2  0  0  0  0  0  0
  191.7190  175.5340  138.2290 C   0  0  0  0  0  2  0  0  0  0  0  0
  192.8990  176.1260  137.4740 C   0  0  1  0  0  3  0  0  0  0  0  0
  193.7940  176.6980  138.3810 O   0  0  0  0  0  0  0  0  0  0  0  0
  192.9960  177.1900  139.4150 C   0  0  0  0  0  1  0  0  0  0  0  0
  193.6120  175.0400  136.6780 C   0  0  0  0  0  2  0  0  0  0  0  0
  194.9440  175.5390  136.1700 C   0  0  0  0  0  2  0  0  0  0  0  0
  195.5370  173.1700  136.2460 O   0  0  0  0  0  0  0  0  0  0  0  0
  197.6680  173.4170  137.3620 C   0  0  0  0  0  2  0  0  0  0  0  0
  196.4190  172.5570  137.1810 C   0  0  0  0  0  2  0  0  0  0  0  0
  197.7790  175.7650  136.8500 O   0  0  0  0  0  0  0  0  0  0  0  0
  195.9240  174.4730  136.2030 N   0  0  0  0  0  0  0  0  0  0  0  0
  197.1850  174.6590  136.7880 C   0  0  0  0  0  0  0  0  0  0  0  0
  185.7850  177.2910  143.0660 C   0  0  0  0  0  2  0  0  0  0  0  0
  186.9220  177.2010  144.0750 C   0  0  0  0  0  2  0  0  0  0  0  0
  186.5460  177.9180  145.2830 N   0  0  0  0  0  2  0  0  0  0  0  0
  189.3560  177.7870  147.7560 C   0  0  1  0  0  3  0  0  0  0  0  0
  190.4160  176.1570  146.0830 C   0  0  1  0  0  0  0  0  0  0  0  0
  189.3950  178.0410  149.1270 O   0  0  0  0  0  1  0  0  0  0  0  0
  191.6240  176.8780  145.5580 C   0  0  0  0  0  2  0  0  0  0  0  0
  192.3740  176.0360  147.6770 C   0  0  0  0  0  1  0  0  0  0  0  0
  189.3150  176.5980  145.0760 C   0  0  0  0  0  2  0  0  0  0  0  0
  190.0270  176.5090  147.4790 N   0  0  1  0  0  0  0  0  0  0  0  0
  187.7700  178.3920  145.9140 C   0  0  2  0  0  3  0  0  0  0  0  0
  188.9630  178.0820  145.0100 C   0  0  0  0  0  2  0  0  0  0  0  0
  191.3500  176.9380  147.0150 C   0  0  2  0  0  0  0  0  0  0  0  0
  187.9050  177.7580  147.2960 C   0  0  0  0  0  2  0  0  0  0  0  0
  1 20  2  0  0  0  0
  2 11  2  0  0  0  0
  3 20  1  0  0  0  0
  3 17  1  0  0  0  0
  4  6  2  0  0  0  0
  5 25  1  6  0  0  0
  5 24  1  0  0  0  0
  5 22  1  0  0  0  0
  7  3  1  0  0  0  0
  8 19  2  0  0  0  0
  8 23  1  0  0  0  0
  9 24  2  0  0  0  0
  9  7  1  0  0  0  0
 10 17  1  0  0  0  0
 11  6  1  0  0  0  0
 12 13  1  1  0  0  0
 12 15  1  0  0  0  0
 14 15  1  0  0  0  0
 14 41  1  1  0  0  0
 16 19  1  0  0  0  0
 16  2  1  0  0  0  0
 17 16  2  0  0  0  0
 18 13  1  1  0  0  0
 18 12  1  0  0  0  0
 19  4  1  0  0  0  0
 20  8  1  0  0  0  0
 21 18  1  0  0  0  0
 22 26  1  6  0  0  0
 22 21  1  0  0  0  0
 23 14  1  0  0  0  0
 24  1  1  0  0  0  0
 27 26  1  0  0  0  0
 27 28  1  0  0  0  0
 28 29  1  0  0  0  0
 30 33  1  1  0  0  0
 30 29  1  0  0  0  0
 30 31  1  0  0  0  0
 31 32  1  0  0  0  0
 34 39  1  0  0  0  0
 34 33  1  0  0  0  0
 35 37  1  0  0  0  0
 37 36  1  0  0  0  0
 39 35  1  0  0  0  0
 39 40  1  0  0  0  0
 40 38  2  0  0  0  0
 40 36  1  0  0  0  0
 41 42  1  0  0  0  0
 42 43  1  0  0  0  0
 43 51  1  0  0  0  0
 44 46  1  1  0  0  0
 45 49  1  6  0  0  0
 45 53  1  0  0  0  0
 45 50  1  0  0  0  0
 47 45  1  0  0  0  0
 47 53  1  0  0  0  0
 50 44  1  0  0  0  0
 51 54  1  0  0  0  0
 52 49  1  0  0  0  0
 52 51  1  0  0  0  0
 53 50  1  0  0  0  0
 53 48  1  0  0  0  0
 54 44  1  0  0  0  0
M  END
>  <MODEL>
6

>  <REMARK>
 VINA RESULT:      -6.8      4.020      8.837
  Name = 
  13 active torsions:
  status: ('A' for Active; 'I' for Inactive)
    1  A    between atoms: O_4  and  C_12
    2  A    between atoms: C_8  and  C_23
    3  A    between atoms: C_8  and  N_43
    4  A    between atoms: C_10  and  C_16
    5  A    between atoms: C_10  and  C_29
    6  A    between atoms: C_12  and  C_17
    7  A    between atoms: C_12  and  C_23
    8  A    between atoms: C_16  and  C_17
    9  A    between atoms: N_28  and  C_34
   10  A    between atoms: N_28  and  C_42
   11  A    between atoms: C_29  and  C_46
   12  A    between atoms: C_32  and  C_52
   13  A    between atoms: C_34  and  C_52
                            x       y       z     vdW  Elec       q    Type
                         _______ _______ _______ _____ _____    ______ ____

>  <TORSDO>
F 13

$$$$
=
 OpenBabel10232411303D

 54 62  0  0  1  0  0  0  0  0999 V2000
  185.7320  175.4340  136.2370 C   0  0  0  0  0  3  0  0  0  0  0  0
  182.4040  177.8660  139.8840 N   0  0  0  0  0  0  0  0  0  0  0  0
  183.8440  175.2890  137.7120 N   0  0  0  0  0  0  0  0  0  0  0  0
  184.4810  179.3100  138.8450 C   0  0  0  0  0  3  0  0  0  0  0  0
  186.6440  173.3900  135.0280 C   0  0  2  0  0  3  0  0  0  0  0  0
  183.6320  179.8690  139.7410 N   0  0  0  0  0  0  0  0  0  0  0  0
  183.5250  173.9150  137.2950 C   0  0  0  0  0  2  0  0  0  0  0  0
  185.1500  177.4260  137.5320 C   0  0  0  0  0  0  0  0  0  0  0  0
  184.6020  173.2980  136.4390 C   0  0  0  0  0  3  0  0  0  0  0  0
  181.9070  175.2580  139.2580 N   0  0  0  0  0  1  0  0  0  0  0  0
  182.5980  179.1580  140.2550 C   0  0  0  0  0  3  0  0  0  0  0  0
  188.8120  176.8730  135.5010 C   0  0  2  0  0  3  0  0  0  0  0  0
  190.2230  176.3540  135.3560 C   0  0  0  0  0  2  0  0  0  0  0  0
  187.6280  177.6060  137.6090 C   0  0  2  0  0  3  0  0  0  0  0  0
  188.8040  177.8480  136.6700 C   0  0  0  0  0  2  0  0  0  0  0  0
  183.2240  177.2520  138.9890 C   0  0  0  0  0  0  0  0  0  0  0  0
  182.9960  175.9640  138.6610 C   0  0  0  0  0  0  0  0  0  0  0  0
  189.1540  175.4580  135.9550 C   0  0  2  0  0  3  0  0  0  0  0  0
  184.3070  177.9830  138.4280 C   0  0  0  0  0  0  0  0  0  0  0  0
  184.9230  176.0270  137.1150 C   0  0  0  0  0  0  0  0  0  0  0  0
  188.7480  174.5440  134.9790 O   0  0  0  0  0  0  0  0  0  0  0  0
  188.0460  173.5360  135.6470 C   0  0  2  0  0  3  0  0  0  0  0  0
  186.3480  178.1750  137.0070 C   0  0  0  0  0  2  0  0  0  0  0  0
  185.5940  174.0160  135.9020 C   0  0  0  0  0  0  0  0  0  0  0  0
  186.1990  171.7640  134.3990 Cl  0  0  0  0  0  0  0  0  0  0  0  0
  188.8660  172.2420  135.7100 C   0  0  0  0  0  2  0  0  0  0  0  0
  189.6340  171.9840  134.4200 C   0  0  0  0  0  2  0  0  0  0  0  0
  191.0720  171.6360  134.7520 C   0  0  0  0  0  2  0  0  0  0  0  0
  191.7090  172.7940  135.5000 C   0  0  0  0  0  2  0  0  0  0  0  0
  192.9760  172.3460  136.2150 C   0  0  1  0  0  3  0  0  0  0  0  0
  193.3610  171.0910  135.7370 O   0  0  0  0  0  0  0  0  0  0  0  0
  194.6520  170.8960  136.2310 C   0  0  0  0  0  1  0  0  0  0  0  0
  194.0990  173.3460  135.9700 C   0  0  0  0  0  2  0  0  0  0  0  0
  194.0750  174.4390  137.0130 C   0  0  0  0  0  2  0  0  0  0  0  0
  196.2580  175.4450  136.5750 O   0  0  0  0  0  0  0  0  0  0  0  0
  197.5580  174.0180  138.0310 C   0  0  0  0  0  2  0  0  0  0  0  0
  197.5210  174.8040  136.7210 C   0  0  0  0  0  2  0  0  0  0  0  0
  195.6030  173.2780  139.2190 O   0  0  0  0  0  0  0  0  0  0  0  0
  195.4250  174.7750  137.4150 N   0  0  0  0  0  0  0  0  0  0  0  0
  196.1380  173.9750  138.3210 C   0  0  0  0  0  0  0  0  0  0  0  0
  187.8630  178.2200  138.9820 C   0  0  0  0  0  2  0  0  0  0  0  0
  188.6630  177.2900  139.8850 C   0  0  0  0  0  2  0  0  0  0  0  0
  188.9060  177.9530  141.1570 N   0  0  0  0  0  2  0  0  0  0  0  0
  190.8480  176.1880  143.8280 C   0  0  1  0  0  3  0  0  0  0  0  0
  189.8670  177.9830  145.3750 C   0  0  1  0  0  0  0  0  0  0  0  0
  191.9810  175.3750  143.7660 O   0  0  0  0  0  1  0  0  0  0  0  0
  188.9490  177.2340  146.2970 C   0  0  0  0  0  2  0  0  0  0  0  0
  191.1150  176.8320  147.2480 C   0  0  0  0  0  1  0  0  0  0  0  0
  188.9130  178.3570  144.2050 C   0  0  0  0  0  2  0  0  0  0  0  0
  191.0350  177.2020  144.8750 N   0  0  1  0  0  0  0  0  0  0  0  0
  189.1320  176.9190  142.1570 C   0  0  2  0  0  3  0  0  0  0  0  0
  188.2930  177.2190  143.3990 C   0  0  0  0  0  2  0  0  0  0  0  0
  190.2760  176.6430  145.9990 C   0  0  2  0  0  0  0  0  0  0  0  0
  190.6240  176.8340  142.4690 C   0  0  0  0  0  2  0  0  0  0  0  0
  1 20  2  0  0  0  0
  2 11  2  0  0  0  0
  3 17  1  0  0  0  0
  4  6  2  0  0  0  0
  5 25  1  1  0  0  0
  5 22  1  0  0  0  0
  5 24  1  0  0  0  0
  6 11  1  0  0  0  0
  7  3  1  0  0  0  0
  8 19  2  0  0  0  0
  9  7  1  0  0  0  0
 12 13  1  6  0  0  0
 12 18  1  0  0  0  0
 12 15  1  0  0  0  0
 14 41  1  1  0  0  0
 15 14  1  0  0  0  0
 16  2  1  0  0  0  0
 17 16  2  0  0  0  0
 17 10  1  0  0  0  0
 18 13  1  6  0  0  0
 19  4  1  0  0  0  0
 19 16  1  0  0  0  0
 20  8  1  0  0  0  0
 20  3  1  0  0  0  0
 21 22  1  0  0  0  0
 21 18  1  0  0  0  0
 22 26  1  6  0  0  0
 23  8  1  0  0  0  0
 23 14  1  0  0  0  0
 24  1  1  0  0  0  0
 24  9  2  0  0  0  0
 27 28  1  0  0  0  0
 27 26  1  0  0  0  0
 28 29  1  0  0  0  0
 30 29  1  6  0  0  0
 31 30  1  0  0  0  0
 31 32  1  0  0  0  0
 33 30  1  0  0  0  0
 33 34  1  0  0  0  0
 34 39  1  0  0  0  0
 35 37  1  0  0  0  0
 35 39  1  0  0  0  0
 36 40  1  0  0  0  0
 37 36  1  0  0  0  0
 39 40  1  0  0  0  0
 40 38  2  0  0  0  0
 41 42  1  0  0  0  0
 42 43  1  0  0  0  0
 43 51  1  0  0  0  0
 44 46  1  6  0  0  0
 44 50  1  0  0  0  0
 45 49  1  6  0  0  0
 45 53  1  0  0  0  0
 45 47  1  0  0  0  0
 50 45  1  0  0  0  0
 50 53  1  0  0  0  0
 51 54  1  0  0  0  0
 51 52  1  0  0  0  0
 52 49  1  0  0  0  0
 53 47  1  0  0  0  0
 53 48  1  0  0  0  0
 54 44  1  0  0  0  0
M  END
>  <MODEL>
7

>  <REMARK>
 VINA RESULT:      -6.8      4.509      9.305
  Name = 
  13 active torsions:
  status: ('A' for Active; 'I' for Inactive)
    1  A    between atoms: O_4  and  C_12
    2  A    between atoms: C_8  and  C_23
    3  A    between atoms: C_8  and  N_43
    4  A    between atoms: C_10  and  C_16
    5  A    between atoms: C_10  and  C_29
    6  A    between atoms: C_12  and  C_17
    7  A    between atoms: C_12  and  C_23
    8  A    between atoms: C_16  and  C_17
    9  A    between atoms: N_28  and  C_34
   10  A    between atoms: N_28  and  C_42
   11  A    between atoms: C_29  and  C_46
   12  A    between atoms: C_32  and  C_52
   13  A    between atoms: C_34  and  C_52
                            x       y       z     vdW  Elec       q    Type
                         _______ _______ _______ _____ _____    ______ ____

>  <TORSDO>
F 13

$$$$
=
 OpenBabel10232411303D

 54 62  0  0  1  0  0  0  0  0999 V2000
  186.1000  178.6400  141.1680 C   0  0  0  0  0  3  0  0  0  0  0  0
  190.2560  177.3460  144.5350 N   0  0  0  0  0  0  0  0  0  0  0  0
  186.8470  177.9890  143.3550 N   0  0  0  0  0  0  0  0  0  0  0  0
  190.8220  177.9180  141.9220 C   0  0  0  0  0  3  0  0  0  0  0  0
  183.6270  178.7810  140.5880 C   0  0  2  0  0  3  0  0  0  0  0  0
  191.8130  177.6000  142.7890 N   0  0  0  0  0  0  0  0  0  0  0  0
  185.4960  178.0770  143.9270 C   0  0  0  0  0  2  0  0  0  0  0  0
  188.4990  178.2860  141.4870 C   0  0  0  0  0  0  0  0  0  0  0  0
  184.4260  178.2590  142.8810 C   0  0  0  0  0  3  0  0  0  0  0  0
  187.7330  177.3260  145.5720 N   0  0  0  0  0  1  0  0  0  0  0  0
  191.5380  177.3210  144.0870 C   0  0  0  0  0  3  0  0  0  0  0  0
  186.5980  178.5730  137.7260 C   0  0  2  0  0  3  0  0  0  0  0  0
  185.8230  178.0320  136.5480 C   0  0  0  0  0  2  0  0  0  0  0  0
  188.2570  177.3580  139.1930 C   0  0  2  0  0  3  0  0  0  0  0  0
  187.9220  177.8250  137.7820 C   0  0  0  0  0  2  0  0  0  0  0  0
  189.2200  177.6570  143.7110 C   0  0  0  0  0  0  0  0  0  0  0  0
  187.9630  177.6580  144.2020 C   0  0  0  0  0  0  0  0  0  0  0  0
  185.4170  177.6360  137.9560 C   0  0  2  0  0  3  0  0  0  0  0  0
  189.4880  177.9660  142.3490 C   0  0  0  0  0  0  0  0  0  0  0  0
  187.1080  178.3330  141.9840 C   0  0  0  0  0  0  0  0  0  0  0  0
  184.2910  178.3830  138.3160 O   0  0  0  0  0  0  0  0  0  0  0  0
  183.7440  177.7600  139.4410 C   0  0  2  0  0  3  0  0  0  0  0  0
  188.7770  178.5260  140.0250 C   0  0  0  0  0  2  0  0  0  0  0  0
  184.7060  178.5760  141.6130 C   0  0  0  0  0  0  0  0  0  0  0  0
  181.9880  179.0290  141.2890 Cl  0  0  0  0  0  0  0  0  0  0  0  0
  182.4440  177.0270  139.0880 C   0  0  0  0  0  2  0  0  0  0  0  0
  181.6640  177.7380  137.9900 C   0  0  0  0  0  2  0  0  0  0  0  0
  180.9690  176.7090  137.1190 C   0  0  0  0  0  2  0  0  0  0  0  0
  181.7020  175.3830  137.2270 C   0  0  0  0  0  2  0  0  0  0  0  0
  182.3610  175.0190  135.9050 C   0  0  1  0  0  3  0  0  0  0  0  0
  182.2510  176.0930  135.0180 O   0  0  0  0  0  0  0  0  0  0  0  0
  183.4750  176.1360  134.3480 C   0  0  0  0  0  1  0  0  0  0  0  0
  183.8340  174.6930  136.1240 C   0  0  0  0  0  2  0  0  0  0  0  0
  184.0250  173.9370  137.4180 C   0  0  0  0  0  2  0  0  0  0  0  0
  185.5770  172.2420  136.5890 O   0  0  0  0  0  0  0  0  0  0  0  0
  183.9270  170.6000  135.9350 C   0  0  0  0  0  2  0  0  0  0  0  0
  185.2820  171.2340  135.6280 C   0  0  0  0  0  2  0  0  0  0  0  0
  182.2120  171.6490  137.2560 O   0  0  0  0  0  0  0  0  0  0  0  0
  184.3770  172.5590  137.1430 N   0  0  0  0  0  0  0  0  0  0  0  0
  183.3970  171.6020  136.8400 C   0  0  0  0  0  0  0  0  0  0  0  0
  189.2860  176.2360  139.1910 C   0  0  0  0  0  2  0  0  0  0  0  0
  190.4600  176.5500  138.2740 C   0  0  0  0  0  2  0  0  0  0  0  0
  190.4710  175.6020  137.1710 N   0  0  0  0  0  2  0  0  0  0  0  0
  194.0940  174.6520  137.1980 C   0  0  1  0  0  3  0  0  0  0  0  0
  193.2560  172.4240  136.2420 C   0  0  1  0  0  0  0  0  0  0  0  0
  195.1690  175.1200  137.9560 O   0  0  0  0  0  1  0  0  0  0  0  0
  193.8070  172.3760  134.8460 C   0  0  0  0  0  2  0  0  0  0  0  0
  195.6820  171.7120  136.1890 C   0  0  0  0  0  1  0  0  0  0  0  0
  191.8850  173.1240  136.0230 C   0  0  0  0  0  2  0  0  0  0  0  0
  194.0860  173.1830  137.2220 N   0  0  1  0  0  0  0  0  0  0  0  0
  191.8270  175.5580  136.6400 C   0  0  2  0  0  3  0  0  0  0  0  0
  191.8920  174.5540  135.4900 C   0  0  0  0  0  2  0  0  0  0  0  0
  194.7000  172.8400  135.9350 C   0  0  2  0  0  0  0  0  0  0  0  0
  192.8000  175.2180  137.7660 C   0  0  0  0  0  2  0  0  0  0  0  0
  1 24  1  0  0  0  0
  1 20  2  0  0  0  0
  3  7  1  0  0  0  0
  3 17  1  0  0  0  0
  4 19  1  0  0  0  0
  4  6  2  0  0  0  0
  5 25  1  1  0  0  0
  5 24  1  0  0  0  0
  6 11  1  0  0  0  0
  8 20  1  0  0  0  0
  8 19  2  0  0  0  0
  9  7  1  0  0  0  0
 11  2  2  0  0  0  0
 12 13  1  6  0  0  0
 12 15  1  0  0  0  0
 12 18  1  0  0  0  0
 14 41  1  6  0  0  0
 14 23  1  0  0  0  0
 15 14  1  0  0  0  0
 16 17  2  0  0  0  0
 16  2  1  0  0  0  0
 17 10  1  0  0  0  0
 18 13  1  6  0  0  0
 18 21  1  0  0  0  0
 19 16  1  0  0  0  0
 20  3  1  0  0  0  0
 21 22  1  0  0  0  0
 22 26  1  6  0  0  0
 22  5  1  0  0  0  0
 23  8  1  0  0  0  0
 24  9  2  0  0  0  0
 27 26  1  0  0  0  0
 28 29  1  0  0  0  0
 28 27  1  0  0  0  0
 30 33  1  1  0  0  0
 30 29  1  0  0  0  0
 31 30  1  0  0  0  0
 32 31  1  0  0  0  0
 33 34  1  0  0  0  0
 35 39  1  0  0  0  0
 36 40  1  0  0  0  0
 37 36  1  0  0  0  0
 37 35  1  0  0  0  0
 39 34  1  0  0  0  0
 40 39  1  0  0  0  0
 40 38  2  0  0  0  0
 42 41  1  0  0  0  0
 43 42  1  0  0  0  0
 44 50  1  0  0  0  0
 44 54  1  0  0  0  0
 44 46  1  1  0  0  0
 45 47  1  1  0  0  0
 45 50  1  0  0  0  0
 47 53  1  0  0  0  0
 49 45  1  0  0  0  0
 51 43  1  0  0  0  0
 51 54  1  0  0  0  0
 52 49  1  0  0  0  0
 52 51  1  0  0  0  0
 53 48  1  0  0  0  0
 53 45  1  0  0  0  0
 53 50  1  0  0  0  0
M  END
>  <MODEL>
8

>  <REMARK>
 VINA RESULT:      -6.7      3.719      9.500
  Name = 
  13 active torsions:
  status: ('A' for Active; 'I' for Inactive)
    1  A    between atoms: O_4  and  C_12
    2  A    between atoms: C_8  and  C_23
    3  A    between atoms: C_8  and  N_43
    4  A    between atoms: C_10  and  C_16
    5  A    between atoms: C_10  and  C_29
    6  A    between atoms: C_12  and  C_17
    7  A    between atoms: C_12  and  C_23
    8  A    between atoms: C_16  and  C_17
    9  A    between atoms: N_28  and  C_34
   10  A    between atoms: N_28  and  C_42
   11  A    between atoms: C_29  and  C_46
   12  A    between atoms: C_32  and  C_52
   13  A    between atoms: C_34  and  C_52
                            x       y       z     vdW  Elec       q    Type
                         _______ _______ _______ _____ _____    ______ ____

>  <TORSDO>
F 13

$$$$
=
 OpenBabel10232411303D

 54 62  0  0  1  0  0  0  0  0999 V2000
  186.4350  178.7930  144.3900 C   0  0  0  0  0  3  0  0  0  0  0  0
  190.3410  176.6300  147.6080 N   0  0  0  0  0  0  0  0  0  0  0  0
  187.0550  177.8000  146.4870 N   0  0  0  0  0  0  0  0  0  0  0  0
  191.0270  177.4440  145.0900 C   0  0  0  0  0  3  0  0  0  0  0  0
  184.0080  179.2880  143.8120 C   0  0  2  0  0  3  0  0  0  0  0  0
  191.9560  176.9120  145.9190 N   0  0  0  0  0  0  0  0  0  0  0  0
  185.7090  177.9740  147.0550 C   0  0  0  0  0  2  0  0  0  0  0  0
  188.7710  178.1290  144.6840 C   0  0  0  0  0  0  0  0  0  0  0  0
  184.6910  178.4030  146.0300 C   0  0  0  0  0  3  0  0  0  0  0  0
  187.8100  176.7760  148.6130 N   0  0  0  0  0  1  0  0  0  0  0  0
  191.6210  176.5110  147.1700 C   0  0  0  0  0  3  0  0  0  0  0  0
  186.9990  179.0860  140.9710 C   0  0  2  0  0  3  0  0  0  0  0  0
  186.1950  178.7860  139.7290 C   0  0  0  0  0  2  0  0  0  0  0  0
  188.4770  177.5200  142.2910 C   0  0  2  0  0  3  0  0  0  0  0  0
  188.2290  178.1900  140.9460 C   0  0  0  0  0  2  0  0  0  0  0  0
  189.3660  177.1560  146.8200 C   0  0  0  0  0  0  0  0  0  0  0  0
  188.1070  177.2430  147.2960 C   0  0  0  0  0  0  0  0  0  0  0  0
  185.7150  178.2720  141.0740 C   0  0  2  0  0  3  0  0  0  0  0  0
  189.6970  177.5940  145.5080 C   0  0  0  0  0  0  0  0  0  0  0  0
  187.3840  178.2760  145.1710 C   0  0  0  0  0  0  0  0  0  0  0  0
  184.6740  179.0940  141.5140 O   0  0  0  0  0  0  0  0  0  0  0  0
  184.0340  178.4060  142.5490 C   0  0  2  0  0  3  0  0  0  0  0  0
  189.1070  178.5110  143.2650 C   0  0  0  0  0  2  0  0  0  0  0  0
  185.0340  178.8370  144.8130 C   0  0  0  0  0  0  0  0  0  0  0  0
  182.3930  179.6360  144.5240 Cl  0  0  0  0  0  0  0  0  0  0  0  0
  182.6670  177.8770  142.0970 C   0  0  0  0  0  2  0  0  0  0  0  0
  182.2320  178.4720  140.7650 C   0  0  0  0  0  2  0  0  0  0  0  0
  181.0430  177.6970  140.2320 C   0  0  0  0  0  2  0  0  0  0  0  0
  181.2790  177.3550  138.7720 C   0  0  0  0  0  2  0  0  0  0  0  0
  181.3380  175.8480  138.5710 C   0  0  1  0  0  3  0  0  0  0  0  0
  180.9350  175.5350  137.2700 O   0  0  0  0  0  0  0  0  0  0  0  0
  180.3580  176.7070  136.7780 C   0  0  0  0  0  1  0  0  0  0  0  0
  182.7580  175.3430  138.7950 C   0  0  0  0  0  2  0  0  0  0  0  0
  183.7370  176.1060  137.9350 C   0  0  0  0  0  2  0  0  0  0  0  0
  184.3390  173.8500  137.2170 O   0  0  0  0  0  0  0  0  0  0  0  0
  186.7130  174.2270  136.9610 C   0  0  0  0  0  2  0  0  0  0  0  0
  185.6170  173.2390  137.3570 C   0  0  0  0  0  2  0  0  0  0  0  0
  186.4330  176.6150  136.9270 O   0  0  0  0  0  0  0  0  0  0  0  0
  184.5880  175.1860  137.2090 N   0  0  0  0  0  0  0  0  0  0  0  0
  185.9480  175.4590  137.0040 C   0  0  0  0  0  0  0  0  0  0  0  0
  189.3710  176.2950  142.1590 C   0  0  0  0  0  2  0  0  0  0  0  0
  190.4750  176.5110  141.1320 C   0  0  0  0  0  2  0  0  0  0  0  0
  189.9690  176.1750  139.8110 N   0  0  0  0  0  2  0  0  0  0  0  0
  192.9650  176.1090  137.5660 C   0  0  1  0  0  3  0  0  0  0  0  0
  191.4070  174.8770  135.9430 C   0  0  1  0  0  0  0  0  0  0  0  0
  194.3310  176.1820  137.8420 O   0  0  0  0  0  1  0  0  0  0  0  0
  191.2320  175.8220  134.7890 C   0  0  0  0  0  2  0  0  0  0  0  0
  193.3670  174.8200  134.3470 C   0  0  0  0  0  1  0  0  0  0  0  0
  190.2360  175.2900  136.8780 C   0  0  0  0  0  2  0  0  0  0  0  0
  192.7140  174.9850  136.6540 N   0  0  1  0  0  0  0  0  0  0  0  0
  190.8940  176.7270  138.8310 C   0  0  2  0  0  3  0  0  0  0  0  0
  190.2440  176.7070  137.4480 C   0  0  0  0  0  2  0  0  0  0  0  0
  192.5930  175.6500  135.3530 C   0  0  2  0  0  0  0  0  0  0  0  0
  192.2020  175.9400  138.8720 C   0  0  0  0  0  2  0  0  0  0  0  0
  1 24  1  0  0  0  0
  1 20  2  0  0  0  0
  3  7  1  0  0  0  0
  3 17  1  0  0  0  0
  4 19  1  0  0  0  0
  4  6  2  0  0  0  0
  5 25  1  1  0  0  0
  5 24  1  0  0  0  0
  6 11  1  0  0  0  0
  8 20  1  0  0  0  0
  8 19  2  0  0  0  0
  9  7  1  0  0  0  0
 11  2  2  0  0  0  0
 12 13  1  6  0  0  0
 12 18  1  0  0  0  0
 14 41  1  6  0  0  0
 14 23  1  0  0  0  0
 15 12  1  0  0  0  0
 15 14  1  0  0  0  0
 16 17  2  0  0  0  0
 16  2  1  0  0  0  0
 17 10  1  0  0  0  0
 18 13  1  6  0  0  0
 18 21  1  0  0  0  0
 19 16  1  0  0  0  0
 20  3  1  0  0  0  0
 21 22  1  0  0  0  0
 22 26  1  6  0  0  0
 22  5  1  0  0  0  0
 23  8  1  0  0  0  0
 24  9  2  0  0  0  0
 27 26  1  0  0  0  0
 28 27  1  0  0  0  0
 29 28  1  0  0  0  0
 30 29  1  6  0  0  0
 30 33  1  0  0  0  0
 31 30  1  0  0  0  0
 32 31  1  0  0  0  0
 34 33  1  0  0  0  0
 35 37  1  0  0  0  0
 36 40  1  0  0  0  0
 36 37  1  0  0  0  0
 38 40  2  0  0  0  0
 39 35  1  0  0  0  0
 39 34  1  0  0  0  0
 40 39  1  0  0  0  0
 42 41  1  0  0  0  0
 43 42  1  0  0  0  0
 44 46  1  1  0  0  0
 44 54  1  0  0  0  0
 45 47  1  6  0  0  0
 45 50  1  0  0  0  0
 45 49  1  0  0  0  0
 47 53  1  0  0  0  0
 48 53  1  0  0  0  0
 49 52  1  0  0  0  0
 50 44  1  0  0  0  0
 51 54  1  0  0  0  0
 51 43  1  0  0  0  0
 52 51  1  0  0  0  0
 53 45  1  0  0  0  0
 53 50  1  0  0  0  0
M  END
>  <MODEL>
9

>  <REMARK>
 VINA RESULT:      -6.5      3.254      9.449
  Name = 
  13 active torsions:
  status: ('A' for Active; 'I' for Inactive)
    1  A    between atoms: O_4  and  C_12
    2  A    between atoms: C_8  and  C_23
    3  A    between atoms: C_8  and  N_43
    4  A    between atoms: C_10  and  C_16
    5  A    between atoms: C_10  and  C_29
    6  A    between atoms: C_12  and  C_17
    7  A    between atoms: C_12  and  C_23
    8  A    between atoms: C_16  and  C_17
    9  A    between atoms: N_28  and  C_34
   10  A    between atoms: N_28  and  C_42
   11  A    between atoms: C_29  and  C_46
   12  A    between atoms: C_32  and  C_52
   13  A    between atoms: C_34  and  C_52
                            x       y       z     vdW  Elec       q    Type
                         _______ _______ _______ _____ _____    ______ ____

>  <TORSDO>
F 13

$$$$
