=
 OpenBabel10232411113D

 36 37  0  0  0  0  0  0  0  0999 V2000
  186.3230  178.7730  140.2170 C   0  0  0  0  0  3  0  0  0  0  0  0
  185.0670  178.6360  140.6600 C   0  0  0  0  0  0  0  0  0  0  0  0
  183.5650  179.9150  139.2860 N   0  0  0  0  0  0  0  0  0  0  0  0
  183.9580  178.7360  139.6750 C   0  0  0  0  0  0  0  0  0  0  0  0
  183.6450  176.8060  138.0810 C   0  0  0  0  0  0  0  0  0  0  0  0
  182.1280  177.0790  139.9550 C   0  0  0  0  0  3  0  0  0  0  0  0
  184.7680  177.1920  137.3600 O   0  0  0  0  0  1  0  0  0  0  0  0
  183.2400  177.5220  139.2240 C   0  0  0  0  0  0  0  0  0  0  0  0
  182.9260  175.6770  137.6730 C   0  0  0  0  0  3  0  0  0  0  0  0
  181.4180  175.9500  139.5430 C   0  0  0  0  0  3  0  0  0  0  0  0
  181.8130  175.2510  138.4000 C   0  0  0  0  0  3  0  0  0  0  0  0
  182.4920  180.0950  138.4390 O   0  0  0  0  0  0  0  0  0  0  0  0
  181.3050  180.7020  138.9190 C   0  0  0  0  0  1  0  0  0  0  0  0
  184.8320  178.3370  142.0900 C   0  0  0  0  0  3  0  0  0  0  0  0
  183.8190  178.8300  142.7930 C   0  0  0  0  0  3  0  0  0  0  0  0
  183.6400  178.4550  144.2240 C   0  0  0  0  0  2  0  0  0  0  0  0
  184.3420  179.4400  145.1480 C   0  0  0  0  0  2  0  0  0  0  0  0
  187.0030  177.9920  147.1370 C   0  0  0  0  0  3  0  0  0  0  0  0
  185.7630  178.5960  147.0120 C   0  0  0  0  0  3  0  0  0  0  0  0
  185.5490  178.8460  145.7070 N   0  0  0  0  0  0  0  0  0  0  0  0
  187.4650  177.9110  145.8320 C   0  0  0  0  0  0  0  0  0  0  0  0
  186.5670  178.4350  144.9780 N   0  0  0  0  0  0  0  0  0  0  0  0
  192.0010  176.7810  147.0090 O   0  0  0  0  0  0  0  0  0  0  0  0
  189.8340  177.2780  146.3400 N   0  0  0  0  0  2  0  0  0  0  0  0
  191.5530  176.2620  144.7420 C   0  0  0  0  0  1  0  0  0  0  0  0
  188.7400  177.3190  145.4150 C   0  0  0  0  0  0  0  0  0  0  0  0
  191.1520  176.7780  146.0810 C   0  0  0  0  0  0  0  0  0  0  0  0
  188.8560  176.8400  144.2550 O   0  0  0  0  0  0  0  0  0  0  0  0
  187.5260  178.6820  141.0950 C   0  0  0  0  0  2  0  0  0  0  0  0
  188.4330  177.5770  140.5880 C   0  0  0  0  0  2  0  0  0  0  0  0
  188.9860  177.9350  139.2480 C   0  0  0  0  0  0  0  0  0  0  0  0
  189.1480  179.1050  138.9450 O   0  0  0  0  0  0  0  0  0  0  0  0
  189.3790  176.6470  138.0680 P   0  0  0  0  0  0  0  0  0  0  0  0
  190.0730  177.3290  136.6840 O   0  0  0  0  0  0  0  0  0  0  0  0
  190.3550  175.6740  138.6890 O   0  0  0  0  0  1  0  0  0  0  0  0
  187.9630  175.8280  137.6370 O   0  0  0  0  0  1  0  0  0  0  0  0
  1  2  2  0  0  0  0
  1 29  1  0  0  0  0
  2 14  1  0  0  0  0
  3  4  2  0  0  0  0
  4  2  1  0  0  0  0
  5  8  1  0  0  0  0
  7  5  1  0  0  0  0
  8  4  1  0  0  0  0
  8  6  2  0  0  0  0
  9  5  2  0  0  0  0
  9 11  1  0  0  0  0
 10  6  1  0  0  0  0
 11 10  2  0  0  0  0
 12 13  1  0  0  0  0
 12  3  1  0  0  0  0
 14 15  2  0  0  0  0
 15 16  1  0  0  0  0
 16 17  1  0  0  0  0
 17 20  1  0  0  0  0
 19 18  2  0  0  0  0
 20 19  1  0  0  0  0
 21 18  1  0  0  0  0
 22 20  1  0  0  0  0
 22 21  2  0  0  0  0
 25 27  1  0  0  0  0
 26 21  1  0  0  0  0
 26 24  1  0  0  0  0
 27 24  1  0  0  0  0
 27 23  2  0  0  0  0
 28 26  2  0  0  0  0
 30 29  1  0  0  0  0
 31 30  1  0  0  0  0
 32 31  2  0  0  0  0
 33 35  1  0  0  0  0
 33 31  1  0  0  0  0
 34 33  2  0  0  0  0
 36 33  1  0  0  0  0
M  END
>  <MODEL>
1

>  <REMARK>
 VINA RESULT:      -7.5      0.000      0.000
  Name = 
  12 active torsions:
  status: ('A' for Active; 'I' for Inactive)
    1  A    between atoms: P_1  and  C_7
    2  A    between atoms: C_2  and  C_5
    3  A    between atoms: C_2  and  C_22
    4  A    between atoms: N_3  and  O_19
    5  A    between atoms: C_4  and  C_30
    6  A    between atoms: C_7  and  C_24
    7  A    between atoms: C_10  and  C_21
    8  A    between atoms: C_10  and  C_30
    9  A    between atoms: C_13  and  C_25
   10  A    between atoms: C_22  and  N_23
   11  A    between atoms: C_24  and  C_26
   12  A    between atoms: C_26  and  C_29
                            x       y       z     vdW  Elec       q    Type
                         _______ _______ _______ _____ _____    ______ ____

>  <TORSDO>
F 12

$$$$
=
 OpenBabel10232411113D

 36 37  0  0  0  0  0  0  0  0999 V2000
  184.1520  178.8060  143.5500 C   0  0  0  0  0  3  0  0  0  0  0  0
  184.2710  178.8390  142.2170 C   0  0  0  0  0  0  0  0  0  0  0  0
  181.8940  178.9900  141.8880 N   0  0  0  0  0  0  0  0  0  0  0  0
  183.0480  178.6420  141.3950 C   0  0  0  0  0  0  0  0  0  0  0  0
  183.3560  178.6770  138.8920 C   0  0  0  0  0  0  0  0  0  0  0  0
  182.9650  176.5690  140.0270 C   0  0  0  0  0  3  0  0  0  0  0  0
  183.5640  180.0510  138.9160 O   0  0  0  0  0  1  0  0  0  0  0  0
  183.1260  177.9610  140.0820 C   0  0  0  0  0  0  0  0  0  0  0  0
  183.3990  178.0020  137.6680 C   0  0  0  0  0  3  0  0  0  0  0  0
  183.0120  175.9020  138.8020 C   0  0  0  0  0  3  0  0  0  0  0  0
  183.2240  176.6170  137.6220 C   0  0  0  0  0  3  0  0  0  0  0  0
  180.7080  178.7650  141.2230 O   0  0  0  0  0  0  0  0  0  0  0  0
  179.9820  179.8540  140.6800 C   0  0  0  0  0  1  0  0  0  0  0  0
  185.5930  179.1220  141.6150 C   0  0  0  0  0  3  0  0  0  0  0  0
  186.6180  178.2790  141.6470 C   0  0  0  0  0  3  0  0  0  0  0  0
  187.9080  178.6330  140.9900 C   0  0  0  0  0  2  0  0  0  0  0  0
  188.6550  177.3900  140.5290 C   0  0  0  0  0  2  0  0  0  0  0  0
  191.9540  177.2790  142.0260 C   0  0  0  0  0  3  0  0  0  0  0  0
  191.0900  177.6250  141.0000 C   0  0  0  0  0  3  0  0  0  0  0  0
  189.8580  177.1910  141.3250 N   0  0  0  0  0  0  0  0  0  0  0  0
  191.1360  176.6360  142.9440 C   0  0  0  0  0  0  0  0  0  0  0  0
  189.8670  176.5930  142.5000 N   0  0  0  0  0  0  0  0  0  0  0  0
  191.4640  177.2550  147.7130 O   0  0  0  0  0  0  0  0  0  0  0  0
  191.3530  176.8540  145.4290 N   0  0  0  0  0  2  0  0  0  0  0  0
  192.5080  175.2390  147.0410 C   0  0  0  0  0  1  0  0  0  0  0  0
  191.5690  176.0920  144.2350 C   0  0  0  0  0  0  0  0  0  0  0  0
  191.7520  176.4910  146.7570 C   0  0  0  0  0  0  0  0  0  0  0  0
  192.1120  174.9550  144.2820 O   0  0  0  0  0  0  0  0  0  0  0  0
  185.2950  179.0010  144.4900 C   0  0  0  0  0  2  0  0  0  0  0  0
  185.1090  178.1030  145.6980 C   0  0  0  0  0  2  0  0  0  0  0  0
  186.0040  178.5380  146.8100 C   0  0  0  0  0  0  0  0  0  0  0  0
  185.6110  179.3540  147.6270 O   0  0  0  0  0  0  0  0  0  0  0  0
  187.6680  177.8890  146.9280 P   0  0  0  0  0  0  0  0  0  0  0  0
  188.6470  178.9740  147.7820 O   0  0  0  0  0  1  0  0  0  0  0  0
  187.6430  176.5630  147.6510 O   0  0  0  0  0  1  0  0  0  0  0  0
  188.2980  177.6730  145.3730 O   0  0  0  0  0  0  0  0  0  0  0  0
  1 29  1  0  0  0  0
  2  1  2  0  0  0  0
  4  3  2  0  0  0  0
  4  2  1  0  0  0  0
  5  7  1  0  0  0  0
  5  8  1  0  0  0  0
  6  8  2  0  0  0  0
  8  4  1  0  0  0  0
  9  5  2  0  0  0  0
 10  6  1  0  0  0  0
 11  9  1  0  0  0  0
 11 10  2  0  0  0  0
 12  3  1  0  0  0  0
 13 12  1  0  0  0  0
 14 15  2  0  0  0  0
 14  2  1  0  0  0  0
 16 15  1  0  0  0  0
 17 16  1  0  0  0  0
 17 20  1  0  0  0  0
 18 21  1  0  0  0  0
 19 20  1  0  0  0  0
 19 18  2  0  0  0  0
 20 22  1  0  0  0  0
 21 26  1  0  0  0  0
 22 21  2  0  0  0  0
 24 27  1  0  0  0  0
 26 28  2  0  0  0  0
 26 24  1  0  0  0  0
 27 25  1  0  0  0  0
 27 23  2  0  0  0  0
 29 30  1  0  0  0  0
 30 31  1  0  0  0  0
 31 33  1  0  0  0  0
 31 32  2  0  0  0  0
 33 35  1  0  0  0  0
 33 34  1  0  0  0  0
 36 33  2  0  0  0  0
M  END
>  <MODEL>
2

>  <REMARK>
 VINA RESULT:      -7.3      3.179      5.207
  Name = 
  12 active torsions:
  status: ('A' for Active; 'I' for Inactive)
    1  A    between atoms: P_1  and  C_7
    2  A    between atoms: C_2  and  C_5
    3  A    between atoms: C_2  and  C_22
    4  A    between atoms: N_3  and  O_19
    5  A    between atoms: C_4  and  C_30
    6  A    between atoms: C_7  and  C_24
    7  A    between atoms: C_10  and  C_21
    8  A    between atoms: C_10  and  C_30
    9  A    between atoms: C_13  and  C_25
   10  A    between atoms: C_22  and  N_23
   11  A    between atoms: C_24  and  C_26
   12  A    between atoms: C_26  and  C_29
                            x       y       z     vdW  Elec       q    Type
                         _______ _______ _______ _____ _____    ______ ____

>  <TORSDO>
F 12

$$$$
=
 OpenBabel10232411113D

 36 37  0  0  0  0  0  0  0  0999 V2000
  184.0430  178.7630  142.6210 C   0  0  0  0  0  3  0  0  0  0  0  0
  184.2830  178.6030  141.3140 C   0  0  0  0  0  0  0  0  0  0  0  0
  183.0540  177.0330  139.9710 N   0  0  0  0  0  0  0  0  0  0  0  0
  183.1440  178.2490  140.4270 C   0  0  0  0  0  0  0  0  0  0  0  0
  180.9420  179.4660  140.6160 C   0  0  0  0  0  0  0  0  0  0  0  0
  182.5310  180.1100  138.8990 C   0  0  0  0  0  3  0  0  0  0  0  0
  180.5890  178.6970  141.7180 O   0  0  0  0  0  1  0  0  0  0  0  0
  182.1870  179.2880  139.9820 C   0  0  0  0  0  0  0  0  0  0  0  0
  180.0550  180.4410  140.1500 C   0  0  0  0  0  3  0  0  0  0  0  0
  181.6410  181.0840  138.4430 C   0  0  0  0  0  3  0  0  0  0  0  0
  180.4010  181.2470  139.0640 C   0  0  0  0  0  3  0  0  0  0  0  0
  182.0760  176.6470  139.0800 O   0  0  0  0  0  0  0  0  0  0  0  0
  180.9440  175.9290  139.5380 C   0  0  0  0  0  1  0  0  0  0  0  0
  185.6500  178.8350  140.7950 C   0  0  0  0  0  3  0  0  0  0  0  0
  186.7500  178.3620  141.3680 C   0  0  0  0  0  3  0  0  0  0  0  0
  188.0870  178.6200  140.7620 C   0  0  0  0  0  2  0  0  0  0  0  0
  188.8080  177.3200  140.4360 C   0  0  0  0  0  2  0  0  0  0  0  0
  192.0240  177.2760  142.1060 C   0  0  0  0  0  3  0  0  0  0  0  0
  191.2110  177.5970  141.0320 C   0  0  0  0  0  3  0  0  0  0  0  0
  189.9700  177.1480  141.2960 N   0  0  0  0  0  0  0  0  0  0  0  0
  191.1690  176.6310  142.9870 C   0  0  0  0  0  0  0  0  0  0  0  0
  189.9260  176.5640  142.4770 N   0  0  0  0  0  0  0  0  0  0  0  0
  191.3590  177.3680  147.7470 O   0  0  0  0  0  0  0  0  0  0  0  0
  191.3110  176.9100  145.4720 N   0  0  0  0  0  2  0  0  0  0  0  0
  192.3570  175.3020  147.1630 C   0  0  0  0  0  1  0  0  0  0  0  0
  191.5410  176.1090  144.3060 C   0  0  0  0  0  0  0  0  0  0  0  0
  191.6540  176.5700  146.8210 C   0  0  0  0  0  0  0  0  0  0  0  0
  192.0430  174.9560  144.4010 O   0  0  0  0  0  0  0  0  0  0  0  0
  185.0910  179.1310  143.6180 C   0  0  0  0  0  2  0  0  0  0  0  0
  184.6450  178.6900  144.9990 C   0  0  0  0  0  2  0  0  0  0  0  0
  185.8020  178.6900  145.9420 C   0  0  0  0  0  0  0  0  0  0  0  0
  185.7720  179.3800  146.9480 O   0  0  0  0  0  0  0  0  0  0  0  0
  187.2520  177.7030  145.5820 P   0  0  0  0  0  0  0  0  0  0  0  0
  186.8460  176.4580  144.5100 O   0  0  0  0  0  0  0  0  0  0  0  0
  188.3140  178.5760  144.9560 O   0  0  0  0  0  1  0  0  0  0  0  0
  187.8450  177.0330  147.0170 O   0  0  0  0  0  1  0  0  0  0  0  0
  1 29  1  0  0  0  0
  2  1  2  0  0  0  0
  3  4  2  0  0  0  0
  4  2  1  0  0  0  0
  5  7  1  0  0  0  0
  6  8  1  0  0  0  0
  8  4  1  0  0  0  0
  8  5  2  0  0  0  0
  9  5  1  0  0  0  0
 10  6  2  0  0  0  0
 10 11  1  0  0  0  0
 11  9  2  0  0  0  0
 12 13  1  0  0  0  0
 12  3  1  0  0  0  0
 14  2  1  0  0  0  0
 14 15  2  0  0  0  0
 16 15  1  0  0  0  0
 17 16  1  0  0  0  0
 17 20  1  0  0  0  0
 18 21  1  0  0  0  0
 19 20  1  0  0  0  0
 19 18  2  0  0  0  0
 20 22  1  0  0  0  0
 21 26  1  0  0  0  0
 22 21  2  0  0  0  0
 24 27  1  0  0  0  0
 26 28  2  0  0  0  0
 26 24  1  0  0  0  0
 27 25  1  0  0  0  0
 27 23  2  0  0  0  0
 29 30  1  0  0  0  0
 30 31  1  0  0  0  0
 31 32  2  0  0  0  0
 33 31  1  0  0  0  0
 33 36  1  0  0  0  0
 34 33  2  0  0  0  0
 35 33  1  0  0  0  0
M  END
>  <MODEL>
3

>  <REMARK>
 VINA RESULT:      -7.2      3.286      5.331
  Name = 
  12 active torsions:
  status: ('A' for Active; 'I' for Inactive)
    1  A    between atoms: P_1  and  C_7
    2  A    between atoms: C_2  and  C_5
    3  A    between atoms: C_2  and  C_22
    4  A    between atoms: N_3  and  O_19
    5  A    between atoms: C_4  and  C_30
    6  A    between atoms: C_7  and  C_24
    7  A    between atoms: C_10  and  C_21
    8  A    between atoms: C_10  and  C_30
    9  A    between atoms: C_13  and  C_25
   10  A    between atoms: C_22  and  N_23
   11  A    between atoms: C_24  and  C_26
   12  A    between atoms: C_26  and  C_29
                            x       y       z     vdW  Elec       q    Type
                         _______ _______ _______ _____ _____    ______ ____

>  <TORSDO>
F 12

$$$$
=
 OpenBabel10232411113D

 36 37  0  0  0  0  0  0  0  0999 V2000
  185.4330  178.4970  143.7860 C   0  0  0  0  0  3  0  0  0  0  0  0
  186.7140  178.3450  143.4270 C   0  0  0  0  0  0  0  0  0  0  0  0
  187.2330  177.4990  145.6160 N   0  0  0  0  0  0  0  0  0  0  0  0
  187.6560  177.7500  144.4110 C   0  0  0  0  0  0  0  0  0  0  0  0
  189.5220  176.3730  143.4180 C   0  0  0  0  0  0  0  0  0  0  0  0
  190.0090  178.5470  144.3790 C   0  0  0  0  0  3  0  0  0  0  0  0
  188.6220  175.3810  143.0490 O   0  0  0  0  0  1  0  0  0  0  0  0
  189.0800  177.5460  144.0600 C   0  0  0  0  0  0  0  0  0  0  0  0
  190.8790  176.2070  143.1250 C   0  0  0  0  0  3  0  0  0  0  0  0
  191.3620  178.3750  144.0800 C   0  0  0  0  0  3  0  0  0  0  0  0
  191.7980  177.2040  143.4580 C   0  0  0  0  0  3  0  0  0  0  0  0
  188.0650  177.0240  146.6080 O   0  0  0  0  0  0  0  0  0  0  0  0
  188.1890  177.7330  147.8280 C   0  0  0  0  0  1  0  0  0  0  0  0
  187.1320  178.7220  142.0590 C   0  0  0  0  0  3  0  0  0  0  0  0
  187.4050  177.8460  141.0990 C   0  0  0  0  0  3  0  0  0  0  0  0
  187.7930  178.3120  139.7380 C   0  0  0  0  0  2  0  0  0  0  0  0
  189.3000  178.2460  139.5370 C   0  0  0  0  0  2  0  0  0  0  0  0
  189.5620  175.4090  137.2980 C   0  0  0  0  0  3  0  0  0  0  0  0
  188.8420  176.4300  137.8950 C   0  0  0  0  0  3  0  0  0  0  0  0
  189.6600  177.0810  138.7420 N   0  0  0  0  0  0  0  0  0  0  0  0
  190.8280  175.5300  137.8510 C   0  0  0  0  0  0  0  0  0  0  0  0
  190.8670  176.5520  138.7250 N   0  0  0  0  0  0  0  0  0  0  0  0
  195.6210  175.0190  137.8700 O   0  0  0  0  0  0  0  0  0  0  0  0
  193.3040  175.1610  137.8170 N   0  0  0  0  0  2  0  0  0  0  0  0
  194.5710  173.1780  136.8140 C   0  0  0  0  0  1  0  0  0  0  0  0
  191.9830  174.6880  137.5260 C   0  0  0  0  0  0  0  0  0  0  0  0
  194.5350  174.4870  137.5240 C   0  0  0  0  0  0  0  0  0  0  0  0
  191.8010  173.5530  137.0090 O   0  0  0  0  0  0  0  0  0  0  0  0
  184.3830  179.0680  142.8920 C   0  0  0  0  0  2  0  0  0  0  0  0
  183.9250  178.0020  141.9140 C   0  0  0  0  0  2  0  0  0  0  0  0
  182.9310  178.5710  140.9570 C   0  0  0  0  0  0  0  0  0  0  0  0
  181.7520  178.6310  141.2630 O   0  0  0  0  0  0  0  0  0  0  0  0
  183.4620  179.1340  139.3420 P   0  0  0  0  0  0  0  0  0  0  0  0
  182.2410  180.0610  138.6280 O   0  0  0  0  0  1  0  0  0  0  0  0
  184.7090  179.9750  139.4850 O   0  0  0  0  0  1  0  0  0  0  0  0
  183.7940  177.7960  138.3620 O   0  0  0  0  0  0  0  0  0  0  0  0
  2  1  2  0  0  0  0
  2  4  1  0  0  0  0
  3 12  1  0  0  0  0
  4  3  2  0  0  0  0
  5  8  1  0  0  0  0
  7  5  1  0  0  0  0
  8  6  2  0  0  0  0
  8  4  1  0  0  0  0
  9  5  2  0  0  0  0
  9 11  1  0  0  0  0
 10  6  1  0  0  0  0
 11 10  2  0  0  0  0
 12 13  1  0  0  0  0
 14  2  1  0  0  0  0
 15 14  2  0  0  0  0
 16 15  1  0  0  0  0
 17 16  1  0  0  0  0
 18 21  1  0  0  0  0
 18 19  2  0  0  0  0
 19 20  1  0  0  0  0
 20 17  1  0  0  0  0
 21 22  2  0  0  0  0
 22 20  1  0  0  0  0
 25 27  1  0  0  0  0
 26 24  1  0  0  0  0
 26 21  1  0  0  0  0
 27 24  1  0  0  0  0
 27 23  2  0  0  0  0
 28 26  2  0  0  0  0
 29  1  1  0  0  0  0
 30 29  1  0  0  0  0
 31 32  2  0  0  0  0
 31 30  1  0  0  0  0
 33 35  1  0  0  0  0
 33 31  1  0  0  0  0
 34 33  1  0  0  0  0
 36 33  2  0  0  0  0
M  END
>  <MODEL>
4

>  <REMARK>
 VINA RESULT:      -7.2      3.736      8.056
  Name = 
  12 active torsions:
  status: ('A' for Active; 'I' for Inactive)
    1  A    between atoms: P_1  and  C_7
    2  A    between atoms: C_2  and  C_5
    3  A    between atoms: C_2  and  C_22
    4  A    between atoms: N_3  and  O_19
    5  A    between atoms: C_4  and  C_30
    6  A    between atoms: C_7  and  C_24
    7  A    between atoms: C_10  and  C_21
    8  A    between atoms: C_10  and  C_30
    9  A    between atoms: C_13  and  C_25
   10  A    between atoms: C_22  and  N_23
   11  A    between atoms: C_24  and  C_26
   12  A    between atoms: C_26  and  C_29
                            x       y       z     vdW  Elec       q    Type
                         _______ _______ _______ _____ _____    ______ ____

>  <TORSDO>
F 12

$$$$
=
 OpenBabel10232411113D

 36 37  0  0  0  0  0  0  0  0999 V2000
  191.4130  175.8370  135.8010 C   0  0  0  0  0  3  0  0  0  0  0  0
  192.1710  175.7980  136.9040 C   0  0  0  0  0  0  0  0  0  0  0  0
  194.3020  176.6070  136.1380 N   0  0  0  0  0  0  0  0  0  0  0  0
  193.6430  175.6610  136.7420 C   0  0  0  0  0  0  0  0  0  0  0  0
  195.1010  174.3670  138.3430 C   0  0  0  0  0  0  0  0  0  0  0  0
  194.2180  173.2730  136.3660 C   0  0  0  0  0  3  0  0  0  0  0  0
  195.2000  175.4730  139.1790 O   0  0  0  0  0  1  0  0  0  0  0  0
  194.3330  174.4200  137.1640 C   0  0  0  0  0  0  0  0  0  0  0  0
  195.7580  173.1840  138.6950 C   0  0  0  0  0  3  0  0  0  0  0  0
  194.8740  172.0950  136.7270 C   0  0  0  0  0  3  0  0  0  0  0  0
  195.6480  172.0510  137.8880 C   0  0  0  0  0  3  0  0  0  0  0  0
  195.6520  176.5170  135.8760 O   0  0  0  0  0  0  0  0  0  0  0  0
  196.2270  177.2950  134.8410 C   0  0  0  0  0  1  0  0  0  0  0  0
  191.5310  175.9470  138.2290 C   0  0  0  0  0  3  0  0  0  0  0  0
  191.3810  177.1090  138.8550 C   0  0  0  0  0  3  0  0  0  0  0  0
  190.6990  177.1720  140.1780 C   0  0  0  0  0  2  0  0  0  0  0  0
  191.6990  177.3530  141.3100 C   0  0  0  0  0  2  0  0  0  0  0  0
  190.6820  176.8020  144.7440 C   0  0  0  0  0  3  0  0  0  0  0  0
  191.6130  176.7350  143.7220 C   0  0  0  0  0  3  0  0  0  0  0  0
  191.0410  177.2140  142.6020 N   0  0  0  0  0  0  0  0  0  0  0  0
  189.5630  177.3510  144.1370 C   0  0  0  0  0  0  0  0  0  0  0  0
  189.8010  177.5950  142.8360 N   0  0  0  0  0  0  0  0  0  0  0  0
  184.8240  178.1270  143.7100 O   0  0  0  0  0  0  0  0  0  0  0  0
  187.0950  177.7650  144.0280 N   0  0  0  0  0  2  0  0  0  0  0  0
  185.5380  178.4200  145.9480 C   0  0  0  0  0  1  0  0  0  0  0  0
  188.2930  177.6550  144.8060 C   0  0  0  0  0  0  0  0  0  0  0  0
  185.7890  178.0980  144.5160 C   0  0  0  0  0  0  0  0  0  0  0  0
  188.2680  177.8000  146.0580 O   0  0  0  0  0  0  0  0  0  0  0  0
  189.9280  175.9840  135.8210 C   0  0  0  0  0  2  0  0  0  0  0  0
  189.5520  177.3470  135.2720 C   0  0  0  0  0  2  0  0  0  0  0  0
  188.1570  177.6990  135.6680 C   0  0  0  0  0  0  0  0  0  0  0  0
  187.2590  177.6630  134.8420 O   0  0  0  0  0  0  0  0  0  0  0  0
  187.8020  178.2090  137.3470 P   0  0  0  0  0  0  0  0  0  0  0  0
  188.9360  179.3600  137.8480 O   0  0  0  0  0  1  0  0  0  0  0  0
  186.4170  178.8100  137.4100 O   0  0  0  0  0  0  0  0  0  0  0  0
  187.8810  176.8650  138.3700 O   0  0  0  0  0  1  0  0  0  0  0  0
  1 29  1  0  0  0  0
  1  2  2  0  0  0  0
  2 14  1  0  0  0  0
  3  4  2  0  0  0  0
  4  2  1  0  0  0  0
  4  8  1  0  0  0  0
  5  9  1  0  0  0  0
  5  7  1  0  0  0  0
  6 10  2  0  0  0  0
  6  8  1  0  0  0  0
  8  5  2  0  0  0  0
 10 11  1  0  0  0  0
 11  9  2  0  0  0  0
 12  3  1  0  0  0  0
 13 12  1  0  0  0  0
 14 15  2  0  0  0  0
 15 16  1  0  0  0  0
 16 17  1  0  0  0  0
 17 20  1  0  0  0  0
 19 18  2  0  0  0  0
 20 22  1  0  0  0  0
 20 19  1  0  0  0  0
 21 18  1  0  0  0  0
 21 26  1  0  0  0  0
 22 21  2  0  0  0  0
 23 27  2  0  0  0  0
 24 27  1  0  0  0  0
 24 26  1  0  0  0  0
 26 28  2  0  0  0  0
 27 25  1  0  0  0  0
 30 31  1  0  0  0  0
 30 29  1  0  0  0  0
 31 33  1  0  0  0  0
 32 31  2  0  0  0  0
 33 35  2  0  0  0  0
 33 34  1  0  0  0  0
 33 36  1  0  0  0  0
M  END
>  <MODEL>
5

>  <REMARK>
 VINA RESULT:      -7.1      4.916      8.629
  Name = 
  12 active torsions:
  status: ('A' for Active; 'I' for Inactive)
    1  A    between atoms: P_1  and  C_7
    2  A    between atoms: C_2  and  C_5
    3  A    between atoms: C_2  and  C_22
    4  A    between atoms: N_3  and  O_19
    5  A    between atoms: C_4  and  C_30
    6  A    between atoms: C_7  and  C_24
    7  A    between atoms: C_10  and  C_21
    8  A    between atoms: C_10  and  C_30
    9  A    between atoms: C_13  and  C_25
   10  A    between atoms: C_22  and  N_23
   11  A    between atoms: C_24  and  C_26
   12  A    between atoms: C_26  and  C_29
                            x       y       z     vdW  Elec       q    Type
                         _______ _______ _______ _____ _____    ______ ____

>  <TORSDO>
F 12

$$$$
=
 OpenBabel10232411113D

 36 37  0  0  0  0  0  0  0  0999 V2000
  185.8630  177.9170  137.4980 C   0  0  0  0  0  3  0  0  0  0  0  0
  186.3880  178.0830  138.7180 C   0  0  0  0  0  0  0  0  0  0  0  0
  186.0980  179.1540  140.8510 N   0  0  0  0  0  0  0  0  0  0  0  0
  185.5330  178.6820  139.7770 C   0  0  0  0  0  0  0  0  0  0  0  0
  183.3260  179.7590  139.2020 C   0  0  0  0  0  0  0  0  0  0  0  0
  183.3750  177.4770  140.0220 C   0  0  0  0  0  3  0  0  0  0  0  0
  183.9740  180.9190  138.7950 O   0  0  0  0  0  1  0  0  0  0  0  0
  184.0570  178.6470  139.6610 C   0  0  0  0  0  0  0  0  0  0  0  0
  181.9300  179.6950  139.1300 C   0  0  0  0  0  3  0  0  0  0  0  0
  181.9820  177.4200  139.9440 C   0  0  0  0  0  3  0  0  0  0  0  0
  181.2590  178.5300  139.5040 C   0  0  0  0  0  3  0  0  0  0  0  0
  185.3710  179.6510  141.9120 O   0  0  0  0  0  0  0  0  0  0  0  0
  185.2160  178.8770  143.0890 C   0  0  0  0  0  1  0  0  0  0  0  0
  187.7670  177.6180  138.9820 C   0  0  0  0  0  3  0  0  0  0  0  0
  188.8300  178.4150  138.9880 C   0  0  0  0  0  3  0  0  0  0  0  0
  190.1820  177.8680  139.2910 C   0  0  0  0  0  2  0  0  0  0  0  0
  190.0960  176.6370  140.1810 C   0  0  0  0  0  2  0  0  0  0  0  0
  191.5240  177.6940  143.3390 C   0  0  0  0  0  3  0  0  0  0  0  0
  191.6130  177.4610  141.9770 C   0  0  0  0  0  3  0  0  0  0  0  0
  190.4300  176.9750  141.5570 N   0  0  0  0  0  0  0  0  0  0  0  0
  190.2270  177.3200  143.6550 C   0  0  0  0  0  0  0  0  0  0  0  0
  189.5780  176.8860  142.5600 N   0  0  0  0  0  0  0  0  0  0  0  0
  186.1890  177.6530  146.2680 O   0  0  0  0  0  0  0  0  0  0  0  0
  188.1930  177.4880  145.1070 N   0  0  0  0  0  2  0  0  0  0  0  0
  188.1080  177.7180  147.6520 C   0  0  0  0  0  1  0  0  0  0  0  0
  189.6180  177.3990  144.9870 C   0  0  0  0  0  0  0  0  0  0  0  0
  187.4450  177.6160  146.3230 C   0  0  0  0  0  0  0  0  0  0  0  0
  190.3530  177.3730  146.0110 O   0  0  0  0  0  0  0  0  0  0  0  0
  186.6050  177.3180  136.3500 C   0  0  0  0  0  2  0  0  0  0  0  0
  185.8740  176.0760  135.8750 C   0  0  0  0  0  2  0  0  0  0  0  0
  186.4130  174.8640  136.5590 C   0  0  0  0  0  0  0  0  0  0  0  0
  187.5690  174.8440  136.9470 O   0  0  0  0  0  0  0  0  0  0  0  0
  185.3740  173.4230  136.7810 P   0  0  0  0  0  0  0  0  0  0  0  0
  185.8830  172.1840  135.7480 O   0  0  0  0  0  0  0  0  0  0  0  0
  185.4660  172.9490  138.2130 O   0  0  0  0  0  1  0  0  0  0  0  0
  183.7710  173.8260  136.4220 O   0  0  0  0  0  1  0  0  0  0  0  0
  1  2  2  0  0  0  0
  2 14  1  0  0  0  0
  2  4  1  0  0  0  0
  3 12  1  0  0  0  0
  4  3  2  0  0  0  0
  5  8  1  0  0  0  0
  7  5  1  0  0  0  0
  8  4  1  0  0  0  0
  8  6  2  0  0  0  0
  9  5  2  0  0  0  0
  9 11  1  0  0  0  0
 10  6  1  0  0  0  0
 11 10  2  0  0  0  0
 12 13  1  0  0  0  0
 14 15  2  0  0  0  0
 15 16  1  0  0  0  0
 16 17  1  0  0  0  0
 17 20  1  0  0  0  0
 18 21  1  0  0  0  0
 19 18  2  0  0  0  0
 20 19  1  0  0  0  0
 20 22  1  0  0  0  0
 21 26  1  0  0  0  0
 22 21  2  0  0  0  0
 23 27  2  0  0  0  0
 24 27  1  0  0  0  0
 26 24  1  0  0  0  0
 26 28  2  0  0  0  0
 27 25  1  0  0  0  0
 29  1  1  0  0  0  0
 30 29  1  0  0  0  0
 30 31  1  0  0  0  0
 31 33  1  0  0  0  0
 31 32  2  0  0  0  0
 33 35  1  0  0  0  0
 34 33  2  0  0  0  0
 36 33  1  0  0  0  0
M  END
>  <MODEL>
6

>  <REMARK>
 VINA RESULT:      -7.1      2.641      4.784
  Name = 
  12 active torsions:
  status: ('A' for Active; 'I' for Inactive)
    1  A    between atoms: P_1  and  C_7
    2  A    between atoms: C_2  and  C_5
    3  A    between atoms: C_2  and  C_22
    4  A    between atoms: N_3  and  O_19
    5  A    between atoms: C_4  and  C_30
    6  A    between atoms: C_7  and  C_24
    7  A    between atoms: C_10  and  C_21
    8  A    between atoms: C_10  and  C_30
    9  A    between atoms: C_13  and  C_25
   10  A    between atoms: C_22  and  N_23
   11  A    between atoms: C_24  and  C_26
   12  A    between atoms: C_26  and  C_29
                            x       y       z     vdW  Elec       q    Type
                         _______ _______ _______ _____ _____    ______ ____

>  <TORSDO>
F 12

$$$$
=
 OpenBabel10232411113D

 36 37  0  0  0  0  0  0  0  0999 V2000
  190.5000  177.3750  139.9090 C   0  0  0  0  0  3  0  0  0  0  0  0
  189.5150  177.8240  139.1210 C   0  0  0  0  0  0  0  0  0  0  0  0
  188.9920  178.2820  136.8200 N   0  0  0  0  0  0  0  0  0  0  0  0
  189.5580  177.4810  137.6750 C   0  0  0  0  0  0  0  0  0  0  0  0
  189.3580  175.0330  137.0990 C   0  0  0  0  0  0  0  0  0  0  0  0
  191.5090  176.1400  136.9210 C   0  0  0  0  0  3  0  0  0  0  0  0
  187.9910  175.0640  137.3490 O   0  0  0  0  0  1  0  0  0  0  0  0
  190.1410  176.1960  137.2250 C   0  0  0  0  0  0  0  0  0  0  0  0
  189.9500  173.8320  136.6940 C   0  0  0  0  0  3  0  0  0  0  0  0
  192.0920  174.9380  136.5150 C   0  0  0  0  0  3  0  0  0  0  0  0
  191.3150  173.7830  136.4060 C   0  0  0  0  0  3  0  0  0  0  0  0
  188.9180  177.9940  135.4740 O   0  0  0  0  0  0  0  0  0  0  0  0
  187.6740  177.6480  134.8900 C   0  0  0  0  0  1  0  0  0  0  0  0
  188.4010  178.5920  139.7200 C   0  0  0  0  0  3  0  0  0  0  0  0
  187.3740  178.0370  140.3540 C   0  0  0  0  0  3  0  0  0  0  0  0
  186.3070  178.8880  140.9520 C   0  0  0  0  0  2  0  0  0  0  0  0
  185.2450  178.0430  141.6420 C   0  0  0  0  0  2  0  0  0  0  0  0
  184.3010  179.1630  144.9560 C   0  0  0  0  0  3  0  0  0  0  0  0
  184.0510  179.0080  143.6030 C   0  0  0  0  0  3  0  0  0  0  0  0
  185.1230  178.4180  143.0430 N   0  0  0  0  0  0  0  0  0  0  0  0
  185.5660  178.6200  145.1230 C   0  0  0  0  0  0  0  0  0  0  0  0
  186.0480  178.1720  143.9500 N   0  0  0  0  0  0  0  0  0  0  0  0
  189.1480  176.5670  147.6130 O   0  0  0  0  0  0  0  0  0  0  0  0
  187.3980  177.6180  146.5050 N   0  0  0  0  0  2  0  0  0  0  0  0
  187.8720  178.0120  148.9880 C   0  0  0  0  0  1  0  0  0  0  0  0
  186.2870  178.5160  146.3960 C   0  0  0  0  0  0  0  0  0  0  0  0
  188.1780  177.3650  147.6810 C   0  0  0  0  0  0  0  0  0  0  0  0
  185.9310  179.2280  147.3740 O   0  0  0  0  0  0  0  0  0  0  0  0
  190.5710  177.6360  141.3770 C   0  0  0  0  0  2  0  0  0  0  0  0
  191.8140  176.9770  141.9430 C   0  0  0  0  0  2  0  0  0  0  0  0
  191.6000  176.6070  143.3730 C   0  0  0  0  0  0  0  0  0  0  0  0
  191.6860  175.4420  143.7240 O   0  0  0  0  0  0  0  0  0  0  0  0
  191.1810  177.8690  144.5720 P   0  0  0  0  0  0  0  0  0  0  0  0
  189.5130  178.1450  144.5550 O   0  0  0  0  0  1  0  0  0  0  0  0
  191.5990  177.4140  145.9510 O   0  0  0  0  0  1  0  0  0  0  0  0
  191.9890  179.3030  144.1830 O   0  0  0  0  0  0  0  0  0  0  0  0
  1 29  1  0  0  0  0
  2 14  1  0  0  0  0
  2  1  2  0  0  0  0
  3  4  2  0  0  0  0
  4  2  1  0  0  0  0
  5  8  1  0  0  0  0
  5  7  1  0  0  0  0
  6  8  2  0  0  0  0
  8  4  1  0  0  0  0
  9  5  2  0  0  0  0
 10  6  1  0  0  0  0
 11 10  2  0  0  0  0
 11  9  1  0  0  0  0
 12  3  1  0  0  0  0
 13 12  1  0  0  0  0
 14 15  2  0  0  0  0
 15 16  1  0  0  0  0
 16 17  1  0  0  0  0
 17 20  1  0  0  0  0
 18 21  1  0  0  0  0
 19 18  2  0  0  0  0
 20 19  1  0  0  0  0
 20 22  1  0  0  0  0
 21 26  1  0  0  0  0
 22 21  2  0  0  0  0
 23 27  2  0  0  0  0
 24 27  1  0  0  0  0
 26 24  1  0  0  0  0
 26 28  2  0  0  0  0
 27 25  1  0  0  0  0
 29 30  1  0  0  0  0
 30 31  1  0  0  0  0
 31 32  2  0  0  0  0
 31 33  1  0  0  0  0
 33 35  1  0  0  0  0
 34 33  1  0  0  0  0
 36 33  2  0  0  0  0
M  END
>  <MODEL>
7

>  <REMARK>
 VINA RESULT:      -7.1      3.153      5.897
  Name = 
  12 active torsions:
  status: ('A' for Active; 'I' for Inactive)
    1  A    between atoms: P_1  and  C_7
    2  A    between atoms: C_2  and  C_5
    3  A    between atoms: C_2  and  C_22
    4  A    between atoms: N_3  and  O_19
    5  A    between atoms: C_4  and  C_30
    6  A    between atoms: C_7  and  C_24
    7  A    between atoms: C_10  and  C_21
    8  A    between atoms: C_10  and  C_30
    9  A    between atoms: C_13  and  C_25
   10  A    between atoms: C_22  and  N_23
   11  A    between atoms: C_24  and  C_26
   12  A    between atoms: C_26  and  C_29
                            x       y       z     vdW  Elec       q    Type
                         _______ _______ _______ _____ _____    ______ ____

>  <TORSDO>
F 12

$$$$
=
 OpenBabel10232411113D

 36 37  0  0  0  0  0  0  0  0999 V2000
  190.6520  176.3630  138.3020 C   0  0  0  0  0  3  0  0  0  0  0  0
  190.1460  177.0370  139.3420 C   0  0  0  0  0  0  0  0  0  0  0  0
  188.2720  178.2680  140.2120 N   0  0  0  0  0  0  0  0  0  0  0  0
  188.8090  177.6700  139.1880 C   0  0  0  0  0  0  0  0  0  0  0  0
  188.0490  178.5500  136.9490 C   0  0  0  0  0  0  0  0  0  0  0  0
  187.3240  176.3570  137.6910 C   0  0  0  0  0  3  0  0  0  0  0  0
  188.7960  179.7070  137.1260 O   0  0  0  0  0  1  0  0  0  0  0  0
  188.0540  177.5310  137.9220 C   0  0  0  0  0  0  0  0  0  0  0  0
  187.3030  178.3920  135.7760 C   0  0  0  0  0  3  0  0  0  0  0  0
  186.5840  176.2050  136.5160 C   0  0  0  0  0  3  0  0  0  0  0  0
  186.5690  177.2230  135.5610 C   0  0  0  0  0  3  0  0  0  0  0  0
  187.0040  178.8070  140.1730 O   0  0  0  0  0  0  0  0  0  0  0  0
  186.2350  178.8960  141.3590 C   0  0  0  0  0  1  0  0  0  0  0  0
  190.9010  177.0820  140.6140 C   0  0  0  0  0  3  0  0  0  0  0  0
  190.5690  176.3900  141.6980 C   0  0  0  0  0  3  0  0  0  0  0  0
  191.4030  176.4720  142.9300 C   0  0  0  0  0  2  0  0  0  0  0  0
  191.1960  177.7950  143.6530 C   0  0  0  0  0  2  0  0  0  0  0  0
  189.1180  177.2970  146.5800 C   0  0  0  0  0  3  0  0  0  0  0  0
  190.3340  177.2290  145.9210 C   0  0  0  0  0  3  0  0  0  0  0  0
  190.1540  177.6700  144.6620 N   0  0  0  0  0  0  0  0  0  0  0  0
  188.2520  177.8060  145.6240 C   0  0  0  0  0  0  0  0  0  0  0  0
  188.8990  178.0260  144.4670 N   0  0  0  0  0  0  0  0  0  0  0  0
  183.9040  178.4660  143.6480 O   0  0  0  0  0  0  0  0  0  0  0  0
  185.9510  178.1620  144.7020 N   0  0  0  0  0  2  0  0  0  0  0  0
  183.8400  178.8200  145.9890 C   0  0  0  0  0  1  0  0  0  0  0  0
  186.8290  178.0940  145.8320 C   0  0  0  0  0  0  0  0  0  0  0  0
  184.5520  178.4750  144.7260 C   0  0  0  0  0  0  0  0  0  0  0  0
  186.3920  178.2640  147.0030 O   0  0  0  0  0  0  0  0  0  0  0  0
  191.9740  175.6710  138.3270 C   0  0  0  0  0  2  0  0  0  0  0  0
  193.0050  176.5370  137.6280 C   0  0  0  0  0  2  0  0  0  0  0  0
  194.2030  175.7240  137.2640 C   0  0  0  0  0  0  0  0  0  0  0  0
  194.7460  175.0250  138.1040 O   0  0  0  0  0  0  0  0  0  0  0  0
  194.8680  175.8000  135.6030 P   0  0  0  0  0  0  0  0  0  0  0  0
  196.0880  176.9690  135.5270 O   0  0  0  0  0  1  0  0  0  0  0  0
  195.4410  174.4530  135.2270 O   0  0  0  0  0  1  0  0  0  0  0  0
  193.6330  176.2100  134.5230 O   0  0  0  0  0  0  0  0  0  0  0  0
  1 29  1  0  0  0  0
  1  2  2  0  0  0  0
  2 14  1  0  0  0  0
  4  2  1  0  0  0  0
  4  3  2  0  0  0  0
  5  7  1  0  0  0  0
  5  8  1  0  0  0  0
  6  8  2  0  0  0  0
  8  4  1  0  0  0  0
  9  5  2  0  0  0  0
 10  6  1  0  0  0  0
 11  9  1  0  0  0  0
 11 10  2  0  0  0  0
 12  3  1  0  0  0  0
 12 13  1  0  0  0  0
 14 15  2  0  0  0  0
 15 16  1  0  0  0  0
 16 17  1  0  0  0  0
 17 20  1  0  0  0  0
 19 18  2  0  0  0  0
 20 19  1  0  0  0  0
 21 26  1  0  0  0  0
 21 18  1  0  0  0  0
 22 20  1  0  0  0  0
 22 21  2  0  0  0  0
 23 27  2  0  0  0  0
 24 27  1  0  0  0  0
 24 26  1  0  0  0  0
 26 28  2  0  0  0  0
 27 25  1  0  0  0  0
 30 29  1  0  0  0  0
 31 30  1  0  0  0  0
 31 32  2  0  0  0  0
 33 31  1  0  0  0  0
 34 33  1  0  0  0  0
 35 33  1  0  0  0  0
 36 33  2  0  0  0  0
M  END
>  <MODEL>
8

>  <REMARK>
 VINA RESULT:      -7.0      3.359      5.736
  Name = 
  12 active torsions:
  status: ('A' for Active; 'I' for Inactive)
    1  A    between atoms: P_1  and  C_7
    2  A    between atoms: C_2  and  C_5
    3  A    between atoms: C_2  and  C_22
    4  A    between atoms: N_3  and  O_19
    5  A    between atoms: C_4  and  C_30
    6  A    between atoms: C_7  and  C_24
    7  A    between atoms: C_10  and  C_21
    8  A    between atoms: C_10  and  C_30
    9  A    between atoms: C_13  and  C_25
   10  A    between atoms: C_22  and  N_23
   11  A    between atoms: C_24  and  C_26
   12  A    between atoms: C_26  and  C_29
                            x       y       z     vdW  Elec       q    Type
                         _______ _______ _______ _____ _____    ______ ____

>  <TORSDO>
F 12

$$$$
=
 OpenBabel10232411113D

 36 37  0  0  0  0  0  0  0  0999 V2000
  186.1060  177.5980  143.3660 C   0  0  0  0  0  3  0  0  0  0  0  0
  185.8290  178.2020  142.2040 C   0  0  0  0  0  0  0  0  0  0  0  0
  183.6420  179.0080  142.7950 N   0  0  0  0  0  0  0  0  0  0  0  0
  184.4060  178.4860  141.8800 C   0  0  0  0  0  0  0  0  0  0  0  0
  183.9210  178.9200  139.4420 C   0  0  0  0  0  0  0  0  0  0  0  0
  183.2020  176.8390  140.4610 C   0  0  0  0  0  3  0  0  0  0  0  0
  184.5830  180.1400  139.5060 O   0  0  0  0  0  1  0  0  0  0  0  0
  183.8390  178.0840  140.5720 C   0  0  0  0  0  0  0  0  0  0  0  0
  183.3510  178.5160  138.2310 C   0  0  0  0  0  3  0  0  0  0  0  0
  182.6390  176.4410  139.2470 C   0  0  0  0  0  3  0  0  0  0  0  0
  182.7080  177.2800  138.1340 C   0  0  0  0  0  3  0  0  0  0  0  0
  182.2950  179.2250  142.5990 O   0  0  0  0  0  0  0  0  0  0  0  0
  181.3690  178.9050  143.6230 C   0  0  0  0  0  1  0  0  0  0  0  0
  186.9400  178.6100  141.3170 C   0  0  0  0  0  3  0  0  0  0  0  0
  187.3970  177.8710  140.3120 C   0  0  0  0  0  3  0  0  0  0  0  0
  188.5040  178.3710  139.4490 C   0  0  0  0  0  2  0  0  0  0  0  0
  189.8590  177.9050  139.9600 C   0  0  0  0  0  2  0  0  0  0  0  0
  191.1660  176.3970  136.9350 C   0  0  0  0  0  3  0  0  0  0  0  0
  190.1550  177.0150  137.6520 C   0  0  0  0  0  3  0  0  0  0  0  0
  190.6040  177.2380  138.9010 N   0  0  0  0  0  0  0  0  0  0  0  0
  192.2050  176.2950  137.8470 C   0  0  0  0  0  0  0  0  0  0  0  0
  191.8440  176.8110  139.0360 N   0  0  0  0  0  0  0  0  0  0  0  0
  195.4040  172.8030  138.7500 O   0  0  0  0  0  0  0  0  0  0  0  0
  193.9360  174.5280  138.2390 N   0  0  0  0  0  2  0  0  0  0  0  0
  196.3000  174.4200  137.2710 C   0  0  0  0  0  1  0  0  0  0  0  0
  193.5290  175.7280  137.5710 C   0  0  0  0  0  0  0  0  0  0  0  0
  195.2040  173.8720  138.1170 C   0  0  0  0  0  0  0  0  0  0  0  0
  194.2870  176.2930  136.7360 O   0  0  0  0  0  0  0  0  0  0  0  0
  187.4890  177.2670  143.8200 C   0  0  0  0  0  2  0  0  0  0  0  0
  187.7120  177.8420  145.2060 C   0  0  0  0  0  2  0  0  0  0  0  0
  188.9780  177.3090  145.7900 C   0  0  0  0  0  0  0  0  0  0  0  0
  188.9660  176.7680  146.8840 O   0  0  0  0  0  0  0  0  0  0  0  0
  190.5220  177.4910  144.9030 P   0  0  0  0  0  0  0  0  0  0  0  0
  190.5810  179.0110  144.1620 O   0  0  0  0  0  1  0  0  0  0  0  0
  191.6770  177.3600  145.8680 O   0  0  0  0  0  1  0  0  0  0  0  0
  190.6350  176.2880  143.7200 O   0  0  0  0  0  0  0  0  0  0  0  0
  1 29  1  0  0  0  0
  2  1  2  0  0  0  0
  4  2  1  0  0  0  0
  4  3  2  0  0  0  0
  5  7  1  0  0  0  0
  5  8  1  0  0  0  0
  6  8  2  0  0  0  0
  8  4  1  0  0  0  0
  9  5  2  0  0  0  0
 10  6  1  0  0  0  0
 11  9  1  0  0  0  0
 11 10  2  0  0  0  0
 12  3  1  0  0  0  0
 12 13  1  0  0  0  0
 14  2  1  0  0  0  0
 15 14  2  0  0  0  0
 16 17  1  0  0  0  0
 16 15  1  0  0  0  0
 18 19  2  0  0  0  0
 18 21  1  0  0  0  0
 19 20  1  0  0  0  0
 20 22  1  0  0  0  0
 20 17  1  0  0  0  0
 21 22  2  0  0  0  0
 25 27  1  0  0  0  0
 26 21  1  0  0  0  0
 26 24  1  0  0  0  0
 27 24  1  0  0  0  0
 27 23  2  0  0  0  0
 28 26  2  0  0  0  0
 29 30  1  0  0  0  0
 30 31  1  0  0  0  0
 31 32  2  0  0  0  0
 33 31  1  0  0  0  0
 33 35  1  0  0  0  0
 34 33  1  0  0  0  0
 36 33  2  0  0  0  0
M  END
>  <MODEL>
9

>  <REMARK>
 VINA RESULT:      -7.0      3.987      6.644
  Name = 
  12 active torsions:
  status: ('A' for Active; 'I' for Inactive)
    1  A    between atoms: P_1  and  C_7
    2  A    between atoms: C_2  and  C_5
    3  A    between atoms: C_2  and  C_22
    4  A    between atoms: N_3  and  O_19
    5  A    between atoms: C_4  and  C_30
    6  A    between atoms: C_7  and  C_24
    7  A    between atoms: C_10  and  C_21
    8  A    between atoms: C_10  and  C_30
    9  A    between atoms: C_13  and  C_25
   10  A    between atoms: C_22  and  N_23
   11  A    between atoms: C_24  and  C_26
   12  A    between atoms: C_26  and  C_29
                            x       y       z     vdW  Elec       q    Type
                         _______ _______ _______ _____ _____    ______ ____

>  <TORSDO>
F 12

$$$$
