=
 OpenBabel10232411373D

 46 49  0  0  1  0  0  0  0  0999 V2000
  184.9870  179.5390  141.3020 O   0  0  0  0  0  0  0  0  0  0  0  0
  185.2120  178.7330  142.2480 C   0  0  0  0  0  0  0  0  0  0  0  0
  187.4270  178.8040  140.3270 N   0  0  0  0  0  0  0  0  0  0  0  0
  187.5730  178.1750  141.4540 C   0  0  0  0  0  0  0  0  0  0  0  0
  186.4880  178.0980  142.3860 N   0  0  0  0  0  2  0  0  0  0  0  0
  192.4400  175.5900  143.8660 F   0  0  0  0  0  0  0  0  0  0  0  0
  188.8130  177.4470  141.7830 C   0  0  0  0  0  0  0  0  0  0  0  0
  190.0190  178.0770  145.1250 C   0  0  0  0  0  3  0  0  0  0  0  0
  189.4710  176.4130  140.9200 C   0  0  0  0  0  3  0  0  0  0  0  0
  189.2190  178.2100  144.0290 N   0  0  0  0  0  0  0  0  0  0  0  0
  191.3540  176.3990  143.9700 C   0  0  0  0  0  0  0  0  0  0  0  0
  191.1020  177.1730  145.1290 C   0  0  0  0  0  0  0  0  0  0  0  0
  189.4810  177.4680  142.9230 C   0  0  1  0  0  3  0  0  0  0  0  0
  190.5720  175.9300  141.7600 N   0  0  0  0  0  0  0  0  0  0  0  0
  190.5050  176.5670  142.8770 C   0  0  0  0  0  0  0  0  0  0  0  0
  191.9140  177.1250  146.2700 O   0  0  0  0  0  0  0  0  0  0  0  0
  191.6850  176.3300  147.3960 C   0  0  0  0  0  0  0  0  0  0  0  0
  192.6230  175.9990  148.1670 O   0  0  0  0  0  0  0  0  0  0  0  0
  190.4400  175.8370  147.6180 F   0  0  0  0  0  0  0  0  0  0  0  0
  188.0570  178.7020  137.9480 C   0  0  0  0  0  0  0  0  0  0  0  0
  186.8510  178.7640  137.5940 O   0  0  0  0  0  0  0  0  0  0  0  0
  188.4080  178.8060  139.3260 N   0  0  0  0  0  2  0  0  0  0  0  0
  189.1140  178.4470  136.9340 C   0  0  0  0  0  2  0  0  0  0  0  0
  190.0800  177.5040  137.4770 N   0  0  0  0  0  2  0  0  0  0  0  0
  189.5850  176.2370  137.2560 O   0  0  0  0  0  0  0  0  0  0  0  0
  190.4350  175.1480  137.0570 C   0  0  0  0  0  0  0  0  0  0  0  0
  190.8060  174.4420  138.0310 O   0  0  0  0  0  0  0  0  0  0  0  0
  192.2890  172.9950  134.8360 C   0  0  0  0  0  2  0  0  0  0  0  0
  190.9370  174.8280  135.6850 C   0  0  2  0  0  3  0  0  0  0  0  0
  190.9470  173.3270  135.4560 C   0  0  1  0  0  3  0  0  0  0  0  0
  192.3660  175.3130  135.4910 C   0  0  0  0  0  2  0  0  0  0  0  0
  193.2460  174.0820  135.3040 C   0  0  1  0  0  3  0  0  0  0  0  0
  194.8130  174.7480  137.2370 C   0  0  1  0  0  3  0  0  0  0  0  0
  195.8100  172.3380  138.0150 S   0  0  0  0  0  0  0  0  0  0  0  0
  194.0280  175.8530  137.7550 N   0  0  0  0  0  1  0  0  0  0  0  0
  195.7010  172.4440  135.3100 C   0  0  0  0  0  1  0  0  0  0  0  0
  195.5570  174.1010  138.3830 C   0  0  0  0  0  2  0  0  0  0  0  0
  193.9190  173.6750  136.6340 C   0  0  2  0  0  3  0  0  0  0  0  0
  194.7790  172.4170  136.5260 C   0  0  2  0  0  3  0  0  0  0  0  0
  189.5140  171.3640  134.6920 C   0  0  0  0  0  1  0  0  0  0  0  0
  189.7810  172.8640  134.5820 C   0  0  0  0  0  2  0  0  0  0  0  0
  184.1260  178.4180  143.2200 C   0  0  0  0  0  2  0  0  0  0  0  0
  184.5670  178.7150  144.6090 C   0  0  0  0  0  0  0  0  0  0  0  0
  185.7480  178.1070  145.1210 N   0  0  0  0  0  2  0  0  0  0  0  0
  186.2610  178.4290  146.4350 C   0  0  0  0  0  1  0  0  0  0  0  0
  183.9240  179.5460  145.3000 O   0  0  0  0  0  0  0  0  0  0  0  0
  1  2  2  0  0  0  0
  2  5  1  0  0  0  0
  2 42  1  0  0  0  0
  3  4  2  0  0  0  0
  4  7  1  0  0  0  0
  4  5  1  0  0  0  0
  6 11  1  0  0  0  0
  8 12  1  0  0  0  0
  9 14  1  0  0  0  0
  9  7  2  0  0  0  0
 10  8  2  0  0  0  0
 11 12  2  0  0  0  0
 12 16  1  0  0  0  0
 13  7  1  1  0  0  0
 13 10  1  0  0  0  0
 14 15  2  0  0  0  0
 15 13  1  0  0  0  0
 15 11  1  0  0  0  0
 16 17  1  0  0  0  0
 17 19  1  0  0  0  0
 17 18  2  0  0  0  0
 20 22  1  0  0  0  0
 21 20  2  0  0  0  0
 22  3  1  0  0  0  0
 23 24  1  0  0  0  0
 23 20  1  0  0  0  0
 25 24  1  0  0  0  0
 26 25  1  0  0  0  0
 26 27  2  0  0  0  0
 28 30  1  0  0  0  0
 29 26  1  1  0  0  0
 30 41  1  6  0  0  0
 30 29  1  0  0  0  0
 31 29  1  0  0  0  0
 32 28  1  1  0  0  0
 32 31  1  0  0  0  0
 33 35  1  1  0  0  0
 33 37  1  0  0  0  0
 34 37  1  0  0  0  0
 38 32  1  6  0  0  0
 38 33  1  0  0  0  0
 39 36  1  6  0  0  0
 39 38  1  0  0  0  0
 39 34  1  0  0  0  0
 41 40  1  0  0  0  0
 42 43  1  0  0  0  0
 43 44  1  0  0  0  0
 43 46  2  0  0  0  0
 44 45  1  0  0  0  0
M  END
>  <MODEL>
1

>  <REMARK>
 VINA RESULT:      -8.4      0.000      0.000
  Name = 
  13 active torsions:
  status: ('A' for Active; 'I' for Inactive)
    1  A    between atoms: C_2  and  C_28
    2  A    between atoms: C_2  and  O_34
    3  A    between atoms: O_3  and  C_5
    4  A    between atoms: O_3  and  C_38
    5  A    between atoms: C_7  and  C_11
    6  A    between atoms: C_7  and  N_43
    7  A    between atoms: C_10  and  C_27
    8  A    between atoms: C_12  and  C_36
    9  A    between atoms: C_13  and  C_36
   10  A    between atoms: N_17  and  N_42
   11  A    between atoms: C_25  and  C_33
   12  A    between atoms: C_30  and  C_35
   13  A    between atoms: O_34  and  N_43
                            x       y       z     vdW  Elec       q    Type
                         _______ _______ _______ _____ _____    ______ ____

>  <TORSDO>
F 13

$$$$
=
 OpenBabel10232411373D

 46 49  0  0  1  0  0  0  0  0999 V2000
  185.0740  179.6050  141.6110 O   0  0  0  0  0  0  0  0  0  0  0  0
  185.2280  178.7590  142.5360 C   0  0  0  0  0  0  0  0  0  0  0  0
  187.5350  178.8270  140.7280 N   0  0  0  0  0  0  0  0  0  0  0  0
  187.6060  178.1540  141.8360 C   0  0  0  0  0  0  0  0  0  0  0  0
  186.4750  178.0780  142.7110 N   0  0  0  0  0  2  0  0  0  0  0  0
  192.3360  175.4230  144.3580 F   0  0  0  0  0  0  0  0  0  0  0  0
  188.8050  177.3750  142.1970 C   0  0  0  0  0  0  0  0  0  0  0  0
  190.0650  178.1000  145.5000 C   0  0  0  0  0  3  0  0  0  0  0  0
  189.4000  176.2640  141.3840 C   0  0  0  0  0  3  0  0  0  0  0  0
  189.2670  178.2240  144.4010 N   0  0  0  0  0  0  0  0  0  0  0  0
  191.2980  176.2950  144.4250 C   0  0  0  0  0  0  0  0  0  0  0  0
  191.0960  177.1390  145.5460 C   0  0  0  0  0  0  0  0  0  0  0  0
  189.4800  177.4140  143.3330 C   0  0  1  0  0  3  0  0  0  0  0  0
  190.4770  175.7620  142.2440 N   0  0  0  0  0  0  0  0  0  0  0  0
  190.4530  176.4560  143.3280 C   0  0  0  0  0  0  0  0  0  0  0  0
  191.9110  177.1020  146.6850 O   0  0  0  0  0  0  0  0  0  0  0  0
  192.0210  176.0250  147.5690 C   0  0  0  0  0  0  0  0  0  0  0  0
  192.9820  175.9350  148.3760 O   0  0  0  0  0  0  0  0  0  0  0  0
  191.1170  175.0140  147.4990 F   0  0  0  0  0  0  0  0  0  0  0  0
  188.3030  178.5460  138.4050 C   0  0  0  0  0  0  0  0  0  0  0  0
  187.1180  178.4350  137.9940 O   0  0  0  0  0  0  0  0  0  0  0  0
  188.5640  178.8330  139.7760 N   0  0  0  0  0  2  0  0  0  0  0  0
  189.4350  178.3060  137.4710 C   0  0  0  0  0  2  0  0  0  0  0  0
  188.9320  178.2880  136.1050 N   0  0  0  0  0  2  0  0  0  0  0  0
  189.3140  177.0880  135.5450 O   0  0  0  0  0  0  0  0  0  0  0  0
  188.4170  176.0240  135.4240 C   0  0  0  0  0  0  0  0  0  0  0  0
  187.5870  175.9940  134.4770 O   0  0  0  0  0  0  0  0  0  0  0  0
  187.4080  172.7120  136.4310 C   0  0  0  0  0  2  0  0  0  0  0  0
  188.4170  174.9240  136.4360 C   0  0  2  0  0  3  0  0  0  0  0  0
  188.4570  173.5690  135.7520 C   0  0  1  0  0  3  0  0  0  0  0  0
  187.1540  174.9520  137.2840 C   0  0  0  0  0  2  0  0  0  0  0  0
  186.3690  173.6810  136.9800 C   0  0  1  0  0  3  0  0  0  0  0  0
  184.2190  174.9600  136.3660 C   0  0  1  0  0  3  0  0  0  0  0  0
  183.0090  173.2380  134.6400 S   0  0  0  0  0  0  0  0  0  0  0  0
  184.7700  176.3010  136.4040 N   0  0  0  0  0  1  0  0  0  0  0  0
  184.0710  171.8500  136.7110 C   0  0  0  0  0  1  0  0  0  0  0  0
  183.1170  174.9160  135.3330 C   0  0  0  0  0  2  0  0  0  0  0  0
  185.2680  173.9470  135.9300 C   0  0  2  0  0  3  0  0  0  0  0  0
  184.5010  172.6940  135.5140 C   0  0  2  0  0  3  0  0  0  0  0  0
  190.7870  173.6390  136.7810 C   0  0  0  0  0  1  0  0  0  0  0  0
  189.8450  172.9290  135.8100 C   0  0  0  0  0  2  0  0  0  0  0  0
  184.0850  178.4440  143.4420 C   0  0  0  0  0  2  0  0  0  0  0  0
  184.4700  178.6670  144.8610 C   0  0  0  0  0  0  0  0  0  0  0  0
  185.7740  178.3110  145.3050 N   0  0  0  0  0  2  0  0  0  0  0  0
  186.2210  178.5840  146.6530 C   0  0  0  0  0  1  0  0  0  0  0  0
  183.6570  179.2200  145.6460 O   0  0  0  0  0  0  0  0  0  0  0  0
  1  2  2  0  0  0  0
  2  5  1  0  0  0  0
  2 42  1  0  0  0  0
  3  4  2  0  0  0  0
  4  7  1  0  0  0  0
  4  5  1  0  0  0  0
  6 11  1  0  0  0  0
  8 12  1  0  0  0  0
  9  7  2  0  0  0  0
  9 14  1  0  0  0  0
 10  8  2  0  0  0  0
 11 12  2  0  0  0  0
 12 16  1  0  0  0  0
 13  7  1  1  0  0  0
 13 10  1  0  0  0  0
 14 15  2  0  0  0  0
 15 13  1  0  0  0  0
 15 11  1  0  0  0  0
 16 17  1  0  0  0  0
 17 18  2  0  0  0  0
 19 17  1  0  0  0  0
 20 22  1  0  0  0  0
 21 20  2  0  0  0  0
 22  3  1  0  0  0  0
 23 20  1  0  0  0  0
 24 23  1  0  0  0  0
 25 24  1  0  0  0  0
 26 25  1  0  0  0  0
 27 26  2  0  0  0  0
 29 26  1  6  0  0  0
 29 31  1  0  0  0  0
 30 41  1  1  0  0  0
 30 28  1  0  0  0  0
 30 29  1  0  0  0  0
 32 28  1  6  0  0  0
 32 31  1  0  0  0  0
 33 35  1  6  0  0  0
 34 37  1  0  0  0  0
 34 39  1  0  0  0  0
 37 33  1  0  0  0  0
 38 33  1  0  0  0  0
 38 32  1  1  0  0  0
 39 38  1  0  0  0  0
 39 36  1  1  0  0  0
 41 40  1  0  0  0  0
 42 43  1  0  0  0  0
 43 44  1  0  0  0  0
 43 46  2  0  0  0  0
 44 45  1  0  0  0  0
M  END
>  <MODEL>
2

>  <REMARK>
 VINA RESULT:      -8.4      3.122      4.758
  Name = 
  13 active torsions:
  status: ('A' for Active; 'I' for Inactive)
    1  A    between atoms: C_2  and  C_28
    2  A    between atoms: C_2  and  O_34
    3  A    between atoms: O_3  and  C_5
    4  A    between atoms: O_3  and  C_38
    5  A    between atoms: C_7  and  C_11
    6  A    between atoms: C_7  and  N_43
    7  A    between atoms: C_10  and  C_27
    8  A    between atoms: C_12  and  C_36
    9  A    between atoms: C_13  and  C_36
   10  A    between atoms: N_17  and  N_42
   11  A    between atoms: C_25  and  C_33
   12  A    between atoms: C_30  and  C_35
   13  A    between atoms: O_34  and  N_43
                            x       y       z     vdW  Elec       q    Type
                         _______ _______ _______ _____ _____    ______ ____

>  <TORSDO>
F 13

$$$$
=
 OpenBabel10232411373D

 46 49  0  0  1  0  0  0  0  0999 V2000
  182.4110  173.9480  137.3160 O   0  0  0  0  0  0  0  0  0  0  0  0
  183.0480  173.7070  136.2520 C   0  0  0  0  0  0  0  0  0  0  0  0
  183.9060  176.2230  137.4890 N   0  0  0  0  0  0  0  0  0  0  0  0
  184.5840  175.7290  136.4970 C   0  0  0  0  0  0  0  0  0  0  0  0
  184.1560  174.5220  135.8570 N   0  0  0  0  0  2  0  0  0  0  0  0
  189.9730  177.7500  134.7460 F   0  0  0  0  0  0  0  0  0  0  0  0
  185.7560  176.4260  135.9350 C   0  0  0  0  0  0  0  0  0  0  0  0
  188.9080  175.2120  137.2070 C   0  0  0  0  0  3  0  0  0  0  0  0
  185.7220  177.4350  134.8270 C   0  0  0  0  0  3  0  0  0  0  0  0
  187.5530  175.3190  137.0910 N   0  0  0  0  0  0  0  0  0  0  0  0
  189.2070  176.8950  135.4710 C   0  0  1  0  0  3  0  0  0  0  0  0
  189.7690  175.9900  136.4060 C   0  0  0  0  0  0  0  0  0  0  0  0
  187.0310  176.1970  136.1990 C   0  0  0  0  0  0  0  0  0  0  0  0
  187.1420  177.7060  134.5800 N   0  0  0  0  0  0  0  0  0  0  0  0
  187.8170  176.9630  135.3870 C   0  0  0  0  0  0  0  0  0  0  0  0
  191.1490  175.8680  136.6130 O   0  0  0  0  0  0  0  0  0  0  0  0
  191.8800  176.5150  137.6140 C   0  0  0  0  0  0  0  0  0  0  0  0
  191.3290  176.9190  138.6710 O   0  0  0  0  0  0  0  0  0  0  0  0
  193.1940  176.7870  137.4060 F   0  0  0  0  0  0  0  0  0  0  0  0
  183.4250  177.9810  139.1460 C   0  0  0  0  0  0  0  0  0  0  0  0
  182.5500  177.2640  139.6980 O   0  0  0  0  0  0  0  0  0  0  0  0
  184.2040  177.4630  138.0700 N   0  0  0  0  0  2  0  0  0  0  0  0
  183.5970  179.3960  139.5690 C   0  0  0  0  0  2  0  0  0  0  0  0
  184.8900  179.5450  140.2210 N   0  0  0  0  0  2  0  0  0  0  0  0
  184.9130  178.6730  141.2870 O   0  0  0  0  0  0  0  0  0  0  0  0
  186.0350  178.5610  142.1110 C   0  0  0  0  0  0  0  0  0  0  0  0
  187.1310  179.0800  141.7700 O   0  0  0  0  0  0  0  0  0  0  0  0
  187.1990  177.9770  145.4730 C   0  0  0  0  0  2  0  0  0  0  0  0
  185.9520  177.8000  143.3950 C   0  0  2  0  0  3  0  0  0  0  0  0
  186.2240  178.7130  144.5770 C   0  0  1  0  0  3  0  0  0  0  0  0
  186.9890  176.6880  143.4470 C   0  0  0  0  0  2  0  0  0  0  0  0
  187.9700  177.0290  144.5640 C   0  0  1  0  0  3  0  0  0  0  0  0
  190.0550  176.8560  143.0620 C   0  0  1  0  0  3  0  0  0  0  0  0
  191.7690  178.5940  144.2680 S   0  0  0  0  0  0  0  0  0  0  0  0
  189.3720  176.6570  141.7980 N   0  0  0  0  0  1  0  0  0  0  0  0
  190.4520  177.1610  146.1540 C   0  0  0  0  0  1  0  0  0  0  0  0
  191.3460  177.6000  142.8040 C   0  0  0  0  0  2  0  0  0  0  0  0
  189.2300  177.7230  144.0010 C   0  0  2  0  0  3  0  0  0  0  0  0
  190.1930  178.2140  145.0810 C   0  0  2  0  0  3  0  0  0  0  0  0
  183.6770  178.6900  144.5740 C   0  0  0  0  0  1  0  0  0  0  0  0
  184.9460  179.1030  145.3190 C   0  0  0  0  0  2  0  0  0  0  0  0
  182.6230  172.5710  135.3820 C   0  0  0  0  0  2  0  0  0  0  0  0
  183.3110  171.3170  135.7910 C   0  0  0  0  0  0  0  0  0  0  0  0
  182.7550  170.0570  135.4310 N   0  0  0  0  0  2  0  0  0  0  0  0
  183.4290  168.8130  135.7340 C   0  0  0  0  0  1  0  0  0  0  0  0
  184.4080  171.3810  136.4030 O   0  0  0  0  0  0  0  0  0  0  0  0
  2  1  2  0  0  0  0
  3 22  1  0  0  0  0
  4  3  2  0  0  0  0
  5  2  1  0  0  0  0
  5  4  1  0  0  0  0
  7 13  1  0  0  0  0
  7  4  1  0  0  0  0
  9  7  2  0  0  0  0
 10  8  1  0  0  0  0
 11  6  1  1  0  0  0
 11 12  1  0  0  0  0
 12 16  1  0  0  0  0
 12  8  2  0  0  0  0
 13 10  2  0  0  0  0
 14  9  1  0  0  0  0
 14 15  2  0  0  0  0
 15 11  1  0  0  0  0
 15 13  1  0  0  0  0
 16 17  1  0  0  0  0
 17 18  2  0  0  0  0
 19 17  1  0  0  0  0
 20 23  1  0  0  0  0
 20 21  2  0  0  0  0
 22 20  1  0  0  0  0
 23 24  1  0  0  0  0
 24 25  1  0  0  0  0
 25 26  1  0  0  0  0
 27 26  2  0  0  0  0
 29 26  1  6  0  0  0
 29 31  1  0  0  0  0
 29 30  1  0  0  0  0
 30 41  1  1  0  0  0
 30 28  1  0  0  0  0
 32 31  1  6  0  0  0
 32 28  1  0  0  0  0
 33 35  1  6  0  0  0
 33 38  1  0  0  0  0
 34 39  1  0  0  0  0
 37 33  1  0  0  0  0
 37 34  1  0  0  0  0
 38 32  1  1  0  0  0
 38 39  1  0  0  0  0
 39 36  1  1  0  0  0
 40 41  1  0  0  0  0
 42 43  1  0  0  0  0
 42  2  1  0  0  0  0
 43 46  2  0  0  0  0
 44 45  1  0  0  0  0
 44 43  1  0  0  0  0
M  END
>  <MODEL>
3

>  <REMARK>
 VINA RESULT:      -7.9      4.452      9.283
  Name = 
  13 active torsions:
  status: ('A' for Active; 'I' for Inactive)
    1  A    between atoms: C_2  and  C_28
    2  A    between atoms: C_2  and  O_34
    3  A    between atoms: O_3  and  C_5
    4  A    between atoms: O_3  and  C_38
    5  A    between atoms: C_7  and  C_11
    6  A    between atoms: C_7  and  N_43
    7  A    between atoms: C_10  and  C_27
    8  A    between atoms: C_12  and  C_36
    9  A    between atoms: C_13  and  C_36
   10  A    between atoms: N_17  and  N_42
   11  A    between atoms: C_25  and  C_33
   12  A    between atoms: C_30  and  C_35
   13  A    between atoms: O_34  and  N_43
                            x       y       z     vdW  Elec       q    Type
                         _______ _______ _______ _____ _____    ______ ____

>  <TORSDO>
F 13

$$$$
=
 OpenBabel10232411373D

 46 49  0  0  1  0  0  0  0  0999 V2000
  191.5180  176.2670  144.3070 O   0  0  0  0  0  0  0  0  0  0  0  0
  190.7460  177.1730  144.7290 C   0  0  0  0  0  0  0  0  0  0  0  0
  190.1840  176.4770  141.9370 N   0  0  0  0  0  0  0  0  0  0  0  0
  189.3650  177.2500  142.5850 C   0  0  0  0  0  0  0  0  0  0  0  0
  189.6450  177.6310  143.9360 N   0  0  0  0  0  2  0  0  0  0  0  0
  184.0560  179.6040  141.0160 F   0  0  0  0  0  0  0  0  0  0  0  0
  188.1750  177.8350  141.9400 C   0  0  0  0  0  0  0  0  0  0  0  0
  185.2880  177.9920  144.1000 C   0  0  0  0  0  3  0  0  0  0  0  0
  188.1410  178.4650  140.5800 C   0  0  0  0  0  3  0  0  0  0  0  0
  186.5600  177.6840  143.7180 N   0  0  0  0  0  0  0  0  0  0  0  0
  184.8750  179.0410  141.9400 C   0  0  1  0  0  3  0  0  0  0  0  0
  184.4140  178.6760  143.2300 C   0  0  0  0  0  0  0  0  0  0  0  0
  186.9830  178.0320  142.4760 C   0  0  0  0  0  0  0  0  0  0  0  0
  186.7720  178.9850  140.4880 N   0  0  0  0  0  0  0  0  0  0  0  0
  186.1850  178.7080  141.6000 C   0  0  0  0  0  0  0  0  0  0  0  0
  183.1040  178.9150  143.6670 O   0  0  0  0  0  0  0  0  0  0  0  0
  181.9780  179.0060  142.8450 C   0  0  0  0  0  0  0  0  0  0  0  0
  181.0960  179.8840  143.0360 O   0  0  0  0  0  0  0  0  0  0  0  0
  181.7890  178.0770  141.8720 F   0  0  0  0  0  0  0  0  0  0  0  0
  190.9210  176.6940  139.5970 C   0  0  0  0  0  0  0  0  0  0  0  0
  191.9610  177.3090  139.9490 O   0  0  0  0  0  0  0  0  0  0  0  0
  190.0270  176.1740  140.5780 N   0  0  0  0  0  2  0  0  0  0  0  0
  190.5870  176.5730  138.1540 C   0  0  0  0  0  2  0  0  0  0  0  0
  189.9030  177.7820  137.7180 N   0  0  0  0  0  2  0  0  0  0  0  0
  188.6350  177.4150  137.3220 O   0  0  0  0  0  0  0  0  0  0  0  0
  187.6900  178.3670  136.9370 C   0  0  0  0  0  0  0  0  0  0  0  0
  187.9390  179.5970  137.0530 O   0  0  0  0  0  0  0  0  0  0  0  0
  185.0010  175.9660  136.8440 C   0  0  0  0  0  2  0  0  0  0  0  0
  186.3600  177.9340  136.4090 C   0  0  2  0  0  3  0  0  0  0  0  0
  185.5640  177.2170  137.4860 C   0  0  1  0  0  3  0  0  0  0  0  0
  186.5140  176.9580  135.2510 C   0  0  0  0  0  2  0  0  0  0  0  0
  185.9490  175.6170  135.7050 C   0  0  1  0  0  3  0  0  0  0  0  0
  188.0280  174.2140  135.1160 C   0  0  1  0  0  3  0  0  0  0  0  0
  187.9570  172.2680  137.0170 S   0  0  0  0  0  0  0  0  0  0  0  0
  188.8760  175.3000  134.6600 N   0  0  0  0  0  1  0  0  0  0  0  0
  185.4490  172.7360  136.1020 C   0  0  0  0  0  1  0  0  0  0  0  0
  188.9000  173.1440  135.7320 C   0  0  0  0  0  2  0  0  0  0  0  0
  187.0750  174.6830  136.2050 C   0  0  2  0  0  3  0  0  0  0  0  0
  186.5620  173.4190  136.8930 C   0  0  2  0  0  3  0  0  0  0  0  0
  183.2850  177.2940  138.6200 C   0  0  0  0  0  1  0  0  0  0  0  0
  184.4670  178.0990  138.0830 C   0  0  0  0  0  2  0  0  0  0  0  0
  190.9990  177.7930  146.0630 C   0  0  0  0  0  2  0  0  0  0  0  0
  190.0440  177.2630  147.0730 C   0  0  0  0  0  0  0  0  0  0  0  0
  189.0340  178.1120  147.6050 N   0  0  0  0  0  2  0  0  0  0  0  0
  188.0340  177.6200  148.5270 C   0  0  0  0  0  1  0  0  0  0  0  0
  190.1030  176.0510  147.4070 O   0  0  0  0  0  0  0  0  0  0  0  0
  1  2  2  0  0  0  0
  2 42  1  0  0  0  0
  3  4  2  0  0  0  0
  4  5  1  0  0  0  0
  5  2  1  0  0  0  0
  7 13  1  0  0  0  0
  7  4  1  0  0  0  0
  9  7  2  0  0  0  0
 10  8  1  0  0  0  0
 11  6  1  6  0  0  0
 11 12  1  0  0  0  0
 12 16  1  0  0  0  0
 12  8  2  0  0  0  0
 13 10  2  0  0  0  0
 14  9  1  0  0  0  0
 14 15  2  0  0  0  0
 15 11  1  0  0  0  0
 15 13  1  0  0  0  0
 17 18  2  0  0  0  0
 17 16  1  0  0  0  0
 19 17  1  0  0  0  0
 20 21  2  0  0  0  0
 20 22  1  0  0  0  0
 22  3  1  0  0  0  0
 23 20  1  0  0  0  0
 24 23  1  0  0  0  0
 25 24  1  0  0  0  0
 26 27  2  0  0  0  0
 26 25  1  0  0  0  0
 28 30  1  0  0  0  0
 29 26  1  1  0  0  0
 29 30  1  0  0  0  0
 30 41  1  6  0  0  0
 31 29  1  0  0  0  0
 32 31  1  1  0  0  0
 32 28  1  0  0  0  0
 33 35  1  1  0  0  0
 33 37  1  0  0  0  0
 33 38  1  0  0  0  0
 37 34  1  0  0  0  0
 38 32  1  6  0  0  0
 38 39  1  0  0  0  0
 39 36  1  6  0  0  0
 39 34  1  0  0  0  0
 41 40  1  0  0  0  0
 42 43  1  0  0  0  0
 43 46  2  0  0  0  0
 43 44  1  0  0  0  0
 44 45  1  0  0  0  0
M  END
>  <MODEL>
4

>  <REMARK>
 VINA RESULT:      -7.9      3.541      6.663
  Name = 
  13 active torsions:
  status: ('A' for Active; 'I' for Inactive)
    1  A    between atoms: C_2  and  C_28
    2  A    between atoms: C_2  and  O_34
    3  A    between atoms: O_3  and  C_5
    4  A    between atoms: O_3  and  C_38
    5  A    between atoms: C_7  and  C_11
    6  A    between atoms: C_7  and  N_43
    7  A    between atoms: C_10  and  C_27
    8  A    between atoms: C_12  and  C_36
    9  A    between atoms: C_13  and  C_36
   10  A    between atoms: N_17  and  N_42
   11  A    between atoms: C_25  and  C_33
   12  A    between atoms: C_30  and  C_35
   13  A    between atoms: O_34  and  N_43
                            x       y       z     vdW  Elec       q    Type
                         _______ _______ _______ _____ _____    ______ ____

>  <TORSDO>
F 13

$$$$
=
 OpenBabel10232411373D

 46 49  0  0  1  0  0  0  0  0999 V2000
  186.2530  178.6050  146.7110 O   0  0  0  0  0  0  0  0  0  0  0  0
  187.3260  177.9500  146.8330 C   0  0  0  0  0  0  0  0  0  0  0  0
  186.3870  177.9930  144.0560 N   0  0  0  0  0  0  0  0  0  0  0  0
  187.5680  177.5280  144.3280 C   0  0  0  0  0  0  0  0  0  0  0  0
  188.0270  177.4640  145.6830 N   0  0  0  0  0  2  0  0  0  0  0  0
  190.8680  176.2140  139.4730 F   0  0  0  0  0  0  0  0  0  0  0  0
  188.4440  176.9710  143.2800 C   0  0  0  0  0  0  0  0  0  0  0  0
  188.3290  178.8010  140.1720 C   0  0  0  0  0  3  0  0  0  0  0  0
  189.4270  175.8550  143.4690 C   0  0  0  0  0  2  0  0  0  0  0  0
  187.9930  178.4680  141.4510 N   0  0  0  0  0  0  0  0  0  0  0  0
  189.9790  177.0090  140.1200 C   0  0  0  0  0  0  0  0  0  0  0  0
  189.3250  178.0870  139.4740 C   0  0  0  0  0  0  0  0  0  0  0  0
  188.6210  177.4260  142.0520 C   0  0  0  0  0  0  0  0  0  0  0  0
  190.1080  175.7880  142.1710 N   0  0  0  0  0  0  0  0  0  0  0  0
  189.6030  176.7120  141.4290 C   0  0  0  0  0  0  0  0  0  0  0  0
  189.5840  178.4490  138.1450 O   0  0  0  0  0  0  0  0  0  0  0  0
  188.7120  178.2620  137.0690 C   0  0  0  0  0  0  0  0  0  0  0  0
  187.9440  179.1800  136.6800 O   0  0  0  0  0  0  0  0  0  0  0  0
  188.6330  177.0390  136.4840 F   0  0  0  0  0  0  0  0  0  0  0  0
  184.7430  178.8050  142.4110 C   0  0  0  0  0  0  0  0  0  0  0  0
  184.3490  179.7020  143.2010 O   0  0  0  0  0  0  0  0  0  0  0  0
  185.8370  177.9640  142.7670 N   0  0  0  0  0  2  0  0  0  0  0  0
  184.0180  178.5740  141.1330 C   0  0  0  0  0  2  0  0  0  0  0  0
  184.4760  179.5380  140.1430 N   0  0  0  0  0  2  0  0  0  0  0  0
  183.7960  179.2790  138.9740 O   0  0  0  0  0  0  0  0  0  0  0  0
  184.0720  178.1430  138.2090 C   0  0  0  0  0  0  0  0  0  0  0  0
  185.2570  177.8660  137.8840 O   0  0  0  0  0  0  0  0  0  0  0  0
  182.5820  174.8700  137.9560 C   0  0  0  0  0  2  0  0  0  0  0  0
  182.9580  177.2620  137.7440 C   0  0  2  0  0  3  0  0  0  0  0  0
  182.6960  176.1550  138.7500 C   0  0  1  0  0  3  0  0  0  0  0  0
  183.2990  176.5860  136.4240 C   0  0  0  0  0  2  0  0  0  0  0  0
  183.3950  175.0880  136.6880 C   0  0  1  0  0  3  0  0  0  0  0  0
  185.6950  174.6050  135.6320 C   0  0  1  0  0  3  0  0  0  0  0  0
  186.7300  172.7620  137.3460 S   0  0  0  0  0  0  0  0  0  0  0  0
  185.9640  175.9390  135.1280 N   0  0  0  0  0  1  0  0  0  0  0  0
  184.1060  172.2340  136.9220 C   0  0  0  0  0  1  0  0  0  0  0  0
  187.0070  173.9480  135.9950 C   0  0  0  0  0  2  0  0  0  0  0  0
  184.8630  174.6570  136.9050 C   0  0  2  0  0  3  0  0  0  0  0  0
  185.0080  173.2850  137.5620 C   0  0  2  0  0  3  0  0  0  0  0  0
  180.4900  175.2310  139.6270 C   0  0  0  0  0  1  0  0  0  0  0  0
  181.4510  176.4190  139.5970 C   0  0  0  0  0  2  0  0  0  0  0  0
  187.8570  177.6560  148.1960 C   0  0  0  0  0  2  0  0  0  0  0  0
  189.3440  177.6150  148.1780 C   0  0  0  0  0  0  0  0  0  0  0  0
  190.0140  176.5780  147.4710 N   0  0  0  0  0  2  0  0  0  0  0  0
  191.4560  176.5440  147.3560 C   0  0  0  0  0  1  0  0  0  0  0  0
  189.9960  178.5320  148.7410 O   0  0  0  0  0  0  0  0  0  0  0  0
  1  2  2  0  0  0  0
  2 42  1  0  0  0  0
  3  4  2  0  0  0  0
  4  5  1  0  0  0  0
  5  2  1  0  0  0  0
  6 11  1  0  0  0  0
  7  9  1  0  0  0  0
  7  4  1  0  0  0  0
  8 10  2  0  0  0  0
 10 13  1  0  0  0  0
 11 15  1  0  0  0  0
 12 11  2  0  0  0  0
 12  8  1  0  0  0  0
 13  7  2  0  0  0  0
 14  9  1  0  0  0  0
 15 13  1  0  0  0  0
 15 14  2  0  0  0  0
 16 12  1  0  0  0  0
 17 16  1  0  0  0  0
 18 17  2  0  0  0  0
 19 17  1  0  0  0  0
 20 22  1  0  0  0  0
 20 21  2  0  0  0  0
 22  3  1  0  0  0  0
 23 20  1  0  0  0  0
 24 23  1  0  0  0  0
 25 24  1  0  0  0  0
 26 25  1  0  0  0  0
 27 26  2  0  0  0  0
 28 30  1  0  0  0  0
 29 26  1  1  0  0  0
 29 30  1  0  0  0  0
 30 41  1  6  0  0  0
 31 29  1  0  0  0  0
 32 31  1  1  0  0  0
 32 28  1  0  0  0  0
 33 35  1  1  0  0  0
 33 37  1  0  0  0  0
 33 38  1  0  0  0  0
 34 39  1  0  0  0  0
 37 34  1  0  0  0  0
 38 32  1  6  0  0  0
 38 39  1  0  0  0  0
 39 36  1  6  0  0  0
 41 40  1  0  0  0  0
 43 42  1  0  0  0  0
 43 46  2  0  0  0  0
 44 43  1  0  0  0  0
 45 44  1  0  0  0  0
M  END
>  <MODEL>
5

>  <REMARK>
 VINA RESULT:      -7.7      4.038      7.404
  Name = 
  13 active torsions:
  status: ('A' for Active; 'I' for Inactive)
    1  A    between atoms: C_2  and  C_28
    2  A    between atoms: C_2  and  O_34
    3  A    between atoms: O_3  and  C_5
    4  A    between atoms: O_3  and  C_38
    5  A    between atoms: C_7  and  C_11
    6  A    between atoms: C_7  and  N_43
    7  A    between atoms: C_10  and  C_27
    8  A    between atoms: C_12  and  C_36
    9  A    between atoms: C_13  and  C_36
   10  A    between atoms: N_17  and  N_42
   11  A    between atoms: C_25  and  C_33
   12  A    between atoms: C_30  and  C_35
   13  A    between atoms: O_34  and  N_43
                            x       y       z     vdW  Elec       q    Type
                         _______ _______ _______ _____ _____    ______ ____

>  <TORSDO>
F 13

$$$$
=
 OpenBabel10232411373D

 46 49  0  0  1  0  0  0  0  0999 V2000
  187.2720  177.4180  146.8410 O   0  0  0  0  0  0  0  0  0  0  0  0
  188.2880  177.2860  146.1020 C   0  0  0  0  0  0  0  0  0  0  0  0
  185.8780  177.8940  144.5450 N   0  0  0  0  0  0  0  0  0  0  0  0
  187.0410  177.9140  143.9660 C   0  0  0  0  0  0  0  0  0  0  0  0
  188.2230  177.5820  144.7020 N   0  0  0  0  0  2  0  0  0  0  0  0
  188.5260  178.3090  138.1490 F   0  0  0  0  0  0  0  0  0  0  0  0
  187.1850  178.1890  142.5240 C   0  0  0  0  0  0  0  0  0  0  0  0
  190.2040  176.8300  141.0870 C   0  0  0  0  0  3  0  0  0  0  0  0
  186.1470  178.8250  141.6500 C   0  0  0  0  0  3  0  0  0  0  0  0
  189.3060  177.1490  142.0620 N   0  0  0  0  0  0  0  0  0  0  0  0
  188.7700  177.8570  139.4060 C   0  0  1  0  0  3  0  0  0  0  0  0
  189.9650  177.1720  139.7390 C   0  0  0  0  0  0  0  0  0  0  0  0
  188.1710  177.8140  141.7280 C   0  0  0  0  0  0  0  0  0  0  0  0
  186.7440  178.7450  140.3120 N   0  0  0  0  0  0  0  0  0  0  0  0
  187.8810  178.1550  140.4380 C   0  0  0  0  0  0  0  0  0  0  0  0
  190.9540  176.8610  138.7970 O   0  0  0  0  0  0  0  0  0  0  0  0
  190.8700  175.8490  137.8360 C   0  0  0  0  0  0  0  0  0  0  0  0
  191.7820  175.6740  136.9870 O   0  0  0  0  0  0  0  0  0  0  0  0
  189.7440  175.0940  137.7640 F   0  0  0  0  0  0  0  0  0  0  0  0
  183.5530  178.7030  144.4680 C   0  0  0  0  0  0  0  0  0  0  0  0
  183.6660  179.2290  145.6050 O   0  0  0  0  0  0  0  0  0  0  0  0
  184.6780  178.0860  143.8470 N   0  0  0  0  0  2  0  0  0  0  0  0
  182.2260  178.6620  143.7990 C   0  0  0  0  0  2  0  0  0  0  0  0
  182.4110  178.7910  142.3610 N   0  0  0  0  0  2  0  0  0  0  0  0
  181.1970  179.1630  141.8240 O   0  0  0  0  0  0  0  0  0  0  0  0
  180.8650  178.8630  140.5020 C   0  0  0  0  0  0  0  0  0  0  0  0
  180.0360  177.9500  140.2430 O   0  0  0  0  0  0  0  0  0  0  0  0
  181.2850  179.4250  136.9650 C   0  0  0  0  0  2  0  0  0  0  0  0
  181.5140  179.6050  139.3780 C   0  0  2  0  0  3  0  0  0  0  0  0
  180.5390  179.7970  138.2300 C   0  0  1  0  0  3  0  0  0  0  0  0
  182.7050  178.8380  138.8220 C   0  0  0  0  0  2  0  0  0  0  0  0
  182.3640  178.4390  137.3900 C   0  0  1  0  0  3  0  0  0  0  0  0
  182.7670  175.9520  137.9270 C   0  0  1  0  0  3  0  0  0  0  0  0
  181.3200  174.7110  135.9840 S   0  0  0  0  0  0  0  0  0  0  0  0
  182.8280  176.0700  139.3710 N   0  0  0  0  0  1  0  0  0  0  0  0
  182.6250  176.8370  134.9260 C   0  0  0  0  0  1  0  0  0  0  0  0
  182.1960  174.5970  137.5730 C   0  0  0  0  0  2  0  0  0  0  0  0
  181.8290  176.9910  137.3310 C   0  0  2  0  0  3  0  0  0  0  0  0
  181.5100  176.5130  135.9160 C   0  0  2  0  0  3  0  0  0  0  0  0
  181.0600  182.2680  137.8970 C   0  0  0  0  0  1  0  0  0  0  0  0
  179.9830  181.2200  138.1700 C   0  0  0  0  0  2  0  0  0  0  0  0
  189.5660  176.7910  146.6890 C   0  0  0  0  0  2  0  0  0  0  0  0
  190.7170  177.1640  145.8240 C   0  0  0  0  0  0  0  0  0  0  0  0
  190.6120  178.2850  144.9530 N   0  0  0  0  0  2  0  0  0  0  0  0
  191.7310  178.7360  144.1540 C   0  0  0  0  0  1  0  0  0  0  0  0
  191.7930  176.5190  145.9090 O   0  0  0  0  0  0  0  0  0  0  0  0
  2 42  1  0  0  0  0
  2  1  2  0  0  0  0
  4  3  2  0  0  0  0
  4  5  1  0  0  0  0
  5  2  1  0  0  0  0
  7  4  1  0  0  0  0
  8 10  1  0  0  0  0
  9  7  2  0  0  0  0
 11  6  1  1  0  0  0
 11 12  1  0  0  0  0
 11 15  1  0  0  0  0
 12  8  2  0  0  0  0
 13 10  2  0  0  0  0
 13  7  1  0  0  0  0
 14 15  2  0  0  0  0
 14  9  1  0  0  0  0
 15 13  1  0  0  0  0
 16 12  1  0  0  0  0
 17 16  1  0  0  0  0
 18 17  2  0  0  0  0
 19 17  1  0  0  0  0
 20 21  2  0  0  0  0
 22 20  1  0  0  0  0
 22  3  1  0  0  0  0
 23 20  1  0  0  0  0
 24 23  1  0  0  0  0
 25 24  1  0  0  0  0
 26 25  1  0  0  0  0
 27 26  2  0  0  0  0
 28 30  1  0  0  0  0
 29 26  1  1  0  0  0
 30 41  1  6  0  0  0
 30 29  1  0  0  0  0
 31 29  1  0  0  0  0
 32 28  1  1  0  0  0
 32 31  1  0  0  0  0
 33 35  1  1  0  0  0
 34 37  1  0  0  0  0
 37 33  1  0  0  0  0
 38 32  1  6  0  0  0
 38 33  1  0  0  0  0
 39 36  1  6  0  0  0
 39 34  1  0  0  0  0
 39 38  1  0  0  0  0
 40 41  1  0  0  0  0
 43 46  2  0  0  0  0
 43 42  1  0  0  0  0
 44 43  1  0  0  0  0
 45 44  1  0  0  0  0
M  END
>  <MODEL>
6

>  <REMARK>
 VINA RESULT:      -7.4      4.586      9.208
  Name = 
  13 active torsions:
  status: ('A' for Active; 'I' for Inactive)
    1  A    between atoms: C_2  and  C_28
    2  A    between atoms: C_2  and  O_34
    3  A    between atoms: O_3  and  C_5
    4  A    between atoms: O_3  and  C_38
    5  A    between atoms: C_7  and  C_11
    6  A    between atoms: C_7  and  N_43
    7  A    between atoms: C_10  and  C_27
    8  A    between atoms: C_12  and  C_36
    9  A    between atoms: C_13  and  C_36
   10  A    between atoms: N_17  and  N_42
   11  A    between atoms: C_25  and  C_33
   12  A    between atoms: C_30  and  C_35
   13  A    between atoms: O_34  and  N_43
                            x       y       z     vdW  Elec       q    Type
                         _______ _______ _______ _____ _____    ______ ____

>  <TORSDO>
F 13

$$$$
=
 OpenBabel10232411373D

 46 49  0  0  1  0  0  0  0  0999 V2000
  186.5100  173.1810  136.7290 O   0  0  0  0  0  0  0  0  0  0  0  0
  187.1110  173.1510  135.6180 C   0  0  0  0  0  0  0  0  0  0  0  0
  188.3150  175.0930  137.4560 N   0  0  0  0  0  0  0  0  0  0  0  0
  188.9200  174.7970  136.3460 C   0  0  0  0  0  0  0  0  0  0  0  0
  188.3270  173.8810  135.4200 N   0  0  0  0  0  2  0  0  0  0  0  0
  194.5650  176.6550  135.4090 F   0  0  0  0  0  0  0  0  0  0  0  0
  190.1830  175.4490  135.9520 C   0  0  0  0  0  0  0  0  0  0  0  0
  193.0600  174.2510  137.7730 C   0  0  0  0  0  3  0  0  0  0  0  0
  190.3510  176.4060  134.8110 C   0  0  0  0  0  3  0  0  0  0  0  0
  191.7440  174.3720  137.4340 N   0  0  0  0  0  0  0  0  0  0  0  0
  193.6730  175.8470  136.0370 C   0  0  1  0  0  3  0  0  0  0  0  0
  194.0560  174.9780  137.0890 C   0  0  0  0  0  0  0  0  0  0  0  0
  191.3930  175.2150  136.4300 C   0  0  0  0  0  0  0  0  0  0  0  0
  191.7980  176.6440  134.7860 N   0  0  0  0  0  0  0  0  0  0  0  0
  192.3170  175.9310  135.7250 C   0  0  0  0  0  0  0  0  0  0  0  0
  195.3820  174.8460  137.5240 O   0  0  0  0  0  0  0  0  0  0  0  0
  195.7860  174.2710  138.7320 C   0  0  0  0  0  0  0  0  0  0  0  0
  196.0160  173.0370  138.8260 O   0  0  0  0  0  0  0  0  0  0  0  0
  195.8510  175.0440  139.8460 F   0  0  0  0  0  0  0  0  0  0  0  0
  188.0660  177.2880  138.5460 C   0  0  0  0  0  0  0  0  0  0  0  0
  186.9150  177.4340  138.0580 O   0  0  0  0  0  0  0  0  0  0  0  0
  188.7850  176.0740  138.3400 N   0  0  0  0  0  2  0  0  0  0  0  0
  188.7060  178.4110  139.2800 C   0  0  0  0  0  2  0  0  0  0  0  0
  187.7000  179.0940  140.0800 N   0  0  0  0  0  2  0  0  0  0  0  0
  187.3140  178.2260  141.0790 O   0  0  0  0  0  0  0  0  0  0  0  0
  186.3030  178.5610  141.9810 C   0  0  0  0  0  0  0  0  0  0  0  0
  185.5430  179.5400  141.7540 O   0  0  0  0  0  0  0  0  0  0  0  0
  187.2840  177.8650  145.3810 C   0  0  0  0  0  2  0  0  0  0  0  0
  186.1320  177.7770  143.2420 C   0  0  2  0  0  3  0  0  0  0  0  0
  186.3800  178.6540  144.4560 C   0  0  1  0  0  3  0  0  0  0  0  0
  187.1260  176.6270  143.3190 C   0  0  0  0  0  2  0  0  0  0  0  0
  188.0630  176.9090  144.4880 C   0  0  1  0  0  3  0  0  0  0  0  0
  190.3190  176.6210  143.2770 C   0  0  1  0  0  3  0  0  0  0  0  0
  191.8470  178.5370  144.4620 S   0  0  0  0  0  0  0  0  0  0  0  0
  189.7970  176.2550  141.9730 N   0  0  0  0  0  1  0  0  0  0  0  0
  190.3310  177.2970  146.3350 C   0  0  0  0  0  1  0  0  0  0  0  0
  191.6200  177.3660  143.0880 C   0  0  0  0  0  2  0  0  0  0  0  0
  189.3730  177.5680  144.0000 C   0  0  2  0  0  3  0  0  0  0  0  0
  190.1900  178.2100  145.1200 C   0  0  2  0  0  3  0  0  0  0  0  0
  183.8410  178.7860  144.3030 C   0  0  0  0  0  1  0  0  0  0  0  0
  185.0820  179.0750  145.1460 C   0  0  0  0  0  2  0  0  0  0  0  0
  186.5330  172.3650  134.4900 C   0  0  0  0  0  2  0  0  0  0  0  0
  186.5460  170.9120  134.8070 C   0  0  0  0  0  0  0  0  0  0  0  0
  187.7840  170.2140  134.8720 N   0  0  0  0  0  2  0  0  0  0  0  0
  187.8530  168.8210  135.2570 C   0  0  0  0  0  1  0  0  0  0  0  0
  185.4650  170.3240  135.0700 O   0  0  0  0  0  0  0  0  0  0  0  0
  2  1  2  0  0  0  0
  3 22  1  0  0  0  0
  4  3  2  0  0  0  0
  5  2  1  0  0  0  0
  5  4  1  0  0  0  0
  7  4  1  0  0  0  0
  7 13  1  0  0  0  0
  9  7  2  0  0  0  0
 10  8  1  0  0  0  0
 11  6  1  1  0  0  0
 11 12  1  0  0  0  0
 12 16  1  0  0  0  0
 12  8  2  0  0  0  0
 13 10  2  0  0  0  0
 14  9  1  0  0  0  0
 14 15  2  0  0  0  0
 15 11  1  0  0  0  0
 15 13  1  0  0  0  0
 16 17  1  0  0  0  0
 17 18  2  0  0  0  0
 17 19  1  0  0  0  0
 20 23  1  0  0  0  0
 21 20  2  0  0  0  0
 22 20  1  0  0  0  0
 23 24  1  0  0  0  0
 24 25  1  0  0  0  0
 25 26  1  0  0  0  0
 27 26  2  0  0  0  0
 29 26  1  6  0  0  0
 29 31  1  0  0  0  0
 29 30  1  0  0  0  0
 30 41  1  1  0  0  0
 30 28  1  0  0  0  0
 32 31  1  6  0  0  0
 32 28  1  0  0  0  0
 33 35  1  6  0  0  0
 33 38  1  0  0  0  0
 34 39  1  0  0  0  0
 37 33  1  0  0  0  0
 37 34  1  0  0  0  0
 38 32  1  1  0  0  0
 38 39  1  0  0  0  0
 39 36  1  1  0  0  0
 40 41  1  0  0  0  0
 42 43  1  0  0  0  0
 42  2  1  0  0  0  0
 43 44  1  0  0  0  0
 43 46  2  0  0  0  0
 44 45  1  0  0  0  0
M  END
>  <MODEL>
7

>  <REMARK>
 VINA RESULT:      -7.4      3.455      9.180
  Name = 
  13 active torsions:
  status: ('A' for Active; 'I' for Inactive)
    1  A    between atoms: C_2  and  C_28
    2  A    between atoms: C_2  and  O_34
    3  A    between atoms: O_3  and  C_5
    4  A    between atoms: O_3  and  C_38
    5  A    between atoms: C_7  and  C_11
    6  A    between atoms: C_7  and  N_43
    7  A    between atoms: C_10  and  C_27
    8  A    between atoms: C_12  and  C_36
    9  A    between atoms: C_13  and  C_36
   10  A    between atoms: N_17  and  N_42
   11  A    between atoms: C_25  and  C_33
   12  A    between atoms: C_30  and  C_35
   13  A    between atoms: O_34  and  N_43
                            x       y       z     vdW  Elec       q    Type
                         _______ _______ _______ _____ _____    ______ ____

>  <TORSDO>
F 13

$$$$
=
 OpenBabel10232411373D

 46 49  0  0  1  0  0  0  0  0999 V2000
  183.8940  178.4840  139.7360 O   0  0  0  0  0  0  0  0  0  0  0  0
  183.1910  178.2650  140.7620 C   0  0  0  0  0  0  0  0  0  0  0  0
  186.0360  178.5170  141.4250 N   0  0  0  0  0  0  0  0  0  0  0  0
  185.1550  178.4800  142.3780 C   0  0  0  0  0  0  0  0  0  0  0  0
  183.7650  178.3190  142.0730 N   0  0  0  0  0  2  0  0  0  0  0  0
  187.7330  178.1400  147.8030 F   0  0  0  0  0  0  0  0  0  0  0  0
  185.5460  178.5130  143.7990 C   0  0  0  0  0  0  0  0  0  0  0  0
  188.6170  176.7520  144.4980 C   0  0  0  0  0  3  0  0  0  0  0  0
  184.8670  179.3110  144.8710 C   0  0  0  0  0  2  0  0  0  0  0  0
  187.5670  177.2070  143.7570 N   0  0  0  0  0  0  0  0  0  0  0  0
  187.7390  177.8820  146.4700 C   0  0  0  0  0  0  0  0  0  0  0  0
  188.7350  177.0740  145.8660 C   0  0  0  0  0  0  0  0  0  0  0  0
  186.6170  177.9710  144.3530 C   0  0  0  0  0  0  0  0  0  0  0  0
  185.7190  179.0850  146.0440 N   0  0  0  0  0  0  0  0  0  0  0  0
  186.6890  178.3260  145.6690 C   0  0  0  0  0  0  0  0  0  0  0  0
  189.8110  176.5300  146.5790 O   0  0  0  0  0  0  0  0  0  0  0  0
  191.1450  176.9320  146.4680 C   0  0  0  0  0  0  0  0  0  0  0  0
  191.9600  176.7710  147.4140 O   0  0  0  0  0  0  0  0  0  0  0  0
  191.5500  177.5870  145.3490 F   0  0  0  0  0  0  0  0  0  0  0  0
  188.3540  178.2320  140.6410 C   0  0  0  0  0  0  0  0  0  0  0  0
  187.9660  178.0740  139.4540 O   0  0  0  0  0  0  0  0  0  0  0  0
  187.4160  178.5460  141.6680 N   0  0  0  0  0  2  0  0  0  0  0  0
  189.7840  178.0200  140.9860 C   0  0  0  0  0  2  0  0  0  0  0  0
  190.1500  176.6440  140.6820 N   0  0  0  0  0  2  0  0  0  0  0  0
  191.1320  176.6860  139.7160 O   0  0  0  0  0  0  0  0  0  0  0  0
  190.9820  176.0190  138.4980 C   0  0  0  0  0  0  0  0  0  0  0  0
  190.2900  174.9690  138.4270 O   0  0  0  0  0  0  0  0  0  0  0  0
  192.7760  175.3930  135.4340 C   0  0  0  0  0  2  0  0  0  0  0  0
  191.6660  176.5320  137.2720 C   0  0  2  0  0  3  0  0  0  0  0  0
  191.4300  175.5980  136.0980 C   0  0  1  0  0  3  0  0  0  0  0  0
  193.1720  176.6170  137.4720 C   0  0  0  0  0  2  0  0  0  0  0  0
  193.8180  175.6140  136.5220 C   0  0  1  0  0  3  0  0  0  0  0  0
  195.4400  174.2940  138.0260 C   0  0  1  0  0  3  0  0  0  0  0  0
  194.9850  171.7290  137.2370 S   0  0  0  0  0  0  0  0  0  0  0  0
  195.3440  175.1340  139.2050 N   0  0  0  0  0  1  0  0  0  0  0  0
  195.0310  173.3520  135.0670 C   0  0  0  0  0  1  0  0  0  0  0  0
  195.6930  172.8690  138.4640 C   0  0  0  0  0  2  0  0  0  0  0  0
  194.1320  174.2870  137.2490 C   0  0  2  0  0  3  0  0  0  0  0  0
  194.1990  173.0790  136.3170 C   0  0  2  0  0  3  0  0  0  0  0  0
  189.6270  177.3470  135.6750 C   0  0  0  0  0  1  0  0  0  0  0  0
  190.3860  176.1420  135.1220 C   0  0  0  0  0  2  0  0  0  0  0  0
  181.7480  177.9210  140.6050 C   0  0  0  0  0  2  0  0  0  0  0  0
  181.0990  178.8310  139.6240 C   0  0  0  0  0  0  0  0  0  0  0  0
  180.8260  180.1800  139.9840 N   0  0  0  0  0  2  0  0  0  0  0  0
  180.2720  181.1240  139.0380 C   0  0  0  0  0  1  0  0  0  0  0  0
  180.8490  178.4150  138.4630 O   0  0  0  0  0  0  0  0  0  0  0  0
  1  2  2  0  0  0  0
  2  5  1  0  0  0  0
  3 22  1  0  0  0  0
  3  4  2  0  0  0  0
  4  7  1  0  0  0  0
  5  4  1  0  0  0  0
  7 13  2  0  0  0  0
  7  9  1  0  0  0  0
  8 12  1  0  0  0  0
  9 14  1  0  0  0  0
 10 13  1  0  0  0  0
 10  8  2  0  0  0  0
 11  6  1  0  0  0  0
 12 11  2  0  0  0  0
 12 16  1  0  0  0  0
 13 15  1  0  0  0  0
 15 14  2  0  0  0  0
 15 11  1  0  0  0  0
 17 16  1  0  0  0  0
 17 18  2  0  0  0  0
 19 17  1  0  0  0  0
 20 23  1  0  0  0  0
 20 22  1  0  0  0  0
 21 20  2  0  0  0  0
 24 23  1  0  0  0  0
 25 24  1  0  0  0  0
 26 25  1  0  0  0  0
 27 26  2  0  0  0  0
 28 30  1  0  0  0  0
 29 31  1  0  0  0  0
 29 26  1  1  0  0  0
 30 41  1  6  0  0  0
 30 29  1  0  0  0  0
 32 28  1  6  0  0  0
 32 31  1  0  0  0  0
 33 37  1  0  0  0  0
 33 35  1  1  0  0  0
 34 37  1  0  0  0  0
 38 32  1  6  0  0  0
 38 33  1  0  0  0  0
 39 36  1  6  0  0  0
 39 34  1  0  0  0  0
 39 38  1  0  0  0  0
 41 40  1  0  0  0  0
 42  2  1  0  0  0  0
 43 44  1  0  0  0  0
 43 42  1  0  0  0  0
 45 44  1  0  0  0  0
 46 43  2  0  0  0  0
M  END
>  <MODEL>
8

>  <REMARK>
 VINA RESULT:      -7.3      2.405      3.853
  Name = 
  13 active torsions:
  status: ('A' for Active; 'I' for Inactive)
    1  A    between atoms: C_2  and  C_28
    2  A    between atoms: C_2  and  O_34
    3  A    between atoms: O_3  and  C_5
    4  A    between atoms: O_3  and  C_38
    5  A    between atoms: C_7  and  C_11
    6  A    between atoms: C_7  and  N_43
    7  A    between atoms: C_10  and  C_27
    8  A    between atoms: C_12  and  C_36
    9  A    between atoms: C_13  and  C_36
   10  A    between atoms: N_17  and  N_42
   11  A    between atoms: C_25  and  C_33
   12  A    between atoms: C_30  and  C_35
   13  A    between atoms: O_34  and  N_43
                            x       y       z     vdW  Elec       q    Type
                         _______ _______ _______ _____ _____    ______ ____

>  <TORSDO>
F 13

$$$$
=
 OpenBabel10232411373D

 46 49  0  0  1  0  0  0  0  0999 V2000
  188.2510  177.3360  147.6540 O   0  0  0  0  0  0  0  0  0  0  0  0
  189.2920  177.2040  146.9510 C   0  0  0  0  0  0  0  0  0  0  0  0
  186.9040  177.6010  145.2970 N   0  0  0  0  0  0  0  0  0  0  0  0
  188.0810  177.6380  144.7480 C   0  0  0  0  0  0  0  0  0  0  0  0
  189.2550  177.4080  145.5340 N   0  0  0  0  0  2  0  0  0  0  0  0
  189.8500  177.9890  139.0080 F   0  0  0  0  0  0  0  0  0  0  0  0
  188.2550  177.8270  143.2950 C   0  0  0  0  0  0  0  0  0  0  0  0
  191.6430  177.3120  142.1630 C   0  0  0  0  0  3  0  0  0  0  0  0
  187.1510  178.0560  142.3080 C   0  0  0  0  0  3  0  0  0  0  0  0
  190.6160  177.4270  143.0540 N   0  0  0  0  0  0  0  0  0  0  0  0
  190.1120  177.7310  140.3150 C   0  0  1  0  0  3  0  0  0  0  0  0
  191.4240  177.4590  140.7780 C   0  0  0  0  0  0  0  0  0  0  0  0
  189.3680  177.6990  142.5940 C   0  0  0  0  0  0  0  0  0  0  0  0
  187.8510  178.0500  141.0180 N   0  0  0  0  0  0  0  0  0  0  0  0
  189.0960  177.8340  141.2630 C   0  0  0  0  0  0  0  0  0  0  0  0
  192.5330  177.3800  139.9250 O   0  0  0  0  0  0  0  0  0  0  0  0
  192.6940  176.4590  138.8870 C   0  0  0  0  0  0  0  0  0  0  0  0
  193.8370  176.1140  138.4880 O   0  0  0  0  0  0  0  0  0  0  0  0
  191.5970  175.9900  138.2390 F   0  0  0  0  0  0  0  0  0  0  0  0
  184.7160  178.6530  144.8840 C   0  0  0  0  0  0  0  0  0  0  0  0
  184.9450  179.5400  145.7470 O   0  0  0  0  0  0  0  0  0  0  0  0
  185.7180  177.6940  144.5560 N   0  0  0  0  0  2  0  0  0  0  0  0
  183.3710  178.5620  144.2560 C   0  0  0  0  0  2  0  0  0  0  0  0
  183.3550  179.3670  143.0430 N   0  0  0  0  0  2  0  0  0  0  0  0
  183.6670  178.5310  141.9930 O   0  0  0  0  0  0  0  0  0  0  0  0
  183.7370  179.0070  140.6820 C   0  0  0  0  0  0  0  0  0  0  0  0
  184.7890  179.5530  140.2570 O   0  0  0  0  0  0  0  0  0  0  0  0
  181.4380  176.9780  138.7840 C   0  0  0  0  0  2  0  0  0  0  0  0
  182.5510  178.8970  139.7790 C   0  0  2  0  0  3  0  0  0  0  0  0
  181.7430  177.6530  140.1060 C   0  0  1  0  0  3  0  0  0  0  0  0
  182.9730  178.7780  138.3220 C   0  0  0  0  0  2  0  0  0  0  0  0
  182.5520  177.3960  137.8340 C   0  0  1  0  0  3  0  0  0  0  0  0
  184.8730  176.7080  136.9530 C   0  0  1  0  0  3  0  0  0  0  0  0
  184.8500  174.0140  137.3370 S   0  0  0  0  0  0  0  0  0  0  0  0
  185.6010  177.8910  137.3720 N   0  0  0  0  0  1  0  0  0  0  0  0
  182.4370  174.8180  136.4030 C   0  0  0  0  0  1  0  0  0  0  0  0
  185.8080  175.5210  136.9950 C   0  0  0  0  0  2  0  0  0  0  0  0
  183.7300  176.4000  137.9090 C   0  0  2  0  0  3  0  0  0  0  0  0
  183.3270  174.9520  137.6350 C   0  0  2  0  0  3  0  0  0  0  0  0
  179.9840  179.4050  140.6740 C   0  0  0  0  0  1  0  0  0  0  0  0
  180.4720  177.9740  140.8930 C   0  0  0  0  0  2  0  0  0  0  0  0
  190.5740  176.8060  147.6030 C   0  0  0  0  0  2  0  0  0  0  0  0
  191.5830  176.4270  146.5780 C   0  0  0  0  0  0  0  0  0  0  0  0
  191.8150  175.0530  146.2890 N   0  0  0  0  0  2  0  0  0  0  0  0
  192.7260  174.6380  145.2450 C   0  0  0  0  0  1  0  0  0  0  0  0
  192.1830  177.3260  145.9350 O   0  0  0  0  0  0  0  0  0  0  0  0
  2 42  1  0  0  0  0
  2  1  2  0  0  0  0
  4  3  2  0  0  0  0
  4  5  1  0  0  0  0
  5  2  1  0  0  0  0
  7  4  1  0  0  0  0
  8 10  1  0  0  0  0
  9  7  2  0  0  0  0
 11  6  1  1  0  0  0
 11 12  1  0  0  0  0
 11 15  1  0  0  0  0
 12  8  2  0  0  0  0
 13 10  2  0  0  0  0
 13  7  1  0  0  0  0
 14 15  2  0  0  0  0
 14  9  1  0  0  0  0
 15 13  1  0  0  0  0
 16 12  1  0  0  0  0
 17 16  1  0  0  0  0
 18 17  2  0  0  0  0
 19 17  1  0  0  0  0
 20 21  2  0  0  0  0
 22 20  1  0  0  0  0
 22  3  1  0  0  0  0
 23 20  1  0  0  0  0
 24 23  1  0  0  0  0
 25 24  1  0  0  0  0
 26 25  1  0  0  0  0
 27 26  2  0  0  0  0
 28 30  1  0  0  0  0
 29 30  1  0  0  0  0
 29 26  1  1  0  0  0
 30 41  1  6  0  0  0
 31 29  1  0  0  0  0
 32 31  1  1  0  0  0
 32 28  1  0  0  0  0
 33 37  1  0  0  0  0
 33 35  1  1  0  0  0
 33 38  1  0  0  0  0
 34 39  1  0  0  0  0
 37 34  1  0  0  0  0
 38 32  1  6  0  0  0
 39 36  1  6  0  0  0
 39 38  1  0  0  0  0
 40 41  1  0  0  0  0
 43 42  1  0  0  0  0
 44 43  1  0  0  0  0
 45 44  1  0  0  0  0
 46 43  2  0  0  0  0
M  END
>  <MODEL>
9

>  <REMARK>
 VINA RESULT:      -7.2      3.882      8.344
  Name = 
  13 active torsions:
  status: ('A' for Active; 'I' for Inactive)
    1  A    between atoms: C_2  and  C_28
    2  A    between atoms: C_2  and  O_34
    3  A    between atoms: O_3  and  C_5
    4  A    between atoms: O_3  and  C_38
    5  A    between atoms: C_7  and  C_11
    6  A    between atoms: C_7  and  N_43
    7  A    between atoms: C_10  and  C_27
    8  A    between atoms: C_12  and  C_36
    9  A    between atoms: C_13  and  C_36
   10  A    between atoms: N_17  and  N_42
   11  A    between atoms: C_25  and  C_33
   12  A    between atoms: C_30  and  C_35
   13  A    between atoms: O_34  and  N_43
                            x       y       z     vdW  Elec       q    Type
                         _______ _______ _______ _____ _____    ______ ____

>  <TORSDO>
F 13

$$$$
