=
 OpenBabel10232410053D

 49 55  0  0  1  0  0  0  0  0999 V2000
  188.3740  177.9360  143.0560 C   0  0  0  0  0  3  0  0  0  0  0  0
  184.1190  178.6360  143.8900 C   0  0  0  0  0  0  0  0  0  0  0  0
  186.0270  178.4300  142.5490 C   0  0  0  0  0  0  0  0  0  0  0  0
  185.2870  178.6070  141.4190 C   0  0  0  0  0  0  0  0  0  0  0  0
  188.8030  177.8430  147.4830 C   0  0  0  0  0  1  0  0  0  0  0  0
  187.3210  178.0910  145.3760 C   0  0  0  0  0  0  0  0  0  0  0  0
  183.8980  178.7250  141.4760 C   0  0  0  0  0  0  0  0  0  0  0  0
  183.0910  178.5990  140.2330 C   0  0  0  0  0  2  0  0  0  0  0  0
  187.4910  178.0630  146.8080 C   0  0  0  0  0  0  0  0  0  0  0  0
  186.1560  178.5370  140.3570 C   0  0  0  0  0  0  0  0  0  0  0  0
  184.9630  178.5110  145.8730 C   0  0  0  0  0  0  0  0  0  0  0  0
  187.4100  178.2930  140.8390 N   0  0  0  0  0  0  0  0  0  0  0  0
  180.5150  179.4880  139.4350 O   0  0  0  0  0  0  0  0  0  0  0  0
  186.6580  178.6970  138.0540 O   0  0  0  0  0  0  0  0  0  0  0  0
  186.4260  178.2730  147.6450 N   0  0  0  0  0  0  0  0  0  0  0  0
  185.8170  178.9100  138.9620 C   0  0  0  0  0  0  0  0  0  0  0  0
  184.6340  179.6570  138.6330 N   0  0  0  0  0  0  0  0  0  0  0  0
  181.0780  180.5430  139.0350 C   0  0  0  0  0  0  0  0  0  0  0  0
  183.4570  179.6170  139.1860 C   0  0  0  0  0  0  0  0  0  0  0  0
  187.3230  178.2260  142.2000 C   0  0  0  0  0  0  0  0  0  0  0  0
  185.9890  178.3570  144.9740 C   0  0  0  0  0  0  0  0  0  0  0  0
  183.7450  178.6880  145.2250 C   0  0  0  0  0  3  0  0  0  0  0  0
  188.4050  177.8300  144.4630 C   0  0  0  0  0  0  0  0  0  0  0  0
  185.4540  178.4310  143.7570 N   0  0  0  0  0  0  0  0  0  0  0  0
  182.4810  180.5670  138.7460 N   0  0  0  0  0  2  0  0  0  0  0  0
  185.1870  178.4910  147.1990 N   0  0  0  0  0  0  0  0  0  0  0  0
  183.2840  178.7440  142.7540 C   0  0  0  0  0  3  0  0  0  0  0  0
  180.2680  181.7790  138.8580 C   0  0  0  0  0  2  0  0  0  0  0  0
  180.5050  181.7130  135.1210 C   0  0  0  0  0  3  0  0  0  0  0  0
  180.8110  183.1860  135.4070 C   0  0  0  0  0  2  0  0  0  0  0  0
  180.1290  182.0990  137.4460 N   0  0  0  0  0  0  0  0  0  0  0  0
  179.9930  181.0800  136.4250 C   0  0  0  0  0  3  0  0  0  0  0  0
  180.8220  184.3370  137.5310 O   0  0  0  0  0  0  0  0  0  0  0  0
  180.6020  183.2940  136.8630 C   0  0  0  0  0  0  0  0  0  0  0  0
  189.6570  177.3660  144.9960 N   0  0  0  0  0  2  0  0  0  0  0  0
  190.8910  177.2440  144.2220 C   0  0  2  0  0  3  0  0  0  0  0  0
  191.7660  176.3900  144.8900 O   0  0  0  0  0  1  0  0  0  0  0  0
  191.5410  178.6080  144.0840 C   0  0  0  0  0  1  0  0  0  0  0  0
  188.6160  178.0690  140.0390 C   0  0  0  0  0  2  0  0  0  0  0  0
  189.3420  176.8120  140.5080 C   0  0  0  0  0  2  0  0  0  0  0  0
  190.4940  176.4660  139.5820 C   0  0  0  0  0  2  0  0  0  0  0  0
  190.4060  177.2800  138.3060 C   0  0  0  0  0  2  0  0  0  0  0  0
  190.7490  176.4360  137.0710 C   0  0  0  0  0  2  0  0  0  0  0  0
  190.9050  173.6240  137.4540 O   0  0  0  0  0  0  0  0  0  0  0  0
  189.6780  175.4980  136.7450 N   0  0  0  0  0  0  0  0  0  0  0  0
  188.6910  173.1330  136.7860 C   0  0  0  0  0  1  0  0  0  0  0  0
  189.8190  174.0850  137.0160 C   0  0  0  0  0  0  0  0  0  0  0  0
  188.4790  176.8860  135.1180 C   0  0  0  0  0  1  0  0  0  0  0  0
  188.3780  176.0790  136.4010 C   0  0  0  0  0  2  0  0  0  0  0  0
  1 23  2  0  0  0  0
  2 22  2  0  0  0  0
  3 24  1  0  0  0  0
  4  7  1  0  0  0  0
  4  3  1  0  0  0  0
  6  9  1  0  0  0  0
  7 27  2  0  0  0  0
  8  7  1  0  0  0  0
  9  5  1  0  0  0  0
  9 15  2  0  0  0  0
 10 12  1  0  0  0  0
 10  4  2  0  0  0  0
 11 26  2  0  0  0  0
 12 20  1  0  0  0  0
 14 16  2  0  0  0  0
 16 10  1  0  0  0  0
 17 16  1  0  0  0  0
 17 19  2  0  0  0  0
 18 13  2  0  0  0  0
 19  8  1  0  0  0  0
 20  3  2  0  0  0  0
 20  1  1  0  0  0  0
 21  6  2  0  0  0  0
 21 11  1  0  0  0  0
 22 11  1  0  0  0  0
 23 35  1  0  0  0  0
 23  6  1  0  0  0  0
 24  2  1  0  0  0  0
 24 21  1  0  0  0  0
 25 18  1  0  0  0  0
 25 19  1  0  0  0  0
 26 15  1  0  0  0  0
 27  2  1  0  0  0  0
 28 18  1  0  0  0  0
 29 30  1  0  0  0  0
 29 32  2  0  0  0  0
 30 34  1  0  0  0  0
 31 28  1  0  0  0  0
 32 31  1  0  0  0  0
 34 31  1  0  0  0  0
 34 33  2  0  0  0  0
 36 38  1  1  0  0  0
 36 37  1  0  0  0  0
 36 35  1  0  0  0  0
 39 40  1  0  0  0  0
 39 12  1  0  0  0  0
 41 40  1  0  0  0  0
 42 41  1  0  0  0  0
 43 42  1  0  0  0  0
 45 47  1  0  0  0  0
 45 43  1  0  0  0  0
 46 47  1  0  0  0  0
 47 44  2  0  0  0  0
 48 49  1  0  0  0  0
 49 45  1  0  0  0  0
M  END
>  <MODEL>
1

>  <REMARK>
 VINA RESULT:     -10.0      0.000      0.000
  Name = 
  11 active torsions:
  status: ('A' for Active; 'I' for Inactive)
    1  A    between atoms: C_1  and  N_22
    2  A    between atoms: C_1  and  C_31
    3  A    between atoms: C_3  and  C_6
    4  A    between atoms: C_3  and  C_41
    5  A    between atoms: C_6  and  C_36
    6  A    between atoms: C_10  and  N_30
    7  A    between atoms: C_20  and  N_43
    8  A    between atoms: N_23  and  C_36
    9  A    between atoms: C_24  and  C_41
   10  A    between atoms: C_24  and  N_43
   11  A    between atoms: N_30  and  C_42
                            x       y       z     vdW  Elec       q    Type
                         _______ _______ _______ _____ _____    ______ ____

>  <TORSDO>
F 11

$$$$
=
 OpenBabel10232410053D

 49 55  0  0  1  0  0  0  0  0999 V2000
  188.2930  177.6630  142.9390 C   0  0  0  0  0  3  0  0  0  0  0  0
  184.1450  178.7650  143.8730 C   0  0  0  0  0  0  0  0  0  0  0  0
  185.9860  178.3560  142.4850 C   0  0  0  0  0  0  0  0  0  0  0  0
  185.2310  178.5750  141.3720 C   0  0  0  0  0  0  0  0  0  0  0  0
  188.8430  177.6300  147.3530 C   0  0  0  0  0  1  0  0  0  0  0  0
  187.3270  177.9640  145.2820 C   0  0  0  0  0  0  0  0  0  0  0  0
  183.8610  178.8200  141.4650 C   0  0  0  0  0  0  0  0  0  0  0  0
  183.0090  178.7400  140.2470 C   0  0  0  0  0  2  0  0  0  0  0  0
  187.5370  177.9530  146.7100 C   0  0  0  0  0  0  0  0  0  0  0  0
  186.0580  178.4020  140.2880 C   0  0  0  0  0  0  0  0  0  0  0  0
  185.0330  178.6080  145.8340 C   0  0  0  0  0  0  0  0  0  0  0  0
  187.2990  178.0570  140.7410 N   0  0  0  0  0  0  0  0  0  0  0  0
  180.5010  179.8410  139.4990 O   0  0  0  0  0  0  0  0  0  0  0  0
  186.5040  178.4640  137.9690 O   0  0  0  0  0  0  0  0  0  0  0  0
  186.5210  178.2780  147.5700 N   0  0  0  0  0  0  0  0  0  0  0  0
  185.7130  178.7740  138.8940 C   0  0  0  0  0  0  0  0  0  0  0  0
  184.5930  179.6170  138.5790 N   0  0  0  0  0  0  0  0  0  0  0  0
  181.1450  180.8320  139.0570 C   0  0  0  0  0  0  0  0  0  0  0  0
  183.4340  179.6960  139.1660 C   0  0  0  0  0  0  0  0  0  0  0  0
  187.2470  178.0280  142.1050 C   0  0  0  0  0  0  0  0  0  0  0  0
  186.0140  178.3420  144.9110 C   0  0  0  0  0  0  0  0  0  0  0  0
  183.8170  178.8800  145.2150 C   0  0  0  0  0  3  0  0  0  0  0  0
  188.3560  177.5860  144.3470 C   0  0  0  0  0  0  0  0  0  0  0  0
  185.4510  178.4360  143.7070 N   0  0  0  0  0  0  0  0  0  0  0  0
  182.5350  180.7220  138.7300 N   0  0  0  0  0  2  0  0  0  0  0  0
  185.2940  178.5970  147.1530 N   0  0  0  0  0  0  0  0  0  0  0  0
  183.2900  178.9230  142.7580 C   0  0  0  0  0  3  0  0  0  0  0  0
  180.4440  182.1310  138.8720 C   0  0  0  0  0  2  0  0  0  0  0  0
  180.4910  181.9220  135.1330 C   0  0  0  0  0  3  0  0  0  0  0  0
  180.9560  183.3640  135.3510 C   0  0  0  0  0  2  0  0  0  0  0  0
  180.2690  182.4190  137.4570 N   0  0  0  0  0  0  0  0  0  0  0  0
  179.9820  181.3870  136.4820 C   0  0  0  0  0  3  0  0  0  0  0  0
  181.1860  184.5760  137.4280 O   0  0  0  0  0  0  0  0  0  0  0  0
  180.8310  183.5400  136.8100 C   0  0  0  0  0  0  0  0  0  0  0  0
  189.5760  177.0220  144.8560 N   0  0  0  0  0  2  0  0  0  0  0  0
  190.8440  177.0010  144.1290 C   0  0  2  0  0  3  0  0  0  0  0  0
  191.6780  176.0390  144.6940 O   0  0  0  0  0  1  0  0  0  0  0  0
  191.5140  178.3590  144.2380 C   0  0  0  0  0  1  0  0  0  0  0  0
  188.4550  177.7060  139.9140 C   0  0  0  0  0  2  0  0  0  0  0  0
  189.7220  178.3570  140.4630 C   0  0  0  0  0  2  0  0  0  0  0  0
  190.9160  177.4290  140.3360 C   0  0  0  0  0  2  0  0  0  0  0  0
  190.6400  176.3560  139.3010 C   0  0  0  0  0  2  0  0  0  0  0  0
  191.4740  176.5670  138.0310 C   0  0  0  0  0  2  0  0  0  0  0  0
  194.2510  176.0030  138.2580 O   0  0  0  0  0  0  0  0  0  0  0  0
  192.1030  175.3260  137.5860 N   0  0  0  0  0  0  0  0  0  0  0  0
  194.1500  173.7920  137.4290 C   0  0  0  0  0  1  0  0  0  0  0  0
  193.5180  175.0980  137.7820 C   0  0  0  0  0  0  0  0  0  0  0  0
  190.6350  174.4860  135.8110 C   0  0  0  0  0  1  0  0  0  0  0  0
  191.2050  174.2370  137.1970 C   0  0  0  0  0  2  0  0  0  0  0  0
  1 23  2  0  0  0  0
  2 22  2  0  0  0  0
  3 24  1  0  0  0  0
  4  7  1  0  0  0  0
  4  3  1  0  0  0  0
  6  9  1  0  0  0  0
  7 27  2  0  0  0  0
  8  7  1  0  0  0  0
  9  5  1  0  0  0  0
  9 15  2  0  0  0  0
 10 12  1  0  0  0  0
 10  4  2  0  0  0  0
 11 26  2  0  0  0  0
 12 20  1  0  0  0  0
 14 16  2  0  0  0  0
 16 10  1  0  0  0  0
 17 16  1  0  0  0  0
 17 19  2  0  0  0  0
 18 13  2  0  0  0  0
 19  8  1  0  0  0  0
 20  3  2  0  0  0  0
 20  1  1  0  0  0  0
 21  6  2  0  0  0  0
 21 11  1  0  0  0  0
 22 11  1  0  0  0  0
 23 35  1  0  0  0  0
 23  6  1  0  0  0  0
 24  2  1  0  0  0  0
 24 21  1  0  0  0  0
 25 18  1  0  0  0  0
 25 19  1  0  0  0  0
 26 15  1  0  0  0  0
 27  2  1  0  0  0  0
 28 18  1  0  0  0  0
 29 30  1  0  0  0  0
 29 32  2  0  0  0  0
 30 34  1  0  0  0  0
 31 28  1  0  0  0  0
 32 31  1  0  0  0  0
 34 33  2  0  0  0  0
 34 31  1  0  0  0  0
 36 38  1  1  0  0  0
 36 37  1  0  0  0  0
 36 35  1  0  0  0  0
 39 40  1  0  0  0  0
 39 12  1  0  0  0  0
 41 40  1  0  0  0  0
 42 41  1  0  0  0  0
 43 42  1  0  0  0  0
 45 47  1  0  0  0  0
 45 43  1  0  0  0  0
 46 47  1  0  0  0  0
 47 44  2  0  0  0  0
 48 49  1  0  0  0  0
 49 45  1  0  0  0  0
M  END
>  <MODEL>
2

>  <REMARK>
 VINA RESULT:     -10.0      1.145      1.450
  Name = 
  11 active torsions:
  status: ('A' for Active; 'I' for Inactive)
    1  A    between atoms: C_1  and  N_22
    2  A    between atoms: C_1  and  C_31
    3  A    between atoms: C_3  and  C_6
    4  A    between atoms: C_3  and  C_41
    5  A    between atoms: C_6  and  C_36
    6  A    between atoms: C_10  and  N_30
    7  A    between atoms: C_20  and  N_43
    8  A    between atoms: N_23  and  C_36
    9  A    between atoms: C_24  and  C_41
   10  A    between atoms: C_24  and  N_43
   11  A    between atoms: N_30  and  C_42
                            x       y       z     vdW  Elec       q    Type
                         _______ _______ _______ _____ _____    ______ ____

>  <TORSDO>
F 11

$$$$
=
 OpenBabel10232410053D

 49 55  0  0  1  0  0  0  0  0999 V2000
  187.1700  177.7380  144.1060 C   0  0  0  0  0  3  0  0  0  0  0  0
  191.4640  176.9500  143.6310 C   0  0  0  0  0  0  0  0  0  0  0  0
  189.2720  177.3430  142.9090 C   0  0  0  0  0  0  0  0  0  0  0  0
  189.6710  177.3430  141.6060 C   0  0  0  0  0  0  0  0  0  0  0  0
  187.9640  177.1610  148.4450 C   0  0  0  0  0  1  0  0  0  0  0  0
  188.8080  177.2440  146.0000 C   0  0  0  0  0  0  0  0  0  0  0  0
  191.0170  177.2270  141.2630 C   0  0  0  0  0  0  0  0  0  0  0  0
  191.4600  177.5440  139.8780 C   0  0  0  0  0  2  0  0  0  0  0  0
  189.0350  177.0550  147.4120 C   0  0  0  0  0  0  0  0  0  0  0  0
  188.5480  177.5660  140.8450 C   0  0  0  0  0  0  0  0  0  0  0  0
  191.1960  176.7690  145.7650 C   0  0  0  0  0  0  0  0  0  0  0  0
  187.4820  177.7260  141.6830 N   0  0  0  0  0  0  0  0  0  0  0  0
  193.6900  176.8030  138.2840 O   0  0  0  0  0  0  0  0  0  0  0  0
  187.4340  177.7510  138.7700 O   0  0  0  0  0  0  0  0  0  0  0  0
  190.2800  176.7280  147.8850 N   0  0  0  0  0  0  0  0  0  0  0  0
  188.4820  177.4090  139.3710 C   0  0  0  0  0  0  0  0  0  0  0  0
  189.5040  176.7280  138.6250 N   0  0  0  0  0  0  0  0  0  0  0  0
  193.0030  175.8160  137.9030 C   0  0  0  0  0  0  0  0  0  0  0  0
  190.7880  176.6930  138.8340 C   0  0  0  0  0  0  0  0  0  0  0  0
  187.9380  177.5880  142.9620 C   0  0  0  0  0  0  0  0  0  0  0  0
  189.9700  177.0500  145.2140 C   0  0  0  0  0  0  0  0  0  0  0  0
  192.1850  176.7010  144.7890 C   0  0  0  0  0  3  0  0  0  0  0  0
  187.5260  177.6310  145.4680 C   0  0  0  0  0  0  0  0  0  0  0  0
  190.1520  177.1640  143.9000 N   0  0  0  0  0  0  0  0  0  0  0  0
  191.5740  175.8260  138.0090 N   0  0  0  0  0  2  0  0  0  0  0  0
  191.3420  176.5890  147.0890 N   0  0  0  0  0  0  0  0  0  0  0  0
  191.9550  177.0210  142.3060 C   0  0  0  0  0  3  0  0  0  0  0  0
  193.6910  174.6270  137.3310 C   0  0  0  0  0  2  0  0  0  0  0  0
  197.2760  174.7700  136.2570 C   0  0  0  0  0  3  0  0  0  0  0  0
  197.4150  174.1630  137.6550 C   0  0  0  0  0  2  0  0  0  0  0  0
  195.1300  174.8390  137.2990 N   0  0  0  0  0  0  0  0  0  0  0  0
  195.8280  175.2650  136.1040 C   0  0  0  0  0  3  0  0  0  0  0  0
  195.6860  173.7260  139.2860 O   0  0  0  0  0  0  0  0  0  0  0  0
  196.0360  174.2050  138.1760 C   0  0  0  0  0  0  0  0  0  0  0  0
  186.4830  178.0020  146.3850 N   0  0  0  0  0  2  0  0  0  0  0  0
  185.6410  179.1880  146.2440 C   0  0  2  0  0  3  0  0  0  0  0  0
  185.7090  179.9380  147.4160 O   0  0  0  0  0  1  0  0  0  0  0  0
  184.2020  178.7640  146.0120 C   0  0  0  0  0  1  0  0  0  0  0  0
  186.1120  178.0590  141.2850 C   0  0  0  0  0  2  0  0  0  0  0  0
  185.7110  179.4220  141.8420 C   0  0  0  0  0  2  0  0  0  0  0  0
  184.3850  179.3460  142.5760 C   0  0  0  0  0  2  0  0  0  0  0  0
  183.5300  178.2310  142.0050 C   0  0  0  0  0  2  0  0  0  0  0  0
  182.6730  178.7200  140.8300 C   0  0  0  0  0  2  0  0  0  0  0  0
  184.3080  179.6360  138.6930 O   0  0  0  0  0  0  0  0  0  0  0  0
  182.9420  177.9590  139.6130 N   0  0  0  0  0  0  0  0  0  0  0  0
  184.1920  177.6630  137.3950 C   0  0  0  0  0  1  0  0  0  0  0  0
  183.8250  178.4780  138.5920 C   0  0  0  0  0  0  0  0  0  0  0  0
  181.0000  176.4690  139.7400 C   0  0  0  0  0  1  0  0  0  0  0  0
  182.5090  176.5600  139.6030 C   0  0  0  0  0  2  0  0  0  0  0  0
  1 23  2  0  0  0  0
  2 24  1  0  0  0  0
  2 22  2  0  0  0  0
  3 20  2  0  0  0  0
  3 24  1  0  0  0  0
  4  3  1  0  0  0  0
  6  9  1  0  0  0  0
  7  4  1  0  0  0  0
  7 27  2  0  0  0  0
  8  7  1  0  0  0  0
  9 15  2  0  0  0  0
  9  5  1  0  0  0  0
 10  4  2  0  0  0  0
 10 12  1  0  0  0  0
 11 26  2  0  0  0  0
 12 20  1  0  0  0  0
 14 16  2  0  0  0  0
 16 10  1  0  0  0  0
 17 19  2  0  0  0  0
 17 16  1  0  0  0  0
 18 25  1  0  0  0  0
 18 13  2  0  0  0  0
 19  8  1  0  0  0  0
 20  1  1  0  0  0  0
 21 11  1  0  0  0  0
 21  6  2  0  0  0  0
 22 11  1  0  0  0  0
 23  6  1  0  0  0  0
 23 35  1  0  0  0  0
 24 21  1  0  0  0  0
 25 19  1  0  0  0  0
 26 15  1  0  0  0  0
 27  2  1  0  0  0  0
 28 18  1  0  0  0  0
 29 30  1  0  0  0  0
 30 34  1  0  0  0  0
 31 28  1  0  0  0  0
 31 34  1  0  0  0  0
 32 29  2  0  0  0  0
 32 31  1  0  0  0  0
 34 33  2  0  0  0  0
 36 38  1  1  0  0  0
 36 35  1  0  0  0  0
 36 37  1  0  0  0  0
 39 12  1  0  0  0  0
 39 40  1  0  0  0  0
 40 41  1  0  0  0  0
 42 41  1  0  0  0  0
 43 42  1  0  0  0  0
 45 43  1  0  0  0  0
 46 47  1  0  0  0  0
 47 44  2  0  0  0  0
 47 45  1  0  0  0  0
 49 45  1  0  0  0  0
 49 48  1  0  0  0  0
M  END
>  <MODEL>
3

>  <REMARK>
 VINA RESULT:      -9.8      3.013      9.029
  Name = 
  11 active torsions:
  status: ('A' for Active; 'I' for Inactive)
    1  A    between atoms: C_1  and  N_22
    2  A    between atoms: C_1  and  C_31
    3  A    between atoms: C_3  and  C_6
    4  A    between atoms: C_3  and  C_41
    5  A    between atoms: C_6  and  C_36
    6  A    between atoms: C_10  and  N_30
    7  A    between atoms: C_20  and  N_43
    8  A    between atoms: N_23  and  C_36
    9  A    between atoms: C_24  and  C_41
   10  A    between atoms: C_24  and  N_43
   11  A    between atoms: N_30  and  C_42
                            x       y       z     vdW  Elec       q    Type
                         _______ _______ _______ _____ _____    ______ ____

>  <TORSDO>
F 11

$$$$
=
 OpenBabel10232410053D

 49 55  0  0  1  0  0  0  0  0999 V2000
  186.8510  178.3100  143.8750 C   0  0  0  0  0  3  0  0  0  0  0  0
  190.5550  177.0520  141.8780 C   0  0  0  0  0  0  0  0  0  0  0  0
  188.3370  177.7940  141.9950 C   0  0  0  0  0  0  0  0  0  0  0  0
  188.2680  177.8920  140.6380 C   0  0  0  0  0  0  0  0  0  0  0  0
  188.9620  177.1500  147.6160 C   0  0  0  0  0  1  0  0  0  0  0  0
  188.9340  177.4030  145.0400 C   0  0  0  0  0  0  0  0  0  0  0  0
  189.3850  177.6490  139.8390 C   0  0  0  0  0  0  0  0  0  0  0  0
  189.3780  178.0640  138.4090 C   0  0  0  0  0  2  0  0  0  0  0  0
  189.5910  177.0280  146.2690 C   0  0  0  0  0  0  0  0  0  0  0  0
  187.0040  178.3380  140.3340 C   0  0  0  0  0  0  0  0  0  0  0  0
  190.9970  176.6650  143.9540 C   0  0  0  0  0  0  0  0  0  0  0  0
  186.3220  178.5330  141.5000 N   0  0  0  0  0  0  0  0  0  0  0  0
  190.7950  177.2370  136.0920 O   0  0  0  0  0  0  0  0  0  0  0  0
  185.2980  178.8940  138.7970 O   0  0  0  0  0  0  0  0  0  0  0  0
  190.8550  176.4990  146.2540 N   0  0  0  0  0  0  0  0  0  0  0  0
  186.4210  178.3590  138.9700 C   0  0  0  0  0  0  0  0  0  0  0  0
  187.0120  177.6450  137.8710 N   0  0  0  0  0  0  0  0  0  0  0  0
  189.8740  176.3920  135.9140 C   0  0  0  0  0  0  0  0  0  0  0  0
  188.2690  177.4270  137.6150 C   0  0  0  0  0  0  0  0  0  0  0  0
  187.1550  178.1960  142.5270 C   0  0  0  0  0  0  0  0  0  0  0  0
  189.7170  177.1570  143.8860 C   0  0  0  0  0  0  0  0  0  0  0  0
  191.5760  176.5850  142.6920 C   0  0  0  0  0  3  0  0  0  0  0  0
  187.6240  178.0050  145.0160 C   0  0  0  0  0  0  0  0  0  0  0  0
  189.4600  177.3960  142.6020 N   0  0  0  0  0  0  0  0  0  0  0  0
  188.5860  176.5680  136.5140 N   0  0  0  0  0  2  0  0  0  0  0  0
  191.5510  176.3190  145.1300 N   0  0  0  0  0  0  0  0  0  0  0  0
  190.5740  177.2110  140.4730 C   0  0  0  0  0  3  0  0  0  0  0  0
  190.1360  175.1990  135.0630 C   0  0  0  0  0  2  0  0  0  0  0  0
  187.1960  173.0440  135.9230 C   0  0  0  0  0  3  0  0  0  0  0  0
  188.1180  172.7690  137.1140 C   0  0  0  0  0  2  0  0  0  0  0  0
  189.2970  174.0850  135.4770 N   0  0  0  0  0  0  0  0  0  0  0  0
  188.0120  173.8100  134.8680 C   0  0  0  0  0  3  0  0  0  0  0  0
  190.3530  173.5960  137.5110 O   0  0  0  0  0  0  0  0  0  0  0  0
  189.3500  173.4970  136.7580 C   0  0  0  0  0  0  0  0  0  0  0  0
  187.0230  178.3960  146.2620 N   0  0  0  0  0  2  0  0  0  0  0  0
  185.7870  179.1680  146.3780 C   0  0  2  0  0  3  0  0  0  0  0  0
  185.8520  179.9650  147.5190 O   0  0  0  0  0  1  0  0  0  0  0  0
  184.6080  178.2220  146.5030 C   0  0  0  0  0  1  0  0  0  0  0  0
  184.9680  179.0770  141.6290 C   0  0  0  0  0  2  0  0  0  0  0  0
  183.9450  177.9490  141.7130 C   0  0  0  0  0  2  0  0  0  0  0  0
  182.5320  178.4740  141.5350 C   0  0  0  0  0  2  0  0  0  0  0  0
  181.8450  177.7580  140.3890 C   0  0  0  0  0  2  0  0  0  0  0  0
  182.7680  176.7250  139.7320 C   0  0  0  0  0  2  0  0  0  0  0  0
  183.8490  174.6590  138.1050 O   0  0  0  0  0  0  0  0  0  0  0  0
  182.4410  176.5290  138.3210 N   0  0  0  0  0  0  0  0  0  0  0  0
  182.5890  175.1500  136.1660 C   0  0  0  0  0  1  0  0  0  0  0  0
  182.9990  175.4220  137.5760 C   0  0  0  0  0  0  0  0  0  0  0  0
  181.8550  178.5260  137.0260 C   0  0  0  0  0  1  0  0  0  0  0  0
  181.3310  177.3210  137.7880 C   0  0  0  0  0  2  0  0  0  0  0  0
  1 23  2  0  0  0  0
  2 24  1  0  0  0  0
  2 22  2  0  0  0  0
  3 20  2  0  0  0  0
  3 24  1  0  0  0  0
  4  3  1  0  0  0  0
  6  9  1  0  0  0  0
  7 27  2  0  0  0  0
  7  4  1  0  0  0  0
  8  7  1  0  0  0  0
  9  5  1  0  0  0  0
 10  4  2  0  0  0  0
 10 12  1  0  0  0  0
 11 26  2  0  0  0  0
 12 39  1  0  0  0  0
 12 20  1  0  0  0  0
 14 16  2  0  0  0  0
 15  9  2  0  0  0  0
 16 10  1  0  0  0  0
 17 16  1  0  0  0  0
 18 13  2  0  0  0  0
 18 25  1  0  0  0  0
 19 17  2  0  0  0  0
 19  8  1  0  0  0  0
 20  1  1  0  0  0  0
 21 11  1  0  0  0  0
 21  6  2  0  0  0  0
 22 11  1  0  0  0  0
 23  6  1  0  0  0  0
 23 35  1  0  0  0  0
 24 21  1  0  0  0  0
 25 19  1  0  0  0  0
 26 15  1  0  0  0  0
 27  2  1  0  0  0  0
 28 31  1  0  0  0  0
 28 18  1  0  0  0  0
 29 30  1  0  0  0  0
 31 34  1  0  0  0  0
 32 31  1  0  0  0  0
 32 29  2  0  0  0  0
 34 30  1  0  0  0  0
 34 33  2  0  0  0  0
 35 36  1  0  0  0  0
 36 38  1  1  0  0  0
 36 37  1  0  0  0  0
 39 40  1  0  0  0  0
 41 40  1  0  0  0  0
 42 41  1  0  0  0  0
 43 42  1  0  0  0  0
 45 43  1  0  0  0  0
 46 47  1  0  0  0  0
 47 44  2  0  0  0  0
 47 45  1  0  0  0  0
 48 49  1  0  0  0  0
 49 45  1  0  0  0  0
M  END
>  <MODEL>
4

>  <REMARK>
 VINA RESULT:      -9.3      2.737      7.262
  Name = 
  11 active torsions:
  status: ('A' for Active; 'I' for Inactive)
    1  A    between atoms: C_1  and  N_22
    2  A    between atoms: C_1  and  C_31
    3  A    between atoms: C_3  and  C_6
    4  A    between atoms: C_3  and  C_41
    5  A    between atoms: C_6  and  C_36
    6  A    between atoms: C_10  and  N_30
    7  A    between atoms: C_20  and  N_43
    8  A    between atoms: N_23  and  C_36
    9  A    between atoms: C_24  and  C_41
   10  A    between atoms: C_24  and  N_43
   11  A    between atoms: N_30  and  C_42
                            x       y       z     vdW  Elec       q    Type
                         _______ _______ _______ _____ _____    ______ ____

>  <TORSDO>
F 11

$$$$
=
 OpenBabel10232410053D

 49 55  0  0  1  0  0  0  0  0999 V2000
  186.9310  178.3580  144.1080 C   0  0  0  0  0  3  0  0  0  0  0  0
  190.6080  177.0540  142.0910 C   0  0  0  0  0  0  0  0  0  0  0  0
  188.4030  177.8310  142.2200 C   0  0  0  0  0  0  0  0  0  0  0  0
  188.3310  177.9390  140.8640 C   0  0  0  0  0  0  0  0  0  0  0  0
  189.0340  177.1400  147.8340 C   0  0  0  0  0  1  0  0  0  0  0  0
  189.0020  177.4110  145.2600 C   0  0  0  0  0  0  0  0  0  0  0  0
  189.4410  177.6830  140.0590 C   0  0  0  0  0  0  0  0  0  0  0  0
  189.4370  178.1070  138.6330 C   0  0  0  0  0  2  0  0  0  0  0  0
  189.6570  177.0180  146.4840 C   0  0  0  0  0  0  0  0  0  0  0  0
  187.0740  178.4070  140.5660 C   0  0  0  0  0  0  0  0  0  0  0  0
  191.0500  176.6470  144.1630 C   0  0  0  0  0  0  0  0  0  0  0  0
  186.3980  178.6050  141.7360 N   0  0  0  0  0  0  0  0  0  0  0  0
  190.8340  177.2730  136.3050 O   0  0  0  0  0  0  0  0  0  0  0  0
  185.3730  179.0010  139.0380 O   0  0  0  0  0  0  0  0  0  0  0  0
  190.9120  176.4680  146.4620 N   0  0  0  0  0  0  0  0  0  0  0  0
  186.4870  178.4460  139.2040 C   0  0  0  0  0  0  0  0  0  0  0  0
  187.0630  177.7300  138.0990 N   0  0  0  0  0  0  0  0  0  0  0  0
  189.8990  176.4440  136.1250 C   0  0  0  0  0  0  0  0  0  0  0  0
  188.3160  177.4930  137.8380 C   0  0  0  0  0  0  0  0  0  0  0  0
  187.2290  178.2480  142.7580 C   0  0  0  0  0  0  0  0  0  0  0  0
  189.7780  177.1600  144.1030 C   0  0  0  0  0  0  0  0  0  0  0  0
  191.6240  176.5660  142.8990 C   0  0  0  0  0  3  0  0  0  0  0  0
  187.7020  178.0340  145.2440 C   0  0  0  0  0  0  0  0  0  0  0  0
  189.5210  177.4110  142.8210 N   0  0  0  0  0  0  0  0  0  0  0  0
  188.6160  176.6370  136.7300 N   0  0  0  0  0  2  0  0  0  0  0  0
  191.6020  176.2840  145.3350 N   0  0  0  0  0  0  0  0  0  0  0  0
  190.6260  177.2220  140.6870 C   0  0  0  0  0  3  0  0  0  0  0  0
  190.1390  175.2530  135.2660 C   0  0  0  0  0  2  0  0  0  0  0  0
  193.3320  173.3140  135.0100 C   0  0  0  0  0  3  0  0  0  0  0  0
  192.9410  173.0410  136.4650 C   0  0  0  0  0  2  0  0  0  0  0  0
  191.4530  174.6900  135.5310 N   0  0  0  0  0  0  0  0  0  0  0  0
  192.4160  174.4290  134.4810 C   0  0  0  0  0  3  0  0  0  0  0  0
  191.0610  173.9120  137.7080 O   0  0  0  0  0  0  0  0  0  0  0  0
  191.7510  173.8920  136.6560 C   0  0  0  0  0  0  0  0  0  0  0  0
  187.1110  178.4260  146.4940 N   0  0  0  0  0  2  0  0  0  0  0  0
  185.8990  179.2330  146.6190 C   0  0  2  0  0  3  0  0  0  0  0  0
  185.9810  180.0040  147.7770 O   0  0  0  0  0  1  0  0  0  0  0  0
  184.6900  178.3220  146.7180 C   0  0  0  0  0  1  0  0  0  0  0  0
  185.0540  179.1700  141.8730 C   0  0  0  0  0  2  0  0  0  0  0  0
  184.0250  178.0600  142.0690 C   0  0  0  0  0  2  0  0  0  0  0  0
  182.8210  178.5590  142.8460 C   0  0  0  0  0  2  0  0  0  0  0  0
  181.6100  178.6490  141.9380 C   0  0  0  0  0  2  0  0  0  0  0  0
  182.0130  178.9080  140.4810 C   0  0  0  0  0  2  0  0  0  0  0  0
  181.1820  179.8040  137.9150 O   0  0  0  0  0  0  0  0  0  0  0  0
  181.2110  178.1170  139.5510 N   0  0  0  0  0  0  0  0  0  0  0  0
  180.1450  177.7880  137.2440 C   0  0  0  0  0  1  0  0  0  0  0  0
  180.8700  178.6290  138.2420 C   0  0  0  0  0  0  0  0  0  0  0  0
  182.2460  175.8950  139.5300 C   0  0  0  0  0  1  0  0  0  0  0  0
  181.0140  176.7060  139.8890 C   0  0  0  0  0  2  0  0  0  0  0  0
  1 23  2  0  0  0  0
  2 24  1  0  0  0  0
  2 22  2  0  0  0  0
  3 20  2  0  0  0  0
  3 24  1  0  0  0  0
  4  3  1  0  0  0  0
  6  9  1  0  0  0  0
  7 27  2  0  0  0  0
  7  4  1  0  0  0  0
  8  7  1  0  0  0  0
  9  5  1  0  0  0  0
 10  4  2  0  0  0  0
 10 12  1  0  0  0  0
 11 26  2  0  0  0  0
 12 39  1  0  0  0  0
 12 20  1  0  0  0  0
 14 16  2  0  0  0  0
 15  9  2  0  0  0  0
 16 10  1  0  0  0  0
 17 16  1  0  0  0  0
 18 13  2  0  0  0  0
 18 25  1  0  0  0  0
 19 17  2  0  0  0  0
 19  8  1  0  0  0  0
 20  1  1  0  0  0  0
 21 11  1  0  0  0  0
 21  6  2  0  0  0  0
 22 11  1  0  0  0  0
 23  6  1  0  0  0  0
 23 35  1  0  0  0  0
 24 21  1  0  0  0  0
 25 19  1  0  0  0  0
 26 15  1  0  0  0  0
 27  2  1  0  0  0  0
 28 31  1  0  0  0  0
 28 18  1  0  0  0  0
 29 30  1  0  0  0  0
 30 34  1  0  0  0  0
 31 34  1  0  0  0  0
 32 29  2  0  0  0  0
 32 31  1  0  0  0  0
 34 33  2  0  0  0  0
 35 36  1  0  0  0  0
 36 38  1  1  0  0  0
 36 37  1  0  0  0  0
 39 40  1  0  0  0  0
 40 41  1  0  0  0  0
 42 41  1  0  0  0  0
 43 42  1  0  0  0  0
 44 47  2  0  0  0  0
 45 49  1  0  0  0  0
 45 43  1  0  0  0  0
 46 47  1  0  0  0  0
 47 45  1  0  0  0  0
 48 49  1  0  0  0  0
M  END
>  <MODEL>
5

>  <REMARK>
 VINA RESULT:      -9.2      2.442      8.117
  Name = 
  11 active torsions:
  status: ('A' for Active; 'I' for Inactive)
    1  A    between atoms: C_1  and  N_22
    2  A    between atoms: C_1  and  C_31
    3  A    between atoms: C_3  and  C_6
    4  A    between atoms: C_3  and  C_41
    5  A    between atoms: C_6  and  C_36
    6  A    between atoms: C_10  and  N_30
    7  A    between atoms: C_20  and  N_43
    8  A    between atoms: N_23  and  C_36
    9  A    between atoms: C_24  and  C_41
   10  A    between atoms: C_24  and  N_43
   11  A    between atoms: N_30  and  C_42
                            x       y       z     vdW  Elec       q    Type
                         _______ _______ _______ _____ _____    ______ ____

>  <TORSDO>
F 11

$$$$
=
 OpenBabel10232410053D

 49 55  0  0  1  0  0  0  0  0999 V2000
  186.1530  178.2830  142.5050 C   0  0  0  0  0  3  0  0  0  0  0  0
  190.3880  177.3030  143.1320 C   0  0  0  0  0  0  0  0  0  0  0  0
  188.4550  177.7170  141.8790 C   0  0  0  0  0  0  0  0  0  0  0  0
  189.1500  177.5990  140.7140 C   0  0  0  0  0  0  0  0  0  0  0  0
  185.8640  178.0250  146.9370 C   0  0  0  0  0  1  0  0  0  0  0  0
  187.2670  177.8810  144.7670 C   0  0  0  0  0  0  0  0  0  0  0  0
  190.5320  177.4070  140.7130 C   0  0  0  0  0  0  0  0  0  0  0  0
  191.3070  177.5960  139.4570 C   0  0  0  0  0  2  0  0  0  0  0  0
  187.1410  177.7970  146.2020 C   0  0  0  0  0  0  0  0  0  0  0  0
  188.2540  177.8010  139.6910 C   0  0  0  0  0  0  0  0  0  0  0  0
  189.6130  177.3030  145.1460 C   0  0  0  0  0  0  0  0  0  0  0  0
  187.0300  178.0660  140.2350 N   0  0  0  0  0  0  0  0  0  0  0  0
  193.8070  176.6490  138.5000 O   0  0  0  0  0  0  0  0  0  0  0  0
  187.6750  177.8610  137.4010 O   0  0  0  0  0  0  0  0  0  0  0  0
  188.2180  177.4640  146.9810 N   0  0  0  0  0  0  0  0  0  0  0  0
  188.5310  177.5300  138.2590 C   0  0  0  0  0  0  0  0  0  0  0  0
  189.6620  176.7550  137.8290 N   0  0  0  0  0  0  0  0  0  0  0  0
  193.1770  175.6610  138.0340 C   0  0  0  0  0  0  0  0  0  0  0  0
  190.8560  176.6900  138.3430 C   0  0  0  0  0  0  0  0  0  0  0  0
  187.1620  178.0140  141.5920 C   0  0  0  0  0  0  0  0  0  0  0  0
  188.5690  177.5830  144.2980 C   0  0  0  0  0  0  0  0  0  0  0  0
  190.8000  177.1200  144.4440 C   0  0  0  0  0  3  0  0  0  0  0  0
  186.1700  178.2720  143.9170 C   0  0  0  0  0  0  0  0  0  0  0  0
  189.0630  177.5860  143.0620 N   0  0  0  0  0  0  0  0  0  0  0  0
  191.7670  175.7320  137.7930 N   0  0  0  0  0  2  0  0  0  0  0  0
  189.4300  177.2230  146.4760 N   0  0  0  0  0  0  0  0  0  0  0  0
  191.1820  177.2500  141.9630 C   0  0  0  0  0  3  0  0  0  0  0  0
  193.9160  174.4060  137.7280 C   0  0  0  0  0  2  0  0  0  0  0  0
  197.3700  174.5740  136.2910 C   0  0  0  0  0  3  0  0  0  0  0  0
  197.6750  174.1840  137.7400 C   0  0  0  0  0  2  0  0  0  0  0  0
  195.3280  174.6840  137.5230 N   0  0  0  0  0  0  0  0  0  0  0  0
  195.8850  174.9670  136.2160 C   0  0  0  0  0  3  0  0  0  0  0  0
  196.1350  173.9020  139.5800 O   0  0  0  0  0  0  0  0  0  0  0  0
  196.3500  174.2310  138.3850 C   0  0  0  0  0  0  0  0  0  0  0  0
  184.9610  178.7520  144.5280 N   0  0  0  0  0  2  0  0  0  0  0  0
  183.8310  179.3180  143.7940 C   0  0  2  0  0  3  0  0  0  0  0  0
  183.7220  180.6730  144.1000 O   0  0  0  0  0  1  0  0  0  0  0  0
  182.5530  178.6140  144.2080 C   0  0  0  0  0  1  0  0  0  0  0  0
  185.8140  178.4160  139.4980 C   0  0  0  0  0  2  0  0  0  0  0  0
  184.8400  179.1670  140.4010 C   0  0  0  0  0  2  0  0  0  0  0  0
  183.4250  179.1010  139.8570 C   0  0  0  0  0  2  0  0  0  0  0  0
  183.3690  178.1920  138.6450 C   0  0  0  0  0  2  0  0  0  0  0  0
  181.9240  177.8540  138.2560 C   0  0  0  0  0  2  0  0  0  0  0  0
  182.5520  176.0660  136.1380 O   0  0  0  0  0  0  0  0  0  0  0  0
  181.6780  176.4140  138.2920 N   0  0  0  0  0  0  0  0  0  0  0  0
  181.9240  174.0820  137.2590 C   0  0  0  0  0  1  0  0  0  0  0  0
  182.0720  175.5660  137.1890 C   0  0  0  0  0  0  0  0  0  0  0  0
  180.3300  176.7840  140.3050 C   0  0  0  0  0  1  0  0  0  0  0  0
  181.2810  175.8470  139.5820 C   0  0  0  0  0  2  0  0  0  0  0  0
  1 23  2  0  0  0  0
  2 22  2  0  0  0  0
  3 24  1  0  0  0  0
  4  3  1  0  0  0  0
  6  9  1  0  0  0  0
  7  4  1  0  0  0  0
  7 27  2  0  0  0  0
  8  7  1  0  0  0  0
  9  5  1  0  0  0  0
  9 15  2  0  0  0  0
 10 12  1  0  0  0  0
 10  4  2  0  0  0  0
 11 26  2  0  0  0  0
 12 20  1  0  0  0  0
 14 16  2  0  0  0  0
 16 10  1  0  0  0  0
 17 16  1  0  0  0  0
 17 19  2  0  0  0  0
 18 13  2  0  0  0  0
 19  8  1  0  0  0  0
 20  3  2  0  0  0  0
 20  1  1  0  0  0  0
 21  6  2  0  0  0  0
 21 11  1  0  0  0  0
 22 11  1  0  0  0  0
 23 35  1  0  0  0  0
 23  6  1  0  0  0  0
 24  2  1  0  0  0  0
 24 21  1  0  0  0  0
 25 18  1  0  0  0  0
 25 19  1  0  0  0  0
 26 15  1  0  0  0  0
 27  2  1  0  0  0  0
 28 18  1  0  0  0  0
 29 30  1  0  0  0  0
 30 34  1  0  0  0  0
 31 28  1  0  0  0  0
 31 34  1  0  0  0  0
 32 29  2  0  0  0  0
 32 31  1  0  0  0  0
 34 33  2  0  0  0  0
 36 37  1  0  0  0  0
 36 38  1  1  0  0  0
 36 35  1  0  0  0  0
 39 12  1  0  0  0  0
 39 40  1  0  0  0  0
 41 40  1  0  0  0  0
 42 41  1  0  0  0  0
 43 45  1  0  0  0  0
 43 42  1  0  0  0  0
 44 47  2  0  0  0  0
 45 49  1  0  0  0  0
 47 46  1  0  0  0  0
 47 45  1  0  0  0  0
 49 48  1  0  0  0  0
M  END
>  <MODEL>
6

>  <REMARK>
 VINA RESULT:      -8.3      3.148      9.094
  Name = 
  11 active torsions:
  status: ('A' for Active; 'I' for Inactive)
    1  A    between atoms: C_1  and  N_22
    2  A    between atoms: C_1  and  C_31
    3  A    between atoms: C_3  and  C_6
    4  A    between atoms: C_3  and  C_41
    5  A    between atoms: C_6  and  C_36
    6  A    between atoms: C_10  and  N_30
    7  A    between atoms: C_20  and  N_43
    8  A    between atoms: N_23  and  C_36
    9  A    between atoms: C_24  and  C_41
   10  A    between atoms: C_24  and  N_43
   11  A    between atoms: N_30  and  C_42
                            x       y       z     vdW  Elec       q    Type
                         _______ _______ _______ _____ _____    ______ ____

>  <TORSDO>
F 11

$$$$
=
 OpenBabel10232410053D

 49 55  0  0  1  0  0  0  0  0999 V2000
  191.0730  175.8300  138.4550 C   0  0  0  0  0  3  0  0  0  0  0  0
  187.2050  176.0420  136.3870 C   0  0  0  0  0  0  0  0  0  0  0  0
  188.7510  176.5190  138.0790 C   0  0  0  0  0  0  0  0  0  0  0  0
  187.8730  177.3690  138.6810 C   0  0  0  0  0  0  0  0  0  0  0  0
  192.1020  172.8150  135.3500 C   0  0  0  0  0  1  0  0  0  0  0  0
  190.4190  174.4860  136.3860 C   0  0  0  0  0  0  0  0  0  0  0  0
  186.6360  177.6570  138.1050 C   0  0  0  0  0  0  0  0  0  0  0  0
  185.8370  178.8090  138.6020 C   0  0  0  0  0  2  0  0  0  0  0  0
  190.7770  173.4990  135.3960 C   0  0  0  0  0  0  0  0  0  0  0  0
  188.5030  177.8710  139.7950 C   0  0  0  0  0  0  0  0  0  0  0  0
  188.2630  174.5580  135.2320 C   0  0  0  0  0  0  0  0  0  0  0  0
  189.7630  177.3480  139.8510 N   0  0  0  0  0  0  0  0  0  0  0  0
  183.0800  179.4880  138.5490 O   0  0  0  0  0  0  0  0  0  0  0  0
  188.5320  179.1500  141.7810 O   0  0  0  0  0  0  0  0  0  0  0  0
  189.8780  173.1100  134.4370 N   0  0  0  0  0  0  0  0  0  0  0  0
  187.8320  178.6450  140.8680 C   0  0  0  0  0  0  0  0  0  0  0  0
  186.4020  178.7000  140.9960 N   0  0  0  0  0  0  0  0  0  0  0  0
  182.9760  178.8680  139.6430 C   0  0  0  0  0  0  0  0  0  0  0  0
  185.4940  178.7040  140.0640 C   0  0  0  0  0  0  0  0  0  0  0  0
  189.9110  176.5120  138.7830 C   0  0  0  0  0  0  0  0  0  0  0  0
  189.0920  174.9620  136.2490 C   0  0  0  0  0  0  0  0  0  0  0  0
  187.0440  175.2260  135.2770 C   0  0  0  0  0  3  0  0  0  0  0  0
  191.3490  174.9550  137.3820 C   0  0  0  0  0  0  0  0  0  0  0  0
  188.4290  175.8810  136.9490 N   0  0  0  0  0  0  0  0  0  0  0  0
  184.1220  178.6320  140.4690 N   0  0  0  0  0  2  0  0  0  0  0  0
  188.6490  173.6210  134.3470 N   0  0  0  0  0  0  0  0  0  0  0  0
  186.2800  176.9720  136.9160 C   0  0  0  0  0  3  0  0  0  0  0  0
  181.6400  178.3780  140.0780 C   0  0  0  0  0  2  0  0  0  0  0  0
  181.7630  175.1140  138.2450 C   0  0  0  0  0  3  0  0  0  0  0  0
  180.8450  175.9270  137.3300 C   0  0  0  0  0  2  0  0  0  0  0  0
  181.2760  177.1750  139.3460 N   0  0  0  0  0  0  0  0  0  0  0  0
  181.9420  175.9060  139.5510 C   0  0  0  0  0  3  0  0  0  0  0  0
  180.0200  178.1770  137.6390 O   0  0  0  0  0  0  0  0  0  0  0  0
  180.6580  177.1860  138.0770 C   0  0  0  0  0  0  0  0  0  0  0  0
  192.7250  174.5510  137.2840 N   0  0  0  0  0  2  0  0  0  0  0  0
  193.8380  175.2430  137.9310 C   0  0  2  0  0  3  0  0  0  0  0  0
  194.2360  176.3120  137.1320 O   0  0  0  0  0  1  0  0  0  0  0  0
  195.0050  174.2860  138.0930 C   0  0  0  0  0  1  0  0  0  0  0  0
  190.7940  177.6810  140.8370 C   0  0  0  0  0  2  0  0  0  0  0  0
  190.7710  176.6850  141.9920 C   0  0  0  0  0  2  0  0  0  0  0  0
  191.4520  177.2550  143.2230 C   0  0  0  0  0  2  0  0  0  0  0  0
  190.4290  177.8890  144.1440 C   0  0  0  0  0  2  0  0  0  0  0  0
  189.4800  176.8430  144.7430 C   0  0  0  0  0  2  0  0  0  0  0  0
  190.4470  176.7700  147.4150 O   0  0  0  0  0  0  0  0  0  0  0  0
  188.7560  177.3700  145.8970 N   0  0  0  0  0  0  0  0  0  0  0  0
  188.6560  177.9680  148.3870 C   0  0  0  0  0  1  0  0  0  0  0  0
  189.3400  177.3370  147.2200 C   0  0  0  0  0  0  0  0  0  0  0  0
  186.4180  177.2740  145.1670 C   0  0  0  0  0  1  0  0  0  0  0  0
  187.5610  178.1680  145.6150 C   0  0  0  0  0  2  0  0  0  0  0  0
  1 20  1  0  0  0  0
  2 27  1  0  0  0  0
  2 24  1  0  0  0  0
  3  4  1  0  0  0  0
  3 20  2  0  0  0  0
  4 10  2  0  0  0  0
  5  9  1  0  0  0  0
  6 23  1  0  0  0  0
  7  8  1  0  0  0  0
  7  4  1  0  0  0  0
  8 19  1  0  0  0  0
  9  6  2  0  0  0  0
 10 12  1  0  0  0  0
 10 16  1  0  0  0  0
 11 22  1  0  0  0  0
 11 21  2  0  0  0  0
 12 39  1  0  0  0  0
 13 18  2  0  0  0  0
 15  9  1  0  0  0  0
 16 17  1  0  0  0  0
 16 14  2  0  0  0  0
 18 28  1  0  0  0  0
 18 25  1  0  0  0  0
 19 25  1  0  0  0  0
 19 17  2  0  0  0  0
 20 12  1  0  0  0  0
 21  6  1  0  0  0  0
 21 24  1  0  0  0  0
 22  2  2  0  0  0  0
 23  1  2  0  0  0  0
 24  3  1  0  0  0  0
 26 15  2  0  0  0  0
 26 11  1  0  0  0  0
 27  7  2  0  0  0  0
 29 32  2  0  0  0  0
 30 34  1  0  0  0  0
 30 29  1  0  0  0  0
 31 32  1  0  0  0  0
 31 28  1  0  0  0  0
 33 34  2  0  0  0  0
 34 31  1  0  0  0  0
 35 23  1  0  0  0  0
 35 36  1  0  0  0  0
 36 38  1  6  0  0  0
 37 36  1  0  0  0  0
 39 40  1  0  0  0  0
 40 41  1  0  0  0  0
 41 42  1  0  0  0  0
 42 43  1  0  0  0  0
 43 45  1  0  0  0  0
 45 47  1  0  0  0  0
 47 44  2  0  0  0  0
 47 46  1  0  0  0  0
 48 49  1  0  0  0  0
 49 45  1  0  0  0  0
M  END
>  <MODEL>
7

>  <REMARK>
 VINA RESULT:      -8.3      2.778      7.823
  Name = 
  11 active torsions:
  status: ('A' for Active; 'I' for Inactive)
    1  A    between atoms: C_1  and  N_22
    2  A    between atoms: C_1  and  C_31
    3  A    between atoms: C_3  and  C_6
    4  A    between atoms: C_3  and  C_41
    5  A    between atoms: C_6  and  C_36
    6  A    between atoms: C_10  and  N_30
    7  A    between atoms: C_20  and  N_43
    8  A    between atoms: N_23  and  C_36
    9  A    between atoms: C_24  and  C_41
   10  A    between atoms: C_24  and  N_43
   11  A    between atoms: N_30  and  C_42
                            x       y       z     vdW  Elec       q    Type
                         _______ _______ _______ _____ _____    ______ ____

>  <TORSDO>
F 11

$$$$
=
 OpenBabel10232410053D

 49 55  0  0  1  0  0  0  0  0999 V2000
  184.4720  177.8080  137.3170 C   0  0  0  0  0  3  0  0  0  0  0  0
  185.1540  178.7040  141.5630 C   0  0  0  0  0  0  0  0  0  0  0  0
  185.7640  178.1380  139.3740 C   0  0  0  0  0  0  0  0  0  0  0  0
  187.0850  178.1590  139.7070 C   0  0  0  0  0  0  0  0  0  0  0  0
  180.1600  178.0350  138.3870 C   0  0  0  0  0  1  0  0  0  0  0  0
  182.6530  178.1860  139.0670 C   0  0  0  0  0  0  0  0  0  0  0  0
  187.5030  178.5400  140.9820 C   0  0  0  0  0  0  0  0  0  0  0  0
  188.9350  178.8590  141.2280 C   0  0  0  0  0  2  0  0  0  0  0  0
  181.2470  178.2460  139.3860 C   0  0  0  0  0  0  0  0  0  0  0  0
  187.7890  177.8490  138.5680 C   0  0  0  0  0  0  0  0  0  0  0  0
  183.0000  178.6540  141.4420 C   0  0  0  0  0  0  0  0  0  0  0  0
  186.9010  177.6680  137.5470 N   0  0  0  0  0  0  0  0  0  0  0  0
  190.6010  178.8820  143.5280 O   0  0  0  0  0  0  0  0  0  0  0  0
  189.7960  177.3720  137.4170 O   0  0  0  0  0  0  0  0  0  0  0  0
  180.8290  178.4790  140.6710 N   0  0  0  0  0  0  0  0  0  0  0  0
  189.2360  177.5280  138.5300 C   0  0  0  0  0  0  0  0  0  0  0  0
  189.9870  177.2240  139.7180 N   0  0  0  0  0  0  0  0  0  0  0  0
  190.8520  177.6720  143.2740 C   0  0  0  0  0  0  0  0  0  0  0  0
  189.8580  177.7120  140.9180 C   0  0  0  0  0  0  0  0  0  0  0  0
  185.6470  177.8510  138.0530 C   0  0  0  0  0  0  0  0  0  0  0  0
  183.4920  178.3780  140.1910 C   0  0  0  0  0  0  0  0  0  0  0  0
  184.0270  178.8740  142.3530 C   0  0  0  0  0  3  0  0  0  0  0  0
  183.1320  177.9880  137.7220 C   0  0  0  0  0  0  0  0  0  0  0  0
  184.8200  178.4180  140.2790 N   0  0  0  0  0  0  0  0  0  0  0  0
  190.6550  177.1380  141.9590 N   0  0  0  0  0  2  0  0  0  0  0  0
  181.6770  178.6810  141.6820 N   0  0  0  0  0  0  0  0  0  0  0  0
  186.5080  178.8220  141.9520 C   0  0  0  0  0  3  0  0  0  0  0  0
  191.3640  176.7920  144.3590 C   0  0  0  0  0  2  0  0  0  0  0  0
  188.4840  177.4800  146.6520 C   0  0  0  0  0  3  0  0  0  0  0  0
  189.6400  177.3940  147.6530 C   0  0  0  0  0  2  0  0  0  0  0  0
  190.4230  176.7500  145.4670 N   0  0  0  0  0  0  0  0  0  0  0  0
  189.0040  176.9800  145.2940 C   0  0  0  0  0  3  0  0  0  0  0  0
  191.9620  176.8800  147.2300 O   0  0  0  0  0  0  0  0  0  0  0  0
  190.7830  176.9940  146.8100 C   0  0  0  0  0  0  0  0  0  0  0  0
  182.1850  178.0170  136.6420 N   0  0  0  0  0  2  0  0  0  0  0  0
  182.3270  177.2650  135.3970 C   0  0  2  0  0  3  0  0  0  0  0  0
  182.5330  178.1570  134.3460 O   0  0  0  0  0  1  0  0  0  0  0  0
  181.0580  176.4760  135.1330 C   0  0  0  0  0  1  0  0  0  0  0  0
  187.2360  177.4000  136.1460 C   0  0  0  0  0  2  0  0  0  0  0  0
  186.8420  175.9770  135.7650 C   0  0  0  0  0  2  0  0  0  0  0  0
  187.8180  174.9640  136.3360 C   0  0  0  0  0  2  0  0  0  0  0  0
  187.1820  173.5890  136.3840 C   0  0  0  0  0  2  0  0  0  0  0  0
  185.9020  173.5270  135.5390 C   0  0  0  0  0  2  0  0  0  0  0  0
  185.2060  170.9840  134.4790 O   0  0  0  0  0  0  0  0  0  0  0  0
  184.9100  172.6320  136.1280 N   0  0  0  0  0  0  0  0  0  0  0  0
  183.7150  170.3660  136.2070 C   0  0  0  0  0  1  0  0  0  0  0  0
  184.6480  171.3310  135.5530 C   0  0  0  0  0  0  0  0  0  0  0  0
  183.5540  174.2420  137.3850 C   0  0  0  0  0  1  0  0  0  0  0  0
  184.4090  172.9890  137.4570 C   0  0  0  0  0  2  0  0  0  0  0  0
  1 23  2  0  0  0  0
  1 20  1  0  0  0  0
  2 27  1  0  0  0  0
  2 22  2  0  0  0  0
  3  4  1  0  0  0  0
  3 24  1  0  0  0  0
  4  7  1  0  0  0  0
  5  9  1  0  0  0  0
  6  9  2  0  0  0  0
  6 21  1  0  0  0  0
  7  8  1  0  0  0  0
  7 27  2  0  0  0  0
  9 15  1  0  0  0  0
 10  4  2  0  0  0  0
 11 26  1  0  0  0  0
 11 22  1  0  0  0  0
 12 20  1  0  0  0  0
 12 10  1  0  0  0  0
 14 16  2  0  0  0  0
 15 26  2  0  0  0  0
 16 10  1  0  0  0  0
 16 17  1  0  0  0  0
 17 19  2  0  0  0  0
 18 13  2  0  0  0  0
 18 28  1  0  0  0  0
 19  8  1  0  0  0  0
 19 25  1  0  0  0  0
 20  3  2  0  0  0  0
 21 24  1  0  0  0  0
 21 11  2  0  0  0  0
 23  6  1  0  0  0  0
 24  2  1  0  0  0  0
 25 18  1  0  0  0  0
 28 31  1  0  0  0  0
 29 30  1  0  0  0  0
 31 34  1  0  0  0  0
 32 31  1  0  0  0  0
 32 29  2  0  0  0  0
 34 33  2  0  0  0  0
 34 30  1  0  0  0  0
 35 23  1  0  0  0  0
 36 38  1  6  0  0  0
 36 35  1  0  0  0  0
 37 36  1  0  0  0  0
 39 12  1  0  0  0  0
 40 39  1  0  0  0  0
 40 41  1  0  0  0  0
 41 42  1  0  0  0  0
 43 45  1  0  0  0  0
 43 42  1  0  0  0  0
 44 47  2  0  0  0  0
 45 49  1  0  0  0  0
 47 45  1  0  0  0  0
 47 46  1  0  0  0  0
 48 49  1  0  0  0  0
M  END
>  <MODEL>
8

>  <REMARK>
 VINA RESULT:      -8.1      3.017      8.746
  Name = 
  11 active torsions:
  status: ('A' for Active; 'I' for Inactive)
    1  A    between atoms: C_1  and  N_22
    2  A    between atoms: C_1  and  C_31
    3  A    between atoms: C_3  and  C_6
    4  A    between atoms: C_3  and  C_41
    5  A    between atoms: C_6  and  C_36
    6  A    between atoms: C_10  and  N_30
    7  A    between atoms: C_20  and  N_43
    8  A    between atoms: N_23  and  C_36
    9  A    between atoms: C_24  and  C_41
   10  A    between atoms: C_24  and  N_43
   11  A    between atoms: N_30  and  C_42
                            x       y       z     vdW  Elec       q    Type
                         _______ _______ _______ _____ _____    ______ ____

>  <TORSDO>
F 11

$$$$
=
 OpenBabel10232410053D

 49 55  0  0  1  0  0  0  0  0999 V2000
  191.8490  175.1410  137.9430 C   0  0  0  0  0  3  0  0  0  0  0  0
  188.4320  174.2840  135.3200 C   0  0  0  0  0  0  0  0  0  0  0  0
  189.5940  175.4020  137.0170 C   0  0  0  0  0  0  0  0  0  0  0  0
  188.5590  176.2700  137.1930 C   0  0  0  0  0  0  0  0  0  0  0  0
  193.6590  171.5320  136.0750 C   0  0  0  0  0  1  0  0  0  0  0  0
  191.6940  173.2020  136.2900 C   0  0  0  0  0  0  0  0  0  0  0  0
  187.4340  176.2290  136.3700 C   0  0  0  0  0  0  0  0  0  0  0  0
  186.4730  177.3660  136.3700 C   0  0  0  0  0  2  0  0  0  0  0  0
  192.3030  172.0310  135.7060 C   0  0  0  0  0  0  0  0  0  0  0  0
  188.9300  177.1370  138.1940 C   0  0  0  0  0  0  0  0  0  0  0  0
  189.7940  172.6800  134.8410 C   0  0  0  0  0  0  0  0  0  0  0  0
  190.1920  176.8120  138.6010 N   0  0  0  0  0  0  0  0  0  0  0  0
  183.7330  177.6540  135.6830 O   0  0  0  0  0  0  0  0  0  0  0  0
  188.4920  178.9120  139.6890 O   0  0  0  0  0  0  0  0  0  0  0  0
  191.6310  171.2810  134.7770 N   0  0  0  0  0  0  0  0  0  0  0  0
  188.0150  178.0890  138.8680 C   0  0  0  0  0  0  0  0  0  0  0  0
  186.5860  177.9990  138.7460 N   0  0  0  0  0  0  0  0  0  0  0  0
  183.4720  177.3550  136.8800 C   0  0  0  0  0  0  0  0  0  0  0  0
  185.8710  177.6300  137.7240 C   0  0  0  0  0  0  0  0  0  0  0  0
  190.5990  175.7360  137.8660 C   0  0  0  0  0  0  0  0  0  0  0  0
  190.3850  173.4520  135.8100 C   0  0  0  0  0  0  0  0  0  0  0  0
  188.5430  173.1770  134.4910 C   0  0  0  0  0  3  0  0  0  0  0  0
  192.3840  174.0420  137.2360 C   0  0  0  0  0  0  0  0  0  0  0  0
  189.5370  174.4390  136.0910 N   0  0  0  0  0  0  0  0  0  0  0  0
  184.4570  177.5040  137.9090 N   0  0  0  0  0  2  0  0  0  0  0  0
  190.4070  171.5900  134.3460 N   0  0  0  0  0  0  0  0  0  0  0  0
  187.3580  175.2010  135.3970 C   0  0  0  0  0  3  0  0  0  0  0  0
  182.1170  176.8430  137.2240 C   0  0  0  0  0  2  0  0  0  0  0  0
  181.2670  179.7630  139.4080 C   0  0  0  0  0  3  0  0  0  0  0  0
  181.0190  178.5980  140.3690 C   0  0  0  0  0  2  0  0  0  0  0  0
  181.4580  177.7360  138.1630 N   0  0  0  0  0  0  0  0  0  0  0  0
  181.4570  179.1750  138.0000 C   0  0  0  0  0  3  0  0  0  0  0  0
  181.1780  176.2270  139.9350 O   0  0  0  0  0  0  0  0  0  0  0  0
  181.2160  177.4120  139.5150 C   0  0  0  0  0  0  0  0  0  0  0  0
  193.7790  173.8020  137.4810 N   0  0  0  0  0  2  0  0  0  0  0  0
  194.6690  174.7310  138.1750 C   0  0  2  0  0  3  0  0  0  0  0  0
  195.2900  175.5540  137.2380 O   0  0  0  0  0  1  0  0  0  0  0  0
  195.7310  173.9510  138.9270 C   0  0  0  0  0  1  0  0  0  0  0  0
  190.9920  177.5330  139.5930 C   0  0  0  0  0  2  0  0  0  0  0  0
  190.7620  176.9550  140.9870 C   0  0  0  0  0  2  0  0  0  0  0  0
  191.7300  177.5490  141.9940 C   0  0  0  0  0  2  0  0  0  0  0  0
  190.9720  178.1390  143.1670 C   0  0  0  0  0  2  0  0  0  0  0  0
  190.3760  177.0460  144.0640 C   0  0  0  0  0  2  0  0  0  0  0  0
  187.7030  176.6530  143.1810 O   0  0  0  0  0  0  0  0  0  0  0  0
  189.1930  177.5190  144.7780 N   0  0  0  0  0  0  0  0  0  0  0  0
  186.6480  177.6220  145.0620 C   0  0  0  0  0  1  0  0  0  0  0  0
  187.8640  177.2360  144.2850 C   0  0  0  0  0  0  0  0  0  0  0  0
  189.6570  176.9000  147.1040 C   0  0  0  0  0  1  0  0  0  0  0  0
  189.4070  178.0390  146.1310 C   0  0  0  0  0  2  0  0  0  0  0  0
  2 27  1  0  0  0  0
  2 24  1  0  0  0  0
  3  4  1  0  0  0  0
  3 20  2  0  0  0  0
  4 10  2  0  0  0  0
  6 23  1  0  0  0  0
  7  8  1  0  0  0  0
  7  4  1  0  0  0  0
  8 19  1  0  0  0  0
  9  5  1  0  0  0  0
  9  6  2  0  0  0  0
 10 12  1  0  0  0  0
 10 16  1  0  0  0  0
 11 21  2  0  0  0  0
 12 39  1  0  0  0  0
 13 18  2  0  0  0  0
 15  9  1  0  0  0  0
 16 14  2  0  0  0  0
 17 16  1  0  0  0  0
 18 28  1  0  0  0  0
 18 25  1  0  0  0  0
 19 25  1  0  0  0  0
 19 17  2  0  0  0  0
 20  1  1  0  0  0  0
 20 12  1  0  0  0  0
 21 24  1  0  0  0  0
 21  6  1  0  0  0  0
 22 11  1  0  0  0  0
 22  2  2  0  0  0  0
 23 35  1  0  0  0  0
 23  1  2  0  0  0  0
 24  3  1  0  0  0  0
 26 15  2  0  0  0  0
 26 11  1  0  0  0  0
 27  7  2  0  0  0  0
 28 31  1  0  0  0  0
 29 30  1  0  0  0  0
 31 34  1  0  0  0  0
 32 31  1  0  0  0  0
 32 29  2  0  0  0  0
 34 33  2  0  0  0  0
 34 30  1  0  0  0  0
 35 36  1  0  0  0  0
 36 38  1  6  0  0  0
 37 36  1  0  0  0  0
 39 40  1  0  0  0  0
 40 41  1  0  0  0  0
 41 42  1  0  0  0  0
 42 43  1  0  0  0  0
 43 45  1  0  0  0  0
 44 47  2  0  0  0  0
 45 49  1  0  0  0  0
 47 45  1  0  0  0  0
 47 46  1  0  0  0  0
 49 48  1  0  0  0  0
M  END
>  <MODEL>
9

>  <REMARK>
 VINA RESULT:      -7.9      2.875      8.242
  Name = 
  11 active torsions:
  status: ('A' for Active; 'I' for Inactive)
    1  A    between atoms: C_1  and  N_22
    2  A    between atoms: C_1  and  C_31
    3  A    between atoms: C_3  and  C_6
    4  A    between atoms: C_3  and  C_41
    5  A    between atoms: C_6  and  C_36
    6  A    between atoms: C_10  and  N_30
    7  A    between atoms: C_20  and  N_43
    8  A    between atoms: N_23  and  C_36
    9  A    between atoms: C_24  and  C_41
   10  A    between atoms: C_24  and  N_43
   11  A    between atoms: N_30  and  C_42
                            x       y       z     vdW  Elec       q    Type
                         _______ _______ _______ _____ _____    ______ ____

>  <TORSDO>
F 11

$$$$
