=
 OpenBabel10232408383D

 28 30  0  0  1  0  0  0  0  0999 V2000
  188.7940  177.7530  143.5750 C   0  0  0  0  0  0  0  0  0  0  0  0
  189.3520  177.7390  144.8830 C   0  0  0  0  0  0  0  0  0  0  0  0
  187.1250  177.6200  145.8420 C   0  0  0  0  0  3  0  0  0  0  0  0
  186.5660  177.6720  144.5630 C   0  0  0  0  0  3  0  0  0  0  0  0
  188.5050  177.6630  145.9980 C   0  0  0  0  0  3  0  0  0  0  0  0
  187.3810  177.7570  143.4250 C   0  0  0  0  0  0  0  0  0  0  0  0
  189.1760  177.4070  140.2930 C   0  0  0  0  0  0  0  0  0  0  0  0
  189.7140  177.9040  142.3820 C   0  0  2  0  0  3  0  0  0  0  0  0
  188.9640  178.3110  141.1960 N   0  0  0  0  0  0  0  0  0  0  0  0
  190.0490  176.3570  140.7130 N   0  0  0  0  0  0  0  0  0  0  0  0
  190.3720  176.6240  141.9410 C   0  0  0  0  0  3  0  0  0  0  0  0
  188.9650  178.8040  138.2440 C   0  0  0  0  0  1  0  0  0  0  0  0
  188.5940  177.4800  138.9090 C   0  0  1  0  0  3  0  0  0  0  0  0
  189.0960  176.2960  138.0820 C   0  0  0  0  0  2  0  0  0  0  0  0
  191.4750  175.8300  137.4100 C   0  0  0  0  0  0  0  0  0  0  0  0
  190.3100  176.6550  137.3620 N   0  0  0  0  0  2  0  0  0  0  0  0
  192.5570  176.2490  136.9110 O   0  0  0  0  0  0  0  0  0  0  0  0
  191.4260  174.5710  138.0100 O   0  0  0  0  0  1  0  0  0  0  0  0
  191.5180  178.6600  144.5320 O   0  0  0  0  0  0  0  0  0  0  0  0
  190.8170  177.7920  145.1260 C   0  0  0  0  0  0  0  0  0  0  0  0
  192.3500  176.0180  147.8010 N   0  0  0  0  0  0  0  0  0  0  0  0
  191.4770  176.8450  146.0430 C   0  0  0  0  0  0  0  0  0  0  0  0
  191.7220  177.0840  147.3410 N   0  0  0  0  0  2  0  0  0  0  0  0
  192.5180  175.1120  146.8450 N   0  0  0  0  0  0  0  0  0  0  0  0
  191.9810  175.6030  145.7130 C   0  0  0  0  0  3  0  0  0  0  0  0
  186.7910  177.8660  142.1430 O   0  0  0  0  0  0  0  0  0  0  0  0
  185.6450  179.2390  140.7780 N   0  0  0  0  0  1  0  0  0  0  0  0
  185.5570  178.4510  141.9470 N   0  0  0  0  0  2  0  0  0  0  0  0
  1  2  1  0  0  0  0
  2 20  1  0  0  0  0
  2  5  2  0  0  0  0
  3  5  1  0  0  0  0
  4  3  2  0  0  0  0
  6  1  2  0  0  0  0
  6  4  1  0  0  0  0
  7 10  1  0  0  0  0
  7  9  2  0  0  0  0
  8  1  1  1  0  0  0
  9  8  1  0  0  0  0
 10 11  2  0  0  0  0
 11  8  1  0  0  0  0
 13 12  1  6  0  0  0
 13  7  1  0  0  0  0
 14 13  1  0  0  0  0
 15 18  1  0  0  0  0
 16 15  1  0  0  0  0
 16 14  1  0  0  0  0
 17 15  2  0  0  0  0
 19 20  2  0  0  0  0
 20 22  1  0  0  0  0
 22 23  1  0  0  0  0
 23 21  1  0  0  0  0
 24 21  2  0  0  0  0
 25 22  2  0  0  0  0
 25 24  1  0  0  0  0
 26  6  1  0  0  0  0
 27 28  1  0  0  0  0
 28 26  1  0  0  0  0
M  END
>  <MODEL>
1

>  <REMARK>
 VINA RESULT:      -8.0      0.000      0.000
  Name = 
  8 active torsions:
  status: ('A' for Active; 'I' for Inactive)
    1  A    between atoms: C_4  and  C_8
    2  A    between atoms: C_4  and  C_12
    3  A    between atoms: C_6  and  C_10
    4  A    between atoms: C_7  and  C_9
    5  A    between atoms: C_9  and  C_27
    6  A    between atoms: N_14  and  O_26
    7  A    between atoms: N_17  and  C_27
    8  A    between atoms: O_26  and  C_28
                            x       y       z     vdW  Elec       q    Type
                         _______ _______ _______ _____ _____    ______ ____

>  <TORSDO>
F 8

$$$$
=
 OpenBabel10232408383D

 28 30  0  0  1  0  0  0  0  0999 V2000
  185.2270  178.2690  143.1540 C   0  0  0  0  0  0  0  0  0  0  0  0
  183.9280  178.3970  142.5910 C   0  0  0  0  0  0  0  0  0  0  0  0
  183.0680  179.1750  144.7230 C   0  0  0  0  0  3  0  0  0  0  0  0
  184.3320  179.0160  145.2950 C   0  0  0  0  0  3  0  0  0  0  0  0
  182.8690  178.8580  143.3850 C   0  0  0  0  0  3  0  0  0  0  0  0
  185.4140  178.5490  144.5350 C   0  0  0  0  0  0  0  0  0  0  0  0
  188.4180  177.3550  143.0070 C   0  0  0  0  0  0  0  0  0  0  0  0
  186.3480  177.7050  142.3060 C   0  0  2  0  0  3  0  0  0  0  0  0
  187.2280  176.8550  143.1050 N   0  0  0  0  0  0  0  0  0  0  0  0
  188.4970  178.5120  142.1730 N   0  0  0  0  0  0  0  0  0  0  0  0
  187.2900  178.7410  141.7550 C   0  0  0  0  0  3  0  0  0  0  0  0
  190.6810  176.3890  142.6320 C   0  0  0  0  0  1  0  0  0  0  0  0
  189.6200  176.7450  143.6710 C   0  0  1  0  0  3  0  0  0  0  0  0
  190.1780  177.7190  144.7090 C   0  0  0  0  0  2  0  0  0  0  0  0
  191.2320  176.7070  146.7580 C   0  0  0  0  0  0  0  0  0  0  0  0
  191.3210  177.1320  145.3960 N   0  0  0  0  0  2  0  0  0  0  0  0
  192.2780  176.3560  147.3700 O   0  0  0  0  0  0  0  0  0  0  0  0
  190.0000  176.6870  147.4130 O   0  0  0  0  0  1  0  0  0  0  0  0
  183.4430  176.8630  140.8350 O   0  0  0  0  0  0  0  0  0  0  0  0
  183.6390  178.0660  141.1700 C   0  0  0  0  0  0  0  0  0  0  0  0
  184.1810  180.6560  138.7920 N   0  0  0  0  0  0  0  0  0  0  0  0
  183.5820  179.1150  140.1360 C   0  0  0  0  0  0  0  0  0  0  0  0
  184.6470  179.7890  139.6720 N   0  0  0  0  0  2  0  0  0  0  0  0
  182.8610  180.5630  138.6820 N   0  0  0  0  0  0  0  0  0  0  0  0
  182.4440  179.6000  139.5230 C   0  0  0  0  0  3  0  0  0  0  0  0
  186.6710  178.3420  145.1500 O   0  0  0  0  0  0  0  0  0  0  0  0
  186.9850  178.3980  147.3770 N   0  0  0  0  0  1  0  0  0  0  0  0
  186.8230  177.5430  146.2650 N   0  0  0  0  0  2  0  0  0  0  0  0
  1  6  1  0  0  0  0
  2  1  2  0  0  0  0
  2  5  1  0  0  0  0
  3  4  1  0  0  0  0
  5  3  2  0  0  0  0
  6 26  1  0  0  0  0
  6  4  2  0  0  0  0
  7  9  2  0  0  0  0
  7 13  1  0  0  0  0
  8  9  1  0  0  0  0
  8  1  1  1  0  0  0
 10  7  1  0  0  0  0
 11 10  2  0  0  0  0
 11  8  1  0  0  0  0
 13 12  1  6  0  0  0
 13 14  1  0  0  0  0
 14 16  1  0  0  0  0
 15 17  2  0  0  0  0
 15 18  1  0  0  0  0
 16 15  1  0  0  0  0
 19 20  2  0  0  0  0
 20  2  1  0  0  0  0
 21 23  1  0  0  0  0
 22 20  1  0  0  0  0
 23 22  1  0  0  0  0
 24 21  2  0  0  0  0
 24 25  1  0  0  0  0
 25 22  2  0  0  0  0
 26 28  1  0  0  0  0
 28 27  1  0  0  0  0
M  END
>  <MODEL>
2

>  <REMARK>
 VINA RESULT:      -8.0      3.659      7.510
  Name = 
  8 active torsions:
  status: ('A' for Active; 'I' for Inactive)
    1  A    between atoms: C_4  and  C_8
    2  A    between atoms: C_4  and  C_12
    3  A    between atoms: C_6  and  C_10
    4  A    between atoms: C_7  and  C_9
    5  A    between atoms: C_9  and  C_27
    6  A    between atoms: N_14  and  O_26
    7  A    between atoms: N_17  and  C_27
    8  A    between atoms: O_26  and  C_28
                            x       y       z     vdW  Elec       q    Type
                         _______ _______ _______ _____ _____    ______ ____

>  <TORSDO>
F 8

$$$$
=
 OpenBabel10232408383D

 28 30  0  0  1  0  0  0  0  0999 V2000
  188.5050  177.8640  143.3640 C   0  0  0  0  0  0  0  0  0  0  0  0
  189.0850  177.8380  144.6620 C   0  0  0  0  0  0  0  0  0  0  0  0
  186.8830  177.5870  145.6510 C   0  0  0  0  0  3  0  0  0  0  0  0
  186.3010  177.6490  144.3830 C   0  0  0  0  0  3  0  0  0  0  0  0
  188.2620  177.6900  145.7870 C   0  0  0  0  0  3  0  0  0  0  0  0
  187.0910  177.8050  143.2350 C   0  0  0  0  0  0  0  0  0  0  0  0
  188.7620  177.8830  140.0510 C   0  0  0  0  0  0  0  0  0  0  0  0
  189.3970  178.0920  142.1610 C   0  0  2  0  0  3  0  0  0  0  0  0
  188.6420  178.6860  141.0600 N   0  0  0  0  0  0  0  0  0  0  0  0
  189.5700  176.7350  140.3130 N   0  0  0  0  0  0  0  0  0  0  0  0
  189.9490  176.8330  141.5500 C   0  0  0  0  0  3  0  0  0  0  0  0
  189.1180  178.9350  137.8230 C   0  0  0  0  0  1  0  0  0  0  0  0
  188.1450  178.1580  138.7090 C   0  0  1  0  0  3  0  0  0  0  0  0
  187.7460  176.8370  138.0510 C   0  0  0  0  0  2  0  0  0  0  0  0
  185.8840  177.3070  136.4260 C   0  0  0  0  0  0  0  0  0  0  0  0
  187.2670  177.0670  136.6940 N   0  0  0  0  0  2  0  0  0  0  0  0
  185.4790  177.3400  135.2300 O   0  0  0  0  0  0  0  0  0  0  0  0
  184.9820  177.4980  137.4730 O   0  0  0  0  0  1  0  0  0  0  0  0
  191.1900  178.9050  144.3500 O   0  0  0  0  0  0  0  0  0  0  0  0
  190.5500  177.9540  144.8830 C   0  0  0  0  0  0  0  0  0  0  0  0
  192.2750  176.0790  147.3650 N   0  0  0  0  0  0  0  0  0  0  0  0
  191.2800  176.9750  145.7090 C   0  0  0  0  0  0  0  0  0  0  0  0
  191.6040  177.1550  147.0000 N   0  0  0  0  0  2  0  0  0  0  0  0
  192.3940  175.2230  146.3570 N   0  0  0  0  0  0  0  0  0  0  0  0
  191.7790  175.7590  145.2870 C   0  0  0  0  0  3  0  0  0  0  0  0
  186.4760  177.9230  141.9660 O   0  0  0  0  0  0  0  0  0  0  0  0
  185.3030  179.3600  140.6940 N   0  0  0  0  0  1  0  0  0  0  0  0
  185.2280  178.4890  141.8030 N   0  0  0  0  0  2  0  0  0  0  0  0
  1  2  1  0  0  0  0
  2 20  1  0  0  0  0
  2  5  2  0  0  0  0
  3  5  1  0  0  0  0
  4  3  2  0  0  0  0
  6  1  2  0  0  0  0
  6  4  1  0  0  0  0
  7 10  1  0  0  0  0
  7  9  2  0  0  0  0
  8  1  1  1  0  0  0
  9  8  1  0  0  0  0
 10 11  2  0  0  0  0
 11  8  1  0  0  0  0
 13 12  1  6  0  0  0
 13  7  1  0  0  0  0
 14 13  1  0  0  0  0
 15 16  1  0  0  0  0
 15 18  1  0  0  0  0
 16 14  1  0  0  0  0
 17 15  2  0  0  0  0
 19 20  2  0  0  0  0
 20 22  1  0  0  0  0
 22 23  1  0  0  0  0
 23 21  1  0  0  0  0
 24 21  2  0  0  0  0
 25 22  2  0  0  0  0
 25 24  1  0  0  0  0
 26  6  1  0  0  0  0
 27 28  1  0  0  0  0
 28 26  1  0  0  0  0
M  END
>  <MODEL>
3

>  <REMARK>
 VINA RESULT:      -7.6      2.207      2.361
  Name = 
  8 active torsions:
  status: ('A' for Active; 'I' for Inactive)
    1  A    between atoms: C_4  and  C_8
    2  A    between atoms: C_4  and  C_12
    3  A    between atoms: C_6  and  C_10
    4  A    between atoms: C_7  and  C_9
    5  A    between atoms: C_9  and  C_27
    6  A    between atoms: N_14  and  O_26
    7  A    between atoms: N_17  and  C_27
    8  A    between atoms: O_26  and  C_28
                            x       y       z     vdW  Elec       q    Type
                         _______ _______ _______ _____ _____    ______ ____

>  <TORSDO>
F 8

$$$$
=
 OpenBabel10232408383D

 28 30  0  0  1  0  0  0  0  0999 V2000
  189.9190  176.9660  139.4470 C   0  0  0  0  0  0  0  0  0  0  0  0
  189.9980  176.4150  138.1390 C   0  0  0  0  0  0  0  0  0  0  0  0
  188.0240  177.6660  137.4820 C   0  0  0  0  0  3  0  0  0  0  0  0
  187.9160  178.1830  138.7750 C   0  0  0  0  0  3  0  0  0  0  0  0
  189.0510  176.7830  137.1730 C   0  0  0  0  0  3  0  0  0  0  0  0
  188.8390  177.8310  139.7710 C   0  0  0  0  0  0  0  0  0  0  0  0
  190.6830  176.8430  142.6790 C   0  0  0  0  0  0  0  0  0  0  0  0
  190.9060  176.5090  140.5010 C   0  0  2  0  0  3  0  0  0  0  0  0
  190.2120  176.1060  141.7230 N   0  0  0  0  0  0  0  0  0  0  0  0
  191.6970  177.7590  142.2620 N   0  0  0  0  0  0  0  0  0  0  0  0
  191.8400  177.5860  140.9840 C   0  0  0  0  0  3  0  0  0  0  0  0
  191.4390  176.4710  145.0210 C   0  0  0  0  0  1  0  0  0  0  0  0
  190.2380  176.7120  144.1080 C   0  0  1  0  0  3  0  0  0  0  0  0
  189.4830  177.9750  144.5240 C   0  0  0  0  0  2  0  0  0  0  0  0
  187.9390  177.7350  146.4950 C   0  0  0  0  0  0  0  0  0  0  0  0
  189.2420  177.9740  145.9610 N   0  0  0  0  0  2  0  0  0  0  0  0
  187.7320  177.9030  147.7300 O   0  0  0  0  0  1  0  0  0  0  0  0
  186.8960  177.3270  145.6630 O   0  0  0  0  0  0  0  0  0  0  0  0
  190.9060  174.2220  137.9560 O   0  0  0  0  0  0  0  0  0  0  0  0
  191.0630  175.4580  137.7400 C   0  0  0  0  0  0  0  0  0  0  0  0
  194.2020  176.8500  136.8140 N   0  0  0  0  0  0  0  0  0  0  0  0
  192.3070  175.9200  137.1000 C   0  0  0  0  0  0  0  0  0  0  0  0
  193.2870  176.5890  137.7290 N   0  0  0  0  0  2  0  0  0  0  0  0
  193.8410  176.3780  135.6270 N   0  0  0  0  0  0  0  0  0  0  0  0
  192.6420  175.7850  135.7670 C   0  0  0  0  0  3  0  0  0  0  0  0
  188.6760  178.3220  141.0880 O   0  0  0  0  0  0  0  0  0  0  0  0
  186.8440  177.9060  142.3250 N   0  0  0  0  0  1  0  0  0  0  0  0
  187.4900  178.8750  141.5270 N   0  0  0  0  0  2  0  0  0  0  0  0
  1  6  1  0  0  0  0
  2  1  2  0  0  0  0
  3  4  1  0  0  0  0
  4  6  2  0  0  0  0
  5  3  2  0  0  0  0
  5  2  1  0  0  0  0
  6 26  1  0  0  0  0
  7 13  1  0  0  0  0
  8  1  1  6  0  0  0
  8 11  1  0  0  0  0
  8  9  1  0  0  0  0
  9  7  2  0  0  0  0
 10  7  1  0  0  0  0
 11 10  2  0  0  0  0
 13 14  1  0  0  0  0
 13 12  1  1  0  0  0
 14 16  1  0  0  0  0
 15 17  1  0  0  0  0
 16 15  1  0  0  0  0
 18 15  2  0  0  0  0
 20 19  2  0  0  0  0
 20  2  1  0  0  0  0
 21 23  1  0  0  0  0
 22 23  1  0  0  0  0
 22 20  1  0  0  0  0
 24 25  1  0  0  0  0
 24 21  2  0  0  0  0
 25 22  2  0  0  0  0
 26 28  1  0  0  0  0
 28 27  1  0  0  0  0
M  END
>  <MODEL>
4

>  <REMARK>
 VINA RESULT:      -7.4      2.146      7.333
  Name = 
  8 active torsions:
  status: ('A' for Active; 'I' for Inactive)
    1  A    between atoms: C_4  and  C_8
    2  A    between atoms: C_4  and  C_12
    3  A    between atoms: C_6  and  C_10
    4  A    between atoms: C_7  and  C_9
    5  A    between atoms: C_9  and  C_27
    6  A    between atoms: N_14  and  O_26
    7  A    between atoms: N_17  and  C_27
    8  A    between atoms: O_26  and  C_28
                            x       y       z     vdW  Elec       q    Type
                         _______ _______ _______ _____ _____    ______ ____

>  <TORSDO>
F 8

$$$$
=
 OpenBabel10232408383D

 28 30  0  0  1  0  0  0  0  0999 V2000
  189.8240  177.2520  139.2160 C   0  0  0  0  0  0  0  0  0  0  0  0
  190.0630  176.6900  137.9320 C   0  0  0  0  0  0  0  0  0  0  0  0
  188.3480  178.1160  136.9760 C   0  0  0  0  0  3  0  0  0  0  0  0
  188.0790  178.6480  138.2390 C   0  0  0  0  0  3  0  0  0  0  0  0
  189.3260  177.1400  136.8290 C   0  0  0  0  0  3  0  0  0  0  0  0
  188.7900  178.2160  139.3680 C   0  0  0  0  0  0  0  0  0  0  0  0
  190.4680  177.5350  142.4630 C   0  0  0  0  0  0  0  0  0  0  0  0
  190.5780  176.7100  140.4120 C   0  0  2  0  0  3  0  0  0  0  0  0
  189.7770  176.8260  141.6280 N   0  0  0  0  0  0  0  0  0  0  0  0
  191.7420  177.9450  141.9640 N   0  0  0  0  0  0  0  0  0  0  0  0
  191.8260  177.4770  140.7570 C   0  0  0  0  0  3  0  0  0  0  0  0
  188.9450  176.8440  144.3060 C   0  0  0  0  0  1  0  0  0  0  0  0
  189.9930  177.8580  143.8520 C   0  0  1  0  0  3  0  0  0  0  0  0
  191.1850  177.8740  144.8080 C   0  0  0  0  0  2  0  0  0  0  0  0
  191.9730  176.1640  146.4760 C   0  0  0  0  0  0  0  0  0  0  0  0
  191.5860  176.5150  145.1460 N   0  0  0  0  0  2  0  0  0  0  0  0
  192.4680  175.0240  146.7000 O   0  0  0  0  0  0  0  0  0  0  0  0
  191.8130  177.0730  147.5230 O   0  0  0  0  0  1  0  0  0  0  0  0
  190.8640  174.4540  138.0940 O   0  0  0  0  0  0  0  0  0  0  0  0
  191.0850  175.6350  137.7020 C   0  0  0  0  0  0  0  0  0  0  0  0
  194.3350  176.6600  136.6800 N   0  0  0  0  0  0  0  0  0  0  0  0
  192.3610  175.9380  137.0290 C   0  0  0  0  0  0  0  0  0  0  0  0
  193.4110  176.5360  137.6150 N   0  0  0  0  0  2  0  0  0  0  0  0
  193.9120  176.1680  135.5210 N   0  0  0  0  0  0  0  0  0  0  0  0
  192.6620  175.7050  135.7020 C   0  0  0  0  0  3  0  0  0  0  0  0
  188.4610  178.7260  140.6460 O   0  0  0  0  0  0  0  0  0  0  0  0
  186.6690  178.2850  141.9320 N   0  0  0  0  0  1  0  0  0  0  0  0
  187.1910  179.1660  140.9590 N   0  0  0  0  0  2  0  0  0  0  0  0
  1  6  1  0  0  0  0
  2  1  2  0  0  0  0
  3  4  1  0  0  0  0
  4  6  2  0  0  0  0
  5  3  2  0  0  0  0
  5  2  1  0  0  0  0
  6 26  1  0  0  0  0
  7 13  1  0  0  0  0
  8  1  1  6  0  0  0
  8 11  1  0  0  0  0
  8  9  1  0  0  0  0
  9  7  2  0  0  0  0
 10  7  1  0  0  0  0
 11 10  2  0  0  0  0
 13 12  1  1  0  0  0
 13 14  1  0  0  0  0
 14 16  1  0  0  0  0
 15 17  2  0  0  0  0
 15 18  1  0  0  0  0
 16 15  1  0  0  0  0
 20  2  1  0  0  0  0
 20 19  2  0  0  0  0
 21 23  1  0  0  0  0
 22 23  1  0  0  0  0
 22 20  1  0  0  0  0
 24 25  1  0  0  0  0
 24 21  2  0  0  0  0
 25 22  2  0  0  0  0
 26 28  1  0  0  0  0
 28 27  1  0  0  0  0
M  END
>  <MODEL>
5

>  <REMARK>
 VINA RESULT:      -7.3      2.090      7.210
  Name = 
  8 active torsions:
  status: ('A' for Active; 'I' for Inactive)
    1  A    between atoms: C_4  and  C_8
    2  A    between atoms: C_4  and  C_12
    3  A    between atoms: C_6  and  C_10
    4  A    between atoms: C_7  and  C_9
    5  A    between atoms: C_9  and  C_27
    6  A    between atoms: N_14  and  O_26
    7  A    between atoms: N_17  and  C_27
    8  A    between atoms: O_26  and  C_28
                            x       y       z     vdW  Elec       q    Type
                         _______ _______ _______ _____ _____    ______ ____

>  <TORSDO>
F 8

$$$$
=
 OpenBabel10232408383D

 28 30  0  0  1  0  0  0  0  0999 V2000
  187.3680  178.1570  141.8850 C   0  0  0  0  0  0  0  0  0  0  0  0
  187.7310  177.4910  143.0880 C   0  0  0  0  0  0  0  0  0  0  0  0
  185.5520  177.9890  144.0330 C   0  0  0  0  0  3  0  0  0  0  0  0
  185.1990  178.6780  142.8700 C   0  0  0  0  0  3  0  0  0  0  0  0
  186.8100  177.4100  144.1410 C   0  0  0  0  0  3  0  0  0  0  0  0
  186.0970  178.7880  141.7980 C   0  0  0  0  0  0  0  0  0  0  0  0
  188.0100  177.9110  138.6340 C   0  0  0  0  0  0  0  0  0  0  0  0
  188.3940  178.2970  140.7790 C   0  0  2  0  0  3  0  0  0  0  0  0
  187.7720  178.7920  139.5530 N   0  0  0  0  0  0  0  0  0  0  0  0
  188.7840  176.7970  139.0810 N   0  0  0  0  0  0  0  0  0  0  0  0
  189.0150  176.9980  140.3420 C   0  0  0  0  0  3  0  0  0  0  0  0
  188.7430  177.9820  136.2570 C   0  0  0  0  0  1  0  0  0  0  0  0
  187.5540  178.0690  137.2110 C   0  0  1  0  0  3  0  0  0  0  0  0
  186.5160  176.9950  136.8860 C   0  0  0  0  0  2  0  0  0  0  0  0
  184.1530  176.4210  137.5340 C   0  0  0  0  0  0  0  0  0  0  0  0
  185.2080  177.3760  137.4010 N   0  0  0  0  0  2  0  0  0  0  0  0
  182.9900  176.8150  137.8280 O   0  0  0  0  0  1  0  0  0  0  0  0
  184.4000  175.0620  137.3340 O   0  0  0  0  0  0  0  0  0  0  0  0
  189.2250  175.6410  142.9760 O   0  0  0  0  0  0  0  0  0  0  0  0
  189.0620  176.8580  143.2770 C   0  0  0  0  0  0  0  0  0  0  0  0
  191.6440  179.1620  144.1020 N   0  0  0  0  0  0  0  0  0  0  0  0
  190.2020  177.6200  143.8190 C   0  0  0  0  0  0  0  0  0  0  0  0
  190.5690  178.8430  143.4050 N   0  0  0  0  0  0  0  0  0  0  0  0
  191.9770  178.1880  144.9410 N   0  0  0  0  0  2  0  0  0  0  0  0
  191.0880  177.1900  144.7860 C   0  0  0  0  0  3  0  0  0  0  0  0
  185.7400  179.5390  140.6540 O   0  0  0  0  0  0  0  0  0  0  0  0
  184.4840  180.2760  138.9390 N   0  0  0  0  0  1  0  0  0  0  0  0
  184.4580  179.5350  140.1410 N   0  0  0  0  0  2  0  0  0  0  0  0
  1  2  1  0  0  0  0
  2 20  1  0  0  0  0
  2  5  2  0  0  0  0
  3  5  1  0  0  0  0
  4  3  2  0  0  0  0
  6  1  2  0  0  0  0
  6  4  1  0  0  0  0
  7 10  1  0  0  0  0
  7  9  2  0  0  0  0
  8  1  1  1  0  0  0
  9  8  1  0  0  0  0
 10 11  2  0  0  0  0
 11  8  1  0  0  0  0
 13 12  1  6  0  0  0
 13  7  1  0  0  0  0
 14 13  1  0  0  0  0
 14 16  1  0  0  0  0
 15 17  1  0  0  0  0
 16 15  1  0  0  0  0
 18 15  2  0  0  0  0
 19 20  2  0  0  0  0
 20 22  1  0  0  0  0
 21 24  1  0  0  0  0
 22 25  2  0  0  0  0
 23 22  1  0  0  0  0
 23 21  2  0  0  0  0
 25 24  1  0  0  0  0
 26  6  1  0  0  0  0
 27 28  1  0  0  0  0
 28 26  1  0  0  0  0
M  END
>  <MODEL>
6

>  <REMARK>
 VINA RESULT:      -7.0      2.744      3.816
  Name = 
  8 active torsions:
  status: ('A' for Active; 'I' for Inactive)
    1  A    between atoms: C_4  and  C_8
    2  A    between atoms: C_4  and  C_12
    3  A    between atoms: C_6  and  C_10
    4  A    between atoms: C_7  and  C_9
    5  A    between atoms: C_9  and  C_27
    6  A    between atoms: N_14  and  O_26
    7  A    between atoms: N_17  and  C_27
    8  A    between atoms: O_26  and  C_28
                            x       y       z     vdW  Elec       q    Type
                         _______ _______ _______ _____ _____    ______ ____

>  <TORSDO>
F 8

$$$$
=
 OpenBabel10232408383D

 28 30  0  0  1  0  0  0  0  0999 V2000
  189.4370  177.5630  142.9970 C   0  0  0  0  0  0  0  0  0  0  0  0
  188.8660  177.4020  144.2890 C   0  0  0  0  0  0  0  0  0  0  0  0
  191.0440  177.7400  145.3050 C   0  0  0  0  0  3  0  0  0  0  0  0
  191.6210  177.8620  144.0390 C   0  0  0  0  0  3  0  0  0  0  0  0
  189.6800  177.5030  145.4250 C   0  0  0  0  0  3  0  0  0  0  0  0
  190.8400  177.7580  142.8790 C   0  0  0  0  0  0  0  0  0  0  0  0
  189.1910  177.7860  139.6910 C   0  0  0  0  0  0  0  0  0  0  0  0
  188.5610  177.3840  141.7750 C   0  0  2  0  0  3  0  0  0  0  0  0
  189.3470  176.9150  140.6350 N   0  0  0  0  0  0  0  0  0  0  0  0
  188.3250  178.8690  140.0350 N   0  0  0  0  0  0  0  0  0  0  0  0
  187.9480  178.6580  141.2590 C   0  0  0  0  0  3  0  0  0  0  0  0
  190.0690  176.1750  138.0100 C   0  0  0  0  0  1  0  0  0  0  0  0
  189.8240  177.6470  138.3350 C   0  0  1  0  0  3  0  0  0  0  0  0
  188.9240  178.2950  137.2830 C   0  0  0  0  0  2  0  0  0  0  0  0
  186.5180  177.5670  137.1680 C   0  0  0  0  0  0  0  0  0  0  0  0
  187.8950  177.3600  136.8470 N   0  0  0  0  0  2  0  0  0  0  0  0
  185.6770  176.6600  136.9160 O   0  0  0  0  0  0  0  0  0  0  0  0
  186.1010  178.7600  137.7610 O   0  0  0  0  0  1  0  0  0  0  0  0
  186.8780  176.1430  143.9260 O   0  0  0  0  0  0  0  0  0  0  0  0
  187.4180  177.1360  144.4930 C   0  0  0  0  0  0  0  0  0  0  0  0
  185.7930  178.9890  147.0580 N   0  0  0  0  0  0  0  0  0  0  0  0
  186.5900  178.0120  145.3410 C   0  0  0  0  0  0  0  0  0  0  0  0
  186.7370  178.1520  146.6680 N   0  0  0  0  0  2  0  0  0  0  0  0
  185.0490  179.3830  146.0320 N   0  0  0  0  0  0  0  0  0  0  0  0
  185.5210  178.7810  144.9260 C   0  0  0  0  0  3  0  0  0  0  0  0
  191.4550  177.8270  141.6060 O   0  0  0  0  0  0  0  0  0  0  0  0
  192.9620  177.4540  139.9790 N   0  0  0  0  0  1  0  0  0  0  0  0
  192.6700  177.2290  141.3420 N   0  0  0  0  0  2  0  0  0  0  0  0
  1  2  1  0  0  0  0
  2 20  1  0  0  0  0
  2  5  2  0  0  0  0
  3  5  1  0  0  0  0
  4  3  2  0  0  0  0
  6  1  2  0  0  0  0
  6  4  1  0  0  0  0
  7 10  1  0  0  0  0
  7  9  2  0  0  0  0
  8  1  1  1  0  0  0
  9  8  1  0  0  0  0
 10 11  2  0  0  0  0
 11  8  1  0  0  0  0
 13 12  1  6  0  0  0
 13  7  1  0  0  0  0
 14 13  1  0  0  0  0
 15 18  1  0  0  0  0
 16 15  1  0  0  0  0
 16 14  1  0  0  0  0
 17 15  2  0  0  0  0
 19 20  2  0  0  0  0
 20 22  1  0  0  0  0
 22 23  1  0  0  0  0
 23 21  1  0  0  0  0
 24 21  2  0  0  0  0
 25 22  2  0  0  0  0
 25 24  1  0  0  0  0
 26  6  1  0  0  0  0
 27 28  1  0  0  0  0
 28 26  1  0  0  0  0
M  END
>  <MODEL>
7

>  <REMARK>
 VINA RESULT:      -7.0      2.766      4.739
  Name = 
  8 active torsions:
  status: ('A' for Active; 'I' for Inactive)
    1  A    between atoms: C_4  and  C_8
    2  A    between atoms: C_4  and  C_12
    3  A    between atoms: C_6  and  C_10
    4  A    between atoms: C_7  and  C_9
    5  A    between atoms: C_9  and  C_27
    6  A    between atoms: N_14  and  O_26
    7  A    between atoms: N_17  and  C_27
    8  A    between atoms: O_26  and  C_28
                            x       y       z     vdW  Elec       q    Type
                         _______ _______ _______ _____ _____    ______ ____

>  <TORSDO>
F 8

$$$$
=
 OpenBabel10232408383D

 28 30  0  0  1  0  0  0  0  0999 V2000
  189.6110  177.3590  140.2930 C   0  0  0  0  0  0  0  0  0  0  0  0
  190.2500  177.1980  139.0330 C   0  0  0  0  0  0  0  0  0  0  0  0
  188.3780  178.2850  137.9340 C   0  0  0  0  0  3  0  0  0  0  0  0
  187.7260  178.4140  139.1630 C   0  0  0  0  0  3  0  0  0  0  0  0
  189.6240  177.6740  137.8730 C   0  0  0  0  0  3  0  0  0  0  0  0
  188.3160  177.9420  140.3440 C   0  0  0  0  0  0  0  0  0  0  0  0
  189.5330  177.0610  143.6020 C   0  0  0  0  0  0  0  0  0  0  0  0
  190.2650  176.7810  141.5310 C   0  0  2  0  0  3  0  0  0  0  0  0
  189.2590  176.4020  142.5210 N   0  0  0  0  0  0  0  0  0  0  0  0
  190.6880  177.8950  143.4980 N   0  0  0  0  0  0  0  0  0  0  0  0
  191.1310  177.7530  142.2870 C   0  0  0  0  0  3  0  0  0  0  0  0
  189.6610  176.9360  146.0840 C   0  0  0  0  0  1  0  0  0  0  0  0
  188.7360  176.9240  144.8680 C   0  0  1  0  0  3  0  0  0  0  0  0
  187.7120  178.0560  144.9520 C   0  0  0  0  0  2  0  0  0  0  0  0
  185.5400  178.5680  146.1130 C   0  0  0  0  0  0  0  0  0  0  0  0
  186.7170  177.7690  145.9760 N   0  0  0  0  0  2  0  0  0  0  0  0
  184.7830  178.3950  147.1090 O   0  0  0  0  0  1  0  0  0  0  0  0
  185.2280  179.5380  145.1600 O   0  0  0  0  0  0  0  0  0  0  0  0
  192.5810  177.0320  139.4840 O   0  0  0  0  0  0  0  0  0  0  0  0
  191.5780  176.5450  138.8890 C   0  0  0  0  0  0  0  0  0  0  0  0
  191.3280  173.5360  137.0100 N   0  0  0  0  0  0  0  0  0  0  0  0
  191.7530  175.3400  138.0600 C   0  0  0  0  0  0  0  0  0  0  0  0
  190.7650  174.4960  137.7190 N   0  0  0  0  0  2  0  0  0  0  0  0
  192.6350  173.7330  136.8890 N   0  0  0  0  0  0  0  0  0  0  0  0
  192.9430  174.8650  137.5460 C   0  0  0  0  0  3  0  0  0  0  0  0
  187.6120  178.0320  141.5690 O   0  0  0  0  0  0  0  0  0  0  0  0
  185.4280  178.0480  142.1050 N   0  0  0  0  0  1  0  0  0  0  0  0
  186.5210  178.8600  141.7320 N   0  0  0  0  0  2  0  0  0  0  0  0
  1  6  1  0  0  0  0
  2  1  2  0  0  0  0
  3  4  1  0  0  0  0
  4  6  2  0  0  0  0
  5  3  2  0  0  0  0
  5  2  1  0  0  0  0
  6 26  1  0  0  0  0
  7 13  1  0  0  0  0
  8  1  1  6  0  0  0
  8 11  1  0  0  0  0
  8  9  1  0  0  0  0
  9  7  2  0  0  0  0
 10  7  1  0  0  0  0
 11 10  2  0  0  0  0
 13 14  1  0  0  0  0
 13 12  1  1  0  0  0
 14 16  1  0  0  0  0
 15 17  1  0  0  0  0
 16 15  1  0  0  0  0
 18 15  2  0  0  0  0
 20  2  1  0  0  0  0
 20 19  2  0  0  0  0
 21 23  1  0  0  0  0
 22 20  1  0  0  0  0
 23 22  1  0  0  0  0
 24 21  2  0  0  0  0
 24 25  1  0  0  0  0
 25 22  2  0  0  0  0
 26 28  1  0  0  0  0
 28 27  1  0  0  0  0
M  END
>  <MODEL>
8

>  <REMARK>
 VINA RESULT:      -7.0      2.338      7.146
  Name = 
  8 active torsions:
  status: ('A' for Active; 'I' for Inactive)
    1  A    between atoms: C_4  and  C_8
    2  A    between atoms: C_4  and  C_12
    3  A    between atoms: C_6  and  C_10
    4  A    between atoms: C_7  and  C_9
    5  A    between atoms: C_9  and  C_27
    6  A    between atoms: N_14  and  O_26
    7  A    between atoms: N_17  and  C_27
    8  A    between atoms: O_26  and  C_28
                            x       y       z     vdW  Elec       q    Type
                         _______ _______ _______ _____ _____    ______ ____

>  <TORSDO>
F 8

$$$$
=
 OpenBabel10232408383D

 28 30  0  0  1  0  0  0  0  0999 V2000
  189.3570  177.5430  143.8690 C   0  0  0  0  0  0  0  0  0  0  0  0
  190.2340  177.6010  142.7510 C   0  0  0  0  0  0  0  0  0  0  0  0
  191.7860  178.9640  144.0250 C   0  0  0  0  0  3  0  0  0  0  0  0
  190.9150  178.9450  145.1160 C   0  0  0  0  0  3  0  0  0  0  0  0
  191.4420  178.3040  142.8510 C   0  0  0  0  0  3  0  0  0  0  0  0
  189.6930  178.2590  145.0500 C   0  0  0  0  0  0  0  0  0  0  0  0
  186.0590  177.8490  143.6030 C   0  0  0  0  0  0  0  0  0  0  0  0
  188.0250  176.8380  143.7270 C   0  0  2  0  0  3  0  0  0  0  0  0
  187.1130  177.6130  142.8880 N   0  0  0  0  0  0  0  0  0  0  0  0
  186.1090  177.2880  144.9160 N   0  0  0  0  0  0  0  0  0  0  0  0
  187.2580  176.6950  145.0140 C   0  0  0  0  0  3  0  0  0  0  0  0
  184.4860  179.7260  144.0460 C   0  0  0  0  0  1  0  0  0  0  0  0
  184.8690  178.6040  143.0830 C   0  0  1  0  0  3  0  0  0  0  0  0
  185.1870  179.1630  141.6950 C   0  0  0  0  0  2  0  0  0  0  0  0
  184.0950  178.9860  139.4360 C   0  0  0  0  0  0  0  0  0  0  0  0
  184.5080  178.3870  140.6660 N   0  0  0  0  0  2  0  0  0  0  0  0
  183.3680  178.3300  138.6380 O   0  0  0  0  0  0  0  0  0  0  0  0
  184.4820  180.2880  139.1170 O   0  0  0  0  0  1  0  0  0  0  0  0
  189.9750  175.6680  141.3850 O   0  0  0  0  0  0  0  0  0  0  0  0
  189.9260  176.9290  141.4610 C   0  0  0  0  0  0  0  0  0  0  0  0
  188.6070  179.1080  138.9780 N   0  0  0  0  0  0  0  0  0  0  0  0
  189.5690  177.7040  140.2600 C   0  0  0  0  0  0  0  0  0  0  0  0
  188.6630  178.6950  140.2310 N   0  0  0  0  0  2  0  0  0  0  0  0
  189.4380  178.4160  138.2080 N   0  0  0  0  0  0  0  0  0  0  0  0
  190.0630  177.5130  138.9850 C   0  0  0  0  0  3  0  0  0  0  0  0
  188.8010  178.3010  146.1470 O   0  0  0  0  0  0  0  0  0  0  0  0
  189.6720  176.7040  147.4700 N   0  0  0  0  0  1  0  0  0  0  0  0
  189.2090  178.0380  147.4390 N   0  0  0  0  0  2  0  0  0  0  0  0
  1  6  1  0  0  0  0
  2  5  1  0  0  0  0
  2  1  2  0  0  0  0
  3  4  1  0  0  0  0
  5  3  2  0  0  0  0
  6  4  2  0  0  0  0
  6 26  1  0  0  0  0
  7 10  1  0  0  0  0
  8  1  1  1  0  0  0
  8 11  1  0  0  0  0
  9  7  2  0  0  0  0
  9  8  1  0  0  0  0
 10 11  2  0  0  0  0
 13  7  1  0  0  0  0
 13 12  1  1  0  0  0
 14 13  1  0  0  0  0
 15 16  1  0  0  0  0
 16 14  1  0  0  0  0
 17 15  2  0  0  0  0
 18 15  1  0  0  0  0
 19 20  2  0  0  0  0
 20  2  1  0  0  0  0
 21 23  1  0  0  0  0
 22 20  1  0  0  0  0
 23 22  1  0  0  0  0
 24 21  2  0  0  0  0
 24 25  1  0  0  0  0
 25 22  2  0  0  0  0
 26 28  1  0  0  0  0
 28 27  1  0  0  0  0
M  END
>  <MODEL>
9

>  <REMARK>
 VINA RESULT:      -6.8      2.485      6.262
  Name = 
  8 active torsions:
  status: ('A' for Active; 'I' for Inactive)
    1  A    between atoms: C_4  and  C_8
    2  A    between atoms: C_4  and  C_12
    3  A    between atoms: C_6  and  C_10
    4  A    between atoms: C_7  and  C_9
    5  A    between atoms: C_9  and  C_27
    6  A    between atoms: N_14  and  O_26
    7  A    between atoms: N_17  and  C_27
    8  A    between atoms: O_26  and  C_28
                            x       y       z     vdW  Elec       q    Type
                         _______ _______ _______ _____ _____    ______ ____

>  <TORSDO>
F 8

$$$$
