=
 OpenBabel10222421413D

 47 49  0  0  1  0  0  0  0  0999 V2000
  188.7120  176.7870  138.2750 C   0  0  1  0  0  3  0  0  0  0  0  0
  191.1590  176.4950  138.1160 C   0  0  0  0  0  3  0  0  0  0  0  0
  192.6270  176.4880  138.4880 C   0  0  2  0  0  3  0  0  0  0  0  0
  191.1300  176.9830  141.1420 C   0  0  0  0  0  0  0  0  0  0  0  0
  190.2150  177.6540  140.1540 C   0  0  0  0  0  2  0  0  0  0  0  0
  193.0200  177.4260  139.6220 C   0  0  0  0  0  2  0  0  0  0  0  0
  192.4440  176.9170  140.9060 C   0  0  0  0  0  3  0  0  0  0  0  0
  190.1000  176.9230  138.8430 C   0  0  0  0  0  0  0  0  0  0  0  0
  190.5900  176.4120  142.4170 C   0  0  2  0  0  3  0  0  0  0  0  0
  189.0780  176.6760  142.5330 C   0  0  0  0  0  2  0  0  0  0  0  0
  189.3130  178.0470  144.6380 C   0  0  1  0  0  3  0  0  0  0  0  0
  191.4520  179.1600  144.3480 N   0  0  0  0  0  2  0  0  0  0  0  0
  191.4170  176.8650  143.6340 C   0  0  0  0  0  2  0  0  0  0  0  0
  190.7960  178.0560  144.3080 C   0  0  0  0  0  0  0  0  0  0  0  0
  188.6370  176.8250  143.9860 C   0  0  0  0  0  2  0  0  0  0  0  0
  187.6810  177.7610  146.3560 C   0  0  0  0  0  1  0  0  0  0  0  0
  189.8230  176.9610  146.7060 C   0  0  0  0  0  1  0  0  0  0  0  0
  189.0840  178.0620  146.0940 N   0  0  0  0  0  0  0  0  0  0  0  0
  193.4300  176.7840  137.3040 N   0  0  0  0  0  2  0  0  0  0  0  0
  194.0720  175.5760  136.7810 C   0  0  0  0  0  3  0  0  0  0  0  0
  193.2420  174.9070  135.6920 C   0  0  0  0  0  1  0  0  0  0  0  0
  194.4250  174.5950  137.8870 C   0  0  0  0  0  1  0  0  0  0  0  0
  188.0850  178.1440  137.9430 C   0  0  1  0  0  3  0  0  0  0  0  0
  187.8870  178.2860  136.5650 O   0  0  0  0  0  1  0  0  0  0  0  0
  186.8170  178.2920  138.6380 N   0  0  0  0  0  2  0  0  0  0  0  0
  187.1170  178.5150  140.0440 C   0  0  0  0  0  2  0  0  0  0  0  0
  183.5670  178.1770  142.4270 C   0  0  0  0  0  2  0  0  0  0  0  0
  185.8570  178.7930  140.7950 C   0  0  0  0  0  0  0  0  0  0  0  0
  184.5320  178.7290  140.0880 C   0  0  0  0  0  2  0  0  0  0  0  0
  185.8810  179.0490  142.1080 C   0  0  0  0  0  3  0  0  0  0  0  0
  184.5800  179.2600  142.8300 C   0  0  2  0  0  3  0  0  0  0  0  0
  183.5330  177.8960  140.9040 C   0  0  2  0  0  3  0  0  0  0  0  0
  183.5070  179.2150  144.7660 C   0  0  0  0  0  1  0  0  0  0  0  0
  184.7890  179.2350  144.2120 O   0  0  0  0  0  0  0  0  0  0  0  0
  182.1250  178.0310  140.3290 C   0  0  1  0  0  3  0  0  0  0  0  0
  181.7270  179.3700  140.3580 O   0  0  0  0  0  0  0  0  0  0  0  0
  180.4160  179.3440  140.8410 C   0  0  0  0  0  1  0  0  0  0  0  0
  182.0830  177.5600  139.0070 O   0  0  0  0  0  0  0  0  0  0  0  0
  181.0750  175.5290  138.7920 O   0  0  0  0  0  1  0  0  0  0  0  0
  182.2720  176.1770  139.0980 C   0  0  1  0  0  3  0  0  0  0  0  0
  183.6760  174.5190  138.1040 O   0  0  0  0  0  1  0  0  0  0  0  0
  183.3360  175.7340  138.1450 C   0  0  0  0  0  0  0  0  0  0  0  0
  183.9290  176.6470  137.2760 O   0  0  0  0  0  0  0  0  0  0  0  0
  188.6630  175.8200  137.0940 C   0  0  0  0  0  2  0  0  0  0  0  0
  187.4870  174.9700  137.1890 N   0  0  0  0  0  2  0  0  0  0  0  0
  187.7470  175.2680  135.0140 O   0  0  0  0  0  1  0  0  0  0  0  0
  186.8070  175.0780  135.9700 N   0  0  0  0  0  2  0  0  0  0  0  0
  1 44  1  6  0  0  0
  1  8  1  0  0  0  0
  2  3  1  0  0  0  0
  2  8  2  0  0  0  0
  3 19  1  6  0  0  0
  3  6  1  0  0  0  0
  5  4  1  0  0  0  0
  6  7  1  0  0  0  0
  7  4  2  0  0  0  0
  8  5  1  0  0  0  0
  9  4  1  6  0  0  0
  9 10  1  0  0  0  0
  9 13  1  0  0  0  0
 10 15  1  0  0  0  0
 11 18  1  1  0  0  0
 13 14  1  0  0  0  0
 14 12  2  0  0  0  0
 14 11  1  0  0  0  0
 15 11  1  0  0  0  0
 18 16  1  0  0  0  0
 18 17  1  0  0  0  0
 20 19  1  0  0  0  0
 20 22  1  0  0  0  0
 21 20  1  0  0  0  0
 23 24  1  6  0  0  0
 23  1  1  0  0  0  0
 23 25  1  0  0  0  0
 25 26  1  0  0  0  0
 26 28  1  0  0  0  0
 27 31  1  0  0  0  0
 28 30  2  0  0  0  0
 29 28  1  0  0  0  0
 29 32  1  0  0  0  0
 30 31  1  0  0  0  0
 31 34  1  1  0  0  0
 32 35  1  6  0  0  0
 32 27  1  0  0  0  0
 34 33  1  0  0  0  0
 35 38  1  6  0  0  0
 35 36  1  0  0  0  0
 36 37  1  0  0  0  0
 38 40  1  0  0  0  0
 40 39  1  6  0  0  0
 41 42  1  0  0  0  0
 42 40  1  0  0  0  0
 43 42  2  0  0  0  0
 44 45  1  0  0  0  0
 46 47  1  0  0  0  0
 47 45  1  0  0  0  0
M  END
>  <MODEL>
1

>  <REMARK>
 VINA RESULT:      -6.8      0.000      0.000
  Name = 
  18 active torsions:
  status: ('A' for Active; 'I' for Inactive)
    1  A    between atoms: C_3  and  N_18
    2  A    between atoms: O_5  and  C_9
    3  A    between atoms: O_5  and  C_32
    4  A    between atoms: C_6  and  C_9
    5  A    between atoms: C_10  and  C_29
    6  A    between atoms: O_11  and  C_32
    7  A    between atoms: C_14  and  C_34
    8  A    between atoms: N_15  and  C_25
    9  A    between atoms: N_15  and  C_34
   10  A    between atoms: N_18  and  C_28
   11  A    between atoms: C_19  and  C_20
   12  A    between atoms: C_19  and  C_25
   13  A    between atoms: C_19  and  C_45
   14  A    between atoms: C_20  and  N_23
   15  A    between atoms: C_21  and  N_46
   16  A    between atoms: N_23  and  N_40
   17  A    between atoms: C_32  and  C_42
   18  A    between atoms: C_39  and  O_44
                            x       y       z     vdW  Elec       q    Type
                         _______ _______ _______ _____ _____    ______ ____

>  <TORSDO>
F 18

$$$$
=
 OpenBabel10222421413D

 47 49  0  0  1  0  0  0  0  0999 V2000
  184.3810  178.0070  138.8830 C   0  0  1  0  0  3  0  0  0  0  0  0
  183.5310  177.0800  136.7590 C   0  0  0  0  0  3  0  0  0  0  0  0
  183.4740  176.6320  135.3130 C   0  0  2  0  0  3  0  0  0  0  0  0
  186.4560  177.2180  135.8550 C   0  0  0  0  0  0  0  0  0  0  0  0
  185.7880  178.2170  136.7580 C   0  0  0  0  0  2  0  0  0  0  0  0
  184.4810  177.2960  134.3810 C   0  0  0  0  0  2  0  0  0  0  0  0
  185.8580  176.8230  134.7260 C   0  0  0  0  0  3  0  0  0  0  0  0
  184.5390  177.6960  137.4190 C   0  0  0  0  0  0  0  0  0  0  0  0
  187.8130  176.6760  136.1870 C   0  0  2  0  0  3  0  0  0  0  0  0
  187.7800  175.9060  137.5190 C   0  0  0  0  0  2  0  0  0  0  0  0
  189.4290  177.4510  138.6430 C   0  0  1  0  0  3  0  0  0  0  0  0
  188.9410  179.6120  137.6480 N   0  0  0  0  0  2  0  0  0  0  0  0
  188.8940  177.7700  136.1040 C   0  0  0  0  0  2  0  0  0  0  0  0
  189.1800  178.3650  137.4540 C   0  0  0  0  0  0  0  0  0  0  0  0
  189.1110  175.9920  138.2590 C   0  0  0  0  0  2  0  0  0  0  0  0
  190.8490  177.1670  140.5400 C   0  0  0  0  0  1  0  0  0  0  0  0
  191.6590  176.6130  138.4440 C   0  0  0  0  0  1  0  0  0  0  0  0
  190.8100  177.5770  139.1400 N   0  0  0  0  0  0  0  0  0  0  0  0
  182.1220  176.8290  134.7960 N   0  0  0  0  0  2  0  0  0  0  0  0
  181.4070  175.5550  134.6800 C   0  0  0  0  0  3  0  0  0  0  0  0
  180.4130  175.3470  135.8150 C   0  0  0  0  0  1  0  0  0  0  0  0
  182.3600  174.3770  134.5560 C   0  0  0  0  0  1  0  0  0  0  0  0
  185.0080  179.3510  139.2630 C   0  0  1  0  0  3  0  0  0  0  0  0
  184.1700  180.4160  138.9140 O   0  0  0  0  0  1  0  0  0  0  0  0
  185.2830  179.3900  140.6890 N   0  0  0  0  0  2  0  0  0  0  0  0
  186.4400  178.5420  140.9320 C   0  0  0  0  0  2  0  0  0  0  0  0
  186.9420  178.2870  145.1830 C   0  0  0  0  0  2  0  0  0  0  0  0
  186.4490  178.0880  142.3540 C   0  0  0  0  0  0  0  0  0  0  0  0
  187.6160  177.3030  142.8840 C   0  0  0  0  0  2  0  0  0  0  0  0
  185.4540  178.4160  143.1870 C   0  0  0  0  0  3  0  0  0  0  0  0
  185.5420  177.9890  144.6250 C   0  0  2  0  0  3  0  0  0  0  0  0
  188.0900  177.8910  144.2210 C   0  0  2  0  0  3  0  0  0  0  0  0
  183.7820  179.3200  144.4420 C   0  0  0  0  0  1  0  0  0  0  0  0
  184.5700  178.6510  145.3810 O   0  0  0  0  0  0  0  0  0  0  0  0
  189.1020  176.9620  144.8890 C   0  0  1  0  0  3  0  0  0  0  0  0
  190.0610  176.5580  143.9560 O   0  0  0  0  0  0  0  0  0  0  0  0
  191.1190  177.4570  144.1180 C   0  0  0  0  0  1  0  0  0  0  0  0
  189.7360  177.6100  145.9600 O   0  0  0  0  0  0  0  0  0  0  0  0
  190.7310  176.2850  147.5240 O   0  0  0  0  0  1  0  0  0  0  0  0
  189.5110  176.7930  147.0740 C   0  0  1  0  0  3  0  0  0  0  0  0
  187.7840  177.1650  148.6820 O   0  0  0  0  0  1  0  0  0  0  0  0
  188.8630  177.5770  148.1700 C   0  0  0  0  0  0  0  0  0  0  0  0
  189.4600  178.7380  148.6560 O   0  0  0  0  0  0  0  0  0  0  0  0
  182.9310  177.8910  139.3450 C   0  0  0  0  0  2  0  0  0  0  0  0
  182.8780  177.4810  140.7400 N   0  0  0  0  0  2  0  0  0  0  0  0
  181.3650  179.0680  140.4530 O   0  0  0  0  0  1  0  0  0  0  0  0
  182.0640  178.4050  141.4060 N   0  0  0  0  0  2  0  0  0  0  0  0
  1 23  1  0  0  0  0
  1 44  1  6  0  0  0
  2  8  2  0  0  0  0
  3 19  1  6  0  0  0
  3  2  1  0  0  0  0
  4  5  1  0  0  0  0
  5  8  1  0  0  0  0
  6  7  1  0  0  0  0
  6  3  1  0  0  0  0
  7  4  2  0  0  0  0
  8  1  1  0  0  0  0
  9  4  1  1  0  0  0
  9 10  1  0  0  0  0
 10 15  1  0  0  0  0
 11 18  1  6  0  0  0
 13  9  1  0  0  0  0
 13 14  1  0  0  0  0
 14 12  2  0  0  0  0
 14 11  1  0  0  0  0
 15 11  1  0  0  0  0
 17 18  1  0  0  0  0
 18 16  1  0  0  0  0
 20 19  1  0  0  0  0
 20 21  1  0  0  0  0
 22 20  1  0  0  0  0
 23 24  1  1  0  0  0
 23 25  1  0  0  0  0
 25 26  1  0  0  0  0
 26 28  1  0  0  0  0
 28 29  1  0  0  0  0
 28 30  2  0  0  0  0
 29 32  1  0  0  0  0
 30 31  1  0  0  0  0
 31 27  1  0  0  0  0
 31 34  1  1  0  0  0
 32 35  1  1  0  0  0
 32 27  1  0  0  0  0
 33 34  1  0  0  0  0
 35 36  1  6  0  0  0
 35 38  1  0  0  0  0
 36 37  1  0  0  0  0
 38 40  1  0  0  0  0
 40 39  1  1  0  0  0
 40 42  1  0  0  0  0
 42 43  2  0  0  0  0
 42 41  1  0  0  0  0
 44 45  1  0  0  0  0
 45 47  1  0  0  0  0
 46 47  1  0  0  0  0
M  END
>  <MODEL>
2

>  <REMARK>
 VINA RESULT:      -6.8      3.119      8.049
  Name = 
  18 active torsions:
  status: ('A' for Active; 'I' for Inactive)
    1  A    between atoms: C_3  and  N_18
    2  A    between atoms: O_5  and  C_9
    3  A    between atoms: O_5  and  C_32
    4  A    between atoms: C_6  and  C_9
    5  A    between atoms: C_10  and  C_29
    6  A    between atoms: O_11  and  C_32
    7  A    between atoms: C_14  and  C_34
    8  A    between atoms: N_15  and  C_25
    9  A    between atoms: N_15  and  C_34
   10  A    between atoms: N_18  and  C_28
   11  A    between atoms: C_19  and  C_20
   12  A    between atoms: C_19  and  C_25
   13  A    between atoms: C_19  and  C_45
   14  A    between atoms: C_20  and  N_23
   15  A    between atoms: C_21  and  N_46
   16  A    between atoms: N_23  and  N_40
   17  A    between atoms: C_32  and  C_42
   18  A    between atoms: C_39  and  O_44
                            x       y       z     vdW  Elec       q    Type
                         _______ _______ _______ _____ _____    ______ ____

>  <TORSDO>
F 18

$$$$
=
 OpenBabel10222421413D

 47 49  0  0  1  0  0  0  0  0999 V2000
  187.1210  178.4230  143.2600 C   0  0  1  0  0  3  0  0  0  0  0  0
  189.5140  178.3810  143.8630 C   0  0  0  0  0  3  0  0  0  0  0  0
  191.0030  178.1080  143.7970 C   0  0  2  0  0  3  0  0  0  0  0  0
  189.9270  177.3660  141.0000 C   0  0  0  0  0  0  0  0  0  0  0  0
  188.7500  177.0240  141.8720 C   0  0  0  0  0  2  0  0  0  0  0  0
  191.4160  176.9340  142.9180 C   0  0  0  0  0  2  0  0  0  0  0  0
  191.1710  177.2820  141.4840 C   0  0  0  0  0  3  0  0  0  0  0  0
  188.5400  177.9870  143.0100 C   0  0  0  0  0  0  0  0  0  0  0  0
  189.7270  177.7710  139.5720 C   0  0  2  0  0  3  0  0  0  0  0  0
  188.2880  177.4690  139.1180 C   0  0  0  0  0  2  0  0  0  0  0  0
  189.0200  175.8590  137.3170 C   0  0  1  0  0  3  0  0  0  0  0  0
  191.0060  174.8270  138.2600 N   0  0  0  0  0  2  0  0  0  0  0  0
  190.8240  177.1900  138.6610 C   0  0  0  0  0  2  0  0  0  0  0  0
  190.3750  175.9160  138.0020 C   0  0  0  0  0  0  0  0  0  0  0  0
  188.2190  177.1390  137.6300 C   0  0  0  0  0  2  0  0  0  0  0  0
  187.9280  175.0790  135.3430 C   0  0  0  0  0  1  0  0  0  0  0  0
  189.2540  176.9710  135.2140 C   0  0  0  0  0  1  0  0  0  0  0  0
  189.1590  175.6660  135.8630 N   0  0  0  0  0  0  0  0  0  0  0  0
  191.5220  177.9160  145.1490 N   0  0  0  0  0  2  0  0  0  0  0  0
  190.9590  176.7140  145.7690 C   0  0  0  0  0  3  0  0  0  0  0  0
  189.8640  177.0430  146.7750 C   0  0  0  0  0  1  0  0  0  0  0  0
  192.0360  175.8380  146.3900 C   0  0  0  0  0  1  0  0  0  0  0  0
  186.1610  177.9220  142.1770 C   0  0  1  0  0  3  0  0  0  0  0  0
  184.9510  177.4910  142.7340 O   0  0  0  0  0  1  0  0  0  0  0  0
  185.9070  178.9750  141.2080 N   0  0  0  0  0  2  0  0  0  0  0  0
  184.4720  179.2130  141.1910 C   0  0  0  0  0  2  0  0  0  0  0  0
  182.3390  177.9480  137.6930 C   0  0  0  0  0  2  0  0  0  0  0  0
  183.9480  179.0660  139.8010 C   0  0  0  0  0  0  0  0  0  0  0  0
  184.6590  178.1770  138.8210 C   0  0  0  0  0  2  0  0  0  0  0  0
  182.8170  179.6760  139.4250 C   0  0  0  0  0  3  0  0  0  0  0  0
  182.2980  179.4450  138.0340 C   0  0  2  0  0  3  0  0  0  0  0  0
  183.6560  177.2520  138.1180 C   0  0  2  0  0  3  0  0  0  0  0  0
  181.1370  181.2670  137.5500 C   0  0  0  0  0  1  0  0  0  0  0  0
  180.9910  179.9300  137.9240 O   0  0  0  0  0  0  0  0  0  0  0  0
  184.3210  176.5250  136.9500 C   0  0  1  0  0  3  0  0  0  0  0  0
  185.1720  177.4010  136.2700 O   0  0  0  0  0  0  0  0  0  0  0  0
  184.9010  177.1860  134.9160 C   0  0  0  0  0  1  0  0  0  0  0  0
  185.0580  175.4220  137.4090 O   0  0  0  0  0  0  0  0  0  0  0  0
  183.2630  174.3980  136.4510 O   0  0  0  0  0  1  0  0  0  0  0  0
  184.1280  174.3850  137.5460 C   0  0  1  0  0  3  0  0  0  0  0  0
  184.1820  172.0010  137.4000 O   0  0  0  0  0  0  0  0  0  0  0  0
  184.8280  173.0650  137.6130 C   0  0  0  0  0  0  0  0  0  0  0  0
  186.1950  173.0030  137.8710 O   0  0  0  0  0  1  0  0  0  0  0  0
  186.6460  178.0670  144.6670 C   0  0  0  0  0  2  0  0  0  0  0  0
  185.7640  179.1050  145.1770 N   0  0  0  0  0  2  0  0  0  0  0  0
  186.2080  178.8840  147.3330 O   0  0  0  0  0  1  0  0  0  0  0  0
  185.2570  178.6430  146.3990 N   0  0  0  0  0  2  0  0  0  0  0  0
  1 44  1  1  0  0  0
  3  2  1  0  0  0  0
  3 19  1  1  0  0  0
  4  7  2  0  0  0  0
  4  5  1  0  0  0  0
  5  8  1  0  0  0  0
  6  3  1  0  0  0  0
  7  6  1  0  0  0  0
  8  1  1  0  0  0  0
  8  2  2  0  0  0  0
  9  4  1  1  0  0  0
 10  9  1  0  0  0  0
 11 18  1  6  0  0  0
 11 15  1  0  0  0  0
 11 14  1  0  0  0  0
 13  9  1  0  0  0  0
 14 12  2  0  0  0  0
 14 13  1  0  0  0  0
 15 10  1  0  0  0  0
 16 18  1  0  0  0  0
 17 18  1  0  0  0  0
 19 20  1  0  0  0  0
 20 22  1  0  0  0  0
 20 21  1  0  0  0  0
 23 24  1  1  0  0  0
 23  1  1  0  0  0  0
 25 23  1  0  0  0  0
 26 25  1  0  0  0  0
 27 31  1  0  0  0  0
 27 32  1  0  0  0  0
 28 26  1  0  0  0  0
 29 28  1  0  0  0  0
 30 28  2  0  0  0  0
 31 34  1  1  0  0  0
 31 30  1  0  0  0  0
 32 35  1  6  0  0  0
 32 29  1  0  0  0  0
 33 34  1  0  0  0  0
 35 36  1  1  0  0  0
 35 38  1  0  0  0  0
 37 36  1  0  0  0  0
 38 40  1  0  0  0  0
 40 39  1  6  0  0  0
 40 42  1  0  0  0  0
 41 42  2  0  0  0  0
 42 43  1  0  0  0  0
 44 45  1  0  0  0  0
 45 47  1  0  0  0  0
 47 46  1  0  0  0  0
M  END
>  <MODEL>
3

>  <REMARK>
 VINA RESULT:      -6.7      2.146      6.610
  Name = 
  18 active torsions:
  status: ('A' for Active; 'I' for Inactive)
    1  A    between atoms: C_3  and  N_18
    2  A    between atoms: O_5  and  C_9
    3  A    between atoms: O_5  and  C_32
    4  A    between atoms: C_6  and  C_9
    5  A    between atoms: C_10  and  C_29
    6  A    between atoms: O_11  and  C_32
    7  A    between atoms: C_14  and  C_34
    8  A    between atoms: N_15  and  C_25
    9  A    between atoms: N_15  and  C_34
   10  A    between atoms: N_18  and  C_28
   11  A    between atoms: C_19  and  C_20
   12  A    between atoms: C_19  and  C_25
   13  A    between atoms: C_19  and  C_45
   14  A    between atoms: C_20  and  N_23
   15  A    between atoms: C_21  and  N_46
   16  A    between atoms: N_23  and  N_40
   17  A    between atoms: C_32  and  C_42
   18  A    between atoms: C_39  and  O_44
                            x       y       z     vdW  Elec       q    Type
                         _______ _______ _______ _____ _____    ______ ____

>  <TORSDO>
F 18

$$$$
=
 OpenBabel10222421413D

 47 49  0  0  1  0  0  0  0  0999 V2000
  188.4760  176.8380  138.2120 C   0  0  1  0  0  3  0  0  0  0  0  0
  190.9260  176.5540  138.3240 C   0  0  0  0  0  3  0  0  0  0  0  0
  192.3450  176.5570  138.8530 C   0  0  2  0  0  3  0  0  0  0  0  0
  190.5670  177.0820  141.3210 C   0  0  0  0  0  0  0  0  0  0  0  0
  189.7640  177.7360  140.2300 C   0  0  0  0  0  2  0  0  0  0  0  0
  192.6110  177.5120  140.0100 C   0  0  0  0  0  2  0  0  0  0  0  0
  191.9000  177.0190  141.2300 C   0  0  0  0  0  3  0  0  0  0  0  0
  189.7940  176.9870  138.9250 C   0  0  0  0  0  0  0  0  0  0  0  0
  189.8930  176.5260  142.5380 C   0  0  2  0  0  3  0  0  0  0  0  0
  188.6060  177.3090  142.8510 C   0  0  0  0  0  2  0  0  0  0  0  0
  189.4260  178.0730  145.1130 C   0  0  1  0  0  3  0  0  0  0  0  0
  191.8170  178.3390  144.7820 N   0  0  0  0  0  2  0  0  0  0  0  0
  190.8730  176.4010  143.7190 C   0  0  0  0  0  2  0  0  0  0  0  0
  190.7850  177.5880  144.6360 C   0  0  0  0  0  0  0  0  0  0  0  0
  188.3080  177.3370  144.3470 C   0  0  0  0  0  2  0  0  0  0  0  0
  187.8540  177.7460  146.8790 C   0  0  0  0  0  1  0  0  0  0  0  0
  189.8810  176.6330  146.9660 C   0  0  0  0  0  1  0  0  0  0  0  0
  189.2720  177.8990  146.5670 N   0  0  0  0  0  0  0  0  0  0  0  0
  193.2710  176.8400  137.7590 N   0  0  0  0  0  2  0  0  0  0  0  0
  193.4070  175.6880  136.8650 C   0  0  0  0  0  3  0  0  0  0  0  0
  193.8500  174.4330  137.6050 C   0  0  0  0  0  1  0  0  0  0  0  0
  194.3200  175.9870  135.6860 C   0  0  0  0  0  1  0  0  0  0  0  0
  187.8680  178.1900  137.8260 C   0  0  1  0  0  3  0  0  0  0  0  0
  187.6900  178.2880  136.4420 O   0  0  0  0  0  1  0  0  0  0  0  0
  186.5930  178.3740  138.4990 N   0  0  0  0  0  2  0  0  0  0  0  0
  185.5490  177.9840  137.5640 C   0  0  0  0  0  2  0  0  0  0  0  0
  181.5780  177.4960  139.1090 C   0  0  0  0  0  2  0  0  0  0  0  0
  184.3440  177.5180  138.3130 C   0  0  0  0  0  0  0  0  0  0  0  0
  184.0370  178.0860  139.6700 C   0  0  0  0  0  2  0  0  0  0  0  0
  183.4970  176.6350  137.7700 C   0  0  0  0  0  3  0  0  0  0  0  0
  182.2660  176.2460  138.5390 C   0  0  2  0  0  3  0  0  0  0  0  0
  182.5630  178.5070  139.7490 C   0  0  2  0  0  3  0  0  0  0  0  0
  180.5440  174.8550  138.5840 C   0  0  0  0  0  1  0  0  0  0  0  0
  181.3840  175.5470  137.7090 O   0  0  0  0  0  0  0  0  0  0  0  0
  182.1780  178.8490  141.1870 C   0  0  1  0  0  3  0  0  0  0  0  0
  180.8460  178.4940  141.4180 O   0  0  0  0  0  0  0  0  0  0  0  0
  180.1620  179.7090  141.5100 C   0  0  0  0  0  1  0  0  0  0  0  0
  183.0050  178.1710  142.0960 O   0  0  0  0  0  0  0  0  0  0  0  0
  182.7530  178.6250  144.3140 O   0  0  0  0  0  1  0  0  0  0  0  0
  183.2800  179.0960  143.1100 C   0  0  1  0  0  3  0  0  0  0  0  0
  185.3180  179.0320  144.3550 O   0  0  0  0  0  1  0  0  0  0  0  0
  184.7560  179.2870  143.2530 C   0  0  0  0  0  0  0  0  0  0  0  0
  185.5210  179.7080  142.1680 O   0  0  0  0  0  0  0  0  0  0  0  0
  188.5670  175.8820  137.0250 C   0  0  0  0  0  2  0  0  0  0  0  0
  187.5270  174.8690  137.1140 N   0  0  0  0  0  2  0  0  0  0  0  0
  189.2040  173.8230  136.1220 O   0  0  0  0  0  1  0  0  0  0  0  0
  187.8520  173.8690  136.1880 N   0  0  0  0  0  2  0  0  0  0  0  0
  1 44  1  6  0  0  0
  1  8  1  0  0  0  0
  2  3  1  0  0  0  0
  2  8  2  0  0  0  0
  3 19  1  6  0  0  0
  3  6  1  0  0  0  0
  5  4  1  0  0  0  0
  6  7  1  0  0  0  0
  7  4  2  0  0  0  0
  8  5  1  0  0  0  0
  9  4  1  6  0  0  0
  9 10  1  0  0  0  0
  9 13  1  0  0  0  0
 10 15  1  0  0  0  0
 11 18  1  1  0  0  0
 13 14  1  0  0  0  0
 14 12  2  0  0  0  0
 14 11  1  0  0  0  0
 15 11  1  0  0  0  0
 18 16  1  0  0  0  0
 18 17  1  0  0  0  0
 20 21  1  0  0  0  0
 20 19  1  0  0  0  0
 22 20  1  0  0  0  0
 23 24  1  6  0  0  0
 23  1  1  0  0  0  0
 23 25  1  0  0  0  0
 26 28  1  0  0  0  0
 26 25  1  0  0  0  0
 27 32  1  0  0  0  0
 28 29  1  0  0  0  0
 29 32  1  0  0  0  0
 30 28  2  0  0  0  0
 30 31  1  0  0  0  0
 31 34  1  6  0  0  0
 31 27  1  0  0  0  0
 32 35  1  1  0  0  0
 34 33  1  0  0  0  0
 35 36  1  1  0  0  0
 35 38  1  0  0  0  0
 36 37  1  0  0  0  0
 38 40  1  0  0  0  0
 40 42  1  0  0  0  0
 40 39  1  1  0  0  0
 42 41  1  0  0  0  0
 43 42  2  0  0  0  0
 44 45  1  0  0  0  0
 46 47  1  0  0  0  0
 47 45  1  0  0  0  0
M  END
>  <MODEL>
4

>  <REMARK>
 VINA RESULT:      -6.6      1.175      3.208
  Name = 
  18 active torsions:
  status: ('A' for Active; 'I' for Inactive)
    1  A    between atoms: C_3  and  N_18
    2  A    between atoms: O_5  and  C_9
    3  A    between atoms: O_5  and  C_32
    4  A    between atoms: C_6  and  C_9
    5  A    between atoms: C_10  and  C_29
    6  A    between atoms: O_11  and  C_32
    7  A    between atoms: C_14  and  C_34
    8  A    between atoms: N_15  and  C_25
    9  A    between atoms: N_15  and  C_34
   10  A    between atoms: N_18  and  C_28
   11  A    between atoms: C_19  and  C_20
   12  A    between atoms: C_19  and  C_25
   13  A    between atoms: C_19  and  C_45
   14  A    between atoms: C_20  and  N_23
   15  A    between atoms: C_21  and  N_46
   16  A    between atoms: N_23  and  N_40
   17  A    between atoms: C_32  and  C_42
   18  A    between atoms: C_39  and  O_44
                            x       y       z     vdW  Elec       q    Type
                         _______ _______ _______ _____ _____    ______ ____

>  <TORSDO>
F 18

$$$$
=
 OpenBabel10222421413D

 47 49  0  0  1  0  0  0  0  0999 V2000
  189.2760  177.9920  139.4690 C   0  0  1  0  0  3  0  0  0  0  0  0
  189.2910  177.3720  137.0790 C   0  0  0  0  0  3  0  0  0  0  0  0
  188.8210  176.8930  135.7210 C   0  0  2  0  0  3  0  0  0  0  0  0
  186.2440  177.2480  137.3830 C   0  0  0  0  0  0  0  0  0  0  0  0
  187.2310  176.8490  138.4450 C   0  0  0  0  0  2  0  0  0  0  0  0
  187.5860  176.0010  135.7320 C   0  0  0  0  0  2  0  0  0  0  0  0
  186.3930  176.8140  136.1270 C   0  0  0  0  0  3  0  0  0  0  0  0
  188.6050  177.4290  138.2440 C   0  0  0  0  0  0  0  0  0  0  0  0
  185.0630  178.1060  137.7210 C   0  0  2  0  0  3  0  0  0  0  0  0
  185.1960  178.6770  139.1440 C   0  0  0  0  0  2  0  0  0  0  0  0
  183.1030  177.5360  139.9740 C   0  0  1  0  0  3  0  0  0  0  0  0
  183.0650  175.4550  138.7240 N   0  0  0  0  0  2  0  0  0  0  0  0
  183.7360  177.3750  137.4430 C   0  0  0  0  0  2  0  0  0  0  0  0
  183.1900  176.7330  138.6870 C   0  0  0  0  0  0  0  0  0  0  0  0
  183.8350  178.8820  139.8030 C   0  0  0  0  0  2  0  0  0  0  0  0
  181.6790  178.6170  141.5560 C   0  0  0  0  0  1  0  0  0  0  0  0
  181.0070  178.4970  139.3460 C   0  0  0  0  0  1  0  0  0  0  0  0
  181.7040  177.7460  140.3850 N   0  0  0  0  0  0  0  0  0  0  0  0
  189.9170  176.2070  135.0420 N   0  0  0  0  0  2  0  0  0  0  0  0
  190.8840  175.6690  136.0020 C   0  0  0  0  0  3  0  0  0  0  0  0
  192.3220  175.8470  135.5320 C   0  0  0  0  0  1  0  0  0  0  0  0
  190.5920  174.2180  136.3500 C   0  0  0  0  0  1  0  0  0  0  0  0
  188.7910  177.3210  140.7570 C   0  0  1  0  0  3  0  0  0  0  0  0
  189.8070  176.5580  141.3430 O   0  0  0  0  0  1  0  0  0  0  0  0
  188.3260  178.3250  141.6990 N   0  0  0  0  0  2  0  0  0  0  0  0
  186.9170  178.0640  141.9520 C   0  0  0  0  0  2  0  0  0  0  0  0
  186.5950  178.6450  146.1890 C   0  0  0  0  0  2  0  0  0  0  0  0
  186.6900  177.8790  143.4160 C   0  0  0  0  0  0  0  0  0  0  0  0
  187.7990  177.3610  144.2890 C   0  0  0  0  0  2  0  0  0  0  0  0
  185.5230  178.2170  143.9790 C   0  0  0  0  0  3  0  0  0  0  0  0
  185.3670  178.0700  145.4660 C   0  0  2  0  0  3  0  0  0  0  0  0
  187.9420  178.2370  145.5410 C   0  0  2  0  0  3  0  0  0  0  0  0
  183.5540  179.0950  144.7150 C   0  0  0  0  0  1  0  0  0  0  0  0
  184.2070  178.7240  145.8920 O   0  0  0  0  0  0  0  0  0  0  0  0
  188.8860  177.5830  146.5490 C   0  0  1  0  0  3  0  0  0  0  0  0
  188.1520  177.0670  147.6210 O   0  0  0  0  0  0  0  0  0  0  0  0
  188.4580  177.9010  148.6990 C   0  0  0  0  0  1  0  0  0  0  0  0
  189.6180  176.5490  145.9440 O   0  0  0  0  0  0  0  0  0  0  0  0
  191.7220  176.2120  146.7490 O   0  0  0  0  0  1  0  0  0  0  0  0
  190.9410  177.0030  145.9050 C   0  0  1  0  0  3  0  0  0  0  0  0
  191.6310  177.9820  143.8380 O   0  0  0  0  0  0  0  0  0  0  0  0
  191.4770  176.9250  144.5110 C   0  0  0  0  0  0  0  0  0  0  0  0
  191.8410  175.6970  143.9630 O   0  0  0  0  0  1  0  0  0  0  0  0
  190.7980  177.9850  139.3480 C   0  0  0  0  0  2  0  0  0  0  0  0
  191.3010  176.6220  139.4150 N   0  0  0  0  0  2  0  0  0  0  0  0
  193.4090  177.1600  139.8120 O   0  0  0  0  0  1  0  0  0  0  0  0
  192.5910  176.6360  138.8680 N   0  0  0  0  0  2  0  0  0  0  0  0
  1 44  1  6  0  0  0
  1 23  1  0  0  0  0
  2  8  2  0  0  0  0
  3 19  1  1  0  0  0
  3  6  1  0  0  0  0
  3  2  1  0  0  0  0
  4  5  1  0  0  0  0
  6  7  1  0  0  0  0
  7  4  2  0  0  0  0
  8  5  1  0  0  0  0
  8  1  1  0  0  0  0
  9  4  1  1  0  0  0
  9 10  1  0  0  0  0
 10 15  1  0  0  0  0
 11 18  1  6  0  0  0
 13  9  1  0  0  0  0
 13 14  1  0  0  0  0
 14 12  2  0  0  0  0
 14 11  1  0  0  0  0
 15 11  1  0  0  0  0
 17 18  1  0  0  0  0
 18 16  1  0  0  0  0
 19 20  1  0  0  0  0
 20 22  1  0  0  0  0
 21 20  1  0  0  0  0
 23 24  1  1  0  0  0
 23 25  1  0  0  0  0
 25 26  1  0  0  0  0
 26 28  1  0  0  0  0
 28 30  2  0  0  0  0
 28 29  1  0  0  0  0
 29 32  1  0  0  0  0
 30 31  1  0  0  0  0
 31 34  1  1  0  0  0
 31 27  1  0  0  0  0
 32 27  1  0  0  0  0
 32 35  1  1  0  0  0
 33 34  1  0  0  0  0
 35 38  1  6  0  0  0
 35 36  1  0  0  0  0
 36 37  1  0  0  0  0
 40 38  1  0  0  0  0
 40 39  1  1  0  0  0
 41 42  2  0  0  0  0
 42 40  1  0  0  0  0
 43 42  1  0  0  0  0
 44 45  1  0  0  0  0
 47 45  1  0  0  0  0
 47 46  1  0  0  0  0
M  END
>  <MODEL>
5

>  <REMARK>
 VINA RESULT:      -6.4      3.305      7.102
  Name = 
  18 active torsions:
  status: ('A' for Active; 'I' for Inactive)
    1  A    between atoms: C_3  and  N_18
    2  A    between atoms: O_5  and  C_9
    3  A    between atoms: O_5  and  C_32
    4  A    between atoms: C_6  and  C_9
    5  A    between atoms: C_10  and  C_29
    6  A    between atoms: O_11  and  C_32
    7  A    between atoms: C_14  and  C_34
    8  A    between atoms: N_15  and  C_25
    9  A    between atoms: N_15  and  C_34
   10  A    between atoms: N_18  and  C_28
   11  A    between atoms: C_19  and  C_20
   12  A    between atoms: C_19  and  C_25
   13  A    between atoms: C_19  and  C_45
   14  A    between atoms: C_20  and  N_23
   15  A    between atoms: C_21  and  N_46
   16  A    between atoms: N_23  and  N_40
   17  A    between atoms: C_32  and  C_42
   18  A    between atoms: C_39  and  O_44
                            x       y       z     vdW  Elec       q    Type
                         _______ _______ _______ _____ _____    ______ ____

>  <TORSDO>
F 18

$$$$
=
 OpenBabel10222421413D

 47 49  0  0  1  0  0  0  0  0999 V2000
  187.6660  177.7520  141.4200 C   0  0  1  0  0  3  0  0  0  0  0  0
  186.8100  177.8460  143.7350 C   0  0  0  0  0  3  0  0  0  0  0  0
  185.9120  178.1380  144.9180 C   0  0  2  0  0  3  0  0  0  0  0  0
  184.2020  178.7900  142.4320 C   0  0  0  0  0  0  0  0  0  0  0  0
  185.5810  179.1370  141.9440 C   0  0  0  0  0  2  0  0  0  0  0  0
  184.9370  179.2940  144.7310 C   0  0  0  0  0  2  0  0  0  0  0  0
  183.8970  178.9050  143.7290 C   0  0  0  0  0  3  0  0  0  0  0  0
  186.6520  178.2020  142.4390 C   0  0  0  0  0  0  0  0  0  0  0  0
  183.1420  178.3440  141.4720 C   0  0  2  0  0  3  0  0  0  0  0  0
  183.5380  177.0150  140.8040 C   0  0  0  0  0  2  0  0  0  0  0  0
  183.5560  178.0000  138.4800 C   0  0  1  0  0  3  0  0  0  0  0  0
  184.3080  180.2800  138.8420 N   0  0  0  0  0  2  0  0  0  0  0  0
  182.7590  179.4680  140.4910 C   0  0  0  0  0  2  0  0  0  0  0  0
  183.5040  179.3420  139.1920 C   0  0  0  0  0  0  0  0  0  0  0  0
  182.9750  176.9000  139.3910 C   0  0  0  0  0  2  0  0  0  0  0  0
  183.5890  177.2620  136.2100 C   0  0  0  0  0  1  0  0  0  0  0  0
  181.5640  177.3590  137.3250 C   0  0  0  0  0  1  0  0  0  0  0  0
  182.8450  178.0460  137.1900 N   0  0  0  0  0  0  0  0  0  0  0  0
  186.7310  178.3730  146.1040 N   0  0  0  0  0  2  0  0  0  0  0  0
  187.8170  177.3940  146.2040 C   0  0  0  0  0  3  0  0  0  0  0  0
  188.0670  176.9550  147.6410 C   0  0  0  0  0  1  0  0  0  0  0  0
  189.0940  177.8930  145.5470 C   0  0  0  0  0  1  0  0  0  0  0  0
  187.4500  178.4120  140.0560 C   0  0  1  0  0  3  0  0  0  0  0  0
  188.5710  179.1570  139.6720 O   0  0  0  0  0  1  0  0  0  0  0  0
  187.1650  177.4010  139.0510 N   0  0  0  0  0  2  0  0  0  0  0  0
  188.2040  177.4910  138.0380 C   0  0  0  0  0  2  0  0  0  0  0  0
  188.8510  173.3890  136.9670 C   0  0  0  0  0  2  0  0  0  0  0  0
  188.3100  176.1960  137.3020 C   0  0  0  0  0  0  0  0  0  0  0  0
  189.5820  175.8430  136.5830 C   0  0  0  0  0  2  0  0  0  0  0  0
  187.3040  175.3130  137.3150 C   0  0  0  0  0  3  0  0  0  0  0  0
  187.4860  173.9980  136.6120 C   0  0  2  0  0  3  0  0  0  0  0  0
  190.0130  174.4130  136.9350 C   0  0  2  0  0  3  0  0  0  0  0  0
  185.3790  173.9440  137.2900 C   0  0  0  0  0  1  0  0  0  0  0  0
  186.4580  173.1190  136.9680 O   0  0  0  0  0  0  0  0  0  0  0  0
  191.1530  173.9560  136.0270 C   0  0  1  0  0  3  0  0  0  0  0  0
  190.6460  173.5880  134.7780 O   0  0  0  0  0  0  0  0  0  0  0  0
  191.3190  172.4090  134.4500 C   0  0  0  0  0  1  0  0  0  0  0  0
  192.0980  174.9820  135.8630 O   0  0  0  0  0  0  0  0  0  0  0  0
  193.9050  173.8710  136.6940 O   0  0  0  0  0  1  0  0  0  0  0  0
  192.9640  174.8680  136.9570 C   0  0  1  0  0  3  0  0  0  0  0  0
  193.5130  176.7640  138.3020 O   0  0  0  0  0  1  0  0  0  0  0  0
  193.6660  176.1650  137.2000 C   0  0  0  0  0  0  0  0  0  0  0  0
  194.5170  176.6990  136.2360 O   0  0  0  0  0  0  0  0  0  0  0  0
  189.0990  177.9120  141.9230 C   0  0  0  0  0  2  0  0  0  0  0  0
  189.8470  176.6830  141.7060 N   0  0  0  0  0  2  0  0  0  0  0  0
  190.8210  176.0790  139.8150 O   0  0  0  0  0  1  0  0  0  0  0  0
  190.8840  176.9890  140.8160 N   0  0  0  0  0  2  0  0  0  0  0  0
  1 44  1  1  0  0  0
  1  8  1  0  0  0  0
  2  3  1  0  0  0  0
  3 19  1  1  0  0  0
  4  7  2  0  0  0  0
  5  4  1  0  0  0  0
  5  8  1  0  0  0  0
  6  3  1  0  0  0  0
  7  6  1  0  0  0  0
  8  2  2  0  0  0  0
  9  4  1  6  0  0  0
 10  9  1  0  0  0  0
 11 18  1  6  0  0  0
 11 14  1  0  0  0  0
 11 15  1  0  0  0  0
 12 14  2  0  0  0  0
 13  9  1  0  0  0  0
 14 13  1  0  0  0  0
 15 10  1  0  0  0  0
 16 18  1  0  0  0  0
 18 17  1  0  0  0  0
 19 20  1  0  0  0  0
 20 21  1  0  0  0  0
 22 20  1  0  0  0  0
 23 24  1  6  0  0  0
 23  1  1  0  0  0  0
 25 23  1  0  0  0  0
 26 25  1  0  0  0  0
 28 30  2  0  0  0  0
 28 26  1  0  0  0  0
 29 32  1  0  0  0  0
 29 28  1  0  0  0  0
 31 27  1  0  0  0  0
 31 34  1  1  0  0  0
 31 30  1  0  0  0  0
 32 35  1  6  0  0  0
 32 27  1  0  0  0  0
 34 33  1  0  0  0  0
 35 36  1  6  0  0  0
 37 36  1  0  0  0  0
 38 35  1  0  0  0  0
 38 40  1  0  0  0  0
 40 39  1  6  0  0  0
 40 42  1  0  0  0  0
 42 41  1  0  0  0  0
 43 42  2  0  0  0  0
 45 44  1  0  0  0  0
 46 47  1  0  0  0  0
 47 45  1  0  0  0  0
M  END
>  <MODEL>
6

>  <REMARK>
 VINA RESULT:      -6.2      2.838      8.882
  Name = 
  18 active torsions:
  status: ('A' for Active; 'I' for Inactive)
    1  A    between atoms: C_3  and  N_18
    2  A    between atoms: O_5  and  C_9
    3  A    between atoms: O_5  and  C_32
    4  A    between atoms: C_6  and  C_9
    5  A    between atoms: C_10  and  C_29
    6  A    between atoms: O_11  and  C_32
    7  A    between atoms: C_14  and  C_34
    8  A    between atoms: N_15  and  C_25
    9  A    between atoms: N_15  and  C_34
   10  A    between atoms: N_18  and  C_28
   11  A    between atoms: C_19  and  C_20
   12  A    between atoms: C_19  and  C_25
   13  A    between atoms: C_19  and  C_45
   14  A    between atoms: C_20  and  N_23
   15  A    between atoms: C_21  and  N_46
   16  A    between atoms: N_23  and  N_40
   17  A    between atoms: C_32  and  C_42
   18  A    between atoms: C_39  and  O_44
                            x       y       z     vdW  Elec       q    Type
                         _______ _______ _______ _____ _____    ______ ____

>  <TORSDO>
F 18

$$$$
=
 OpenBabel10222421413D

 47 49  0  0  1  0  0  0  0  0999 V2000
  183.7630  177.8320  139.3680 C   0  0  1  0  0  3  0  0  0  0  0  0
  183.6700  175.7150  138.1000 C   0  0  0  0  0  3  0  0  0  0  0  0
  183.9530  174.6620  137.0500 C   0  0  2  0  0  3  0  0  0  0  0  0
  186.1390  176.8050  136.6480 C   0  0  0  0  0  0  0  0  0  0  0  0
  184.9860  177.6420  137.1310 C   0  0  0  0  0  2  0  0  0  0  0  0
  184.5200  175.1840  135.7350 C   0  0  0  0  0  2  0  0  0  0  0  0
  185.9130  175.6800  135.9610 C   0  0  0  0  0  3  0  0  0  0  0  0
  184.1570  176.9740  138.1950 C   0  0  0  0  0  0  0  0  0  0  0  0
  187.5520  177.2340  136.8970 C   0  0  2  0  0  3  0  0  0  0  0  0
  188.2790  177.5100  135.5680 C   0  0  0  0  0  2  0  0  0  0  0  0
  190.0110  175.7150  135.9550 C   0  0  1  0  0  3  0  0  0  0  0  0
  188.7860  174.0050  137.1690 N   0  0  0  0  0  2  0  0  0  0  0  0
  188.2820  176.2580  137.8380 C   0  0  0  0  0  2  0  0  0  0  0  0
  189.0870  175.2500  137.0690 C   0  0  0  0  0  0  0  0  0  0  0  0
  189.7720  177.2100  135.6640 C   0  0  0  0  0  2  0  0  0  0  0  0
  192.2490  175.8040  135.1310 C   0  0  0  0  0  1  0  0  0  0  0  0
  191.8450  176.3870  137.3330 C   0  0  0  0  0  1  0  0  0  0  0  0
  191.4240  175.4610  136.2850 N   0  0  0  0  0  0  0  0  0  0  0  0
  182.7380  173.8950  136.7900 N   0  0  0  0  0  2  0  0  0  0  0  0
  182.0060  174.4300  135.6390 C   0  0  0  0  0  3  0  0  0  0  0  0
  180.7550  175.1930  136.0540 C   0  0  0  0  0  1  0  0  0  0  0  0
  181.6820  173.3500  134.6190 C   0  0  0  0  0  1  0  0  0  0  0  0
  184.7790  178.9440  139.6410 C   0  0  1  0  0  3  0  0  0  0  0  0
  184.4040  180.1370  139.0120 O   0  0  0  0  0  1  0  0  0  0  0  0
  184.9070  179.1640  141.0720 N   0  0  0  0  0  2  0  0  0  0  0  0
  186.0690  178.4160  141.5240 C   0  0  0  0  0  2  0  0  0  0  0  0
  186.1450  178.7750  145.7970 C   0  0  0  0  0  2  0  0  0  0  0  0
  185.9690  178.1570  142.9910 C   0  0  0  0  0  0  0  0  0  0  0  0
  187.1360  177.5670  143.7320 C   0  0  0  0  0  2  0  0  0  0  0  0
  184.8680  178.4930  143.6750 C   0  0  0  0  0  3  0  0  0  0  0  0
  184.8410  178.2700  145.1610 C   0  0  2  0  0  3  0  0  0  0  0  0
  187.4160  178.3700  145.0090 C   0  0  2  0  0  3  0  0  0  0  0  0
  182.8520  179.1050  144.6640 C   0  0  0  0  0  1  0  0  0  0  0  0
  183.7430  178.9270  145.7240 O   0  0  0  0  0  0  0  0  0  0  0  0
  188.4280  177.6410  145.8920 C   0  0  1  0  0  3  0  0  0  0  0  0
  187.7580  176.9110  146.8770 O   0  0  0  0  0  0  0  0  0  0  0  0
  188.4120  177.2330  148.0690 C   0  0  0  0  0  1  0  0  0  0  0  0
  189.2180  176.7710  145.1240 O   0  0  0  0  0  0  0  0  0  0  0  0
  191.3700  176.4890  145.8180 O   0  0  0  0  0  1  0  0  0  0  0  0
  190.5000  177.3330  145.1270 C   0  0  1  0  0  3  0  0  0  0  0  0
  190.6560  178.5430  143.0720 O   0  0  0  0  0  0  0  0  0  0  0  0
  190.9900  177.5150  143.7250 C   0  0  0  0  0  0  0  0  0  0  0  0
  191.8430  176.5770  143.1490 O   0  0  0  0  0  1  0  0  0  0  0  0
  182.3380  178.3650  139.2400 C   0  0  0  0  0  2  0  0  0  0  0  0
  181.4690  177.7160  140.2100 N   0  0  0  0  0  2  0  0  0  0  0  0
  181.1540  179.8980  140.3870 O   0  0  0  0  0  1  0  0  0  0  0  0
  180.6060  178.7010  140.7060 N   0  0  0  0  0  2  0  0  0  0  0  0
  1 44  1  6  0  0  0
  1 23  1  0  0  0  0
  2  8  2  0  0  0  0
  3 19  1  6  0  0  0
  3  2  1  0  0  0  0
  4  5  1  0  0  0  0
  5  8  1  0  0  0  0
  6  7  1  0  0  0  0
  6  3  1  0  0  0  0
  7  4  2  0  0  0  0
  8  1  1  0  0  0  0
  9  4  1  6  0  0  0
  9 13  1  0  0  0  0
 10 15  1  0  0  0  0
 10  9  1  0  0  0  0
 11 18  1  1  0  0  0
 11 14  1  0  0  0  0
 14 12  2  0  0  0  0
 14 13  1  0  0  0  0
 15 11  1  0  0  0  0
 16 18  1  0  0  0  0
 18 17  1  0  0  0  0
 20 21  1  0  0  0  0
 20 19  1  0  0  0  0
 22 20  1  0  0  0  0
 23 24  1  6  0  0  0
 23 25  1  0  0  0  0
 25 26  1  0  0  0  0
 26 28  1  0  0  0  0
 28 30  2  0  0  0  0
 28 29  1  0  0  0  0
 29 32  1  0  0  0  0
 30 31  1  0  0  0  0
 31 34  1  1  0  0  0
 31 27  1  0  0  0  0
 32 27  1  0  0  0  0
 32 35  1  1  0  0  0
 33 34  1  0  0  0  0
 35 38  1  6  0  0  0
 35 36  1  0  0  0  0
 36 37  1  0  0  0  0
 38 40  1  0  0  0  0
 40 39  1  1  0  0  0
 41 42  2  0  0  0  0
 42 40  1  0  0  0  0
 43 42  1  0  0  0  0
 44 45  1  0  0  0  0
 45 47  1  0  0  0  0
 46 47  1  0  0  0  0
M  END
>  <MODEL>
7

>  <REMARK>
 VINA RESULT:      -6.2      3.080      8.186
  Name = 
  18 active torsions:
  status: ('A' for Active; 'I' for Inactive)
    1  A    between atoms: C_3  and  N_18
    2  A    between atoms: O_5  and  C_9
    3  A    between atoms: O_5  and  C_32
    4  A    between atoms: C_6  and  C_9
    5  A    between atoms: C_10  and  C_29
    6  A    between atoms: O_11  and  C_32
    7  A    between atoms: C_14  and  C_34
    8  A    between atoms: N_15  and  C_25
    9  A    between atoms: N_15  and  C_34
   10  A    between atoms: N_18  and  C_28
   11  A    between atoms: C_19  and  C_20
   12  A    between atoms: C_19  and  C_25
   13  A    between atoms: C_19  and  C_45
   14  A    between atoms: C_20  and  N_23
   15  A    between atoms: C_21  and  N_46
   16  A    between atoms: N_23  and  N_40
   17  A    between atoms: C_32  and  C_42
   18  A    between atoms: C_39  and  O_44
                            x       y       z     vdW  Elec       q    Type
                         _______ _______ _______ _____ _____    ______ ____

>  <TORSDO>
F 18

$$$$
=
 OpenBabel10222421413D

 47 49  0  0  1  0  0  0  0  0999 V2000
  190.2820  177.3240  138.6560 C   0  0  1  0  0  3  0  0  0  0  0  0
  188.4090  176.0530  137.6720 C   0  0  0  0  0  3  0  0  0  0  0  0
  187.5940  175.2280  136.6980 C   0  0  2  0  0  3  0  0  0  0  0  0
  190.4680  175.1890  135.5730 C   0  0  0  0  0  0  0  0  0  0  0  0
  190.4220  176.5440  136.2250 C   0  0  0  0  0  2  0  0  0  0  0  0
  188.0280  175.3160  135.2400 C   0  0  0  0  0  2  0  0  0  0  0  0
  189.3530  174.6410  135.0780 C   0  0  0  0  0  3  0  0  0  0  0  0
  189.6510  176.5660  137.5180 C   0  0  0  0  0  0  0  0  0  0  0  0
  191.7650  174.4510  135.4360 C   0  0  2  0  0  3  0  0  0  0  0  0
  191.9480  173.4550  136.5950 C   0  0  0  0  0  2  0  0  0  0  0  0
  194.0430  174.5770  137.4440 C   0  0  1  0  0  3  0  0  0  0  0  0
  193.6610  176.9250  136.9560 N   0  0  0  0  0  2  0  0  0  0  0  0
  192.9450  175.4180  135.2260 C   0  0  0  0  0  2  0  0  0  0  0  0
  193.6480  175.7170  136.5200 C   0  0  0  0  0  0  0  0  0  0  0  0
  193.4190  173.2570  136.9470 C   0  0  0  0  0  2  0  0  0  0  0  0
  195.8260  173.5790  138.6780 C   0  0  0  0  0  1  0  0  0  0  0  0
  196.0240  173.7640  136.3800 C   0  0  0  0  0  1  0  0  0  0  0  0
  195.5070  174.4570  137.5570 N   0  0  0  0  0  0  0  0  0  0  0  0
  186.1840  175.5910  136.8130 N   0  0  0  0  0  2  0  0  0  0  0  0
  185.3290  174.4020  136.8570 C   0  0  0  0  0  3  0  0  0  0  0  0
  184.0460  174.6420  137.6410 C   0  0  0  0  0  1  0  0  0  0  0  0
  186.0760  173.1840  137.3780 C   0  0  0  0  0  1  0  0  0  0  0  0
  189.3360  178.3690  139.2530 C   0  0  1  0  0  3  0  0  0  0  0  0
  188.6080  179.0220  138.2520 O   0  0  0  0  0  1  0  0  0  0  0  0
  188.4230  177.7390  140.1920 N   0  0  0  0  0  2  0  0  0  0  0  0
  187.6410  178.7960  140.8140 C   0  0  0  0  0  2  0  0  0  0  0  0
  186.1510  178.5370  144.8270 C   0  0  0  0  0  2  0  0  0  0  0  0
  187.0770  178.3170  142.1100 C   0  0  0  0  0  0  0  0  0  0  0  0
  187.9910  177.7740  143.1720 C   0  0  0  0  0  2  0  0  0  0  0  0
  185.7670  178.4120  142.3660 C   0  0  0  0  0  3  0  0  0  0  0  0
  185.2580  177.9740  143.7110 C   0  0  2  0  0  3  0  0  0  0  0  0
  187.6670  178.4110  144.5300 C   0  0  2  0  0  3  0  0  0  0  0  0
  183.8690  178.8030  145.2220 C   0  0  0  0  0  1  0  0  0  0  0  0
  183.9390  178.4020  143.8860 O   0  0  0  0  0  0  0  0  0  0  0  0
  188.4110  177.6910  145.6530 C   0  0  1  0  0  3  0  0  0  0  0  0
  187.4940  177.0920  146.5210 O   0  0  0  0  0  0  0  0  0  0  0  0
  187.7860  177.6270  147.7780 C   0  0  0  0  0  1  0  0  0  0  0  0
  189.2680  176.7090  145.1300 O   0  0  0  0  0  0  0  0  0  0  0  0
  190.9350  176.2980  146.6260 O   0  0  0  0  0  1  0  0  0  0  0  0
  190.5530  177.0830  145.5380 C   0  0  1  0  0  3  0  0  0  0  0  0
  191.9710  177.8990  143.7960 O   0  0  0  0  0  0  0  0  0  0  0  0
  191.5280  176.8930  144.4200 C   0  0  0  0  0  0  0  0  0  0  0  0
  191.9800  175.6190  144.0860 O   0  0  0  0  0  1  0  0  0  0  0  0
  190.8630  176.3920  139.7180 C   0  0  0  0  0  2  0  0  0  0  0  0
  191.6550  177.1510  140.6740 N   0  0  0  0  0  2  0  0  0  0  0  0
  193.8080  176.8900  140.2420 O   0  0  0  0  0  1  0  0  0  0  0  0
  192.7430  177.6820  139.9700 N   0  0  0  0  0  2  0  0  0  0  0  0
  1 23  1  0  0  0  0
  1 44  1  1  0  0  0
  3 19  1  6  0  0  0
  3  2  1  0  0  0  0
  4  5  1  0  0  0  0
  5  8  1  0  0  0  0
  6  3  1  0  0  0  0
  7  6  1  0  0  0  0
  7  4  2  0  0  0  0
  8  2  2  0  0  0  0
  8  1  1  0  0  0  0
  9  4  1  1  0  0  0
  9 10  1  0  0  0  0
 10 15  1  0  0  0  0
 11 18  1  6  0  0  0
 13  9  1  0  0  0  0
 13 14  1  0  0  0  0
 14 12  2  0  0  0  0
 14 11  1  0  0  0  0
 15 11  1  0  0  0  0
 17 18  1  0  0  0  0
 18 16  1  0  0  0  0
 19 20  1  0  0  0  0
 20 22  1  0  0  0  0
 20 21  1  0  0  0  0
 23 24  1  6  0  0  0
 23 25  1  0  0  0  0
 25 26  1  0  0  0  0
 26 28  1  0  0  0  0
 28 30  2  0  0  0  0
 28 29  1  0  0  0  0
 29 32  1  0  0  0  0
 30 31  1  0  0  0  0
 31 34  1  1  0  0  0
 31 27  1  0  0  0  0
 32 27  1  0  0  0  0
 32 35  1  1  0  0  0
 34 33  1  0  0  0  0
 35 38  1  6  0  0  0
 35 36  1  0  0  0  0
 36 37  1  0  0  0  0
 38 40  1  0  0  0  0
 40 39  1  1  0  0  0
 41 42  2  0  0  0  0
 42 40  1  0  0  0  0
 43 42  1  0  0  0  0
 44 45  1  0  0  0  0
 47 46  1  0  0  0  0
 47 45  1  0  0  0  0
M  END
>  <MODEL>
8

>  <REMARK>
 VINA RESULT:      -6.2      2.936      7.443
  Name = 
  18 active torsions:
  status: ('A' for Active; 'I' for Inactive)
    1  A    between atoms: C_3  and  N_18
    2  A    between atoms: O_5  and  C_9
    3  A    between atoms: O_5  and  C_32
    4  A    between atoms: C_6  and  C_9
    5  A    between atoms: C_10  and  C_29
    6  A    between atoms: O_11  and  C_32
    7  A    between atoms: C_14  and  C_34
    8  A    between atoms: N_15  and  C_25
    9  A    between atoms: N_15  and  C_34
   10  A    between atoms: N_18  and  C_28
   11  A    between atoms: C_19  and  C_20
   12  A    between atoms: C_19  and  C_25
   13  A    between atoms: C_19  and  C_45
   14  A    between atoms: C_20  and  N_23
   15  A    between atoms: C_21  and  N_46
   16  A    between atoms: N_23  and  N_40
   17  A    between atoms: C_32  and  C_42
   18  A    between atoms: C_39  and  O_44
                            x       y       z     vdW  Elec       q    Type
                         _______ _______ _______ _____ _____    ______ ____

>  <TORSDO>
F 18

$$$$
=
 OpenBabel10222421413D

 47 49  0  0  1  0  0  0  0  0999 V2000
  183.5190  177.9290  139.6780 C   0  0  1  0  0  3  0  0  0  0  0  0
  183.2930  175.7690  138.5030 C   0  0  0  0  0  3  0  0  0  0  0  0
  183.4420  174.6880  137.4530 C   0  0  2  0  0  3  0  0  0  0  0  0
  185.4810  176.8660  136.6580 C   0  0  0  0  0  0  0  0  0  0  0  0
  184.3920  177.6920  137.2860 C   0  0  0  0  0  2  0  0  0  0  0  0
  183.7880  175.1780  136.0520 C   0  0  0  0  0  2  0  0  0  0  0  0
  185.1850  175.7130  136.0470 C   0  0  0  0  0  3  0  0  0  0  0  0
  183.7540  177.0410  138.4840 C   0  0  0  0  0  0  0  0  0  0  0  0
  186.9030  177.3360  136.6750 C   0  0  2  0  0  3  0  0  0  0  0  0
  187.4290  177.5300  135.2410 C   0  0  0  0  0  2  0  0  0  0  0  0
  189.2450  175.7970  135.4980 C   0  0  1  0  0  3  0  0  0  0  0  0
  188.2500  174.1550  136.9850 N   0  0  0  0  0  2  0  0  0  0  0  0
  187.7840  176.4400  137.5670 C   0  0  0  0  0  2  0  0  0  0  0  0
  188.5000  175.3950  136.7600 C   0  0  0  0  0  0  0  0  0  0  0  0
  188.9280  177.2640  135.1450 C   0  0  0  0  0  2  0  0  0  0  0  0
  191.3740  176.1650  134.4810 C   0  0  0  0  0  1  0  0  0  0  0  0
  191.1820  176.3680  136.7780 C   0  0  0  0  0  1  0  0  0  0  0  0
  190.6970  175.5910  135.6400 N   0  0  0  0  0  0  0  0  0  0  0  0
  182.2240  173.8850  137.4060 N   0  0  0  0  0  2  0  0  0  0  0  0
  182.2870  172.8850  136.3370 C   0  0  0  0  0  3  0  0  0  0  0  0
  181.1350  173.0230  135.3500 C   0  0  0  0  0  1  0  0  0  0  0  0
  182.3780  171.4700  136.8860 C   0  0  0  0  0  1  0  0  0  0  0  0
  184.5160  179.0890  139.7430 C   0  0  1  0  0  3  0  0  0  0  0  0
  183.9300  180.2850  139.3120 O   0  0  0  0  0  1  0  0  0  0  0  0
  185.0100  179.2480  141.1010 N   0  0  0  0  0  2  0  0  0  0  0  0
  186.3440  178.6690  141.1480 C   0  0  0  0  0  2  0  0  0  0  0  0
  187.3990  178.1300  145.2700 C   0  0  0  0  0  2  0  0  0  0  0  0
  186.6040  178.1000  142.5030 C   0  0  0  0  0  0  0  0  0  0  0  0
  187.9430  177.4950  142.8190 C   0  0  0  0  0  2  0  0  0  0  0  0
  185.6770  178.1660  143.4660 C   0  0  0  0  0  3  0  0  0  0  0  0
  186.0120  177.6350  144.8320 C   0  0  2  0  0  3  0  0  0  0  0  0
  188.4700  178.0360  144.1540 C   0  0  2  0  0  3  0  0  0  0  0  0
  185.5990  179.1470  146.3950 C   0  0  0  0  0  1  0  0  0  0  0  0
  185.0420  178.0390  145.7540 O   0  0  0  0  0  0  0  0  0  0  0  0
  189.6990  177.2490  144.6070 C   0  0  1  0  0  3  0  0  0  0  0  0
  190.6060  177.1390  143.5490 O   0  0  0  0  0  0  0  0  0  0  0  0
  190.9600  175.7880  143.5200 C   0  0  0  0  0  1  0  0  0  0  0  0
  190.3230  177.8860  145.6920 O   0  0  0  0  0  0  0  0  0  0  0  0
  191.6190  176.8980  147.2830 O   0  0  0  0  0  1  0  0  0  0  0  0
  190.3440  176.9350  146.7180 C   0  0  1  0  0  3  0  0  0  0  0  0
  188.3360  176.5430  147.9530 O   0  0  0  0  0  0  0  0  0  0  0  0
  189.3420  177.2860  147.7720 C   0  0  0  0  0  0  0  0  0  0  0  0
  189.5290  178.4060  148.5790 O   0  0  0  0  0  1  0  0  0  0  0  0
  182.0700  178.4020  139.7690 C   0  0  0  0  0  2  0  0  0  0  0  0
  181.6970  178.6150  141.1590 N   0  0  0  0  0  2  0  0  0  0  0  0
  180.3770  179.8240  142.4570 O   0  0  0  0  0  1  0  0  0  0  0  0
  180.8210  179.7070  141.1820 N   0  0  0  0  0  2  0  0  0  0  0  0
  1 23  1  0  0  0  0
  1 44  1  6  0  0  0
  3 19  1  6  0  0  0
  3  2  1  0  0  0  0
  4  5  1  0  0  0  0
  5  8  1  0  0  0  0
  6  3  1  0  0  0  0
  7  6  1  0  0  0  0
  7  4  2  0  0  0  0
  8  2  2  0  0  0  0
  8  1  1  0  0  0  0
  9  4  1  6  0  0  0
  9 13  1  0  0  0  0
 10  9  1  0  0  0  0
 11 18  1  1  0  0  0
 11 14  1  0  0  0  0
 14 12  2  0  0  0  0
 14 13  1  0  0  0  0
 15 10  1  0  0  0  0
 15 11  1  0  0  0  0
 16 18  1  0  0  0  0
 18 17  1  0  0  0  0
 20 22  1  0  0  0  0
 20 19  1  0  0  0  0
 21 20  1  0  0  0  0
 23 24  1  1  0  0  0
 23 25  1  0  0  0  0
 25 26  1  0  0  0  0
 26 28  1  0  0  0  0
 28 29  1  0  0  0  0
 28 30  2  0  0  0  0
 29 32  1  0  0  0  0
 30 31  1  0  0  0  0
 31 27  1  0  0  0  0
 31 34  1  1  0  0  0
 32 35  1  1  0  0  0
 32 27  1  0  0  0  0
 34 33  1  0  0  0  0
 35 36  1  6  0  0  0
 35 38  1  0  0  0  0
 37 36  1  0  0  0  0
 38 40  1  0  0  0  0
 40 39  1  1  0  0  0
 40 42  1  0  0  0  0
 42 41  2  0  0  0  0
 42 43  1  0  0  0  0
 44 45  1  0  0  0  0
 45 47  1  0  0  0  0
 47 46  1  0  0  0  0
M  END
>  <MODEL>
9

>  <REMARK>
 VINA RESULT:      -6.2      3.239      8.720
  Name = 
  18 active torsions:
  status: ('A' for Active; 'I' for Inactive)
    1  A    between atoms: C_3  and  N_18
    2  A    between atoms: O_5  and  C_9
    3  A    between atoms: O_5  and  C_32
    4  A    between atoms: C_6  and  C_9
    5  A    between atoms: C_10  and  C_29
    6  A    between atoms: O_11  and  C_32
    7  A    between atoms: C_14  and  C_34
    8  A    between atoms: N_15  and  C_25
    9  A    between atoms: N_15  and  C_34
   10  A    between atoms: N_18  and  C_28
   11  A    between atoms: C_19  and  C_20
   12  A    between atoms: C_19  and  C_25
   13  A    between atoms: C_19  and  C_45
   14  A    between atoms: C_20  and  N_23
   15  A    between atoms: C_21  and  N_46
   16  A    between atoms: N_23  and  N_40
   17  A    between atoms: C_32  and  C_42
   18  A    between atoms: C_39  and  O_44
                            x       y       z     vdW  Elec       q    Type
                         _______ _______ _______ _____ _____    ______ ____

>  <TORSDO>
F 18

$$$$
