=
 OpenBabel10232412483D

 40 46  0  0  1  0  0  0  0  0999 V2000
  186.6910  177.6580  143.9540 C   0  0  0  0  0  2  0  0  0  0  0  0
  185.2540  178.0630  141.9880 C   0  0  1  0  0  3  0  0  0  0  0  0
  186.5020  178.2370  141.1620 C   0  0  0  0  0  3  0  0  0  0  0  0
  187.9510  178.0800  143.1890 C   0  0  2  0  0  3  0  0  0  0  0  0
  187.7420  178.1410  141.6820 C   0  0  0  0  0  0  0  0  0  0  0  0
  185.4870  178.4340  143.4470 C   0  0  0  0  0  2  0  0  0  0  0  0
  191.1870  177.8170  140.5480 C   0  0  0  0  0  2  0  0  0  0  0  0
  188.4890  177.3790  136.4800 C   0  0  0  0  0  2  0  0  0  0  0  0
  191.2200  176.1630  138.5930 C   0  0  1  0  0  3  0  0  0  0  0  0
  192.0220  176.8470  139.7100 C   0  0  0  0  0  2  0  0  0  0  0  0
  189.5530  176.4380  136.7810 N   0  0  0  0  0  2  0  0  0  0  0  0
  189.8520  177.2730  140.8040 N   0  0  1  0  0  0  0  0  0  0  0  0
  188.5100  178.4410  137.5590 C   0  0  0  0  0  2  0  0  0  0  0  0
  190.4040  177.1460  137.7250 C   0  0  1  0  0  3  0  0  0  0  0  0
  189.5770  178.0970  138.4840 N   0  0  2  0  0  0  0  0  0  0  0  0
  188.9130  178.4090  140.7740 C   0  0  1  0  0  3  0  0  0  0  0  0
  188.9320  177.4650  139.6500 C   0  0  2  0  0  3  0  0  0  0  0  0
  192.1180  175.2990  137.7550 C   0  0  0  0  0  3  0  0  0  0  0  0
  193.4480  175.3690  137.8410 C   0  0  0  0  0  3  0  0  0  0  0  0
  194.3060  174.5030  136.9820 C   0  0  0  0  0  2  0  0  0  0  0  0
  195.6390  174.9140  137.0760 O   0  0  0  0  0  0  0  0  0  0  0  0
  197.7090  173.7110  138.1630 O   0  0  0  0  0  0  0  0  0  0  0  0
  195.3590  172.7100  138.7070 O   0  0  0  0  0  1  0  0  0  0  0  0
  196.2730  174.1030  138.4230 P   0  0  0  0  0  0  0  0  0  0  0  0
  196.1990  175.1020  139.7890 O   0  0  0  0  0  1  0  0  0  0  0  0
  184.2840  179.5500  140.4240 O   0  0  0  0  0  0  0  0  0  0  0  0
  182.7710  178.7620  142.0380 C   0  0  0  0  0  1  0  0  0  0  0  0
  184.1180  178.8450  141.4080 C   0  0  0  0  0  0  0  0  0  0  0  0
  189.0060  177.2220  143.5190 O   0  0  0  0  0  0  0  0  0  0  0  0
  189.6410  177.8210  144.6170 C   0  0  2  0  0  3  0  0  0  0  0  0
  190.8730  178.5840  144.1650 C   0  0  0  0  0  1  0  0  0  0  0  0
  191.9910  175.6000  146.2640 C   0  0  0  0  0  2  0  0  0  0  0  0
  192.5600  176.8510  148.2640 O   0  0  0  0  0  0  0  0  0  0  0  0
  189.2530  176.9720  146.9650 C   0  0  0  0  0  0  0  0  0  0  0  0
  187.9990  176.9230  147.0790 O   0  0  0  0  0  0  0  0  0  0  0  0
  191.9060  175.7230  147.7680 C   0  0  1  0  0  3  0  0  0  0  0  0
  191.4340  176.9210  146.0440 N   0  0  2  0  0  0  0  0  0  0  0  0
  191.4040  177.1150  147.4970 C   0  0  2  0  0  0  0  0  0  0  0  0
  190.1010  177.1420  148.0360 O   0  0  0  0  0  0  0  0  0  0  0  0
  190.0090  176.7850  145.6830 C   0  0  2  0  0  3  0  0  0  0  0  0
  2 28  1  6  0  0  0
  2  6  1  0  0  0  0
  3  5  2  0  0  0  0
  3  2  1  0  0  0  0
  4 29  1  6  0  0  0
  4  1  1  0  0  0  0
  5  4  1  0  0  0  0
  6  1  1  0  0  0  0
  8 11  1  0  0  0  0
  8 13  1  0  0  0  0
  9 18  1  6  0  0  0
  9 10  1  0  0  0  0
 10  7  1  0  0  0  0
 12  7  1  6  0  0  0
 14 11  1  6  0  0  0
 14 15  1  0  0  0  0
 14  9  1  0  0  0  0
 15 13  1  6  0  0  0
 15 17  1  0  0  0  0
 16 12  1  0  0  0  0
 16  5  1  1  0  0  0
 17 16  1  0  0  0  0
 17 12  1  0  0  0  0
 18 19  2  0  0  0  0
 20 21  1  0  0  0  0
 20 19  1  0  0  0  0
 21 24  1  0  0  0  0
 22 24  2  0  0  0  0
 24 23  1  0  0  0  0
 24 25  1  0  0  0  0
 26 28  2  0  0  0  0
 28 27  1  0  0  0  0
 29 30  1  0  0  0  0
 30 40  1  0  0  0  0
 31 30  1  0  0  0  0
 32 36  1  0  0  0  0
 34 35  2  0  0  0  0
 34 39  1  0  0  0  0
 36 33  1  0  0  0  0
 37 32  1  0  0  0  0
 37 38  1  0  0  0  0
 38 36  1  0  0  0  0
 38 39  1  0  0  0  0
 38 33  1  0  0  0  0
 40 37  1  0  0  0  0
 40 34  1  0  0  0  0
M  END
>  <MODEL>
1

>  <REMARK>
 VINA RESULT:      -8.8      0.000      0.000
  Name = 
  9 active torsions:
  status: ('A' for Active; 'I' for Inactive)
    1  A    between atoms: C_1  and  C_14
    2  A    between atoms: C_1  and  O_25
    3  A    between atoms: O_5  and  C_7
    4  A    between atoms: O_5  and  C_27
    5  A    between atoms: C_7  and  C_39
    6  A    between atoms: C_11  and  C_24
    7  A    between atoms: P_17  and  O_25
    8  A    between atoms: C_22  and  C_38
    9  A    between atoms: C_31  and  C_37
                            x       y       z     vdW  Elec       q    Type
                         _______ _______ _______ _____ _____    ______ ____

>  <TORSDO>
F 9

$$$$
=
 OpenBabel10232412483D

 40 46  0  0  1  0  0  0  0  0999 V2000
  185.1190  178.0700  142.8420 C   0  0  0  0  0  2  0  0  0  0  0  0
  184.4240  178.4760  140.5090 C   0  0  1  0  0  3  0  0  0  0  0  0
  185.8800  178.5260  140.1250 C   0  0  0  0  0  3  0  0  0  0  0  0
  186.5870  178.3680  142.5140 C   0  0  2  0  0  3  0  0  0  0  0  0
  186.8760  178.3710  141.0190 C   0  0  0  0  0  0  0  0  0  0  0  0
  184.2070  178.9000  141.9560 C   0  0  0  0  0  2  0  0  0  0  0  0
  190.4120  177.5160  140.8330 C   0  0  0  0  0  2  0  0  0  0  0  0
  189.0350  178.1540  136.1720 C   0  0  0  0  0  2  0  0  0  0  0  0
  190.7810  176.1570  138.6950 C   0  0  1  0  0  3  0  0  0  0  0  0
  191.3020  176.5160  140.0940 C   0  0  0  0  0  2  0  0  0  0  0  0
  189.8010  176.9890  136.5770 N   0  0  0  0  0  2  0  0  0  0  0  0
  188.9950  177.2220  140.6100 N   0  0  1  0  0  0  0  0  0  0  0  0
  188.8910  179.0430  137.3910 C   0  0  0  0  0  2  0  0  0  0  0  0
  190.4250  177.3860  137.8300 C   0  0  1  0  0  3  0  0  0  0  0  0
  189.5630  178.3770  138.4940 N   0  0  2  0  0  0  0  0  0  0  0  0
  188.2930  178.5160  140.5320 C   0  0  1  0  0  3  0  0  0  0  0  0
  188.5070  177.7400  139.3030 C   0  0  2  0  0  3  0  0  0  0  0  0
  191.7470  175.2460  137.9930 C   0  0  0  0  0  3  0  0  0  0  0  0
  193.0500  175.5250  137.9110 C   0  0  0  0  0  3  0  0  0  0  0  0
  193.9750  174.6030  137.1930 C   0  0  0  0  0  2  0  0  0  0  0  0
  195.2900  175.0630  137.3110 O   0  0  0  0  0  0  0  0  0  0  0  0
  195.1860  172.8740  138.7650 O   0  0  0  0  0  1  0  0  0  0  0  0
  195.9880  175.0440  139.9770 O   0  0  0  0  0  1  0  0  0  0  0  0
  195.9860  174.1380  138.5500 P   0  0  0  0  0  0  0  0  0  0  0  0
  197.5800  173.7350  138.1470 O   0  0  0  0  0  0  0  0  0  0  0  0
  184.0200  180.3690  139.1470 O   0  0  0  0  0  0  0  0  0  0  0  0
  182.2490  178.8270  139.1660 C   0  0  0  0  0  1  0  0  0  0  0  0
  183.5990  179.3060  139.5760 C   0  0  0  0  0  0  0  0  0  0  0  0
  187.4100  177.4570  143.1860 O   0  0  0  0  0  0  0  0  0  0  0  0
  187.9810  178.1840  144.2420 C   0  0  2  0  0  3  0  0  0  0  0  0
  189.4860  178.2770  144.0690 C   0  0  0  0  0  1  0  0  0  0  0  0
  188.8740  176.5220  147.3430 C   0  0  0  0  0  2  0  0  0  0  0  0
  188.8240  178.3530  148.9360 O   0  0  0  0  0  0  0  0  0  0  0  0
  186.4740  178.2430  146.2710 C   0  0  0  0  0  0  0  0  0  0  0  0
  185.3100  178.3260  145.7950 O   0  0  0  0  0  0  0  0  0  0  0  0
  188.2020  177.1710  148.5310 C   0  0  1  0  0  3  0  0  0  0  0  0
  188.7690  177.7180  146.5280 N   0  0  2  0  0  0  0  0  0  0  0  0
  188.1820  178.4110  147.6790 C   0  0  2  0  0  0  0  0  0  0  0  0
  186.8150  178.7180  147.5170 O   0  0  0  0  0  0  0  0  0  0  0  0
  187.6320  177.5640  145.5990 C   0  0  2  0  0  3  0  0  0  0  0  0
  2 28  1  6  0  0  0
  2  6  1  0  0  0  0
  3  2  1  0  0  0  0
  3  5  2  0  0  0  0
  4  1  1  0  0  0  0
  4 29  1  1  0  0  0
  5  4  1  0  0  0  0
  6  1  1  0  0  0  0
  8 11  1  0  0  0  0
  8 13  1  0  0  0  0
  9 18  1  6  0  0  0
  9 10  1  0  0  0  0
 10  7  1  0  0  0  0
 12  7  1  6  0  0  0
 14 11  1  6  0  0  0
 14 15  1  0  0  0  0
 14  9  1  0  0  0  0
 15 13  1  6  0  0  0
 15 17  1  0  0  0  0
 16 12  1  0  0  0  0
 16  5  1  1  0  0  0
 17 16  1  0  0  0  0
 17 12  1  0  0  0  0
 19 18  2  0  0  0  0
 20 21  1  0  0  0  0
 20 19  1  0  0  0  0
 21 24  1  0  0  0  0
 24 22  1  0  0  0  0
 24 23  1  0  0  0  0
 25 24  2  0  0  0  0
 26 28  2  0  0  0  0
 27 28  1  0  0  0  0
 29 30  1  0  0  0  0
 30 40  1  0  0  0  0
 31 30  1  0  0  0  0
 32 36  1  0  0  0  0
 34 39  1  0  0  0  0
 35 34  2  0  0  0  0
 36 33  1  0  0  0  0
 37 32  1  0  0  0  0
 37 38  1  0  0  0  0
 38 36  1  0  0  0  0
 38 33  1  0  0  0  0
 39 38  1  0  0  0  0
 40 34  1  0  0  0  0
 40 37  1  0  0  0  0
M  END
>  <MODEL>
2

>  <REMARK>
 VINA RESULT:      -8.6      1.491      2.072
  Name = 
  9 active torsions:
  status: ('A' for Active; 'I' for Inactive)
    1  A    between atoms: C_1  and  C_14
    2  A    between atoms: C_1  and  O_25
    3  A    between atoms: O_5  and  C_7
    4  A    between atoms: O_5  and  C_27
    5  A    between atoms: C_7  and  C_39
    6  A    between atoms: C_11  and  C_24
    7  A    between atoms: P_17  and  O_25
    8  A    between atoms: C_22  and  C_38
    9  A    between atoms: C_31  and  C_37
                            x       y       z     vdW  Elec       q    Type
                         _______ _______ _______ _____ _____    ______ ____

>  <TORSDO>
F 9

$$$$
=
 OpenBabel10232412483D

 40 46  0  0  1  0  0  0  0  0999 V2000
  188.8070  176.9290  146.7010 C   0  0  0  0  0  2  0  0  0  0  0  0
  191.2410  176.6750  147.0210 C   0  0  1  0  0  3  0  0  0  0  0  0
  191.4440  177.3070  145.6680 C   0  0  0  0  0  3  0  0  0  0  0  0
  188.9860  177.3340  145.2330 C   0  0  2  0  0  3  0  0  0  0  0  0
  190.4220  177.7100  144.8890 C   0  0  0  0  0  0  0  0  0  0  0  0
  189.9000  175.9580  147.1120 C   0  0  0  0  0  2  0  0  0  0  0  0
  192.3260  177.9640  141.7950 C   0  0  0  0  0  2  0  0  0  0  0  0
  187.6340  177.9540  140.3760 C   0  0  0  0  0  2  0  0  0  0  0  0
  191.0470  176.6910  139.9780 C   0  0  1  0  0  3  0  0  0  0  0  0
  192.3990  177.2520  140.4440 C   0  0  0  0  0  2  0  0  0  0  0  0
  188.6150  177.0960  139.7360 N   0  0  0  0  0  2  0  0  0  0  0  0
  191.4500  177.2430  142.7210 N   0  0  1  0  0  0  0  0  0  0  0  0
  188.3750  178.8080  141.3850 C   0  0  0  0  0  2  0  0  0  0  0  0
  189.8940  177.7160  140.0460 C   0  0  1  0  0  3  0  0  0  0  0  0
  189.7760  178.4250  141.3300 N   0  0  2  0  0  0  0  0  0  0  0  0
  190.7450  178.2580  143.5250 C   0  0  1  0  0  3  0  0  0  0  0  0
  190.0100  177.5330  142.4810 C   0  0  2  0  0  3  0  0  0  0  0  0
  191.1730  176.0890  138.6080 C   0  0  0  0  0  3  0  0  0  0  0  0
  192.1400  176.4510  137.7620 C   0  0  0  0  0  3  0  0  0  0  0  0
  192.2220  175.8390  136.4050 C   0  0  0  0  0  2  0  0  0  0  0  0
  193.0000  174.6790  136.4540 O   0  0  0  0  0  0  0  0  0  0  0  0
  195.2880  174.3800  135.1910 O   0  0  0  0  0  0  0  0  0  0  0  0
  195.4250  174.9890  137.7280 O   0  0  0  0  0  1  0  0  0  0  0  0
  194.6040  175.1960  136.2650 P   0  0  0  0  0  0  0  0  0  0  0  0
  194.6380  176.8340  135.8370 O   0  0  0  0  0  1  0  0  0  0  0  0
  192.7350  174.9010  146.5530 O   0  0  0  0  0  0  0  0  0  0  0  0
  193.0550  175.8690  148.6690 C   0  0  0  0  0  1  0  0  0  0  0  0
  192.3700  175.7500  147.3520 C   0  0  0  0  0  0  0  0  0  0  0  0
  188.1040  178.3760  144.9250 O   0  0  0  0  0  0  0  0  0  0  0  0
  186.8310  177.7890  144.9060 C   0  0  2  0  0  3  0  0  0  0  0  0
  186.7300  176.7790  143.7770 C   0  0  0  0  0  1  0  0  0  0  0  0
  184.1560  179.4500  143.1000 C   0  0  0  0  0  2  0  0  0  0  0  0
  182.1760  178.4960  144.1310 O   0  0  0  0  0  0  0  0  0  0  0  0
  185.0660  179.1550  146.0930 C   0  0  0  0  0  0  0  0  0  0  0  0
  185.6530  179.6090  147.1110 O   0  0  0  0  0  0  0  0  0  0  0  0
  182.9410  179.6530  143.9770 C   0  0  1  0  0  3  0  0  0  0  0  0
  184.6510  178.3490  143.9050 N   0  0  2  0  0  0  0  0  0  0  0  0
  183.4500  178.4590  144.7380 C   0  0  2  0  0  0  0  0  0  0  0  0
  183.7070  178.9410  146.0390 O   0  0  0  0  0  0  0  0  0  0  0  0
  185.7290  178.8460  144.7830 C   0  0  2  0  0  3  0  0  0  0  0  0
  1  6  1  0  0  0  0
  2  6  1  0  0  0  0
  2 28  1  6  0  0  0
  3  2  1  0  0  0  0
  4 29  1  1  0  0  0
  4  1  1  0  0  0  0
  5  4  1  0  0  0  0
  5  3  2  0  0  0  0
  8 13  1  0  0  0  0
  9 18  1  6  0  0  0
  9 14  1  0  0  0  0
  9 10  1  0  0  0  0
 10  7  1  0  0  0  0
 11  8  1  0  0  0  0
 12  7  1  6  0  0  0
 12 16  1  0  0  0  0
 14 11  1  1  0  0  0
 14 15  1  0  0  0  0
 15 13  1  1  0  0  0
 15 17  1  0  0  0  0
 16  5  1  1  0  0  0
 17 12  1  0  0  0  0
 17 16  1  0  0  0  0
 19 18  2  0  0  0  0
 20 21  1  0  0  0  0
 20 19  1  0  0  0  0
 22 24  2  0  0  0  0
 24 21  1  0  0  0  0
 24 23  1  0  0  0  0
 25 24  1  0  0  0  0
 26 28  2  0  0  0  0
 28 27  1  0  0  0  0
 30 29  1  0  0  0  0
 31 30  1  0  0  0  0
 32 37  1  0  0  0  0
 32 36  1  0  0  0  0
 33 38  1  0  0  0  0
 34 35  2  0  0  0  0
 36 33  1  0  0  0  0
 36 38  1  0  0  0  0
 37 38  1  0  0  0  0
 37 40  1  0  0  0  0
 38 39  1  0  0  0  0
 39 34  1  0  0  0  0
 40 30  1  0  0  0  0
 40 34  1  0  0  0  0
M  END
>  <MODEL>
3

>  <REMARK>
 VINA RESULT:      -8.1      2.193      5.771
  Name = 
  9 active torsions:
  status: ('A' for Active; 'I' for Inactive)
    1  A    between atoms: C_1  and  C_14
    2  A    between atoms: C_1  and  O_25
    3  A    between atoms: O_5  and  C_7
    4  A    between atoms: O_5  and  C_27
    5  A    between atoms: C_7  and  C_39
    6  A    between atoms: C_11  and  C_24
    7  A    between atoms: P_17  and  O_25
    8  A    between atoms: C_22  and  C_38
    9  A    between atoms: C_31  and  C_37
                            x       y       z     vdW  Elec       q    Type
                         _______ _______ _______ _____ _____    ______ ____

>  <TORSDO>
F 9

$$$$
=
 OpenBabel10232412483D

 40 46  0  0  1  0  0  0  0  0999 V2000
  188.8500  176.9490  146.7350 C   0  0  0  0  0  2  0  0  0  0  0  0
  191.2880  176.6740  147.0020 C   0  0  1  0  0  3  0  0  0  0  0  0
  191.4650  177.2730  145.6310 C   0  0  0  0  0  3  0  0  0  0  0  0
  188.9980  177.3190  145.2550 C   0  0  2  0  0  3  0  0  0  0  0  0
  190.4280  177.6700  144.8680 C   0  0  0  0  0  0  0  0  0  0  0  0
  189.9420  175.9740  147.1420 C   0  0  0  0  0  2  0  0  0  0  0  0
  192.1490  177.7200  141.6580 C   0  0  0  0  0  2  0  0  0  0  0  0
  187.4060  178.2470  140.5400 C   0  0  0  0  0  2  0  0  0  0  0  0
  190.6220  176.6080  139.9300 C   0  0  1  0  0  3  0  0  0  0  0  0
  192.0550  177.0100  140.3070 C   0  0  0  0  0  2  0  0  0  0  0  0
  188.2400  177.2860  139.8420 N   0  0  0  0  0  2  0  0  0  0  0  0
  191.2580  177.0990  142.6410 N   0  0  1  0  0  0  0  0  0  0  0  0
  188.3010  179.0070  141.4970 C   0  0  0  0  0  2  0  0  0  0  0  0
  189.5980  177.7560  140.0690 C   0  0  1  0  0  3  0  0  0  0  0  0
  189.6430  178.4690  141.3550 N   0  0  2  0  0  0  0  0  0  0  0  0
  190.7240  178.1840  143.4840 C   0  0  1  0  0  3  0  0  0  0  0  0
  189.8470  177.5510  142.4910 C   0  0  2  0  0  3  0  0  0  0  0  0
  190.5910  176.0010  138.5570 C   0  0  0  0  0  3  0  0  0  0  0  0
  190.8220  176.7240  137.4590 C   0  0  0  0  0  3  0  0  0  0  0  0
  190.7690  176.0870  136.1120 C   0  0  0  0  0  2  0  0  0  0  0  0
  189.8480  175.0360  136.1200 O   0  0  0  0  0  0  0  0  0  0  0  0
  187.7860  174.6140  134.5420 O   0  0  0  0  0  1  0  0  0  0  0  0
  188.8420  177.0020  134.4690 O   0  0  0  0  0  0  0  0  0  0  0  0
  188.4370  175.6620  135.4160 P   0  0  0  0  0  0  0  0  0  0  0  0
  187.3510  176.1430  136.6230 O   0  0  0  0  0  1  0  0  0  0  0  0
  192.8010  174.9230  146.5080 O   0  0  0  0  0  0  0  0  0  0  0  0
  193.0700  175.8200  148.6610 C   0  0  0  0  0  1  0  0  0  0  0  0
  192.4140  175.7430  147.3260 C   0  0  0  0  0  0  0  0  0  0  0  0
  188.1200  178.3640  144.9450 O   0  0  0  0  0  0  0  0  0  0  0  0
  186.8400  177.7900  144.9650 C   0  0  2  0  0  3  0  0  0  0  0  0
  186.7090  176.7480  143.8690 C   0  0  0  0  0  1  0  0  0  0  0  0
  184.2170  179.4890  143.1190 C   0  0  0  0  0  2  0  0  0  0  0  0
  182.2080  178.5340  144.0920 O   0  0  0  0  0  0  0  0  0  0  0  0
  185.0560  179.1510  146.1280 C   0  0  0  0  0  0  0  0  0  0  0  0
  185.6220  179.5900  147.1650 O   0  0  0  0  0  0  0  0  0  0  0  0
  182.9830  179.6880  143.9700 C   0  0  1  0  0  3  0  0  0  0  0  0
  184.6880  178.3750  143.9210 N   0  0  2  0  0  0  0  0  0  0  0  0
  183.4680  178.4820  144.7280 C   0  0  2  0  0  0  0  0  0  0  0  0
  183.6980  178.9460  146.0400 O   0  0  0  0  0  0  0  0  0  0  0  0
  185.7480  178.8550  144.8300 C   0  0  2  0  0  3  0  0  0  0  0  0
  1  6  1  0  0  0  0
  2  6  1  0  0  0  0
  2 28  1  6  0  0  0
  3  2  1  0  0  0  0
  4 29  1  1  0  0  0
  4  1  1  0  0  0  0
  5  4  1  0  0  0  0
  5  3  2  0  0  0  0
  8 13  1  0  0  0  0
  9 18  1  6  0  0  0
  9 14  1  0  0  0  0
  9 10  1  0  0  0  0
 10  7  1  0  0  0  0
 11  8  1  0  0  0  0
 12  7  1  6  0  0  0
 12 16  1  0  0  0  0
 14 11  1  1  0  0  0
 14 15  1  0  0  0  0
 15 13  1  1  0  0  0
 15 17  1  0  0  0  0
 16  5  1  1  0  0  0
 17 12  1  0  0  0  0
 17 16  1  0  0  0  0
 19 18  2  0  0  0  0
 20 21  1  0  0  0  0
 20 19  1  0  0  0  0
 22 24  1  0  0  0  0
 23 24  2  0  0  0  0
 24 21  1  0  0  0  0
 24 25  1  0  0  0  0
 26 28  2  0  0  0  0
 28 27  1  0  0  0  0
 29 30  1  0  0  0  0
 31 30  1  0  0  0  0
 32 37  1  0  0  0  0
 32 36  1  0  0  0  0
 33 38  1  0  0  0  0
 34 35  2  0  0  0  0
 36 33  1  0  0  0  0
 36 38  1  0  0  0  0
 37 38  1  0  0  0  0
 37 40  1  0  0  0  0
 38 39  1  0  0  0  0
 39 34  1  0  0  0  0
 40 30  1  0  0  0  0
 40 34  1  0  0  0  0
M  END
>  <MODEL>
4

>  <REMARK>
 VINA RESULT:      -8.0      3.295      6.485
  Name = 
  9 active torsions:
  status: ('A' for Active; 'I' for Inactive)
    1  A    between atoms: C_1  and  C_14
    2  A    between atoms: C_1  and  O_25
    3  A    between atoms: O_5  and  C_7
    4  A    between atoms: O_5  and  C_27
    5  A    between atoms: C_7  and  C_39
    6  A    between atoms: C_11  and  C_24
    7  A    between atoms: P_17  and  O_25
    8  A    between atoms: C_22  and  C_38
    9  A    between atoms: C_31  and  C_37
                            x       y       z     vdW  Elec       q    Type
                         _______ _______ _______ _____ _____    ______ ____

>  <TORSDO>
F 9

$$$$
=
 OpenBabel10232412483D

 40 46  0  0  1  0  0  0  0  0999 V2000
  190.3340  175.7410  135.9870 C   0  0  0  0  0  2  0  0  0  0  0  0
  192.3790  175.2470  137.2780 C   0  0  1  0  0  3  0  0  0  0  0  0
  191.8370  176.1100  138.3880 C   0  0  0  0  0  3  0  0  0  0  0  0
  189.8920  176.8130  136.9900 C   0  0  2  0  0  3  0  0  0  0  0  0
  190.6510  176.7440  138.3090 C   0  0  0  0  0  0  0  0  0  0  0  0
  191.8500  175.6830  135.9170 C   0  0  0  0  0  2  0  0  0  0  0  0
  188.2960  178.4720  140.4840 C   0  0  0  0  0  2  0  0  0  0  0  0
  191.6210  176.5460  143.5260 C   0  0  0  0  0  2  0  0  0  0  0  0
  188.1140  177.1400  142.6630 C   0  0  1  0  0  3  0  0  0  0  0  0
  187.4570  178.1630  141.7240 C   0  0  0  0  0  2  0  0  0  0  0  0
  190.1990  176.3950  143.7750 N   0  0  0  0  0  2  0  0  0  0  0  0
  188.9180  177.2570  139.9550 N   0  0  1  0  0  0  0  0  0  0  0  0
  191.7730  177.4270  142.3030 C   0  0  0  0  0  2  0  0  0  0  0  0
  189.5830  177.4670  143.0070 C   0  0  1  0  0  3  0  0  0  0  0  0
  190.4360  177.7660  141.8450 N   0  0  2  0  0  0  0  0  0  0  0  0
  190.2500  177.6390  139.4510 C   0  0  1  0  0  3  0  0  0  0  0  0
  190.1480  176.8780  140.7030 C   0  0  2  0  0  3  0  0  0  0  0  0
  187.2840  176.9540  143.9000 C   0  0  0  0  0  3  0  0  0  0  0  0
  187.1650  177.9100  144.8230 C   0  0  0  0  0  3  0  0  0  0  0  0
  186.3420  177.6820  146.0450 C   0  0  0  0  0  2  0  0  0  0  0  0
  186.8010  178.4950  147.0850 O   0  0  0  0  0  0  0  0  0  0  0  0
  187.8660  176.1880  147.7640 O   0  0  0  0  0  1  0  0  0  0  0  0
  188.3630  178.2120  149.3380 O   0  0  0  0  0  1  0  0  0  0  0  0
  188.1280  177.6770  147.7520 P   0  0  0  0  0  0  0  0  0  0  0  0
  189.5230  177.9970  146.8470 O   0  0  0  0  0  0  0  0  0  0  0  0
  194.4880  175.3550  138.3430 O   0  0  0  0  0  0  0  0  0  0  0  0
  194.6220  175.0680  136.0170 C   0  0  0  0  0  1  0  0  0  0  0  0
  193.8740  175.2330  137.2940 C   0  0  0  0  0  0  0  0  0  0  0  0
  188.5110  176.7190  137.1970 O   0  0  0  0  0  0  0  0  0  0  0  0
  187.9420  177.6520  136.3180 C   0  0  2  0  0  3  0  0  0  0  0  0
  188.1390  179.0620  136.8420 C   0  0  0  0  0  1  0  0  0  0  0  0
  185.1970  176.2520  134.3990 C   0  0  0  0  0  2  0  0  0  0  0  0
  184.6920  174.2250  135.6350 O   0  0  0  0  0  0  0  0  0  0  0  0
  185.6930  177.1650  137.3650 C   0  0  0  0  0  0  0  0  0  0  0  0
  185.5810  178.0220  138.2810 O   0  0  0  0  0  0  0  0  0  0  0  0
  184.2330  175.4950  135.2850 C   0  0  1  0  0  3  0  0  0  0  0  0
  186.2960  176.1060  135.3350 N   0  0  2  0  0  0  0  0  0  0  0  0
  185.4190  175.3010  136.1900 C   0  0  2  0  0  0  0  0  0  0  0  0
  185.0640  175.9410  137.3960 O   0  0  0  0  0  0  0  0  0  0  0  0
  186.4540  177.3660  136.0870 C   0  0  2  0  0  3  0  0  0  0  0  0
  1  4  1  0  0  0  0
  2 28  1  6  0  0  0
  2  3  1  0  0  0  0
  4 29  1  1  0  0  0
  4  5  1  0  0  0  0
  5  3  2  0  0  0  0
  6  1  1  0  0  0  0
  6  2  1  0  0  0  0
  7 10  1  0  0  0  0
  8 11  1  0  0  0  0
  9 14  1  0  0  0  0
  9 18  1  1  0  0  0
 10  9  1  0  0  0  0
 12  7  1  1  0  0  0
 12 17  1  0  0  0  0
 13  8  1  0  0  0  0
 14 11  1  6  0  0  0
 15 13  1  1  0  0  0
 15 14  1  0  0  0  0
 16  5  1  6  0  0  0
 16 12  1  0  0  0  0
 16 17  1  0  0  0  0
 17 15  1  0  0  0  0
 18 19  2  0  0  0  0
 19 20  1  0  0  0  0
 20 21  1  0  0  0  0
 21 24  1  0  0  0  0
 24 22  1  0  0  0  0
 24 23  1  0  0  0  0
 25 24  2  0  0  0  0
 27 28  1  0  0  0  0
 28 26  2  0  0  0  0
 30 31  1  0  0  0  0
 30 29  1  0  0  0  0
 32 36  1  0  0  0  0
 32 37  1  0  0  0  0
 33 38  1  0  0  0  0
 34 39  1  0  0  0  0
 34 35  2  0  0  0  0
 36 33  1  0  0  0  0
 36 38  1  0  0  0  0
 37 40  1  0  0  0  0
 37 38  1  0  0  0  0
 38 39  1  0  0  0  0
 40 30  1  0  0  0  0
 40 34  1  0  0  0  0
M  END
>  <MODEL>
5

>  <REMARK>
 VINA RESULT:      -7.7      3.273      9.719
  Name = 
  9 active torsions:
  status: ('A' for Active; 'I' for Inactive)
    1  A    between atoms: C_1  and  C_14
    2  A    between atoms: C_1  and  O_25
    3  A    between atoms: O_5  and  C_7
    4  A    between atoms: O_5  and  C_27
    5  A    between atoms: C_7  and  C_39
    6  A    between atoms: C_11  and  C_24
    7  A    between atoms: P_17  and  O_25
    8  A    between atoms: C_22  and  C_38
    9  A    between atoms: C_31  and  C_37
                            x       y       z     vdW  Elec       q    Type
                         _______ _______ _______ _____ _____    ______ ____

>  <TORSDO>
F 9

$$$$
=
 OpenBabel10232412483D

 40 46  0  0  1  0  0  0  0  0999 V2000
  188.7560  176.8230  144.3180 C   0  0  0  0  0  2  0  0  0  0  0  0
  187.2610  177.4180  146.1890 C   0  0  1  0  0  3  0  0  0  0  0  0
  186.3320  178.0580  145.1910 C   0  0  0  0  0  3  0  0  0  0  0  0
  187.9560  177.6830  143.3320 C   0  0  2  0  0  3  0  0  0  0  0  0
  186.5900  178.0900  143.8690 C   0  0  0  0  0  0  0  0  0  0  0  0
  188.7070  177.4360  145.7070 C   0  0  0  0  0  2  0  0  0  0  0  0
  184.8970  178.8280  140.7300 C   0  0  0  0  0  2  0  0  0  0  0  0
  181.3310  178.7870  144.0920 C   0  0  0  0  0  2  0  0  0  0  0  0
  182.5790  177.7430  140.8120 C   0  0  1  0  0  3  0  0  0  0  0  0
  183.7060  178.3000  139.9290 C   0  0  0  0  0  2  0  0  0  0  0  0
  181.1920  178.0640  142.8400 N   0  0  0  0  0  2  0  0  0  0  0  0
  185.1940  177.9540  141.8670 N   0  0  1  0  0  0  0  0  0  0  0  0
  182.6460  179.5360  144.0340 C   0  0  0  0  0  2  0  0  0  0  0  0
  182.1540  178.6970  141.9500 C   0  0  1  0  0  3  0  0  0  0  0  0
  183.2640  179.2280  142.7560 N   0  0  2  0  0  0  0  0  0  0  0  0
  185.6250  178.8240  142.9770 C   0  0  1  0  0  3  0  0  0  0  0  0
  184.2930  178.2060  143.0250 C   0  0  2  0  0  3  0  0  0  0  0  0
  181.4080  177.3290  139.9700 C   0  0  0  0  0  3  0  0  0  0  0  0
  181.5540  176.5800  138.8740 C   0  0  0  0  0  3  0  0  0  0  0  0
  180.3670  176.2010  138.0560 C   0  0  0  0  0  2  0  0  0  0  0  0
  180.7790  175.7760  136.7890 O   0  0  0  0  0  0  0  0  0  0  0  0
  182.5300  173.8620  137.2200 O   0  0  0  0  0  1  0  0  0  0  0  0
  180.6420  173.3500  135.4900 O   0  0  0  0  0  0  0  0  0  0  0  0
  181.0670  174.1120  136.9380 P   0  0  0  0  0  0  0  0  0  0  0  0
  180.1320  173.4710  138.1960 O   0  0  0  0  0  1  0  0  0  0  0  0
  186.1590  178.7540  147.8010 O   0  0  0  0  0  0  0  0  0  0  0  0
  188.2080  177.8820  148.5440 C   0  0  0  0  0  1  0  0  0  0  0  0
  187.1340  178.0710  147.5300 C   0  0  0  0  0  0  0  0  0  0  0  0
  187.8390  177.0080  142.1120 O   0  0  0  0  0  0  0  0  0  0  0  0
  188.8810  177.5040  141.3140 C   0  0  2  0  0  3  0  0  0  0  0  0
  189.0820  178.9870  141.5660 C   0  0  0  0  0  1  0  0  0  0  0  0
  187.0580  178.0550  138.2230 C   0  0  0  0  0  2  0  0  0  0  0  0
  188.5620  179.5140  136.9970 O   0  0  0  0  0  0  0  0  0  0  0  0
  189.8700  176.9310  139.0600 C   0  0  0  0  0  0  0  0  0  0  0  0
  190.6380  175.9590  139.2920 O   0  0  0  0  0  0  0  0  0  0  0  0
  187.9980  178.2390  137.0530 C   0  0  1  0  0  3  0  0  0  0  0  0
  188.0610  178.4530  139.1940 N   0  0  2  0  0  0  0  0  0  0  0  0
  188.9830  178.7170  138.0850 C   0  0  2  0  0  0  0  0  0  0  0  0
  190.0560  177.8050  138.0130 O   0  0  0  0  0  0  0  0  0  0  0  0
  188.6190  177.2410  139.8270 C   0  0  2  0  0  3  0  0  0  0  0  0
  1  6  1  0  0  0  0
  2 28  1  1  0  0  0
  3  2  1  0  0  0  0
  4 29  1  6  0  0  0
  4  5  1  0  0  0  0
  4  1  1  0  0  0  0
  5  3  2  0  0  0  0
  6  2  1  0  0  0  0
  9 18  1  6  0  0  0
  9 14  1  0  0  0  0
 10  7  1  0  0  0  0
 10  9  1  0  0  0  0
 11  8  1  0  0  0  0
 12  7  1  6  0  0  0
 12 16  1  0  0  0  0
 12 17  1  0  0  0  0
 13  8  1  0  0  0  0
 14 15  1  0  0  0  0
 14 11  1  1  0  0  0
 15 17  1  0  0  0  0
 15 13  1  1  0  0  0
 16 17  1  0  0  0  0
 16  5  1  1  0  0  0
 19 18  2  0  0  0  0
 20 19  1  0  0  0  0
 21 24  1  0  0  0  0
 21 20  1  0  0  0  0
 23 24  2  0  0  0  0
 24 22  1  0  0  0  0
 24 25  1  0  0  0  0
 28 26  2  0  0  0  0
 28 27  1  0  0  0  0
 30 31  1  0  0  0  0
 30 29  1  0  0  0  0
 32 37  1  0  0  0  0
 33 36  1  0  0  0  0
 33 38  1  0  0  0  0
 34 35  2  0  0  0  0
 34 40  1  0  0  0  0
 36 38  1  0  0  0  0
 36 32  1  0  0  0  0
 37 40  1  0  0  0  0
 38 37  1  0  0  0  0
 39 38  1  0  0  0  0
 39 34  1  0  0  0  0
 40 30  1  0  0  0  0
M  END
>  <MODEL>
6

>  <REMARK>
 VINA RESULT:      -7.6      4.491      9.264
  Name = 
  9 active torsions:
  status: ('A' for Active; 'I' for Inactive)
    1  A    between atoms: C_1  and  C_14
    2  A    between atoms: C_1  and  O_25
    3  A    between atoms: O_5  and  C_7
    4  A    between atoms: O_5  and  C_27
    5  A    between atoms: C_7  and  C_39
    6  A    between atoms: C_11  and  C_24
    7  A    between atoms: P_17  and  O_25
    8  A    between atoms: C_22  and  C_38
    9  A    between atoms: C_31  and  C_37
                            x       y       z     vdW  Elec       q    Type
                         _______ _______ _______ _____ _____    ______ ____

>  <TORSDO>
F 9

$$$$
=
 OpenBabel10232412483D

 40 46  0  0  1  0  0  0  0  0999 V2000
  190.7100  175.9150  143.6370 C   0  0  0  0  0  2  0  0  0  0  0  0
  190.0200  176.5710  145.9140 C   0  0  1  0  0  3  0  0  0  0  0  0
  188.9760  177.4650  145.2970 C   0  0  0  0  0  3  0  0  0  0  0  0
  189.8350  177.0000  142.9990 C   0  0  2  0  0  3  0  0  0  0  0  0
  188.8130  177.5860  143.9650 C   0  0  0  0  0  0  0  0  0  0  0  0
  191.2170  176.3810  144.9910 C   0  0  0  0  0  2  0  0  0  0  0  0
  186.5720  179.0560  141.4990 C   0  0  0  0  0  2  0  0  0  0  0  0
  183.9070  178.7890  145.6040 C   0  0  0  0  0  2  0  0  0  0  0  0
  184.2010  178.2280  141.9990 C   0  0  1  0  0  3  0  0  0  0  0  0
  185.1640  178.8120  140.9540 C   0  0  0  0  0  2  0  0  0  0  0  0
  183.3800  178.3230  144.3340 N   0  0  0  0  0  2  0  0  0  0  0  0
  186.9900  177.9640  142.3810 N   0  0  1  0  0  0  0  0  0  0  0  0
  185.2700  179.3910  145.3300 C   0  0  0  0  0  2  0  0  0  0  0  0
  184.1940  179.0000  143.3360 C   0  0  1  0  0  3  0  0  0  0  0  0
  185.5260  179.2550  143.9070 N   0  0  2  0  0  0  0  0  0  0  0  0
  187.7870  178.5680  143.4640 C   0  0  1  0  0  3  0  0  0  0  0  0
  186.4260  178.0980  143.7530 C   0  0  2  0  0  3  0  0  0  0  0  0
  182.8190  178.1000  141.4250 C   0  0  0  0  0  3  0  0  0  0  0  0
  182.6090  177.7250  140.1610 C   0  0  0  0  0  3  0  0  0  0  0  0
  181.2220  177.6230  139.6250 C   0  0  0  0  0  2  0  0  0  0  0  0
  180.7650  176.3070  139.7370 O   0  0  0  0  0  0  0  0  0  0  0  0
  180.4320  176.3820  137.1300 O   0  0  0  0  0  0  0  0  0  0  0  0
  180.4510  174.0170  138.2360 O   0  0  0  0  0  1  0  0  0  0  0  0
  181.0830  175.5840  138.2360 P   0  0  0  0  0  0  0  0  0  0  0  0
  182.7530  175.5090  137.9700 O   0  0  0  0  0  1  0  0  0  0  0  0
  191.5930  176.9370  147.6430 O   0  0  0  0  0  0  0  0  0  0  0  0
  189.4650  177.8140  148.1050 C   0  0  0  0  0  1  0  0  0  0  0  0
  190.4470  177.0930  147.2490 C   0  0  0  0  0  0  0  0  0  0  0  0
  189.2120  176.4870  141.8560 O   0  0  0  0  0  0  0  0  0  0  0  0
  190.1870  176.5390  140.8490 C   0  0  2  0  0  3  0  0  0  0  0  0
  191.0590  177.7700  141.0180 C   0  0  0  0  0  1  0  0  0  0  0  0
  187.8130  177.7350  138.3770 C   0  0  0  0  0  2  0  0  0  0  0  0
  189.2060  179.1380  136.9690 O   0  0  0  0  0  0  0  0  0  0  0  0
  190.5280  176.1520  138.3740 C   0  0  0  0  0  0  0  0  0  0  0  0
  191.1640  175.0670  138.3110 O   0  0  0  0  0  0  0  0  0  0  0  0
  188.4750  177.9510  137.0350 C   0  0  1  0  0  3  0  0  0  0  0  0
  189.0620  177.8630  139.1040 N   0  0  2  0  0  0  0  0  0  0  0  0
  189.7340  178.1540  137.8330 C   0  0  2  0  0  0  0  0  0  0  0  0
  190.6040  177.1280  137.4070 O   0  0  0  0  0  0  0  0  0  0  0  0
  189.5520  176.5160  139.4550 C   0  0  2  0  0  3  0  0  0  0  0  0
  1  6  1  0  0  0  0
  2 28  1  1  0  0  0
  3  2  1  0  0  0  0
  4 29  1  6  0  0  0
  4  1  1  0  0  0  0
  4  5  1  0  0  0  0
  5  3  2  0  0  0  0
  6  2  1  0  0  0  0
  9 18  1  6  0  0  0
  9 14  1  0  0  0  0
 10  7  1  0  0  0  0
 10  9  1  0  0  0  0
 11  8  1  0  0  0  0
 12  7  1  6  0  0  0
 12 16  1  0  0  0  0
 12 17  1  0  0  0  0
 13  8  1  0  0  0  0
 14 15  1  0  0  0  0
 14 11  1  1  0  0  0
 15 13  1  1  0  0  0
 16 17  1  0  0  0  0
 16  5  1  1  0  0  0
 17 15  1  0  0  0  0
 19 18  2  0  0  0  0
 20 21  1  0  0  0  0
 20 19  1  0  0  0  0
 22 24  2  0  0  0  0
 24 23  1  0  0  0  0
 24 21  1  0  0  0  0
 25 24  1  0  0  0  0
 28 26  2  0  0  0  0
 28 27  1  0  0  0  0
 30 31  1  0  0  0  0
 30 29  1  0  0  0  0
 32 37  1  0  0  0  0
 33 36  1  0  0  0  0
 33 38  1  0  0  0  0
 34 40  1  0  0  0  0
 35 34  2  0  0  0  0
 36 38  1  0  0  0  0
 36 32  1  0  0  0  0
 37 40  1  0  0  0  0
 38 37  1  0  0  0  0
 39 38  1  0  0  0  0
 39 34  1  0  0  0  0
 40 30  1  0  0  0  0
M  END
>  <MODEL>
7

>  <REMARK>
 VINA RESULT:      -7.6      3.925      9.289
  Name = 
  9 active torsions:
  status: ('A' for Active; 'I' for Inactive)
    1  A    between atoms: C_1  and  C_14
    2  A    between atoms: C_1  and  O_25
    3  A    between atoms: O_5  and  C_7
    4  A    between atoms: O_5  and  C_27
    5  A    between atoms: C_7  and  C_39
    6  A    between atoms: C_11  and  C_24
    7  A    between atoms: P_17  and  O_25
    8  A    between atoms: C_22  and  C_38
    9  A    between atoms: C_31  and  C_37
                            x       y       z     vdW  Elec       q    Type
                         _______ _______ _______ _____ _____    ______ ____

>  <TORSDO>
F 9

$$$$
=
 OpenBabel10232412483D

 40 46  0  0  1  0  0  0  0  0999 V2000
  190.6000  175.9470  143.4700 C   0  0  0  0  0  2  0  0  0  0  0  0
  189.9710  176.5720  145.7740 C   0  0  1  0  0  3  0  0  0  0  0  0
  188.9180  177.4820  145.1960 C   0  0  0  0  0  3  0  0  0  0  0  0
  189.7170  177.0480  142.8720 C   0  0  2  0  0  3  0  0  0  0  0  0
  188.7230  177.6250  143.8710 C   0  0  0  0  0  0  0  0  0  0  0  0
  191.1430  176.3880  144.8190 C   0  0  0  0  0  2  0  0  0  0  0  0
  186.4500  179.1620  141.4770 C   0  0  0  0  0  2  0  0  0  0  0  0
  183.8440  178.7920  145.6120 C   0  0  0  0  0  2  0  0  0  0  0  0
  184.0840  178.3250  141.9890 C   0  0  1  0  0  3  0  0  0  0  0  0
  185.0330  178.9340  140.9460 C   0  0  0  0  0  2  0  0  0  0  0  0
  183.2970  178.3610  144.3380 N   0  0  0  0  0  2  0  0  0  0  0  0
  186.8780  178.0470  142.3240 N   0  0  1  0  0  0  0  0  0  0  0  0
  185.2040  179.4000  145.3340 C   0  0  0  0  0  2  0  0  0  0  0  0
  184.0980  179.0620  143.3460 C   0  0  1  0  0  3  0  0  0  0  0  0
  185.4390  179.3000  143.9040 N   0  0  2  0  0  0  0  0  0  0  0  0
  187.6920  178.6210  143.4110 C   0  0  1  0  0  3  0  0  0  0  0  0
  186.3350  178.1460  143.7070 C   0  0  2  0  0  3  0  0  0  0  0  0
  182.6940  178.2140  141.4330 C   0  0  0  0  0  3  0  0  0  0  0  0
  182.4640  177.8190  140.1780 C   0  0  0  0  0  3  0  0  0  0  0  0
  181.0690  177.7350  139.6580 C   0  0  0  0  0  2  0  0  0  0  0  0
  180.4840  179.0050  139.6620 O   0  0  0  0  0  0  0  0  0  0  0  0
  179.9850  180.7710  137.7780 O   0  0  0  0  0  1  0  0  0  0  0  0
  181.1800  178.5720  137.0300 O   0  0  0  0  0  0  0  0  0  0  0  0
  181.0040  179.7500  138.2300 P   0  0  0  0  0  0  0  0  0  0  0  0
  182.4940  180.5130  138.4800 O   0  0  0  0  0  1  0  0  0  0  0  0
  191.5940  176.9200  147.4590 O   0  0  0  0  0  0  0  0  0  0  0  0
  189.4710  177.7610  148.0080 C   0  0  0  0  0  1  0  0  0  0  0  0
  190.4350  177.0710  147.1060 C   0  0  0  0  0  0  0  0  0  0  0  0
  189.0630  176.5560  141.7360 O   0  0  0  0  0  0  0  0  0  0  0  0
  190.0340  176.5490  140.7240 C   0  0  2  0  0  3  0  0  0  0  0  0
  191.0280  177.6760  140.9360 C   0  0  0  0  0  1  0  0  0  0  0  0
  187.5080  177.7830  138.4290 C   0  0  0  0  0  2  0  0  0  0  0  0
  188.7020  179.5380  137.2510 O   0  0  0  0  0  0  0  0  0  0  0  0
  190.3980  176.5680  138.2230 C   0  0  0  0  0  0  0  0  0  0  0  0
  191.1640  175.5900  138.0100 O   0  0  0  0  0  0  0  0  0  0  0  0
  188.1250  178.2720  137.1380 C   0  0  1  0  0  3  0  0  0  0  0  0
  188.7370  177.9610  139.1780 N   0  0  2  0  0  0  0  0  0  0  0  0
  189.3560  178.5130  137.9690 C   0  0  2  0  0  0  0  0  0  0  0  0
  190.3430  177.6750  137.4070 O   0  0  0  0  0  0  0  0  0  0  0  0
  189.3940  176.6480  139.3360 C   0  0  2  0  0  3  0  0  0  0  0  0
  1  6  1  0  0  0  0
  2 28  1  1  0  0  0
  3  2  1  0  0  0  0
  4 29  1  6  0  0  0
  4  1  1  0  0  0  0
  4  5  1  0  0  0  0
  5  3  2  0  0  0  0
  6  2  1  0  0  0  0
  9 18  1  6  0  0  0
  9 14  1  0  0  0  0
 10  7  1  0  0  0  0
 10  9  1  0  0  0  0
 11  8  1  0  0  0  0
 12  7  1  6  0  0  0
 12 16  1  0  0  0  0
 12 17  1  0  0  0  0
 13  8  1  0  0  0  0
 14 15  1  0  0  0  0
 14 11  1  1  0  0  0
 15 13  1  1  0  0  0
 16 17  1  0  0  0  0
 16  5  1  1  0  0  0
 17 15  1  0  0  0  0
 19 18  2  0  0  0  0
 20 21  1  0  0  0  0
 20 19  1  0  0  0  0
 22 24  1  0  0  0  0
 23 24  2  0  0  0  0
 24 25  1  0  0  0  0
 24 21  1  0  0  0  0
 28 26  2  0  0  0  0
 28 27  1  0  0  0  0
 30 31  1  0  0  0  0
 30 29  1  0  0  0  0
 32 37  1  0  0  0  0
 33 38  1  0  0  0  0
 34 40  1  0  0  0  0
 35 34  2  0  0  0  0
 36 33  1  0  0  0  0
 36 38  1  0  0  0  0
 36 32  1  0  0  0  0
 37 40  1  0  0  0  0
 38 37  1  0  0  0  0
 39 38  1  0  0  0  0
 39 34  1  0  0  0  0
 40 30  1  0  0  0  0
M  END
>  <MODEL>
8

>  <REMARK>
 VINA RESULT:      -7.6      3.839      9.535
  Name = 
  9 active torsions:
  status: ('A' for Active; 'I' for Inactive)
    1  A    between atoms: C_1  and  C_14
    2  A    between atoms: C_1  and  O_25
    3  A    between atoms: O_5  and  C_7
    4  A    between atoms: O_5  and  C_27
    5  A    between atoms: C_7  and  C_39
    6  A    between atoms: C_11  and  C_24
    7  A    between atoms: P_17  and  O_25
    8  A    between atoms: C_22  and  C_38
    9  A    between atoms: C_31  and  C_37
                            x       y       z     vdW  Elec       q    Type
                         _______ _______ _______ _____ _____    ______ ____

>  <TORSDO>
F 9

$$$$
=
 OpenBabel10232412483D

 40 46  0  0  1  0  0  0  0  0999 V2000
  190.6650  174.8950  135.7490 C   0  0  0  0  0  2  0  0  0  0  0  0
  192.6030  174.4060  137.1980 C   0  0  1  0  0  3  0  0  0  0  0  0
  192.1060  175.4610  138.1510 C   0  0  0  0  0  3  0  0  0  0  0  0
  190.2920  176.1330  136.5730 C   0  0  2  0  0  3  0  0  0  0  0  0
  190.9900  176.1820  137.9260 C   0  0  0  0  0  0  0  0  0  0  0  0
  192.1710  174.6910  135.7650 C   0  0  0  0  0  2  0  0  0  0  0  0
  188.7410  178.4550  139.6690 C   0  0  0  0  0  2  0  0  0  0  0  0
  191.5700  176.5530  143.1910 C   0  0  0  0  0  2  0  0  0  0  0  0
  188.2380  177.4520  141.9710 C   0  0  1  0  0  3  0  0  0  0  0  0
  187.7870  178.4160  140.8630 C   0  0  0  0  0  2  0  0  0  0  0  0
  190.1270  176.6110  143.3360 N   0  0  0  0  0  2  0  0  0  0  0  0
  189.2320  177.1140  139.3460 N   0  0  1  0  0  0  0  0  0  0  0  0
  191.9180  177.2410  141.8870 C   0  0  0  0  0  2  0  0  0  0  0  0
  189.7110  177.6400  142.3940 C   0  0  1  0  0  3  0  0  0  0  0  0
  190.6720  177.6770  141.2810 N   0  0  2  0  0  0  0  0  0  0  0  0
  190.6340  177.2620  138.9120 C   0  0  1  0  0  3  0  0  0  0  0  0
  190.3480  176.6900  140.2350 C   0  0  2  0  0  3  0  0  0  0  0  0
  187.3080  177.5320  143.1470 C   0  0  0  0  0  3  0  0  0  0  0  0
  186.1290  178.1550  143.0760 C   0  0  0  0  0  3  0  0  0  0  0  0
  185.2400  178.2250  144.2710 C   0  0  0  0  0  2  0  0  0  0  0  0
  185.5630  179.3490  145.0370 O   0  0  0  0  0  0  0  0  0  0  0  0
  185.9900  179.9450  147.5630 O   0  0  0  0  0  1  0  0  0  0  0  0
  186.9510  177.6670  146.7220 O   0  0  0  0  0  0  0  0  0  0  0  0
  185.6920  178.7910  146.6330 P   0  0  0  0  0  0  0  0  0  0  0  0
  184.2480  178.0440  147.1050 O   0  0  0  0  0  1  0  0  0  0  0  0
  194.7850  175.1910  137.6650 O   0  0  0  0  0  0  0  0  0  0  0  0
  194.7240  172.9630  136.9280 C   0  0  0  0  0  1  0  0  0  0  0  0
  194.0890  174.2600  137.2920 C   0  0  0  0  0  0  0  0  0  0  0  0
  188.9010  176.1940  136.7200 O   0  0  0  0  0  0  0  0  0  0  0  0
  188.4200  176.6760  135.4940 C   0  0  2  0  0  3  0  0  0  0  0  0
  189.3380  177.7570  134.9530 C   0  0  0  0  0  1  0  0  0  0  0  0
  184.8180  176.2400  135.4200 C   0  0  0  0  0  2  0  0  0  0  0  0
  184.2670  176.1440  137.7820 O   0  0  0  0  0  0  0  0  0  0  0  0
  186.8550  178.2970  136.6410 C   0  0  0  0  0  0  0  0  0  0  0  0
  187.4590  179.4020  136.5940 O   0  0  0  0  0  0  0  0  0  0  0  0
  184.1570  176.8960  136.6110 C   0  0  1  0  0  3  0  0  0  0  0  0
  186.0970  176.1210  136.0930 N   0  0  2  0  0  0  0  0  0  0  0  0
  185.4790  176.6830  137.2980 C   0  0  2  0  0  0  0  0  0  0  0  0
  185.9360  177.9790  137.6150 O   0  0  0  0  0  0  0  0  0  0  0  0
  186.9870  177.2010  135.6230 C   0  0  2  0  0  3  0  0  0  0  0  0
  1  6  1  0  0  0  0
  1  4  1  0  0  0  0
  2 28  1  6  0  0  0
  2  3  1  0  0  0  0
  4 29  1  1  0  0  0
  4  5  1  0  0  0  0
  5  3  2  0  0  0  0
  6  2  1  0  0  0  0
  7 10  1  0  0  0  0
  8 11  1  0  0  0  0
  9 14  1  0  0  0  0
  9 18  1  1  0  0  0
 10  9  1  0  0  0  0
 12  7  1  1  0  0  0
 12 17  1  0  0  0  0
 13  8  1  0  0  0  0
 14 11  1  1  0  0  0
 15 13  1  1  0  0  0
 15 14  1  0  0  0  0
 16  5  1  6  0  0  0
 16 12  1  0  0  0  0
 16 17  1  0  0  0  0
 17 15  1  0  0  0  0
 19 18  2  0  0  0  0
 19 20  1  0  0  0  0
 20 21  1  0  0  0  0
 21 24  1  0  0  0  0
 24 23  2  0  0  0  0
 24 25  1  0  0  0  0
 24 22  1  0  0  0  0
 27 28  1  0  0  0  0
 28 26  2  0  0  0  0
 30 40  1  0  0  0  0
 30 29  1  0  0  0  0
 31 30  1  0  0  0  0
 32 37  1  0  0  0  0
 32 36  1  0  0  0  0
 34 39  1  0  0  0  0
 35 34  2  0  0  0  0
 36 38  1  0  0  0  0
 36 33  1  0  0  0  0
 37 38  1  0  0  0  0
 38 39  1  0  0  0  0
 38 33  1  0  0  0  0
 40 37  1  0  0  0  0
 40 34  1  0  0  0  0
M  END
>  <MODEL>
9

>  <REMARK>
 VINA RESULT:      -7.6      3.422      9.915
  Name = 
  9 active torsions:
  status: ('A' for Active; 'I' for Inactive)
    1  A    between atoms: C_1  and  C_14
    2  A    between atoms: C_1  and  O_25
    3  A    between atoms: O_5  and  C_7
    4  A    between atoms: O_5  and  C_27
    5  A    between atoms: C_7  and  C_39
    6  A    between atoms: C_11  and  C_24
    7  A    between atoms: P_17  and  O_25
    8  A    between atoms: C_22  and  C_38
    9  A    between atoms: C_31  and  C_37
                            x       y       z     vdW  Elec       q    Type
                         _______ _______ _______ _____ _____    ______ ____

>  <TORSDO>
F 9

$$$$
