=
 OpenBabel10232412323D

 29 33  0  0  1  0  0  0  0  0999 V2000
  187.1890  177.9960  142.3530 S   0  0  0  0  0  0  0  0  0  0  0  0
  188.6930  177.6770  143.0450 C   0  0  0  0  0  0  0  0  0  0  0  0
  190.9070  177.0480  144.7740 C   0  0  1  0  0  0  0  0  0  0  0  0
  186.3040  177.7420  143.7610 C   0  0  0  0  0  0  0  0  0  0  0  0
  191.5250  178.3620  144.3590 C   0  0  0  0  0  2  0  0  0  0  0  0
  190.0490  177.8350  142.4010 C   0  0  1  0  0  3  0  0  0  0  0  0
  187.1660  177.4300  144.8100 C   0  0  0  0  0  3  0  0  0  0  0  0
  189.5640  177.1570  145.2460 O   0  0  0  0  0  0  0  0  0  0  0  0
  188.5010  177.4110  144.3890 C   0  0  0  0  0  0  0  0  0  0  0  0
  191.2050  177.3080  143.2940 C   0  0  2  0  0  3  0  0  0  0  0  0
  190.0700  177.2110  141.0670 N   0  0  1  0  0  0  0  0  0  0  0  0
  189.1700  177.9200  140.2490 N   0  0  0  0  0  2  0  0  0  0  0  0
  189.6900  177.8220  138.9000 C   0  0  0  0  0  2  0  0  0  0  0  0
  191.1420  177.4910  139.0660 C   0  0  1  0  0  3  0  0  0  0  0  0
  191.3500  177.3730  140.4960 N   0  0  0  0  0  2  0  0  0  0  0  0
  191.4830  176.2040  138.3750 C   0  0  0  0  0  0  0  0  0  0  0  0
  191.3790  174.2570  137.3050 C   0  0  0  0  0  3  0  0  0  0  0  0
  193.6330  176.5890  137.3560 N   0  0  0  0  0  1  0  0  0  0  0  0
  190.6050  175.3610  137.8540 C   0  0  0  0  0  3  0  0  0  0  0  0
  192.8680  175.6860  138.1990 C   0  0  2  0  0  3  0  0  0  0  0  0
  192.6460  174.4340  137.4930 N   0  0  0  0  0  0  0  0  0  0  0  0
  184.9080  177.8440  143.8320 O   0  0  0  0  0  0  0  0  0  0  0  0
  182.7170  178.8070  144.2270 C   0  0  0  0  0  1  0  0  0  0  0  0
  184.7390  180.2080  144.1540 C   0  0  0  0  0  1  0  0  0  0  0  0
  184.4000  178.6810  146.0530 C   0  0  0  0  0  1  0  0  0  0  0  0
  184.1990  178.8510  144.5560 C   0  0  0  0  0  0  0  0  0  0  0  0
  191.8560  176.1470  145.5390 C   0  0  0  0  0  2  0  0  0  0  0  0
  191.5650  176.2140  147.0000 C   0  0  0  0  0  3  0  0  0  0  0  0
  192.5260  176.1710  147.8450 N   0  0  0  0  0  2  0  0  0  0  0  0
  1  2  1  0  0  0  0
  1  4  1  0  0  0  0
  2  9  2  0  0  0  0
  3  8  1  0  0  0  0
  3 27  1  1  0  0  0
  4 22  1  0  0  0  0
  4  7  2  0  0  0  0
  5  3  1  0  0  0  0
  6  2  1  1  0  0  0
  6 10  1  0  0  0  0
  9  7  1  0  0  0  0
  9  8  1  0  0  0  0
 10  5  1  1  0  0  0
 10  3  1  0  0  0  0
 11 12  1  6  0  0  0
 11  6  1  0  0  0  0
 13 14  1  0  0  0  0
 13 12  1  0  0  0  0
 14 16  1  6  0  0  0
 14 15  1  0  0  0  0
 15 11  1  0  0  0  0
 17 21  2  0  0  0  0
 17 19  1  0  0  0  0
 19 16  2  0  0  0  0
 20 18  1  6  0  0  0
 20 16  1  0  0  0  0
 21 20  1  0  0  0  0
 22 26  1  0  0  0  0
 23 26  1  0  0  0  0
 24 26  1  0  0  0  0
 26 25  1  0  0  0  0
 27 28  1  0  0  0  0
 28 29  2  0  0  0  0
M  END
>  <MODEL>
1

>  <REMARK>
 VINA RESULT:      -8.5      0.000      0.000
  Name = 
  6 active torsions:
  status: ('A' for Active; 'I' for Inactive)
    1  A    between atoms: C_1  and  C_25
    2  A    between atoms: C_6  and  C_23
    3  A    between atoms: C_7  and  O_10
    4  A    between atoms: O_10  and  C_27
    5  A    between atoms: C_11  and  N_18
    6  A    between atoms: C_14  and  C_23
                            x       y       z     vdW  Elec       q    Type
                         _______ _______ _______ _____ _____    ______ ____

>  <TORSDO>
F 6

$$$$
=
 OpenBabel10232412323D

 29 33  0  0  1  0  0  0  0  0999 V2000
  186.5360  178.2080  141.9130 S   0  0  0  0  0  0  0  0  0  0  0  0
  188.1350  177.8550  142.3160 C   0  0  0  0  0  0  0  0  0  0  0  0
  190.6070  177.1220  143.5950 C   0  0  1  0  0  0  0  0  0  0  0  0
  185.9010  177.8390  143.4260 C   0  0  0  0  0  0  0  0  0  0  0  0
  191.1490  178.4700  143.1820 C   0  0  0  0  0  2  0  0  0  0  0  0
  189.3630  178.0750  141.4660 C   0  0  1  0  0  3  0  0  0  0  0  0
  186.9270  177.4590  144.2880 C   0  0  0  0  0  3  0  0  0  0  0  0
  189.3640  177.1810  144.2940 O   0  0  0  0  0  0  0  0  0  0  0  0
  188.1720  177.4870  143.6490 C   0  0  0  0  0  0  0  0  0  0  0  0
  190.6530  177.4960  142.1100 C   0  0  2  0  0  3  0  0  0  0  0  0
  189.1590  177.5520  140.1050 N   0  0  1  0  0  0  0  0  0  0  0  0
  188.9380  178.6520  139.2530 N   0  0  0  0  0  2  0  0  0  0  0  0
  189.4440  178.2610  137.9530 C   0  0  0  0  0  2  0  0  0  0  0  0
  190.3990  177.1410  138.2280 C   0  0  1  0  0  3  0  0  0  0  0  0
  190.3440  176.9290  139.6610 N   0  0  0  0  0  2  0  0  0  0  0  0
  189.9950  175.8970  137.4950 C   0  0  0  0  0  0  0  0  0  0  0  0
  189.9260  173.8480  136.6320 C   0  0  0  0  0  3  0  0  0  0  0  0
  187.5850  175.9070  137.5250 N   0  0  0  0  0  1  0  0  0  0  0  0
  190.6870  174.7680  137.4650 C   0  0  0  0  0  3  0  0  0  0  0  0
  188.7560  175.7680  136.6770 C   0  0  2  0  0  3  0  0  0  0  0  0
  188.8440  174.4000  136.1910 N   0  0  0  0  0  0  0  0  0  0  0  0
  184.5370  177.9200  143.7380 O   0  0  0  0  0  0  0  0  0  0  0  0
  184.5370  180.3070  144.1750 C   0  0  0  0  0  1  0  0  0  0  0  0
  184.2110  178.6720  145.9850 C   0  0  0  0  0  1  0  0  0  0  0  0
  182.4340  178.9870  144.3130 C   0  0  0  0  0  1  0  0  0  0  0  0
  183.9390  178.9550  144.5220 C   0  0  0  0  0  0  0  0  0  0  0  0
  191.6700  176.1770  144.1200 C   0  0  0  0  0  2  0  0  0  0  0  0
  191.5240  176.0040  145.5930 C   0  0  0  0  0  3  0  0  0  0  0  0
  191.9300  176.9220  146.3880 N   0  0  0  0  0  2  0  0  0  0  0  0
  1  2  1  0  0  0  0
  1  4  1  0  0  0  0
  2  9  2  0  0  0  0
  3 27  1  1  0  0  0
  3  8  1  0  0  0  0
  4 22  1  0  0  0  0
  4  7  2  0  0  0  0
  5  3  1  0  0  0  0
  6 10  1  0  0  0  0
  6  2  1  1  0  0  0
  9  7  1  0  0  0  0
  9  8  1  0  0  0  0
 10  5  1  1  0  0  0
 10  3  1  0  0  0  0
 11 12  1  6  0  0  0
 11  6  1  0  0  0  0
 13 14  1  0  0  0  0
 13 12  1  0  0  0  0
 14 16  1  6  0  0  0
 14 15  1  0  0  0  0
 15 11  1  0  0  0  0
 17 19  1  0  0  0  0
 19 16  2  0  0  0  0
 20 16  1  0  0  0  0
 20 18  1  1  0  0  0
 21 17  2  0  0  0  0
 21 20  1  0  0  0  0
 22 26  1  0  0  0  0
 23 26  1  0  0  0  0
 25 26  1  0  0  0  0
 26 24  1  0  0  0  0
 27 28  1  0  0  0  0
 28 29  2  0  0  0  0
M  END
>  <MODEL>
2

>  <REMARK>
 VINA RESULT:      -7.7      1.458      2.055
  Name = 
  6 active torsions:
  status: ('A' for Active; 'I' for Inactive)
    1  A    between atoms: C_1  and  C_25
    2  A    between atoms: C_6  and  C_23
    3  A    between atoms: C_7  and  O_10
    4  A    between atoms: O_10  and  C_27
    5  A    between atoms: C_11  and  N_18
    6  A    between atoms: C_14  and  C_23
                            x       y       z     vdW  Elec       q    Type
                         _______ _______ _______ _____ _____    ______ ____

>  <TORSDO>
F 6

$$$$
=
 OpenBabel10232412323D

 29 33  0  0  1  0  0  0  0  0999 V2000
  188.2780  177.7650  141.9810 S   0  0  0  0  0  0  0  0  0  0  0  0
  188.4650  177.8180  140.3070 C   0  0  0  0  0  0  0  0  0  0  0  0
  189.3570  177.6160  137.5780 C   0  0  1  0  0  0  0  0  0  0  0  0
  189.7360  176.9820  142.2840 C   0  0  0  0  0  0  0  0  0  0  0  0
  189.1770  179.1110  137.4720 C   0  0  0  0  0  2  0  0  0  0  0  0
  187.5750  178.5190  139.3080 C   0  0  1  0  0  3  0  0  0  0  0  0
  190.4140  176.7710  141.0860 C   0  0  0  0  0  3  0  0  0  0  0  0
  190.1570  177.2000  138.6850 O   0  0  0  0  0  0  0  0  0  0  0  0
  189.6900  177.2580  139.9920 C   0  0  0  0  0  0  0  0  0  0  0  0
  187.9780  178.2300  137.8360 C   0  0  2  0  0  3  0  0  0  0  0  0
  186.1590  178.1960  139.5520 N   0  0  1  0  0  0  0  0  0  0  0  0
  185.5490  179.3390  140.1030 N   0  0  0  0  0  2  0  0  0  0  0  0
  184.1640  179.2980  139.6810 C   0  0  0  0  0  2  0  0  0  0  0  0
  184.1490  178.4030  138.4800 C   0  0  1  0  0  3  0  0  0  0  0  0
  185.5170  177.9490  138.3200 N   0  0  0  0  0  2  0  0  0  0  0  0
  183.2280  177.2380  138.6890 C   0  0  0  0  0  0  0  0  0  0  0  0
  181.7440  175.8060  139.5210 C   0  0  0  0  0  3  0  0  0  0  0  0
  182.5550  176.5660  136.4740 N   0  0  0  0  0  1  0  0  0  0  0  0
  182.4410  177.0650  139.7390 C   0  0  0  0  0  3  0  0  0  0  0  0
  183.0880  176.0970  137.7420 C   0  0  2  0  0  3  0  0  0  0  0  0
  182.1000  175.2610  138.4050 N   0  0  0  0  0  0  0  0  0  0  0  0
  190.1730  176.6190  143.5650 O   0  0  0  0  0  0  0  0  0  0  0  0
  191.2460  178.7550  143.9770 C   0  0  0  0  0  1  0  0  0  0  0  0
  191.5580  176.8480  145.5010 C   0  0  0  0  0  1  0  0  0  0  0  0
  189.3720  177.9740  145.4120 C   0  0  0  0  0  1  0  0  0  0  0  0
  190.5690  177.5390  144.5840 C   0  0  0  0  0  0  0  0  0  0  0  0
  189.5900  176.9370  136.2420 C   0  0  0  0  0  2  0  0  0  0  0  0
  189.9510  175.5050  136.4470 C   0  0  0  0  0  3  0  0  0  0  0  0
  189.0400  174.6520  136.7380 N   0  0  0  0  0  2  0  0  0  0  0  0
  1  4  1  0  0  0  0
  2  1  1  0  0  0  0
  3 27  1  6  0  0  0
  3 10  1  0  0  0  0
  3  8  1  0  0  0  0
  4 22  1  0  0  0  0
  5  3  1  0  0  0  0
  6 11  1  0  0  0  0
  6  2  1  1  0  0  0
  7  4  2  0  0  0  0
  8  9  1  0  0  0  0
  9  2  2  0  0  0  0
  9  7  1  0  0  0  0
 10  5  1  6  0  0  0
 10  6  1  0  0  0  0
 11 15  1  6  0  0  0
 11 12  1  0  0  0  0
 13 12  1  0  0  0  0
 14 16  1  1  0  0  0
 14 13  1  0  0  0  0
 15 14  1  0  0  0  0
 16 19  2  0  0  0  0
 17 19  1  0  0  0  0
 20 18  1  6  0  0  0
 20 21  1  0  0  0  0
 20 16  1  0  0  0  0
 21 17  2  0  0  0  0
 22 26  1  0  0  0  0
 23 26  1  0  0  0  0
 26 25  1  0  0  0  0
 26 24  1  0  0  0  0
 27 28  1  0  0  0  0
 28 29  2  0  0  0  0
M  END
>  <MODEL>
3

>  <REMARK>
 VINA RESULT:      -7.5      3.935      7.388
  Name = 
  6 active torsions:
  status: ('A' for Active; 'I' for Inactive)
    1  A    between atoms: C_1  and  C_25
    2  A    between atoms: C_6  and  C_23
    3  A    between atoms: C_7  and  O_10
    4  A    between atoms: O_10  and  C_27
    5  A    between atoms: C_11  and  N_18
    6  A    between atoms: C_14  and  C_23
                            x       y       z     vdW  Elec       q    Type
                         _______ _______ _______ _____ _____    ______ ____

>  <TORSDO>
F 6

$$$$
=
 OpenBabel10232412323D

 29 33  0  0  1  0  0  0  0  0999 V2000
  185.6390  178.7950  140.8390 S   0  0  0  0  0  0  0  0  0  0  0  0
  186.9530  178.3630  141.8020 C   0  0  0  0  0  0  0  0  0  0  0  0
  188.7430  177.5860  143.9180 C   0  0  1  0  0  0  0  0  0  0  0  0
  184.4890  178.6540  142.0590 C   0  0  0  0  0  0  0  0  0  0  0  0
  189.5440  178.8300  143.6150 C   0  0  0  0  0  2  0  0  0  0  0  0
  188.4140  178.3860  141.4200 C   0  0  1  0  0  3  0  0  0  0  0  0
  185.1110  178.2940  143.2530 C   0  0  0  0  0  3  0  0  0  0  0  0
  187.3520  177.8230  144.1310 O   0  0  0  0  0  0  0  0  0  0  0  0
  186.4930  178.1480  143.0890 C   0  0  0  0  0  0  0  0  0  0  0  0
  189.3330  177.7820  142.5180 C   0  0  2  0  0  3  0  0  0  0  0  0
  188.6250  177.7290  140.1190 N   0  0  1  0  0  0  0  0  0  0  0  0
  188.5790  178.7250  139.1250 N   0  0  0  0  0  2  0  0  0  0  0  0
  189.4470  178.2680  138.0580 C   0  0  0  0  0  2  0  0  0  0  0  0
  190.3580  177.2670  138.6990 C   0  0  1  0  0  3  0  0  0  0  0  0
  189.9230  177.1770  140.0790 N   0  0  0  0  0  2  0  0  0  0  0  0
  190.2490  175.9320  138.0250 C   0  0  0  0  0  0  0  0  0  0  0  0
  189.5150  174.1440  136.9250 C   0  0  0  0  0  3  0  0  0  0  0  0
  192.4650  175.4630  137.2000 N   0  0  0  0  0  1  0  0  0  0  0  0
  189.1670  175.4680  137.4190 C   0  0  0  0  0  3  0  0  0  0  0  0
  191.3490  174.9290  137.9620 C   0  0  2  0  0  3  0  0  0  0  0  0
  190.7350  173.8370  137.2240 N   0  0  0  0  0  0  0  0  0  0  0  0
  183.1200  178.8790  141.8680 O   0  0  0  0  0  0  0  0  0  0  0  0
  182.3730  179.3490  139.6080 C   0  0  0  0  0  1  0  0  0  0  0  0
  180.9200  178.1960  141.2250 C   0  0  0  0  0  1  0  0  0  0  0  0
  182.8840  177.0230  140.3220 C   0  0  0  0  0  1  0  0  0  0  0  0
  182.3540  178.3740  140.7720 C   0  0  0  0  0  0  0  0  0  0  0  0
  189.4490  176.6240  144.8540 C   0  0  0  0  0  2  0  0  0  0  0  0
  189.5080  177.1950  146.2300 C   0  0  0  0  0  3  0  0  0  0  0  0
  190.5380  176.9920  146.9630 N   0  0  0  0  0  2  0  0  0  0  0  0
  1  2  1  0  0  0  0
  1  4  1  0  0  0  0
  2  9  2  0  0  0  0
  3  8  1  0  0  0  0
  3 27  1  1  0  0  0
  4  7  2  0  0  0  0
  5  3  1  0  0  0  0
  6  2  1  1  0  0  0
  6 10  1  0  0  0  0
  9  7  1  0  0  0  0
  9  8  1  0  0  0  0
 10  5  1  1  0  0  0
 10  3  1  0  0  0  0
 11 12  1  6  0  0  0
 11  6  1  0  0  0  0
 13 14  1  0  0  0  0
 13 12  1  0  0  0  0
 14 16  1  6  0  0  0
 14 15  1  0  0  0  0
 15 11  1  0  0  0  0
 17 21  2  0  0  0  0
 17 19  1  0  0  0  0
 19 16  2  0  0  0  0
 20 18  1  6  0  0  0
 20 16  1  0  0  0  0
 21 20  1  0  0  0  0
 22  4  1  0  0  0  0
 23 26  1  0  0  0  0
 25 26  1  0  0  0  0
 26 24  1  0  0  0  0
 26 22  1  0  0  0  0
 27 28  1  0  0  0  0
 28 29  2  0  0  0  0
M  END
>  <MODEL>
4

>  <REMARK>
 VINA RESULT:      -7.3      2.146      2.715
  Name = 
  6 active torsions:
  status: ('A' for Active; 'I' for Inactive)
    1  A    between atoms: C_1  and  C_25
    2  A    between atoms: C_6  and  C_23
    3  A    between atoms: C_7  and  O_10
    4  A    between atoms: O_10  and  C_27
    5  A    between atoms: C_11  and  N_18
    6  A    between atoms: C_14  and  C_23
                            x       y       z     vdW  Elec       q    Type
                         _______ _______ _______ _____ _____    ______ ____

>  <TORSDO>
F 6

$$$$
=
 OpenBabel10232412323D

 29 33  0  0  1  0  0  0  0  0999 V2000
  187.4260  178.5320  142.5140 S   0  0  0  0  0  0  0  0  0  0  0  0
  188.8500  178.0220  143.2570 C   0  0  0  0  0  0  0  0  0  0  0  0
  190.8710  176.9050  144.9760 C   0  0  1  0  0  0  0  0  0  0  0  0
  186.3940  177.8640  143.6620 C   0  0  0  0  0  0  0  0  0  0  0  0
  191.4830  178.2840  145.0510 C   0  0  0  0  0  2  0  0  0  0  0  0
  190.2650  178.3690  142.8600 C   0  0  1  0  0  3  0  0  0  0  0  0
  187.1400  177.2530  144.6670 C   0  0  0  0  0  3  0  0  0  0  0  0
  189.4800  176.8650  145.2920 O   0  0  0  0  0  0  0  0  0  0  0  0
  188.5140  177.3630  144.4270 C   0  0  0  0  0  0  0  0  0  0  0  0
  191.3290  177.5990  143.6900 C   0  0  2  0  0  3  0  0  0  0  0  0
  190.4650  178.1740  141.4140 N   0  0  1  0  0  0  0  0  0  0  0  0
  191.6450  177.4240  141.2430 N   0  0  0  0  0  2  0  0  0  0  0  0
  191.4610  176.6590  140.0270 C   0  0  0  0  0  2  0  0  0  0  0  0
  189.9790  176.6100  139.8170 C   0  0  1  0  0  3  0  0  0  0  0  0
  189.4100  177.3920  140.8980 N   0  0  0  0  0  2  0  0  0  0  0  0
  189.6040  177.1970  138.4880 C   0  0  0  0  0  0  0  0  0  0  0  0
  189.3470  177.5750  136.3120 C   0  0  0  0  0  3  0  0  0  0  0  0
  187.5340  178.3670  138.8820 N   0  0  0  0  0  1  0  0  0  0  0  0
  189.8920  176.6660  137.3100 C   0  0  0  0  0  3  0  0  0  0  0  0
  188.8660  178.4790  138.3140 C   0  0  2  0  0  3  0  0  0  0  0  0
  188.7700  178.5900  136.8670 N   0  0  0  0  0  0  0  0  0  0  0  0
  184.9960  177.9380  143.5900 O   0  0  0  0  0  0  0  0  0  0  0  0
  184.1820  178.5380  145.7950 C   0  0  0  0  0  1  0  0  0  0  0  0
  182.7680  178.7820  143.7960 C   0  0  0  0  0  1  0  0  0  0  0  0
  184.6870  180.2900  144.1050 C   0  0  0  0  0  1  0  0  0  0  0  0
  184.1890  178.8690  144.3130 C   0  0  0  0  0  0  0  0  0  0  0  0
  191.7590  175.8170  145.5470 C   0  0  0  0  0  2  0  0  0  0  0  0
  191.6530  175.7930  147.0340 C   0  0  0  0  0  3  0  0  0  0  0  0
  192.6490  176.1540  147.7520 N   0  0  0  0  0  2  0  0  0  0  0  0
  1  2  1  0  0  0  0
  1  4  1  0  0  0  0
  2  9  2  0  0  0  0
  3  5  1  0  0  0  0
  3  8  1  0  0  0  0
  3 27  1  1  0  0  0
  4  7  2  0  0  0  0
  6  2  1  1  0  0  0
  6 10  1  0  0  0  0
  9  7  1  0  0  0  0
  9  8  1  0  0  0  0
 10  3  1  0  0  0  0
 10  5  1  1  0  0  0
 11 15  1  1  0  0  0
 11  6  1  0  0  0  0
 12 11  1  0  0  0  0
 13 12  1  0  0  0  0
 14 16  1  6  0  0  0
 14 13  1  0  0  0  0
 14 15  1  0  0  0  0
 17 21  2  0  0  0  0
 17 19  1  0  0  0  0
 19 16  2  0  0  0  0
 20 16  1  0  0  0  0
 20 18  1  1  0  0  0
 21 20  1  0  0  0  0
 22  4  1  0  0  0  0
 22 26  1  0  0  0  0
 24 26  1  0  0  0  0
 25 26  1  0  0  0  0
 26 23  1  0  0  0  0
 27 28  1  0  0  0  0
 28 29  2  0  0  0  0
M  END
>  <MODEL>
5

>  <REMARK>
 VINA RESULT:      -7.0      1.560      2.371
  Name = 
  6 active torsions:
  status: ('A' for Active; 'I' for Inactive)
    1  A    between atoms: C_1  and  C_25
    2  A    between atoms: C_6  and  C_23
    3  A    between atoms: C_7  and  O_10
    4  A    between atoms: O_10  and  C_27
    5  A    between atoms: C_11  and  N_18
    6  A    between atoms: C_14  and  C_23
                            x       y       z     vdW  Elec       q    Type
                         _______ _______ _______ _____ _____    ______ ____

>  <TORSDO>
F 6

$$$$
=
 OpenBabel10232412323D

 29 33  0  0  1  0  0  0  0  0999 V2000
  191.9780  176.4390  138.5760 S   0  0  0  0  0  0  0  0  0  0  0  0
  190.3410  176.4210  138.1710 C   0  0  0  0  0  0  0  0  0  0  0  0
  187.7100  175.8390  137.1600 C   0  0  1  0  0  0  0  0  0  0  0  0
  192.3600  175.0110  137.7740 C   0  0  0  0  0  0  0  0  0  0  0  0
  187.7120  177.2150  136.5380 C   0  0  0  0  0  2  0  0  0  0  0  0
  189.3190  177.4990  138.4410 C   0  0  1  0  0  3  0  0  0  0  0  0
  191.2240  174.5030  137.1480 C   0  0  0  0  0  3  0  0  0  0  0  0
  188.8540  175.0490  136.8360 O   0  0  0  0  0  0  0  0  0  0  0  0
  190.1070  175.3150  137.3740 C   0  0  0  0  0  0  0  0  0  0  0  0
  187.8770  177.0720  138.0540 C   0  0  2  0  0  3  0  0  0  0  0  0
  189.3910  177.9480  139.8420 N   0  0  1  0  0  0  0  0  0  0  0  0
  188.2670  178.7610  140.0880 N   0  0  0  0  0  2  0  0  0  0  0  0
  187.9520  178.5960  141.4920 C   0  0  0  0  0  2  0  0  0  0  0  0
  188.5930  177.3010  141.8870 C   0  0  1  0  0  3  0  0  0  0  0  0
  189.2760  176.8310  140.6970 N   0  0  0  0  0  2  0  0  0  0  0  0
  189.5680  177.5030  143.0090 C   0  0  0  0  0  0  0  0  0  0  0  0
  191.3340  178.0810  144.2310 C   0  0  0  0  0  3  0  0  0  0  0  0
  188.2150  177.6300  144.9990 N   0  0  0  0  0  1  0  0  0  0  0  0
  190.7250  178.1400  142.9100 C   0  0  0  0  0  3  0  0  0  0  0  0
  189.3720  176.9930  144.3940 C   0  0  2  0  0  3  0  0  0  0  0  0
  190.5810  177.4430  145.0660 N   0  0  0  0  0  0  0  0  0  0  0  0
  193.6440  174.4490  137.7540 O   0  0  0  0  0  0  0  0  0  0  0  0
  194.2840  173.3700  135.6770 C   0  0  0  0  0  1  0  0  0  0  0  0
  195.9620  174.3800  137.1670 C   0  0  0  0  0  1  0  0  0  0  0  0
  194.4210  175.8400  135.9230 C   0  0  0  0  0  1  0  0  0  0  0  0
  194.5450  174.5100  136.6460 C   0  0  0  0  0  0  0  0  0  0  0  0
  186.3530  175.1640  137.1340 C   0  0  0  0  0  2  0  0  0  0  0  0
  186.5150  173.6820  137.1240 C   0  0  0  0  0  3  0  0  0  0  0  0
  185.7970  172.9550  137.8960 N   0  0  0  0  0  2  0  0  0  0  0  0
  2  1  1  0  0  0  0
  3 27  1  1  0  0  0
  3 10  1  0  0  0  0
  4  1  1  0  0  0  0
  5  3  1  0  0  0  0
  6  2  1  1  0  0  0
  6 11  1  0  0  0  0
  7  9  1  0  0  0  0
  7  4  2  0  0  0  0
  8  3  1  0  0  0  0
  8  9  1  0  0  0  0
  9  2  2  0  0  0  0
 10  5  1  6  0  0  0
 10  6  1  0  0  0  0
 11 12  1  1  0  0  0
 11 15  1  0  0  0  0
 12 13  1  0  0  0  0
 13 14  1  0  0  0  0
 14 16  1  1  0  0  0
 15 14  1  0  0  0  0
 16 20  1  0  0  0  0
 17 21  2  0  0  0  0
 19 16  2  0  0  0  0
 19 17  1  0  0  0  0
 20 18  1  1  0  0  0
 20 21  1  0  0  0  0
 22  4  1  0  0  0  0
 23 26  1  0  0  0  0
 25 26  1  0  0  0  0
 26 24  1  0  0  0  0
 26 22  1  0  0  0  0
 28 27  1  0  0  0  0
 28 29  2  0  0  0  0
M  END
>  <MODEL>
6

>  <REMARK>
 VINA RESULT:      -7.0      3.762      8.883
  Name = 
  6 active torsions:
  status: ('A' for Active; 'I' for Inactive)
    1  A    between atoms: C_1  and  C_25
    2  A    between atoms: C_6  and  C_23
    3  A    between atoms: C_7  and  O_10
    4  A    between atoms: O_10  and  C_27
    5  A    between atoms: C_11  and  N_18
    6  A    between atoms: C_14  and  C_23
                            x       y       z     vdW  Elec       q    Type
                         _______ _______ _______ _____ _____    ______ ____

>  <TORSDO>
F 6

$$$$
=
 OpenBabel10232412323D

 29 33  0  0  1  0  0  0  0  0999 V2000
  184.9620  179.1640  140.4830 S   0  0  0  0  0  0  0  0  0  0  0  0
  186.4040  178.5470  141.1030 C   0  0  0  0  0  0  0  0  0  0  0  0
  188.4840  177.3170  142.6660 C   0  0  1  0  0  0  0  0  0  0  0  0
  184.0050  178.6710  141.7750 C   0  0  0  0  0  0  0  0  0  0  0  0
  189.2330  178.6250  142.5860 C   0  0  0  0  0  2  0  0  0  0  0  0
  187.7930  178.7200  140.5360 C   0  0  1  0  0  3  0  0  0  0  0  0
  184.7940  178.0390  142.7330 C   0  0  0  0  0  3  0  0  0  0  0  0
  187.1390  177.4400  143.1300 O   0  0  0  0  0  0  0  0  0  0  0  0
  186.1370  177.9910  142.3410 C   0  0  0  0  0  0  0  0  0  0  0  0
  188.8620  177.8880  141.2970 C   0  0  2  0  0  3  0  0  0  0  0  0
  187.8090  178.4290  139.0930 N   0  0  1  0  0  0  0  0  0  0  0  0
  188.9020  179.1160  138.5300 N   0  0  0  0  0  2  0  0  0  0  0  0
  189.3370  178.3210  137.4000 C   0  0  0  0  0  2  0  0  0  0  0  0
  188.8010  176.9470  137.6600 C   0  0  1  0  0  3  0  0  0  0  0  0
  188.0520  177.0530  138.8970 N   0  0  0  0  0  2  0  0  0  0  0  0
  187.9100  176.4970  136.5410 C   0  0  0  0  0  0  0  0  0  0  0  0
  186.9880  176.1500  134.5470 C   0  0  0  0  0  3  0  0  0  0  0  0
  187.0210  174.3760  137.2620 N   0  0  0  0  0  1  0  0  0  0  0  0
  188.0910  176.7780  135.2600 C   0  0  0  0  0  3  0  0  0  0  0  0
  186.6770  175.6810  136.7240 C   0  0  2  0  0  3  0  0  0  0  0  0
  186.1950  175.5330  135.3610 N   0  0  0  0  0  0  0  0  0  0  0  0
  182.6220  178.8880  141.8460 O   0  0  0  0  0  0  0  0  0  0  0  0
  182.2090  177.1470  140.2080 C   0  0  0  0  0  1  0  0  0  0  0  0
  181.3850  179.4410  139.8740 C   0  0  0  0  0  1  0  0  0  0  0  0
  180.3620  178.0350  141.6140 C   0  0  0  0  0  1  0  0  0  0  0  0
  181.6660  178.3760  140.9140 C   0  0  0  0  0  0  0  0  0  0  0  0
  189.3170  176.1730  143.2100 C   0  0  0  0  0  2  0  0  0  0  0  0
  190.1900  176.6530  144.3190 C   0  0  0  0  0  3  0  0  0  0  0  0
  189.6830  176.9040  145.4680 N   0  0  0  0  0  2  0  0  0  0  0  0
  1  2  1  0  0  0  0
  1  4  1  0  0  0  0
  2  9  2  0  0  0  0
  3  8  1  0  0  0  0
  3 27  1  1  0  0  0
  4 22  1  0  0  0  0
  4  7  2  0  0  0  0
  5  3  1  0  0  0  0
  6  2  1  1  0  0  0
  6 10  1  0  0  0  0
  9  7  1  0  0  0  0
  9  8  1  0  0  0  0
 10  5  1  1  0  0  0
 10  3  1  0  0  0  0
 11 12  1  6  0  0  0
 11  6  1  0  0  0  0
 13 14  1  0  0  0  0
 13 12  1  0  0  0  0
 14 16  1  6  0  0  0
 14 15  1  0  0  0  0
 15 11  1  0  0  0  0
 16 20  1  0  0  0  0
 17 19  1  0  0  0  0
 17 21  2  0  0  0  0
 19 16  2  0  0  0  0
 20 18  1  6  0  0  0
 21 20  1  0  0  0  0
 23 26  1  0  0  0  0
 24 26  1  0  0  0  0
 26 25  1  0  0  0  0
 26 22  1  0  0  0  0
 27 28  1  0  0  0  0
 28 29  2  0  0  0  0
M  END
>  <MODEL>
7

>  <REMARK>
 VINA RESULT:      -6.8      3.163      4.098
  Name = 
  6 active torsions:
  status: ('A' for Active; 'I' for Inactive)
    1  A    between atoms: C_1  and  C_25
    2  A    between atoms: C_6  and  C_23
    3  A    between atoms: C_7  and  O_10
    4  A    between atoms: O_10  and  C_27
    5  A    between atoms: C_11  and  N_18
    6  A    between atoms: C_14  and  C_23
                            x       y       z     vdW  Elec       q    Type
                         _______ _______ _______ _____ _____    ______ ____

>  <TORSDO>
F 6

$$$$
=
 OpenBabel10232412323D

 29 33  0  0  1  0  0  0  0  0999 V2000
  189.8220  178.6830  143.8000 S   0  0  0  0  0  0  0  0  0  0  0  0
  189.5420  178.2130  142.2050 C   0  0  0  0  0  0  0  0  0  0  0  0
  189.5600  176.9960  139.5960 C   0  0  1  0  0  0  0  0  0  0  0  0
  191.0680  177.5870  144.0760 C   0  0  0  0  0  0  0  0  0  0  0  0
  189.7300  178.3800  139.0190 C   0  0  0  0  0  2  0  0  0  0  0  0
  188.6090  178.8610  141.2100 C   0  0  1  0  0  3  0  0  0  0  0  0
  191.3130  176.8500  142.9200 C   0  0  0  0  0  3  0  0  0  0  0  0
  190.5090  176.6650  140.6100 O   0  0  0  0  0  0  0  0  0  0  0  0
  190.4540  177.2250  141.8800 C   0  0  0  0  0  0  0  0  0  0  0  0
  188.5030  178.0670  139.8790 C   0  0  2  0  0  3  0  0  0  0  0  0
  187.2830  179.0890  141.8090 N   0  0  1  0  0  0  0  0  0  0  0  0
  186.3470  179.1660  140.7590 N   0  0  0  0  0  2  0  0  0  0  0  0
  185.0960  178.6760  141.2990 C   0  0  0  0  0  2  0  0  0  0  0  0
  185.4810  177.8570  142.4930 C   0  0  1  0  0  3  0  0  0  0  0  0
  186.9240  177.9710  142.5890 N   0  0  0  0  0  2  0  0  0  0  0  0
  184.8270  178.3800  143.7380 C   0  0  0  0  0  0  0  0  0  0  0  0
  183.3650  179.1600  145.2200 C   0  0  0  0  0  3  0  0  0  0  0  0
  186.0650  177.3960  145.5570 N   0  0  0  0  0  1  0  0  0  0  0  0
  183.5460  178.6910  143.8540 C   0  0  0  0  0  3  0  0  0  0  0  0
  185.5430  178.6400  145.0170 C   0  0  2  0  0  3  0  0  0  0  0  0
  184.4780  179.1330  145.8760 N   0  0  0  0  0  0  0  0  0  0  0  0
  191.7420  177.4680  145.2990 O   0  0  0  0  0  0  0  0  0  0  0  0
  191.9780  175.1460  145.9640 C   0  0  0  0  0  1  0  0  0  0  0  0
  189.9170  176.4090  146.4270 C   0  0  0  0  0  1  0  0  0  0  0  0
  191.9710  176.9620  147.6620 C   0  0  0  0  0  1  0  0  0  0  0  0
  191.4240  176.5150  146.3170 C   0  0  0  0  0  0  0  0  0  0  0  0
  189.2380  175.9400  138.5570 C   0  0  0  0  0  2  0  0  0  0  0  0
  190.4950  175.4090  137.9560 C   0  0  0  0  0  3  0  0  0  0  0  0
  191.1670  176.1290  137.1370 N   0  0  0  0  0  2  0  0  0  0  0  0
  1  4  1  0  0  0  0
  2  1  1  0  0  0  0
  3 27  1  6  0  0  0
  3 10  1  0  0  0  0
  3  8  1  0  0  0  0
  4 22  1  0  0  0  0
  5  3  1  0  0  0  0
  6 11  1  0  0  0  0
  6  2  1  1  0  0  0
  7  4  2  0  0  0  0
  8  9  1  0  0  0  0
  9  2  2  0  0  0  0
  9  7  1  0  0  0  0
 10  5  1  6  0  0  0
 10  6  1  0  0  0  0
 11 12  1  6  0  0  0
 11 15  1  0  0  0  0
 12 13  1  0  0  0  0
 13 14  1  0  0  0  0
 14 15  1  0  0  0  0
 14 16  1  1  0  0  0
 16 19  2  0  0  0  0
 16 20  1  0  0  0  0
 17 21  2  0  0  0  0
 19 17  1  0  0  0  0
 20 18  1  1  0  0  0
 20 21  1  0  0  0  0
 22 26  1  0  0  0  0
 23 26  1  0  0  0  0
 26 24  1  0  0  0  0
 26 25  1  0  0  0  0
 28 27  1  0  0  0  0
 29 28  2  0  0  0  0
M  END
>  <MODEL>
8

>  <REMARK>
 VINA RESULT:      -6.8      2.605      7.394
  Name = 
  6 active torsions:
  status: ('A' for Active; 'I' for Inactive)
    1  A    between atoms: C_1  and  C_25
    2  A    between atoms: C_6  and  C_23
    3  A    between atoms: C_7  and  O_10
    4  A    between atoms: O_10  and  C_27
    5  A    between atoms: C_11  and  N_18
    6  A    between atoms: C_14  and  C_23
                            x       y       z     vdW  Elec       q    Type
                         _______ _______ _______ _____ _____    ______ ____

>  <TORSDO>
F 6

$$$$
=
 OpenBabel10232412323D

 29 33  0  0  1  0  0  0  0  0999 V2000
  188.2090  178.8440  141.0530 S   0  0  0  0  0  0  0  0  0  0  0  0
  187.5040  178.2200  139.6540 C   0  0  0  0  0  0  0  0  0  0  0  0
  186.7910  176.7220  137.3020 C   0  0  1  0  0  0  0  0  0  0  0  0
  189.4420  177.7020  141.1360 C   0  0  0  0  0  0  0  0  0  0  0  0
  186.8550  178.0190  136.5310 C   0  0  0  0  0  2  0  0  0  0  0  0
  186.3670  178.8160  138.8580 C   0  0  1  0  0  3  0  0  0  0  0  0
  189.3470  176.8260  140.0580 C   0  0  0  0  0  3  0  0  0  0  0  0
  187.9590  176.4410  138.0720 O   0  0  0  0  0  0  0  0  0  0  0  0
  188.2610  177.1410  139.2340 C   0  0  0  0  0  0  0  0  0  0  0  0
  185.8860  177.8880  137.7090 C   0  0  2  0  0  3  0  0  0  0  0  0
  185.2540  179.2010  139.7430 N   0  0  1  0  0  0  0  0  0  0  0  0
  184.3500  179.9680  138.9830 N   0  0  0  0  0  2  0  0  0  0  0  0
  183.0410  179.7290  139.5550 C   0  0  0  0  0  2  0  0  0  0  0  0
  183.1720  178.4370  140.3010 C   0  0  1  0  0  3  0  0  0  0  0  0
  184.5590  178.0430  140.1500 N   0  0  0  0  0  2  0  0  0  0  0  0
  182.8290  178.6150  141.7500 C   0  0  0  0  0  0  0  0  0  0  0  0
  182.9300  178.9110  143.9510 C   0  0  0  0  0  3  0  0  0  0  0  0
  180.6760  179.6990  141.7570 N   0  0  0  0  0  1  0  0  0  0  0  0
  183.7060  178.7990  142.7250 C   0  0  0  0  0  3  0  0  0  0  0  0
  181.4430  178.5880  142.2950 C   0  0  2  0  0  3  0  0  0  0  0  0
  181.6640  178.7960  143.7180 N   0  0  0  0  0  0  0  0  0  0  0  0
  190.4080  177.6730  142.1510 O   0  0  0  0  0  0  0  0  0  0  0  0
  190.1980  178.2030  144.5100 C   0  0  0  0  0  1  0  0  0  0  0  0
  191.3530  176.1670  143.7510 C   0  0  0  0  0  1  0  0  0  0  0  0
  188.9100  176.3270  143.5070 C   0  0  0  0  0  1  0  0  0  0  0  0
  190.2090  177.1130  143.4520 C   0  0  0  0  0  0  0  0  0  0  0  0
  186.1680  175.5820  136.5200 C   0  0  0  0  0  2  0  0  0  0  0  0
  186.7650  174.2820  136.9390 C   0  0  0  0  0  3  0  0  0  0  0  0
  186.2750  173.1830  136.5020 N   0  0  0  0  0  2  0  0  0  0  0  0
  1  4  1  0  0  0  0
  2  1  1  0  0  0  0
  3 27  1  6  0  0  0
  3 10  1  0  0  0  0
  3  8  1  0  0  0  0
  4 22  1  0  0  0  0
  5  3  1  0  0  0  0
  6  2  1  1  0  0  0
  6 11  1  0  0  0  0
  7  4  2  0  0  0  0
  8  9  1  0  0  0  0
  9  2  2  0  0  0  0
  9  7  1  0  0  0  0
 10  5  1  6  0  0  0
 10  6  1  0  0  0  0
 11 12  1  6  0  0  0
 11 15  1  0  0  0  0
 12 13  1  0  0  0  0
 13 14  1  0  0  0  0
 14 16  1  1  0  0  0
 15 14  1  0  0  0  0
 16 20  1  0  0  0  0
 16 19  2  0  0  0  0
 19 17  1  0  0  0  0
 20 18  1  6  0  0  0
 20 21  1  0  0  0  0
 21 17  2  0  0  0  0
 22 26  1  0  0  0  0
 26 25  1  0  0  0  0
 26 24  1  0  0  0  0
 26 23  1  0  0  0  0
 27 28  1  0  0  0  0
 29 28  2  0  0  0  0
M  END
>  <MODEL>
9

>  <REMARK>
 VINA RESULT:      -6.8      4.078      8.487
  Name = 
  6 active torsions:
  status: ('A' for Active; 'I' for Inactive)
    1  A    between atoms: C_1  and  C_25
    2  A    between atoms: C_6  and  C_23
    3  A    between atoms: C_7  and  O_10
    4  A    between atoms: O_10  and  C_27
    5  A    between atoms: C_11  and  N_18
    6  A    between atoms: C_14  and  C_23
                            x       y       z     vdW  Elec       q    Type
                         _______ _______ _______ _____ _____    ______ ____

>  <TORSDO>
F 6

$$$$
