=
 OpenBabel10232412083D

 39 42  0  0  1  0  0  0  0  0999 V2000
  188.2870  177.9880  140.0170 C   0  0  2  0  0  3  0  0  0  0  0  0
  185.7320  178.4270  139.6610 C   0  0  0  0  0  0  0  0  0  0  0  0
  185.3190  179.4070  141.6890 N   0  0  0  0  0  0  0  0  0  0  0  0
  184.3860  177.8340  137.6780 C   0  0  0  0  0  3  0  0  0  0  0  0
  186.9130  178.4890  140.3860 C   0  0  0  0  0  0  0  0  0  0  0  0
  185.5670  177.8940  138.3980 C   0  0  0  0  0  3  0  0  0  0  0  0
  184.7450  179.0270  140.5320 C   0  0  0  0  0  0  0  0  0  0  0  0
  186.6270  179.0830  141.6050 C   0  0  0  0  0  3  0  0  0  0  0  0
  183.4320  179.2210  140.2900 N   0  0  0  0  0  0  0  0  0  0  0  0
  182.0540  178.0600  136.9940 C   0  0  0  0  0  1  0  0  0  0  0  0
  183.1090  178.2750  138.0170 C   0  0  0  0  0  0  0  0  0  0  0  0
  182.6980  178.8970  139.1980 C   0  0  0  0  0  3  0  0  0  0  0  0
  188.5570  176.8130  142.2320 N   0  0  0  0  0  2  0  0  0  0  0  0
  189.1620  177.4890  141.1310 C   0  0  0  0  0  0  0  0  0  0  0  0
  190.4130  177.6260  141.0840 O   0  0  0  0  0  0  0  0  0  0  0  0
  189.3370  176.3060  143.3520 C   0  0  0  0  0  2  0  0  0  0  0  0
  190.2600  177.0030  146.6860 C   0  0  0  0  0  3  0  0  0  0  0  0
  189.4900  178.6420  143.8700 F   0  0  0  0  0  0  0  0  0  0  0  0
  188.3730  177.2630  145.4300 C   0  0  0  0  0  0  0  0  0  0  0  0
  189.4720  177.3750  144.4310 C   0  0  1  0  0  0  0  0  0  0  0  0
  188.9460  177.0750  146.7430 C   0  0  0  0  0  0  0  0  0  0  0  0
  190.7390  177.1460  145.2720 C   0  0  0  0  0  2  0  0  0  0  0  0
  188.2180  176.9800  147.9230 O   0  0  0  0  0  1  0  0  0  0  0  0
  187.0960  177.5370  145.1990 C   0  0  0  0  0  2  0  0  0  0  0  0
  188.9830  178.8230  139.0340 N   0  0  0  0  0  2  0  0  0  0  0  0
  188.5210  178.4720  136.6690 C   0  0  0  0  0  2  0  0  0  0  0  0
  189.0470  176.5640  138.0770 C   0  0  2  0  0  3  0  0  0  0  0  0
  188.2430  176.0850  136.8650 C   0  0  1  0  0  3  0  0  0  0  0  0
  189.3570  178.0440  137.8590 C   0  0  2  0  0  3  0  0  0  0  0  0
  188.2980  177.2130  135.8520 C   0  0  1  0  0  3  0  0  0  0  0  0
  188.7520  174.9140  136.3060 O   0  0  0  0  0  1  0  0  0  0  0  0
  187.0450  177.2990  135.0230 C   0  0  0  0  0  0  0  0  0  0  0  0
  186.7680  178.3570  134.3960 O   0  0  0  0  0  0  0  0  0  0  0  0
  186.1220  176.2150  135.0040 N   0  0  0  0  0  1  0  0  0  0  0  0
  190.2480  175.7610  138.3560 N   0  0  0  0  0  2  0  0  0  0  0  0
  191.4610  176.4490  137.9140 C   0  0  0  0  0  2  0  0  0  0  0  0
  192.5760  175.5140  137.8750 N   0  0  0  0  0  0  0  0  0  0  0  0
  193.5790  176.0700  136.9800 C   0  0  0  0  0  1  0  0  0  0  0  0
  192.0770  174.3080  137.2410 C   0  0  0  0  0  1  0  0  0  0  0  0
  1 25  1  1  0  0  0
  1  5  1  0  0  0  0
  1 14  1  0  0  0  0
  2  5  1  0  0  0  0
  2  7  1  0  0  0  0
  4 11  2  0  0  0  0
  4  6  1  0  0  0  0
  5  8  2  0  0  0  0
  6  2  2  0  0  0  0
  7  3  2  0  0  0  0
  8  3  1  0  0  0  0
  9  7  1  0  0  0  0
 10 11  1  0  0  0  0
 11 12  1  0  0  0  0
 12  9  2  0  0  0  0
 13 16  1  0  0  0  0
 14 13  1  0  0  0  0
 15 14  2  0  0  0  0
 16 20  1  0  0  0  0
 17 21  2  0  0  0  0
 19 21  1  0  0  0  0
 20 18  1  6  0  0  0
 20 22  1  0  0  0  0
 20 19  1  0  0  0  0
 21 23  1  0  0  0  0
 22 17  1  0  0  0  0
 24 19  2  0  0  0  0
 26 29  1  0  0  0  0
 27 35  1  6  0  0  0
 28 31  1  6  0  0  0
 28 27  1  0  0  0  0
 29 27  1  0  0  0  0
 29 25  1  1  0  0  0
 30 32  1  1  0  0  0
 30 26  1  0  0  0  0
 30 28  1  0  0  0  0
 33 32  2  0  0  0  0
 34 32  1  0  0  0  0
 36 35  1  0  0  0  0
 37 36  1  0  0  0  0
 38 37  1  0  0  0  0
 39 37  1  0  0  0  0
M  END
>  <MODEL>
1

>  <REMARK>
 VINA RESULT:      -8.3      0.000      0.000
  Name = 
  10 active torsions:
  status: ('A' for Active; 'I' for Inactive)
    1  A    between atoms: C_4  and  N_9
    2  A    between atoms: C_4  and  N_18
    3  A    between atoms: C_7  and  N_18
    4  A    between atoms: N_8  and  C_37
    5  A    between atoms: C_10  and  C_37
    6  A    between atoms: C_12  and  C_16
    7  A    between atoms: C_16  and  C_19
    8  A    between atoms: C_16  and  N_27
    9  A    between atoms: C_23  and  C_34
   10  A    between atoms: N_27  and  C_32
                            x       y       z     vdW  Elec       q    Type
                         _______ _______ _______ _____ _____    ______ ____

>  <TORSDO>
F 10

$$$$
=
 OpenBabel10232412083D

 39 42  0  0  1  0  0  0  0  0999 V2000
  190.3520  177.6130  140.9300 C   0  0  2  0  0  3  0  0  0  0  0  0
  191.4260  176.4200  138.8640 C   0  0  0  0  0  0  0  0  0  0  0  0
  193.5790  177.1150  139.2110 N   0  0  0  0  0  0  0  0  0  0  0  0
  190.2610  175.0530  137.1690 C   0  0  0  0  0  3  0  0  0  0  0  0
  191.4740  177.1960  140.0120 C   0  0  0  0  0  0  0  0  0  0  0  0
  190.3050  175.8270  138.3160 C   0  0  0  0  0  3  0  0  0  0  0  0
  192.7930  176.3940  138.3910 C   0  0  0  0  0  0  0  0  0  0  0  0
  192.7870  177.6020  140.1900 C   0  0  0  0  0  3  0  0  0  0  0  0
  193.2850  175.7590  137.3070 N   0  0  0  0  0  0  0  0  0  0  0  0
  190.8890  173.8220  135.1570 C   0  0  0  0  0  1  0  0  0  0  0  0
  191.2870  174.6790  136.3030 C   0  0  0  0  0  0  0  0  0  0  0  0
  192.6420  175.0070  136.3810 C   0  0  0  0  0  3  0  0  0  0  0  0
  189.9260  178.3900  143.2920 N   0  0  0  0  0  2  0  0  0  0  0  0
  190.5860  177.4850  142.4090 C   0  0  0  0  0  0  0  0  0  0  0  0
  191.3210  176.5730  142.8720 O   0  0  0  0  0  0  0  0  0  0  0  0
  190.1070  178.3330  144.7350 C   0  0  0  0  0  2  0  0  0  0  0  0
  187.1820  178.0330  146.6870 C   0  0  0  0  0  3  0  0  0  0  0  0
  189.1480  176.1360  144.7510 F   0  0  0  0  0  0  0  0  0  0  0  0
  189.3210  177.2510  146.8270 C   0  0  0  0  0  0  0  0  0  0  0  0
  189.0950  177.3790  145.3600 C   0  0  1  0  0  0  0  0  0  0  0  0
  188.1160  177.6330  147.5260 C   0  0  0  0  0  0  0  0  0  0  0  0
  187.6730  177.9570  145.2720 C   0  0  0  0  0  2  0  0  0  0  0  0
  187.9480  177.5900  148.9040 O   0  0  0  0  0  1  0  0  0  0  0  0
  190.3610  176.6530  147.3920 C   0  0  0  0  0  2  0  0  0  0  0  0
  189.0260  177.1710  140.4920 N   0  0  0  0  0  2  0  0  0  0  0  0
  187.1850  178.4320  141.4660 C   0  0  0  0  0  2  0  0  0  0  0  0
  187.2570  178.0920  139.0630 C   0  0  2  0  0  3  0  0  0  0  0  0
  185.8080  178.3490  139.4890 C   0  0  1  0  0  3  0  0  0  0  0  0
  188.1360  178.3090  140.2920 C   0  0  2  0  0  3  0  0  0  0  0  0
  185.8800  178.9420  140.8840 C   0  0  1  0  0  3  0  0  0  0  0  0
  185.1390  179.2210  138.6320 O   0  0  0  0  0  1  0  0  0  0  0  0
  184.6990  178.5530  141.7310 C   0  0  0  0  0  0  0  0  0  0  0  0
  184.8700  178.1290  142.9060 O   0  0  0  0  0  0  0  0  0  0  0  0
  183.3830  178.5850  141.1870 N   0  0  0  0  0  1  0  0  0  0  0  0
  187.6900  178.8820  137.9000 N   0  0  0  0  0  2  0  0  0  0  0  0
  187.9570  178.0240  136.7460 C   0  0  0  0  0  2  0  0  0  0  0  0
  186.7070  177.6800  136.0830 N   0  0  0  0  0  0  0  0  0  0  0  0
  186.5820  176.2300  136.1160 C   0  0  0  0  0  1  0  0  0  0  0  0
  186.8680  178.0500  134.6890 C   0  0  0  0  0  1  0  0  0  0  0  0
  1 25  1  6  0  0  0
  1 14  1  0  0  0  0
  2  5  1  0  0  0  0
  3  8  1  0  0  0  0
  4  6  1  0  0  0  0
  5  8  2  0  0  0  0
  5  1  1  0  0  0  0
  6  2  2  0  0  0  0
  7  2  1  0  0  0  0
  7  3  2  0  0  0  0
  9  7  1  0  0  0  0
 10 11  1  0  0  0  0
 11 12  1  0  0  0  0
 11  4  2  0  0  0  0
 12  9  2  0  0  0  0
 13 16  1  0  0  0  0
 14 15  2  0  0  0  0
 14 13  1  0  0  0  0
 16 20  1  0  0  0  0
 17 21  2  0  0  0  0
 19 24  2  0  0  0  0
 19 21  1  0  0  0  0
 20 18  1  6  0  0  0
 20 19  1  0  0  0  0
 21 23  1  0  0  0  0
 22 20  1  0  0  0  0
 22 17  1  0  0  0  0
 27 35  1  6  0  0  0
 27 28  1  0  0  0  0
 27 29  1  0  0  0  0
 28 31  1  6  0  0  0
 28 30  1  0  0  0  0
 29 25  1  1  0  0  0
 29 26  1  0  0  0  0
 30 26  1  0  0  0  0
 30 32  1  1  0  0  0
 32 33  2  0  0  0  0
 34 32  1  0  0  0  0
 36 35  1  0  0  0  0
 37 38  1  0  0  0  0
 37 36  1  0  0  0  0
 39 37  1  0  0  0  0
M  END
>  <MODEL>
2

>  <REMARK>
 VINA RESULT:      -8.1      2.113      5.797
  Name = 
  10 active torsions:
  status: ('A' for Active; 'I' for Inactive)
    1  A    between atoms: C_4  and  N_9
    2  A    between atoms: C_4  and  N_18
    3  A    between atoms: C_7  and  N_18
    4  A    between atoms: N_8  and  C_37
    5  A    between atoms: C_10  and  C_37
    6  A    between atoms: C_12  and  C_16
    7  A    between atoms: C_16  and  C_19
    8  A    between atoms: C_16  and  N_27
    9  A    between atoms: C_23  and  C_34
   10  A    between atoms: N_27  and  C_32
                            x       y       z     vdW  Elec       q    Type
                         _______ _______ _______ _____ _____    ______ ____

>  <TORSDO>
F 10

$$$$
=
 OpenBabel10232412083D

 39 42  0  0  1  0  0  0  0  0999 V2000
  189.1130  177.7820  140.6650 C   0  0  2  0  0  3  0  0  0  0  0  0
  191.0470  176.8470  139.1710 C   0  0  0  0  0  0  0  0  0  0  0  0
  192.7770  177.3470  140.5850 N   0  0  0  0  0  0  0  0  0  0  0  0
  190.8320  175.8260  136.9330 C   0  0  0  0  0  3  0  0  0  0  0  0
  190.5410  177.4380  140.3190 C   0  0  0  0  0  0  0  0  0  0  0  0
  190.3230  176.4150  138.0770 C   0  0  0  0  0  3  0  0  0  0  0  0
  192.4770  176.8080  139.3890 C   0  0  0  0  0  0  0  0  0  0  0  0
  191.6110  177.7300  141.1490 C   0  0  0  0  0  3  0  0  0  0  0  0
  193.4290  176.3140  138.5700 N   0  0  0  0  0  0  0  0  0  0  0  0
  192.3480  174.8750  135.2730 C   0  0  0  0  0  1  0  0  0  0  0  0
  192.1500  175.5230  136.5950 C   0  0  0  0  0  0  0  0  0  0  0  0
  193.3060  175.7510  137.3440 C   0  0  0  0  0  3  0  0  0  0  0  0
  186.8840  177.9570  139.4990 N   0  0  0  0  0  2  0  0  0  0  0  0
  188.2540  178.3470  139.5710 C   0  0  0  0  0  0  0  0  0  0  0  0
  188.7160  179.1820  138.7490 O   0  0  0  0  0  0  0  0  0  0  0  0
  185.9900  178.4560  138.4640 C   0  0  0  0  0  2  0  0  0  0  0  0
  183.5690  177.7470  140.9330 C   0  0  0  0  0  3  0  0  0  0  0  0
  184.3000  180.1400  138.7080 F   0  0  0  0  0  0  0  0  0  0  0  0
  183.5800  177.8890  138.6560 C   0  0  0  0  0  0  0  0  0  0  0  0
  184.6450  178.8470  139.0680 C   0  0  1  0  0  0  0  0  0  0  0  0
  182.9810  177.3120  139.8370 C   0  0  0  0  0  0  0  0  0  0  0  0
  184.6710  178.7070  140.5990 C   0  0  0  0  0  2  0  0  0  0  0  0
  181.9210  176.4140  139.8340 O   0  0  0  0  0  1  0  0  0  0  0  0
  183.0910  177.7690  137.4290 C   0  0  0  0  0  2  0  0  0  0  0  0
  188.9570  178.4530  141.9580 N   0  0  0  0  0  2  0  0  0  0  0  0
  186.9270  177.7450  143.1010 C   0  0  0  0  0  2  0  0  0  0  0  0
  189.0180  177.8420  144.3340 C   0  0  2  0  0  3  0  0  0  0  0  0
  187.8500  177.9650  145.3180 C   0  0  1  0  0  3  0  0  0  0  0  0
  188.4220  177.5380  142.9600 C   0  0  2  0  0  3  0  0  0  0  0  0
  186.6170  177.5010  144.5660 C   0  0  1  0  0  3  0  0  0  0  0  0
  188.0280  177.1980  146.4680 O   0  0  0  0  0  1  0  0  0  0  0  0
  185.3740  178.2260  145.0030 C   0  0  0  0  0  0  0  0  0  0  0  0
  184.4520  178.4660  144.1780 O   0  0  0  0  0  0  0  0  0  0  0  0
  185.2610  178.7200  146.3350 N   0  0  0  0  0  1  0  0  0  0  0  0
  190.0450  176.8710  144.7410 N   0  0  0  0  0  2  0  0  0  0  0  0
  191.2730  177.5450  145.1630 C   0  0  0  0  0  2  0  0  0  0  0  0
  191.9660  176.7370  146.1570 N   0  0  0  0  0  0  0  0  0  0  0  0
  191.9600  175.3620  145.6810 C   0  0  0  0  0  1  0  0  0  0  0  0
  191.1430  176.7650  147.3530 C   0  0  0  0  0  1  0  0  0  0  0  0
  1 14  1  6  0  0  0
  1 25  1  0  0  0  0
  2  7  1  0  0  0  0
  2  5  1  0  0  0  0
  3  8  1  0  0  0  0
  4  6  1  0  0  0  0
  5  1  1  0  0  0  0
  5  8  2  0  0  0  0
  6  2  2  0  0  0  0
  7  3  2  0  0  0  0
  9  7  1  0  0  0  0
 10 11  1  0  0  0  0
 11  4  2  0  0  0  0
 11 12  1  0  0  0  0
 12  9  2  0  0  0  0
 13 14  1  0  0  0  0
 15 14  2  0  0  0  0
 16 20  1  0  0  0  0
 16 13  1  0  0  0  0
 19 20  1  0  0  0  0
 19 21  1  0  0  0  0
 20 18  1  6  0  0  0
 20 22  1  0  0  0  0
 21 17  2  0  0  0  0
 22 17  1  0  0  0  0
 23 21  1  0  0  0  0
 24 19  2  0  0  0  0
 26 30  1  0  0  0  0
 27 35  1  1  0  0  0
 27 28  1  0  0  0  0
 28 31  1  1  0  0  0
 29 25  1  6  0  0  0
 29 26  1  0  0  0  0
 29 27  1  0  0  0  0
 30 32  1  1  0  0  0
 30 28  1  0  0  0  0
 32 34  1  0  0  0  0
 33 32  2  0  0  0  0
 35 36  1  0  0  0  0
 36 37  1  0  0  0  0
 37 39  1  0  0  0  0
 38 37  1  0  0  0  0
M  END
>  <MODEL>
3

>  <REMARK>
 VINA RESULT:      -8.0      2.713      7.921
  Name = 
  10 active torsions:
  status: ('A' for Active; 'I' for Inactive)
    1  A    between atoms: C_4  and  N_9
    2  A    between atoms: C_4  and  N_18
    3  A    between atoms: C_7  and  N_18
    4  A    between atoms: N_8  and  C_37
    5  A    between atoms: C_10  and  C_37
    6  A    between atoms: C_12  and  C_16
    7  A    between atoms: C_16  and  C_19
    8  A    between atoms: C_16  and  N_27
    9  A    between atoms: C_23  and  C_34
   10  A    between atoms: N_27  and  C_32
                            x       y       z     vdW  Elec       q    Type
                         _______ _______ _______ _____ _____    ______ ____

>  <TORSDO>
F 10

$$$$
=
 OpenBabel10232412083D

 39 42  0  0  1  0  0  0  0  0999 V2000
  188.5070  177.8670  140.7860 C   0  0  2  0  0  3  0  0  0  0  0  0
  189.6320  177.4990  143.1190 C   0  0  0  0  0  0  0  0  0  0  0  0
  191.7830  177.2570  142.3720 N   0  0  0  0  0  0  0  0  0  0  0  0
  188.5050  177.4270  145.3160 C   0  0  0  0  0  3  0  0  0  0  0  0
  189.6530  177.6370  141.7400 C   0  0  0  0  0  0  0  0  0  0  0  0
  188.5220  177.5670  143.9390 C   0  0  0  0  0  3  0  0  0  0  0  0
  191.0140  177.2610  143.4770 C   0  0  0  0  0  0  0  0  0  0  0  0
  190.9650  177.4830  141.3210 C   0  0  0  0  0  3  0  0  0  0  0  0
  191.5320  177.0720  144.7080 N   0  0  0  0  0  0  0  0  0  0  0  0
  189.1830  177.1070  147.6390 C   0  0  0  0  0  1  0  0  0  0  0  0
  189.5540  177.1950  146.2030 C   0  0  0  0  0  0  0  0  0  0  0  0
  190.9110  177.0370  145.9110 C   0  0  0  0  0  3  0  0  0  0  0  0
  188.8310  176.8520  138.5000 N   0  0  0  0  0  2  0  0  0  0  0  0
  188.8400  178.0130  139.3280 C   0  0  0  0  0  0  0  0  0  0  0  0
  189.0870  179.1430  138.8290 O   0  0  0  0  0  0  0  0  0  0  0  0
  189.1490  176.9110  137.0810 C   0  0  0  0  0  2  0  0  0  0  0  0
  185.8330  175.7070  136.9970 C   0  0  0  0  0  3  0  0  0  0  0  0
  188.4210  176.1620  134.9230 F   0  0  0  0  0  0  0  0  0  0  0  0
  187.9070  174.7840  136.7720 C   0  0  0  0  0  0  0  0  0  0  0  0
  188.0900  176.1740  136.2690 C   0  0  1  0  0  0  0  0  0  0  0  0
  186.5250  174.5970  137.1510 C   0  0  0  0  0  0  0  0  0  0  0  0
  186.7050  176.8080  136.4730 C   0  0  0  0  0  2  0  0  0  0  0  0
  185.9820  173.4060  137.6180 O   0  0  0  0  0  1  0  0  0  0  0  0
  188.7960  173.8050  136.6610 C   0  0  0  0  0  2  0  0  0  0  0  0
  187.5080  178.8230  141.2720 N   0  0  0  0  0  2  0  0  0  0  0  0
  185.5850  178.2230  139.9050 C   0  0  0  0  0  2  0  0  0  0  0  0
  185.2320  179.0560  142.1590 C   0  0  2  0  0  3  0  0  0  0  0  0
  183.9710  179.3130  141.3280 C   0  0  1  0  0  3  0  0  0  0  0  0
  186.1800  178.2220  141.2990 C   0  0  2  0  0  3  0  0  0  0  0  0
  184.0940  178.4350  140.0970 C   0  0  1  0  0  3  0  0  0  0  0  0
  182.7980  179.0110  142.0170 O   0  0  0  0  0  1  0  0  0  0  0  0
  183.4570  179.0570  138.8850 C   0  0  0  0  0  0  0  0  0  0  0  0
  183.1800  178.3520  137.8770 O   0  0  0  0  0  0  0  0  0  0  0  0
  183.2340  180.4630  138.8330 N   0  0  0  0  0  1  0  0  0  0  0  0
  184.9710  178.4520  143.4750 N   0  0  0  0  0  2  0  0  0  0  0  0
  185.4130  179.3300  144.5580 C   0  0  0  0  0  2  0  0  0  0  0  0
  184.4850  179.2440  145.6770 N   0  0  0  0  0  0  0  0  0  0  0  0
  185.0140  178.2550  146.6050 C   0  0  0  0  0  1  0  0  0  0  0  0
  183.2520  178.6950  145.1450 C   0  0  0  0  0  1  0  0  0  0  0  0
  1 14  1  6  0  0  0
  1 25  1  0  0  0  0
  1  5  1  0  0  0  0
  2  7  1  0  0  0  0
  2  6  2  0  0  0  0
  3  7  2  0  0  0  0
  4 11  2  0  0  0  0
  5  2  1  0  0  0  0
  6  4  1  0  0  0  0
  7  9  1  0  0  0  0
  8  5  2  0  0  0  0
  8  3  1  0  0  0  0
  9 12  2  0  0  0  0
 11 10  1  0  0  0  0
 12 11  1  0  0  0  0
 13 14  1  0  0  0  0
 15 14  2  0  0  0  0
 16 13  1  0  0  0  0
 17 21  2  0  0  0  0
 19 21  1  0  0  0  0
 20 18  1  6  0  0  0
 20 22  1  0  0  0  0
 20 19  1  0  0  0  0
 20 16  1  0  0  0  0
 21 23  1  0  0  0  0
 22 17  1  0  0  0  0
 24 19  2  0  0  0  0
 26 30  1  0  0  0  0
 26 29  1  0  0  0  0
 27 35  1  1  0  0  0
 28 31  1  1  0  0  0
 28 27  1  0  0  0  0
 29 25  1  6  0  0  0
 29 27  1  0  0  0  0
 30 32  1  6  0  0  0
 30 28  1  0  0  0  0
 33 32  2  0  0  0  0
 34 32  1  0  0  0  0
 35 36  1  0  0  0  0
 36 37  1  0  0  0  0
 37 38  1  0  0  0  0
 39 37  1  0  0  0  0
M  END
>  <MODEL>
4

>  <REMARK>
 VINA RESULT:      -7.9      2.925      8.101
  Name = 
  10 active torsions:
  status: ('A' for Active; 'I' for Inactive)
    1  A    between atoms: C_4  and  N_9
    2  A    between atoms: C_4  and  N_18
    3  A    between atoms: C_7  and  N_18
    4  A    between atoms: N_8  and  C_37
    5  A    between atoms: C_10  and  C_37
    6  A    between atoms: C_12  and  C_16
    7  A    between atoms: C_16  and  C_19
    8  A    between atoms: C_16  and  N_27
    9  A    between atoms: C_23  and  C_34
   10  A    between atoms: N_27  and  C_32
                            x       y       z     vdW  Elec       q    Type
                         _______ _______ _______ _____ _____    ______ ____

>  <TORSDO>
F 10

$$$$
=
 OpenBabel10232412083D

 39 42  0  0  1  0  0  0  0  0999 V2000
  187.7050  178.5890  141.3590 C   0  0  2  0  0  3  0  0  0  0  0  0
  189.1490  177.5760  139.4270 C   0  0  0  0  0  0  0  0  0  0  0  0
  187.5070  177.5200  137.8330 N   0  0  0  0  0  0  0  0  0  0  0  0
  191.5270  176.9170  139.5390 C   0  0  0  0  0  3  0  0  0  0  0  0
  187.9780  178.0890  139.9620 C   0  0  0  0  0  0  0  0  0  0  0  0
  190.3590  177.4310  140.0770 C   0  0  0  0  0  3  0  0  0  0  0  0
  188.8000  177.2300  138.0660 C   0  0  0  0  0  0  0  0  0  0  0  0
  187.0060  178.0380  138.9750 C   0  0  0  0  0  3  0  0  0  0  0  0
  189.5960  176.7010  137.1130 N   0  0  0  0  0  0  0  0  0  0  0  0
  193.1680  175.9600  138.0070 C   0  0  0  0  0  1  0  0  0  0  0  0
  191.7830  176.4340  138.2580 C   0  0  0  0  0  0  0  0  0  0  0  0
  190.9010  176.3440  137.1780 C   0  0  0  0  0  3  0  0  0  0  0  0
  188.4840  178.2040  143.7270 N   0  0  0  0  0  2  0  0  0  0  0  0
  188.0100  177.6570  142.4980 C   0  0  0  0  0  0  0  0  0  0  0  0
  187.8160  176.4170  142.3900 O   0  0  0  0  0  0  0  0  0  0  0  0
  188.8080  177.3660  144.8720 C   0  0  0  0  0  2  0  0  0  0  0  0
  191.9810  175.9550  145.5000 C   0  0  0  0  0  3  0  0  0  0  0  0
  190.5490  178.9710  145.2470 F   0  0  0  0  0  0  0  0  0  0  0  0
  190.4490  177.1250  146.7190 C   0  0  0  0  0  0  0  0  0  0  0  0
  190.2390  177.6230  145.3310 C   0  0  1  0  0  0  0  0  0  0  0  0
  191.5260  176.1620  146.7180 C   0  0  0  0  0  0  0  0  0  0  0  0
  191.2350  176.7930  144.5040 C   0  0  0  0  0  2  0  0  0  0  0  0
  192.0270  175.5280  147.8480 O   0  0  0  0  0  1  0  0  0  0  0  0
  189.9140  177.6540  147.8120 C   0  0  0  0  0  2  0  0  0  0  0  0
  186.4390  179.3130  141.4990 N   0  0  0  0  0  2  0  0  0  0  0  0
  184.3050  178.2530  140.9940 C   0  0  0  0  0  2  0  0  0  0  0  0
  184.7200  179.0910  143.2360 C   0  0  2  0  0  3  0  0  0  0  0  0
  183.2080  179.0340  142.9940 C   0  0  1  0  0  3  0  0  0  0  0  0
  185.3960  178.4420  142.0300 C   0  0  2  0  0  3  0  0  0  0  0  0
  183.0100  178.1480  141.7790 C   0  0  1  0  0  3  0  0  0  0  0  0
  182.5050  178.5200  144.0820 O   0  0  0  0  0  1  0  0  0  0  0  0
  181.8220  178.5640  140.9550 C   0  0  0  0  0  0  0  0  0  0  0  0
  181.9660  179.3520  139.9820 O   0  0  0  0  0  0  0  0  0  0  0  0
  180.5130  178.1350  141.3160 N   0  0  0  0  0  1  0  0  0  0  0  0
  185.1450  178.5060  144.5160 N   0  0  0  0  0  2  0  0  0  0  0  0
  185.6150  179.5380  145.4410 C   0  0  0  0  0  2  0  0  0  0  0  0
  185.2900  179.1630  146.8100 N   0  0  0  0  0  0  0  0  0  0  0  0
  186.5330  178.7830  147.4630 C   0  0  0  0  0  1  0  0  0  0  0  0
  184.4820  177.9600  146.7240 C   0  0  0  0  0  1  0  0  0  0  0  0
  1 25  1  6  0  0  0
  1 14  1  0  0  0  0
  2  5  1  0  0  0  0
  2  6  2  0  0  0  0
  3  7  2  0  0  0  0
  3  8  1  0  0  0  0
  4  6  1  0  0  0  0
  5  1  1  0  0  0  0
  7  2  1  0  0  0  0
  8  5  2  0  0  0  0
  9 12  2  0  0  0  0
  9  7  1  0  0  0  0
 10 11  1  0  0  0  0
 11  4  2  0  0  0  0
 12 11  1  0  0  0  0
 13 16  1  0  0  0  0
 14 13  1  0  0  0  0
 15 14  2  0  0  0  0
 16 20  1  0  0  0  0
 17 21  2  0  0  0  0
 19 24  2  0  0  0  0
 20 18  1  6  0  0  0
 20 19  1  0  0  0  0
 21 19  1  0  0  0  0
 21 23  1  0  0  0  0
 22 20  1  0  0  0  0
 22 17  1  0  0  0  0
 26 30  1  0  0  0  0
 26 29  1  0  0  0  0
 27 35  1  1  0  0  0
 28 27  1  0  0  0  0
 28 31  1  1  0  0  0
 29 25  1  6  0  0  0
 29 27  1  0  0  0  0
 30 32  1  6  0  0  0
 30 28  1  0  0  0  0
 32 34  1  0  0  0  0
 33 32  2  0  0  0  0
 35 36  1  0  0  0  0
 36 37  1  0  0  0  0
 37 38  1  0  0  0  0
 39 37  1  0  0  0  0
M  END
>  <MODEL>
5

>  <REMARK>
 VINA RESULT:      -7.8      2.629      6.783
  Name = 
  10 active torsions:
  status: ('A' for Active; 'I' for Inactive)
    1  A    between atoms: C_4  and  N_9
    2  A    between atoms: C_4  and  N_18
    3  A    between atoms: C_7  and  N_18
    4  A    between atoms: N_8  and  C_37
    5  A    between atoms: C_10  and  C_37
    6  A    between atoms: C_12  and  C_16
    7  A    between atoms: C_16  and  C_19
    8  A    between atoms: C_16  and  N_27
    9  A    between atoms: C_23  and  C_34
   10  A    between atoms: N_27  and  C_32
                            x       y       z     vdW  Elec       q    Type
                         _______ _______ _______ _____ _____    ______ ____

>  <TORSDO>
F 10

$$$$
=
 OpenBabel10232412083D

 39 42  0  0  1  0  0  0  0  0999 V2000
  189.1600  177.8040  140.2630 C   0  0  2  0  0  3  0  0  0  0  0  0
  191.2190  176.9200  138.9120 C   0  0  0  0  0  0  0  0  0  0  0  0
  192.8050  177.2880  140.5220 N   0  0  0  0  0  0  0  0  0  0  0  0
  191.2150  176.0470  136.6020 C   0  0  0  0  0  3  0  0  0  0  0  0
  190.6100  177.4490  140.0390 C   0  0  0  0  0  0  0  0  0  0  0  0
  190.6030  176.5750  137.7250 C   0  0  0  0  0  3  0  0  0  0  0  0
  192.6190  176.8320  139.2690 C   0  0  0  0  0  0  0  0  0  0  0  0
  191.5950  177.6620  140.9900 C   0  0  0  0  0  3  0  0  0  0  0  0
  193.6400  176.3680  138.5200 N   0  0  0  0  0  0  0  0  0  0  0  0
  192.8750  175.1660  135.0440 C   0  0  0  0  0  1  0  0  0  0  0  0
  192.5550  175.7350  136.3780 C   0  0  0  0  0  0  0  0  0  0  0  0
  193.6320  175.8870  137.2530 C   0  0  0  0  0  3  0  0  0  0  0  0
  187.1270  177.8230  138.7700 N   0  0  0  0  0  2  0  0  0  0  0  0
  188.4020  178.3740  139.0980 C   0  0  0  0  0  0  0  0  0  0  0  0
  188.8570  179.3470  138.4400 O   0  0  0  0  0  0  0  0  0  0  0  0
  186.3360  178.3160  137.6520 C   0  0  0  0  0  2  0  0  0  0  0  0
  187.3720  175.1930  136.3760 C   0  0  0  0  0  3  0  0  0  0  0  0
  184.7090  177.2200  136.2730 F   0  0  0  0  0  0  0  0  0  0  0  0
  186.9390  177.2510  135.4920 C   0  0  0  0  0  0  0  0  0  0  0  0
  186.0350  177.1850  136.6750 C   0  0  1  0  0  0  0  0  0  0  0  0
  187.6670  176.0080  135.3840 C   0  0  0  0  0  0  0  0  0  0  0  0
  186.3690  175.8200  137.2980 C   0  0  0  0  0  2  0  0  0  0  0  0
  188.5650  175.6970  134.3700 O   0  0  0  0  0  1  0  0  0  0  0  0
  186.9050  178.1870  134.5530 C   0  0  0  0  0  2  0  0  0  0  0  0
  188.9000  178.4800  141.5370 N   0  0  0  0  0  2  0  0  0  0  0  0
  186.7160  177.9200  142.4550 C   0  0  0  0  0  2  0  0  0  0  0  0
  188.6710  177.8350  143.8930 C   0  0  2  0  0  3  0  0  0  0  0  0
  187.4230  178.0390  144.7580 C   0  0  1  0  0  3  0  0  0  0  0  0
  188.1970  177.5980  142.4610 C   0  0  2  0  0  3  0  0  0  0  0  0
  186.2400  177.6830  143.8770 C   0  0  1  0  0  3  0  0  0  0  0  0
  187.4230  177.2460  145.9040 O   0  0  0  0  0  1  0  0  0  0  0  0
  185.0190  178.4990  144.2020 C   0  0  0  0  0  0  0  0  0  0  0  0
  183.9970  178.4360  143.4680 O   0  0  0  0  0  0  0  0  0  0  0  0
  185.0360  179.4110  145.2960 N   0  0  0  0  0  1  0  0  0  0  0  0
  189.5740  176.7810  144.3810 N   0  0  0  0  0  2  0  0  0  0  0  0
  190.5850  177.3260  145.2860 C   0  0  0  0  0  2  0  0  0  0  0  0
  191.8200  176.5630  145.1700 N   0  0  0  0  0  0  0  0  0  0  0  0
  191.6100  175.5520  144.1450 C   0  0  0  0  0  1  0  0  0  0  0  0
  191.9820  175.8530  146.4250 C   0  0  0  0  0  1  0  0  0  0  0  0
  1 14  1  6  0  0  0
  1 25  1  0  0  0  0
  2  7  1  0  0  0  0
  2  5  1  0  0  0  0
  3  8  1  0  0  0  0
  4  6  1  0  0  0  0
  5  1  1  0  0  0  0
  5  8  2  0  0  0  0
  6  2  2  0  0  0  0
  7  3  2  0  0  0  0
  9  7  1  0  0  0  0
 10 11  1  0  0  0  0
 11  4  2  0  0  0  0
 11 12  1  0  0  0  0
 12  9  2  0  0  0  0
 13 14  1  0  0  0  0
 15 14  2  0  0  0  0
 16 13  1  0  0  0  0
 17 22  1  0  0  0  0
 19 20  1  0  0  0  0
 20 18  1  6  0  0  0
 20 22  1  0  0  0  0
 20 16  1  0  0  0  0
 21 19  1  0  0  0  0
 21 17  2  0  0  0  0
 23 21  1  0  0  0  0
 24 19  2  0  0  0  0
 26 29  1  0  0  0  0
 26 30  1  0  0  0  0
 27 35  1  1  0  0  0
 27 28  1  0  0  0  0
 28 31  1  1  0  0  0
 29 25  1  6  0  0  0
 29 27  1  0  0  0  0
 30 32  1  1  0  0  0
 30 28  1  0  0  0  0
 32 34  1  0  0  0  0
 33 32  2  0  0  0  0
 35 36  1  0  0  0  0
 37 36  1  0  0  0  0
 37 39  1  0  0  0  0
 38 37  1  0  0  0  0
M  END
>  <MODEL>
6

>  <REMARK>
 VINA RESULT:      -7.8      2.713      8.246
  Name = 
  10 active torsions:
  status: ('A' for Active; 'I' for Inactive)
    1  A    between atoms: C_4  and  N_9
    2  A    between atoms: C_4  and  N_18
    3  A    between atoms: C_7  and  N_18
    4  A    between atoms: N_8  and  C_37
    5  A    between atoms: C_10  and  C_37
    6  A    between atoms: C_12  and  C_16
    7  A    between atoms: C_16  and  C_19
    8  A    between atoms: C_16  and  N_27
    9  A    between atoms: C_23  and  C_34
   10  A    between atoms: N_27  and  C_32
                            x       y       z     vdW  Elec       q    Type
                         _______ _______ _______ _____ _____    ______ ____

>  <TORSDO>
F 10

$$$$
=
 OpenBabel10232412083D

 39 42  0  0  1  0  0  0  0  0999 V2000
  186.2320  178.1290  140.5880 C   0  0  2  0  0  3  0  0  0  0  0  0
  188.3280  177.6560  139.0950 C   0  0  0  0  0  0  0  0  0  0  0  0
  187.3570  178.1140  137.0740 N   0  0  0  0  0  0  0  0  0  0  0  0
  190.5550  176.9070  139.8580 C   0  0  0  0  0  3  0  0  0  0  0  0
  187.0110  178.0370  139.2990 C   0  0  0  0  0  0  0  0  0  0  0  0
  189.2400  177.2880  140.0660 C   0  0  0  0  0  3  0  0  0  0  0  0
  188.5040  177.7230  137.6610 C   0  0  0  0  0  0  0  0  0  0  0  0
  186.4530  178.3040  138.0590 C   0  0  0  0  0  3  0  0  0  0  0  0
  189.6170  177.4590  136.9470 N   0  0  0  0  0  0  0  0  0  0  0  0
  192.6910  176.3660  138.8080 C   0  0  0  0  0  1  0  0  0  0  0  0
  191.2770  176.8000  138.6710 C   0  0  0  0  0  0  0  0  0  0  0  0
  190.8380  177.0520  137.3700 C   0  0  0  0  0  3  0  0  0  0  0  0
  183.7440  177.9540  140.9620 N   0  0  0  0  0  2  0  0  0  0  0  0
  184.8570  178.7300  140.5230 C   0  0  0  0  0  0  0  0  0  0  0  0
  184.6850  179.9130  140.1250 O   0  0  0  0  0  0  0  0  0  0  0  0
  182.3820  178.4650  140.9230 C   0  0  0  0  0  2  0  0  0  0  0  0
  182.5090  176.2620  138.1680 C   0  0  0  0  0  3  0  0  0  0  0  0
  180.2370  177.8550  140.0420 F   0  0  0  0  0  0  0  0  0  0  0  0
  181.9140  178.4420  138.4850 C   0  0  0  0  0  0  0  0  0  0  0  0
  181.5990  177.8040  139.7940 C   0  0  1  0  0  0  0  0  0  0  0  0
  182.4190  177.4360  137.5780 C   0  0  0  0  0  0  0  0  0  0  0  0
  182.0510  176.3480  139.5940 C   0  0  0  0  0  2  0  0  0  0  0  0
  182.7690  177.6630  136.2530 O   0  0  0  0  0  1  0  0  0  0  0  0
  181.5610  179.6690  138.1260 C   0  0  0  0  0  2  0  0  0  0  0  0
  187.0270  178.5720  141.7360 N   0  0  0  0  0  2  0  0  0  0  0  0
  185.6180  178.1750  143.6820 C   0  0  0  0  0  2  0  0  0  0  0  0
  188.0080  177.7720  143.8380 C   0  0  2  0  0  3  0  0  0  0  0  0
  187.4530  178.0370  145.2410 C   0  0  1  0  0  3  0  0  0  0  0  0
  186.8170  177.6990  142.8850 C   0  0  2  0  0  3  0  0  0  0  0  0
  185.9480  177.8780  145.1330 C   0  0  1  0  0  3  0  0  0  0  0  0
  187.9600  177.1600  146.1990 O   0  0  0  0  0  1  0  0  0  0  0  0
  185.2080  178.7900  146.0730 C   0  0  0  0  0  0  0  0  0  0  0  0
  184.0130  179.1150  145.8370 O   0  0  0  0  0  0  0  0  0  0  0  0
  185.8760  179.3590  147.1950 N   0  0  0  0  0  1  0  0  0  0  0  0
  188.8850  176.5940  143.7530 N   0  0  0  0  0  2  0  0  0  0  0  0
  190.2760  176.9830  143.5230 C   0  0  0  0  0  2  0  0  0  0  0  0
  190.7580  177.7820  144.6410 N   0  0  0  0  0  0  0  0  0  0  0  0
  191.6230  178.8170  144.0930 C   0  0  0  0  0  1  0  0  0  0  0  0
  191.6070  176.9100  145.4320 C   0  0  0  0  0  1  0  0  0  0  0  0
  1 14  1  6  0  0  0
  1 25  1  0  0  0  0
  2  5  1  0  0  0  0
  2  6  2  0  0  0  0
  3  7  2  0  0  0  0
  3  8  1  0  0  0  0
  4  6  1  0  0  0  0
  5  1  1  0  0  0  0
  7  2  1  0  0  0  0
  8  5  2  0  0  0  0
  9 12  2  0  0  0  0
  9  7  1  0  0  0  0
 11 10  1  0  0  0  0
 11  4  2  0  0  0  0
 12 11  1  0  0  0  0
 14 13  1  0  0  0  0
 15 14  2  0  0  0  0
 16 13  1  0  0  0  0
 17 22  1  0  0  0  0
 19 20  1  0  0  0  0
 20 18  1  1  0  0  0
 20 16  1  0  0  0  0
 21 17  2  0  0  0  0
 21 19  1  0  0  0  0
 22 20  1  0  0  0  0
 23 21  1  0  0  0  0
 24 19  2  0  0  0  0
 26 30  1  0  0  0  0
 27 35  1  1  0  0  0
 27 28  1  0  0  0  0
 28 31  1  1  0  0  0
 29 25  1  6  0  0  0
 29 26  1  0  0  0  0
 29 27  1  0  0  0  0
 30 28  1  0  0  0  0
 30 32  1  1  0  0  0
 32 34  1  0  0  0  0
 33 32  2  0  0  0  0
 36 35  1  0  0  0  0
 36 37  1  0  0  0  0
 37 39  1  0  0  0  0
 38 37  1  0  0  0  0
M  END
>  <MODEL>
7

>  <REMARK>
 VINA RESULT:      -7.6      2.843      8.133
  Name = 
  10 active torsions:
  status: ('A' for Active; 'I' for Inactive)
    1  A    between atoms: C_4  and  N_9
    2  A    between atoms: C_4  and  N_18
    3  A    between atoms: C_7  and  N_18
    4  A    between atoms: N_8  and  C_37
    5  A    between atoms: C_10  and  C_37
    6  A    between atoms: C_12  and  C_16
    7  A    between atoms: C_16  and  C_19
    8  A    between atoms: C_16  and  N_27
    9  A    between atoms: C_23  and  C_34
   10  A    between atoms: N_27  and  C_32
                            x       y       z     vdW  Elec       q    Type
                         _______ _______ _______ _____ _____    ______ ____

>  <TORSDO>
F 10

$$$$
=
 OpenBabel10232412083D

 39 42  0  0  1  0  0  0  0  0999 V2000
  188.6070  177.5280  140.8610 C   0  0  2  0  0  3  0  0  0  0  0  0
  186.6250  178.2410  142.4120 C   0  0  0  0  0  0  0  0  0  0  0  0
  185.3670  179.2940  140.8160 N   0  0  0  0  0  0  0  0  0  0  0  0
  186.4190  177.8330  144.8400 C   0  0  0  0  0  3  0  0  0  0  0  0
  187.2740  178.1520  141.1900 C   0  0  0  0  0  0  0  0  0  0  0  0
  187.0700  177.7410  143.6210 C   0  0  0  0  0  3  0  0  0  0  0  0
  185.4130  178.9760  142.1220 C   0  0  0  0  0  0  0  0  0  0  0  0
  186.4900  178.8000  140.2490 C   0  0  0  0  0  3  0  0  0  0  0  0
  184.4250  179.3190  142.9750 N   0  0  0  0  0  0  0  0  0  0  0  0
  184.7850  178.3340  146.5820 C   0  0  0  0  0  1  0  0  0  0  0  0
  185.1990  178.4250  145.1580 C   0  0  0  0  0  0  0  0  0  0  0  0
  184.3150  179.0900  144.3060 C   0  0  0  0  0  3  0  0  0  0  0  0
  189.6700  178.3720  142.9860 N   0  0  0  0  0  2  0  0  0  0  0  0
  189.5880  177.3590  141.9860 C   0  0  0  0  0  0  0  0  0  0  0  0
  190.3020  176.3240  142.0750 O   0  0  0  0  0  0  0  0  0  0  0  0
  190.5990  178.2840  144.1030 C   0  0  0  0  0  2  0  0  0  0  0  0
  190.4020  177.3470  147.5010 C   0  0  0  0  0  3  0  0  0  0  0  0
  189.1760  176.4020  144.5320 F   0  0  0  0  0  0  0  0  0  0  0  0
  191.2800  176.4280  145.6060 C   0  0  0  0  0  0  0  0  0  0  0  0
  190.1300  177.2300  145.1010 C   0  0  1  0  0  0  0  0  0  0  0  0
  191.3370  176.5390  147.0450 C   0  0  0  0  0  0  0  0  0  0  0  0
  189.5750  177.8900  146.3740 C   0  0  0  0  0  2  0  0  0  0  0  0
  192.2530  175.8830  147.8580 O   0  0  0  0  0  1  0  0  0  0  0  0
  191.9830  175.5610  144.8900 C   0  0  0  0  0  2  0  0  0  0  0  0
  189.2030  178.0150  139.6140 N   0  0  0  0  0  2  0  0  0  0  0  0
  190.8660  176.4670  138.7370 C   0  0  0  0  0  2  0  0  0  0  0  0
  189.1890  177.3890  137.2410 C   0  0  2  0  0  3  0  0  0  0  0  0
  190.4130  176.9660  136.4220 C   0  0  1  0  0  3  0  0  0  0  0  0
  189.4200  176.9190  138.6760 C   0  0  2  0  0  3  0  0  0  0  0  0
  191.2260  176.0540  137.3220 C   0  0  1  0  0  3  0  0  0  0  0  0
  190.0720  176.3000  135.2460 O   0  0  0  0  0  1  0  0  0  0  0  0
  192.7030  176.1670  137.0650 C   0  0  0  0  0  0  0  0  0  0  0  0
  193.1530  176.0980  135.8890 O   0  0  0  0  0  0  0  0  0  0  0  0
  193.6160  176.2720  138.1540 N   0  0  0  0  0  1  0  0  0  0  0  0
  187.9070  176.9290  136.6860 N   0  0  0  0  0  2  0  0  0  0  0  0
  187.4080  175.7570  137.4050 C   0  0  0  0  0  2  0  0  0  0  0  0
  187.2370  174.6440  136.4820 N   0  0  0  0  0  0  0  0  0  0  0  0
  185.9890  173.9800  136.8280 C   0  0  0  0  0  1  0  0  0  0  0  0
  188.3020  173.7030  136.7750 C   0  0  0  0  0  1  0  0  0  0  0  0
  1 25  1  6  0  0  0
  1  5  1  0  0  0  0
  1 14  1  0  0  0  0
  2  6  2  0  0  0  0
  3  7  2  0  0  0  0
  4 11  2  0  0  0  0
  5  2  1  0  0  0  0
  6  4  1  0  0  0  0
  7  2  1  0  0  0  0
  7  9  1  0  0  0  0
  8  3  1  0  0  0  0
  8  5  2  0  0  0  0
  9 12  2  0  0  0  0
 11 10  1  0  0  0  0
 12 11  1  0  0  0  0
 13 16  1  0  0  0  0
 14 15  2  0  0  0  0
 14 13  1  0  0  0  0
 16 20  1  0  0  0  0
 19 21  1  0  0  0  0
 20 18  1  6  0  0  0
 20 19  1  0  0  0  0
 20 22  1  0  0  0  0
 21 17  2  0  0  0  0
 21 23  1  0  0  0  0
 22 17  1  0  0  0  0
 24 19  2  0  0  0  0
 27 35  1  6  0  0  0
 27 29  1  0  0  0  0
 28 31  1  6  0  0  0
 28 27  1  0  0  0  0
 28 30  1  0  0  0  0
 29 26  1  0  0  0  0
 29 25  1  1  0  0  0
 30 32  1  6  0  0  0
 30 26  1  0  0  0  0
 32 34  1  0  0  0  0
 33 32  2  0  0  0  0
 35 36  1  0  0  0  0
 37 39  1  0  0  0  0
 37 38  1  0  0  0  0
 37 36  1  0  0  0  0
M  END
>  <MODEL>
8

>  <REMARK>
 VINA RESULT:      -7.6      2.203      4.252
  Name = 
  10 active torsions:
  status: ('A' for Active; 'I' for Inactive)
    1  A    between atoms: C_4  and  N_9
    2  A    between atoms: C_4  and  N_18
    3  A    between atoms: C_7  and  N_18
    4  A    between atoms: N_8  and  C_37
    5  A    between atoms: C_10  and  C_37
    6  A    between atoms: C_12  and  C_16
    7  A    between atoms: C_16  and  C_19
    8  A    between atoms: C_16  and  N_27
    9  A    between atoms: C_23  and  C_34
   10  A    between atoms: N_27  and  C_32
                            x       y       z     vdW  Elec       q    Type
                         _______ _______ _______ _____ _____    ______ ____

>  <TORSDO>
F 10

$$$$
=
 OpenBabel10232412083D

 39 42  0  0  1  0  0  0  0  0999 V2000
  186.0240  178.2600  138.2850 C   0  0  2  0  0  3  0  0  0  0  0  0
  183.9090  176.7520  137.9680 C   0  0  0  0  0  0  0  0  0  0  0  0
  184.2460  176.2340  135.7640 N   0  0  0  0  0  0  0  0  0  0  0  0
  182.1900  176.2320  139.6630 C   0  0  0  0  0  3  0  0  0  0  0  0
  185.0780  177.3570  137.5320 C   0  0  0  0  0  0  0  0  0  0  0  0
  183.3580  176.8360  139.2320 C   0  0  0  0  0  3  0  0  0  0  0  0
  183.4160  176.0450  136.8060 C   0  0  0  0  0  0  0  0  0  0  0  0
  185.2510  177.0260  136.1970 C   0  0  0  0  0  3  0  0  0  0  0  0
  182.3070  175.2840  136.7050 N   0  0  0  0  0  0  0  0  0  0  0  0
  180.1340  174.9200  139.7480 C   0  0  0  0  0  1  0  0  0  0  0  0
  181.3000  175.4140  138.9710 C   0  0  0  0  0  0  0  0  0  0  0  0
  181.3680  174.9980  137.6400 C   0  0  0  0  0  3  0  0  0  0  0  0
  185.9730  178.7720  140.7540 N   0  0  0  0  0  2  0  0  0  0  0  0
  185.4650  179.0310  139.4460 C   0  0  0  0  0  0  0  0  0  0  0  0
  184.5890  179.9200  139.2730 O   0  0  0  0  0  0  0  0  0  0  0  0
  185.4780  179.4740  141.9290 C   0  0  0  0  0  2  0  0  0  0  0  0
  183.1650  179.2080  144.5820 C   0  0  0  0  0  3  0  0  0  0  0  0
  184.5320  177.2870  142.2040 F   0  0  0  0  0  0  0  0  0  0  0  0
  185.2560  178.4020  144.1580 C   0  0  0  0  0  0  0  0  0  0  0  0
  184.6540  178.5320  142.8010 C   0  0  1  0  0  0  0  0  0  0  0  0
  184.2820  178.7980  145.1470 C   0  0  0  0  0  0  0  0  0  0  0  0
  183.2650  179.1260  143.0870 C   0  0  0  0  0  2  0  0  0  0  0  0
  184.4810  178.7560  146.5220 O   0  0  0  0  0  1  0  0  0  0  0  0
  186.4020  177.7910  144.4320 C   0  0  0  0  0  2  0  0  0  0  0  0
  186.9200  179.0360  137.4240 N   0  0  0  0  0  2  0  0  0  0  0  0
  188.4940  177.6400  136.1980 C   0  0  0  0  0  2  0  0  0  0  0  0
  188.4450  177.5340  138.6240 C   0  0  2  0  0  3  0  0  0  0  0  0
  189.0220  176.2240  138.0770 C   0  0  1  0  0  3  0  0  0  0  0  0
  188.2690  178.4810  137.4390 C   0  0  2  0  0  3  0  0  0  0  0  0
  189.3980  176.5020  136.6340 C   0  0  1  0  0  3  0  0  0  0  0  0
  190.1380  175.7860  138.7880 O   0  0  0  0  0  1  0  0  0  0  0  0
  189.2340  175.2900  135.7570 C   0  0  0  0  0  0  0  0  0  0  0  0
  189.9870  175.1180  134.7620 O   0  0  0  0  0  0  0  0  0  0  0  0
  188.1750  174.3680  135.9970 N   0  0  0  0  0  1  0  0  0  0  0  0
  189.2290  178.1240  139.7200 N   0  0  0  0  0  2  0  0  0  0  0  0
  188.8620  177.5400  141.0090 C   0  0  0  0  0  2  0  0  0  0  0  0
  190.0220  177.5080  141.8890 N   0  0  0  0  0  0  0  0  0  0  0  0
  190.1160  176.1640  142.4370 C   0  0  0  0  0  1  0  0  0  0  0  0
  189.7160  178.3890  143.0010 C   0  0  0  0  0  1  0  0  0  0  0  0
  1 25  1  6  0  0  0
  1 14  1  0  0  0  0
  2  6  2  0  0  0  0
  3  8  1  0  0  0  0
  3  7  2  0  0  0  0
  5  2  1  0  0  0  0
  5  1  1  0  0  0  0
  6  4  1  0  0  0  0
  7  2  1  0  0  0  0
  8  5  2  0  0  0  0
  9  7  1  0  0  0  0
  9 12  2  0  0  0  0
 11  4  2  0  0  0  0
 11 10  1  0  0  0  0
 12 11  1  0  0  0  0
 13 16  1  0  0  0  0
 14 13  1  0  0  0  0
 15 14  2  0  0  0  0
 16 20  1  0  0  0  0
 17 21  2  0  0  0  0
 19 24  2  0  0  0  0
 19 21  1  0  0  0  0
 20 18  1  6  0  0  0
 20 22  1  0  0  0  0
 20 19  1  0  0  0  0
 21 23  1  0  0  0  0
 22 17  1  0  0  0  0
 26 30  1  0  0  0  0
 26 29  1  0  0  0  0
 27 35  1  1  0  0  0
 28 27  1  0  0  0  0
 28 31  1  1  0  0  0
 29 25  1  6  0  0  0
 29 27  1  0  0  0  0
 30 32  1  6  0  0  0
 30 28  1  0  0  0  0
 32 34  1  0  0  0  0
 33 32  2  0  0  0  0
 35 36  1  0  0  0  0
 36 37  1  0  0  0  0
 37 38  1  0  0  0  0
 37 39  1  0  0  0  0
M  END
>  <MODEL>
9

>  <REMARK>
 VINA RESULT:      -7.6      2.597      4.505
  Name = 
  10 active torsions:
  status: ('A' for Active; 'I' for Inactive)
    1  A    between atoms: C_4  and  N_9
    2  A    between atoms: C_4  and  N_18
    3  A    between atoms: C_7  and  N_18
    4  A    between atoms: N_8  and  C_37
    5  A    between atoms: C_10  and  C_37
    6  A    between atoms: C_12  and  C_16
    7  A    between atoms: C_16  and  C_19
    8  A    between atoms: C_16  and  N_27
    9  A    between atoms: C_23  and  C_34
   10  A    between atoms: N_27  and  C_32
                            x       y       z     vdW  Elec       q    Type
                         _______ _______ _______ _____ _____    ______ ____

>  <TORSDO>
F 10

$$$$
