=
 OpenBabel10232412043D

 42 47  0  0  1  0  0  0  0  0999 V2000
  188.9160  178.4620  140.1800 C   0  0  2  0  0  3  0  0  0  0  0  0
  188.2450  178.7390  141.4720 C   0  0  1  0  0  3  0  0  0  0  0  0
  186.0620  178.6160  140.3620 C   0  0  0  0  0  0  0  0  0  0  0  0
  186.7750  178.6440  141.4440 N   0  0  0  0  0  0  0  0  0  0  0  0
  188.0340  178.0080  139.0190 C   0  0  1  0  0  3  0  0  0  0  0  0
  188.8410  177.4180  141.2180 N   0  0  0  0  0  0  0  0  0  0  0  0
  186.6960  178.5700  139.0920 N   0  0  0  0  0  2  0  0  0  0  0  0
  184.2760  178.5610  140.4770 S   0  0  0  0  0  0  0  0  0  0  0  0
  184.2690  178.8340  142.2740 C   0  0  0  0  0  2  0  0  0  0  0  0
  182.8650  178.9230  144.3150 C   0  0  0  0  0  1  0  0  0  0  0  0
  182.8540  178.7350  142.8110 C   0  0  0  0  0  2  0  0  0  0  0  0
  190.1260  177.3840  141.9170 C   0  0  0  0  0  2  0  0  0  0  0  0
  190.8630  175.4130  143.3620 C   0  0  0  0  0  1  0  0  0  0  0  0
  190.0280  176.6870  143.2820 C   0  0  1  0  0  3  0  0  0  0  0  0
  190.4150  177.8480  144.6420 S   0  0  0  0  0  0  0  0  0  0  0  0
  187.9910  177.9530  147.3810 C   0  0  0  0  0  0  0  0  0  0  0  0
  189.2080  177.8190  148.0770 N   0  0  0  0  0  0  0  0  0  0  0  0
  190.1610  177.1470  147.2800 N   0  0  0  0  0  0  0  0  0  0  0  0
  188.1220  177.4800  146.1160 C   0  0  0  0  0  0  0  0  0  0  0  0
  185.8510  178.0870  145.6330 C   0  0  0  0  0  3  0  0  0  0  0  0
  187.0650  177.5190  145.2050 C   0  0  0  0  0  3  0  0  0  0  0  0
  189.5070  176.9520  145.9630 C   0  0  1  0  0  3  0  0  0  0  0  0
  186.8170  178.5540  147.8320 C   0  0  0  0  0  3  0  0  0  0  0  0
  185.7310  178.6140  146.9390 C   0  0  0  0  0  3  0  0  0  0  0  0
  188.6920  178.3140  137.6910 C   0  0  0  0  0  2  0  0  0  0  0  0
  188.2670  177.2450  136.6980 C   0  0  0  0  0  2  0  0  0  0  0  0
  190.0650  176.4550  134.5890 C   0  0  0  0  0  1  0  0  0  0  0  0
  190.3170  176.1470  136.0710 C   0  0  2  0  0  3  0  0  0  0  0  0
  191.1800  174.8740  136.1940 C   0  0  2  0  0  3  0  0  0  0  0  0
  188.3060  174.8800  136.4270 C   0  0  0  0  0  2  0  0  0  0  0  0
  190.5340  173.8210  137.0990 C   0  0  0  0  0  2  0  0  0  0  0  0
  189.0680  173.5770  136.7120 C   0  0  0  0  0  2  0  0  0  0  0  0
  189.0780  176.0430  136.8650 N   0  0  0  0  0  0  0  0  0  0  0  0
  192.5400  175.2160  136.7070 C   0  0  0  0  0  0  0  0  0  0  0  0
  193.5410  174.1910  136.7950 N   0  0  0  0  0  2  0  0  0  0  0  0
  192.7870  176.4000  137.0540 O   0  0  0  0  0  0  0  0  0  0  0  0
  195.8950  174.6420  136.3600 C   0  0  0  0  0  3  0  0  0  0  0  0
  194.8820  174.3330  137.2740 C   0  0  0  0  0  0  0  0  0  0  0  0
  197.5390  174.5990  138.1380 C   0  0  0  0  0  3  0  0  0  0  0  0
  197.2190  174.7780  136.7870 C   0  0  0  0  0  3  0  0  0  0  0  0
  196.5360  174.2820  139.0550 C   0  0  0  0  0  3  0  0  0  0  0  0
  195.2110  174.1440  138.6270 C   0  0  0  0  0  3  0  0  0  0  0  0
  1  6  1  1  0  0  0
  1  2  1  0  0  0  0
  2  4  1  6  0  0  0
  3  8  1  0  0  0  0
  3  4  2  0  0  0  0
  5 25  1  6  0  0  0
  5  7  1  0  0  0  0
  5  1  1  0  0  0  0
  6  2  1  0  0  0  0
  6 12  1  0  0  0  0
  7  3  1  0  0  0  0
  8  9  1  0  0  0  0
  9 11  1  0  0  0  0
 11 10  1  0  0  0  0
 12 14  1  0  0  0  0
 14 13  1  6  0  0  0
 14 15  1  0  0  0  0
 16 23  1  0  0  0  0
 16 17  1  0  0  0  0
 18 17  2  0  0  0  0
 19 16  2  0  0  0  0
 20 24  1  0  0  0  0
 21 20  2  0  0  0  0
 21 19  1  0  0  0  0
 22 15  1  6  0  0  0
 22 19  1  0  0  0  0
 22 18  1  0  0  0  0
 24 23  2  0  0  0  0
 26 33  1  0  0  0  0
 26 25  1  0  0  0  0
 28 27  1  6  0  0  0
 28 29  1  0  0  0  0
 28 33  1  0  0  0  0
 29 34  1  1  0  0  0
 29 31  1  0  0  0  0
 30 32  1  0  0  0  0
 30 33  1  0  0  0  0
 32 31  1  0  0  0  0
 34 35  1  0  0  0  0
 34 36  2  0  0  0  0
 35 38  1  0  0  0  0
 37 40  2  0  0  0  0
 37 38  1  0  0  0  0
 38 42  2  0  0  0  0
 39 41  2  0  0  0  0
 40 39  1  0  0  0  0
 42 41  1  0  0  0  0
M  END
>  <MODEL>
1

>  <REMARK>
 VINA RESULT:      -8.7      0.000      0.000
  Name = 
  12 active torsions:
  status: ('A' for Active; 'I' for Inactive)
    1  A    between atoms: C_7  and  C_8
    2  A    between atoms: N_11  and  C_19
    3  A    between atoms: C_12  and  C_29
    4  A    between atoms: S_15  and  C_29
    5  A    between atoms: S_15  and  C_32
    6  A    between atoms: C_18  and  C_26
    7  A    between atoms: C_18  and  N_35
    8  A    between atoms: S_22  and  C_26
    9  A    between atoms: S_22  and  C_31
   10  A    between atoms: N_30  and  C_40
   11  A    between atoms: C_34  and  C_39
   12  A    between atoms: C_39  and  C_40
                            x       y       z     vdW  Elec       q    Type
                         _______ _______ _______ _____ _____    ______ ____

>  <TORSDO>
F 12

$$$$
=
 OpenBabel10232412043D

 42 47  0  0  1  0  0  0  0  0999 V2000
  184.9020  177.1960  137.2930 C   0  0  2  0  0  3  0  0  0  0  0  0
  183.5480  177.7880  137.1860 C   0  0  1  0  0  3  0  0  0  0  0  0
  182.6870  175.6580  136.3280 C   0  0  0  0  0  0  0  0  0  0  0  0
  182.4820  176.8420  136.8150 N   0  0  0  0  0  0  0  0  0  0  0  0
  185.0180  175.6830  137.1210 C   0  0  1  0  0  3  0  0  0  0  0  0
  184.0980  177.4360  138.5050 N   0  0  0  0  0  0  0  0  0  0  0  0
  184.0100  175.1530  136.2190 N   0  0  0  0  0  2  0  0  0  0  0  0
  181.2940  174.6350  135.8610 S   0  0  0  0  0  0  0  0  0  0  0  0
  181.5570  173.4570  137.2210 C   0  0  0  0  0  2  0  0  0  0  0  0
  183.2880  171.6910  137.0340 C   0  0  0  0  0  1  0  0  0  0  0  0
  181.8700  172.0800  136.6650 C   0  0  0  0  0  2  0  0  0  0  0  0
  184.5680  178.6780  139.1200 C   0  0  0  0  0  2  0  0  0  0  0  0
  182.2560  179.2610  140.0310 C   0  0  0  0  0  1  0  0  0  0  0  0
  183.7360  179.0720  140.3490 C   0  0  1  0  0  3  0  0  0  0  0  0
  183.9980  177.8940  141.7250 S   0  0  0  0  0  0  0  0  0  0  0  0
  185.1740  178.5890  145.1190 C   0  0  0  0  0  0  0  0  0  0  0  0
  183.9070  179.2010  145.1210 N   0  0  0  0  0  0  0  0  0  0  0  0
  183.5520  179.6080  143.8170 N   0  0  0  0  0  0  0  0  0  0  0  0
  185.6420  178.4890  143.8490 C   0  0  0  0  0  0  0  0  0  0  0  0
  187.6160  177.3800  144.6430 C   0  0  0  0  0  3  0  0  0  0  0  0
  186.8730  177.8940  143.5650 C   0  0  0  0  0  3  0  0  0  0  0  0
  184.6400  179.1130  142.9390 C   0  0  1  0  0  3  0  0  0  0  0  0
  185.8650  178.0610  146.2090 C   0  0  0  0  0  3  0  0  0  0  0  0
  187.1090  177.4520  145.9600 C   0  0  0  0  0  3  0  0  0  0  0  0
  186.4140  175.2960  136.6830 C   0  0  0  0  0  2  0  0  0  0  0  0
  187.2620  176.5570  136.6440 C   0  0  0  0  0  2  0  0  0  0  0  0
  188.7990  178.8190  137.5550 C   0  0  0  0  0  1  0  0  0  0  0  0
  188.8500  177.4400  138.2270 C   0  0  2  0  0  3  0  0  0  0  0  0
  190.2190  177.2490  138.9110 C   0  0  2  0  0  3  0  0  0  0  0  0
  189.5930  176.2250  136.2900 C   0  0  0  0  0  2  0  0  0  0  0  0
  190.9200  175.9660  138.4600 C   0  0  0  0  0  2  0  0  0  0  0  0
  190.9380  175.8500  136.9280 C   0  0  0  0  0  2  0  0  0  0  0  0
  188.5440  176.3290  137.3050 N   0  0  0  0  0  0  0  0  0  0  0  0
  190.0600  177.2430  140.3960 C   0  0  0  0  0  0  0  0  0  0  0  0
  191.2240  177.3320  141.2320 N   0  0  0  0  0  2  0  0  0  0  0  0
  188.9060  177.1610  140.8910 O   0  0  0  0  0  0  0  0  0  0  0  0
  191.1170  178.5350  143.3480 C   0  0  0  0  0  3  0  0  0  0  0  0
  191.2610  177.3240  142.6630 C   0  0  0  0  0  0  0  0  0  0  0  0
  191.3520  177.3870  145.4670 C   0  0  0  0  0  3  0  0  0  0  0  0
  191.1590  178.5700  144.7450 C   0  0  0  0  0  3  0  0  0  0  0  0
  191.5060  176.1750  144.7920 C   0  0  0  0  0  3  0  0  0  0  0  0
  191.4660  176.1420  143.3930 C   0  0  0  0  0  3  0  0  0  0  0  0
  1  6  1  1  0  0  0
  2  4  1  6  0  0  0
  2  1  1  0  0  0  0
  2  6  1  0  0  0  0
  3  4  2  0  0  0  0
  5 25  1  6  0  0  0
  5  1  1  0  0  0  0
  6 12  1  0  0  0  0
  7  3  1  0  0  0  0
  7  5  1  0  0  0  0
  8  3  1  0  0  0  0
  8  9  1  0  0  0  0
 11 10  1  0  0  0  0
 11  9  1  0  0  0  0
 12 14  1  0  0  0  0
 14 13  1  6  0  0  0
 14 15  1  0  0  0  0
 16 17  1  0  0  0  0
 16 23  1  0  0  0  0
 18 17  2  0  0  0  0
 19 16  2  0  0  0  0
 20 24  1  0  0  0  0
 21 19  1  0  0  0  0
 21 20  2  0  0  0  0
 22 15  1  6  0  0  0
 22 18  1  0  0  0  0
 22 19  1  0  0  0  0
 24 23  2  0  0  0  0
 26 25  1  0  0  0  0
 26 33  1  0  0  0  0
 28 27  1  6  0  0  0
 28 29  1  0  0  0  0
 29 34  1  1  0  0  0
 30 32  1  0  0  0  0
 30 33  1  0  0  0  0
 31 29  1  0  0  0  0
 32 31  1  0  0  0  0
 33 28  1  0  0  0  0
 34 36  2  0  0  0  0
 34 35  1  0  0  0  0
 35 38  1  0  0  0  0
 37 40  1  0  0  0  0
 38 37  2  0  0  0  0
 38 42  1  0  0  0  0
 40 39  2  0  0  0  0
 41 39  1  0  0  0  0
 42 41  2  0  0  0  0
M  END
>  <MODEL>
2

>  <REMARK>
 VINA RESULT:      -8.4      3.363      6.093
  Name = 
  12 active torsions:
  status: ('A' for Active; 'I' for Inactive)
    1  A    between atoms: C_7  and  C_8
    2  A    between atoms: N_11  and  C_19
    3  A    between atoms: C_12  and  C_29
    4  A    between atoms: S_15  and  C_29
    5  A    between atoms: S_15  and  C_32
    6  A    between atoms: C_18  and  C_26
    7  A    between atoms: C_18  and  N_35
    8  A    between atoms: S_22  and  C_26
    9  A    between atoms: S_22  and  C_31
   10  A    between atoms: N_30  and  C_40
   11  A    between atoms: C_34  and  C_39
   12  A    between atoms: C_39  and  C_40
                            x       y       z     vdW  Elec       q    Type
                         _______ _______ _______ _____ _____    ______ ____

>  <TORSDO>
F 12

$$$$
=
 OpenBabel10232412043D

 42 47  0  0  1  0  0  0  0  0999 V2000
  184.7690  178.5850  138.7190 C   0  0  2  0  0  3  0  0  0  0  0  0
  183.8840  179.6630  139.2200 C   0  0  1  0  0  3  0  0  0  0  0  0
  182.0930  178.8750  137.7400 C   0  0  0  0  0  0  0  0  0  0  0  0
  182.4930  179.6010  138.7370 N   0  0  0  0  0  0  0  0  0  0  0  0
  184.1260  177.4920  137.8680 C   0  0  1  0  0  3  0  0  0  0  0  0
  184.1770  178.4940  140.0660 N   0  0  0  0  0  0  0  0  0  0  0  0
  182.9970  177.9850  137.1000 N   0  0  0  0  0  2  0  0  0  0  0  0
  180.3810  178.9440  137.2210 S   0  0  0  0  0  0  0  0  0  0  0  0
  180.6090  180.4840  136.2820 C   0  0  0  0  0  2  0  0  0  0  0  0
  181.0020  182.7560  137.1910 C   0  0  0  0  0  1  0  0  0  0  0  0
  179.9820  181.6470  137.0270 C   0  0  0  0  0  2  0  0  0  0  0  0
  185.1920  178.9090  141.0340 C   0  0  0  0  0  2  0  0  0  0  0  0
  183.1570  178.6550  142.5550 C   0  0  0  0  0  1  0  0  0  0  0  0
  184.6600  178.9030  142.4750 C   0  0  1  0  0  3  0  0  0  0  0  0
  185.6060  177.7360  143.5190 S   0  0  0  0  0  0  0  0  0  0  0  0
  186.3780  178.2840  147.0530 C   0  0  0  0  0  0  0  0  0  0  0  0
  185.0590  178.7680  146.9670 N   0  0  0  0  0  0  0  0  0  0  0  0
  184.7890  179.2360  145.6630 N   0  0  0  0  0  0  0  0  0  0  0  0
  186.9710  178.3250  145.8340 C   0  0  0  0  0  0  0  0  0  0  0  0
  188.9670  177.3560  146.7490 C   0  0  0  0  0  3  0  0  0  0  0  0
  188.2780  177.8760  145.6370 C   0  0  0  0  0  3  0  0  0  0  0  0
  186.0000  178.9160  144.8700 C   0  0  1  0  0  3  0  0  0  0  0  0
  187.0140  177.7440  148.1710 C   0  0  0  0  0  3  0  0  0  0  0  0
  188.3330  177.2800  148.0100 C   0  0  0  0  0  3  0  0  0  0  0  0
  185.1540  176.8270  136.9790 C   0  0  0  0  0  2  0  0  0  0  0  0
  186.3740  177.7320  136.9110 C   0  0  0  0  0  2  0  0  0  0  0  0
  188.7520  179.2380  137.5270 C   0  0  0  0  0  1  0  0  0  0  0  0
  188.3780  177.9290  138.2340 C   0  0  2  0  0  3  0  0  0  0  0  0
  189.6580  177.2280  138.7340 C   0  0  2  0  0  3  0  0  0  0  0  0
  188.3410  176.5590  136.2590 C   0  0  0  0  0  2  0  0  0  0  0  0
  189.7610  175.7840  138.2380 C   0  0  0  0  0  2  0  0  0  0  0  0
  189.5240  175.6970  136.7230 C   0  0  0  0  0  2  0  0  0  0  0  0
  187.5570  177.0290  137.4010 N   0  0  0  0  0  0  0  0  0  0  0  0
  189.7150  177.2550  140.2260 C   0  0  0  0  0  0  0  0  0  0  0  0
  190.9900  177.2510  140.8860 N   0  0  0  0  0  2  0  0  0  0  0  0
  188.6410  177.2840  140.8820 O   0  0  0  0  0  0  0  0  0  0  0  0
  191.4370  178.4820  142.9390 C   0  0  0  0  0  3  0  0  0  0  0  0
  191.2310  177.2570  142.2970 C   0  0  0  0  0  0  0  0  0  0  0  0
  191.7390  177.3440  145.0550 C   0  0  0  0  0  3  0  0  0  0  0  0
  191.6880  178.5300  144.3140 C   0  0  0  0  0  3  0  0  0  0  0  0
  191.5440  176.1170  144.4210 C   0  0  0  0  0  3  0  0  0  0  0  0
  191.2950  176.0700  143.0440 C   0  0  0  0  0  3  0  0  0  0  0  0
  1  2  1  0  0  0  0
  1  6  1  1  0  0  0
  2  4  1  6  0  0  0
  2  6  1  0  0  0  0
  3  4  2  0  0  0  0
  5 25  1  6  0  0  0
  5  1  1  0  0  0  0
  6 12  1  0  0  0  0
  7  3  1  0  0  0  0
  7  5  1  0  0  0  0
  8  3  1  0  0  0  0
  9 11  1  0  0  0  0
  9  8  1  0  0  0  0
 11 10  1  0  0  0  0
 12 14  1  0  0  0  0
 14 13  1  6  0  0  0
 14 15  1  0  0  0  0
 16 23  1  0  0  0  0
 17 16  1  0  0  0  0
 18 17  2  0  0  0  0
 19 16  2  0  0  0  0
 20 24  1  0  0  0  0
 21 19  1  0  0  0  0
 21 20  2  0  0  0  0
 22 15  1  6  0  0  0
 22 18  1  0  0  0  0
 22 19  1  0  0  0  0
 24 23  2  0  0  0  0
 26 25  1  0  0  0  0
 26 33  1  0  0  0  0
 28 27  1  6  0  0  0
 28 29  1  0  0  0  0
 29 34  1  1  0  0  0
 30 32  1  0  0  0  0
 30 33  1  0  0  0  0
 31 29  1  0  0  0  0
 32 31  1  0  0  0  0
 33 28  1  0  0  0  0
 34 36  2  0  0  0  0
 34 35  1  0  0  0  0
 35 38  1  0  0  0  0
 37 40  1  0  0  0  0
 38 37  2  0  0  0  0
 38 42  1  0  0  0  0
 40 39  2  0  0  0  0
 41 39  1  0  0  0  0
 42 41  2  0  0  0  0
M  END
>  <MODEL>
3

>  <REMARK>
 VINA RESULT:      -8.3      3.449      5.319
  Name = 
  12 active torsions:
  status: ('A' for Active; 'I' for Inactive)
    1  A    between atoms: C_7  and  C_8
    2  A    between atoms: N_11  and  C_19
    3  A    between atoms: C_12  and  C_29
    4  A    between atoms: S_15  and  C_29
    5  A    between atoms: S_15  and  C_32
    6  A    between atoms: C_18  and  C_26
    7  A    between atoms: C_18  and  N_35
    8  A    between atoms: S_22  and  C_26
    9  A    between atoms: S_22  and  C_31
   10  A    between atoms: N_30  and  C_40
   11  A    between atoms: C_34  and  C_39
   12  A    between atoms: C_39  and  C_40
                            x       y       z     vdW  Elec       q    Type
                         _______ _______ _______ _____ _____    ______ ____

>  <TORSDO>
F 12

$$$$
=
 OpenBabel10232412043D

 42 47  0  0  1  0  0  0  0  0999 V2000
  188.6040  177.3750  138.9350 C   0  0  2  0  0  3  0  0  0  0  0  0
  189.5880  176.3170  139.2630 C   0  0  1  0  0  3  0  0  0  0  0  0
  190.3800  176.3360  136.9410 C   0  0  0  0  0  0  0  0  0  0  0  0
  190.5310  175.9840  138.1800 N   0  0  0  0  0  0  0  0  0  0  0  0
  188.7480  178.0660  137.5800 C   0  0  1  0  0  3  0  0  0  0  0  0
  189.8100  177.6980  139.7190 N   0  0  0  0  0  0  0  0  0  0  0  0
  189.3030  177.1830  136.5680 N   0  0  0  0  0  2  0  0  0  0  0  0
  191.5740  175.8090  135.7160 S   0  0  0  0  0  0  0  0  0  0  0  0
  192.5130  174.7980  136.9010 C   0  0  0  0  0  2  0  0  0  0  0  0
  194.1830  176.3730  135.9650 C   0  0  0  0  0  1  0  0  0  0  0  0
  193.9250  175.3330  137.0390 C   0  0  0  0  0  2  0  0  0  0  0  0
  189.4290  177.7510  141.1300 C   0  0  0  0  0  2  0  0  0  0  0  0
  191.9550  177.4800  141.3750 C   0  0  0  0  0  1  0  0  0  0  0  0
  190.5960  177.3960  142.0630 C   0  0  1  0  0  3  0  0  0  0  0  0
  190.5390  178.3930  143.5960 S   0  0  0  0  0  0  0  0  0  0  0  0
  189.5060  177.2990  146.9310 C   0  0  0  0  0  0  0  0  0  0  0  0
  190.8820  177.0000  146.9420 N   0  0  0  0  0  0  0  0  0  0  0  0
  191.3420  176.7430  145.6330 N   0  0  0  0  0  0  0  0  0  0  0  0
  189.0480  177.3420  145.6550 C   0  0  0  0  0  0  0  0  0  0  0  0
  186.8570  177.9250  146.4400 C   0  0  0  0  0  3  0  0  0  0  0  0
  187.7170  177.6440  145.3630 C   0  0  0  0  0  3  0  0  0  0  0  0
  190.1820  177.0070  144.7480 C   0  0  1  0  0  3  0  0  0  0  0  0
  188.6940  177.6050  148.0230 C   0  0  0  0  0  3  0  0  0  0  0  0
  187.3460  177.9170  147.7660 C   0  0  0  0  0  3  0  0  0  0  0  0
  187.4290  178.6600  137.1360 C   0  0  0  0  0  2  0  0  0  0  0  0
  186.8300  177.7420  136.0830 C   0  0  0  0  0  2  0  0  0  0  0  0
  185.8010  175.2140  137.0100 C   0  0  0  0  0  1  0  0  0  0  0  0
  185.1330  176.5610  137.3190 C   0  0  2  0  0  3  0  0  0  0  0  0
  183.6210  176.3480  137.5380 C   0  0  2  0  0  3  0  0  0  0  0  0
  184.7610  177.2060  135.0340 C   0  0  0  0  0  2  0  0  0  0  0  0
  182.7710  177.2490  136.6380 C   0  0  0  0  0  2  0  0  0  0  0  0
  183.2330  177.1690  135.1750 C   0  0  0  0  0  2  0  0  0  0  0  0
  185.3930  177.5910  136.2950 N   0  0  0  0  0  0  0  0  0  0  0  0
  183.2660  176.5850  138.9690 C   0  0  0  0  0  0  0  0  0  0  0  0
  183.6460  177.8190  139.5970 N   0  0  0  0  0  2  0  0  0  0  0  0
  182.6360  175.6980  139.6020 O   0  0  0  0  0  0  0  0  0  0  0  0
  184.4600  178.1390  141.8710 C   0  0  0  0  0  3  0  0  0  0  0  0
  183.4050  178.2070  140.9540 C   0  0  0  0  0  0  0  0  0  0  0  0
  183.0000  178.9220  143.6370 C   0  0  0  0  0  3  0  0  0  0  0  0
  184.2630  178.4970  143.2080 C   0  0  0  0  0  3  0  0  0  0  0  0
  181.9400  178.9840  142.7310 C   0  0  0  0  0  3  0  0  0  0  0  0
  182.1380  178.6230  141.3940 C   0  0  0  0  0  3  0  0  0  0  0  0
  1  2  1  0  0  0  0
  1  6  1  1  0  0  0
  2  4  1  6  0  0  0
  2  6  1  0  0  0  0
  3  4  2  0  0  0  0
  5 25  1  6  0  0  0
  5  1  1  0  0  0  0
  6 12  1  0  0  0  0
  7  3  1  0  0  0  0
  7  5  1  0  0  0  0
  8  9  1  0  0  0  0
  8  3  1  0  0  0  0
  9 11  1  0  0  0  0
 10 11  1  0  0  0  0
 12 14  1  0  0  0  0
 14 13  1  6  0  0  0
 14 15  1  0  0  0  0
 16 17  1  0  0  0  0
 16 23  1  0  0  0  0
 18 17  2  0  0  0  0
 19 16  2  0  0  0  0
 20 24  1  0  0  0  0
 21 19  1  0  0  0  0
 21 20  2  0  0  0  0
 22 15  1  6  0  0  0
 22 18  1  0  0  0  0
 22 19  1  0  0  0  0
 24 23  2  0  0  0  0
 26 33  1  0  0  0  0
 26 25  1  0  0  0  0
 28 27  1  6  0  0  0
 28 29  1  0  0  0  0
 29 34  1  1  0  0  0
 30 32  1  0  0  0  0
 30 33  1  0  0  0  0
 31 29  1  0  0  0  0
 32 31  1  0  0  0  0
 33 28  1  0  0  0  0
 34 35  1  0  0  0  0
 34 36  2  0  0  0  0
 35 38  1  0  0  0  0
 37 40  1  0  0  0  0
 38 42  1  0  0  0  0
 38 37  2  0  0  0  0
 40 39  2  0  0  0  0
 41 39  1  0  0  0  0
 42 41  2  0  0  0  0
M  END
>  <MODEL>
4

>  <REMARK>
 VINA RESULT:      -8.3      3.039      7.831
  Name = 
  12 active torsions:
  status: ('A' for Active; 'I' for Inactive)
    1  A    between atoms: C_7  and  C_8
    2  A    between atoms: N_11  and  C_19
    3  A    between atoms: C_12  and  C_29
    4  A    between atoms: S_15  and  C_29
    5  A    between atoms: S_15  and  C_32
    6  A    between atoms: C_18  and  C_26
    7  A    between atoms: C_18  and  N_35
    8  A    between atoms: S_22  and  C_26
    9  A    between atoms: S_22  and  C_31
   10  A    between atoms: N_30  and  C_40
   11  A    between atoms: C_34  and  C_39
   12  A    between atoms: C_39  and  C_40
                            x       y       z     vdW  Elec       q    Type
                         _______ _______ _______ _____ _____    ______ ____

>  <TORSDO>
F 12

$$$$
=
 OpenBabel10232412043D

 42 47  0  0  1  0  0  0  0  0999 V2000
  184.8270  178.4650  138.4550 C   0  0  2  0  0  3  0  0  0  0  0  0
  183.7540  179.3360  138.9910 C   0  0  1  0  0  3  0  0  0  0  0  0
  182.1540  178.3180  137.4350 C   0  0  0  0  0  0  0  0  0  0  0  0
  182.4040  179.0500  138.4760 N   0  0  0  0  0  0  0  0  0  0  0  0
  184.4040  177.3210  137.5370 C   0  0  1  0  0  3  0  0  0  0  0  0
  184.2450  178.1970  139.7820 N   0  0  0  0  0  0  0  0  0  0  0  0
  183.2120  177.6420  136.7700 N   0  0  0  0  0  2  0  0  0  0  0  0
  180.4640  178.1040  136.8840 S   0  0  0  0  0  0  0  0  0  0  0  0
  180.3820  176.3750  137.4390 C   0  0  0  0  0  2  0  0  0  0  0  0
  181.3090  175.6380  139.6170 C   0  0  0  0  0  1  0  0  0  0  0  0
  180.1380  176.3190  138.9350 C   0  0  0  0  0  2  0  0  0  0  0  0
  185.1570  178.7360  140.7920 C   0  0  0  0  0  2  0  0  0  0  0  0
  183.4210  178.1500  142.5690 C   0  0  0  0  0  1  0  0  0  0  0  0
  184.4200  179.1850  142.0620 C   0  0  1  0  0  3  0  0  0  0  0  0
  185.6020  179.6940  143.3630 S   0  0  0  0  0  0  0  0  0  0  0  0
  187.5770  177.5070  145.5310 C   0  0  0  0  0  0  0  0  0  0  0  0
  187.9160  177.0280  144.2520 N   0  0  0  0  0  0  0  0  0  0  0  0
  186.8620  177.2590  143.3420 N   0  0  0  0  0  0  0  0  0  0  0  0
  186.3740  178.1330  145.4920 C   0  0  0  0  0  0  0  0  0  0  0  0
  186.5530  178.6670  147.8240 C   0  0  0  0  0  3  0  0  0  0  0  0
  185.8160  178.7230  146.6270 C   0  0  0  0  0  3  0  0  0  0  0  0
  185.8480  178.0300  144.1010 C   0  0  1  0  0  3  0  0  0  0  0  0
  188.3530  177.4610  146.6890 C   0  0  0  0  0  3  0  0  0  0  0  0
  187.8230  178.0470  147.8530 C   0  0  0  0  0  3  0  0  0  0  0  0
  185.5460  176.9010  136.6360 C   0  0  0  0  0  2  0  0  0  0  0  0
  186.6920  177.8770  136.8450 C   0  0  0  0  0  2  0  0  0  0  0  0
  189.0020  179.4070  137.6410 C   0  0  0  0  0  1  0  0  0  0  0  0
  188.6260  178.0590  138.2710 C   0  0  2  0  0  3  0  0  0  0  0  0
  189.8970  177.3660  138.8030 C   0  0  2  0  0  3  0  0  0  0  0  0
  188.7160  176.7780  136.2400 C   0  0  0  0  0  2  0  0  0  0  0  0
  190.0580  175.9470  138.2510 C   0  0  0  0  0  2  0  0  0  0  0  0
  189.8950  175.9230  136.7230 C   0  0  0  0  0  2  0  0  0  0  0  0
  187.8670  177.1800  137.3610 N   0  0  0  0  0  0  0  0  0  0  0  0
  189.8810  177.3280  140.2960 C   0  0  0  0  0  0  0  0  0  0  0  0
  191.1170  177.4290  141.0180 N   0  0  0  0  0  2  0  0  0  0  0  0
  188.7820  177.2090  140.8970 O   0  0  0  0  0  0  0  0  0  0  0  0
  191.4330  176.1540  143.0700 C   0  0  0  0  0  3  0  0  0  0  0  0
  191.2920  177.3950  142.4390 C   0  0  0  0  0  0  0  0  0  0  0  0
  191.6080  177.2480  145.2230 C   0  0  0  0  0  3  0  0  0  0  0  0
  191.5930  176.0770  144.4570 C   0  0  0  0  0  3  0  0  0  0  0  0
  191.4580  178.4890  144.6030 C   0  0  0  0  0  3  0  0  0  0  0  0
  191.2950  178.5650  143.2150 C   0  0  0  0  0  3  0  0  0  0  0  0
  1  2  1  0  0  0  0
  1  6  1  1  0  0  0
  2  4  1  6  0  0  0
  2  6  1  0  0  0  0
  3  4  2  0  0  0  0
  5 25  1  6  0  0  0
  5  1  1  0  0  0  0
  6 12  1  0  0  0  0
  7  3  1  0  0  0  0
  7  5  1  0  0  0  0
  8  3  1  0  0  0  0
  8  9  1  0  0  0  0
  9 11  1  0  0  0  0
 11 10  1  0  0  0  0
 12 14  1  0  0  0  0
 14 13  1  1  0  0  0
 14 15  1  0  0  0  0
 16 23  1  0  0  0  0
 17 16  1  0  0  0  0
 18 22  1  0  0  0  0
 18 17  2  0  0  0  0
 19 16  2  0  0  0  0
 19 21  1  0  0  0  0
 20 24  1  0  0  0  0
 21 20  2  0  0  0  0
 22 15  1  6  0  0  0
 22 19  1  0  0  0  0
 23 24  2  0  0  0  0
 25 26  1  0  0  0  0
 26 33  1  0  0  0  0
 28 27  1  6  0  0  0
 28 29  1  0  0  0  0
 29 34  1  1  0  0  0
 30 32  1  0  0  0  0
 30 33  1  0  0  0  0
 31 29  1  0  0  0  0
 32 31  1  0  0  0  0
 33 28  1  0  0  0  0
 34 36  2  0  0  0  0
 34 35  1  0  0  0  0
 35 38  1  0  0  0  0
 37 40  1  0  0  0  0
 38 37  2  0  0  0  0
 38 42  1  0  0  0  0
 40 39  2  0  0  0  0
 41 39  1  0  0  0  0
 42 41  2  0  0  0  0
M  END
>  <MODEL>
5

>  <REMARK>
 VINA RESULT:      -8.1      3.325      5.215
  Name = 
  12 active torsions:
  status: ('A' for Active; 'I' for Inactive)
    1  A    between atoms: C_7  and  C_8
    2  A    between atoms: N_11  and  C_19
    3  A    between atoms: C_12  and  C_29
    4  A    between atoms: S_15  and  C_29
    5  A    between atoms: S_15  and  C_32
    6  A    between atoms: C_18  and  C_26
    7  A    between atoms: C_18  and  N_35
    8  A    between atoms: S_22  and  C_26
    9  A    between atoms: S_22  and  C_31
   10  A    between atoms: N_30  and  C_40
   11  A    between atoms: C_34  and  C_39
   12  A    between atoms: C_39  and  C_40
                            x       y       z     vdW  Elec       q    Type
                         _______ _______ _______ _____ _____    ______ ____

>  <TORSDO>
F 12

$$$$
=
 OpenBabel10232412043D

 42 47  0  0  1  0  0  0  0  0999 V2000
  189.2770  177.8590  138.9860 C   0  0  2  0  0  3  0  0  0  0  0  0
  189.6880  177.7760  137.5650 C   0  0  1  0  0  3  0  0  0  0  0  0
  191.6640  176.4770  138.2140 C   0  0  0  0  0  0  0  0  0  0  0  0
  190.8530  176.9140  137.3020 N   0  0  0  0  0  0  0  0  0  0  0  0
  190.0220  176.9710  139.9810 C   0  0  1  0  0  3  0  0  0  0  0  0
  188.5610  176.9670  138.0570 N   0  0  0  0  0  0  0  0  0  0  0  0
  191.4000  176.7370  139.5850 N   0  0  0  0  0  2  0  0  0  0  0  0
  193.0790  175.4860  137.7440 S   0  0  0  0  0  0  0  0  0  0  0  0
  192.3230  174.9420  136.1820 C   0  0  0  0  0  2  0  0  0  0  0  0
  190.3270  173.4910  135.9480 C   0  0  0  0  0  1  0  0  0  0  0  0
  191.7960  173.5270  136.3240 C   0  0  0  0  0  2  0  0  0  0  0  0
  187.3320  177.6420  137.6390 C   0  0  0  0  0  2  0  0  0  0  0  0
  186.5000  175.2610  137.2470 C   0  0  0  0  0  1  0  0  0  0  0  0
  186.4100  176.7240  136.8230 C   0  0  1  0  0  3  0  0  0  0  0  0
  184.6880  177.3410  136.8390 S   0  0  0  0  0  0  0  0  0  0  0  0
  182.8430  178.8710  139.6030 C   0  0  0  0  0  0  0  0  0  0  0  0
  183.7110  179.9130  139.2230 N   0  0  0  0  0  0  0  0  0  0  0  0
  184.8900  179.3890  138.6500 N   0  0  0  0  0  0  0  0  0  0  0  0
  183.3560  177.6740  139.2230 C   0  0  0  0  0  0  0  0  0  0  0  0
  181.4240  176.5480  140.0930 C   0  0  0  0  0  3  0  0  0  0  0  0
  182.6780  176.4770  139.4590 C   0  0  0  0  0  3  0  0  0  0  0  0
  184.6780  177.9230  138.5810 C   0  0  1  0  0  3  0  0  0  0  0  0
  181.5890  178.9860  140.2030 C   0  0  0  0  0  3  0  0  0  0  0  0
  180.8760  177.7990  140.4540 C   0  0  0  0  0  3  0  0  0  0  0  0
  189.9350  177.5390  141.3810 C   0  0  0  0  0  2  0  0  0  0  0  0
  191.0800  176.9590  142.1950 C   0  0  0  0  0  2  0  0  0  0  0  0
  190.8170  179.2630  143.9080 C   0  0  0  0  0  1  0  0  0  0  0  0
  189.9910  177.9810  144.0860 C   0  0  2  0  0  3  0  0  0  0  0  0
  189.5830  177.8320  145.5660 C   0  0  2  0  0  3  0  0  0  0  0  0
  191.8580  176.5000  144.3990 C   0  0  0  0  0  2  0  0  0  0  0  0
  189.9920  176.4760  146.1460 C   0  0  0  0  0  2  0  0  0  0  0  0
  191.4650  176.1620  145.8440 C   0  0  0  0  0  2  0  0  0  0  0  0
  190.6730  176.7720  143.5850 N   0  0  0  0  0  0  0  0  0  0  0  0
  188.1100  178.0230  145.7200 C   0  0  0  0  0  0  0  0  0  0  0  0
  187.2870  178.1530  144.5510 N   0  0  0  0  0  2  0  0  0  0  0  0
  187.6120  178.0650  146.8750 O   0  0  0  0  0  0  0  0  0  0  0  0
  185.2260  178.3600  143.2690 C   0  0  0  0  0  3  0  0  0  0  0  0
  185.8710  178.3570  144.5100 C   0  0  0  0  0  0  0  0  0  0  0  0
  183.1010  178.7800  144.3520 C   0  0  0  0  0  3  0  0  0  0  0  0
  183.8460  178.5680  143.1860 C   0  0  0  0  0  3  0  0  0  0  0  0
  183.7380  178.7890  145.5940 C   0  0  0  0  0  3  0  0  0  0  0  0
  185.1200  178.5830  145.6750 C   0  0  0  0  0  3  0  0  0  0  0  0
  1  6  1  6  0  0  0
  1  5  1  0  0  0  0
  2  4  1  1  0  0  0
  2  6  1  0  0  0  0
  2  1  1  0  0  0  0
  3  7  1  0  0  0  0
  4  3  2  0  0  0  0
  5 25  1  1  0  0  0
  7  5  1  0  0  0  0
  8  3  1  0  0  0  0
  9 11  1  0  0  0  0
  9  8  1  0  0  0  0
 10 11  1  0  0  0  0
 12  6  1  0  0  0  0
 14 15  1  0  0  0  0
 14 13  1  1  0  0  0
 14 12  1  0  0  0  0
 16 23  1  0  0  0  0
 17 16  1  0  0  0  0
 18 17  2  0  0  0  0
 19 21  1  0  0  0  0
 19 16  2  0  0  0  0
 20 24  1  0  0  0  0
 21 20  2  0  0  0  0
 22 15  1  6  0  0  0
 22 18  1  0  0  0  0
 22 19  1  0  0  0  0
 23 24  2  0  0  0  0
 25 26  1  0  0  0  0
 26 33  1  0  0  0  0
 28 27  1  1  0  0  0
 28 29  1  0  0  0  0
 29 34  1  6  0  0  0
 29 31  1  0  0  0  0
 30 32  1  0  0  0  0
 32 31  1  0  0  0  0
 33 28  1  0  0  0  0
 33 30  1  0  0  0  0
 34 36  2  0  0  0  0
 35 34  1  0  0  0  0
 37 38  1  0  0  0  0
 38 35  1  0  0  0  0
 38 42  2  0  0  0  0
 39 41  2  0  0  0  0
 40 37  2  0  0  0  0
 40 39  1  0  0  0  0
 41 42  1  0  0  0  0
M  END
>  <MODEL>
6

>  <REMARK>
 VINA RESULT:      -8.0      3.289      9.514
  Name = 
  12 active torsions:
  status: ('A' for Active; 'I' for Inactive)
    1  A    between atoms: C_7  and  C_8
    2  A    between atoms: N_11  and  C_19
    3  A    between atoms: C_12  and  C_29
    4  A    between atoms: S_15  and  C_29
    5  A    between atoms: S_15  and  C_32
    6  A    between atoms: C_18  and  C_26
    7  A    between atoms: C_18  and  N_35
    8  A    between atoms: S_22  and  C_26
    9  A    between atoms: S_22  and  C_31
   10  A    between atoms: N_30  and  C_40
   11  A    between atoms: C_34  and  C_39
   12  A    between atoms: C_39  and  C_40
                            x       y       z     vdW  Elec       q    Type
                         _______ _______ _______ _____ _____    ______ ____

>  <TORSDO>
F 12

$$$$
=
 OpenBabel10232412043D

 42 47  0  0  1  0  0  0  0  0999 V2000
  189.2720  177.3770  139.0890 C   0  0  2  0  0  3  0  0  0  0  0  0
  188.3680  178.4640  139.5320 C   0  0  1  0  0  3  0  0  0  0  0  0
  186.6240  177.6240  138.0250 C   0  0  0  0  0  0  0  0  0  0  0  0
  186.9920  178.3810  139.0110 N   0  0  0  0  0  0  0  0  0  0  0  0
  188.6590  176.2560  138.2530 C   0  0  1  0  0  3  0  0  0  0  0  0
  188.6420  177.3230  140.4200 N   0  0  0  0  0  0  0  0  0  0  0  0
  187.5500  176.7210  137.4380 N   0  0  0  0  0  2  0  0  0  0  0  0
  184.9280  177.6690  137.4550 S   0  0  0  0  0  0  0  0  0  0  0  0
  184.3480  178.6100  138.8990 C   0  0  0  0  0  2  0  0  0  0  0  0
  182.7420  176.9900  139.8700 C   0  0  0  0  0  1  0  0  0  0  0  0
  182.8810  178.3200  139.1550 C   0  0  0  0  0  2  0  0  0  0  0  0
  189.6270  177.7720  141.4050 C   0  0  0  0  0  2  0  0  0  0  0  0
  191.2710  177.0100  143.2020 C   0  0  0  0  0  1  0  0  0  0  0  0
  190.0580  176.6440  142.3540 C   0  0  1  0  0  3  0  0  0  0  0  0
  188.6520  176.0720  143.3750 S   0  0  0  0  0  0  0  0  0  0  0  0
  187.0850  178.0240  146.0430 C   0  0  0  0  0  0  0  0  0  0  0  0
  186.1280  178.1210  145.0150 N   0  0  0  0  0  0  0  0  0  0  0  0
  186.7490  178.0090  143.7510 N   0  0  0  0  0  0  0  0  0  0  0  0
  188.3080  177.7590  145.5200 C   0  0  0  0  0  0  0  0  0  0  0  0
  189.2560  177.6830  147.7230 C   0  0  0  0  0  3  0  0  0  0  0  0
  189.4320  177.5890  146.3300 C   0  0  0  0  0  3  0  0  0  0  0  0
  188.1750  177.7170  144.0360 C   0  0  1  0  0  3  0  0  0  0  0  0
  186.8630  178.0900  147.4180 C   0  0  0  0  0  3  0  0  0  0  0  0
  187.9730  177.9210  148.2660 C   0  0  0  0  0  3  0  0  0  0  0  0
  189.7150  175.5700  137.4140 C   0  0  0  0  0  2  0  0  0  0  0  0
  190.9690  175.4250  138.2610 C   0  0  0  0  0  2  0  0  0  0  0  0
  193.1300  176.2780  136.5550 C   0  0  0  0  0  1  0  0  0  0  0  0
  193.1880  175.0110  137.4190 C   0  0  2  0  0  3  0  0  0  0  0  0
  194.1430  173.9870  136.7710 C   0  0  2  0  0  3  0  0  0  0  0  0
  191.2800  173.9280  136.4360 C   0  0  0  0  0  2  0  0  0  0  0  0
  193.4770  172.6260  136.5590 C   0  0  0  0  0  2  0  0  0  0  0  0
  192.1150  172.7740  135.8630 C   0  0  0  0  0  2  0  0  0  0  0  0
  191.8610  174.4230  137.6840 N   0  0  0  0  0  0  0  0  0  0  0  0
  195.3710  173.8240  137.6040 C   0  0  0  0  0  0  0  0  0  0  0  0
  196.5300  174.6210  137.3190 N   0  0  0  0  0  2  0  0  0  0  0  0
  195.3690  172.9900  138.5470 O   0  0  0  0  0  0  0  0  0  0  0  0
  197.8590  175.0530  139.3150 C   0  0  0  0  0  3  0  0  0  0  0  0
  197.7900  174.5860  137.9980 C   0  0  0  0  0  0  0  0  0  0  0  0
  200.2310  174.5750  139.3820 C   0  0  0  0  0  3  0  0  0  0  0  0
  199.0730  175.0470  140.0080 C   0  0  0  0  0  3  0  0  0  0  0  0
  200.1740  174.1160  138.0650 C   0  0  0  0  0  3  0  0  0  0  0  0
  198.9590  174.1250  137.3710 C   0  0  0  0  0  3  0  0  0  0  0  0
  1  2  1  0  0  0  0
  1  6  1  1  0  0  0
  2  4  1  6  0  0  0
  2  6  1  0  0  0  0
  3  4  2  0  0  0  0
  5 25  1  6  0  0  0
  5  1  1  0  0  0  0
  6 12  1  0  0  0  0
  7  3  1  0  0  0  0
  7  5  1  0  0  0  0
  8  3  1  0  0  0  0
  8  9  1  0  0  0  0
  9 11  1  0  0  0  0
 11 10  1  0  0  0  0
 12 14  1  0  0  0  0
 14 13  1  1  0  0  0
 14 15  1  0  0  0  0
 16 23  1  0  0  0  0
 17 16  1  0  0  0  0
 18 22  1  0  0  0  0
 18 17  2  0  0  0  0
 19 16  2  0  0  0  0
 19 21  1  0  0  0  0
 20 24  1  0  0  0  0
 21 20  2  0  0  0  0
 22 15  1  1  0  0  0
 22 19  1  0  0  0  0
 23 24  2  0  0  0  0
 25 26  1  0  0  0  0
 28 27  1  6  0  0  0
 28 33  1  0  0  0  0
 29 28  1  0  0  0  0
 29 34  1  1  0  0  0
 30 33  1  0  0  0  0
 31 29  1  0  0  0  0
 32 30  1  0  0  0  0
 32 31  1  0  0  0  0
 33 26  1  0  0  0  0
 34 36  2  0  0  0  0
 35 34  1  0  0  0  0
 35 38  1  0  0  0  0
 37 40  1  0  0  0  0
 38 37  2  0  0  0  0
 39 40  2  0  0  0  0
 41 39  1  0  0  0  0
 42 38  1  0  0  0  0
 42 41  2  0  0  0  0
M  END
>  <MODEL>
7

>  <REMARK>
 VINA RESULT:      -7.9      2.161      3.080
  Name = 
  12 active torsions:
  status: ('A' for Active; 'I' for Inactive)
    1  A    between atoms: C_7  and  C_8
    2  A    between atoms: N_11  and  C_19
    3  A    between atoms: C_12  and  C_29
    4  A    between atoms: S_15  and  C_29
    5  A    between atoms: S_15  and  C_32
    6  A    between atoms: C_18  and  C_26
    7  A    between atoms: C_18  and  N_35
    8  A    between atoms: S_22  and  C_26
    9  A    between atoms: S_22  and  C_31
   10  A    between atoms: N_30  and  C_40
   11  A    between atoms: C_34  and  C_39
   12  A    between atoms: C_39  and  C_40
                            x       y       z     vdW  Elec       q    Type
                         _______ _______ _______ _____ _____    ______ ____

>  <TORSDO>
F 12

$$$$
=
 OpenBabel10232412043D

 42 47  0  0  1  0  0  0  0  0999 V2000
  189.4880  177.6260  138.9830 C   0  0  2  0  0  3  0  0  0  0  0  0
  188.5580  178.5360  139.6920 C   0  0  1  0  0  3  0  0  0  0  0  0
  186.7270  177.7940  138.2380 C   0  0  0  0  0  0  0  0  0  0  0  0
  187.1430  178.4110  139.3000 N   0  0  0  0  0  0  0  0  0  0  0  0
  188.8730  176.6040  138.0290 C   0  0  1  0  0  3  0  0  0  0  0  0
  189.0140  177.2950  140.3390 N   0  0  0  0  0  0  0  0  0  0  0  0
  187.6480  177.0900  137.4170 N   0  0  0  0  0  2  0  0  0  0  0  0
  184.9790  177.7730  137.8510 S   0  0  0  0  0  0  0  0  0  0  0  0
  184.5170  178.6740  139.3610 C   0  0  0  0  0  2  0  0  0  0  0  0
  182.2330  179.5570  138.9770 C   0  0  0  0  0  1  0  0  0  0  0  0
  183.7080  179.9070  139.0060 C   0  0  0  0  0  2  0  0  0  0  0  0
  190.0660  177.6670  141.2870 C   0  0  0  0  0  2  0  0  0  0  0  0
  191.5800  176.8550  143.1740 C   0  0  0  0  0  1  0  0  0  0  0  0
  190.4170  176.5200  142.2470 C   0  0  1  0  0  3  0  0  0  0  0  0
  188.9390  175.9620  143.1710 S   0  0  0  0  0  0  0  0  0  0  0  0
  187.1690  177.9460  145.6840 C   0  0  0  0  0  0  0  0  0  0  0  0
  186.3020  178.0410  144.5790 N   0  0  0  0  0  0  0  0  0  0  0  0
  187.0250  177.9150  143.3730 N   0  0  0  0  0  0  0  0  0  0  0  0
  188.4300  177.6700  145.2670 C   0  0  0  0  0  0  0  0  0  0  0  0
  189.1900  177.6050  147.5420 C   0  0  0  0  0  3  0  0  0  0  0  0
  189.4810  177.4990  146.1700 C   0  0  0  0  0  3  0  0  0  0  0  0
  188.4200  177.6160  143.7780 C   0  0  1  0  0  3  0  0  0  0  0  0
  186.8340  178.0240  147.0360 C   0  0  0  0  0  3  0  0  0  0  0  0
  187.8680  177.8550  147.9750 C   0  0  0  0  0  3  0  0  0  0  0  0
  189.8780  176.1670  136.9860 C   0  0  0  0  0  2  0  0  0  0  0  0
  190.7010  175.0320  137.5730 C   0  0  0  0  0  2  0  0  0  0  0  0
  193.1060  176.3110  138.5150 C   0  0  0  0  0  1  0  0  0  0  0  0
  193.1060  175.0000  137.7170 C   0  0  2  0  0  3  0  0  0  0  0  0
  194.4350  174.8650  136.9460 C   0  0  2  0  0  3  0  0  0  0  0  0
  192.0060  175.8730  135.7670 C   0  0  0  0  0  2  0  0  0  0  0  0
  194.2170  174.6300  135.4500 C   0  0  0  0  0  2  0  0  0  0  0  0
  193.2270  175.6490  134.8640 C   0  0  0  0  0  2  0  0  0  0  0  0
  191.9420  174.8610  136.8210 N   0  0  0  0  0  0  0  0  0  0  0  0
  195.2560  173.7560  137.5170 C   0  0  0  0  0  0  0  0  0  0  0  0
  195.7430  172.7190  136.6520 N   0  0  0  0  0  2  0  0  0  0  0  0
  195.5100  173.7500  138.7500 O   0  0  0  0  0  0  0  0  0  0  0  0
  197.9200  171.6790  136.9930 C   0  0  0  0  0  3  0  0  0  0  0  0
  196.5250  171.5790  137.0270 C   0  0  0  0  0  0  0  0  0  0  0  0
  198.1200  169.3780  137.7200 C   0  0  0  0  0  3  0  0  0  0  0  0
  198.7180  170.5850  137.3400 C   0  0  0  0  0  3  0  0  0  0  0  0
  196.7290  169.2670  137.7470 C   0  0  0  0  0  3  0  0  0  0  0  0
  195.9310  170.3620  137.3980 C   0  0  0  0  0  3  0  0  0  0  0  0
  1  2  1  0  0  0  0
  1  6  1  1  0  0  0
  2  4  1  6  0  0  0
  2  6  1  0  0  0  0
  3  4  2  0  0  0  0
  5 25  1  6  0  0  0
  5  1  1  0  0  0  0
  6 12  1  0  0  0  0
  7  5  1  0  0  0  0
  7  3  1  0  0  0  0
  8  3  1  0  0  0  0
  8  9  1  0  0  0  0
 10 11  1  0  0  0  0
 11  9  1  0  0  0  0
 12 14  1  0  0  0  0
 14 15  1  0  0  0  0
 14 13  1  1  0  0  0
 16 23  1  0  0  0  0
 17 16  1  0  0  0  0
 18 22  1  0  0  0  0
 18 17  2  0  0  0  0
 19 16  2  0  0  0  0
 19 21  1  0  0  0  0
 20 24  1  0  0  0  0
 21 20  2  0  0  0  0
 22 15  1  1  0  0  0
 22 19  1  0  0  0  0
 23 24  2  0  0  0  0
 25 26  1  0  0  0  0
 28 27  1  6  0  0  0
 29 34  1  1  0  0  0
 29 28  1  0  0  0  0
 30 33  1  0  0  0  0
 31 29  1  0  0  0  0
 32 31  1  0  0  0  0
 32 30  1  0  0  0  0
 33 26  1  0  0  0  0
 33 28  1  0  0  0  0
 34 36  2  0  0  0  0
 35 38  1  0  0  0  0
 35 34  1  0  0  0  0
 37 38  2  0  0  0  0
 37 40  1  0  0  0  0
 38 42  1  0  0  0  0
 39 41  1  0  0  0  0
 40 39  2  0  0  0  0
 42 41  2  0  0  0  0
M  END
>  <MODEL>
8

>  <REMARK>
 VINA RESULT:      -7.7      2.384      3.342
  Name = 
  12 active torsions:
  status: ('A' for Active; 'I' for Inactive)
    1  A    between atoms: C_7  and  C_8
    2  A    between atoms: N_11  and  C_19
    3  A    between atoms: C_12  and  C_29
    4  A    between atoms: S_15  and  C_29
    5  A    between atoms: S_15  and  C_32
    6  A    between atoms: C_18  and  C_26
    7  A    between atoms: C_18  and  N_35
    8  A    between atoms: S_22  and  C_26
    9  A    between atoms: S_22  and  C_31
   10  A    between atoms: N_30  and  C_40
   11  A    between atoms: C_34  and  C_39
   12  A    between atoms: C_39  and  C_40
                            x       y       z     vdW  Elec       q    Type
                         _______ _______ _______ _____ _____    ______ ____

>  <TORSDO>
F 12

$$$$
=
 OpenBabel10232412043D

 42 47  0  0  1  0  0  0  0  0999 V2000
  190.4790  177.0760  138.4440 C   0  0  2  0  0  3  0  0  0  0  0  0
  190.3390  176.8410  136.9880 C   0  0  1  0  0  3  0  0  0  0  0  0
  192.6680  176.0760  136.8910 C   0  0  0  0  0  0  0  0  0  0  0  0
  191.4960  176.1900  136.3480 N   0  0  0  0  0  0  0  0  0  0  0  0
  191.7320  176.5260  139.1240 C   0  0  1  0  0  3  0  0  0  0  0  0
  189.7090  175.9220  137.9490 N   0  0  0  0  0  0  0  0  0  0  0  0
  192.8770  176.5020  138.2300 N   0  0  0  0  0  2  0  0  0  0  0  0
  194.0020  175.3130  135.9720 S   0  0  0  0  0  0  0  0  0  0  0  0
  194.8550  174.7340  137.4700 C   0  0  0  0  0  2  0  0  0  0  0  0
  196.8550  173.2930  137.7290 C   0  0  0  0  0  1  0  0  0  0  0  0
  196.3450  174.6230  137.2110 C   0  0  0  0  0  2  0  0  0  0  0  0
  188.2890  176.2680  138.0070 C   0  0  0  0  0  2  0  0  0  0  0  0
  186.9090  175.8570  135.8990 C   0  0  0  0  0  1  0  0  0  0  0  0
  187.7740  176.8420  136.6780 C   0  0  1  0  0  3  0  0  0  0  0  0
  186.9290  178.4440  136.9390 S   0  0  0  0  0  0  0  0  0  0  0  0
  183.9150  178.9300  138.9550 C   0  0  0  0  0  0  0  0  0  0  0  0
  184.9170  179.4250  139.8100 N   0  0  0  0  0  0  0  0  0  0  0  0
  186.1500  178.7910  139.5450 N   0  0  0  0  0  0  0  0  0  0  0  0
  184.4490  178.0560  138.0660 C   0  0  0  0  0  0  0  0  0  0  0  0
  182.3030  177.7630  137.0330 C   0  0  0  0  0  3  0  0  0  0  0  0
  183.6710  177.4370  137.0850 C   0  0  0  0  0  3  0  0  0  0  0  0
  185.9020  177.9210  138.3700 C   0  0  1  0  0  3  0  0  0  0  0  0
  182.5720  179.3040  138.9130 C   0  0  0  0  0  3  0  0  0  0  0  0
  181.7570  178.7020  137.9370 C   0  0  0  0  0  3  0  0  0  0  0  0
  192.0360  177.2900  140.3940 C   0  0  0  0  0  2  0  0  0  0  0  0
  190.7170  177.7510  140.9930 C   0  0  0  0  0  2  0  0  0  0  0  0
  190.8270  179.4050  143.3510 C   0  0  0  0  0  1  0  0  0  0  0  0
  189.9740  178.1330  143.2530 C   0  0  2  0  0  3  0  0  0  0  0  0
  189.7840  177.5300  144.6600 C   0  0  2  0  0  3  0  0  0  0  0  0
  191.7900  176.6270  142.7970 C   0  0  0  0  0  2  0  0  0  0  0  0
  190.2070  176.0600  144.7230 C   0  0  0  0  0  2  0  0  0  0  0  0
  191.6020  175.8550  144.1110 C   0  0  0  0  0  2  0  0  0  0  0  0
  190.5130  177.1400  142.3040 N   0  0  0  0  0  0  0  0  0  0  0  0
  188.3620  177.6650  145.0950 C   0  0  0  0  0  0  0  0  0  0  0  0
  187.3830  178.1600  144.1690 N   0  0  0  0  0  2  0  0  0  0  0  0
  188.0440  177.3410  146.2680 O   0  0  0  0  0  0  0  0  0  0  0  0
  185.1090  178.4000  143.3300 C   0  0  0  0  0  3  0  0  0  0  0  0
  185.9880  178.3690  144.4160 C   0  0  0  0  0  0  0  0  0  0  0  0
  183.2470  178.8030  144.8240 C   0  0  0  0  0  3  0  0  0  0  0  0
  183.7410  178.6130  143.5290 C   0  0  0  0  0  3  0  0  0  0  0  0
  184.1190  178.7830  145.9130 C   0  0  0  0  0  3  0  0  0  0  0  0
  185.4870  178.5720  145.7130 C   0  0  0  0  0  3  0  0  0  0  0  0
  1  6  1  1  0  0  0
  1  5  1  0  0  0  0
  2  4  1  1  0  0  0
  2  6  1  0  0  0  0
  2  1  1  0  0  0  0
  3  7  1  0  0  0  0
  4  3  2  0  0  0  0
  5 25  1  1  0  0  0
  6 12  1  0  0  0  0
  7  5  1  0  0  0  0
  8  3  1  0  0  0  0
  8  9  1  0  0  0  0
 11  9  1  0  0  0  0
 11 10  1  0  0  0  0
 14 13  1  1  0  0  0
 14 15  1  0  0  0  0
 14 12  1  0  0  0  0
 16 17  1  0  0  0  0
 18 17  2  0  0  0  0
 19 22  1  0  0  0  0
 19 16  2  0  0  0  0
 20 21  2  0  0  0  0
 20 24  1  0  0  0  0
 21 19  1  0  0  0  0
 22 15  1  6  0  0  0
 22 18  1  0  0  0  0
 23 16  1  0  0  0  0
 24 23  2  0  0  0  0
 25 26  1  0  0  0  0
 26 33  1  0  0  0  0
 28 27  1  1  0  0  0
 28 29  1  0  0  0  0
 29 31  1  0  0  0  0
 29 34  1  6  0  0  0
 30 32  1  0  0  0  0
 32 31  1  0  0  0  0
 33 30  1  0  0  0  0
 33 28  1  0  0  0  0
 34 36  2  0  0  0  0
 35 38  1  0  0  0  0
 35 34  1  0  0  0  0
 37 40  2  0  0  0  0
 37 38  1  0  0  0  0
 38 42  2  0  0  0  0
 39 41  2  0  0  0  0
 40 39  1  0  0  0  0
 42 41  1  0  0  0  0
M  END
>  <MODEL>
9

>  <REMARK>
 VINA RESULT:      -7.6      3.152      9.754
  Name = 
  12 active torsions:
  status: ('A' for Active; 'I' for Inactive)
    1  A    between atoms: C_7  and  C_8
    2  A    between atoms: N_11  and  C_19
    3  A    between atoms: C_12  and  C_29
    4  A    between atoms: S_15  and  C_29
    5  A    between atoms: S_15  and  C_32
    6  A    between atoms: C_18  and  C_26
    7  A    between atoms: C_18  and  N_35
    8  A    between atoms: S_22  and  C_26
    9  A    between atoms: S_22  and  C_31
   10  A    between atoms: N_30  and  C_40
   11  A    between atoms: C_34  and  C_39
   12  A    between atoms: C_39  and  C_40
                            x       y       z     vdW  Elec       q    Type
                         _______ _______ _______ _____ _____    ______ ____

>  <TORSDO>
F 12

$$$$
