=
 OpenBabel10232408163D

 32 36  0  0  1  0  0  0  0  0999 V2000
  190.4640  178.0680  144.3840 C   0  0  0  0  0  2  0  0  0  0  0  0
  190.2830  177.5070  141.8890 C   0  0  2  0  0  3  0  0  0  0  0  0
  188.7470  176.4110  143.5270 C   0  0  0  0  0  2  0  0  0  0  0  0
  190.7690  178.5080  142.9500 C   0  0  0  0  0  2  0  0  0  0  0  0
  189.1290  177.4710  144.4690 N   0  0  0  0  0  0  0  0  0  0  0  0
  189.8320  176.1710  142.4790 C   0  0  0  0  0  2  0  0  0  0  0  0
  186.9020  178.1030  145.3950 C   0  0  0  0  0  0  0  0  0  0  0  0
  186.3110  178.0980  144.0820 N   0  0  0  0  0  0  0  0  0  0  0  0
  188.4970  178.0020  149.2370 F   0  0  0  0  0  0  0  0  0  0  0  0
  186.0970  178.4060  146.5140 C   0  0  0  0  0  0  0  0  0  0  0  0
  188.7820  177.7410  146.8860 C   0  0  0  0  0  3  0  0  0  0  0  0
  184.1760  178.7280  145.0020 C   0  0  0  0  0  0  0  0  0  0  0  0
  184.5150  178.3570  142.4710 C   0  0  0  0  0  2  0  0  0  0  0  0
  182.9280  179.0210  144.8040 N   0  0  0  0  0  0  0  0  0  0  0  0
  186.6350  178.3740  147.8000 C   0  0  0  0  0  3  0  0  0  0  0  0
  182.3420  179.0310  143.4930 C   0  0  0  0  0  3  0  0  0  0  0  0
  185.0600  178.3830  143.8690 C   0  0  0  0  0  0  0  0  0  0  0  0
  188.2650  177.7760  145.5800 C   0  0  0  0  0  0  0  0  0  0  0  0
  184.7180  178.7300  146.3240 N   0  0  0  0  0  2  0  0  0  0  0  0
  187.9760  178.0390  147.9870 C   0  0  0  0  0  0  0  0  0  0  0  0
  183.0580  178.7290  142.4060 C   0  0  0  0  0  3  0  0  0  0  0  0
  192.2770  176.7070  138.9580 N   0  0  0  0  0  0  0  0  0  0  0  0
  193.2290  177.2540  139.7360 C   0  0  0  0  0  3  0  0  0  0  0  0
  191.1060  176.7150  139.6150 C   0  0  0  0  0  3  0  0  0  0  0  0
  192.6660  177.6470  140.9380 C   0  0  0  0  0  3  0  0  0  0  0  0
  191.3270  177.3010  140.8410 C   0  0  0  0  0  0  0  0  0  0  0  0
  192.4950  176.1400  137.6390 C   0  0  0  0  0  2  0  0  0  0  0  0
  193.8970  175.7950  137.4800 N   0  0  0  0  0  2  0  0  0  0  0  0
  193.9910  174.3540  137.6320 C   0  0  0  0  0  2  0  0  0  0  0  0
  195.8020  174.9400  139.0620 O   0  0  0  0  0  1  0  0  0  0  0  0
  195.1190  174.0200  138.5420 C   0  0  0  0  0  0  0  0  0  0  0  0
  195.3930  172.6950  138.8510 O   0  0  0  0  0  0  0  0  0  0  0  0
  1  5  1  0  0  0  0
  2 26  1  6  0  0  0
  2  6  1  0  0  0  0
  2  4  1  0  0  0  0
  3  5  1  0  0  0  0
  4  1  1  0  0  0  0
  5 18  1  0  0  0  0
  6  3  1  0  0  0  0
  7 18  2  0  0  0  0
  7 10  1  0  0  0  0
  8  7  1  0  0  0  0
 10 15  2  0  0  0  0
 11 20  2  0  0  0  0
 12 19  1  0  0  0  0
 13 17  1  0  0  0  0
 14 12  2  0  0  0  0
 15 20  1  0  0  0  0
 16 14  1  0  0  0  0
 17  8  2  0  0  0  0
 17 12  1  0  0  0  0
 18 11  1  0  0  0  0
 19 10  1  0  0  0  0
 20  9  1  0  0  0  0
 21 13  1  0  0  0  0
 21 16  2  0  0  0  0
 22 24  1  0  0  0  0
 22 23  1  0  0  0  0
 23 25  2  0  0  0  0
 24 26  2  0  0  0  0
 26 25  1  0  0  0  0
 27 22  1  0  0  0  0
 28 29  1  0  0  0  0
 28 27  1  0  0  0  0
 29 31  1  0  0  0  0
 31 32  2  0  0  0  0
 31 30  1  0  0  0  0
M  END
>  <MODEL>
1

>  <REMARK>
 VINA RESULT:      -9.8      0.000      0.000
  Name = 
  6 active torsions:
  status: ('A' for Active; 'I' for Inactive)
    1  A    between atoms: N_8  and  C_9
    2  A    between atoms: N_8  and  C_14
    3  A    between atoms: C_9  and  C_28
    4  A    between atoms: N_10  and  C_14
    5  A    between atoms: C_17  and  C_31
    6  A    between atoms: C_20  and  N_24
                            x       y       z     vdW  Elec       q    Type
                         _______ _______ _______ _____ _____    ______ ____

>  <TORSDO>
F 6

$$$$
=
 OpenBabel10232408163D

 32 36  0  0  1  0  0  0  0  0999 V2000
  189.4090  178.6150  142.8150 C   0  0  0  0  0  2  0  0  0  0  0  0
  189.4440  176.8440  140.9610 C   0  0  2  0  0  3  0  0  0  0  0  0
  189.6090  176.1460  143.3550 C   0  0  0  0  0  2  0  0  0  0  0  0
  189.0630  178.2780  141.3620 C   0  0  0  0  0  2  0  0  0  0  0  0
  189.1050  177.4840  143.6940 N   0  0  0  0  0  0  0  0  0  0  0  0
  190.3140  176.1360  142.0000 C   0  0  0  0  0  2  0  0  0  0  0  0
  187.1190  178.0380  145.0950 C   0  0  0  0  0  0  0  0  0  0  0  0
  186.2740  178.1270  143.9320 N   0  0  0  0  0  0  0  0  0  0  0  0
  189.4560  177.6630  148.5170 F   0  0  0  0  0  0  0  0  0  0  0  0
  186.5600  178.2550  146.3720 C   0  0  0  0  0  0  0  0  0  0  0  0
  189.2570  177.5750  146.1440 C   0  0  0  0  0  3  0  0  0  0  0  0
  184.3770  178.6800  145.3070 C   0  0  0  0  0  0  0  0  0  0  0  0
  184.1930  178.4960  142.7400 C   0  0  0  0  0  2  0  0  0  0  0  0
  183.1170  178.9820  145.3880 N   0  0  0  0  0  0  0  0  0  0  0  0
  187.3460  178.1320  147.5170 C   0  0  0  0  0  3  0  0  0  0  0  0
  182.2790  179.0850  144.2270 C   0  0  0  0  0  3  0  0  0  0  0  0
  185.0090  178.4220  143.9970 C   0  0  0  0  0  0  0  0  0  0  0  0
  188.4870  177.7040  144.9760 C   0  0  0  0  0  0  0  0  0  0  0  0
  185.1740  178.5880  146.4890 N   0  0  0  0  0  2  0  0  0  0  0  0
  188.6930  177.7890  147.4040 C   0  0  0  0  0  0  0  0  0  0  0  0
  182.7570  178.8660  142.9980 C   0  0  0  0  0  3  0  0  0  0  0  0
  191.6410  176.6560  138.0730 N   0  0  0  0  0  0  0  0  0  0  0  0
  190.4800  176.9440  137.4560 C   0  0  0  0  0  3  0  0  0  0  0  0
  191.4350  176.5880  139.3980 C   0  0  0  0  0  3  0  0  0  0  0  0
  189.4760  177.0560  138.4010 C   0  0  0  0  0  3  0  0  0  0  0  0
  190.0970  176.8260  139.6190 C   0  0  0  0  0  0  0  0  0  0  0  0
  192.9260  176.5050  137.4150 C   0  0  0  0  0  2  0  0  0  0  0  0
  193.9300  176.1060  138.3850 N   0  0  0  0  0  2  0  0  0  0  0  0
  194.4910  174.8520  137.9140 C   0  0  0  0  0  2  0  0  0  0  0  0
  195.9330  175.0620  139.7960 O   0  0  0  0  0  1  0  0  0  0  0  0
  195.4120  174.2990  138.9420 C   0  0  0  0  0  0  0  0  0  0  0  0
  195.6670  172.9350  138.9850 O   0  0  0  0  0  0  0  0  0  0  0  0
  1  5  1  0  0  0  0
  2 26  1  6  0  0  0
  2  4  1  0  0  0  0
  2  6  1  0  0  0  0
  3  5  1  0  0  0  0
  4  1  1  0  0  0  0
  5 18  1  0  0  0  0
  6  3  1  0  0  0  0
  7 10  1  0  0  0  0
  8 17  2  0  0  0  0
  8  7  1  0  0  0  0
 10 19  1  0  0  0  0
 10 15  2  0  0  0  0
 11 20  2  0  0  0  0
 12 14  2  0  0  0  0
 12 19  1  0  0  0  0
 13 21  1  0  0  0  0
 13 17  1  0  0  0  0
 16 14  1  0  0  0  0
 17 12  1  0  0  0  0
 18  7  2  0  0  0  0
 18 11  1  0  0  0  0
 20 15  1  0  0  0  0
 20  9  1  0  0  0  0
 21 16  2  0  0  0  0
 22 24  1  0  0  0  0
 23 22  1  0  0  0  0
 23 25  2  0  0  0  0
 24 26  2  0  0  0  0
 25 26  1  0  0  0  0
 27 22  1  0  0  0  0
 27 28  1  0  0  0  0
 29 28  1  0  0  0  0
 29 31  1  0  0  0  0
 31 32  2  0  0  0  0
 31 30  1  0  0  0  0
M  END
>  <MODEL>
2

>  <REMARK>
 VINA RESULT:      -9.6      0.985      1.339
  Name = 
  6 active torsions:
  status: ('A' for Active; 'I' for Inactive)
    1  A    between atoms: N_8  and  C_9
    2  A    between atoms: N_8  and  C_14
    3  A    between atoms: C_9  and  C_28
    4  A    between atoms: N_10  and  C_14
    5  A    between atoms: C_17  and  C_31
    6  A    between atoms: C_20  and  N_24
                            x       y       z     vdW  Elec       q    Type
                         _______ _______ _______ _____ _____    ______ ____

>  <TORSDO>
F 6

$$$$
=
 OpenBabel10232408163D

 32 36  0  0  1  0  0  0  0  0999 V2000
  190.2510  178.4240  143.8580 C   0  0  0  0  0  2  0  0  0  0  0  0
  189.9720  177.1560  141.6470 C   0  0  2  0  0  3  0  0  0  0  0  0
  189.1810  176.1270  143.7830 C   0  0  0  0  0  2  0  0  0  0  0  0
  190.1820  178.5160  142.3320 C   0  0  0  0  0  2  0  0  0  0  0  0
  189.2580  177.4740  144.3640 N   0  0  0  0  0  0  0  0  0  0  0  0
  190.1320  175.9690  142.5980 C   0  0  0  0  0  2  0  0  0  0  0  0
  187.1210  178.1100  145.4790 C   0  0  0  0  0  0  0  0  0  0  0  0
  186.4180  178.1070  144.2210 N   0  0  0  0  0  0  0  0  0  0  0  0
  189.0400  178.0040  149.1690 F   0  0  0  0  0  0  0  0  0  0  0  0
  186.4150  178.4130  146.6630 C   0  0  0  0  0  0  0  0  0  0  0  0
  189.1210  177.7430  146.8020 C   0  0  0  0  0  3  0  0  0  0  0  0
  184.3720  178.7400  145.3220 C   0  0  0  0  0  0  0  0  0  0  0  0
  184.4910  178.3700  142.7710 C   0  0  0  0  0  2  0  0  0  0  0  0
  183.1120  179.0360  145.2330 N   0  0  0  0  0  0  0  0  0  0  0  0
  187.0620  178.3800  147.8980 C   0  0  0  0  0  3  0  0  0  0  0  0
  182.4150  179.0470  143.9770 C   0  0  0  0  0  3  0  0  0  0  0  0
  185.1540  178.3940  144.1170 C   0  0  0  0  0  0  0  0  0  0  0  0
  188.4930  177.7800  145.5450 C   0  0  0  0  0  0  0  0  0  0  0  0
  185.0250  178.7410  146.5930 N   0  0  0  0  0  2  0  0  0  0  0  0
  188.4130  178.0420  147.9680 C   0  0  0  0  0  0  0  0  0  0  0  0
  183.0340  178.7440  142.8320 C   0  0  0  0  0  3  0  0  0  0  0  0
  191.5690  176.5510  138.4390 N   0  0  0  0  0  0  0  0  0  0  0  0
  192.6220  177.0260  139.1300 C   0  0  0  0  0  3  0  0  0  0  0  0
  190.4890  176.5250  139.2370 C   0  0  0  0  0  3  0  0  0  0  0  0
  192.2210  177.3360  140.4180 C   0  0  0  0  0  3  0  0  0  0  0  0
  190.8730  177.0150  140.4650 C   0  0  0  0  0  0  0  0  0  0  0  0
  191.6100  176.0810  137.0660 C   0  0  0  0  0  2  0  0  0  0  0  0
  190.2600  175.8110  136.6010 N   0  0  0  0  0  2  0  0  0  0  0  0
  189.9240  176.8670  135.6630 C   0  0  0  0  0  2  0  0  0  0  0  0
  187.6530  177.3050  136.2300 O   0  0  0  0  0  0  0  0  0  0  0  0
  188.8430  177.7150  136.2330 C   0  0  0  0  0  0  0  0  0  0  0  0
  189.1510  178.9420  136.8060 O   0  0  0  0  0  1  0  0  0  0  0  0
  1  5  1  0  0  0  0
  2 26  1  6  0  0  0
  2  4  1  0  0  0  0
  2  6  1  0  0  0  0
  3  5  1  0  0  0  0
  4  1  1  0  0  0  0
  5 18  1  0  0  0  0
  6  3  1  0  0  0  0
  7 18  2  0  0  0  0
  7 10  1  0  0  0  0
  8  7  1  0  0  0  0
 10 15  2  0  0  0  0
 11 20  2  0  0  0  0
 12 19  1  0  0  0  0
 13 21  1  0  0  0  0
 13 17  1  0  0  0  0
 14 12  2  0  0  0  0
 15 20  1  0  0  0  0
 16 14  1  0  0  0  0
 17  8  2  0  0  0  0
 17 12  1  0  0  0  0
 18 11  1  0  0  0  0
 19 10  1  0  0  0  0
 20  9  1  0  0  0  0
 21 16  2  0  0  0  0
 22 23  1  0  0  0  0
 22 24  1  0  0  0  0
 23 25  2  0  0  0  0
 24 26  2  0  0  0  0
 25 26  1  0  0  0  0
 27 22  1  0  0  0  0
 28 27  1  0  0  0  0
 29 31  1  0  0  0  0
 29 28  1  0  0  0  0
 30 31  2  0  0  0  0
 31 32  1  0  0  0  0
M  END
>  <MODEL>
3

>  <REMARK>
 VINA RESULT:      -9.3      2.454      2.903
  Name = 
  6 active torsions:
  status: ('A' for Active; 'I' for Inactive)
    1  A    between atoms: N_8  and  C_9
    2  A    between atoms: N_8  and  C_14
    3  A    between atoms: C_9  and  C_28
    4  A    between atoms: N_10  and  C_14
    5  A    between atoms: C_17  and  C_31
    6  A    between atoms: C_20  and  N_24
                            x       y       z     vdW  Elec       q    Type
                         _______ _______ _______ _____ _____    ______ ____

>  <TORSDO>
F 6

$$$$
=
 OpenBabel10232408163D

 32 36  0  0  1  0  0  0  0  0999 V2000
  189.2370  177.9840  142.5180 C   0  0  0  0  0  2  0  0  0  0  0  0
  190.4430  176.5680  140.7530 C   0  0  2  0  0  3  0  0  0  0  0  0
  191.5250  176.9900  142.9660 C   0  0  0  0  0  2  0  0  0  0  0  0
  189.1030  177.1290  141.2550 C   0  0  0  0  0  2  0  0  0  0  0  0
  190.1950  177.3840  143.4490 N   0  0  0  0  0  0  0  0  0  0  0  0
  191.6550  177.1790  141.4560 C   0  0  0  0  0  2  0  0  0  0  0  0
  188.6320  177.6480  145.3730 C   0  0  0  0  0  0  0  0  0  0  0  0
  187.5330  177.9430  144.4910 N   0  0  0  0  0  0  0  0  0  0  0  0
  191.7190  176.6660  147.9840 F   0  0  0  0  0  0  0  0  0  0  0  0
  188.4100  177.6170  146.7670 C   0  0  0  0  0  0  0  0  0  0  0  0
  190.9440  177.0190  145.7600 C   0  0  0  0  0  3  0  0  0  0  0  0
  186.0500  178.2100  146.3700 C   0  0  0  0  0  0  0  0  0  0  0  0
  185.2380  178.5060  143.9380 C   0  0  0  0  0  2  0  0  0  0  0  0
  184.8610  178.4790  146.8130 N   0  0  0  0  0  0  0  0  0  0  0  0
  189.4480  177.2910  147.6400 C   0  0  0  0  0  3  0  0  0  0  0  0
  183.7680  178.7880  145.9340 C   0  0  0  0  0  3  0  0  0  0  0  0
  186.3340  178.2080  144.9200 C   0  0  0  0  0  0  0  0  0  0  0  0
  189.9170  177.3560  144.8610 C   0  0  0  0  0  0  0  0  0  0  0  0
  187.1090  177.9080  147.2810 N   0  0  0  0  0  2  0  0  0  0  0  0
  190.7130  176.9890  147.1360 C   0  0  0  0  0  0  0  0  0  0  0  0
  183.9230  178.8070  144.6060 C   0  0  0  0  0  3  0  0  0  0  0  0
  190.0670  177.2510  137.2040 N   0  0  0  0  0  0  0  0  0  0  0  0
  191.2570  176.6230  137.1890 C   0  0  0  0  0  3  0  0  0  0  0  0
  189.6120  177.3110  138.4660 C   0  0  0  0  0  3  0  0  0  0  0  0
  191.6050  176.2710  138.4810 C   0  0  0  0  0  3  0  0  0  0  0  0
  190.5560  176.7150  139.2720 C   0  0  0  0  0  0  0  0  0  0  0  0
  189.3570  177.7310  136.0320 C   0  0  0  0  0  2  0  0  0  0  0  0
  188.3070  178.6490  136.4380 N   0  0  0  0  0  2  0  0  0  0  0  0
  187.0490  178.0440  136.0390 C   0  0  0  0  0  2  0  0  0  0  0  0
  186.1530  178.7880  138.1160 O   0  0  0  0  0  1  0  0  0  0  0  0
  186.1660  177.8970  137.2280 C   0  0  0  0  0  0  0  0  0  0  0  0
  185.3270  176.7980  137.3380 O   0  0  0  0  0  0  0  0  0  0  0  0
  1  5  1  0  0  0  0
  2 26  1  6  0  0  0
  2  4  1  0  0  0  0
  2  6  1  0  0  0  0
  3  5  1  0  0  0  0
  4  1  1  0  0  0  0
  5 18  1  0  0  0  0
  6  3  1  0  0  0  0
  7 10  1  0  0  0  0
  8 17  2  0  0  0  0
  8  7  1  0  0  0  0
 10 19  1  0  0  0  0
 10 15  2  0  0  0  0
 11 20  2  0  0  0  0
 12 14  2  0  0  0  0
 12 19  1  0  0  0  0
 13 21  1  0  0  0  0
 13 17  1  0  0  0  0
 16 14  1  0  0  0  0
 17 12  1  0  0  0  0
 18  7  2  0  0  0  0
 18 11  1  0  0  0  0
 20 15  1  0  0  0  0
 20  9  1  0  0  0  0
 21 16  2  0  0  0  0
 22 24  1  0  0  0  0
 23 22  1  0  0  0  0
 23 25  2  0  0  0  0
 24 26  2  0  0  0  0
 25 26  1  0  0  0  0
 27 28  1  0  0  0  0
 27 22  1  0  0  0  0
 29 28  1  0  0  0  0
 29 31  1  0  0  0  0
 31 32  2  0  0  0  0
 31 30  1  0  0  0  0
M  END
>  <MODEL>
4

>  <REMARK>
 VINA RESULT:      -9.0      3.487      4.349
  Name = 
  6 active torsions:
  status: ('A' for Active; 'I' for Inactive)
    1  A    between atoms: N_8  and  C_9
    2  A    between atoms: N_8  and  C_14
    3  A    between atoms: C_9  and  C_28
    4  A    between atoms: N_10  and  C_14
    5  A    between atoms: C_17  and  C_31
    6  A    between atoms: C_20  and  N_24
                            x       y       z     vdW  Elec       q    Type
                         _______ _______ _______ _____ _____    ______ ____

>  <TORSDO>
F 6

$$$$
=
 OpenBabel10232408163D

 32 36  0  0  1  0  0  0  0  0999 V2000
  189.4680  178.6470  142.9410 C   0  0  0  0  0  2  0  0  0  0  0  0
  189.4460  176.9350  141.0320 C   0  0  2  0  0  3  0  0  0  0  0  0
  189.5020  176.1560  143.4060 C   0  0  0  0  0  2  0  0  0  0  0  0
  189.1430  178.3770  141.4690 C   0  0  0  0  0  2  0  0  0  0  0  0
  189.0710  177.5110  143.7750 N   0  0  0  0  0  0  0  0  0  0  0  0
  190.2420  176.1440  142.0700 C   0  0  0  0  0  2  0  0  0  0  0  0
  187.0600  178.0550  145.1430 C   0  0  0  0  0  0  0  0  0  0  0  0
  186.2320  178.1340  143.9670 N   0  0  0  0  0  0  0  0  0  0  0  0
  189.3460  177.7050  148.6010 F   0  0  0  0  0  0  0  0  0  0  0  0
  186.4790  178.2710  146.4110 C   0  0  0  0  0  0  0  0  0  0  0  0
  189.1850  177.6090  146.2270 C   0  0  0  0  0  3  0  0  0  0  0  0
  184.3100  178.6770  145.3130 C   0  0  0  0  0  0  0  0  0  0  0  0
  184.1670  178.4860  142.7430 C   0  0  0  0  0  2  0  0  0  0  0  0
  183.0470  178.9700  145.3730 N   0  0  0  0  0  0  0  0  0  0  0  0
  187.2490  178.1550  147.5690 C   0  0  0  0  0  3  0  0  0  0  0  0
  182.2260  179.0640  144.1990 C   0  0  0  0  0  3  0  0  0  0  0  0
  184.9640  178.4210  144.0130 C   0  0  0  0  0  0  0  0  0  0  0  0
  188.4320  177.7300  145.0460 C   0  0  0  0  0  0  0  0  0  0  0  0
  185.0900  178.5930  146.5070 N   0  0  0  0  0  2  0  0  0  0  0  0
  188.6000  177.8220  147.4770 C   0  0  0  0  0  0  0  0  0  0  0  0
  182.7240  178.8460  142.9780 C   0  0  0  0  0  3  0  0  0  0  0  0
  191.6960  176.6580  138.1930 N   0  0  0  0  0  0  0  0  0  0  0  0
  190.5960  177.1130  137.5650 C   0  0  0  0  0  3  0  0  0  0  0  0
  191.4430  176.5400  139.5050 C   0  0  0  0  0  3  0  0  0  0  0  0
  189.5810  177.2860  138.4910 C   0  0  0  0  0  3  0  0  0  0  0  0
  190.1340  176.9180  139.7080 C   0  0  0  0  0  0  0  0  0  0  0  0
  192.9750  176.3970  137.5580 C   0  0  0  0  0  2  0  0  0  0  0  0
  192.7760  175.5840  136.3700 N   0  0  0  0  0  2  0  0  0  0  0  0
  192.9510  174.2020  136.7780 C   0  0  0  0  0  2  0  0  0  0  0  0
  191.6050  172.6000  135.6420 O   0  0  0  0  0  0  0  0  0  0  0  0
  191.6840  173.4530  136.5640 C   0  0  0  0  0  0  0  0  0  0  0  0
  190.6010  173.6650  137.4060 O   0  0  0  0  0  1  0  0  0  0  0  0
  1  5  1  0  0  0  0
  2 26  1  6  0  0  0
  2  4  1  0  0  0  0
  2  6  1  0  0  0  0
  3  5  1  0  0  0  0
  4  1  1  0  0  0  0
  5 18  1  0  0  0  0
  6  3  1  0  0  0  0
  7 10  1  0  0  0  0
  8 17  2  0  0  0  0
  8  7  1  0  0  0  0
 10 19  1  0  0  0  0
 10 15  2  0  0  0  0
 11 20  2  0  0  0  0
 12 14  2  0  0  0  0
 12 19  1  0  0  0  0
 13 21  1  0  0  0  0
 13 17  1  0  0  0  0
 16 14  1  0  0  0  0
 17 12  1  0  0  0  0
 18  7  2  0  0  0  0
 18 11  1  0  0  0  0
 20 15  1  0  0  0  0
 20  9  1  0  0  0  0
 21 16  2  0  0  0  0
 22 24  1  0  0  0  0
 23 22  1  0  0  0  0
 23 25  2  0  0  0  0
 24 26  2  0  0  0  0
 25 26  1  0  0  0  0
 27 22  1  0  0  0  0
 28 29  1  0  0  0  0
 28 27  1  0  0  0  0
 30 31  2  0  0  0  0
 31 29  1  0  0  0  0
 31 32  1  0  0  0  0
M  END
>  <MODEL>
5

>  <REMARK>
 VINA RESULT:      -8.9      1.715      2.013
  Name = 
  6 active torsions:
  status: ('A' for Active; 'I' for Inactive)
    1  A    between atoms: N_8  and  C_9
    2  A    between atoms: N_8  and  C_14
    3  A    between atoms: C_9  and  C_28
    4  A    between atoms: N_10  and  C_14
    5  A    between atoms: C_17  and  C_31
    6  A    between atoms: C_20  and  N_24
                            x       y       z     vdW  Elec       q    Type
                         _______ _______ _______ _____ _____    ______ ____

>  <TORSDO>
F 6

$$$$
=
 OpenBabel10232408163D

 32 36  0  0  1  0  0  0  0  0999 V2000
  186.6780  177.0290  143.8190 C   0  0  0  0  0  2  0  0  0  0  0  0
  184.8590  178.8100  144.1220 C   0  0  2  0  0  3  0  0  0  0  0  0
  186.4790  178.3570  145.9700 C   0  0  0  0  0  2  0  0  0  0  0  0
  185.6880  177.9740  143.1340 C   0  0  0  0  0  2  0  0  0  0  0  0
  187.3140  177.6880  144.9630 N   0  0  0  0  0  0  0  0  0  0  0  0
  185.0050  178.3520  145.5730 C   0  0  0  0  0  2  0  0  0  0  0  0
  189.6570  177.4280  144.1510 C   0  0  0  0  0  0  0  0  0  0  0  0
  189.2360  177.5450  142.7780 N   0  0  0  0  0  0  0  0  0  0  0  0
  190.9750  177.2250  148.0910 F   0  0  0  0  0  0  0  0  0  0  0  0
  191.0270  177.2540  144.4400 C   0  0  0  0  0  0  0  0  0  0  0  0
  189.1900  177.4570  146.5320 C   0  0  0  0  0  3  0  0  0  0  0  0
  191.5060  177.2730  142.0210 C   0  0  0  0  0  0  0  0  0  0  0  0
  189.5480  177.6050  140.3730 C   0  0  0  0  0  2  0  0  0  0  0  0
  192.3420  177.1940  141.0320 N   0  0  0  0  0  0  0  0  0  0  0  0
  191.4660  177.1840  145.7620 C   0  0  0  0  0  3  0  0  0  0  0  0
  191.9200  177.2950  139.6630 C   0  0  0  0  0  3  0  0  0  0  0  0
  190.0630  177.4750  141.7760 C   0  0  0  0  0  0  0  0  0  0  0  0
  188.7230  177.5210  145.2080 C   0  0  0  0  0  0  0  0  0  0  0  0
  191.9690  177.1670  143.3690 N   0  0  0  0  0  2  0  0  0  0  0  0
  190.5480  177.2880  146.8070 C   0  0  0  0  0  0  0  0  0  0  0  0
  190.6370  177.4830  139.3400 C   0  0  0  0  0  3  0  0  0  0  0  0
  181.6320  178.8570  142.4530 N   0  0  0  0  0  0  0  0  0  0  0  0
  181.2240  178.9200  143.7340 C   0  0  0  0  0  3  0  0  0  0  0  0
  182.9730  178.8180  142.4140 C   0  0  0  0  0  3  0  0  0  0  0  0
  182.3300  178.9070  144.5660 C   0  0  0  0  0  3  0  0  0  0  0  0
  183.4230  178.8400  143.7150 C   0  0  0  0  0  0  0  0  0  0  0  0
  180.7590  178.8920  141.2930 C   0  0  0  0  0  2  0  0  0  0  0  0
  181.4520  178.3410  140.1420 N   0  0  0  0  0  2  0  0  0  0  0  0
  181.8010  179.4630  139.2890 C   0  0  0  0  0  2  0  0  0  0  0  0
  183.5550  178.3780  138.1010 O   0  0  0  0  0  0  0  0  0  0  0  0
  183.2150  179.3330  138.8450 C   0  0  0  0  0  0  0  0  0  0  0  0
  184.1500  180.2880  139.2180 O   0  0  0  0  0  1  0  0  0  0  0  0
  1  5  1  0  0  0  0
  2 26  1  6  0  0  0
  2  6  1  0  0  0  0
  4  1  1  0  0  0  0
  4  2  1  0  0  0  0
  5 18  1  0  0  0  0
  5  3  1  0  0  0  0
  6  3  1  0  0  0  0
  7 10  2  0  0  0  0
  7 18  1  0  0  0  0
  8  7  1  0  0  0  0
 10 15  1  0  0  0  0
 11 20  1  0  0  0  0
 12 19  1  0  0  0  0
 13 17  1  0  0  0  0
 14 12  2  0  0  0  0
 15 20  2  0  0  0  0
 16 14  1  0  0  0  0
 17 12  1  0  0  0  0
 17  8  2  0  0  0  0
 18 11  2  0  0  0  0
 19 10  1  0  0  0  0
 20  9  1  0  0  0  0
 21 16  2  0  0  0  0
 21 13  1  0  0  0  0
 22 23  1  0  0  0  0
 23 25  2  0  0  0  0
 24 22  1  0  0  0  0
 24 26  2  0  0  0  0
 26 25  1  0  0  0  0
 27 22  1  0  0  0  0
 28 27  1  0  0  0  0
 29 28  1  0  0  0  0
 30 31  2  0  0  0  0
 31 32  1  0  0  0  0
 31 29  1  0  0  0  0
M  END
>  <MODEL>
6

>  <REMARK>
 VINA RESULT:      -8.8      3.794      8.462
  Name = 
  6 active torsions:
  status: ('A' for Active; 'I' for Inactive)
    1  A    between atoms: N_8  and  C_9
    2  A    between atoms: N_8  and  C_14
    3  A    between atoms: C_9  and  C_28
    4  A    between atoms: N_10  and  C_14
    5  A    between atoms: C_17  and  C_31
    6  A    between atoms: C_20  and  N_24
                            x       y       z     vdW  Elec       q    Type
                         _______ _______ _______ _____ _____    ______ ____

>  <TORSDO>
F 6

$$$$
=
 OpenBabel10232408163D

 32 36  0  0  1  0  0  0  0  0999 V2000
  190.2090  175.9320  142.7690 C   0  0  0  0  0  2  0  0  0  0  0  0
  190.8020  177.3190  140.6960 C   0  0  2  0  0  3  0  0  0  0  0  0
  188.8310  177.9500  142.0970 C   0  0  0  0  0  2  0  0  0  0  0  0
  191.2910  176.3230  141.7600 C   0  0  0  0  0  2  0  0  0  0  0  0
  189.4070  177.0970  143.1460 N   0  0  0  0  0  0  0  0  0  0  0  0
  189.2860  177.5160  140.7050 C   0  0  0  0  0  2  0  0  0  0  0  0
  187.7140  177.7080  144.8700 C   0  0  0  0  0  0  0  0  0  0  0  0
  186.6970  177.8860  143.8660 N   0  0  0  0  0  0  0  0  0  0  0  0
  190.5510  177.0770  147.8470 F   0  0  0  0  0  0  0  0  0  0  0  0
  187.3850  177.9070  146.2280 C   0  0  0  0  0  0  0  0  0  0  0  0
  189.9630  177.0880  145.5380 C   0  0  0  0  0  3  0  0  0  0  0  0
  185.0870  178.4900  145.5520 C   0  0  0  0  0  0  0  0  0  0  0  0
  184.4750  178.4140  143.0460 C   0  0  0  0  0  2  0  0  0  0  0  0
  183.8780  178.8580  145.8480 N   0  0  0  0  0  0  0  0  0  0  0  0
  188.3390  177.6980  147.2240 C   0  0  0  0  0  3  0  0  0  0  0  0
  182.8690  179.0510  144.8450 C   0  0  0  0  0  3  0  0  0  0  0  0
  185.4800  178.2480  144.1480 C   0  0  0  0  0  0  0  0  0  0  0  0
  189.0210  177.3030  144.5180 C   0  0  0  0  0  0  0  0  0  0  0  0
  186.0600  178.3100  146.5820 N   0  0  0  0  0  2  0  0  0  0  0  0
  189.6260  177.2860  146.8790 C   0  0  0  0  0  0  0  0  0  0  0  0
  183.1250  178.8520  143.5490 C   0  0  0  0  0  3  0  0  0  0  0  0
  192.6120  176.2880  137.7190 N   0  0  0  0  0  0  0  0  0  0  0  0
  191.3820  176.4410  137.1940 C   0  0  0  0  0  3  0  0  0  0  0  0
  192.5770  176.5850  139.0280 C   0  0  0  0  0  3  0  0  0  0  0  0
  190.5060  176.8370  138.1900 C   0  0  0  0  0  3  0  0  0  0  0  0
  191.2780  176.9200  139.3390 C   0  0  0  0  0  0  0  0  0  0  0  0
  193.8020  175.9210  136.9730 C   0  0  0  0  0  2  0  0  0  0  0  0
  193.6900  176.3990  135.6060 N   0  0  0  0  0  2  0  0  0  0  0  0
  194.9420  176.0740  134.9470 C   0  0  0  0  0  2  0  0  0  0  0  0
  195.7780  178.2600  135.3840 O   0  0  0  0  0  0  0  0  0  0  0  0
  196.0000  177.0220  135.3890 C   0  0  0  0  0  0  0  0  0  0  0  0
  197.2180  176.5380  135.8460 O   0  0  0  0  0  1  0  0  0  0  0  0
  1  5  1  0  0  0  0
  2 26  1  6  0  0  0
  2  6  1  0  0  0  0
  2  4  1  0  0  0  0
  3  5  1  0  0  0  0
  4  1  1  0  0  0  0
  5 18  1  0  0  0  0
  6  3  1  0  0  0  0
  7 10  1  0  0  0  0
  8 17  2  0  0  0  0
  8  7  1  0  0  0  0
 10 19  1  0  0  0  0
 10 15  2  0  0  0  0
 11 20  2  0  0  0  0
 12 14  2  0  0  0  0
 12 19  1  0  0  0  0
 13 21  1  0  0  0  0
 13 17  1  0  0  0  0
 16 14  1  0  0  0  0
 17 12  1  0  0  0  0
 18  7  2  0  0  0  0
 18 11  1  0  0  0  0
 20 15  1  0  0  0  0
 20  9  1  0  0  0  0
 21 16  2  0  0  0  0
 22 24  1  0  0  0  0
 23 22  1  0  0  0  0
 23 25  2  0  0  0  0
 24 26  2  0  0  0  0
 25 26  1  0  0  0  0
 27 22  1  0  0  0  0
 28 27  1  0  0  0  0
 29 31  1  0  0  0  0
 29 28  1  0  0  0  0
 30 31  2  0  0  0  0
 31 32  1  0  0  0  0
M  END
>  <MODEL>
7

>  <REMARK>
 VINA RESULT:      -8.8      1.864      2.367
  Name = 
  6 active torsions:
  status: ('A' for Active; 'I' for Inactive)
    1  A    between atoms: N_8  and  C_9
    2  A    between atoms: N_8  and  C_14
    3  A    between atoms: C_9  and  C_28
    4  A    between atoms: N_10  and  C_14
    5  A    between atoms: C_17  and  C_31
    6  A    between atoms: C_20  and  N_24
                            x       y       z     vdW  Elec       q    Type
                         _______ _______ _______ _____ _____    ______ ____

>  <TORSDO>
F 6

$$$$
=
 OpenBabel10232408163D

 32 36  0  0  1  0  0  0  0  0999 V2000
  187.8180  176.9740  142.1020 C   0  0  0  0  0  2  0  0  0  0  0  0
  188.2720  178.4130  140.0290 C   0  0  2  0  0  3  0  0  0  0  0  0
  186.2050  178.7910  141.3820 C   0  0  0  0  0  2  0  0  0  0  0  0
  188.8630  177.4960  141.1120 C   0  0  0  0  0  2  0  0  0  0  0  0
  186.8630  178.0280  142.4510 N   0  0  0  0  0  0  0  0  0  0  0  0
  186.7430  178.4120  140.0040 C   0  0  0  0  0  2  0  0  0  0  0  0
  187.2870  177.9560  144.9060 C   0  0  0  0  0  0  0  0  0  0  0  0
  188.6640  177.5870  144.6980 N   0  0  0  0  0  0  0  0  0  0  0  0
  183.3640  179.1570  145.5950 F   0  0  0  0  0  0  0  0  0  0  0  0
  186.8080  178.1180  146.2230 C   0  0  0  0  0  0  0  0  0  0  0  0
  185.1050  178.6030  144.0660 C   0  0  0  0  0  3  0  0  0  0  0  0
  189.0390  177.5070  147.0750 C   0  0  0  0  0  0  0  0  0  0  0  0
  190.9140  176.9890  145.3790 C   0  0  0  0  0  2  0  0  0  0  0  0
  189.8540  177.2880  148.0610 N   0  0  0  0  0  0  0  0  0  0  0  0
  185.4910  178.5180  146.4510 C   0  0  0  0  0  3  0  0  0  0  0  0
  191.2220  176.9050  147.8530 C   0  0  0  0  0  3  0  0  0  0  0  0
  189.4940  177.3710  145.6760 C   0  0  0  0  0  0  0  0  0  0  0  0
  186.4240  178.1900  143.8120 C   0  0  0  0  0  0  0  0  0  0  0  0
  187.6850  177.8860  147.3280 N   0  0  0  0  0  2  0  0  0  0  0  0
  184.6410  178.7630  145.3730 C   0  0  0  0  0  0  0  0  0  0  0  0
  191.7290  176.7620  146.6250 C   0  0  0  0  0  3  0  0  0  0  0  0
  189.9320  177.0210  137.1130 N   0  0  0  0  0  0  0  0  0  0  0  0
  189.3380  178.0870  136.5470 C   0  0  0  0  0  3  0  0  0  0  0  0
  189.6430  176.9940  138.4230 C   0  0  0  0  0  3  0  0  0  0  0  0
  188.6230  178.7770  137.5100 C   0  0  0  0  0  3  0  0  0  0  0  0
  188.8260  178.0710  138.6860 C   0  0  0  0  0  0  0  0  0  0  0  0
  190.8020  176.0830  136.4250 C   0  0  0  0  0  2  0  0  0  0  0  0
  191.3780  175.1560  137.3840 N   0  0  0  0  0  2  0  0  0  0  0  0
  192.7730  174.9910  137.0180 C   0  0  0  0  0  2  0  0  0  0  0  0
  194.2790  176.7850  136.5960 O   0  0  0  0  0  0  0  0  0  0  0  0
  193.5430  176.1950  137.4280 C   0  0  0  0  0  0  0  0  0  0  0  0
  193.4180  176.6930  138.7180 O   0  0  0  0  0  1  0  0  0  0  0  0
  1  5  1  0  0  0  0
  2 26  1  6  0  0  0
  2  4  1  0  0  0  0
  3  5  1  0  0  0  0
  4  1  1  0  0  0  0
  5 18  1  0  0  0  0
  6  2  1  0  0  0  0
  6  3  1  0  0  0  0
  7 10  1  0  0  0  0
  8  7  1  0  0  0  0
  8 17  2  0  0  0  0
 10 15  2  0  0  0  0
 10 19  1  0  0  0  0
 11 20  2  0  0  0  0
 12 19  1  0  0  0  0
 12 14  2  0  0  0  0
 13 17  1  0  0  0  0
 13 21  1  0  0  0  0
 16 14  1  0  0  0  0
 17 12  1  0  0  0  0
 18 11  1  0  0  0  0
 18  7  2  0  0  0  0
 20  9  1  0  0  0  0
 20 15  1  0  0  0  0
 21 16  2  0  0  0  0
 22 24  1  0  0  0  0
 23 22  1  0  0  0  0
 23 25  2  0  0  0  0
 24 26  2  0  0  0  0
 25 26  1  0  0  0  0
 27 22  1  0  0  0  0
 27 28  1  0  0  0  0
 29 28  1  0  0  0  0
 29 31  1  0  0  0  0
 30 31  2  0  0  0  0
 31 32  1  0  0  0  0
M  END
>  <MODEL>
8

>  <REMARK>
 VINA RESULT:      -8.6      2.545      4.625
  Name = 
  6 active torsions:
  status: ('A' for Active; 'I' for Inactive)
    1  A    between atoms: N_8  and  C_9
    2  A    between atoms: N_8  and  C_14
    3  A    between atoms: C_9  and  C_28
    4  A    between atoms: N_10  and  C_14
    5  A    between atoms: C_17  and  C_31
    6  A    between atoms: C_20  and  N_24
                            x       y       z     vdW  Elec       q    Type
                         _______ _______ _______ _____ _____    ______ ____

>  <TORSDO>
F 6

$$$$
=
 OpenBabel10232408163D

 32 36  0  0  1  0  0  0  0  0999 V2000
  187.8800  179.0210  141.8810 C   0  0  0  0  0  2  0  0  0  0  0  0
  189.1930  177.0640  140.8720 C   0  0  2  0  0  3  0  0  0  0  0  0
  187.9680  176.7630  143.0300 C   0  0  0  0  0  2  0  0  0  0  0  0
  188.5050  178.4160  140.6220 C   0  0  0  0  0  2  0  0  0  0  0  0
  187.2280  177.9850  142.6850 N   0  0  0  0  0  0  0  0  0  0  0  0
  189.3380  176.7250  142.3560 C   0  0  0  0  0  2  0  0  0  0  0  0
  184.7800  178.4250  142.5270 C   0  0  0  0  0  0  0  0  0  0  0  0
  184.8150  178.3290  141.0900 N   0  0  0  0  0  0  0  0  0  0  0  0
  184.5620  178.5780  146.6790 F   0  0  0  0  0  0  0  0  0  0  0  0
  183.5500  178.6780  143.1710 C   0  0  0  0  0  0  0  0  0  0  0  0
  185.8530  178.2830  144.6980 C   0  0  0  0  0  3  0  0  0  0  0  0
  182.4520  178.7750  140.9660 C   0  0  0  0  0  0  0  0  0  0  0  0
  183.8780  178.3730  138.8530 C   0  0  0  0  0  2  0  0  0  0  0  0
  181.3930  178.9420  140.2350 N   0  0  0  0  0  0  0  0  0  0  0  0
  183.4810  178.7310  144.5640 C   0  0  0  0  0  3  0  0  0  0  0  0
  181.4320  178.8610  138.8020 C   0  0  0  0  0  3  0  0  0  0  0  0
  183.7610  178.4870  140.3450 C   0  0  0  0  0  0  0  0  0  0  0  0
  185.9500  178.2350  143.2970 C   0  0  0  0  0  0  0  0  0  0  0  0
  182.3680  178.8640  142.3900 N   0  0  0  0  0  2  0  0  0  0  0  0
  184.6310  178.5310  145.3270 C   0  0  0  0  0  0  0  0  0  0  0  0
  182.5680  178.6010  138.1470 C   0  0  0  0  0  3  0  0  0  0  0  0
  192.0290  176.6460  138.6390 N   0  0  0  0  0  0  0  0  0  0  0  0
  192.6600  177.1560  139.7130 C   0  0  0  0  0  3  0  0  0  0  0  0
  190.7180  176.5360  138.9040 C   0  0  0  0  0  3  0  0  0  0  0  0
  191.7350  177.4040  140.7110 C   0  0  0  0  0  3  0  0  0  0  0  0
  190.5150  177.0080  140.1820 C   0  0  0  0  0  0  0  0  0  0  0  0
  192.6750  176.2210  137.4100 C   0  0  0  0  0  2  0  0  0  0  0  0
  194.0720  175.9210  137.6700 N   0  0  0  0  0  2  0  0  0  0  0  0
  194.2040  174.4760  137.6200 C   0  0  0  0  0  2  0  0  0  0  0  0
  196.2330  174.8320  138.8150 O   0  0  0  0  0  0  0  0  0  0  0  0
  195.2940  174.0420  138.5350 C   0  0  0  0  0  0  0  0  0  0  0  0
  195.2550  172.7800  139.1130 O   0  0  0  0  0  1  0  0  0  0  0  0
  1  5  1  0  0  0  0
  2 26  1  1  0  0  0
  2  6  1  0  0  0  0
  4  2  1  0  0  0  0
  4  1  1  0  0  0  0
  5  3  1  0  0  0  0
  5 18  1  0  0  0  0
  6  3  1  0  0  0  0
  7 10  2  0  0  0  0
  7 18  1  0  0  0  0
  8  7  1  0  0  0  0
 10 15  1  0  0  0  0
 11 20  1  0  0  0  0
 12 19  1  0  0  0  0
 13 17  1  0  0  0  0
 14 12  2  0  0  0  0
 15 20  2  0  0  0  0
 16 14  1  0  0  0  0
 17 12  1  0  0  0  0
 17  8  2  0  0  0  0
 18 11  2  0  0  0  0
 19 10  1  0  0  0  0
 20  9  1  0  0  0  0
 21 16  2  0  0  0  0
 21 13  1  0  0  0  0
 22 24  1  0  0  0  0
 22 23  1  0  0  0  0
 23 25  2  0  0  0  0
 24 26  2  0  0  0  0
 26 25  1  0  0  0  0
 27 28  1  0  0  0  0
 27 22  1  0  0  0  0
 29 28  1  0  0  0  0
 29 31  1  0  0  0  0
 31 30  2  0  0  0  0
 31 32  1  0  0  0  0
M  END
>  <MODEL>
9

>  <REMARK>
 VINA RESULT:      -8.4      2.131      3.059
  Name = 
  6 active torsions:
  status: ('A' for Active; 'I' for Inactive)
    1  A    between atoms: N_8  and  C_9
    2  A    between atoms: N_8  and  C_14
    3  A    between atoms: C_9  and  C_28
    4  A    between atoms: N_10  and  C_14
    5  A    between atoms: C_17  and  C_31
    6  A    between atoms: C_20  and  N_24
                            x       y       z     vdW  Elec       q    Type
                         _______ _______ _______ _____ _____    ______ ____

>  <TORSDO>
F 6

$$$$
