=
 OpenBabel10232409323D

 70 78  0  0  1  0  0  0  0  0999 V2000
  186.7060  178.3650  142.6460 C   0  0  0  0  0  2  0  0  0  0  0  0
  189.6200  175.8990  139.9140 C   0  0  0  0  0  2  0  0  0  0  0  0
  188.4700  178.4440  141.1480 C   0  0  1  0  0  3  0  0  0  0  0  0
  189.7720  176.0970  141.4140 C   0  0  0  0  0  2  0  0  0  0  0  0
  187.6750  177.4040  141.9810 C   0  0  1  0  0  3  0  0  0  0  0  0
  186.2650  178.8410  140.1510 C   0  0  0  0  0  0  0  0  0  0  0  0
  190.4450  176.9230  139.1450 C   0  0  2  0  0  3  0  0  0  0  0  0
  189.8510  177.1350  137.7590 C   0  0  0  0  0  2  0  0  0  0  0  0
  189.1750  177.3880  142.0020 C   0  0  2  0  0  0  0  0  0  0  0  0
  185.6630  178.7420  141.5660 C   0  0  1  0  0  3  0  0  0  0  0  0
  188.1810  178.7910  138.5880 C   0  0  0  0  0  2  0  0  0  0  0  0
  187.5720  178.5430  139.9360 C   0  0  0  0  0  0  0  0  0  0  0  0
  188.3610  177.4890  137.8220 C   0  0  1  0  0  3  0  0  0  0  0  0
  190.8050  179.3220  144.7200 N   0  0  0  0  0  2  0  0  0  0  0  0
  190.3570  179.1240  143.3910 C   0  0  0  0  0  3  0  0  0  0  0  0
  189.8560  177.9090  143.2370 C   0  0  0  0  0  0  0  0  0  0  0  0
  189.9210  177.1290  144.5070 C   0  0  0  0  0  2  0  0  0  0  0  0
  190.4760  178.1430  145.5120 C   0  0  2  0  0  3  0  0  0  0  0  0
  189.4390  178.4900  146.5870 C   0  0  0  0  0  3  0  0  0  0  0  0
  188.8450  178.0490  149.0290 C   0  0  0  0  0  2  0  0  0  0  0  0
  187.1730  177.8020  147.5580 C   0  0  0  0  0  2  0  0  0  0  0  0
  188.0560  177.8670  146.3030 C   0  0  0  0  0  2  0  0  0  0  0  0
  189.9710  178.1540  147.9910 C   0  0  0  0  0  2  0  0  0  0  0  0
  187.6630  178.6520  148.5620 O   0  0  0  0  0  0  0  0  0  0  0  0
  185.4720  179.2480  139.0690 O   0  0  0  0  0  0  0  0  0  0  0  0
  184.1100  179.6270  139.2080 C   0  0  0  0  0  1  0  0  0  0  0  0
  191.8930  176.4710  139.0400 C   0  0  0  0  0  2  0  0  0  0  0  0
  192.1420  175.8320  137.6770 C   0  0  0  0  0  2  0  0  0  0  0  0
  193.9050  176.3880  136.1430 F   0  0  0  0  0  0  0  0  0  0  0  0
  193.6330  175.7500  137.3440 C   0  0  2  0  0  3  0  0  0  0  0  0
  194.1280  174.2900  137.3240 C   0  0  1  0  0  3  0  0  0  0  0  0
  193.3110  173.4000  136.3820 C   0  0  0  0  0  1  0  0  0  0  0  0
  195.5260  174.1760  137.1040 O   0  0  0  0  0  0  0  0  0  0  0  0
  195.7570  174.1740  135.7170 C   0  0  0  0  0  2  0  0  0  0  0  0
  198.9030  171.4420  137.0110 C   0  0  0  0  0  2  0  0  0  0  0  0
  197.1050  171.1880  137.2990 S   0  0  0  0  0  0  0  0  0  0  0  0
  196.9310  173.2780  135.3660 C   0  0  1  0  0  3  0  0  0  0  0  0
  199.2580  172.5970  136.0600 C   0  0  0  0  0  2  0  0  0  0  0  0
  198.8160  174.9300  135.3700 C   0  0  0  0  0  1  0  0  0  0  0  0
  198.2210  173.7230  136.0730 C   0  0  1  0  0  3  0  0  0  0  0  0
  195.9690  171.1690  134.9300 O   0  0  0  0  0  0  0  0  0  0  0  0
  196.5800  171.8650  135.7240 C   0  0  0  0  0  0  0  0  0  0  0  0
  184.5390  177.7120  141.5760 C   0  0  0  0  0  2  0  0  0  0  0  0
  183.5960  177.9520  142.7470 C   0  0  0  0  0  2  0  0  0  0  0  0
  181.3130  178.6720  142.1330 C   0  0  1  0  0  3  0  0  0  0  0  0
  180.6410  179.6930  141.3510 N   0  0  0  0  0  1  0  0  0  0  0  0
  182.7070  179.1560  142.4860 C   0  0  1  0  0  3  0  0  0  0  0  0
  181.6040  179.2010  143.5200 C   0  0  0  0  0  2  0  0  0  0  0  0
  187.7200  177.5840  136.4310 C   0  0  1  0  0  3  0  0  0  0  0  0
  189.5340  178.0960  134.7370 F   0  0  0  0  0  0  0  0  0  0  0  0
  190.2890  175.4760  134.4410 C   0  0  0  0  0  1  0  0  0  0  0  0
  188.9930  175.7130  135.1940 C   0  0  1  0  0  3  0  0  0  0  0  0
  188.6880  177.1610  135.3190 C   0  0  1  0  0  0  0  0  0  0  0  0
  188.0640  176.3550  134.3490 O   0  0  0  0  0  0  0  0  0  0  0  0
  186.4640  176.7140  136.4080 C   0  0  0  0  0  2  0  0  0  0  0  0
  181.8760  176.3660  136.9780 C   0  0  0  0  0  0  0  0  0  0  0  0
  182.9770  177.5230  135.2880 N   0  0  0  0  0  0  0  0  0  0  0  0
  185.3730  177.3740  135.7090 N   0  0  0  0  0  2  0  0  0  0  0  0
  183.5010  176.2540  137.4090 S   0  0  0  0  0  0  0  0  0  0  0  0
  181.7860  177.1070  135.8000 C   0  0  0  0  0  0  0  0  0  0  0  0
  184.0100  177.1270  136.0610 C   0  0  0  0  0  0  0  0  0  0  0  0
  180.5020  177.4040  135.1110 C   0  0  0  0  0  1  0  0  0  0  0  0
  180.7340  175.7680  137.7390 C   0  0  2  0  0  3  0  0  0  0  0  0
  180.2840  175.4050  140.0530 O   0  0  0  0  0  1  0  0  0  0  0  0
  180.6280  176.3870  139.1200 C   0  0  0  0  0  2  0  0  0  0  0  0
  180.9110  174.3310  137.8590 N   0  0  0  0  0  2  0  0  0  0  0  0
  180.2000  173.7200  136.7510 C   0  0  0  0  0  2  0  0  0  0  0  0
  180.5790  172.2510  136.6600 C   0  0  0  0  0  2  0  0  0  0  0  0
  182.5680  172.8650  135.4890 O   0  0  0  0  0  1  0  0  0  0  0  0
  182.0860  172.0970  136.5490 C   0  0  0  0  0  2  0  0  0  0  0  0
  2  4  1  0  0  0  0
  3 12  1  6  0  0  0
  3  5  1  0  0  0  0
  3  9  1  0  0  0  0
  4  9  1  0  0  0  0
  5  9  1  0  0  0  0
  5  1  1  1  0  0  0
  6 10  1  0  0  0  0
  7 27  1  6  0  0  0
  7  2  1  0  0  0  0
  8 13  1  0  0  0  0
  8  7  1  0  0  0  0
  9 16  1  1  0  0  0
 10 43  1  6  0  0  0
 10  1  1  0  0  0  0
 11 12  1  0  0  0  0
 12  6  2  0  0  0  0
 13 49  1  6  0  0  0
 13 11  1  0  0  0  0
 14 18  1  0  0  0  0
 15 14  1  0  0  0  0
 16 15  2  0  0  0  0
 16 17  1  0  0  0  0
 17 18  1  0  0  0  0
 18 19  1  1  0  0  0
 19 23  1  0  0  0  0
 21 24  1  0  0  0  0
 22 19  1  0  0  0  0
 22 21  1  0  0  0  0
 23 20  1  0  0  0  0
 24 20  1  0  0  0  0
 25 26  1  0  0  0  0
 25  6  1  0  0  0  0
 28 27  1  0  0  0  0
 30 29  1  6  0  0  0
 30 28  1  0  0  0  0
 31 32  1  6  0  0  0
 31 30  1  0  0  0  0
 33 31  1  0  0  0  0
 34 33  1  0  0  0  0
 35 36  1  0  0  0  0
 37 34  1  1  0  0  0
 37 42  1  0  0  0  0
 37 40  1  0  0  0  0
 38 40  1  0  0  0  0
 38 35  1  0  0  0  0
 40 39  1  6  0  0  0
 41 42  2  0  0  0  0
 42 36  1  0  0  0  0
 43 44  1  0  0  0  0
 45 46  1  6  0  0  0
 45 47  1  0  0  0  0
 45 48  1  0  0  0  0
 47 44  1  1  0  0  0
 47 48  1  0  0  0  0
 49 55  1  1  0  0  0
 52 51  1  6  0  0  0
 52 53  1  0  0  0  0
 53 50  1  6  0  0  0
 53 49  1  0  0  0  0
 54 52  1  0  0  0  0
 54 53  1  0  0  0  0
 56 59  1  0  0  0  0
 56 63  1  0  0  0  0
 57 60  1  0  0  0  0
 57 61  2  0  0  0  0
 58 61  1  0  0  0  0
 58 55  1  0  0  0  0
 60 56  2  0  0  0  0
 61 59  1  0  0  0  0
 62 60  1  0  0  0  0
 63 66  1  0  0  0  0
 63 65  1  1  0  0  0
 65 64  1  0  0  0  0
 67 66  1  0  0  0  0
 68 67  1  0  0  0  0
 69 70  1  0  0  0  0
 70 68  1  0  0  0  0
M  END
>  <MODEL>
1

>  <REMARK>
 VINA RESULT:      -4.8      0.000      0.000
  Name = 
  23 active torsions:
  status: ('A' for Active; 'I' for Inactive)
    1  A    between atoms: C_1  and  C_60
    2  A    between atoms: C_1  and  C_62
    3  A    between atoms: C_2  and  C_8
    4  A    between atoms: C_2  and  C_66
    5  A    between atoms: C_2  and  C_68
    6  A    between atoms: C_7  and  C_43
    7  A    between atoms: C_7  and  C_48
    8  A    between atoms: C_8  and  N_35
    9  A    between atoms: C_9  and  C_47
   10  A    between atoms: C_14  and  C_49
   11  A    between atoms: C_14  and  C_51
   12  A    between atoms: C_17  and  CA_40
   13  A    between atoms: C_20  and  O_36
   14  A    between atoms: C_21  and  CA_40
   15  A    between atoms: C_25  and  O_38
   16  A    between atoms: C_25  and  C_48
   17  A    between atoms: C_27  and  C_33
   18  A    between atoms: C_29  and  C_56
   19  A    between atoms: C_30  and  C_43
   20  A    between atoms: O_38  and  C_56
   21  A    between atoms: C_39  and  C_51
   22  A    between atoms: CA_40  and  N_42
   23  A    between atoms: N_42  and  C_60
                            x       y       z     vdW  Elec       q    Type
                         _______ _______ _______ _____ _____    ______ ____

>  <TORSDO>
F 23

$$$$
=
 OpenBabel10232409323D

 70 78  0  0  1  0  0  0  0  0999 V2000
  188.1270  178.1590  143.6340 C   0  0  0  0  0  2  0  0  0  0  0  0
  188.0960  178.8450  138.9900 C   0  0  0  0  0  2  0  0  0  0  0  0
  187.6370  177.2580  141.5570 C   0  0  1  0  0  3  0  0  0  0  0  0
  187.0440  179.3510  139.9640 C   0  0  0  0  0  2  0  0  0  0  0  0
  188.0060  178.6240  142.1940 C   0  0  1  0  0  3  0  0  0  0  0  0
  189.8270  176.6180  142.4560 C   0  0  0  0  0  0  0  0  0  0  0  0
  187.6700  177.5200  138.3700 C   0  0  2  0  0  3  0  0  0  0  0  0
  188.8960  176.7390  137.9170 C   0  0  0  0  0  2  0  0  0  0  0  0
  186.8440  178.5300  141.2490 C   0  0  2  0  0  0  0  0  0  0  0  0
  189.4770  177.4070  143.7330 C   0  0  1  0  0  3  0  0  0  0  0  0
  189.2910  175.7910  140.1890 C   0  0  0  0  0  2  0  0  0  0  0  0
  189.0210  176.6810  141.3660 C   0  0  0  0  0  0  0  0  0  0  0  0
  189.9190  176.5720  139.0450 C   0  0  1  0  0  3  0  0  0  0  0  0
  183.6600  179.3060  142.9950 N   0  0  0  0  0  2  0  0  0  0  0  0
  185.0490  179.4480  142.7580 C   0  0  0  0  0  3  0  0  0  0  0  0
  185.4640  178.5870  141.8430 C   0  0  0  0  0  0  0  0  0  0  0  0
  184.3420  177.7370  141.3490 C   0  0  0  0  0  2  0  0  0  0  0  0
  183.1220  178.3130  142.0740 C   0  0  2  0  0  3  0  0  0  0  0  0
  182.1440  178.9670  141.0900 C   0  0  0  0  0  3  0  0  0  0  0  0
  179.9850  178.5250  139.8030 C   0  0  0  0  0  2  0  0  0  0  0  0
  181.6830  179.3610  138.6030 C   0  0  0  0  0  2  0  0  0  0  0  0
  182.7540  179.1620  139.6860 C   0  0  0  0  0  2  0  0  0  0  0  0
  180.8050  178.2080  141.0610 C   0  0  0  0  0  2  0  0  0  0  0  0
  180.4460  179.6970  139.1760 O   0  0  0  0  0  0  0  0  0  0  0  0
  190.9790  175.8210  142.4080 O   0  0  0  0  0  0  0  0  0  0  0  0
  192.2890  176.3610  142.3070 C   0  0  0  0  0  1  0  0  0  0  0  0
  186.7280  177.7570  137.2000 C   0  0  0  0  0  2  0  0  0  0  0  0
  185.3040  177.3740  137.5920 C   0  0  0  0  0  2  0  0  0  0  0  0
  184.4750  176.9580  135.3760 F   0  0  0  0  0  0  0  0  0  0  0  0
  184.6880  176.3710  136.6150 C   0  0  2  0  0  3  0  0  0  0  0  0
  183.3860  175.7630  137.1740 C   0  0  1  0  0  3  0  0  0  0  0  0
  182.2520  175.7400  136.1440 C   0  0  0  0  0  1  0  0  0  0  0  0
  183.5810  174.5040  137.7980 O   0  0  0  0  0  0  0  0  0  0  0  0
  182.9440  173.5200  137.0200 C   0  0  0  0  0  2  0  0  0  0  0  0
  185.9230  171.1160  134.9260 C   0  0  0  0  0  2  0  0  0  0  0  0
  186.1900  172.8330  135.5280 S   0  0  0  0  0  0  0  0  0  0  0  0
  183.7850  172.2590  136.9490 C   0  0  1  0  0  3  0  0  0  0  0  0
  184.6230  170.4480  135.4050 C   0  0  0  0  0  2  0  0  0  0  0  0
  182.1960  170.6840  135.8170 C   0  0  0  0  0  1  0  0  0  0  0  0
  183.4990  171.4520  135.6720 C   0  0  1  0  0  3  0  0  0  0  0  0
  185.7630  172.7860  138.1200 O   0  0  0  0  0  0  0  0  0  0  0  0
  185.2320  172.6400  137.0310 C   0  0  0  0  0  0  0  0  0  0  0  0
  190.5840  178.4110  144.0380 C   0  0  0  0  0  2  0  0  0  0  0  0
  190.9910  178.3370  145.5030 C   0  0  0  0  0  2  0  0  0  0  0  0
  191.5610  176.8280  147.3750 C   0  0  1  0  0  3  0  0  0  0  0  0
  191.9630  175.4540  147.6130 N   0  0  0  0  0  1  0  0  0  0  0  0
  190.8740  176.9150  146.0250 C   0  0  1  0  0  3  0  0  0  0  0  0
  190.0530  176.9100  147.2960 C   0  0  0  0  0  2  0  0  0  0  0  0
  191.2130  175.8960  138.5720 C   0  0  1  0  0  3  0  0  0  0  0  0
  190.6430  175.7360  136.1070 F   0  0  0  0  0  0  0  0  0  0  0  0
  191.7690  173.2550  135.7920 C   0  0  0  0  0  1  0  0  0  0  0  0
  191.6000  173.7310  137.2240 C   0  0  1  0  0  3  0  0  0  0  0  0
  191.0040  175.0900  137.2830 C   0  0  1  0  0  0  0  0  0  0  0  0
  190.2310  173.9350  137.4970 O   0  0  0  0  0  0  0  0  0  0  0  0
  192.2820  176.9680  138.3660 C   0  0  0  0  0  2  0  0  0  0  0  0
  196.1790  174.6340  137.4410 C   0  0  0  0  0  0  0  0  0  0  0  0
  195.0000  175.9960  135.9720 N   0  0  0  0  0  0  0  0  0  0  0  0
  192.9920  176.7760  137.1120 N   0  0  0  0  0  2  0  0  0  0  0  0
  194.7940  175.0510  138.3060 S   0  0  0  0  0  0  0  0  0  0  0  0
  196.1070  175.2320  136.1840 C   0  0  0  0  0  0  0  0  0  0  0  0
  194.1870  175.9950  137.0490 C   0  0  0  0  0  0  0  0  0  0  0  0
  197.1630  175.0960  135.1450 C   0  0  0  0  0  1  0  0  0  0  0  0
  197.2900  173.7670  137.9480 C   0  0  2  0  0  3  0  0  0  0  0  0
  198.1840  171.6450  137.3280 O   0  0  0  0  0  1  0  0  0  0  0  0
  197.0000  172.3050  137.6650 C   0  0  0  0  0  2  0  0  0  0  0  0
  197.4640  173.9640  139.3770 N   0  0  0  0  0  2  0  0  0  0  0  0
  198.1310  175.2400  139.5540 C   0  0  0  0  0  2  0  0  0  0  0  0
  197.5860  175.9240  140.7960 C   0  0  0  0  0  2  0  0  0  0  0  0
  198.1730  176.2000  143.0940 O   0  0  0  0  0  1  0  0  0  0  0  0
  198.1470  175.2760  142.0490 C   0  0  0  0  0  2  0  0  0  0  0  0
  1 10  1  0  0  0  0
  2  4  1  0  0  0  0
  3 12  1  6  0  0  0
  3  5  1  0  0  0  0
  4  9  1  0  0  0  0
  5  1  1  1  0  0  0
  6 10  1  0  0  0  0
  7 27  1  6  0  0  0
  7  2  1  0  0  0  0
  8  7  1  0  0  0  0
  8 13  1  0  0  0  0
  9  3  1  0  0  0  0
  9 16  1  1  0  0  0
  9  5  1  0  0  0  0
 10 43  1  6  0  0  0
 11 12  1  0  0  0  0
 12  6  2  0  0  0  0
 13 49  1  6  0  0  0
 13 11  1  0  0  0  0
 15 14  1  0  0  0  0
 16 15  2  0  0  0  0
 17 16  1  0  0  0  0
 17 18  1  0  0  0  0
 18 19  1  6  0  0  0
 18 14  1  0  0  0  0
 20 23  1  0  0  0  0
 21 24  1  0  0  0  0
 21 22  1  0  0  0  0
 22 19  1  0  0  0  0
 23 19  1  0  0  0  0
 24 20  1  0  0  0  0
 25  6  1  0  0  0  0
 26 25  1  0  0  0  0
 27 28  1  0  0  0  0
 30 29  1  6  0  0  0
 30 31  1  0  0  0  0
 30 28  1  0  0  0  0
 31 32  1  6  0  0  0
 31 33  1  0  0  0  0
 34 33  1  0  0  0  0
 35 38  1  0  0  0  0
 35 36  1  0  0  0  0
 36 42  1  0  0  0  0
 37 34  1  6  0  0  0
 37 42  1  0  0  0  0
 38 40  1  0  0  0  0
 40 39  1  1  0  0  0
 40 37  1  0  0  0  0
 42 41  2  0  0  0  0
 43 44  1  0  0  0  0
 45 46  1  6  0  0  0
 47 44  1  1  0  0  0
 47 48  1  0  0  0  0
 47 45  1  0  0  0  0
 48 45  1  0  0  0  0
 49 55  1  6  0  0  0
 52 51  1  6  0  0  0
 52 53  1  0  0  0  0
 52 54  1  0  0  0  0
 53 50  1  6  0  0  0
 53 54  1  0  0  0  0
 53 49  1  0  0  0  0
 56 63  1  0  0  0  0
 56 59  1  0  0  0  0
 57 60  1  0  0  0  0
 57 61  2  0  0  0  0
 58 55  1  0  0  0  0
 60 56  2  0  0  0  0
 61 58  1  0  0  0  0
 61 59  1  0  0  0  0
 62 60  1  0  0  0  0
 63 65  1  1  0  0  0
 63 66  1  0  0  0  0
 64 65  1  0  0  0  0
 66 67  1  0  0  0  0
 67 68  1  0  0  0  0
 68 70  1  0  0  0  0
 70 69  1  0  0  0  0
M  END
>  <MODEL>
2

>  <REMARK>
 VINA RESULT:      -4.0      3.307     10.531
  Name = 
  23 active torsions:
  status: ('A' for Active; 'I' for Inactive)
    1  A    between atoms: C_1  and  C_60
    2  A    between atoms: C_1  and  C_62
    3  A    between atoms: C_2  and  C_8
    4  A    between atoms: C_2  and  C_66
    5  A    between atoms: C_2  and  C_68
    6  A    between atoms: C_7  and  C_43
    7  A    between atoms: C_7  and  C_48
    8  A    between atoms: C_8  and  N_35
    9  A    between atoms: C_9  and  C_47
   10  A    between atoms: C_14  and  C_49
   11  A    between atoms: C_14  and  C_51
   12  A    between atoms: C_17  and  CA_40
   13  A    between atoms: C_20  and  O_36
   14  A    between atoms: C_21  and  CA_40
   15  A    between atoms: C_25  and  O_38
   16  A    between atoms: C_25  and  C_48
   17  A    between atoms: C_27  and  C_33
   18  A    between atoms: C_29  and  C_56
   19  A    between atoms: C_30  and  C_43
   20  A    between atoms: O_38  and  C_56
   21  A    between atoms: C_39  and  C_51
   22  A    between atoms: CA_40  and  N_42
   23  A    between atoms: N_42  and  C_60
                            x       y       z     vdW  Elec       q    Type
                         _______ _______ _______ _____ _____    ______ ____

>  <TORSDO>
F 23

$$$$
=
 OpenBabel10232409323D

 70 78  0  0  1  0  0  0  0  0999 V2000
  190.4670  177.2530  139.0080 C   0  0  0  0  0  2  0  0  0  0  0  0
  188.0500  173.8600  136.8430 C   0  0  0  0  0  2  0  0  0  0  0  0
  189.4840  176.5490  137.0320 C   0  0  1  0  0  3  0  0  0  0  0  0
  189.5500  173.8540  137.0930 C   0  0  0  0  0  2  0  0  0  0  0  0
  189.8640  175.9870  138.4280 C   0  0  1  0  0  3  0  0  0  0  0  0
  188.0970  178.0550  138.3830 C   0  0  0  0  0  0  0  0  0  0  0  0
  187.7340  174.3910  135.4500 C   0  0  2  0  0  3  0  0  0  0  0  0
  186.3240  174.9640  135.4190 C   0  0  0  0  0  2  0  0  0  0  0  0
  190.2380  175.2270  137.1890 C   0  0  2  0  0  0  0  0  0  0  0  0
  189.2740  178.1710  139.3710 C   0  0  1  0  0  3  0  0  0  0  0  0
  187.0610  177.1680  136.3200 C   0  0  0  0  0  2  0  0  0  0  0  0
  188.1420  177.1630  137.3610 C   0  0  0  0  0  0  0  0  0  0  0  0
  186.1030  176.0050  136.5210 C   0  0  1  0  0  3  0  0  0  0  0  0
  193.9020  175.6620  136.7750 N   0  0  0  0  0  2  0  0  0  0  0  0
  192.6390  175.9720  137.3340 C   0  0  0  0  0  3  0  0  0  0  0  0
  191.6810  175.2560  136.7680 C   0  0  0  0  0  0  0  0  0  0  0  0
  192.2300  174.3480  135.7190 C   0  0  0  0  0  2  0  0  0  0  0  0
  193.7410  174.5750  135.8160 C   0  0  2  0  0  3  0  0  0  0  0  0
  194.4660  173.3150  136.3060 C   0  0  0  0  0  3  0  0  0  0  0  0
  195.4900  172.2630  138.3930 C   0  0  0  0  0  2  0  0  0  0  0  0
  196.7730  172.2350  136.5560 C   0  0  0  0  0  2  0  0  0  0  0  0
  195.8940  173.1910  135.7350 C   0  0  0  0  0  2  0  0  0  0  0  0
  194.4230  173.2190  137.8410 C   0  0  0  0  0  2  0  0  0  0  0  0
  195.9880  171.4180  137.3850 O   0  0  0  0  0  0  0  0  0  0  0  0
  186.9680  178.8750  138.5240 O   0  0  0  0  0  0  0  0  0  0  0  0
  185.9770  178.6610  139.5170 C   0  0  0  0  0  1  0  0  0  0  0  0
  187.8830  173.2880  134.4130 C   0  0  0  0  0  2  0  0  0  0  0  0
  187.0560  172.0730  134.8210 C   0  0  0  0  0  2  0  0  0  0  0  0
  189.1350  170.9660  134.3460 F   0  0  0  0  0  0  0  0  0  0  0  0
  187.9200  170.8230  135.0000 C   0  0  2  0  0  3  0  0  0  0  0  0
  187.1810  169.5540  134.5310 C   0  0  1  0  0  3  0  0  0  0  0  0
  188.0920  168.3230  134.4810 C   0  0  0  0  0  1  0  0  0  0  0  0
  185.9780  169.3120  135.2450 O   0  0  0  0  0  0  0  0  0  0  0  0
  184.9980  170.2070  134.7780 C   0  0  0  0  0  2  0  0  0  0  0  0
  181.0460  171.7600  135.7800 C   0  0  0  0  0  2  0  0  0  0  0  0
  181.4160  170.6680  134.3460 S   0  0  0  0  0  0  0  0  0  0  0  0
  183.8610  170.3300  135.7740 C   0  0  1  0  0  3  0  0  0  0  0  0
  182.1960  171.9340  136.7850 C   0  0  0  0  0  2  0  0  0  0  0  0
  184.6180  172.3000  137.1280 C   0  0  0  0  0  1  0  0  0  0  0  0
  183.5780  171.7960  136.1420 C   0  0  1  0  0  3  0  0  0  0  0  0
  182.4710  168.4760  135.3360 O   0  0  0  0  0  0  0  0  0  0  0  0
  182.6420  169.6760  135.1970 C   0  0  0  0  0  0  0  0  0  0  0  0
  188.7980  177.8360  140.7800 C   0  0  0  0  0  2  0  0  0  0  0  0
  189.7940  178.3310  141.8190 C   0  0  0  0  0  2  0  0  0  0  0  0
  191.0410  177.3570  143.7170 C   0  0  1  0  0  3  0  0  0  0  0  0
  191.0270  176.1850  144.5730 N   0  0  0  0  0  1  0  0  0  0  0  0
  189.6630  177.5430  143.1120 C   0  0  1  0  0  3  0  0  0  0  0  0
  190.1040  178.4060  144.2740 C   0  0  0  0  0  2  0  0  0  0  0  0
  184.6520  176.5000  136.5810 C   0  0  1  0  0  3  0  0  0  0  0  0
  184.2800  174.9900  134.5800 F   0  0  0  0  0  0  0  0  0  0  0  0
  181.6100  175.5760  134.3680 C   0  0  0  0  0  1  0  0  0  0  0  0
  182.4130  176.4640  135.3020 C   0  0  1  0  0  3  0  0  0  0  0  0
  183.8370  176.0490  135.3620 C   0  0  1  0  0  0  0  0  0  0  0  0
  183.4170  177.1340  134.5720 O   0  0  0  0  0  0  0  0  0  0  0  0
  184.0110  175.9920  137.8720 C   0  0  0  0  0  2  0  0  0  0  0  0
  182.9060  178.2690  141.7560 C   0  0  0  0  0  0  0  0  0  0  0  0
  181.5220  177.9050  139.9240 N   0  0  0  0  0  0  0  0  0  0  0  0
  182.8220  176.7580  138.2120 N   0  0  0  0  0  2  0  0  0  0  0  0
  183.9220  177.5420  140.6250 S   0  0  0  0  0  0  0  0  0  0  0  0
  181.6390  178.3960  141.1890 C   0  0  0  0  0  0  0  0  0  0  0  0
  182.6920  177.3990  139.4820 C   0  0  0  0  0  0  0  0  0  0  0  0
  180.4740  178.9870  141.9000 C   0  0  0  0  0  1  0  0  0  0  0  0
  183.3090  178.6990  143.1330 C   0  0  2  0  0  3  0  0  0  0  0  0
  181.9570  178.2960  145.0560 O   0  0  0  0  0  1  0  0  0  0  0  0
  182.0940  179.1220  143.9380 C   0  0  0  0  0  2  0  0  0  0  0  0
  184.2520  179.8020  143.0550 N   0  0  0  0  0  2  0  0  0  0  0  0
  185.5830  179.2280  143.1100 C   0  0  0  0  0  2  0  0  0  0  0  0
  185.6740  178.2800  144.2940 C   0  0  0  0  0  2  0  0  0  0  0  0
  185.3900  178.1700  146.6630 O   0  0  0  0  0  1  0  0  0  0  0  0
  185.5870  179.0520  145.6000 C   0  0  0  0  0  2  0  0  0  0  0  0
  1 10  1  0  0  0  0
  2  4  1  0  0  0  0
  3  9  1  0  0  0  0
  3 12  1  1  0  0  0
  3  5  1  0  0  0  0
  4  9  1  0  0  0  0
  5  1  1  6  0  0  0
  6 25  1  0  0  0  0
  6 10  1  0  0  0  0
  7 27  1  6  0  0  0
  7  2  1  0  0  0  0
  8  7  1  0  0  0  0
  8 13  1  0  0  0  0
  9 16  1  6  0  0  0
  9  5  1  0  0  0  0
 10 43  1  1  0  0  0
 11 13  1  0  0  0  0
 11 12  1  0  0  0  0
 12  6  2  0  0  0  0
 13 49  1  6  0  0  0
 14 15  1  0  0  0  0
 16 15  2  0  0  0  0
 17 18  1  0  0  0  0
 17 16  1  0  0  0  0
 18 19  1  1  0  0  0
 18 14  1  0  0  0  0
 19 23  1  0  0  0  0
 21 24  1  0  0  0  0
 22 19  1  0  0  0  0
 22 21  1  0  0  0  0
 23 20  1  0  0  0  0
 24 20  1  0  0  0  0
 25 26  1  0  0  0  0
 27 28  1  0  0  0  0
 28 30  1  0  0  0  0
 30 29  1  6  0  0  0
 31 32  1  1  0  0  0
 31 30  1  0  0  0  0
 31 33  1  0  0  0  0
 34 33  1  0  0  0  0
 35 38  1  0  0  0  0
 36 42  1  0  0  0  0
 36 35  1  0  0  0  0
 37 34  1  6  0  0  0
 37 40  1  0  0  0  0
 40 38  1  0  0  0  0
 40 39  1  1  0  0  0
 42 41  2  0  0  0  0
 42 37  1  0  0  0  0
 43 44  1  0  0  0  0
 45 48  1  0  0  0  0
 45 46  1  1  0  0  0
 47 44  1  6  0  0  0
 47 45  1  0  0  0  0
 47 48  1  0  0  0  0
 49 55  1  1  0  0  0
 52 51  1  6  0  0  0
 52 53  1  0  0  0  0
 53 50  1  6  0  0  0
 53 49  1  0  0  0  0
 54 52  1  0  0  0  0
 54 53  1  0  0  0  0
 55 58  1  0  0  0  0
 56 63  1  0  0  0  0
 57 60  1  0  0  0  0
 58 61  1  0  0  0  0
 59 56  1  0  0  0  0
 60 56  2  0  0  0  0
 60 62  1  0  0  0  0
 61 57  2  0  0  0  0
 61 59  1  0  0  0  0
 63 65  1  1  0  0  0
 65 64  1  0  0  0  0
 66 67  1  0  0  0  0
 66 63  1  0  0  0  0
 67 68  1  0  0  0  0
 68 70  1  0  0  0  0
 70 69  1  0  0  0  0
M  END
>  <MODEL>
3

>  <REMARK>
 VINA RESULT:      -3.9      3.075      9.105
  Name = 
  23 active torsions:
  status: ('A' for Active; 'I' for Inactive)
    1  A    between atoms: C_1  and  C_60
    2  A    between atoms: C_1  and  C_62
    3  A    between atoms: C_2  and  C_8
    4  A    between atoms: C_2  and  C_66
    5  A    between atoms: C_2  and  C_68
    6  A    between atoms: C_7  and  C_43
    7  A    between atoms: C_7  and  C_48
    8  A    between atoms: C_8  and  N_35
    9  A    between atoms: C_9  and  C_47
   10  A    between atoms: C_14  and  C_49
   11  A    between atoms: C_14  and  C_51
   12  A    between atoms: C_17  and  CA_40
   13  A    between atoms: C_20  and  O_36
   14  A    between atoms: C_21  and  CA_40
   15  A    between atoms: C_25  and  O_38
   16  A    between atoms: C_25  and  C_48
   17  A    between atoms: C_27  and  C_33
   18  A    between atoms: C_29  and  C_56
   19  A    between atoms: C_30  and  C_43
   20  A    between atoms: O_38  and  C_56
   21  A    between atoms: C_39  and  C_51
   22  A    between atoms: CA_40  and  N_42
   23  A    between atoms: N_42  and  C_60
                            x       y       z     vdW  Elec       q    Type
                         _______ _______ _______ _____ _____    ______ ____

>  <TORSDO>
F 23

$$$$
=
 OpenBabel10232409323D

 70 78  0  0  1  0  0  0  0  0999 V2000
  188.3360  178.1990  143.5530 C   0  0  0  0  0  2  0  0  0  0  0  0
  188.3780  178.7750  138.8940 C   0  0  0  0  0  2  0  0  0  0  0  0
  187.8850  177.2470  141.4900 C   0  0  1  0  0  3  0  0  0  0  0  0
  187.3080  179.2980  139.8380 C   0  0  0  0  0  2  0  0  0  0  0  0
  188.2370  178.6290  142.1000 C   0  0  1  0  0  3  0  0  0  0  0  0
  190.0630  176.6410  142.4400 C   0  0  0  0  0  0  0  0  0  0  0  0
  187.9680  177.4330  138.2990 C   0  0  2  0  0  3  0  0  0  0  0  0
  189.2060  176.6480  137.8850 C   0  0  0  0  0  2  0  0  0  0  0  0
  187.0910  178.5070  141.1400 C   0  0  2  0  0  0  0  0  0  0  0  0
  189.6880  177.4580  143.6920 C   0  0  1  0  0  3  0  0  0  0  0  0
  189.5680  175.7560  140.1840 C   0  0  0  0  0  2  0  0  0  0  0  0
  189.2750  176.6730  141.3360 C   0  0  0  0  0  0  0  0  0  0  0  0
  190.2110  176.5130  139.0330 C   0  0  1  0  0  3  0  0  0  0  0  0
  183.8690  179.3170  142.7970 N   0  0  0  0  0  2  0  0  0  0  0  0
  185.2590  179.4700  142.5740 C   0  0  0  0  0  3  0  0  0  0  0  0
  185.7010  178.5710  141.7090 C   0  0  0  0  0  0  0  0  0  0  0  0
  184.6000  177.6790  141.2420 C   0  0  0  0  0  2  0  0  0  0  0  0
  183.3600  178.2700  141.9190 C   0  0  2  0  0  3  0  0  0  0  0  0
  182.3870  178.8580  140.8900 C   0  0  0  0  0  3  0  0  0  0  0  0
  180.5270  178.2000  139.2720 C   0  0  0  0  0  2  0  0  0  0  0  0
  182.1430  179.5010  138.4240 C   0  0  0  0  0  2  0  0  0  0  0  0
  183.1010  179.3590  139.6170 C   0  0  0  0  0  2  0  0  0  0  0  0
  181.2460  177.8710  140.5880 C   0  0  0  0  0  2  0  0  0  0  0  0
  180.8050  179.5130  138.8530 O   0  0  0  0  0  0  0  0  0  0  0  0
  191.2200  175.8480  142.4300 O   0  0  0  0  0  0  0  0  0  0  0  0
  191.6980  175.1640  143.5780 C   0  0  0  0  0  1  0  0  0  0  0  0
  187.0440  177.6370  137.1090 C   0  0  0  0  0  2  0  0  0  0  0  0
  186.0650  176.4720  137.0040 C   0  0  0  0  0  2  0  0  0  0  0  0
  186.5880  176.2670  134.6680 F   0  0  0  0  0  0  0  0  0  0  0  0
  186.3990  175.5430  135.8360 C   0  0  2  0  0  3  0  0  0  0  0  0
  185.3200  174.4570  135.6500 C   0  0  1  0  0  3  0  0  0  0  0  0
  185.8100  173.0610  136.0480 C   0  0  0  0  0  1  0  0  0  0  0  0
  184.0810  174.7920  136.2560 O   0  0  0  0  0  0  0  0  0  0  0  0
  183.2180  175.2800  135.2580 C   0  0  0  0  0  2  0  0  0  0  0  0
  180.3150  172.9320  137.5160 C   0  0  0  0  0  2  0  0  0  0  0  0
  180.9620  174.5770  138.0240 S   0  0  0  0  0  0  0  0  0  0  0  0
  181.8710  174.5850  135.3210 C   0  0  1  0  0  3  0  0  0  0  0  0
  180.6860  172.4940  136.0900 C   0  0  0  0  0  2  0  0  0  0  0  0
  182.4410  172.3430  134.3530 C   0  0  0  0  0  1  0  0  0  0  0  0
  182.0170  173.0820  135.6110 C   0  0  1  0  0  3  0  0  0  0  0  0
  180.3720  176.2400  136.0780 O   0  0  0  0  0  0  0  0  0  0  0  0
  181.0320  175.2550  136.3660 C   0  0  0  0  0  0  0  0  0  0  0  0
  190.7850  178.4740  143.9910 C   0  0  0  0  0  2  0  0  0  0  0  0
  191.3290  178.2840  145.4000 C   0  0  0  0  0  2  0  0  0  0  0  0
  191.6270  176.7040  147.2770 C   0  0  1  0  0  3  0  0  0  0  0  0
  191.6890  175.2770  147.5300 N   0  0  0  0  0  1  0  0  0  0  0  0
  190.8960  176.9430  145.9690 C   0  0  1  0  0  3  0  0  0  0  0  0
  190.1840  177.1600  147.2860 C   0  0  0  0  0  2  0  0  0  0  0  0
  191.5150  175.8330  138.5970 C   0  0  1  0  0  3  0  0  0  0  0  0
  191.1560  175.8130  136.0880 F   0  0  0  0  0  0  0  0  0  0  0  0
  192.1180  173.2660  135.7590 C   0  0  0  0  0  1  0  0  0  0  0  0
  191.8590  173.6980  137.1900 C   0  0  1  0  0  3  0  0  0  0  0  0
  191.3630  175.0960  137.2600 C   0  0  1  0  0  0  0  0  0  0  0  0
  190.4900  173.9980  137.3540 O   0  0  0  0  0  0  0  0  0  0  0  0
  192.6150  176.8900  138.5040 C   0  0  0  0  0  2  0  0  0  0  0  0
  196.3830  174.4190  137.4160 C   0  0  0  0  0  0  0  0  0  0  0  0
  195.3330  176.0020  136.0760 N   0  0  0  0  0  0  0  0  0  0  0  0
  193.3470  176.7860  137.2510 N   0  0  0  0  0  2  0  0  0  0  0  0
  195.0040  174.8310  138.2910 S   0  0  0  0  0  0  0  0  0  0  0  0
  196.3840  175.1500  136.2290 C   0  0  0  0  0  0  0  0  0  0  0  0
  194.4920  175.9410  137.1300 C   0  0  0  0  0  0  0  0  0  0  0  0
  197.4580  175.0560  135.2050 C   0  0  0  0  0  1  0  0  0  0  0  0
  197.4230  173.4330  137.8510 C   0  0  2  0  0  3  0  0  0  0  0  0
  199.1170  174.8320  138.7830 O   0  0  0  0  0  1  0  0  0  0  0  0
  198.8150  174.0160  137.6890 C   0  0  0  0  0  2  0  0  0  0  0  0
  197.3110  172.2120  137.0710 N   0  0  0  0  0  2  0  0  0  0  0  0
  196.2510  171.4220  137.6680 C   0  0  0  0  0  2  0  0  0  0  0  0
  195.0620  171.3810  136.7240 C   0  0  0  0  0  2  0  0  0  0  0  0
  193.9030  169.7030  135.4810 O   0  0  0  0  0  1  0  0  0  0  0  0
  194.4150  170.0070  136.7420 C   0  0  0  0  0  2  0  0  0  0  0  0
  1 10  1  0  0  0  0
  2  4  1  0  0  0  0
  3 12  1  6  0  0  0
  3  5  1  0  0  0  0
  4  9  1  0  0  0  0
  5  1  1  1  0  0  0
  6 10  1  0  0  0  0
  7 27  1  6  0  0  0
  7  2  1  0  0  0  0
  8  7  1  0  0  0  0
  8 13  1  0  0  0  0
  9  3  1  0  0  0  0
  9 16  1  1  0  0  0
  9  5  1  0  0  0  0
 10 43  1  6  0  0  0
 11 12  1  0  0  0  0
 12  6  2  0  0  0  0
 13 49  1  6  0  0  0
 13 11  1  0  0  0  0
 15 14  1  0  0  0  0
 16 15  2  0  0  0  0
 17 16  1  0  0  0  0
 17 18  1  0  0  0  0
 18 19  1  6  0  0  0
 18 14  1  0  0  0  0
 20 23  1  0  0  0  0
 21 24  1  0  0  0  0
 21 22  1  0  0  0  0
 22 19  1  0  0  0  0
 23 19  1  0  0  0  0
 24 20  1  0  0  0  0
 25  6  1  0  0  0  0
 25 26  1  0  0  0  0
 28 27  1  0  0  0  0
 30 29  1  6  0  0  0
 30 28  1  0  0  0  0
 31 30  1  0  0  0  0
 31 32  1  1  0  0  0
 31 33  1  0  0  0  0
 34 33  1  0  0  0  0
 35 36  1  0  0  0  0
 37 34  1  1  0  0  0
 37 40  1  0  0  0  0
 37 42  1  0  0  0  0
 38 35  1  0  0  0  0
 40 39  1  6  0  0  0
 40 38  1  0  0  0  0
 41 42  2  0  0  0  0
 42 36  1  0  0  0  0
 43 44  1  0  0  0  0
 45 48  1  0  0  0  0
 45 46  1  6  0  0  0
 47 44  1  1  0  0  0
 47 45  1  0  0  0  0
 47 48  1  0  0  0  0
 49 55  1  6  0  0  0
 52 51  1  6  0  0  0
 52 53  1  0  0  0  0
 52 54  1  0  0  0  0
 53 50  1  6  0  0  0
 53 54  1  0  0  0  0
 53 49  1  0  0  0  0
 56 63  1  0  0  0  0
 56 59  1  0  0  0  0
 57 60  1  0  0  0  0
 57 61  2  0  0  0  0
 58 55  1  0  0  0  0
 60 56  2  0  0  0  0
 61 58  1  0  0  0  0
 61 59  1  0  0  0  0
 62 60  1  0  0  0  0
 63 65  1  6  0  0  0
 65 64  1  0  0  0  0
 66 67  1  0  0  0  0
 66 63  1  0  0  0  0
 68 70  1  0  0  0  0
 68 67  1  0  0  0  0
 69 70  1  0  0  0  0
M  END
>  <MODEL>
4

>  <REMARK>
 VINA RESULT:      -3.8      3.093     10.691
  Name = 
  23 active torsions:
  status: ('A' for Active; 'I' for Inactive)
    1  A    between atoms: C_1  and  C_60
    2  A    between atoms: C_1  and  C_62
    3  A    between atoms: C_2  and  C_8
    4  A    between atoms: C_2  and  C_66
    5  A    between atoms: C_2  and  C_68
    6  A    between atoms: C_7  and  C_43
    7  A    between atoms: C_7  and  C_48
    8  A    between atoms: C_8  and  N_35
    9  A    between atoms: C_9  and  C_47
   10  A    between atoms: C_14  and  C_49
   11  A    between atoms: C_14  and  C_51
   12  A    between atoms: C_17  and  CA_40
   13  A    between atoms: C_20  and  O_36
   14  A    between atoms: C_21  and  CA_40
   15  A    between atoms: C_25  and  O_38
   16  A    between atoms: C_25  and  C_48
   17  A    between atoms: C_27  and  C_33
   18  A    between atoms: C_29  and  C_56
   19  A    between atoms: C_30  and  C_43
   20  A    between atoms: O_38  and  C_56
   21  A    between atoms: C_39  and  C_51
   22  A    between atoms: CA_40  and  N_42
   23  A    between atoms: N_42  and  C_60
                            x       y       z     vdW  Elec       q    Type
                         _______ _______ _______ _____ _____    ______ ____

>  <TORSDO>
F 23

$$$$
=
 OpenBabel10232409323D

 70 78  0  0  1  0  0  0  0  0999 V2000
  184.3190  178.4360  144.2950 C   0  0  0  0  0  2  0  0  0  0  0  0
  186.4050  179.5190  140.2310 C   0  0  0  0  0  2  0  0  0  0  0  0
  185.2910  177.6290  142.3540 C   0  0  1  0  0  3  0  0  0  0  0  0
  184.9060  179.5350  140.4870 C   0  0  0  0  0  2  0  0  0  0  0  0
  184.7910  178.9690  142.9550 C   0  0  1  0  0  3  0  0  0  0  0  0
  186.7900  177.6980  144.2940 C   0  0  0  0  0  0  0  0  0  0  0  0
  186.8370  178.1950  139.6130 C   0  0  2  0  0  3  0  0  0  0  0  0
  188.3050  177.9310  139.9190 C   0  0  0  0  0  2  0  0  0  0  0  0
  184.3810  178.5740  141.5670 C   0  0  2  0  0  0  0  0  0  0  0  0
  185.5960  178.1900  145.1360 C   0  0  1  0  0  3  0  0  0  0  0  0
  187.7960  176.9610  142.1590 C   0  0  0  0  0  2  0  0  0  0  0  0
  186.6810  177.5850  142.9460 C   0  0  0  0  0  0  0  0  0  0  0  0
  188.6020  178.0180  141.4200 C   0  0  1  0  0  3  0  0  0  0  0  0
  180.7130  178.0230  141.4030 N   0  0  0  0  0  2  0  0  0  0  0  0
  181.8850  178.6460  141.8950 C   0  0  0  0  0  3  0  0  0  0  0  0
  182.9690  178.0940  141.3730 C   0  0  0  0  0  0  0  0  0  0  0  0
  182.6180  176.9910  140.4320 C   0  0  0  0  0  2  0  0  0  0  0  0
  181.0870  177.0330  140.4000 C   0  0  2  0  0  3  0  0  0  0  0  0
  180.5680  177.4460  139.0170 C   0  0  0  0  0  3  0  0  0  0  0  0
  181.3480  177.9450  136.6400 C   0  0  0  0  0  2  0  0  0  0  0  0
  179.9820  179.4660  137.5590 C   0  0  0  0  0  2  0  0  0  0  0  0
  180.0540  178.9010  138.9860 C   0  0  0  0  0  2  0  0  0  0  0  0
  181.6160  177.1560  137.9290 C   0  0  0  0  0  2  0  0  0  0  0  0
  180.0300  178.4360  136.6070 O   0  0  0  0  0  0  0  0  0  0  0  0
  188.0010  177.3540  144.9120 O   0  0  0  0  0  0  0  0  0  0  0  0
  188.2160  176.1030  145.5480 C   0  0  0  0  0  1  0  0  0  0  0  0
  186.6000  178.2060  138.1110 C   0  0  0  0  0  2  0  0  0  0  0  0
  185.7510  177.0040  137.7080 C   0  0  0  0  0  2  0  0  0  0  0  0
  186.5990  176.8060  135.4690 F   0  0  0  0  0  0  0  0  0  0  0  0
  186.4520  176.1270  136.6690 C   0  0  2  0  0  3  0  0  0  0  0  0
  185.7110  174.7900  136.4660 C   0  0  1  0  0  3  0  0  0  0  0  0
  186.3590  173.6310  137.2310 C   0  0  0  0  0  1  0  0  0  0  0  0
  184.3140  174.8840  136.7010 O   0  0  0  0  0  0  0  0  0  0  0  0
  183.6400  174.3870  135.5710 C   0  0  0  0  0  2  0  0  0  0  0  0
  180.9860  171.0130  134.7900 C   0  0  0  0  0  2  0  0  0  0  0  0
  182.8080  170.8900  135.0100 S   0  0  0  0  0  0  0  0  0  0  0  0
  182.4450  173.5470  135.9820 C   0  0  1  0  0  3  0  0  0  0  0  0
  180.3760  172.3840  135.1260 C   0  0  0  0  0  2  0  0  0  0  0  0
  180.5660  174.8430  134.9450 C   0  0  0  0  0  1  0  0  0  0  0  0
  181.3510  173.5430  134.9020 C   0  0  1  0  0  3  0  0  0  0  0  0
  183.3370  171.8760  137.3870 O   0  0  0  0  0  0  0  0  0  0  0  0
  182.9150  172.1540  136.2770 C   0  0  0  0  0  0  0  0  0  0  0  0
  185.9730  179.4780  145.8600 C   0  0  0  0  0  2  0  0  0  0  0  0
  186.1020  179.2380  147.3570 C   0  0  0  0  0  2  0  0  0  0  0  0
  188.4130  178.8300  148.1300 C   0  0  1  0  0  3  0  0  0  0  0  0
  189.5370  177.9500  147.8630 N   0  0  0  0  0  1  0  0  0  0  0  0
  187.1390  178.1650  147.6450 C   0  0  1  0  0  3  0  0  0  0  0  0
  187.4770  178.1740  149.1200 C   0  0  0  0  0  2  0  0  0  0  0  0
  190.0980  177.8780  141.7330 C   0  0  1  0  0  3  0  0  0  0  0  0
  189.7250  175.5280  142.6070 F   0  0  0  0  0  0  0  0  0  0  0  0
  192.0290  175.4900  144.0950 C   0  0  0  0  0  1  0  0  0  0  0  0
  191.6170  176.8430  143.5420 C   0  0  1  0  0  3  0  0  0  0  0  0
  190.3740  176.7500  142.7360 C   0  0  1  0  0  0  0  0  0  0  0  0
  190.3580  177.2050  144.0660 O   0  0  0  0  0  0  0  0  0  0  0  0
  190.8530  177.6310  140.4280 C   0  0  0  0  0  2  0  0  0  0  0  0
  193.9950  175.4440  137.8140 C   0  0  0  0  0  0  0  0  0  0  0  0
  194.2890  176.1910  139.9950 N   0  0  0  0  0  0  0  0  0  0  0  0
  192.2610  177.3610  140.6720 N   0  0  0  0  0  2  0  0  0  0  0  0
  192.5740  176.2870  138.1420 S   0  0  0  0  0  0  0  0  0  0  0  0
  194.8150  175.5120  138.9380 C   0  0  0  0  0  0  0  0  0  0  0  0
  193.0610  176.6710  139.7090 C   0  0  0  0  0  0  0  0  0  0  0  0
  196.1540  174.8700  139.0220 C   0  0  0  0  0  1  0  0  0  0  0  0
  194.3100  174.7440  136.5270 C   0  0  2  0  0  3  0  0  0  0  0  0
  196.0800  176.1820  135.8280 O   0  0  0  0  0  1  0  0  0  0  0  0
  194.8020  175.7330  135.4870 C   0  0  0  0  0  2  0  0  0  0  0  0
  193.1310  174.0570  136.0300 N   0  0  0  0  0  2  0  0  0  0  0  0
  192.3520  175.0300  135.2880 C   0  0  0  0  0  2  0  0  0  0  0  0
  191.1200  174.3530  134.7110 C   0  0  0  0  0  2  0  0  0  0  0  0
  188.7720  174.6550  134.3940 O   0  0  0  0  0  1  0  0  0  0  0  0
  189.9680  175.3380  134.6170 C   0  0  0  0  0  2  0  0  0  0  0  0
  1 10  1  0  0  0  0
  2  4  1  0  0  0  0
  3 12  1  6  0  0  0
  3  5  1  0  0  0  0
  4  9  1  0  0  0  0
  5  1  1  1  0  0  0
  6 25  1  0  0  0  0
  6 10  1  0  0  0  0
  7 27  1  6  0  0  0
  7  8  1  0  0  0  0
  7  2  1  0  0  0  0
  8 13  1  0  0  0  0
  9 16  1  6  0  0  0
  9  3  1  0  0  0  0
  9  5  1  0  0  0  0
 10 43  1  6  0  0  0
 11 12  1  0  0  0  0
 12  6  2  0  0  0  0
 13 49  1  6  0  0  0
 13 11  1  0  0  0  0
 14 15  1  0  0  0  0
 16 15  2  0  0  0  0
 17 16  1  0  0  0  0
 18 19  1  6  0  0  0
 18 17  1  0  0  0  0
 18 14  1  0  0  0  0
 20 23  1  0  0  0  0
 21 22  1  0  0  0  0
 22 19  1  0  0  0  0
 23 19  1  0  0  0  0
 24 20  1  0  0  0  0
 24 21  1  0  0  0  0
 25 26  1  0  0  0  0
 28 27  1  0  0  0  0
 30 29  1  6  0  0  0
 30 28  1  0  0  0  0
 31 30  1  0  0  0  0
 31 33  1  0  0  0  0
 31 32  1  1  0  0  0
 34 33  1  0  0  0  0
 35 36  1  0  0  0  0
 35 38  1  0  0  0  0
 36 42  1  0  0  0  0
 37 34  1  6  0  0  0
 37 42  1  0  0  0  0
 40 39  1  1  0  0  0
 40 38  1  0  0  0  0
 40 37  1  0  0  0  0
 42 41  2  0  0  0  0
 43 44  1  0  0  0  0
 45 46  1  6  0  0  0
 45 48  1  0  0  0  0
 47 44  1  1  0  0  0
 47 45  1  0  0  0  0
 47 48  1  0  0  0  0
 49 55  1  6  0  0  0
 49 53  1  0  0  0  0
 52 54  1  0  0  0  0
 52 51  1  1  0  0  0
 53 50  1  6  0  0  0
 53 52  1  0  0  0  0
 53 54  1  0  0  0  0
 55 58  1  0  0  0  0
 56 59  1  0  0  0  0
 56 60  2  0  0  0  0
 59 61  1  0  0  0  0
 60 62  1  0  0  0  0
 60 57  1  0  0  0  0
 61 57  2  0  0  0  0
 61 58  1  0  0  0  0
 63 65  1  6  0  0  0
 63 56  1  0  0  0  0
 65 64  1  0  0  0  0
 66 63  1  0  0  0  0
 67 66  1  0  0  0  0
 68 67  1  0  0  0  0
 69 70  1  0  0  0  0
 70 68  1  0  0  0  0
M  END
>  <MODEL>
5

>  <REMARK>
 VINA RESULT:      -3.6      2.942     10.320
  Name = 
  23 active torsions:
  status: ('A' for Active; 'I' for Inactive)
    1  A    between atoms: C_1  and  C_60
    2  A    between atoms: C_1  and  C_62
    3  A    between atoms: C_2  and  C_8
    4  A    between atoms: C_2  and  C_66
    5  A    between atoms: C_2  and  C_68
    6  A    between atoms: C_7  and  C_43
    7  A    between atoms: C_7  and  C_48
    8  A    between atoms: C_8  and  N_35
    9  A    between atoms: C_9  and  C_47
   10  A    between atoms: C_14  and  C_49
   11  A    between atoms: C_14  and  C_51
   12  A    between atoms: C_17  and  CA_40
   13  A    between atoms: C_20  and  O_36
   14  A    between atoms: C_21  and  CA_40
   15  A    between atoms: C_25  and  O_38
   16  A    between atoms: C_25  and  C_48
   17  A    between atoms: C_27  and  C_33
   18  A    between atoms: C_29  and  C_56
   19  A    between atoms: C_30  and  C_43
   20  A    between atoms: O_38  and  C_56
   21  A    between atoms: C_39  and  C_51
   22  A    between atoms: CA_40  and  N_42
   23  A    between atoms: N_42  and  C_60
                            x       y       z     vdW  Elec       q    Type
                         _______ _______ _______ _____ _____    ______ ____

>  <TORSDO>
F 23

$$$$
=
 OpenBabel10232409323D

 70 78  0  0  1  0  0  0  0  0999 V2000
  184.3510  178.4610  144.3920 C   0  0  0  0  0  2  0  0  0  0  0  0
  186.5570  179.5340  140.3900 C   0  0  0  0  0  2  0  0  0  0  0  0
  185.3430  177.6500  142.4630 C   0  0  1  0  0  3  0  0  0  0  0  0
  185.0540  179.5890  140.6110 C   0  0  0  0  0  2  0  0  0  0  0  0
  184.8680  178.9970  143.0690 C   0  0  1  0  0  3  0  0  0  0  0  0
  186.8000  177.6540  144.4360 C   0  0  0  0  0  0  0  0  0  0  0  0
  186.9660  178.2060  139.7640 C   0  0  2  0  0  3  0  0  0  0  0  0
  188.4190  177.8980  140.1000 C   0  0  0  0  0  2  0  0  0  0  0  0
  184.4780  178.6300  141.6680 C   0  0  2  0  0  0  0  0  0  0  0  0
  185.6020  178.1690  145.2570 C   0  0  1  0  0  3  0  0  0  0  0  0
  187.8330  176.9150  142.3140 C   0  0  0  0  0  2  0  0  0  0  0  0
  186.7180  177.5600  143.0850 C   0  0  0  0  0  0  0  0  0  0  0  0
  188.6850  177.9580  141.6070 C   0  0  1  0  0  3  0  0  0  0  0  0
  180.8010  178.1670  141.4460 N   0  0  0  0  0  2  0  0  0  0  0  0
  181.9820  178.7360  141.9820 C   0  0  0  0  0  3  0  0  0  0  0  0
  183.0580  178.1930  141.4360 C   0  0  0  0  0  0  0  0  0  0  0  0
  182.6920  177.1530  140.4320 C   0  0  0  0  0  2  0  0  0  0  0  0
  181.1630  177.2290  140.3910 C   0  0  2  0  0  3  0  0  0  0  0  0
  180.6640  177.7310  139.0300 C   0  0  0  0  0  3  0  0  0  0  0  0
  181.4840  178.4240  136.7150 C   0  0  0  0  0  2  0  0  0  0  0  0
  180.0600  179.8400  137.7110 C   0  0  0  0  0  2  0  0  0  0  0  0
  180.1150  179.1720  139.0930 C   0  0  0  0  0  2  0  0  0  0  0  0
  181.7430  177.5480  137.9480 C   0  0  0  0  0  2  0  0  0  0  0  0
  180.1540  178.8840  136.6870 O   0  0  0  0  0  0  0  0  0  0  0  0
  187.9860  177.2690  145.0770 O   0  0  0  0  0  0  0  0  0  0  0  0
  189.0590  178.1670  145.3210 C   0  0  0  0  0  1  0  0  0  0  0  0
  186.7640  178.2410  138.2570 C   0  0  0  0  0  2  0  0  0  0  0  0
  187.0460  176.8660  137.6610 C   0  0  0  0  0  2  0  0  0  0  0  0
  186.8700  178.1770  135.6550 F   0  0  0  0  0  0  0  0  0  0  0  0
  187.1990  176.9200  136.1390 C   0  0  2  0  0  3  0  0  0  0  0  0
  186.3680  175.8200  135.4480 C   0  0  1  0  0  3  0  0  0  0  0  0
  187.1600  175.0640  134.3770 C   0  0  0  0  0  1  0  0  0  0  0  0
  185.7220  174.9500  136.3640 O   0  0  0  0  0  0  0  0  0  0  0  0
  184.3320  175.0840  136.1990 C   0  0  0  0  0  2  0  0  0  0  0  0
  182.7810  171.0060  136.2210 C   0  0  0  0  0  2  0  0  0  0  0  0
  184.5470  171.4590  135.9800 S   0  0  0  0  0  0  0  0  0  0  0  0
  183.5920  173.9750  136.9230 C   0  0  1  0  0  3  0  0  0  0  0  0
  181.8610  172.1590  136.6530 C   0  0  0  0  0  2  0  0  0  0  0  0
  181.2150  174.5270  136.3490 C   0  0  0  0  0  1  0  0  0  0  0  0
  182.3400  173.5250  136.1540 C   0  0  1  0  0  3  0  0  0  0  0  0
  185.2630  172.8130  138.1140 O   0  0  0  0  0  0  0  0  0  0  0  0
  184.5330  172.8280  137.1370 C   0  0  0  0  0  0  0  0  0  0  0  0
  185.9970  179.4370  146.0060 C   0  0  0  0  0  2  0  0  0  0  0  0
  186.2330  179.1430  147.4800 C   0  0  0  0  0  2  0  0  0  0  0  0
  188.2300  178.6080  148.8340 C   0  0  1  0  0  3  0  0  0  0  0  0
  189.5720  178.0770  148.6750 N   0  0  0  0  0  1  0  0  0  0  0  0
  187.3810  178.1630  147.6590 C   0  0  1  0  0  3  0  0  0  0  0  0
  187.2480  177.4700  148.9970 C   0  0  0  0  0  2  0  0  0  0  0  0
  190.1680  177.7720  141.9520 C   0  0  1  0  0  3  0  0  0  0  0  0
  189.9340  175.2690  142.2780 F   0  0  0  0  0  0  0  0  0  0  0  0
  191.9890  175.1010  144.0870 C   0  0  0  0  0  1  0  0  0  0  0  0
  191.5150  176.5020  143.7480 C   0  0  1  0  0  3  0  0  0  0  0  0
  190.4190  176.4840  142.7470 C   0  0  1  0  0  0  0  0  0  0  0  0
  190.1620  176.6480  144.1200 O   0  0  0  0  0  0  0  0  0  0  0  0
  190.9770  177.7680  140.6560 C   0  0  0  0  0  2  0  0  0  0  0  0
  194.0140  175.3550  138.1160 C   0  0  0  0  0  0  0  0  0  0  0  0
  194.3510  176.1760  140.2650 N   0  0  0  0  0  0  0  0  0  0  0  0
  192.3760  177.4520  140.9040 N   0  0  0  0  0  2  0  0  0  0  0  0
  192.6300  176.2670  138.4180 S   0  0  0  0  0  0  0  0  0  0  0  0
  194.8440  175.4360  139.2340 C   0  0  0  0  0  0  0  0  0  0  0  0
  193.1410  176.6930  139.9660 C   0  0  0  0  0  0  0  0  0  0  0  0
  196.1570  174.7440  139.3360 C   0  0  0  0  0  1  0  0  0  0  0  0
  194.2940  174.5940  136.8570 C   0  0  2  0  0  3  0  0  0  0  0  0
  192.0630  173.8340  136.4860 O   0  0  0  0  0  1  0  0  0  0  0  0
  193.0860  174.6140  135.9390 C   0  0  0  0  0  2  0  0  0  0  0  0
  194.6460  173.2190  137.1730 N   0  0  0  0  0  2  0  0  0  0  0  0
  195.3360  172.6810  136.0170 C   0  0  0  0  0  2  0  0  0  0  0  0
  196.5130  171.8380  136.4810 C   0  0  0  0  0  2  0  0  0  0  0  0
  197.0580  169.6390  137.2360 O   0  0  0  0  0  1  0  0  0  0  0  0
  196.0230  170.5720  137.1610 C   0  0  0  0  0  2  0  0  0  0  0  0
  1 10  1  0  0  0  0
  2  4  1  0  0  0  0
  3  5  1  0  0  0  0
  3 12  1  6  0  0  0
  4  9  1  0  0  0  0
  5  1  1  1  0  0  0
  6 25  1  0  0  0  0
  6 10  1  0  0  0  0
  7 27  1  6  0  0  0
  7  8  1  0  0  0  0
  7  2  1  0  0  0  0
  8 13  1  0  0  0  0
  9 16  1  6  0  0  0
  9  3  1  0  0  0  0
  9  5  1  0  0  0  0
 10 43  1  6  0  0  0
 11 12  1  0  0  0  0
 12  6  2  0  0  0  0
 13 49  1  6  0  0  0
 13 11  1  0  0  0  0
 14 15  1  0  0  0  0
 16 15  2  0  0  0  0
 17 16  1  0  0  0  0
 18 19  1  6  0  0  0
 18 17  1  0  0  0  0
 18 14  1  0  0  0  0
 19 22  1  0  0  0  0
 20 23  1  0  0  0  0
 21 22  1  0  0  0  0
 23 19  1  0  0  0  0
 24 20  1  0  0  0  0
 24 21  1  0  0  0  0
 25 26  1  0  0  0  0
 28 27  1  0  0  0  0
 30 29  1  6  0  0  0
 30 28  1  0  0  0  0
 31 32  1  6  0  0  0
 31 30  1  0  0  0  0
 31 33  1  0  0  0  0
 34 33  1  0  0  0  0
 35 38  1  0  0  0  0
 36 35  1  0  0  0  0
 36 42  1  0  0  0  0
 37 34  1  6  0  0  0
 37 42  1  0  0  0  0
 40 39  1  1  0  0  0
 40 38  1  0  0  0  0
 40 37  1  0  0  0  0
 42 41  2  0  0  0  0
 43 44  1  0  0  0  0
 45 46  1  6  0  0  0
 45 48  1  0  0  0  0
 47 44  1  1  0  0  0
 47 45  1  0  0  0  0
 47 48  1  0  0  0  0
 49 55  1  6  0  0  0
 49 53  1  0  0  0  0
 52 51  1  1  0  0  0
 52 54  1  0  0  0  0
 53 50  1  6  0  0  0
 53 52  1  0  0  0  0
 53 54  1  0  0  0  0
 55 58  1  0  0  0  0
 56 59  1  0  0  0  0
 56 60  2  0  0  0  0
 59 61  1  0  0  0  0
 60 62  1  0  0  0  0
 60 57  1  0  0  0  0
 61 57  2  0  0  0  0
 61 58  1  0  0  0  0
 63 65  1  6  0  0  0
 63 66  1  0  0  0  0
 63 56  1  0  0  0  0
 65 64  1  0  0  0  0
 67 68  1  0  0  0  0
 67 66  1  0  0  0  0
 68 70  1  0  0  0  0
 70 69  1  0  0  0  0
M  END
>  <MODEL>
6

>  <REMARK>
 VINA RESULT:      -3.5      2.919     10.318
  Name = 
  23 active torsions:
  status: ('A' for Active; 'I' for Inactive)
    1  A    between atoms: C_1  and  C_60
    2  A    between atoms: C_1  and  C_62
    3  A    between atoms: C_2  and  C_8
    4  A    between atoms: C_2  and  C_66
    5  A    between atoms: C_2  and  C_68
    6  A    between atoms: C_7  and  C_43
    7  A    between atoms: C_7  and  C_48
    8  A    between atoms: C_8  and  N_35
    9  A    between atoms: C_9  and  C_47
   10  A    between atoms: C_14  and  C_49
   11  A    between atoms: C_14  and  C_51
   12  A    between atoms: C_17  and  CA_40
   13  A    between atoms: C_20  and  O_36
   14  A    between atoms: C_21  and  CA_40
   15  A    between atoms: C_25  and  O_38
   16  A    between atoms: C_25  and  C_48
   17  A    between atoms: C_27  and  C_33
   18  A    between atoms: C_29  and  C_56
   19  A    between atoms: C_30  and  C_43
   20  A    between atoms: O_38  and  C_56
   21  A    between atoms: C_39  and  C_51
   22  A    between atoms: CA_40  and  N_42
   23  A    between atoms: N_42  and  C_60
                            x       y       z     vdW  Elec       q    Type
                         _______ _______ _______ _____ _____    ______ ____

>  <TORSDO>
F 23

$$$$
=
 OpenBabel10232409323D

 70 78  0  0  1  0  0  0  0  0999 V2000
  187.0140  178.7030  142.2940 C   0  0  0  0  0  2  0  0  0  0  0  0
  189.4770  175.6850  139.6750 C   0  0  0  0  0  2  0  0  0  0  0  0
  188.5730  178.4500  140.6000 C   0  0  1  0  0  3  0  0  0  0  0  0
  189.8260  176.1140  141.0910 C   0  0  0  0  0  2  0  0  0  0  0  0
  187.8600  177.6000  141.6850 C   0  0  1  0  0  3  0  0  0  0  0  0
  186.2710  178.7940  139.8260 C   0  0  0  0  0  0  0  0  0  0  0  0
  190.2280  176.5290  138.6510 C   0  0  2  0  0  3  0  0  0  0  0  0
  189.4670  176.5450  137.3330 C   0  0  0  0  0  2  0  0  0  0  0  0
  189.3490  177.5110  141.5250 C   0  0  2  0  0  0  0  0  0  0  0  0
  185.8530  178.9540  141.3010 C   0  0  1  0  0  3  0  0  0  0  0  0
  187.9680  178.3950  138.0720 C   0  0  0  0  0  2  0  0  0  0  0  0
  187.5300  178.3980  139.5070 C   0  0  0  0  0  0  0  0  0  0  0  0
  188.0090  176.9800  137.5160 C   0  0  1  0  0  3  0  0  0  0  0  0
  190.9420  179.7100  144.0570 N   0  0  0  0  0  2  0  0  0  0  0  0
  190.0670  179.4380  142.9780 C   0  0  0  0  0  3  0  0  0  0  0  0
  190.1980  178.1880  142.5650 C   0  0  0  0  0  0  0  0  0  0  0  0
  191.2260  177.4580  143.3620 C   0  0  0  0  0  2  0  0  0  0  0  0
  191.6380  178.4820  144.4230 C   0  0  2  0  0  3  0  0  0  0  0  0
  191.2250  178.0290  145.8290 C   0  0  0  0  0  3  0  0  0  0  0  0
  191.2260  175.9960  147.3710 C   0  0  0  0  0  2  0  0  0  0  0  0
  189.2770  177.0900  147.1980 C   0  0  0  0  0  2  0  0  0  0  0  0
  189.6940  177.9660  146.0070 C   0  0  0  0  0  2  0  0  0  0  0  0
  191.9280  176.7140  146.2100 C   0  0  0  0  0  2  0  0  0  0  0  0
  190.3620  176.8660  148.0610 O   0  0  0  0  0  0  0  0  0  0  0  0
  185.3580  179.0610  138.7970 O   0  0  0  0  0  0  0  0  0  0  0  0
  184.1280  179.7370  139.0110 C   0  0  0  0  0  1  0  0  0  0  0  0
  191.6360  175.9930  138.4470 C   0  0  0  0  0  2  0  0  0  0  0  0
  191.6190  174.8610  137.4250 C   0  0  0  0  0  2  0  0  0  0  0  0
  192.6050  175.9660  135.5340 F   0  0  0  0  0  0  0  0  0  0  0  0
  192.7980  174.9460  136.4530 C   0  0  2  0  0  3  0  0  0  0  0  0
  193.0460  173.5980  135.7460 C   0  0  1  0  0  3  0  0  0  0  0  0
  194.0800  173.7010  134.6210 C   0  0  0  0  0  1  0  0  0  0  0  0
  193.3260  172.5380  136.6470 O   0  0  0  0  0  0  0  0  0  0  0  0
  194.4740  171.8630  136.1960 C   0  0  0  0  0  2  0  0  0  0  0  0
  197.9270  169.6530  137.6890 C   0  0  0  0  0  2  0  0  0  0  0  0
  197.9930  171.3380  136.9550 S   0  0  0  0  0  0  0  0  0  0  0  0
  195.1740  171.1590  137.3430 C   0  0  1  0  0  3  0  0  0  0  0  0
  196.5140  169.1160  137.9720 C   0  0  0  0  0  2  0  0  0  0  0  0
  194.1890  168.8590  137.1670 C   0  0  0  0  0  1  0  0  0  0  0  0
  195.4580  169.6830  137.0200 C   0  0  1  0  0  3  0  0  0  0  0  0
  196.4190  172.8480  138.4180 O   0  0  0  0  0  0  0  0  0  0  0  0
  196.4410  171.8940  137.6590 C   0  0  0  0  0  0  0  0  0  0  0  0
  184.7090  177.9970  141.6190 C   0  0  0  0  0  2  0  0  0  0  0  0
  183.6200  178.7020  142.4150 C   0  0  0  0  0  2  0  0  0  0  0  0
  184.0610  179.5910  144.6780 C   0  0  1  0  0  3  0  0  0  0  0  0
  184.6980  179.2010  145.9220 N   0  0  0  0  0  1  0  0  0  0  0  0
  183.7110  178.3440  143.8890 C   0  0  1  0  0  3  0  0  0  0  0  0
  182.6360  179.0840  144.6550 C   0  0  0  0  0  2  0  0  0  0  0  0
  187.1970  176.8820  136.2180 C   0  0  1  0  0  3  0  0  0  0  0  0
  185.7360  178.9520  136.2950 F   0  0  0  0  0  0  0  0  0  0  0  0
  183.4200  177.5950  135.7330 C   0  0  0  0  0  1  0  0  0  0  0  0
  184.6260  176.7390  136.0750 C   0  0  1  0  0  3  0  0  0  0  0  0
  185.8290  177.5670  136.3400 C   0  0  1  0  0  0  0  0  0  0  0  0
  185.0580  177.0310  137.3860 O   0  0  0  0  0  0  0  0  0  0  0  0
  188.0080  177.5050  135.0830 C   0  0  0  0  0  2  0  0  0  0  0  0
  187.9690  172.8700  135.0100 C   0  0  0  0  0  0  0  0  0  0  0  0
  189.7190  174.2490  134.3470 N   0  0  0  0  0  0  0  0  0  0  0  0
  188.9720  176.5610  134.5380 N   0  0  0  0  0  2  0  0  0  0  0  0
  187.3190  174.4200  135.1170 S   0  0  0  0  0  0  0  0  0  0  0  0
  189.2840  172.9770  134.5600 C   0  0  0  0  0  0  0  0  0  0  0  0
  188.7510  175.1510  134.6140 C   0  0  0  0  0  0  0  0  0  0  0  0
  190.1820  171.8080  134.3540 C   0  0  0  0  0  1  0  0  0  0  0  0
  187.2470  171.6020  135.3450 C   0  0  2  0  0  3  0  0  0  0  0  0
  186.6890  169.4760  134.4180 O   0  0  0  0  0  1  0  0  0  0  0  0
  187.6510  170.4880  134.3960 C   0  0  0  0  0  2  0  0  0  0  0  0
  185.8100  171.8100  135.2710 N   0  0  0  0  0  2  0  0  0  0  0  0
  185.5010  172.9480  136.1140 C   0  0  0  0  0  2  0  0  0  0  0  0
  184.0500  172.8660  136.5580 C   0  0  0  0  0  2  0  0  0  0  0  0
  182.3410  171.3590  137.2740 O   0  0  0  0  0  1  0  0  0  0  0  0
  183.6980  171.4440  136.9600 C   0  0  0  0  0  2  0  0  0  0  0  0
  2  4  1  0  0  0  0
  3 12  1  6  0  0  0
  3  9  1  0  0  0  0
  3  5  1  0  0  0  0
  4  9  1  0  0  0  0
  5  1  1  1  0  0  0
  6 10  1  0  0  0  0
  7 27  1  6  0  0  0
  7  2  1  0  0  0  0
  8 13  1  0  0  0  0
  8  7  1  0  0  0  0
  9  5  1  0  0  0  0
  9 16  1  1  0  0  0
 10 43  1  1  0  0  0
 10  1  1  0  0  0  0
 11 12  1  0  0  0  0
 12  6  2  0  0  0  0
 13 49  1  6  0  0  0
 13 11  1  0  0  0  0
 14 18  1  0  0  0  0
 15 14  1  0  0  0  0
 16 15  2  0  0  0  0
 16 17  1  0  0  0  0
 17 18  1  0  0  0  0
 18 19  1  1  0  0  0
 19 22  1  0  0  0  0
 19 23  1  0  0  0  0
 20 24  1  0  0  0  0
 21 24  1  0  0  0  0
 22 21  1  0  0  0  0
 23 20  1  0  0  0  0
 25 26  1  0  0  0  0
 25  6  1  0  0  0  0
 28 27  1  0  0  0  0
 30 29  1  6  0  0  0
 30 28  1  0  0  0  0
 31 32  1  6  0  0  0
 31 30  1  0  0  0  0
 31 33  1  0  0  0  0
 34 33  1  0  0  0  0
 35 38  1  0  0  0  0
 36 42  1  0  0  0  0
 36 35  1  0  0  0  0
 37 34  1  6  0  0  0
 37 42  1  0  0  0  0
 40 39  1  1  0  0  0
 40 37  1  0  0  0  0
 40 38  1  0  0  0  0
 42 41  2  0  0  0  0
 43 44  1  0  0  0  0
 45 46  1  1  0  0  0
 47 44  1  6  0  0  0
 47 48  1  0  0  0  0
 47 45  1  0  0  0  0
 48 45  1  0  0  0  0
 49 55  1  6  0  0  0
 49 53  1  0  0  0  0
 52 51  1  1  0  0  0
 52 53  1  0  0  0  0
 52 54  1  0  0  0  0
 53 50  1  6  0  0  0
 53 54  1  0  0  0  0
 56 59  1  0  0  0  0
 56 63  1  0  0  0  0
 57 60  1  0  0  0  0
 57 61  2  0  0  0  0
 58 61  1  0  0  0  0
 58 55  1  0  0  0  0
 60 56  2  0  0  0  0
 61 59  1  0  0  0  0
 62 60  1  0  0  0  0
 63 65  1  6  0  0  0
 65 64  1  0  0  0  0
 66 63  1  0  0  0  0
 66 67  1  0  0  0  0
 67 68  1  0  0  0  0
 68 70  1  0  0  0  0
 70 69  1  0  0  0  0
M  END
>  <MODEL>
7

>  <REMARK>
 VINA RESULT:      -2.8      2.497      4.070
  Name = 
  23 active torsions:
  status: ('A' for Active; 'I' for Inactive)
    1  A    between atoms: C_1  and  C_60
    2  A    between atoms: C_1  and  C_62
    3  A    between atoms: C_2  and  C_8
    4  A    between atoms: C_2  and  C_66
    5  A    between atoms: C_2  and  C_68
    6  A    between atoms: C_7  and  C_43
    7  A    between atoms: C_7  and  C_48
    8  A    between atoms: C_8  and  N_35
    9  A    between atoms: C_9  and  C_47
   10  A    between atoms: C_14  and  C_49
   11  A    between atoms: C_14  and  C_51
   12  A    between atoms: C_17  and  CA_40
   13  A    between atoms: C_20  and  O_36
   14  A    between atoms: C_21  and  CA_40
   15  A    between atoms: C_25  and  O_38
   16  A    between atoms: C_25  and  C_48
   17  A    between atoms: C_27  and  C_33
   18  A    between atoms: C_29  and  C_56
   19  A    between atoms: C_30  and  C_43
   20  A    between atoms: O_38  and  C_56
   21  A    between atoms: C_39  and  C_51
   22  A    between atoms: CA_40  and  N_42
   23  A    between atoms: N_42  and  C_60
                            x       y       z     vdW  Elec       q    Type
                         _______ _______ _______ _____ _____    ______ ____

>  <TORSDO>
F 23

$$$$
=
 OpenBabel10232409323D

 70 78  0  0  1  0  0  0  0  0999 V2000
  187.7400  178.3710  142.5420 C   0  0  0  0  0  2  0  0  0  0  0  0
  187.8640  178.6110  137.8550 C   0  0  0  0  0  2  0  0  0  0  0  0
  187.3920  177.2490  140.5460 C   0  0  1  0  0  3  0  0  0  0  0  0
  186.7440  179.1400  138.7370 C   0  0  0  0  0  2  0  0  0  0  0  0
  187.6530  178.6890  141.0600 C   0  0  1  0  0  3  0  0  0  0  0  0
  189.5760  176.8360  141.5820 C   0  0  0  0  0  0  0  0  0  0  0  0
  187.5430  177.2090  137.3520 C   0  0  2  0  0  3  0  0  0  0  0  0
  188.8310  176.4680  137.0220 C   0  0  0  0  0  2  0  0  0  0  0  0
  186.5390  178.4330  140.0880 C   0  0  2  0  0  0  0  0  0  0  0  0
  189.1270  177.7190  142.7620 C   0  0  1  0  0  3  0  0  0  0  0  0
  189.1850  175.7650  139.3870 C   0  0  0  0  0  2  0  0  0  0  0  0
  188.8140  176.7440  140.4620 C   0  0  0  0  0  0  0  0  0  0  0  0
  189.8140  176.4730  138.1970 C   0  0  1  0  0  3  0  0  0  0  0  0
  183.3110  179.0540  141.8140 N   0  0  0  0  0  2  0  0  0  0  0  0
  184.7160  179.1550  141.6680 C   0  0  0  0  0  3  0  0  0  0  0  0
  185.1340  178.4590  140.6230 C   0  0  0  0  0  0  0  0  0  0  0  0
  183.9980  177.7860  139.9290 C   0  0  0  0  0  2  0  0  0  0  0  0
  182.7720  178.2860  140.6980 C   0  0  2  0  0  3  0  0  0  0  0  0
  181.8810  179.1710  139.8180 C   0  0  0  0  0  3  0  0  0  0  0  0
  181.9150  181.3080  138.4230 C   0  0  0  0  0  2  0  0  0  0  0  0
  180.2160  181.1140  139.8720 C   0  0  0  0  0  2  0  0  0  0  0  0
  180.7870  179.9030  140.6240 C   0  0  0  0  0  2  0  0  0  0  0  0
  182.7310  180.1240  138.9590 C   0  0  0  0  0  2  0  0  0  0  0  0
  180.5340  181.0540  138.5060 O   0  0  0  0  0  0  0  0  0  0  0  0
  190.7750  176.1120  141.6530 O   0  0  0  0  0  0  0  0  0  0  0  0
  192.0170  176.6280  141.2000 C   0  0  0  0  0  1  0  0  0  0  0  0
  186.6380  177.2750  136.1320 C   0  0  0  0  0  2  0  0  0  0  0  0
  185.3100  176.5860  136.4290 C   0  0  0  0  0  2  0  0  0  0  0  0
  186.5890  174.9960  137.6960 F   0  0  0  0  0  0  0  0  0  0  0  0
  185.5000  175.1270  136.8480 C   0  0  2  0  0  3  0  0  0  0  0  0
  185.6320  174.2000  135.6230 C   0  0  1  0  0  3  0  0  0  0  0  0
  186.4500  172.9380  135.9200 C   0  0  0  0  0  1  0  0  0  0  0  0
  184.3880  173.9090  135.0050 O   0  0  0  0  0  0  0  0  0  0  0  0
  183.3600  174.4160  135.8200 C   0  0  0  0  0  2  0  0  0  0  0  0
  181.2940  170.8650  134.3510 C   0  0  0  0  0  2  0  0  0  0  0  0
  183.0720  170.9320  134.8140 S   0  0  0  0  0  0  0  0  0  0  0  0
  182.2420  173.4010  135.9740 C   0  0  1  0  0  3  0  0  0  0  0  0
  180.4710  172.1090  134.7260 C   0  0  0  0  0  2  0  0  0  0  0  0
  180.3590  174.5780  134.8100 C   0  0  0  0  0  1  0  0  0  0  0  0
  181.3060  173.3920  134.7550 C   0  0  1  0  0  3  0  0  0  0  0  0
  183.1570  171.6990  137.3250 O   0  0  0  0  0  0  0  0  0  0  0  0
  182.8480  172.0490  136.1990 C   0  0  0  0  0  0  0  0  0  0  0  0
  190.1580  178.8140  143.0090 C   0  0  0  0  0  2  0  0  0  0  0  0
  190.3410  179.0600  144.5000 C   0  0  0  0  0  2  0  0  0  0  0  0
  190.6880  177.5420  146.4190 C   0  0  1  0  0  3  0  0  0  0  0  0
  191.7580  177.0370  147.2580 N   0  0  0  0  0  1  0  0  0  0  0  0
  191.2750  178.0270  145.1070 C   0  0  1  0  0  3  0  0  0  0  0  0
  190.5710  176.6890  145.1750 C   0  0  0  0  0  2  0  0  0  0  0  0
  191.1640  175.8380  137.8380 C   0  0  1  0  0  3  0  0  0  0  0  0
  191.1010  175.7350  135.3070 F   0  0  0  0  0  0  0  0  0  0  0  0
  191.8580  173.1020  135.1850 C   0  0  0  0  0  1  0  0  0  0  0  0
  191.4730  173.6200  136.5590 C   0  0  1  0  0  3  0  0  0  0  0  0
  191.1030  175.0570  136.5190 C   0  0  1  0  0  0  0  0  0  0  0  0
  190.1280  174.0440  136.5460 O   0  0  0  0  0  0  0  0  0  0  0  0
  192.2210  176.9390  137.7600 C   0  0  0  0  0  2  0  0  0  0  0  0
  196.1700  174.5990  137.1120 C   0  0  0  0  0  0  0  0  0  0  0  0
  195.1530  176.0430  135.6000 N   0  0  0  0  0  0  0  0  0  0  0  0
  193.0500  176.7960  136.5740 N   0  0  0  0  0  2  0  0  0  0  0  0
  194.7100  174.9930  137.8560 S   0  0  0  0  0  0  0  0  0  0  0  0
  196.2280  175.2560  135.8840 C   0  0  0  0  0  0  0  0  0  0  0  0
  194.2390  176.0030  136.5920 C   0  0  0  0  0  0  0  0  0  0  0  0
  197.3800  175.1540  134.9490 C   0  0  0  0  0  1  0  0  0  0  0  0
  197.2180  173.6950  137.6840 C   0  0  2  0  0  3  0  0  0  0  0  0
  198.1130  175.4400  139.0410 O   0  0  0  0  0  1  0  0  0  0  0  0
  198.4510  174.4860  138.0780 C   0  0  0  0  0  2  0  0  0  0  0  0
  197.5800  172.6740  136.7150 N   0  0  0  0  0  2  0  0  0  0  0  0
  197.3550  171.3880  137.3460 C   0  0  0  0  0  2  0  0  0  0  0  0
  197.7190  170.2790  136.3720 C   0  0  0  0  0  2  0  0  0  0  0  0
  199.2780  170.4280  134.5690 O   0  0  0  0  0  1  0  0  0  0  0  0
  198.0220  170.8560  135.0000 C   0  0  0  0  0  2  0  0  0  0  0  0
  1 10  1  0  0  0  0
  2  4  1  0  0  0  0
  3 12  1  6  0  0  0
  3  5  1  0  0  0  0
  4  9  1  0  0  0  0
  5  1  1  1  0  0  0
  6 25  1  0  0  0  0
  6 10  1  0  0  0  0
  7 27  1  6  0  0  0
  7  2  1  0  0  0  0
  8  7  1  0  0  0  0
  8 13  1  0  0  0  0
  9  3  1  0  0  0  0
  9 16  1  1  0  0  0
  9  5  1  0  0  0  0
 10 43  1  6  0  0  0
 11 12  1  0  0  0  0
 12  6  2  0  0  0  0
 13 49  1  6  0  0  0
 13 11  1  0  0  0  0
 15 14  1  0  0  0  0
 16 15  2  0  0  0  0
 17 16  1  0  0  0  0
 17 18  1  0  0  0  0
 18 19  1  6  0  0  0
 18 14  1  0  0  0  0
 19 22  1  0  0  0  0
 20 24  1  0  0  0  0
 20 23  1  0  0  0  0
 21 22  1  0  0  0  0
 23 19  1  0  0  0  0
 24 21  1  0  0  0  0
 26 25  1  0  0  0  0
 27 28  1  0  0  0  0
 28 30  1  0  0  0  0
 30 29  1  1  0  0  0
 31 32  1  1  0  0  0
 31 30  1  0  0  0  0
 33 31  1  0  0  0  0
 33 34  1  0  0  0  0
 35 38  1  0  0  0  0
 35 36  1  0  0  0  0
 36 42  1  0  0  0  0
 37 34  1  6  0  0  0
 37 42  1  0  0  0  0
 38 40  1  0  0  0  0
 40 39  1  1  0  0  0
 40 37  1  0  0  0  0
 42 41  2  0  0  0  0
 43 44  1  0  0  0  0
 45 46  1  1  0  0  0
 47 44  1  6  0  0  0
 47 48  1  0  0  0  0
 47 45  1  0  0  0  0
 48 45  1  0  0  0  0
 49 55  1  6  0  0  0
 52 51  1  6  0  0  0
 53 50  1  6  0  0  0
 53 54  1  0  0  0  0
 53 52  1  0  0  0  0
 53 49  1  0  0  0  0
 54 52  1  0  0  0  0
 56 63  1  0  0  0  0
 56 59  1  0  0  0  0
 57 60  1  0  0  0  0
 57 61  2  0  0  0  0
 58 61  1  0  0  0  0
 58 55  1  0  0  0  0
 60 56  2  0  0  0  0
 61 59  1  0  0  0  0
 62 60  1  0  0  0  0
 63 65  1  6  0  0  0
 65 64  1  0  0  0  0
 66 67  1  0  0  0  0
 66 63  1  0  0  0  0
 68 67  1  0  0  0  0
 69 70  1  0  0  0  0
 70 68  1  0  0  0  0
M  END
>  <MODEL>
8

>  <REMARK>
 VINA RESULT:      -2.1      3.170     10.767
  Name = 
  23 active torsions:
  status: ('A' for Active; 'I' for Inactive)
    1  A    between atoms: C_1  and  C_60
    2  A    between atoms: C_1  and  C_62
    3  A    between atoms: C_2  and  C_8
    4  A    between atoms: C_2  and  C_66
    5  A    between atoms: C_2  and  C_68
    6  A    between atoms: C_7  and  C_43
    7  A    between atoms: C_7  and  C_48
    8  A    between atoms: C_8  and  N_35
    9  A    between atoms: C_9  and  C_47
   10  A    between atoms: C_14  and  C_49
   11  A    between atoms: C_14  and  C_51
   12  A    between atoms: C_17  and  CA_40
   13  A    between atoms: C_20  and  O_36
   14  A    between atoms: C_21  and  CA_40
   15  A    between atoms: C_25  and  O_38
   16  A    between atoms: C_25  and  C_48
   17  A    between atoms: C_27  and  C_33
   18  A    between atoms: C_29  and  C_56
   19  A    between atoms: C_30  and  C_43
   20  A    between atoms: O_38  and  C_56
   21  A    between atoms: C_39  and  C_51
   22  A    between atoms: CA_40  and  N_42
   23  A    between atoms: N_42  and  C_60
                            x       y       z     vdW  Elec       q    Type
                         _______ _______ _______ _____ _____    ______ ____

>  <TORSDO>
F 23

$$$$
