=
 OpenBabel10232408553D

 51 54  0  0  1  0  0  0  0  0999 V2000
  186.4180  177.7010  143.1280 C   0  0  0  0  0  0  0  0  0  0  0  0
  182.4480  179.1470  143.5370 C   0  0  0  0  0  0  0  0  0  0  0  0
  187.5810  177.2060  142.7490 C   0  0  0  0  0  3  0  0  0  0  0  0
  184.5560  178.3080  144.6710 C   0  0  0  0  0  3  0  0  0  0  0  0
  185.1680  178.1350  143.3260 C   0  0  0  0  0  0  0  0  0  0  0  0
  185.0590  178.5870  141.0010 N   0  0  0  0  0  0  0  0  0  0  0  0
  182.9470  178.9630  142.2780 C   0  0  0  0  0  3  0  0  0  0  0  0
  183.3020  178.8170  144.7710 C   0  0  0  0  0  3  0  0  0  0  0  0
  184.3900  178.5420  142.1050 C   0  0  0  0  0  0  0  0  0  0  0  0
  184.6780  180.0960  139.2610 O   0  0  0  0  0  0  0  0  0  0  0  0
  184.7950  178.9100  139.5950 C   0  0  0  0  0  0  0  0  0  0  0  0
  184.6050  177.8100  138.6070 C   0  0  0  0  0  0  0  0  0  0  0  0
  183.5000  175.9550  137.6100 C   0  0  0  0  0  0  0  0  0  0  0  0
  185.5760  176.6450  136.6850 C   0  0  0  0  0  3  0  0  0  0  0  0
  183.4850  176.9550  138.5680 C   0  0  0  0  0  3  0  0  0  0  0  0
  185.6340  177.5880  137.6500 C   0  0  0  0  0  3  0  0  0  0  0  0
  184.4710  175.8190  136.6140 C   0  0  0  0  0  0  0  0  0  0  0  0
  181.3220  175.3540  138.6950 C   0  0  0  0  0  1  0  0  0  0  0  0
  182.4390  175.0500  137.8740 O   0  0  0  0  0  0  0  0  0  0  0  0
  184.7290  174.7920  135.5100 C   0  0  0  0  0  2  0  0  0  0  0  0
  186.0880  174.4830  135.2870 O   0  0  0  0  0  0  0  0  0  0  0  0
  186.3020  173.2310  135.8800 C   0  0  0  0  0  2  0  0  0  0  0  0
  187.6610  173.1850  136.6190 C   0  0  0  0  0  2  0  0  0  0  0  0
  188.7180  173.4690  135.6740 N   0  0  0  0  0  2  0  0  0  0  0  0
  191.1100  173.6770  136.3490 C   0  0  2  0  0  3  0  0  0  0  0  0
  189.7410  174.2990  136.2710 C   0  0  2  0  0  3  0  0  0  0  0  0
  190.3440  173.6620  137.4320 O   0  0  0  0  0  0  0  0  0  0  0  0
  192.2180  174.7050  136.4720 C   0  0  0  0  0  2  0  0  0  0  0  0
  193.0650  174.5040  137.7670 C   0  0  0  0  0  2  0  0  0  0  0  0
  194.6070  174.7370  137.7540 C   0  0  0  0  0  2  0  0  0  0  0  0
  195.4180  173.4870  138.1160 C   0  0  0  0  0  0  0  0  0  0  0  0
  196.6950  173.4030  137.5530 O   0  0  0  0  0  0  0  0  0  0  0  0
  195.1810  172.7430  139.0680 O   0  0  0  0  0  1  0  0  0  0  0  0
  189.0070  177.8250  142.6500 C   0  0  1  0  0  3  0  0  0  0  0  0
  190.7550  176.4070  144.9670 C   0  0  0  0  0  2  0  0  0  0  0  0
  188.8650  177.3870  146.7640 C   0  0  0  0  0  2  0  0  0  0  0  0
  189.9960  177.9210  144.3040 P   0  0  2  0  0  0  0  0  0  0  0  0
  191.2720  176.6870  146.4170 C   0  0  1  0  0  3  0  0  0  0  0  0
  189.1820  178.5500  145.8280 C   0  0  0  0  0  2  0  0  0  0  0  0
  191.1760  178.8170  144.0980 O   0  0  0  0  0  0  0  0  0  0  0  0
  190.1410  176.8700  147.4080 C   0  0  0  0  0  2  0  0  0  0  0  0
  192.7900  176.0480  148.1810 O   0  0  0  0  0  1  0  0  0  0  0  0
  192.7670  174.6910  146.3290 O   0  0  0  0  0  0  0  0  0  0  0  0
  192.3310  175.8410  147.0130 C   0  0  0  0  0  0  0  0  0  0  0  0
  189.8330  177.1160  141.5090 C   0  0  0  0  0  2  0  0  0  0  0  0
  190.9800  177.0460  138.8070 O   0  0  0  0  0  1  0  0  0  0  0  0
  188.5120  178.1720  139.1480 O   0  0  0  0  0  0  0  0  0  0  0  0
  189.7690  177.6730  139.7860 P   0  0  1  0  0  4  0  0  0  0  0  0
  180.9650  179.3250  143.7740 C   0  0  0  0  0  2  0  0  0  0  0  0
  180.0120  177.9550  141.8190 C   0  0  0  0  0  1  0  0  0  0  0  0
  179.9820  178.1820  143.3150 C   0  0  0  0  0  2  0  0  0  0  0  0
  1  5  2  0  0  0  0
  2 49  1  0  0  0  0
  2  8  1  0  0  0  0
  3  1  2  0  0  0  0
  4  8  2  0  0  0  0
  5  4  1  0  0  0  0
  6  9  2  0  0  0  0
  7  2  2  0  0  0  0
  9  7  1  0  0  0  0
  9  5  1  0  0  0  0
 10 11  2  0  0  0  0
 11  6  1  0  0  0  0
 12 11  1  0  0  0  0
 13 19  1  0  0  0  0
 13 15  2  0  0  0  0
 14 16  1  0  0  0  0
 15 12  1  0  0  0  0
 16 12  2  0  0  0  0
 17 14  2  0  0  0  0
 17 13  1  0  0  0  0
 19 18  1  0  0  0  0
 20 17  1  0  0  0  0
 21 20  1  0  0  0  0
 21 22  1  0  0  0  0
 22 23  1  0  0  0  0
 24 23  1  0  0  0  0
 25 28  1  1  0  0  0
 25 27  1  0  0  0  0
 26 24  1  6  0  0  0
 26 25  1  0  0  0  0
 26 27  1  0  0  0  0
 28 29  1  0  0  0  0
 30 29  1  0  0  0  0
 30 31  1  0  0  0  0
 31 33  1  0  0  0  0
 32 31  2  0  0  0  0
 34 45  1  6  0  0  0
 34  3  1  0  0  0  0
 34 37  1  0  0  0  0
 35 38  1  0  0  0  0
 36 41  1  0  0  0  0
 37 40  2  6  0  0  0
 37 35  1  0  0  0  0
 37 39  1  0  0  0  0
 38 44  1  1  0  0  0
 38 41  1  0  0  0  0
 39 36  1  0  0  0  0
 43 44  2  0  0  0  0
 44 42  1  0  0  0  0
 47 48  2  0  0  0  0
 48 46  1  6  0  0  0
 48 45  1  0  0  0  0
 50 51  1  0  0  0  0
 51 49  1  0  0  0  0
M  END
>  <MODEL>
1

>  <REMARK>
 VINA RESULT:      -7.6      0.000      0.000
  Name = 
  20 active torsions:
  status: ('A' for Active; 'I' for Inactive)
    1  A    between atoms: C_1  and  C_9
    2  A    between atoms: C_1  and  C_10
    3  A    between atoms: C_1  and  P_34
    4  A    between atoms: C_4  and  C_28
    5  A    between atoms: C_6  and  N_38
    6  A    between atoms: C_6  and  C_39
    7  A    between atoms: C_7  and  C_17
    8  A    between atoms: C_7  and  C_18
    9  A    between atoms: C_8  and  C_32
   10  A    between atoms: C_10  and  P_49
   11  A    between atoms: C_15  and  C_32
   12  A    between atoms: C_16  and  O_27
   13  A    between atoms: C_17  and  C_36
   14  A    between atoms: N_23  and  C_28
   15  A    between atoms: C_26  and  O_29
   16  A    between atoms: C_26  and  C_50
   17  A    between atoms: O_29  and  C_39
   18  A    between atoms: C_31  and  N_38
   19  A    between atoms: C_33  and  C_42
   20  A    between atoms: C_36  and  C_37
                            x       y       z     vdW  Elec       q    Type
                         _______ _______ _______ _____ _____    ______ ____

>  <TORSDO>
F 20

$$$$
=
 OpenBabel10232408553D

 51 54  0  0  1  0  0  0  0  0999 V2000
  186.3160  177.0980  135.9140 C   0  0  0  0  0  0  0  0  0  0  0  0
  183.2620  178.5210  138.4970 C   0  0  0  0  0  0  0  0  0  0  0  0
  187.4210  176.8210  135.2490 C   0  0  0  0  0  3  0  0  0  0  0  0
  183.8700  177.3430  136.3350 C   0  0  0  0  0  3  0  0  0  0  0  0
  185.3050  177.5360  136.6740 C   0  0  0  0  0  0  0  0  0  0  0  0
  186.9170  178.1090  138.3160 N   0  0  0  0  0  0  0  0  0  0  0  0
  184.5640  178.7640  138.8330 C   0  0  0  0  0  3  0  0  0  0  0  0
  182.9180  177.7670  137.2030 C   0  0  0  0  0  3  0  0  0  0  0  0
  185.6720  178.1850  137.9810 C   0  0  0  0  0  0  0  0  0  0  0  0
  188.8780  179.0230  139.1950 O   0  0  0  0  0  0  0  0  0  0  0  0
  187.7590  178.5490  139.4340 C   0  0  0  0  0  0  0  0  0  0  0  0
  187.2880  178.3600  140.8340 C   0  0  0  0  0  0  0  0  0  0  0  0
  185.8270  178.6450  142.6900 C   0  0  0  0  0  0  0  0  0  0  0  0
  187.7990  177.3610  143.0090 C   0  0  0  0  0  3  0  0  0  0  0  0
  186.0820  178.8790  141.3490 C   0  0  0  0  0  3  0  0  0  0  0  0
  188.1190  177.6270  141.7250 C   0  0  0  0  0  3  0  0  0  0  0  0
  186.6070  177.8350  143.5200 C   0  0  0  0  0  0  0  0  0  0  0  0
  183.8390  179.0940  144.1490 C   0  0  0  0  0  1  0  0  0  0  0  0
  184.7210  179.4380  143.0920 O   0  0  0  0  0  0  0  0  0  0  0  0
  186.5640  177.4810  145.0070 C   0  0  0  0  0  2  0  0  0  0  0  0
  186.8450  178.5500  145.8850 O   0  0  0  0  0  0  0  0  0  0  0  0
  186.1800  178.2540  147.0820 C   0  0  0  0  0  2  0  0  0  0  0  0
  187.1320  178.3670  148.2970 C   0  0  0  0  0  2  0  0  0  0  0  0
  188.4340  178.7910  147.8340 N   0  0  0  0  0  2  0  0  0  0  0  0
  189.8720  177.0230  146.8200 C   0  0  2  0  0  3  0  0  0  0  0  0
  189.4260  177.7620  148.0540 C   0  0  2  0  0  3  0  0  0  0  0  0
  188.9610  176.4590  147.6030 O   0  0  0  0  0  0  0  0  0  0  0  0
  191.2270  176.3630  146.9870 C   0  0  0  0  0  2  0  0  0  0  0  0
  191.9110  176.0700  145.6150 C   0  0  0  0  0  2  0  0  0  0  0  0
  191.1760  176.3810  144.2760 C   0  0  0  0  0  2  0  0  0  0  0  0
  191.7070  177.6290  143.5610 C   0  0  0  0  0  0  0  0  0  0  0  0
  191.8470  177.5260  142.1730 O   0  0  0  0  0  0  0  0  0  0  0  0
  191.7150  178.7640  144.0370 O   0  0  0  0  0  1  0  0  0  0  0  0
  188.2590  175.5170  135.0970 C   0  0  1  0  0  3  0  0  0  0  0  0
  191.2420  176.0530  136.2130 C   0  0  0  0  0  2  0  0  0  0  0  0
  191.5650  173.2870  136.2040 C   0  0  0  0  0  2  0  0  0  0  0  0
  189.6290  175.2400  136.4270 P   0  0  2  0  0  0  0  0  0  0  0  0
  192.2470  175.4800  137.2660 C   0  0  1  0  0  3  0  0  0  0  0  0
  190.1940  173.5370  136.8260 C   0  0  0  0  0  2  0  0  0  0  0  0
  189.1470  175.8020  137.7270 O   0  0  0  0  0  0  0  0  0  0  0  0
  192.6350  174.0450  136.9720 C   0  0  0  0  0  2  0  0  0  0  0  0
  194.4190  176.4530  136.8630 O   0  0  0  0  0  0  0  0  0  0  0  0
  193.4740  176.9050  138.9060 O   0  0  0  0  0  1  0  0  0  0  0  0
  193.4460  176.2550  137.6590 C   0  0  0  0  0  0  0  0  0  0  0  0
  187.3060  174.2680  134.9630 C   0  0  0  0  0  2  0  0  0  0  0  0
  184.9250  174.0090  136.6620 O   0  0  0  0  0  1  0  0  0  0  0  0
  186.9510  172.2000  136.9710 O   0  0  0  0  0  0  0  0  0  0  0  0
  186.5060  173.5090  136.4000 P   0  0  1  0  0  4  0  0  0  0  0  0
  182.1280  179.2700  139.1600 C   0  0  0  0  0  2  0  0  0  0  0  0
  180.4900  181.2490  139.2630 C   0  0  0  0  0  1  0  0  0  0  0  0
  181.7400  180.6960  138.6130 C   0  0  0  0  0  2  0  0  0  0  0  0
  1  5  2  0  0  0  0
  2  7  2  0  0  0  0
  2 49  1  0  0  0  0
  3  1  2  0  0  0  0
  4  5  1  0  0  0  0
  4  8  2  0  0  0  0
  5  9  1  0  0  0  0
  6 11  1  0  0  0  0
  8  2  1  0  0  0  0
  9  6  2  0  0  0  0
  9  7  1  0  0  0  0
 10 11  2  0  0  0  0
 11 12  1  0  0  0  0
 12 15  2  0  0  0  0
 12 16  1  0  0  0  0
 13 19  1  0  0  0  0
 13 17  2  0  0  0  0
 14 17  1  0  0  0  0
 15 13  1  0  0  0  0
 16 14  2  0  0  0  0
 17 20  1  0  0  0  0
 19 18  1  0  0  0  0
 20 21  1  0  0  0  0
 21 22  1  0  0  0  0
 22 23  1  0  0  0  0
 24 23  1  0  0  0  0
 25 28  1  1  0  0  0
 25 27  1  0  0  0  0
 25 26  1  0  0  0  0
 26 24  1  6  0  0  0
 27 26  1  0  0  0  0
 29 28  1  0  0  0  0
 30 29  1  0  0  0  0
 31 33  1  0  0  0  0
 31 30  1  0  0  0  0
 32 31  2  0  0  0  0
 34 45  1  1  0  0  0
 34  3  1  0  0  0  0
 34 37  1  0  0  0  0
 35 37  1  0  0  0  0
 35 38  1  0  0  0  0
 36 39  1  0  0  0  0
 36 41  1  0  0  0  0
 37 39  1  0  0  0  0
 37 40  2  1  0  0  0
 38 44  1  6  0  0  0
 41 38  1  0  0  0  0
 42 44  2  0  0  0  0
 44 43  1  0  0  0  0
 45 48  1  0  0  0  0
 48 46  1  6  0  0  0
 48 47  2  0  0  0  0
 51 49  1  0  0  0  0
 51 50  1  0  0  0  0
M  END
>  <MODEL>
2

>  <REMARK>
 VINA RESULT:      -7.5      2.639      8.252
  Name = 
  20 active torsions:
  status: ('A' for Active; 'I' for Inactive)
    1  A    between atoms: C_1  and  C_9
    2  A    between atoms: C_1  and  C_10
    3  A    between atoms: C_1  and  P_34
    4  A    between atoms: C_4  and  C_28
    5  A    between atoms: C_6  and  N_38
    6  A    between atoms: C_6  and  C_39
    7  A    between atoms: C_7  and  C_17
    8  A    between atoms: C_7  and  C_18
    9  A    between atoms: C_8  and  C_32
   10  A    between atoms: C_10  and  P_49
   11  A    between atoms: C_15  and  C_32
   12  A    between atoms: C_16  and  O_27
   13  A    between atoms: C_17  and  C_36
   14  A    between atoms: N_23  and  C_28
   15  A    between atoms: C_26  and  O_29
   16  A    between atoms: C_26  and  C_50
   17  A    between atoms: O_29  and  C_39
   18  A    between atoms: C_31  and  N_38
   19  A    between atoms: C_33  and  C_42
   20  A    between atoms: C_36  and  C_37
                            x       y       z     vdW  Elec       q    Type
                         _______ _______ _______ _____ _____    ______ ____

>  <TORSDO>
F 20

$$$$
=
 OpenBabel10232408553D

 51 54  0  0  1  0  0  0  0  0999 V2000
  186.1680  177.6340  143.1810 C   0  0  0  0  0  0  0  0  0  0  0  0
  182.2860  179.3260  143.4710 C   0  0  0  0  0  0  0  0  0  0  0  0
  187.3030  177.0530  142.8410 C   0  0  0  0  0  3  0  0  0  0  0  0
  184.3320  178.4300  144.6700 C   0  0  0  0  0  3  0  0  0  0  0  0
  184.9440  178.1490  143.3430 C   0  0  0  0  0  0  0  0  0  0  0  0
  184.8780  178.4810  140.9960 N   0  0  0  0  0  0  0  0  0  0  0  0
  182.7820  179.0470  142.2290 C   0  0  0  0  0  3  0  0  0  0  0  0
  183.1100  179.0140  144.7290 C   0  0  0  0  0  3  0  0  0  0  0  0
  184.1990  178.5340  142.0930 C   0  0  0  0  0  0  0  0  0  0  0  0
  184.8680  179.8740  139.1220 O   0  0  0  0  0  0  0  0  0  0  0  0
  184.6440  178.7430  139.5720 C   0  0  0  0  0  0  0  0  0  0  0  0
  184.0780  177.6690  138.7060 C   0  0  0  0  0  0  0  0  0  0  0  0
  183.7130  176.4860  136.6760 C   0  0  0  0  0  0  0  0  0  0  0  0
  182.6000  175.7200  138.6290 C   0  0  0  0  0  3  0  0  0  0  0  0
  184.3680  177.5120  137.3350 C   0  0  0  0  0  3  0  0  0  0  0  0
  183.1630  176.7520  139.2920 C   0  0  0  0  0  3  0  0  0  0  0  0
  182.8980  175.5330  137.2930 C   0  0  0  0  0  0  0  0  0  0  0  0
  183.0970  177.4100  134.4290 C   0  0  0  0  0  1  0  0  0  0  0  0
  183.9230  176.6300  135.2800 O   0  0  0  0  0  0  0  0  0  0  0  0
  182.0420  174.3730  136.7840 C   0  0  0  0  0  2  0  0  0  0  0  0
  182.7230  173.4390  135.9740 O   0  0  0  0  0  0  0  0  0  0  0  0
  182.9450  172.3150  136.7810 C   0  0  0  0  0  2  0  0  0  0  0  0
  184.2820  171.6230  136.4240 C   0  0  0  0  0  2  0  0  0  0  0  0
  185.0630  172.5110  135.5930 N   0  0  0  0  0  2  0  0  0  0  0  0
  186.9090  174.1590  135.9000 C   0  0  2  0  0  3  0  0  0  0  0  0
  186.3460  172.7940  136.1960 C   0  0  2  0  0  3  0  0  0  0  0  0
  187.3510  173.1240  135.1970 O   0  0  0  0  0  0  0  0  0  0  0  0
  187.9350  174.6080  136.9220 C   0  0  0  0  0  2  0  0  0  0  0  0
  187.7010  176.0820  137.3810 C   0  0  0  0  0  2  0  0  0  0  0  0
  188.7110  177.2050  136.9960 C   0  0  0  0  0  2  0  0  0  0  0  0
  188.4470  178.5370  137.7080 C   0  0  0  0  0  0  0  0  0  0  0  0
  187.9580  178.4450  139.0150 O   0  0  0  0  0  1  0  0  0  0  0  0
  188.9070  179.6260  137.3620 O   0  0  0  0  0  0  0  0  0  0  0  0
  188.7620  177.5820  142.7240 C   0  0  1  0  0  3  0  0  0  0  0  0
  190.6130  176.4490  145.1170 C   0  0  0  0  0  2  0  0  0  0  0  0
  188.5820  177.2490  146.8460 C   0  0  0  0  0  2  0  0  0  0  0  0
  189.6960  177.8430  144.3930 P   0  0  2  0  0  0  0  0  0  0  0  0
  191.0610  176.8310  146.5670 C   0  0  1  0  0  3  0  0  0  0  0  0
  188.7800  178.4150  145.8800 C   0  0  0  0  0  2  0  0  0  0  0  0
  190.7660  178.8670  144.1810 O   0  0  0  0  0  0  0  0  0  0  0  0
  189.8950  176.9060  147.5300 C   0  0  0  0  0  2  0  0  0  0  0  0
  192.6600  176.4840  148.3420 O   0  0  0  0  0  1  0  0  0  0  0  0
  192.7190  174.9670  146.6200 O   0  0  0  0  0  0  0  0  0  0  0  0
  192.1990  176.1340  147.2090 C   0  0  0  0  0  0  0  0  0  0  0  0
  189.5880  176.6920  141.7190 C   0  0  0  0  0  2  0  0  0  0  0  0
  192.4430  177.3760  141.7990 O   0  0  0  0  0  1  0  0  0  0  0  0
  191.1940  177.2730  139.3700 O   0  0  0  0  0  0  0  0  0  0  0  0
  191.0540  177.3180  140.8580 P   0  0  1  0  0  4  0  0  0  0  0  0
  180.8130  179.6020  143.6830 C   0  0  0  0  0  2  0  0  0  0  0  0
  180.1540  179.4690  141.2020 C   0  0  0  0  0  1  0  0  0  0  0  0
  179.9820  180.2280  142.4990 C   0  0  0  0  0  2  0  0  0  0  0  0
  1  5  2  0  0  0  0
  2 49  1  0  0  0  0
  2  8  1  0  0  0  0
  3  1  2  0  0  0  0
  4  8  2  0  0  0  0
  5  4  1  0  0  0  0
  6  9  2  0  0  0  0
  7  2  2  0  0  0  0
  9  7  1  0  0  0  0
  9  5  1  0  0  0  0
 10 11  2  0  0  0  0
 11  6  1  0  0  0  0
 12 16  1  0  0  0  0
 12 11  1  0  0  0  0
 13 17  2  0  0  0  0
 13 15  1  0  0  0  0
 14 16  2  0  0  0  0
 15 12  2  0  0  0  0
 17 14  1  0  0  0  0
 18 19  1  0  0  0  0
 19 13  1  0  0  0  0
 20 17  1  0  0  0  0
 21 22  1  0  0  0  0
 21 20  1  0  0  0  0
 23 22  1  0  0  0  0
 24 23  1  0  0  0  0
 25 26  1  0  0  0  0
 25 28  1  1  0  0  0
 26 24  1  6  0  0  0
 27 25  1  0  0  0  0
 27 26  1  0  0  0  0
 28 29  1  0  0  0  0
 30 29  1  0  0  0  0
 30 31  1  0  0  0  0
 31 32  1  0  0  0  0
 33 31  2  0  0  0  0
 34 45  1  6  0  0  0
 34  3  1  0  0  0  0
 34 37  1  0  0  0  0
 35 38  1  0  0  0  0
 36 41  1  0  0  0  0
 37 40  2  6  0  0  0
 37 35  1  0  0  0  0
 37 39  1  0  0  0  0
 38 44  1  1  0  0  0
 38 41  1  0  0  0  0
 39 36  1  0  0  0  0
 43 44  2  0  0  0  0
 44 42  1  0  0  0  0
 48 47  2  6  0  0  0
 48 45  1  0  0  0  0
 48 46  1  0  0  0  0
 50 51  1  0  0  0  0
 51 49  1  0  0  0  0
M  END
>  <MODEL>
3

>  <REMARK>
 VINA RESULT:      -7.5      2.467      3.336
  Name = 
  20 active torsions:
  status: ('A' for Active; 'I' for Inactive)
    1  A    between atoms: C_1  and  C_9
    2  A    between atoms: C_1  and  C_10
    3  A    between atoms: C_1  and  P_34
    4  A    between atoms: C_4  and  C_28
    5  A    between atoms: C_6  and  N_38
    6  A    between atoms: C_6  and  C_39
    7  A    between atoms: C_7  and  C_17
    8  A    between atoms: C_7  and  C_18
    9  A    between atoms: C_8  and  C_32
   10  A    between atoms: C_10  and  P_49
   11  A    between atoms: C_15  and  C_32
   12  A    between atoms: C_16  and  O_27
   13  A    between atoms: C_17  and  C_36
   14  A    between atoms: N_23  and  C_28
   15  A    between atoms: C_26  and  O_29
   16  A    between atoms: C_26  and  C_50
   17  A    between atoms: O_29  and  C_39
   18  A    between atoms: C_31  and  N_38
   19  A    between atoms: C_33  and  C_42
   20  A    between atoms: C_36  and  C_37
                            x       y       z     vdW  Elec       q    Type
                         _______ _______ _______ _____ _____    ______ ____

>  <TORSDO>
F 20

$$$$
=
 OpenBabel10232408553D

 51 54  0  0  1  0  0  0  0  0999 V2000
  190.6110  176.6930  139.0300 C   0  0  0  0  0  0  0  0  0  0  0  0
  193.0540  174.1400  136.6770 C   0  0  0  0  0  0  0  0  0  0  0  0
  189.6650  177.4320  139.5790 C   0  0  0  0  0  3  0  0  0  0  0  0
  192.9190  175.9420  138.4580 C   0  0  0  0  0  3  0  0  0  0  0  0
  191.4390  175.9280  138.3090 C   0  0  0  0  0  0  0  0  0  0  0  0
  189.5200  174.8280  137.4530 N   0  0  0  0  0  0  0  0  0  0  0  0
  191.7040  174.1210  136.4700 C   0  0  0  0  0  3  0  0  0  0  0  0
  193.6690  175.0810  137.7260 C   0  0  0  0  0  3  0  0  0  0  0  0
  190.8030  174.9490  137.3600 C   0  0  0  0  0  0  0  0  0  0  0  0
  188.7770  173.1160  136.0500 O   0  0  0  0  0  0  0  0  0  0  0  0
  188.4630  174.0500  136.7990 C   0  0  0  0  0  0  0  0  0  0  0  0
  187.0350  174.4340  136.9910 C   0  0  0  0  0  0  0  0  0  0  0  0
  185.1850  175.9230  137.1060 C   0  0  0  0  0  0  0  0  0  0  0  0
  184.7960  173.6250  137.5620 C   0  0  0  0  0  3  0  0  0  0  0  0
  186.5320  175.7420  136.8390 C   0  0  0  0  0  3  0  0  0  0  0  0
  186.1180  173.4190  137.3810 C   0  0  0  0  0  3  0  0  0  0  0  0
  184.2810  174.8950  137.3860 C   0  0  0  0  0  0  0  0  0  0  0  0
  185.6740  178.2530  137.8920 C   0  0  0  0  0  1  0  0  0  0  0  0
  184.9100  177.3150  137.1490 O   0  0  0  0  0  0  0  0  0  0  0  0
  182.8000  174.8520  137.7620 C   0  0  0  0  0  2  0  0  0  0  0  0
  182.4760  175.4740  138.9870 O   0  0  0  0  0  0  0  0  0  0  0  0
  181.1320  175.8580  138.8830 C   0  0  0  0  0  2  0  0  0  0  0  0
  180.9400  177.3430  139.2750 C   0  0  0  0  0  2  0  0  0  0  0  0
  180.6200  177.4180  140.6820 N   0  0  0  0  0  2  0  0  0  0  0  0
  181.4370  178.4750  142.7880 C   0  0  2  0  0  3  0  0  0  0  0  0
  181.2440  178.5680  141.2970 C   0  0  2  0  0  3  0  0  0  0  0  0
  180.3980  179.1570  142.3240 O   0  0  0  0  0  0  0  0  0  0  0  0
  182.5200  179.4040  143.3010 C   0  0  0  0  0  2  0  0  0  0  0  0
  183.1480  178.8950  144.6360 C   0  0  0  0  0  2  0  0  0  0  0  0
  184.5620  179.3750  145.0850 C   0  0  0  0  0  2  0  0  0  0  0  0
  184.9840  178.8390  146.4580 C   0  0  0  0  0  0  0  0  0  0  0  0
  185.9210  179.6090  147.1540 O   0  0  0  0  0  1  0  0  0  0  0  0
  184.3610  178.0000  147.1090 O   0  0  0  0  0  0  0  0  0  0  0  0
  188.9220  177.3440  140.9450 C   0  0  1  0  0  3  0  0  0  0  0  0
  189.4200  177.3330  144.1370 C   0  0  0  0  0  2  0  0  0  0  0  0
  191.7880  178.7000  143.6060 C   0  0  0  0  0  2  0  0  0  0  0  0
  190.0200  176.9110  142.4720 P   0  0  2  0  0  0  0  0  0  0  0  0
  190.5780  177.1170  145.1660 C   0  0  1  0  0  3  0  0  0  0  0  0
  191.7340  177.5630  142.5880 C   0  0  0  0  0  2  0  0  0  0  0  0
  190.1660  175.4240  142.5420 O   0  0  0  0  0  0  0  0  0  0  0  0
  191.6820  178.1440  145.0160 C   0  0  0  0  0  2  0  0  0  0  0  0
  191.1600  177.0380  147.5070 O   0  0  0  0  0  1  0  0  0  0  0  0
  188.9490  176.6790  147.0050 O   0  0  0  0  0  0  0  0  0  0  0  0
  190.2770  176.9080  146.6010 C   0  0  0  0  0  0  0  0  0  0  0  0
  188.0640  178.6450  141.1850 C   0  0  0  0  0  2  0  0  0  0  0  0
  186.0690  177.5790  143.0560 O   0  0  0  0  0  1  0  0  0  0  0  0
  185.3550  179.6600  141.4350 O   0  0  0  0  0  0  0  0  0  0  0  0
  186.3380  178.5740  141.7320 P   0  0  1  0  0  4  0  0  0  0  0  0
  194.0100  173.5340  135.6740 C   0  0  0  0  0  2  0  0  0  0  0  0
  195.7560  172.1160  136.9190 C   0  0  0  0  0  1  0  0  0  0  0  0
  195.5220  173.3550  136.0820 C   0  0  0  0  0  2  0  0  0  0  0  0
  1  3  2  0  0  0  0
  2  8  1  0  0  0  0
  5  4  1  0  0  0  0
  5  1  2  0  0  0  0
  7  2  2  0  0  0  0
  7  9  1  0  0  0  0
  8  4  2  0  0  0  0
  9  6  2  0  0  0  0
  9  5  1  0  0  0  0
 10 11  2  0  0  0  0
 11 12  1  0  0  0  0
 11  6  1  0  0  0  0
 12 16  1  0  0  0  0
 13 19  1  0  0  0  0
 13 17  2  0  0  0  0
 15 12  2  0  0  0  0
 15 13  1  0  0  0  0
 16 14  2  0  0  0  0
 17 14  1  0  0  0  0
 17 20  1  0  0  0  0
 19 18  1  0  0  0  0
 20 21  1  0  0  0  0
 22 21  1  0  0  0  0
 22 23  1  0  0  0  0
 23 24  1  0  0  0  0
 25 28  1  6  0  0  0
 26 24  1  1  0  0  0
 26 27  1  0  0  0  0
 26 25  1  0  0  0  0
 27 25  1  0  0  0  0
 28 29  1  0  0  0  0
 29 30  1  0  0  0  0
 30 31  1  0  0  0  0
 31 33  2  0  0  0  0
 31 32  1  0  0  0  0
 34  3  1  6  0  0  0
 34 45  1  0  0  0  0
 34 37  1  0  0  0  0
 35 38  1  0  0  0  0
 36 41  1  0  0  0  0
 37 40  2  6  0  0  0
 37 39  1  0  0  0  0
 37 35  1  0  0  0  0
 38 44  1  1  0  0  0
 39 36  1  0  0  0  0
 41 38  1  0  0  0  0
 44 43  2  0  0  0  0
 44 42  1  0  0  0  0
 45 48  1  0  0  0  0
 48 47  2  1  0  0  0
 48 46  1  0  0  0  0
 49 51  1  0  0  0  0
 49  2  1  0  0  0  0
 51 50  1  0  0  0  0
M  END
>  <MODEL>
4

>  <REMARK>
 VINA RESULT:      -7.3      2.596      8.856
  Name = 
  20 active torsions:
  status: ('A' for Active; 'I' for Inactive)
    1  A    between atoms: C_1  and  C_9
    2  A    between atoms: C_1  and  C_10
    3  A    between atoms: C_1  and  P_34
    4  A    between atoms: C_4  and  C_28
    5  A    between atoms: C_6  and  N_38
    6  A    between atoms: C_6  and  C_39
    7  A    between atoms: C_7  and  C_17
    8  A    between atoms: C_7  and  C_18
    9  A    between atoms: C_8  and  C_32
   10  A    between atoms: C_10  and  P_49
   11  A    between atoms: C_15  and  C_32
   12  A    between atoms: C_16  and  O_27
   13  A    between atoms: C_17  and  C_36
   14  A    between atoms: N_23  and  C_28
   15  A    between atoms: C_26  and  O_29
   16  A    between atoms: C_26  and  C_50
   17  A    between atoms: O_29  and  C_39
   18  A    between atoms: C_31  and  N_38
   19  A    between atoms: C_33  and  C_42
   20  A    between atoms: C_36  and  C_37
                            x       y       z     vdW  Elec       q    Type
                         _______ _______ _______ _____ _____    ______ ____

>  <TORSDO>
F 20

$$$$
=
 OpenBabel10232408553D

 51 54  0  0  1  0  0  0  0  0999 V2000
  186.3180  177.5910  143.1510 C   0  0  0  0  0  0  0  0  0  0  0  0
  182.3960  179.2080  143.2920 C   0  0  0  0  0  0  0  0  0  0  0  0
  187.4840  177.0510  142.8500 C   0  0  0  0  0  3  0  0  0  0  0  0
  184.3680  178.2440  144.5620 C   0  0  0  0  0  3  0  0  0  0  0  0
  185.0770  178.0770  143.2650 C   0  0  0  0  0  0  0  0  0  0  0  0
  185.1720  178.5920  140.9520 N   0  0  0  0  0  0  0  0  0  0  0  0
  182.9840  179.0340  142.0710 C   0  0  0  0  0  3  0  0  0  0  0  0
  183.1340  178.8070  144.5780 C   0  0  0  0  0  3  0  0  0  0  0  0
  184.4160  178.5500  141.9980 C   0  0  0  0  0  0  0  0  0  0  0  0
  184.4450  180.0120  139.2460 O   0  0  0  0  0  0  0  0  0  0  0  0
  185.0340  178.9630  139.5390 C   0  0  0  0  0  0  0  0  0  0  0  0
  185.5430  178.0450  138.4810 C   0  0  0  0  0  0  0  0  0  0  0  0
  187.1850  177.0420  137.0850 C   0  0  0  0  0  0  0  0  0  0  0  0
  184.9220  176.3820  136.7960 C   0  0  0  0  0  3  0  0  0  0  0  0
  186.9000  177.9090  138.1260 C   0  0  0  0  0  3  0  0  0  0  0  0
  184.5950  177.2700  137.7580 C   0  0  0  0  0  3  0  0  0  0  0  0
  186.2510  176.2130  136.4580 C   0  0  0  0  0  0  0  0  0  0  0  0
  188.9500  177.7470  135.4490 C   0  0  0  0  0  1  0  0  0  0  0  0
  188.5410  177.2170  136.7010 O   0  0  0  0  0  0  0  0  0  0  0  0
  186.3110  175.2420  135.2780 C   0  0  0  0  0  2  0  0  0  0  0  0
  187.5950  174.7340  134.9870 O   0  0  0  0  0  0  0  0  0  0  0  0
  187.6050  173.4130  135.4570 C   0  0  0  0  0  2  0  0  0  0  0  0
  189.0470  172.9310  135.7460 C   0  0  0  0  0  2  0  0  0  0  0  0
  189.9090  174.0830  135.8790 N   0  0  0  0  0  2  0  0  0  0  0  0
  192.3140  174.2570  136.5150 C   0  0  2  0  0  3  0  0  0  0  0  0
  190.9110  173.8690  136.8990 C   0  0  2  0  0  3  0  0  0  0  0  0
  191.9660  172.9790  136.4410 O   0  0  0  0  0  0  0  0  0  0  0  0
  193.2040  174.5180  137.7140 C   0  0  0  0  0  2  0  0  0  0  0  0
  194.6850  174.1050  137.4500 C   0  0  0  0  0  2  0  0  0  0  0  0
  195.7550  174.2110  138.5790 C   0  0  0  0  0  2  0  0  0  0  0  0
  197.1970  174.2350  138.0560 C   0  0  0  0  0  0  0  0  0  0  0  0
  197.9820  175.3120  138.4790 O   0  0  0  0  0  1  0  0  0  0  0  0
  197.7910  173.2680  137.5800 O   0  0  0  0  0  0  0  0  0  0  0  0
  188.9390  177.6050  142.8800 C   0  0  1  0  0  3  0  0  0  0  0  0
  190.5520  176.5220  145.4600 C   0  0  0  0  0  2  0  0  0  0  0  0
  188.3390  177.2940  146.9640 C   0  0  0  0  0  2  0  0  0  0  0  0
  189.6900  177.8940  144.6350 P   0  0  2  0  0  0  0  0  0  0  0  0
  190.8410  176.9210  146.9460 C   0  0  1  0  0  3  0  0  0  0  0  0
  188.6150  178.4570  146.0140 C   0  0  0  0  0  2  0  0  0  0  0  0
  190.7580  178.9360  144.5260 O   0  0  0  0  0  0  0  0  0  0  0  0
  189.5800  176.9800  147.7830 C   0  0  0  0  0  2  0  0  0  0  0  0
  192.7020  176.8840  148.4830 O   0  0  0  0  0  1  0  0  0  0  0  0
  192.0160  174.8450  147.6810 O   0  0  0  0  0  0  0  0  0  0  0  0
  191.9190  176.2490  147.7070 C   0  0  0  0  0  0  0  0  0  0  0  0
  189.8790  176.7230  141.9740 C   0  0  0  0  0  2  0  0  0  0  0  0
  189.4010  178.4500  139.6480 O   0  0  0  0  0  1  0  0  0  0  0  0
  191.7160  176.9990  139.7410 O   0  0  0  0  0  0  0  0  0  0  0  0
  190.3450  177.2230  140.2960 P   0  0  1  0  0  4  0  0  0  0  0  0
  180.9080  179.4490  143.4180 C   0  0  0  0  0  2  0  0  0  0  0  0
  180.4090  177.8840  141.4410 C   0  0  0  0  0  1  0  0  0  0  0  0
  179.9820  179.1310  142.1840 C   0  0  0  0  0  2  0  0  0  0  0  0
  1  5  2  0  0  0  0
  2 49  1  0  0  0  0
  2  8  1  0  0  0  0
  3 34  1  0  0  0  0
  3  1  2  0  0  0  0
  4  8  2  0  0  0  0
  5  4  1  0  0  0  0
  6  9  2  0  0  0  0
  7  2  2  0  0  0  0
  9  7  1  0  0  0  0
  9  5  1  0  0  0  0
 10 11  2  0  0  0  0
 11  6  1  0  0  0  0
 12 11  1  0  0  0  0
 13 15  2  0  0  0  0
 14 16  1  0  0  0  0
 15 12  1  0  0  0  0
 16 12  2  0  0  0  0
 17 14  2  0  0  0  0
 17 13  1  0  0  0  0
 18 19  1  0  0  0  0
 19 13  1  0  0  0  0
 20 17  1  0  0  0  0
 21 20  1  0  0  0  0
 21 22  1  0  0  0  0
 22 23  1  0  0  0  0
 23 24  1  0  0  0  0
 25 26  1  0  0  0  0
 25 28  1  1  0  0  0
 26 24  1  6  0  0  0
 27 25  1  0  0  0  0
 27 26  1  0  0  0  0
 29 28  1  0  0  0  0
 29 30  1  0  0  0  0
 31 32  1  0  0  0  0
 31 30  1  0  0  0  0
 33 31  2  0  0  0  0
 34 45  1  1  0  0  0
 34 37  1  0  0  0  0
 35 38  1  0  0  0  0
 36 41  1  0  0  0  0
 37 40  2  6  0  0  0
 37 35  1  0  0  0  0
 37 39  1  0  0  0  0
 38 44  1  1  0  0  0
 38 41  1  0  0  0  0
 39 36  1  0  0  0  0
 43 44  2  0  0  0  0
 44 42  1  0  0  0  0
 47 48  2  0  0  0  0
 48 46  1  1  0  0  0
 48 45  1  0  0  0  0
 50 51  1  0  0  0  0
 51 49  1  0  0  0  0
M  END
>  <MODEL>
5

>  <REMARK>
 VINA RESULT:      -7.1      1.368      2.105
  Name = 
  20 active torsions:
  status: ('A' for Active; 'I' for Inactive)
    1  A    between atoms: C_1  and  C_9
    2  A    between atoms: C_1  and  C_10
    3  A    between atoms: C_1  and  P_34
    4  A    between atoms: C_4  and  C_28
    5  A    between atoms: C_6  and  N_38
    6  A    between atoms: C_6  and  C_39
    7  A    between atoms: C_7  and  C_17
    8  A    between atoms: C_7  and  C_18
    9  A    between atoms: C_8  and  C_32
   10  A    between atoms: C_10  and  P_49
   11  A    between atoms: C_15  and  C_32
   12  A    between atoms: C_16  and  O_27
   13  A    between atoms: C_17  and  C_36
   14  A    between atoms: N_23  and  C_28
   15  A    between atoms: C_26  and  O_29
   16  A    between atoms: C_26  and  C_50
   17  A    between atoms: O_29  and  C_39
   18  A    between atoms: C_31  and  N_38
   19  A    between atoms: C_33  and  C_42
   20  A    between atoms: C_36  and  C_37
                            x       y       z     vdW  Elec       q    Type
                         _______ _______ _______ _____ _____    ______ ____

>  <TORSDO>
F 20

$$$$
=
 OpenBabel10232408553D

 51 54  0  0  1  0  0  0  0  0999 V2000
  187.8240  174.4160  136.9560 C   0  0  0  0  0  0  0  0  0  0  0  0
  191.9140  175.3500  137.6050 C   0  0  0  0  0  0  0  0  0  0  0  0
  186.5100  174.2940  136.9560 C   0  0  0  0  0  3  0  0  0  0  0  0
  190.2060  173.7780  136.5820 C   0  0  0  0  0  3  0  0  0  0  0  0
  189.1300  174.6430  137.1370 C   0  0  0  0  0  0  0  0  0  0  0  0
  188.5330  176.7140  138.1260 N   0  0  0  0  0  0  0  0  0  0  0  0
  190.9650  176.1510  138.1740 C   0  0  0  0  0  3  0  0  0  0  0  0
  191.5030  174.1290  136.7660 C   0  0  0  0  0  3  0  0  0  0  0  0
  189.5030  175.8970  137.8800 C   0  0  0  0  0  0  0  0  0  0  0  0
  188.6890  179.0430  138.1780 O   0  0  0  0  0  0  0  0  0  0  0  0
  188.3630  178.0140  138.7840 C   0  0  0  0  0  0  0  0  0  0  0  0
  187.8640  178.0740  140.1870 C   0  0  0  0  0  0  0  0  0  0  0  0
  186.3280  178.6000  141.9240 C   0  0  0  0  0  0  0  0  0  0  0  0
  188.3900  177.5880  142.5280 C   0  0  0  0  0  3  0  0  0  0  0  0
  186.6040  178.5780  140.5670 C   0  0  0  0  0  3  0  0  0  0  0  0
  188.7260  177.6150  141.2210 C   0  0  0  0  0  3  0  0  0  0  0  0
  187.1460  178.0490  142.9140 C   0  0  0  0  0  0  0  0  0  0  0  0
  183.8420  178.8000  142.1780 C   0  0  0  0  0  1  0  0  0  0  0  0
  185.1460  179.3570  142.1390 O   0  0  0  0  0  0  0  0  0  0  0  0
  187.0860  178.0040  144.4410 C   0  0  0  0  0  2  0  0  0  0  0  0
  185.7940  177.8390  144.9840 O   0  0  0  0  0  0  0  0  0  0  0  0
  185.9800  177.3680  146.2910 C   0  0  0  0  0  2  0  0  0  0  0  0
  186.6370  178.4430  147.1890 C   0  0  0  0  0  2  0  0  0  0  0  0
  187.6410  177.8140  148.0160 N   0  0  0  0  0  2  0  0  0  0  0  0
  189.8600  176.8230  147.4570 C   0  0  2  0  0  3  0  0  0  0  0  0
  188.9680  178.0350  147.4850 C   0  0  2  0  0  3  0  0  0  0  0  0
  190.0000  177.6910  148.4500 O   0  0  0  0  0  0  0  0  0  0  0  0
  190.9910  176.9470  146.4540 C   0  0  0  0  0  2  0  0  0  0  0  0
  190.6450  177.9320  145.2950 C   0  0  0  0  0  2  0  0  0  0  0  0
  191.5790  178.0610  144.0530 C   0  0  0  0  0  2  0  0  0  0  0  0
  191.6740  176.7760  143.2220 C   0  0  0  0  0  0  0  0  0  0  0  0
  192.0790  176.9360  141.8930 O   0  0  0  0  0  0  0  0  0  0  0  0
  191.7320  175.6380  143.6870 O   0  0  0  0  0  1  0  0  0  0  0  0
  185.4200  174.6540  135.9030 C   0  0  1  0  0  3  0  0  0  0  0  0
  184.5190  177.2710  137.5680 C   0  0  0  0  0  2  0  0  0  0  0  0
  182.7350  175.6040  138.9060 C   0  0  0  0  0  2  0  0  0  0  0  0
  184.0510  175.8770  136.4970 P   0  0  2  0  0  0  0  0  0  0  0  0
  183.2210  177.9560  138.1110 C   0  0  1  0  0  3  0  0  0  0  0  0
  182.5960  175.2490  137.4280 C   0  0  0  0  0  2  0  0  0  0  0  0
  183.4770  176.5620  135.2970 O   0  0  0  0  0  0  0  0  0  0  0  0
  182.4880  177.0890  139.1140 C   0  0  0  0  0  2  0  0  0  0  0  0
  182.1990  180.0020  138.8830 O   0  0  0  0  0  1  0  0  0  0  0  0
  184.4940  179.9720  138.8470 O   0  0  0  0  0  0  0  0  0  0  0  0
  183.2560  179.3570  138.5870 C   0  0  0  0  0  0  0  0  0  0  0  0
  186.0940  175.1290  134.5600 C   0  0  0  0  0  2  0  0  0  0  0  0
  186.4400  177.9970  135.0870 O   0  0  0  0  0  1  0  0  0  0  0  0
  188.6390  176.5200  134.4100 O   0  0  0  0  0  0  0  0  0  0  0  0
  187.1470  176.6010  134.4790 P   0  0  1  0  0  4  0  0  0  0  0  0
  193.3570  175.4010  138.0540 C   0  0  0  0  0  2  0  0  0  0  0  0
  195.3530  173.9630  138.8010 C   0  0  0  0  0  1  0  0  0  0  0  0
  194.2920  174.1720  137.7420 C   0  0  0  0  0  2  0  0  0  0  0  0
  1  5  2  0  0  0  0
  2 49  1  0  0  0  0
  2  7  2  0  0  0  0
  3  1  2  0  0  0  0
  4  8  2  0  0  0  0
  4  5  1  0  0  0  0
  5  9  1  0  0  0  0
  6 11  1  0  0  0  0
  8  2  1  0  0  0  0
  9  6  2  0  0  0  0
  9  7  1  0  0  0  0
 10 11  2  0  0  0  0
 11 12  1  0  0  0  0
 12 15  2  0  0  0  0
 12 16  1  0  0  0  0
 13 19  1  0  0  0  0
 13 17  2  0  0  0  0
 14 17  1  0  0  0  0
 15 13  1  0  0  0  0
 16 14  2  0  0  0  0
 17 20  1  0  0  0  0
 19 18  1  0  0  0  0
 20 21  1  0  0  0  0
 21 22  1  0  0  0  0
 22 23  1  0  0  0  0
 23 24  1  0  0  0  0
 25 28  1  6  0  0  0
 25 26  1  0  0  0  0
 25 27  1  0  0  0  0
 26 24  1  1  0  0  0
 26 27  1  0  0  0  0
 29 28  1  0  0  0  0
 30 29  1  0  0  0  0
 31 33  1  0  0  0  0
 31 30  1  0  0  0  0
 32 31  2  0  0  0  0
 34 45  1  6  0  0  0
 34 37  1  0  0  0  0
 34  3  1  0  0  0  0
 35 38  1  0  0  0  0
 36 41  1  0  0  0  0
 37 40  2  6  0  0  0
 37 39  1  0  0  0  0
 37 35  1  0  0  0  0
 38 44  1  1  0  0  0
 38 41  1  0  0  0  0
 39 36  1  0  0  0  0
 44 43  2  0  0  0  0
 44 42  1  0  0  0  0
 48 47  2  1  0  0  0
 48 45  1  0  0  0  0
 48 46  1  0  0  0  0
 51 49  1  0  0  0  0
 51 50  1  0  0  0  0
M  END
>  <MODEL>
6

>  <REMARK>
 VINA RESULT:      -7.0      2.963      9.665
  Name = 
  20 active torsions:
  status: ('A' for Active; 'I' for Inactive)
    1  A    between atoms: C_1  and  C_9
    2  A    between atoms: C_1  and  C_10
    3  A    between atoms: C_1  and  P_34
    4  A    between atoms: C_4  and  C_28
    5  A    between atoms: C_6  and  N_38
    6  A    between atoms: C_6  and  C_39
    7  A    between atoms: C_7  and  C_17
    8  A    between atoms: C_7  and  C_18
    9  A    between atoms: C_8  and  C_32
   10  A    between atoms: C_10  and  P_49
   11  A    between atoms: C_15  and  C_32
   12  A    between atoms: C_16  and  O_27
   13  A    between atoms: C_17  and  C_36
   14  A    between atoms: N_23  and  C_28
   15  A    between atoms: C_26  and  O_29
   16  A    between atoms: C_26  and  C_50
   17  A    between atoms: O_29  and  C_39
   18  A    between atoms: C_31  and  N_38
   19  A    between atoms: C_33  and  C_42
   20  A    between atoms: C_36  and  C_37
                            x       y       z     vdW  Elec       q    Type
                         _______ _______ _______ _____ _____    ______ ____

>  <TORSDO>
F 20

$$$$
=
 OpenBabel10232408553D

 51 54  0  0  1  0  0  0  0  0999 V2000
  188.2200  174.6400  136.5450 C   0  0  0  0  0  0  0  0  0  0  0  0
  192.3850  174.3250  137.3000 C   0  0  0  0  0  0  0  0  0  0  0  0
  186.9220  174.8790  136.5350 C   0  0  0  0  0  3  0  0  0  0  0  0
  190.3550  173.4460  136.0600 C   0  0  0  0  0  3  0  0  0  0  0  0
  189.5320  174.4760  136.7500 C   0  0  0  0  0  0  0  0  0  0  0  0
  189.4780  176.4580  138.0500 N   0  0  0  0  0  0  0  0  0  0  0  0
  191.6670  175.2580  137.9930 C   0  0  0  0  0  3  0  0  0  0  0  0
  191.6920  173.4010  136.2870 C   0  0  0  0  0  3  0  0  0  0  0  0
  190.2020  175.4560  137.6740 C   0  0  0  0  0  0  0  0  0  0  0  0
  189.8830  178.7350  138.3720 O   0  0  0  0  0  0  0  0  0  0  0  0
  189.6390  177.6420  138.9010 C   0  0  0  0  0  0  0  0  0  0  0  0
  189.5750  177.5020  140.3830 C   0  0  0  0  0  0  0  0  0  0  0  0
  190.4350  177.1140  142.5660 C   0  0  0  0  0  0  0  0  0  0  0  0
  188.1030  177.5040  142.3390 C   0  0  0  0  0  3  0  0  0  0  0  0
  190.6890  177.2650  141.2130 C   0  0  0  0  0  3  0  0  0  0  0  0
  188.2990  177.5870  141.0060 C   0  0  0  0  0  3  0  0  0  0  0  0
  189.1890  177.3040  143.1690 C   0  0  0  0  0  0  0  0  0  0  0  0
  191.6450  175.5160  144.0700 C   0  0  0  0  0  1  0  0  0  0  0  0
  191.6110  176.6380  143.2030 O   0  0  0  0  0  0  0  0  0  0  0  0
  188.6600  177.1410  144.5950 C   0  0  0  0  0  2  0  0  0  0  0  0
  189.3210  177.9200  145.5700 O   0  0  0  0  0  0  0  0  0  0  0  0
  189.0590  177.3030  146.8010 C   0  0  0  0  0  2  0  0  0  0  0  0
  188.0880  178.1500  147.6580 C   0  0  0  0  0  2  0  0  0  0  0  0
  186.7850  177.5250  147.6450 N   0  0  0  0  0  2  0  0  0  0  0  0
  185.5370  178.2820  145.6230 C   0  0  2  0  0  3  0  0  0  0  0  0
  185.7850  178.4180  147.1020 C   0  0  2  0  0  3  0  0  0  0  0  0
  186.3290  179.2590  146.0460 O   0  0  0  0  0  0  0  0  0  0  0  0
  184.1820  178.8150  145.2010 C   0  0  0  0  0  2  0  0  0  0  0  0
  184.1630  179.2550  143.7040 C   0  0  0  0  0  2  0  0  0  0  0  0
  184.1200  178.1940  142.5620 C   0  0  0  0  0  2  0  0  0  0  0  0
  184.3350  178.7890  141.1650 C   0  0  0  0  0  0  0  0  0  0  0  0
  183.2270  178.7630  140.3120 O   0  0  0  0  0  0  0  0  0  0  0  0
  185.2580  179.5410  140.8530 O   0  0  0  0  0  1  0  0  0  0  0  0
  186.0060  175.6730  135.5580 C   0  0  1  0  0  3  0  0  0  0  0  0
  183.5260  175.6230  137.6280 C   0  0  0  0  0  2  0  0  0  0  0  0
  182.8270  173.1860  136.4760 C   0  0  0  0  0  2  0  0  0  0  0  0
  184.1110  175.5610  135.9070 P   0  0  2  0  0  0  0  0  0  0  0  0
  182.0040  175.2630  137.6630 C   0  0  1  0  0  3  0  0  0  0  0  0
  183.1490  174.1140  135.3070 C   0  0  0  0  0  2  0  0  0  0  0  0
  183.4460  176.7500  135.2900 O   0  0  0  0  0  0  0  0  0  0  0  0
  181.7490  173.8030  137.3520 C   0  0  0  0  0  2  0  0  0  0  0  0
  181.4280  175.3770  140.0050 O   0  0  0  0  0  1  0  0  0  0  0  0
  180.0870  176.5740  138.5770 O   0  0  0  0  0  0  0  0  0  0  0  0
  181.1580  175.6900  138.8010 C   0  0  0  0  0  0  0  0  0  0  0  0
  186.4970  177.1670  135.4410 C   0  0  0  0  0  2  0  0  0  0  0  0
  187.4160  179.7110  136.5840 O   0  0  0  0  0  1  0  0  0  0  0  0
  185.7730  178.1240  138.0860 O   0  0  0  0  0  0  0  0  0  0  0  0
  186.6630  178.2420  136.8900 P   0  0  1  0  0  4  0  0  0  0  0  0
  193.7730  173.9170  137.7420 C   0  0  0  0  0  2  0  0  0  0  0  0
  195.9860  174.5450  136.5940 C   0  0  0  0  0  1  0  0  0  0  0  0
  194.9470  174.9600  137.6120 C   0  0  0  0  0  2  0  0  0  0  0  0
  1  5  2  0  0  0  0
  2 49  1  0  0  0  0
  2  7  2  0  0  0  0
  3  1  2  0  0  0  0
  4  8  2  0  0  0  0
  4  5  1  0  0  0  0
  5  9  1  0  0  0  0
  6 11  1  0  0  0  0
  8  2  1  0  0  0  0
  9  7  1  0  0  0  0
  9  6  2  0  0  0  0
 10 11  2  0  0  0  0
 11 12  1  0  0  0  0
 12 16  2  0  0  0  0
 12 15  1  0  0  0  0
 13 17  1  0  0  0  0
 13 19  1  0  0  0  0
 14 17  2  0  0  0  0
 15 13  2  0  0  0  0
 16 14  1  0  0  0  0
 17 20  1  0  0  0  0
 19 18  1  0  0  0  0
 20 21  1  0  0  0  0
 21 22  1  0  0  0  0
 22 23  1  0  0  0  0
 24 23  1  0  0  0  0
 25 28  1  1  0  0  0
 25 27  1  0  0  0  0
 25 26  1  0  0  0  0
 26 24  1  6  0  0  0
 27 26  1  0  0  0  0
 29 28  1  0  0  0  0
 30 29  1  0  0  0  0
 31 30  1  0  0  0  0
 32 31  2  0  0  0  0
 33 31  1  0  0  0  0
 34 45  1  1  0  0  0
 34 37  1  0  0  0  0
 34  3  1  0  0  0  0
 35 38  1  0  0  0  0
 36 41  1  0  0  0  0
 37 40  2  6  0  0  0
 37 35  1  0  0  0  0
 38 44  1  1  0  0  0
 39 37  1  0  0  0  0
 39 36  1  0  0  0  0
 41 38  1  0  0  0  0
 43 44  2  0  0  0  0
 44 42  1  0  0  0  0
 45 48  1  0  0  0  0
 48 46  1  6  0  0  0
 48 47  2  0  0  0  0
 50 51  1  0  0  0  0
 51 49  1  0  0  0  0
M  END
>  <MODEL>
7

>  <REMARK>
 VINA RESULT:      -6.9      2.999     10.932
  Name = 
  20 active torsions:
  status: ('A' for Active; 'I' for Inactive)
    1  A    between atoms: C_1  and  C_9
    2  A    between atoms: C_1  and  C_10
    3  A    between atoms: C_1  and  P_34
    4  A    between atoms: C_4  and  C_28
    5  A    between atoms: C_6  and  N_38
    6  A    between atoms: C_6  and  C_39
    7  A    between atoms: C_7  and  C_17
    8  A    between atoms: C_7  and  C_18
    9  A    between atoms: C_8  and  C_32
   10  A    between atoms: C_10  and  P_49
   11  A    between atoms: C_15  and  C_32
   12  A    between atoms: C_16  and  O_27
   13  A    between atoms: C_17  and  C_36
   14  A    between atoms: N_23  and  C_28
   15  A    between atoms: C_26  and  O_29
   16  A    between atoms: C_26  and  C_50
   17  A    between atoms: O_29  and  C_39
   18  A    between atoms: C_31  and  N_38
   19  A    between atoms: C_33  and  C_42
   20  A    between atoms: C_36  and  C_37
                            x       y       z     vdW  Elec       q    Type
                         _______ _______ _______ _____ _____    ______ ____

>  <TORSDO>
F 20

$$$$
=
 OpenBabel10232408553D

 51 54  0  0  1  0  0  0  0  0999 V2000
  187.4480  175.3820  135.0640 C   0  0  0  0  0  0  0  0  0  0  0  0
  183.8100  176.2820  137.0580 C   0  0  0  0  0  0  0  0  0  0  0  0
  188.6470  175.3490  134.5140 C   0  0  0  0  0  3  0  0  0  0  0  0
  185.0500  174.7970  135.4180 C   0  0  0  0  0  3  0  0  0  0  0  0
  186.2670  175.6210  135.6460 C   0  0  0  0  0  0  0  0  0  0  0  0
  187.3590  177.2600  136.9660 N   0  0  0  0  0  0  0  0  0  0  0  0
  184.8860  177.0970  137.2680 C   0  0  0  0  0  3  0  0  0  0  0  0
  183.9160  175.0810  136.1050 C   0  0  0  0  0  3  0  0  0  0  0  0
  186.2190  176.7440  136.6460 C   0  0  0  0  0  0  0  0  0  0  0  0
  188.6860  179.1270  137.4220 O   0  0  0  0  0  0  0  0  0  0  0  0
  187.8490  178.3230  137.8510 C   0  0  0  0  0  0  0  0  0  0  0  0
  187.3840  178.3780  139.2660 C   0  0  0  0  0  0  0  0  0  0  0  0
  187.5820  178.1570  141.6250 C   0  0  0  0  0  0  0  0  0  0  0  0
  185.4800  178.8180  140.7400 C   0  0  0  0  0  3  0  0  0  0  0  0
  188.1960  178.1030  140.3850 C   0  0  0  0  0  3  0  0  0  0  0  0
  186.0220  178.7070  139.5090 C   0  0  0  0  0  3  0  0  0  0  0  0
  186.2700  178.5820  141.8480 C   0  0  0  0  0  0  0  0  0  0  0  0
  188.5640  176.2300  142.8940 C   0  0  0  0  0  1  0  0  0  0  0  0
  188.4640  177.6140  142.5970 O   0  0  0  0  0  0  0  0  0  0  0  0
  185.3740  178.6700  143.0850 C   0  0  0  0  0  2  0  0  0  0  0  0
  184.7220  179.9090  143.2640 O   0  0  0  0  0  0  0  0  0  0  0  0
  183.8440  179.7320  144.3420 C   0  0  0  0  0  2  0  0  0  0  0  0
  184.4400  178.7740  145.4010 C   0  0  0  0  0  2  0  0  0  0  0  0
  185.4580  179.4770  146.1490 N   0  0  0  0  0  2  0  0  0  0  0  0
  187.3110  177.9020  146.7000 C   0  0  2  0  0  3  0  0  0  0  0  0
  186.0620  178.6170  147.1420 C   0  0  2  0  0  3  0  0  0  0  0  0
  186.1610  177.2420  146.6780 O   0  0  0  0  0  0  0  0  0  0  0  0
  188.1780  177.4570  147.8620 C   0  0  0  0  0  2  0  0  0  0  0  0
  189.6560  177.2000  147.4290 C   0  0  0  0  0  2  0  0  0  0  0  0
  190.2060  177.7830  146.0910 C   0  0  0  0  0  2  0  0  0  0  0  0
  191.2490  176.8840  145.4150 C   0  0  0  0  0  0  0  0  0  0  0  0
  191.6310  177.2560  144.1230 O   0  0  0  0  0  0  0  0  0  0  0  0
  191.9810  176.0880  146.0030 O   0  0  0  0  0  1  0  0  0  0  0  0
  189.9130  174.4890  134.8020 C   0  0  1  0  0  3  0  0  0  0  0  0
  192.6640  174.4480  136.4950 C   0  0  0  0  0  2  0  0  0  0  0  0
  191.3880  176.1440  138.2990 C   0  0  0  0  0  2  0  0  0  0  0  0
  191.3860  175.4170  135.6370 P   0  0  2  0  0  0  0  0  0  0  0  0
  193.5940  175.4230  137.2910 C   0  0  1  0  0  3  0  0  0  0  0  0
  191.0610  176.6980  136.9140 C   0  0  0  0  0  2  0  0  0  0  0  0
  192.1650  176.1210  134.5720 O   0  0  0  0  0  0  0  0  0  0  0  0
  192.8930  176.0450  138.4810 C   0  0  0  0  0  2  0  0  0  0  0  0
  195.8540  174.7250  136.8120 O   0  0  0  0  0  0  0  0  0  0  0  0
  195.3460  175.0450  139.0280 O   0  0  0  0  0  1  0  0  0  0  0  0
  194.9630  175.0090  137.6740 C   0  0  0  0  0  0  0  0  0  0  0  0
  189.5180  173.1810  135.5890 C   0  0  0  0  0  2  0  0  0  0  0  0
  189.2540  170.3410  134.8930 O   0  0  0  0  0  1  0  0  0  0  0  0
  187.0580  171.9510  134.6560 O   0  0  0  0  0  0  0  0  0  0  0  0
  188.5410  171.8590  134.8280 P   0  0  1  0  0  4  0  0  0  0  0  0
  182.4130  176.7120  137.4450 C   0  0  0  0  0  2  0  0  0  0  0  0
  181.2920  179.0180  137.6300 C   0  0  0  0  0  1  0  0  0  0  0  0
  182.2330  178.0320  138.2870 C   0  0  0  0  0  2  0  0  0  0  0  0
  1  5  2  0  0  0  0
  2  7  2  0  0  0  0
  2 49  1  0  0  0  0
  3  1  2  0  0  0  0
  4  5  1  0  0  0  0
  4  8  2  0  0  0  0
  5  9  1  0  0  0  0
  6 11  1  0  0  0  0
  8  2  1  0  0  0  0
  9  6  2  0  0  0  0
  9  7  1  0  0  0  0
 10 11  2  0  0  0  0
 11 12  1  0  0  0  0
 12 16  2  0  0  0  0
 12 15  1  0  0  0  0
 13 17  1  0  0  0  0
 13 19  1  0  0  0  0
 14 17  2  0  0  0  0
 15 13  2  0  0  0  0
 16 14  1  0  0  0  0
 17 20  1  0  0  0  0
 19 18  1  0  0  0  0
 20 21  1  0  0  0  0
 21 22  1  0  0  0  0
 22 23  1  0  0  0  0
 23 24  1  0  0  0  0
 25 26  1  0  0  0  0
 25 28  1  1  0  0  0
 26 24  1  6  0  0  0
 27 25  1  0  0  0  0
 27 26  1  0  0  0  0
 29 28  1  0  0  0  0
 30 29  1  0  0  0  0
 31 33  1  0  0  0  0
 31 30  1  0  0  0  0
 32 31  2  0  0  0  0
 34  3  1  1  0  0  0
 34 45  1  0  0  0  0
 34 37  1  0  0  0  0
 35 38  1  0  0  0  0
 36 41  1  0  0  0  0
 37 40  2  6  0  0  0
 37 35  1  0  0  0  0
 37 39  1  0  0  0  0
 38 44  1  1  0  0  0
 38 41  1  0  0  0  0
 39 36  1  0  0  0  0
 42 44  2  0  0  0  0
 44 43  1  0  0  0  0
 48 47  2  1  0  0  0
 48 46  1  0  0  0  0
 48 45  1  0  0  0  0
 49 51  1  0  0  0  0
 50 51  1  0  0  0  0
M  END
>  <MODEL>
8

>  <REMARK>
 VINA RESULT:      -6.5      2.718      8.547
  Name = 
  20 active torsions:
  status: ('A' for Active; 'I' for Inactive)
    1  A    between atoms: C_1  and  C_9
    2  A    between atoms: C_1  and  C_10
    3  A    between atoms: C_1  and  P_34
    4  A    between atoms: C_4  and  C_28
    5  A    between atoms: C_6  and  N_38
    6  A    between atoms: C_6  and  C_39
    7  A    between atoms: C_7  and  C_17
    8  A    between atoms: C_7  and  C_18
    9  A    between atoms: C_8  and  C_32
   10  A    between atoms: C_10  and  P_49
   11  A    between atoms: C_15  and  C_32
   12  A    between atoms: C_16  and  O_27
   13  A    between atoms: C_17  and  C_36
   14  A    between atoms: N_23  and  C_28
   15  A    between atoms: C_26  and  O_29
   16  A    between atoms: C_26  and  C_50
   17  A    between atoms: O_29  and  C_39
   18  A    between atoms: C_31  and  N_38
   19  A    between atoms: C_33  and  C_42
   20  A    between atoms: C_36  and  C_37
                            x       y       z     vdW  Elec       q    Type
                         _______ _______ _______ _____ _____    ______ ____

>  <TORSDO>
F 20

$$$$
=
 OpenBabel10232408553D

 51 54  0  0  1  0  0  0  0  0999 V2000
  187.8330  175.0290  136.9070 C   0  0  0  0  0  0  0  0  0  0  0  0
  191.9010  176.1670  136.4920 C   0  0  0  0  0  0  0  0  0  0  0  0
  186.5950  174.7710  137.2830 C   0  0  0  0  0  3  0  0  0  0  0  0
  189.9580  174.7870  135.6250 C   0  0  0  0  0  3  0  0  0  0  0  0
  189.1240  175.3320  136.7300 C   0  0  0  0  0  0  0  0  0  0  0  0
  188.8800  176.9490  138.4460 N   0  0  0  0  0  0  0  0  0  0  0  0
  191.1920  176.6620  137.5500 C   0  0  0  0  0  3  0  0  0  0  0  0
  191.2410  175.2060  135.4910 C   0  0  0  0  0  3  0  0  0  0  0  0
  189.7170  176.3490  137.6670 C   0  0  0  0  0  0  0  0  0  0  0  0
  188.5260  179.1180  139.2370 O   0  0  0  0  0  0  0  0  0  0  0  0
  188.9310  177.9760  139.4930 C   0  0  0  0  0  0  0  0  0  0  0  0
  189.5270  177.6510  140.8190 C   0  0  0  0  0  0  0  0  0  0  0  0
  190.1870  178.0740  143.0640 C   0  0  0  0  0  0  0  0  0  0  0  0
  190.6940  175.9490  142.1350 C   0  0  0  0  0  3  0  0  0  0  0  0
  189.5470  178.5280  141.9230 C   0  0  0  0  0  3  0  0  0  0  0  0
  190.1420  176.3790  140.9810 C   0  0  0  0  0  3  0  0  0  0  0  0
  190.6940  176.7830  143.2360 C   0  0  0  0  0  0  0  0  0  0  0  0
  191.5800  179.6120  144.4710 C   0  0  0  0  0  1  0  0  0  0  0  0
  190.3320  179.1580  143.9700 O   0  0  0  0  0  0  0  0  0  0  0  0
  191.4740  176.0840  144.3500 C   0  0  0  0  0  2  0  0  0  0  0  0
  191.8560  176.9160  145.4240 O   0  0  0  0  0  0  0  0  0  0  0  0
  191.6430  176.1670  146.5890 C   0  0  0  0  0  2  0  0  0  0  0  0
  190.7710  176.9430  147.6050 C   0  0  0  0  0  2  0  0  0  0  0  0
  189.3850  176.5880  147.4010 N   0  0  0  0  0  2  0  0  0  0  0  0
  187.1830  177.4220  146.5810 C   0  0  2  0  0  3  0  0  0  0  0  0
  188.6480  177.6830  146.8100 C   0  0  2  0  0  3  0  0  0  0  0  0
  188.0180  177.2950  145.5580 O   0  0  0  0  0  0  0  0  0  0  0  0
  186.3670  178.6950  146.4730 C   0  0  0  0  0  2  0  0  0  0  0  0
  184.9410  178.4340  145.8950 C   0  0  0  0  0  2  0  0  0  0  0  0
  184.3650  179.3320  144.7590 C   0  0  0  0  0  2  0  0  0  0  0  0
  184.6210  178.7800  143.3520 C   0  0  0  0  0  0  0  0  0  0  0  0
  185.9070  178.2840  143.1140 O   0  0  0  0  0  1  0  0  0  0  0  0
  183.7440  178.4550  142.5510 O   0  0  0  0  0  0  0  0  0  0  0  0
  185.2150  175.3010  136.7930 C   0  0  1  0  0  3  0  0  0  0  0  0
  182.7080  173.2910  137.1210 C   0  0  0  0  0  2  0  0  0  0  0  0
  184.4420  171.2620  136.3230 C   0  0  0  0  0  2  0  0  0  0  0  0
  184.0180  173.9760  136.0610 P   0  0  2  0  0  0  0  0  0  0  0  0
  182.0460  172.0740  136.3930 C   0  0  1  0  0  3  0  0  0  0  0  0
  184.6910  172.4170  135.3570 C   0  0  0  0  0  2  0  0  0  0  0  0
  183.2450  174.6030  134.9450 O   0  0  0  0  0  0  0  0  0  0  0  0
  182.9720  170.8770  136.3120 C   0  0  0  0  0  2  0  0  0  0  0  0
  180.0640  172.0970  137.7700 O   0  0  0  0  0  1  0  0  0  0  0  0
  179.9820  170.7600  135.9060 O   0  0  0  0  0  0  0  0  0  0  0  0
  180.6820  171.6310  136.7600 C   0  0  0  0  0  0  0  0  0  0  0  0
  184.5260  176.1580  137.9230 C   0  0  0  0  0  2  0  0  0  0  0  0
  183.0000  178.6640  138.0430 O   0  0  0  0  0  1  0  0  0  0  0  0
  185.7240  178.7850  138.2390 O   0  0  0  0  0  0  0  0  0  0  0  0
  184.5200  177.9700  137.8880 P   0  0  1  0  0  4  0  0  0  0  0  0
  193.4120  176.2410  136.4570 C   0  0  0  0  0  2  0  0  0  0  0  0
  194.5430  175.0320  138.4230 C   0  0  0  0  0  1  0  0  0  0  0  0
  194.2430  174.9930  136.9410 C   0  0  0  0  0  2  0  0  0  0  0  0
  1  3  2  0  0  0  0
  2  7  2  0  0  0  0
  4  5  1  0  0  0  0
  5  1  2  0  0  0  0
  5  9  1  0  0  0  0
  6 11  1  0  0  0  0
  7  9  1  0  0  0  0
  8  4  2  0  0  0  0
  8  2  1  0  0  0  0
  9  6  2  0  0  0  0
 10 11  2  0  0  0  0
 11 12  1  0  0  0  0
 12 16  2  0  0  0  0
 12 15  1  0  0  0  0
 13 17  1  0  0  0  0
 13 19  1  0  0  0  0
 14 17  2  0  0  0  0
 15 13  2  0  0  0  0
 16 14  1  0  0  0  0
 17 20  1  0  0  0  0
 19 18  1  0  0  0  0
 20 21  1  0  0  0  0
 21 22  1  0  0  0  0
 22 23  1  0  0  0  0
 24 23  1  0  0  0  0
 25 28  1  6  0  0  0
 25 26  1  0  0  0  0
 26 24  1  1  0  0  0
 27 25  1  0  0  0  0
 27 26  1  0  0  0  0
 29 28  1  0  0  0  0
 30 29  1  0  0  0  0
 31 30  1  0  0  0  0
 32 31  1  0  0  0  0
 33 31  2  0  0  0  0
 34  3  1  1  0  0  0
 34 45  1  0  0  0  0
 37 40  2  6  0  0  0
 37 34  1  0  0  0  0
 37 35  1  0  0  0  0
 38 44  1  1  0  0  0
 38 35  1  0  0  0  0
 39 37  1  0  0  0  0
 39 36  1  0  0  0  0
 41 36  1  0  0  0  0
 41 38  1  0  0  0  0
 43 44  2  0  0  0  0
 44 42  1  0  0  0  0
 48 45  1  0  0  0  0
 48 46  1  1  0  0  0
 48 47  2  0  0  0  0
 49  2  1  0  0  0  0
 49 51  1  0  0  0  0
 51 50  1  0  0  0  0
M  END
>  <MODEL>
9

>  <REMARK>
 VINA RESULT:      -6.4      3.259     11.159
  Name = 
  20 active torsions:
  status: ('A' for Active; 'I' for Inactive)
    1  A    between atoms: C_1  and  C_9
    2  A    between atoms: C_1  and  C_10
    3  A    between atoms: C_1  and  P_34
    4  A    between atoms: C_4  and  C_28
    5  A    between atoms: C_6  and  N_38
    6  A    between atoms: C_6  and  C_39
    7  A    between atoms: C_7  and  C_17
    8  A    between atoms: C_7  and  C_18
    9  A    between atoms: C_8  and  C_32
   10  A    between atoms: C_10  and  P_49
   11  A    between atoms: C_15  and  C_32
   12  A    between atoms: C_16  and  O_27
   13  A    between atoms: C_17  and  C_36
   14  A    between atoms: N_23  and  C_28
   15  A    between atoms: C_26  and  O_29
   16  A    between atoms: C_26  and  C_50
   17  A    between atoms: O_29  and  C_39
   18  A    between atoms: C_31  and  N_38
   19  A    between atoms: C_33  and  C_42
   20  A    between atoms: C_36  and  C_37
                            x       y       z     vdW  Elec       q    Type
                         _______ _______ _______ _____ _____    ______ ____

>  <TORSDO>
F 20

$$$$
