=
 OpenBabel10232412333D

 34 36  0  0  1  0  0  0  0  0999 V2000
  191.9250  177.8370  140.2200 C   0  0  0  0  0  1  0  0  0  0  0  0
  188.6700  177.1420  140.9530 N   0  0  0  0  0  0  0  0  0  0  0  0
  189.9880  177.0210  141.4490 N   0  0  0  0  0  0  0  0  0  0  0  0
  190.1590  176.4230  139.2610 C   0  0  0  0  0  0  0  0  0  0  0  0
  190.9850  176.6640  140.4530 C   0  0  1  0  0  3  0  0  0  0  0  0
  190.6490  176.0060  138.0890 C   0  0  0  0  0  3  0  0  0  0  0  0
  188.7320  176.7200  139.5530 C   0  0  0  0  0  2  0  0  0  0  0  0
  189.3290  177.4150  143.7970 C   0  0  0  0  0  3  0  0  0  0  0  0
  191.7170  176.2930  144.6910 C   0  0  0  0  0  3  0  0  0  0  0  0
  189.5860  177.3400  145.1690 C   0  0  0  0  0  0  0  0  0  0  0  0
  190.7940  176.7710  145.6330 C   0  0  0  0  0  0  0  0  0  0  0  0
  188.6320  177.8320  146.0520 O   0  0  0  0  0  1  0  0  0  0  0  0
  190.2550  176.9330  142.8620 C   0  0  0  0  0  0  0  0  0  0  0  0
  191.4530  176.3730  143.3240 C   0  0  0  0  0  3  0  0  0  0  0  0
  192.2770  175.8530  147.5470 C   0  0  0  0  0  1  0  0  0  0  0  0
  191.1160  176.6660  147.0780 C   0  0  0  0  0  0  0  0  0  0  0  0
  190.4190  177.2610  147.9420 O   0  0  0  0  0  0  0  0  0  0  0  0
  189.8290  175.7140  136.8940 C   0  0  0  0  0  0  0  0  0  0  0  0
  189.3530  176.6790  136.0950 C   0  0  0  0  0  3  0  0  0  0  0  0
  189.4530  174.3130  136.6310 C   0  0  0  0  0  0  0  0  0  0  0  0
  189.9680  173.3730  137.2950 O   0  0  0  0  0  1  0  0  0  0  0  0
  188.5200  174.0140  135.6460 O   0  0  0  0  0  0  0  0  0  0  0  0
  188.3160  178.7700  136.8580 C   0  0  0  0  0  1  0  0  0  0  0  0
  189.5790  178.1390  136.3140 C   0  0  0  0  0  2  0  0  0  0  0  0
  188.3310  178.5610  140.9390 C   0  0  0  0  0  2  0  0  0  0  0  0
  186.8380  178.7490  140.7360 C   0  0  0  0  0  2  0  0  0  0  0  0
  186.1980  179.3040  141.9960 C   0  0  0  0  0  2  0  0  0  0  0  0
  185.6010  178.3870  144.3030 C   0  0  0  0  0  2  0  0  0  0  0  0
  184.2280  177.8230  142.3320 O   0  0  0  0  0  0  0  0  0  0  0  0
  183.4080  178.9690  142.3230 C   0  0  0  0  0  2  0  0  0  0  0  0
  183.3730  178.8440  144.8670 C   0  0  0  0  0  2  0  0  0  0  0  0
  184.6980  179.4410  144.7520 N   0  0  0  0  0  2  0  0  0  0  0  0
  182.5590  179.0570  143.5890 C   0  0  0  0  0  2  0  0  0  0  0  0
  185.5260  178.1780  142.7850 C   0  0  1  0  0  3  0  0  0  0  0  0
  2  3  1  0  0  0  0
  3 13  1  0  0  0  0
  4  7  1  0  0  0  0
  4  5  1  0  0  0  0
  5  1  1  6  0  0  0
  5  3  1  0  0  0  0
  6  4  2  0  0  0  0
  7  2  1  0  0  0  0
  8 10  1  0  0  0  0
  9 11  1  0  0  0  0
 10 11  2  0  0  0  0
 10 12  1  0  0  0  0
 11 16  1  0  0  0  0
 13 14  1  0  0  0  0
 13  8  2  0  0  0  0
 14  9  2  0  0  0  0
 16 15  1  0  0  0  0
 16 17  2  0  0  0  0
 18  6  1  0  0  0  0
 19 24  1  0  0  0  0
 19 18  2  0  0  0  0
 20 18  1  0  0  0  0
 20 21  1  0  0  0  0
 22 20  2  0  0  0  0
 24 23  1  0  0  0  0
 25  2  1  0  0  0  0
 26 25  1  0  0  0  0
 26 27  1  0  0  0  0
 28 32  1  0  0  0  0
 29 34  1  0  0  0  0
 30 29  1  0  0  0  0
 30 33  1  0  0  0  0
 32 31  1  0  0  0  0
 33 31  1  0  0  0  0
 34 27  1  6  0  0  0
 34 28  1  0  0  0  0
M  END
>  <MODEL>
1

>  <REMARK>
 VINA RESULT:      -7.4      0.000      0.000
  Name = 
  9 active torsions:
  status: ('A' for Active; 'I' for Inactive)
    1  A    between atoms: C_2  and  C_8
    2  A    between atoms: C_2  and  C_18
    3  A    between atoms: N_3  and  C_13
    4  A    between atoms: N_9  and  C_32
    5  A    between atoms: C_13  and  C_19
    6  A    between atoms: C_19  and  C_31
    7  A    between atoms: C_23  and  C_30
    8  A    between atoms: C_26  and  C_28
    9  A    between atoms: C_29  and  C_31
                            x       y       z     vdW  Elec       q    Type
                         _______ _______ _______ _____ _____    ______ ____

>  <TORSDO>
F 9

$$$$
=
 OpenBabel10232412333D

 34 36  0  0  1  0  0  0  0  0999 V2000
  189.0670  179.3910  137.0430 C   0  0  0  0  0  1  0  0  0  0  0  0
  189.0800  176.8650  139.3290 N   0  0  0  0  0  0  0  0  0  0  0  0
  189.5790  177.2410  138.0630 N   0  0  0  0  0  0  0  0  0  0  0  0
  187.3950  177.8720  138.0090 C   0  0  0  0  0  0  0  0  0  0  0  0
  188.6310  177.9440  137.2160 C   0  0  1  0  0  3  0  0  0  0  0  0
  186.2170  178.3480  137.5950 C   0  0  0  0  0  3  0  0  0  0  0  0
  187.6590  177.2160  139.3160 C   0  0  0  0  0  2  0  0  0  0  0  0
  191.9460  176.5890  138.3440 C   0  0  0  0  0  3  0  0  0  0  0  0
  192.0520  175.7060  135.7040 C   0  0  0  0  0  3  0  0  0  0  0  0
  193.1360  176.0560  137.8410 C   0  0  0  0  0  0  0  0  0  0  0  0
  193.2010  175.6050  136.5040 C   0  0  0  0  0  0  0  0  0  0  0  0
  194.2400  175.9850  138.6830 O   0  0  0  0  0  1  0  0  0  0  0  0
  190.8020  176.6840  137.5400 C   0  0  0  0  0  0  0  0  0  0  0  0
  190.8680  176.2390  136.2150 C   0  0  0  0  0  3  0  0  0  0  0  0
  195.4100  175.8950  135.1850 C   0  0  0  0  0  1  0  0  0  0  0  0
  194.4390  175.0320  135.9190 C   0  0  0  0  0  0  0  0  0  0  0  0
  194.6980  173.8050  136.0300 O   0  0  0  0  0  0  0  0  0  0  0  0
  184.9550  178.2430  138.3580 C   0  0  0  0  0  0  0  0  0  0  0  0
  184.0730  177.2530  138.1600 C   0  0  0  0  0  3  0  0  0  0  0  0
  184.6230  179.3210  139.3070 C   0  0  0  0  0  0  0  0  0  0  0  0
  183.7240  180.1630  139.0370 O   0  0  0  0  0  0  0  0  0  0  0  0
  185.2990  179.4190  140.5170 O   0  0  0  0  0  1  0  0  0  0  0  0
  183.8760  174.8350  137.7810 C   0  0  0  0  0  1  0  0  0  0  0  0
  184.2490  176.1620  137.1560 C   0  0  0  0  0  2  0  0  0  0  0  0
  189.7050  177.7270  140.3260 C   0  0  0  0  0  2  0  0  0  0  0  0
  188.7410  178.0110  141.4650 C   0  0  0  0  0  2  0  0  0  0  0  0
  189.5000  178.2230  142.7620 C   0  0  0  0  0  2  0  0  0  0  0  0
  191.1650  176.6510  143.8930 C   0  0  0  0  0  2  0  0  0  0  0  0
  188.7780  176.6150  144.5160 O   0  0  0  0  0  0  0  0  0  0  0  0
  188.7960  177.6740  145.4450 C   0  0  0  0  0  2  0  0  0  0  0  0
  191.0630  176.8170  146.2280 C   0  0  0  0  0  2  0  0  0  0  0  0
  191.5480  177.4840  145.0260 N   0  0  0  0  0  2  0  0  0  0  0  0
  189.6910  177.3500  146.6400 C   0  0  0  0  0  2  0  0  0  0  0  0
  189.7070  176.8860  143.4770 C   0  0  1  0  0  3  0  0  0  0  0  0
  2 25  1  0  0  0  0
  3  2  1  0  0  0  0
  4  7  1  0  0  0  0
  5  1  1  1  0  0  0
  5  4  1  0  0  0  0
  5  3  1  0  0  0  0
  6  4  2  0  0  0  0
  6 18  1  0  0  0  0
  7  2  1  0  0  0  0
  9 14  2  0  0  0  0
  9 11  1  0  0  0  0
 10  8  1  0  0  0  0
 10 12  1  0  0  0  0
 11 10  2  0  0  0  0
 13  3  1  0  0  0  0
 13  8  2  0  0  0  0
 14 13  1  0  0  0  0
 15 16  1  0  0  0  0
 16 17  2  0  0  0  0
 16 11  1  0  0  0  0
 18 20  1  0  0  0  0
 19 18  2  0  0  0  0
 20 22  1  0  0  0  0
 21 20  2  0  0  0  0
 24 23  1  0  0  0  0
 24 19  1  0  0  0  0
 25 26  1  0  0  0  0
 26 27  1  0  0  0  0
 28 32  1  0  0  0  0
 29 30  1  0  0  0  0
 30 33  1  0  0  0  0
 31 33  1  0  0  0  0
 32 31  1  0  0  0  0
 34 27  1  1  0  0  0
 34 28  1  0  0  0  0
 34 29  1  0  0  0  0
M  END
>  <MODEL>
2

>  <REMARK>
 VINA RESULT:      -7.3      2.929      7.011
  Name = 
  9 active torsions:
  status: ('A' for Active; 'I' for Inactive)
    1  A    between atoms: C_2  and  C_8
    2  A    between atoms: C_2  and  C_18
    3  A    between atoms: N_3  and  C_13
    4  A    between atoms: N_9  and  C_32
    5  A    between atoms: C_13  and  C_19
    6  A    between atoms: C_19  and  C_31
    7  A    between atoms: C_23  and  C_30
    8  A    between atoms: C_26  and  C_28
    9  A    between atoms: C_29  and  C_31
                            x       y       z     vdW  Elec       q    Type
                         _______ _______ _______ _____ _____    ______ ____

>  <TORSDO>
F 9

$$$$
=
 OpenBabel10232412333D

 34 36  0  0  1  0  0  0  0  0999 V2000
  188.9550  178.7400  136.7150 C   0  0  0  0  0  1  0  0  0  0  0  0
  188.9720  176.8210  139.5310 N   0  0  0  0  0  0  0  0  0  0  0  0
  189.4000  176.8510  138.1850 N   0  0  0  0  0  0  0  0  0  0  0  0
  187.2630  177.6280  138.1080 C   0  0  0  0  0  0  0  0  0  0  0  0
  188.4390  177.4130  137.2510 C   0  0  1  0  0  3  0  0  0  0  0  0
  186.0910  178.0880  137.6600 C   0  0  0  0  0  3  0  0  0  0  0  0
  187.5800  177.2740  139.5160 C   0  0  0  0  0  2  0  0  0  0  0  0
  191.8140  176.6750  137.6870 C   0  0  0  0  0  3  0  0  0  0  0  0
  191.4940  174.0200  136.9080 C   0  0  0  0  0  3  0  0  0  0  0  0
  192.9230  175.9460  137.2500 C   0  0  0  0  0  0  0  0  0  0  0  0
  192.7720  174.5970  136.8540 C   0  0  0  0  0  0  0  0  0  0  0  0
  194.1620  176.5750  137.2180 O   0  0  0  0  0  1  0  0  0  0  0  0
  190.5410  176.0910  137.7410 C   0  0  0  0  0  0  0  0  0  0  0  0
  190.3930  174.7560  137.3450 C   0  0  0  0  0  3  0  0  0  0  0  0
  194.3320  173.7960  134.9490 C   0  0  0  0  0  1  0  0  0  0  0  0
  193.9150  173.7770  136.3820 C   0  0  0  0  0  0  0  0  0  0  0  0
  194.5600  173.0470  137.1800 O   0  0  0  0  0  0  0  0  0  0  0  0
  184.8850  178.2660  138.4970 C   0  0  0  0  0  0  0  0  0  0  0  0
  183.8450  177.4230  138.4490 C   0  0  0  0  0  3  0  0  0  0  0  0
  184.7980  179.4680  139.3460 C   0  0  0  0  0  0  0  0  0  0  0  0
  185.3050  179.4800  140.5000 O   0  0  0  0  0  1  0  0  0  0  0  0
  184.1560  180.6080  138.8770 O   0  0  0  0  0  0  0  0  0  0  0  0
  182.9110  175.1660  138.2000 C   0  0  0  0  0  1  0  0  0  0  0  0
  183.7730  176.2290  137.5550 C   0  0  0  0  0  2  0  0  0  0  0  0
  189.7260  177.8390  140.2570 C   0  0  0  0  0  2  0  0  0  0  0  0
  190.5040  177.2090  141.4000 C   0  0  0  0  0  2  0  0  0  0  0  0
  190.0710  177.8040  142.7270 C   0  0  0  0  0  2  0  0  0  0  0  0
  189.6630  177.0100  145.1200 C   0  0  0  0  0  2  0  0  0  0  0  0
  188.1580  176.3180  143.2920 O   0  0  0  0  0  0  0  0  0  0  0  0
  187.3200  177.4500  143.2810 C   0  0  0  0  0  2  0  0  0  0  0  0
  187.4760  177.4670  145.8240 C   0  0  0  0  0  2  0  0  0  0  0  0
  188.7780  178.0740  145.5770 N   0  0  0  0  0  2  0  0  0  0  0  0
  186.5660  177.5970  144.6010 C   0  0  0  0  0  2  0  0  0  0  0  0
  189.4800  176.7150  143.6260 C   0  0  1  0  0  3  0  0  0  0  0  0
  2 25  1  0  0  0  0
  3  2  1  0  0  0  0
  4  7  1  0  0  0  0
  5  1  1  1  0  0  0
  5  4  1  0  0  0  0
  5  3  1  0  0  0  0
  6  4  2  0  0  0  0
  6 18  1  0  0  0  0
  7  2  1  0  0  0  0
  8 13  1  0  0  0  0
  9 14  1  0  0  0  0
 10  8  2  0  0  0  0
 11  9  2  0  0  0  0
 11 10  1  0  0  0  0
 12 10  1  0  0  0  0
 13  3  1  0  0  0  0
 14 13  2  0  0  0  0
 15 16  1  0  0  0  0
 16 11  1  0  0  0  0
 16 17  2  0  0  0  0
 18 20  1  0  0  0  0
 19 18  2  0  0  0  0
 20 21  1  0  0  0  0
 22 20  2  0  0  0  0
 24 23  1  0  0  0  0
 24 19  1  0  0  0  0
 25 26  1  0  0  0  0
 26 27  1  0  0  0  0
 28 32  1  0  0  0  0
 29 34  1  0  0  0  0
 30 29  1  0  0  0  0
 30 33  1  0  0  0  0
 32 31  1  0  0  0  0
 33 31  1  0  0  0  0
 34 27  1  6  0  0  0
 34 28  1  0  0  0  0
M  END
>  <MODEL>
3

>  <REMARK>
 VINA RESULT:      -7.2      2.983      6.659
  Name = 
  9 active torsions:
  status: ('A' for Active; 'I' for Inactive)
    1  A    between atoms: C_2  and  C_8
    2  A    between atoms: C_2  and  C_18
    3  A    between atoms: N_3  and  C_13
    4  A    between atoms: N_9  and  C_32
    5  A    between atoms: C_13  and  C_19
    6  A    between atoms: C_19  and  C_31
    7  A    between atoms: C_23  and  C_30
    8  A    between atoms: C_26  and  C_28
    9  A    between atoms: C_29  and  C_31
                            x       y       z     vdW  Elec       q    Type
                         _______ _______ _______ _____ _____    ______ ____

>  <TORSDO>
F 9

$$$$
=
 OpenBabel10232412333D

 34 36  0  0  1  0  0  0  0  0999 V2000
  191.2830  173.7590  136.6660 C   0  0  0  0  0  1  0  0  0  0  0  0
  191.8110  176.8600  137.9790 N   0  0  0  0  0  0  0  0  0  0  0  0
  190.9070  176.1050  137.1980 N   0  0  0  0  0  0  0  0  0  0  0  0
  192.9540  175.5390  136.3830 C   0  0  0  0  0  0  0  0  0  0  0  0
  191.5290  175.2010  136.2460 C   0  0  1  0  0  3  0  0  0  0  0  0
  193.9230  174.9880  135.6460 C   0  0  0  0  0  3  0  0  0  0  0  0
  193.1430  176.5540  137.4520 C   0  0  0  0  0  2  0  0  0  0  0  0
  189.1080  177.7830  136.9750 C   0  0  0  0  0  3  0  0  0  0  0  0
  187.1750  175.7840  137.1440 C   0  0  0  0  0  3  0  0  0  0  0  0
  187.7540  178.1240  136.9090 C   0  0  0  0  0  0  0  0  0  0  0  0
  186.7650  177.1180  136.9930 C   0  0  0  0  0  0  0  0  0  0  0  0
  187.4120  179.4630  136.7610 O   0  0  0  0  0  1  0  0  0  0  0  0
  189.5100  176.4490  137.1230 C   0  0  0  0  0  0  0  0  0  0  0  0
  188.5290  175.4530  137.2090 C   0  0  0  0  0  3  0  0  0  0  0  0
  184.5890  177.9510  138.1220 C   0  0  0  0  0  1  0  0  0  0  0  0
  185.3140  177.4240  136.9290 C   0  0  0  0  0  0  0  0  0  0  0  0
  184.6620  177.2460  135.8660 O   0  0  0  0  0  0  0  0  0  0  0  0
  195.3540  175.3480  135.7380 C   0  0  0  0  0  0  0  0  0  0  0  0
  196.1970  174.7380  136.5820 C   0  0  0  0  0  3  0  0  0  0  0  0
  195.8400  176.4810  134.9290 C   0  0  0  0  0  0  0  0  0  0  0  0
  197.0160  176.4900  134.4750 O   0  0  0  0  0  0  0  0  0  0  0  0
  195.0010  177.5540  134.6560 O   0  0  0  0  0  1  0  0  0  0  0  0
  195.7420  174.1950  138.9340 C   0  0  0  0  0  1  0  0  0  0  0  0
  195.8000  173.6490  137.5240 C   0  0  0  0  0  2  0  0  0  0  0  0
  191.7760  176.3250  139.3360 C   0  0  0  0  0  2  0  0  0  0  0  0
  191.2400  177.3670  140.3040 C   0  0  0  0  0  2  0  0  0  0  0  0
  189.9840  176.8580  140.9870 C   0  0  0  0  0  2  0  0  0  0  0  0
  191.0910  177.3390  143.2380 C   0  0  0  0  0  2  0  0  0  0  0  0
  189.2350  175.7220  143.0700 O   0  0  0  0  0  0  0  0  0  0  0  0
  188.1650  176.6350  143.1420 C   0  0  0  0  0  2  0  0  0  0  0  0
  189.5170  177.9310  144.8680 C   0  0  0  0  0  2  0  0  0  0  0  0
  190.2330  178.4240  143.6990 N   0  0  0  0  0  2  0  0  0  0  0  0
  188.1490  177.3690  144.4810 C   0  0  0  0  0  2  0  0  0  0  0  0
  190.3210  176.3250  142.3810 C   0  0  1  0  0  3  0  0  0  0  0  0
  2 25  1  0  0  0  0
  3  2  1  0  0  0  0
  4  7  1  0  0  0  0
  5  4  1  0  0  0  0
  5  1  1  1  0  0  0
  5  3  1  0  0  0  0
  6 18  1  0  0  0  0
  6  4  2  0  0  0  0
  7  2  1  0  0  0  0
  8 13  1  0  0  0  0
  9 14  1  0  0  0  0
 10  8  2  0  0  0  0
 10 11  1  0  0  0  0
 11  9  2  0  0  0  0
 12 10  1  0  0  0  0
 13  3  1  0  0  0  0
 13 14  2  0  0  0  0
 16 11  1  0  0  0  0
 16 15  1  0  0  0  0
 17 16  2  0  0  0  0
 18 19  2  0  0  0  0
 19 24  1  0  0  0  0
 20 18  1  0  0  0  0
 21 20  2  0  0  0  0
 22 20  1  0  0  0  0
 24 23  1  0  0  0  0
 25 26  1  0  0  0  0
 26 27  1  0  0  0  0
 28 32  1  0  0  0  0
 29 30  1  0  0  0  0
 30 33  1  0  0  0  0
 32 31  1  0  0  0  0
 33 31  1  0  0  0  0
 34 27  1  6  0  0  0
 34 29  1  0  0  0  0
 34 28  1  0  0  0  0
M  END
>  <MODEL>
4

>  <REMARK>
 VINA RESULT:      -7.0      3.766      7.185
  Name = 
  9 active torsions:
  status: ('A' for Active; 'I' for Inactive)
    1  A    between atoms: C_2  and  C_8
    2  A    between atoms: C_2  and  C_18
    3  A    between atoms: N_3  and  C_13
    4  A    between atoms: N_9  and  C_32
    5  A    between atoms: C_13  and  C_19
    6  A    between atoms: C_19  and  C_31
    7  A    between atoms: C_23  and  C_30
    8  A    between atoms: C_26  and  C_28
    9  A    between atoms: C_29  and  C_31
                            x       y       z     vdW  Elec       q    Type
                         _______ _______ _______ _____ _____    ______ ____

>  <TORSDO>
F 9

$$$$
=
 OpenBabel10232412333D

 34 36  0  0  1  0  0  0  0  0999 V2000
  191.9070  177.6580  139.2210 C   0  0  0  0  0  1  0  0  0  0  0  0
  188.6710  177.0790  140.1170 N   0  0  0  0  0  0  0  0  0  0  0  0
  190.0060  176.9240  140.5530 N   0  0  0  0  0  0  0  0  0  0  0  0
  190.0550  176.2860  138.3700 C   0  0  0  0  0  0  0  0  0  0  0  0
  190.9430  176.5190  139.5180 C   0  0  1  0  0  3  0  0  0  0  0  0
  190.4750  175.8350  137.1850 C   0  0  0  0  0  3  0  0  0  0  0  0
  188.6530  176.6320  138.7230 C   0  0  0  0  0  2  0  0  0  0  0  0
  190.9360  177.9370  142.6060 C   0  0  0  0  0  3  0  0  0  0  0  0
  190.4000  175.6080  144.0380 C   0  0  0  0  0  3  0  0  0  0  0  0
  191.2660  177.8690  143.9620 C   0  0  0  0  0  0  0  0  0  0  0  0
  190.9970  176.6920  144.6980 C   0  0  0  0  0  0  0  0  0  0  0  0
  191.8580  178.9760  144.5590 O   0  0  0  0  0  1  0  0  0  0  0  0
  190.3370  176.8510  141.9530 C   0  0  0  0  0  0  0  0  0  0  0  0
  190.0740  175.6850  142.6830 C   0  0  0  0  0  3  0  0  0  0  0  0
  190.4330  177.1470  147.1840 C   0  0  0  0  0  1  0  0  0  0  0  0
  191.3270  176.5660  146.1400 C   0  0  0  0  0  0  0  0  0  0  0  0
  192.3690  175.9660  146.5150 O   0  0  0  0  0  0  0  0  0  0  0  0
  189.5910  175.5500  136.0340 C   0  0  0  0  0  0  0  0  0  0  0  0
  189.0470  174.3430  135.8270 C   0  0  0  0  0  3  0  0  0  0  0  0
  189.3810  176.6150  135.0370 C   0  0  0  0  0  0  0  0  0  0  0  0
  190.3410  177.0500  134.3460 O   0  0  0  0  0  0  0  0  0  0  0  0
  188.1130  177.1490  134.8450 O   0  0  0  0  0  1  0  0  0  0  0  0
  187.9380  172.5240  137.0490 C   0  0  0  0  0  1  0  0  0  0  0  0
  189.2690  173.1590  136.7090 C   0  0  0  0  0  2  0  0  0  0  0  0
  188.3750  178.5080  140.0940 C   0  0  0  0  0  2  0  0  0  0  0  0
  187.0250  178.7820  140.7330 C   0  0  0  0  0  2  0  0  0  0  0  0
  187.1630  178.8810  142.2410 C   0  0  0  0  0  2  0  0  0  0  0  0
  187.2100  177.0810  144.0520 C   0  0  0  0  0  2  0  0  0  0  0  0
  185.0680  178.0260  143.2730 O   0  0  0  0  0  0  0  0  0  0  0  0
  185.0430  179.1720  144.0910 C   0  0  0  0  0  2  0  0  0  0  0  0
  186.0180  177.7400  145.9590 C   0  0  0  0  0  2  0  0  0  0  0  0
  187.2670  177.9340  145.2340 N   0  0  0  0  0  2  0  0  0  0  0  0
  184.9850  178.7990  145.5710 C   0  0  0  0  0  2  0  0  0  0  0  0
  186.4110  177.7320  142.9160 C   0  0  1  0  0  3  0  0  0  0  0  0
  2  3  1  0  0  0  0
  3 13  1  0  0  0  0
  4  7  1  0  0  0  0
  4  5  1  0  0  0  0
  5  1  1  6  0  0  0
  5  3  1  0  0  0  0
  6  4  2  0  0  0  0
  7  2  1  0  0  0  0
  8 10  1  0  0  0  0
  9 11  1  0  0  0  0
 10 12  1  0  0  0  0
 10 11  2  0  0  0  0
 11 16  1  0  0  0  0
 13  8  2  0  0  0  0
 13 14  1  0  0  0  0
 14  9  2  0  0  0  0
 16 17  2  0  0  0  0
 16 15  1  0  0  0  0
 18  6  1  0  0  0  0
 19 18  2  0  0  0  0
 19 24  1  0  0  0  0
 20 18  1  0  0  0  0
 21 20  2  0  0  0  0
 22 20  1  0  0  0  0
 24 23  1  0  0  0  0
 25  2  1  0  0  0  0
 25 26  1  0  0  0  0
 26 27  1  0  0  0  0
 28 32  1  0  0  0  0
 29 30  1  0  0  0  0
 30 33  1  0  0  0  0
 32 31  1  0  0  0  0
 33 31  1  0  0  0  0
 34 27  1  1  0  0  0
 34 29  1  0  0  0  0
 34 28  1  0  0  0  0
M  END
>  <MODEL>
5

>  <REMARK>
 VINA RESULT:      -7.0      1.874      2.450
  Name = 
  9 active torsions:
  status: ('A' for Active; 'I' for Inactive)
    1  A    between atoms: C_2  and  C_8
    2  A    between atoms: C_2  and  C_18
    3  A    between atoms: N_3  and  C_13
    4  A    between atoms: N_9  and  C_32
    5  A    between atoms: C_13  and  C_19
    6  A    between atoms: C_19  and  C_31
    7  A    between atoms: C_23  and  C_30
    8  A    between atoms: C_26  and  C_28
    9  A    between atoms: C_29  and  C_31
                            x       y       z     vdW  Elec       q    Type
                         _______ _______ _______ _____ _____    ______ ____

>  <TORSDO>
F 9

$$$$
=
 OpenBabel10232412333D

 34 36  0  0  1  0  0  0  0  0999 V2000
  192.2180  177.6710  140.3480 C   0  0  0  0  0  1  0  0  0  0  0  0
  188.9300  177.0850  139.6710 N   0  0  0  0  0  0  0  0  0  0  0  0
  189.8970  177.0280  140.7000 N   0  0  0  0  0  0  0  0  0  0  0  0
  190.9570  176.1470  138.8900 C   0  0  0  0  0  0  0  0  0  0  0  0
  191.2020  176.5410  140.2860 C   0  0  1  0  0  3  0  0  0  0  0  0
  191.8780  175.5780  138.1060 C   0  0  0  0  0  3  0  0  0  0  0  0
  189.5640  176.4820  138.4970 C   0  0  0  0  0  2  0  0  0  0  0  0
  190.5000  177.1180  143.0940 C   0  0  0  0  0  3  0  0  0  0  0  0
  187.8120  177.3080  143.7990 C   0  0  0  0  0  3  0  0  0  0  0  0
  190.1450  177.2050  144.4430 C   0  0  0  0  0  0  0  0  0  0  0  0
  188.7840  177.3030  144.8120 C   0  0  0  0  0  0  0  0  0  0  0  0
  191.1540  177.1930  145.3980 O   0  0  0  0  0  1  0  0  0  0  0  0
  189.5240  177.1260  142.0880 C   0  0  0  0  0  0  0  0  0  0  0  0
  188.1760  177.2200  142.4560 C   0  0  0  0  0  3  0  0  0  0  0  0
  187.0510  178.0340  146.5910 C   0  0  0  0  0  1  0  0  0  0  0  0
  188.3510  177.3980  146.2280 C   0  0  0  0  0  0  0  0  0  0  0  0
  189.0710  176.9430  147.1560 O   0  0  0  0  0  0  0  0  0  0  0  0
  191.6360  175.1330  136.7170 C   0  0  0  0  0  0  0  0  0  0  0  0
  192.4430  175.4740  135.7020 C   0  0  0  0  0  3  0  0  0  0  0  0
  190.4130  174.3610  136.4350 C   0  0  0  0  0  0  0  0  0  0  0  0
  189.6950  174.6330  135.4350 O   0  0  0  0  0  0  0  0  0  0  0  0
  190.0390  173.3170  137.2720 O   0  0  0  0  0  1  0  0  0  0  0  0
  194.8860  175.4640  135.9510 C   0  0  0  0  0  1  0  0  0  0  0  0
  193.6530  176.3370  135.8450 C   0  0  0  0  0  2  0  0  0  0  0  0
  188.7150  178.4910  139.3430 C   0  0  0  0  0  2  0  0  0  0  0  0
  187.6030  178.6330  138.3170 C   0  0  0  0  0  2  0  0  0  0  0  0
  186.3700  177.8690  138.7630 C   0  0  0  0  0  2  0  0  0  0  0  0
  183.8420  178.0980  138.4780 C   0  0  0  0  0  2  0  0  0  0  0  0
  185.0800  179.6080  139.9860 O   0  0  0  0  0  0  0  0  0  0  0  0
  185.1080  178.7800  141.1240 C   0  0  0  0  0  2  0  0  0  0  0  0
  182.7330  178.0670  140.5420 C   0  0  0  0  0  2  0  0  0  0  0  0
  183.4010  177.2240  139.5590 N   0  0  0  0  0  2  0  0  0  0  0  0
  183.6990  178.5010  141.6440 C   0  0  0  0  0  2  0  0  0  0  0  0
  185.1610  178.8050  138.8180 C   0  0  1  0  0  3  0  0  0  0  0  0
  2  3  1  0  0  0  0
  3 13  1  0  0  0  0
  4  5  1  0  0  0  0
  5  1  1  6  0  0  0
  5  3  1  0  0  0  0
  6  4  2  0  0  0  0
  7  4  1  0  0  0  0
  7  2  1  0  0  0  0
  8 10  1  0  0  0  0
  9 11  1  0  0  0  0
 10 11  2  0  0  0  0
 10 12  1  0  0  0  0
 11 16  1  0  0  0  0
 13 14  1  0  0  0  0
 13  8  2  0  0  0  0
 14  9  2  0  0  0  0
 16 15  1  0  0  0  0
 16 17  2  0  0  0  0
 18  6  1  0  0  0  0
 19 24  1  0  0  0  0
 19 18  2  0  0  0  0
 20 18  1  0  0  0  0
 20 22  1  0  0  0  0
 21 20  2  0  0  0  0
 24 23  1  0  0  0  0
 25  2  1  0  0  0  0
 26 27  1  0  0  0  0
 26 25  1  0  0  0  0
 28 34  1  0  0  0  0
 28 32  1  0  0  0  0
 29 30  1  0  0  0  0
 30 33  1  0  0  0  0
 31 33  1  0  0  0  0
 32 31  1  0  0  0  0
 34 27  1  1  0  0  0
 34 29  1  0  0  0  0
M  END
>  <MODEL>
6

>  <REMARK>
 VINA RESULT:      -6.8      2.191      3.188
  Name = 
  9 active torsions:
  status: ('A' for Active; 'I' for Inactive)
    1  A    between atoms: C_2  and  C_8
    2  A    between atoms: C_2  and  C_18
    3  A    between atoms: N_3  and  C_13
    4  A    between atoms: N_9  and  C_32
    5  A    between atoms: C_13  and  C_19
    6  A    between atoms: C_19  and  C_31
    7  A    between atoms: C_23  and  C_30
    8  A    between atoms: C_26  and  C_28
    9  A    between atoms: C_29  and  C_31
                            x       y       z     vdW  Elec       q    Type
                         _______ _______ _______ _____ _____    ______ ____

>  <TORSDO>
F 9

$$$$
=
 OpenBabel10232412333D

 34 36  0  0  1  0  0  0  0  0999 V2000
  188.8780  175.2520  143.1010 C   0  0  0  0  0  1  0  0  0  0  0  0
  189.5950  178.5680  142.7770 N   0  0  0  0  0  0  0  0  0  0  0  0
  190.0140  177.2790  142.3760 N   0  0  0  0  0  0  0  0  0  0  0  0
  189.5960  177.0610  144.6010 C   0  0  0  0  0  0  0  0  0  0  0  0
  189.9650  176.2690  143.4190 C   0  0  1  0  0  3  0  0  0  0  0  0
  189.4860  176.5530  145.8320 C   0  0  0  0  0  3  0  0  0  0  0  0
  189.3590  178.4780  144.2190 C   0  0  0  0  0  2  0  0  0  0  0  0
  192.1210  177.2740  141.0860 C   0  0  0  0  0  3  0  0  0  0  0  0
  190.7540  176.4820  138.7910 C   0  0  0  0  0  3  0  0  0  0  0  0
  192.8260  177.0820  139.8940 C   0  0  0  0  0  0  0  0  0  0  0  0
  192.1420  176.6790  138.7240 C   0  0  0  0  0  0  0  0  0  0  0  0
  194.1990  177.2950  139.8920 O   0  0  0  0  0  1  0  0  0  0  0  0
  190.7360  177.0720  141.1460 C   0  0  0  0  0  0  0  0  0  0  0  0
  190.0600  176.6770  139.9860 C   0  0  0  0  0  3  0  0  0  0  0  0
  192.2270  175.6220  136.3630 C   0  0  0  0  0  1  0  0  0  0  0  0
  192.8400  176.4610  137.4330 C   0  0  0  0  0  0  0  0  0  0  0  0
  193.9660  176.9800  137.2110 O   0  0  0  0  0  0  0  0  0  0  0  0
  189.1620  177.3420  147.0400 C   0  0  0  0  0  0  0  0  0  0  0  0
  187.9250  177.7880  147.2970 C   0  0  0  0  0  3  0  0  0  0  0  0
  190.2650  177.7220  147.9410 C   0  0  0  0  0  0  0  0  0  0  0  0
  190.0670  178.5080  148.9060 O   0  0  0  0  0  1  0  0  0  0  0  0
  191.5410  177.2100  147.7360 O   0  0  0  0  0  0  0  0  0  0  0  0
  185.6880  178.6000  146.6910 C   0  0  0  0  0  1  0  0  0  0  0  0
  186.7470  177.5570  146.4090 C   0  0  0  0  0  2  0  0  0  0  0  0
  188.2960  178.8210  142.1640 C   0  0  0  0  0  2  0  0  0  0  0  0
  187.1750  178.4490  143.1200 C   0  0  0  0  0  2  0  0  0  0  0  0
  185.9480  177.9990  142.3490 C   0  0  0  0  0  2  0  0  0  0  0  0
  184.1660  178.9670  140.7960 C   0  0  0  0  0  2  0  0  0  0  0  0
  184.3660  179.7530  143.1260 O   0  0  0  0  0  0  0  0  0  0  0  0
  183.6040  178.7440  143.7460 C   0  0  0  0  0  2  0  0  0  0  0  0
  182.0280  178.8410  141.7470 C   0  0  0  0  0  2  0  0  0  0  0  0
  183.0680  178.0550  141.0950 N   0  0  0  0  0  2  0  0  0  0  0  0
  182.1530  178.7680  143.2690 C   0  0  0  0  0  2  0  0  0  0  0  0
  185.0630  179.2030  142.0180 C   0  0  1  0  0  3  0  0  0  0  0  0
  2  7  1  0  0  0  0
  3  2  1  0  0  0  0
  3  5  1  0  0  0  0
  4  6  2  0  0  0  0
  5  1  1  6  0  0  0
  5  4  1  0  0  0  0
  6 18  1  0  0  0  0
  7  4  1  0  0  0  0
  8 13  1  0  0  0  0
  9 14  1  0  0  0  0
 10  8  2  0  0  0  0
 11  9  2  0  0  0  0
 11 10  1  0  0  0  0
 12 10  1  0  0  0  0
 13  3  1  0  0  0  0
 14 13  2  0  0  0  0
 15 16  1  0  0  0  0
 16 11  1  0  0  0  0
 17 16  2  0  0  0  0
 18 19  2  0  0  0  0
 18 20  1  0  0  0  0
 20 21  1  0  0  0  0
 22 20  2  0  0  0  0
 24 23  1  0  0  0  0
 24 19  1  0  0  0  0
 25  2  1  0  0  0  0
 25 26  1  0  0  0  0
 27 26  1  0  0  0  0
 28 32  1  0  0  0  0
 28 34  1  0  0  0  0
 29 30  1  0  0  0  0
 31 33  1  0  0  0  0
 32 31  1  0  0  0  0
 33 30  1  0  0  0  0
 34 27  1  1  0  0  0
 34 29  1  0  0  0  0
M  END
>  <MODEL>
7

>  <REMARK>
 VINA RESULT:      -6.7      2.419      7.089
  Name = 
  9 active torsions:
  status: ('A' for Active; 'I' for Inactive)
    1  A    between atoms: C_2  and  C_8
    2  A    between atoms: C_2  and  C_18
    3  A    between atoms: N_3  and  C_13
    4  A    between atoms: N_9  and  C_32
    5  A    between atoms: C_13  and  C_19
    6  A    between atoms: C_19  and  C_31
    7  A    between atoms: C_23  and  C_30
    8  A    between atoms: C_26  and  C_28
    9  A    between atoms: C_29  and  C_31
                            x       y       z     vdW  Elec       q    Type
                         _______ _______ _______ _____ _____    ______ ____

>  <TORSDO>
F 9

$$$$
=
 OpenBabel10232412333D

 34 36  0  0  1  0  0  0  0  0999 V2000
  190.2910  176.4340  134.9370 C   0  0  0  0  0  1  0  0  0  0  0  0
  190.6180  175.6720  138.2420 N   0  0  0  0  0  0  0  0  0  0  0  0
  191.2440  175.5260  136.9840 N   0  0  0  0  0  0  0  0  0  0  0  0
  189.0530  175.0780  136.5710 C   0  0  0  0  0  0  0  0  0  0  0  0
  190.3420  175.2430  135.8820 C   0  0  1  0  0  3  0  0  0  0  0  0
  187.9160  174.7450  135.9520 C   0  0  0  0  0  3  0  0  0  0  0  0
  189.2070  175.3470  138.0240 C   0  0  0  0  0  2  0  0  0  0  0  0
  193.4170  176.0980  135.9550 C   0  0  0  0  0  3  0  0  0  0  0  0
  194.7070  174.2150  137.5520 C   0  0  0  0  0  3  0  0  0  0  0  0
  194.7980  175.9200  135.8340 C   0  0  0  0  0  0  0  0  0  0  0  0
  195.4630  174.9680  136.6400 C   0  0  0  0  0  0  0  0  0  0  0  0
  195.4890  176.6960  134.9120 O   0  0  0  0  0  1  0  0  0  0  0  0
  192.6690  175.3440  136.8700 C   0  0  0  0  0  0  0  0  0  0  0  0
  193.3290  174.3990  137.6650 C   0  0  0  0  0  3  0  0  0  0  0  0
  197.4870  173.7110  135.6280 C   0  0  0  0  0  1  0  0  0  0  0  0
  196.9260  174.7390  136.5530 C   0  0  0  0  0  0  0  0  0  0  0  0
  197.7290  175.4080  137.2560 O   0  0  0  0  0  0  0  0  0  0  0  0
  186.6220  174.5300  136.6340 C   0  0  0  0  0  0  0  0  0  0  0  0
  185.7490  175.5240  136.8490 C   0  0  0  0  0  3  0  0  0  0  0  0
  186.3320  173.1890  137.1710 C   0  0  0  0  0  0  0  0  0  0  0  0
  185.4900  173.0340  138.0970 O   0  0  0  0  0  1  0  0  0  0  0  0
  186.9850  172.0750  136.6570 O   0  0  0  0  0  0  0  0  0  0  0  0
  186.4010  177.7520  137.6500 C   0  0  0  0  0  1  0  0  0  0  0  0
  185.9750  176.9430  136.4430 C   0  0  0  0  0  2  0  0  0  0  0  0
  190.6620  177.0870  138.5960 C   0  0  0  0  0  2  0  0  0  0  0  0
  191.1780  177.2650  140.0140 C   0  0  0  0  0  2  0  0  0  0  0  0
  190.0220  177.3090  140.9970 C   0  0  0  0  0  2  0  0  0  0  0  0
  191.1280  177.4210  143.2960 C   0  0  0  0  0  2  0  0  0  0  0  0
  189.3250  175.7980  142.8460 O   0  0  0  0  0  0  0  0  0  0  0  0
  188.2260  176.6470  143.0800 C   0  0  0  0  0  2  0  0  0  0  0  0
  189.5470  177.6620  145.0070 C   0  0  0  0  0  2  0  0  0  0  0  0
  190.2380  178.3770  143.9420 N   0  0  0  0  0  2  0  0  0  0  0  0
  188.1950  177.1310  144.5280 C   0  0  0  0  0  2  0  0  0  0  0  0
  190.3860  176.5490  142.2740 C   0  0  1  0  0  3  0  0  0  0  0  0
  2 25  1  0  0  0  0
  3  2  1  0  0  0  0
  4  7  1  0  0  0  0
  5  1  1  6  0  0  0
  5  4  1  0  0  0  0
  5  3  1  0  0  0  0
  6  4  2  0  0  0  0
  6 18  1  0  0  0  0
  7  2  1  0  0  0  0
  8 13  1  0  0  0  0
  9 14  1  0  0  0  0
 10  8  2  0  0  0  0
 10 11  1  0  0  0  0
 11  9  2  0  0  0  0
 12 10  1  0  0  0  0
 13  3  1  0  0  0  0
 13 14  2  0  0  0  0
 15 16  1  0  0  0  0
 16 11  1  0  0  0  0
 16 17  2  0  0  0  0
 18 19  2  0  0  0  0
 18 20  1  0  0  0  0
 20 21  1  0  0  0  0
 22 20  2  0  0  0  0
 24 19  1  0  0  0  0
 24 23  1  0  0  0  0
 25 26  1  0  0  0  0
 26 27  1  0  0  0  0
 28 32  1  0  0  0  0
 29 30  1  0  0  0  0
 30 33  1  0  0  0  0
 32 31  1  0  0  0  0
 33 31  1  0  0  0  0
 34 27  1  6  0  0  0
 34 29  1  0  0  0  0
 34 28  1  0  0  0  0
M  END
>  <MODEL>
8

>  <REMARK>
 VINA RESULT:      -6.7      3.677      6.868
  Name = 
  9 active torsions:
  status: ('A' for Active; 'I' for Inactive)
    1  A    between atoms: C_2  and  C_8
    2  A    between atoms: C_2  and  C_18
    3  A    between atoms: N_3  and  C_13
    4  A    between atoms: N_9  and  C_32
    5  A    between atoms: C_13  and  C_19
    6  A    between atoms: C_19  and  C_31
    7  A    between atoms: C_23  and  C_30
    8  A    between atoms: C_26  and  C_28
    9  A    between atoms: C_29  and  C_31
                            x       y       z     vdW  Elec       q    Type
                         _______ _______ _______ _____ _____    ______ ____

>  <TORSDO>
F 9

$$$$
=
 OpenBabel10232412333D

 34 36  0  0  1  0  0  0  0  0999 V2000
  185.3780  179.9070  144.2030 C   0  0  0  0  0  1  0  0  0  0  0  0
  186.7360  177.8010  141.8930 N   0  0  0  0  0  0  0  0  0  0  0  0
  185.5090  178.2160  142.4570 N   0  0  0  0  0  0  0  0  0  0  0  0
  186.8880  177.9690  144.2480 C   0  0  0  0  0  0  0  0  0  0  0  0
  185.5360  178.4250  143.8940 C   0  0  1  0  0  3  0  0  0  0  0  0
  187.3530  177.9230  145.5000 C   0  0  0  0  0  3  0  0  0  0  0  0
  187.6410  177.5880  143.0240 C   0  0  0  0  0  2  0  0  0  0  0  0
  183.0530  178.4480  142.3270 C   0  0  0  0  0  3  0  0  0  0  0  0
  183.0730  177.5590  139.6870 C   0  0  0  0  0  3  0  0  0  0  0  0
  181.8490  178.3440  141.6240 C   0  0  0  0  0  0  0  0  0  0  0  0
  181.8480  177.8950  140.2840 C   0  0  0  0  0  0  0  0  0  0  0  0
  180.6690  178.6900  142.2720 O   0  0  0  0  0  1  0  0  0  0  0  0
  184.2720  178.1140  141.7240 C   0  0  0  0  0  0  0  0  0  0  0  0
  184.2690  177.6660  140.3970 C   0  0  0  0  0  3  0  0  0  0  0  0
  180.0430  178.9310  138.7440 C   0  0  0  0  0  1  0  0  0  0  0  0
  180.6000  177.7660  139.4920 C   0  0  0  0  0  0  0  0  0  0  0  0
  179.9820  176.6700  139.4320 O   0  0  0  0  0  0  0  0  0  0  0  0
  188.6930  177.4230  145.8800 C   0  0  0  0  0  0  0  0  0  0  0  0
  188.9610  176.9410  147.1010 C   0  0  0  0  0  3  0  0  0  0  0  0
  189.7860  177.5480  144.8990 C   0  0  0  0  0  0  0  0  0  0  0  0
  190.3190  176.5230  144.3940 O   0  0  0  0  0  0  0  0  0  0  0  0
  190.2400  178.8040  144.5160 O   0  0  0  0  0  1  0  0  0  0  0  0
  188.1130  178.0660  149.1120 C   0  0  0  0  0  1  0  0  0  0  0  0
  187.9640  176.8600  148.2100 C   0  0  0  0  0  2  0  0  0  0  0  0
  187.2800  178.9270  141.1410 C   0  0  0  0  0  2  0  0  0  0  0  0
  188.5990  178.5440  140.4900 C   0  0  0  0  0  2  0  0  0  0  0  0
  188.3520  177.7110  139.2450 C   0  0  0  0  0  2  0  0  0  0  0  0
  189.7660  177.4680  137.1320 C   0  0  0  0  0  2  0  0  0  0  0  0
  188.0200  179.2050  137.2840 O   0  0  0  0  0  0  0  0  0  0  0  0
  186.9160  178.4150  136.9120 C   0  0  0  0  0  2  0  0  0  0  0  0
  188.4320  177.2690  135.2160 C   0  0  0  0  0  2  0  0  0  0  0  0
  188.9190  176.5460  136.3840 N   0  0  0  0  0  2  0  0  0  0  0  0
  187.0610  177.8910  135.4850 C   0  0  0  0  0  2  0  0  0  0  0  0
  188.9410  178.4110  138.0180 C   0  0  1  0  0  3  0  0  0  0  0  0
  2  3  1  0  0  0  0
  2  7  1  0  0  0  0
  3  5  1  0  0  0  0
  4  6  2  0  0  0  0
  5  1  1  6  0  0  0
  5  4  1  0  0  0  0
  6 18  1  0  0  0  0
  7  4  1  0  0  0  0
  9 11  2  0  0  0  0
  9 14  1  0  0  0  0
 10 12  1  0  0  0  0
 10  8  2  0  0  0  0
 11 10  1  0  0  0  0
 13  8  1  0  0  0  0
 13  3  1  0  0  0  0
 14 13  2  0  0  0  0
 15 16  1  0  0  0  0
 16 11  1  0  0  0  0
 17 16  2  0  0  0  0
 18 19  2  0  0  0  0
 19 24  1  0  0  0  0
 20 18  1  0  0  0  0
 21 20  2  0  0  0  0
 22 20  1  0  0  0  0
 24 23  1  0  0  0  0
 25  2  1  0  0  0  0
 26 25  1  0  0  0  0
 27 26  1  0  0  0  0
 28 34  1  0  0  0  0
 29 34  1  0  0  0  0
 30 29  1  0  0  0  0
 31 33  1  0  0  0  0
 31 32  1  0  0  0  0
 32 28  1  0  0  0  0
 33 30  1  0  0  0  0
 34 27  1  1  0  0  0
M  END
>  <MODEL>
9

>  <REMARK>
 VINA RESULT:      -6.6      2.689      8.759
  Name = 
  9 active torsions:
  status: ('A' for Active; 'I' for Inactive)
    1  A    between atoms: C_2  and  C_8
    2  A    between atoms: C_2  and  C_18
    3  A    between atoms: N_3  and  C_13
    4  A    between atoms: N_9  and  C_32
    5  A    between atoms: C_13  and  C_19
    6  A    between atoms: C_19  and  C_31
    7  A    between atoms: C_23  and  C_30
    8  A    between atoms: C_26  and  C_28
    9  A    between atoms: C_29  and  C_31
                            x       y       z     vdW  Elec       q    Type
                         _______ _______ _______ _____ _____    ______ ____

>  <TORSDO>
F 9

$$$$
