=
 OpenBabel10232407533D

 26 27  0  0  1  0  0  0  0  0999 V2000
  191.7100  176.6720  138.8790 C   0  0  0  0  0  0  0  0  0  0  0  0
  189.8710  176.8040  137.1700 C   0  0  0  0  0  0  0  0  0  0  0  0
  187.3430  178.2730  139.5090 C   0  0  0  0  0  3  0  0  0  0  0  0
  191.2320  176.2520  137.5070 C   0  0  2  0  0  3  0  0  0  0  0  0
  187.6160  177.8190  138.1050 C   0  0  0  0  0  3  0  0  0  0  0  0
  192.9380  176.5720  139.1500 O   0  0  0  0  0  0  0  0  0  0  0  0
  191.2090  177.3530  141.2350 C   0  0  0  0  0  0  0  0  0  0  0  0
  188.3950  178.0580  140.2930 C   0  0  0  0  0  2  0  0  0  0  0  0
  189.4300  177.4430  139.4770 C   0  0  0  0  0  0  0  0  0  0  0  0
  192.2340  178.0530  141.4540 O   0  0  0  0  0  0  0  0  0  0  0  0
  190.7760  177.1320  139.8810 N   0  0  0  0  0  0  0  0  0  0  0  0
  189.0080  177.3120  138.2390 C   0  0  0  0  0  0  0  0  0  0  0  0
  189.4720  176.8070  135.9760 O   0  0  0  0  0  0  0  0  0  0  0  0
  190.2280  174.0850  137.7220 O   0  0  0  0  0  0  0  0  0  0  0  0
  191.2380  174.7600  137.3850 C   0  0  0  0  0  0  0  0  0  0  0  0
  192.3930  174.0990  136.8830 N   0  0  0  0  0  1  0  0  0  0  0  0
  190.4910  176.7510  142.3700 C   0  0  0  0  0  0  0  0  0  0  0  0
  190.0160  177.5790  143.4310 N   0  0  0  0  0  2  0  0  0  0  0  0
  190.3130  175.5030  142.4170 O   0  0  0  0  0  0  0  0  0  0  0  0
  189.3360  177.0320  144.5240 N   0  0  0  0  0  0  0  0  0  0  0  0
  189.3830  177.6170  145.6740 C   0  0  0  0  0  3  0  0  0  0  0  0
  188.6630  177.0410  146.8470 C   0  0  0  0  0  2  0  0  0  0  0  0
  187.6220  177.9870  147.3480 C   0  0  0  0  0  0  0  0  0  0  0  0
  187.7410  178.4960  148.4500 O   0  0  0  0  0  0  0  0  0  0  0  0
  186.4160  178.2750  146.5170 C   0  0  0  0  0  2  0  0  0  0  0  0
  185.6240  179.2350  147.1490 O   0  0  0  0  0  1  0  0  0  0  0  0
  1  6  2  0  0  0  0
  1 11  1  0  0  0  0
  2  4  1  0  0  0  0
  2 12  1  0  0  0  0
  3  8  1  0  0  0  0
  4 15  1  1  0  0  0
  4  1  1  0  0  0  0
  5 12  1  0  0  0  0
  5  3  2  0  0  0  0
  7 10  2  0  0  0  0
  7 17  1  0  0  0  0
  9 11  1  0  0  0  0
  9  8  1  0  0  0  0
 11  7  1  0  0  0  0
 12  9  2  0  0  0  0
 13  2  2  0  0  0  0
 15 14  2  0  0  0  0
 16 15  1  0  0  0  0
 17 19  2  0  0  0  0
 17 18  1  0  0  0  0
 18 20  1  0  0  0  0
 20 21  2  0  0  0  0
 21 22  1  0  0  0  0
 22 23  1  0  0  0  0
 23 24  2  0  0  0  0
 25 26  1  0  0  0  0
 25 23  1  0  0  0  0
M  END
>  <MODEL>
1

>  <REMARK>
 VINA RESULT:      -6.8      0.000      0.000
  Name = 
  6 active torsions:
  status: ('A' for Active; 'I' for Inactive)
    1  A    between atoms: C_4  and  C_5
    2  A    between atoms: C_5  and  C_22
    3  A    between atoms: C_6  and  C_17
    4  A    between atoms: C_8  and  C_14
    5  A    between atoms: N_9  and  N_11
    6  A    between atoms: C_19  and  C_22
                            x       y       z     vdW  Elec       q    Type
                         _______ _______ _______ _____ _____    ______ ____

>  <TORSDO>
F 6

$$$$
=
 OpenBabel10232407533D

 26 27  0  0  1  0  0  0  0  0999 V2000
  191.8820  176.3130  138.2200 C   0  0  0  0  0  0  0  0  0  0  0  0
  190.1270  176.3240  136.4200 C   0  0  0  0  0  0  0  0  0  0  0  0
  187.6280  178.2880  138.3990 C   0  0  0  0  0  3  0  0  0  0  0  0
  191.4280  175.7330  136.8990 C   0  0  2  0  0  3  0  0  0  0  0  0
  187.9210  177.6180  137.0890 C   0  0  0  0  0  3  0  0  0  0  0  0
  193.0870  176.1690  138.5640 O   0  0  0  0  0  0  0  0  0  0  0  0
  191.3420  177.3610  140.4280 C   0  0  0  0  0  0  0  0  0  0  0  0
  188.6290  178.1160  139.2570 C   0  0  0  0  0  2  0  0  0  0  0  0
  189.6450  177.3190  138.5890 C   0  0  0  0  0  0  0  0  0  0  0  0
  192.4080  178.0130  140.5970 O   0  0  0  0  0  0  0  0  0  0  0  0
  190.9470  176.9770  139.0990 N   0  0  0  0  0  0  0  0  0  0  0  0
  189.2630  177.0400  137.3620 C   0  0  0  0  0  0  0  0  0  0  0  0
  189.7760  176.1810  135.2190 O   0  0  0  0  0  0  0  0  0  0  0  0
  192.3010  173.5110  136.6700 O   0  0  0  0  0  0  0  0  0  0  0  0
  191.3250  174.2420  136.9900 C   0  0  0  0  0  0  0  0  0  0  0  0
  190.1150  173.6460  137.4410 N   0  0  0  0  0  1  0  0  0  0  0  0
  190.5360  176.9810  141.5990 C   0  0  0  0  0  0  0  0  0  0  0  0
  189.9820  177.9930  142.4400 N   0  0  0  0  0  2  0  0  0  0  0  0
  190.3520  175.7640  141.8740 O   0  0  0  0  0  0  0  0  0  0  0  0
  189.2180  177.6590  143.5630 N   0  0  0  0  0  0  0  0  0  0  0  0
  189.7510  177.6840  144.7390 C   0  0  0  0  0  3  0  0  0  0  0  0
  188.9450  177.3270  145.9430 C   0  0  0  0  0  2  0  0  0  0  0  0
  189.8110  177.2580  147.1580 C   0  0  0  0  0  0  0  0  0  0  0  0
  189.4660  177.8210  148.1840 O   0  0  0  0  0  0  0  0  0  0  0  0
  191.1160  176.5370  147.1040 C   0  0  0  0  0  2  0  0  0  0  0  0
  191.9680  177.0230  148.0960 O   0  0  0  0  0  1  0  0  0  0  0  0
  1  6  2  0  0  0  0
  1 11  1  0  0  0  0
  2  4  1  0  0  0  0
  2 12  1  0  0  0  0
  3  8  1  0  0  0  0
  4 15  1  1  0  0  0
  4  1  1  0  0  0  0
  5 12  1  0  0  0  0
  5  3  2  0  0  0  0
  7 10  2  0  0  0  0
  7 17  1  0  0  0  0
  9 11  1  0  0  0  0
  9  8  1  0  0  0  0
 11  7  1  0  0  0  0
 12  9  2  0  0  0  0
 13  2  2  0  0  0  0
 14 15  2  0  0  0  0
 15 16  1  0  0  0  0
 17 19  2  0  0  0  0
 17 18  1  0  0  0  0
 18 20  1  0  0  0  0
 20 21  2  0  0  0  0
 21 22  1  0  0  0  0
 22 23  1  0  0  0  0
 23 24  2  0  0  0  0
 25 23  1  0  0  0  0
 25 26  1  0  0  0  0
M  END
>  <MODEL>
2

>  <REMARK>
 VINA RESULT:      -6.7      1.505      2.047
  Name = 
  6 active torsions:
  status: ('A' for Active; 'I' for Inactive)
    1  A    between atoms: C_4  and  C_5
    2  A    between atoms: C_5  and  C_22
    3  A    between atoms: C_6  and  C_17
    4  A    between atoms: C_8  and  C_14
    5  A    between atoms: N_9  and  N_11
    6  A    between atoms: C_19  and  C_22
                            x       y       z     vdW  Elec       q    Type
                         _______ _______ _______ _____ _____    ______ ____

>  <TORSDO>
F 6

$$$$
=
 OpenBabel10232407533D

 26 27  0  0  1  0  0  0  0  0999 V2000
  185.0200  178.6180  140.1610 C   0  0  0  0  0  0  0  0  0  0  0  0
  182.6470  178.6810  140.9880 C   0  0  0  0  0  0  0  0  0  0  0  0
  183.5590  179.0850  144.5980 C   0  0  0  0  0  3  0  0  0  0  0  0
  183.5630  178.3810  139.8310 C   0  0  2  0  0  3  0  0  0  0  0  0
  182.4360  178.9830  143.6070 C   0  0  0  0  0  3  0  0  0  0  0  0
  185.8450  178.7350  139.2150 O   0  0  0  0  0  0  0  0  0  0  0  0
  186.8760  178.7010  141.8380 C   0  0  0  0  0  0  0  0  0  0  0  0
  184.7380  178.9520  143.9980 C   0  0  0  0  0  2  0  0  0  0  0  0
  184.4870  178.7470  142.5810 C   0  0  0  0  0  0  0  0  0  0  0  0
  187.6130  179.5490  141.2660 O   0  0  0  0  0  0  0  0  0  0  0  0
  185.4710  178.6610  141.5330 N   0  0  0  0  0  0  0  0  0  0  0  0
  183.1940  178.7720  142.3440 C   0  0  0  0  0  0  0  0  0  0  0  0
  181.4120  178.8310  140.7910 O   0  0  0  0  0  0  0  0  0  0  0  0
  182.7820  176.1280  140.0790 O   0  0  0  0  0  0  0  0  0  0  0  0
  183.3570  176.9790  139.3490 C   0  0  0  0  0  0  0  0  0  0  0  0
  183.8150  176.6050  138.0550 N   0  0  0  0  0  1  0  0  0  0  0  0
  187.4760  177.7490  142.7860 C   0  0  0  0  0  0  0  0  0  0  0  0
  187.6320  178.1130  144.1570 N   0  0  0  0  0  2  0  0  0  0  0  0
  187.8700  176.6200  142.3860 O   0  0  0  0  0  0  0  0  0  0  0  0
  188.2040  177.2290  145.0780 N   0  0  0  0  0  0  0  0  0  0  0  0
  189.0960  177.6500  145.9110 C   0  0  0  0  0  3  0  0  0  0  0  0
  189.7150  176.7150  146.8950 C   0  0  0  0  0  2  0  0  0  0  0  0
  191.2040  176.7360  146.7830 C   0  0  0  0  0  0  0  0  0  0  0  0
  191.7340  177.2290  145.8020 O   0  0  0  0  0  0  0  0  0  0  0  0
  192.0400  176.1150  147.8520 C   0  0  0  0  0  2  0  0  0  0  0  0
  193.0110  175.2930  147.2770 O   0  0  0  0  0  1  0  0  0  0  0  0
  1 11  1  0  0  0  0
  2 12  1  0  0  0  0
  4 15  1  1  0  0  0
  4  1  1  0  0  0  0
  4  2  1  0  0  0  0
  5  3  2  0  0  0  0
  6  1  2  0  0  0  0
  7 17  1  0  0  0  0
  8  3  1  0  0  0  0
  9  8  1  0  0  0  0
 10  7  2  0  0  0  0
 11  7  1  0  0  0  0
 11  9  1  0  0  0  0
 12  9  2  0  0  0  0
 12  5  1  0  0  0  0
 13  2  2  0  0  0  0
 15 14  2  0  0  0  0
 16 15  1  0  0  0  0
 17 18  1  0  0  0  0
 18 20  1  0  0  0  0
 19 17  2  0  0  0  0
 20 21  2  0  0  0  0
 21 22  1  0  0  0  0
 23 22  1  0  0  0  0
 23 25  1  0  0  0  0
 24 23  2  0  0  0  0
 26 25  1  0  0  0  0
M  END
>  <MODEL>
3

>  <REMARK>
 VINA RESULT:      -6.5      4.650      6.269
  Name = 
  6 active torsions:
  status: ('A' for Active; 'I' for Inactive)
    1  A    between atoms: C_4  and  C_5
    2  A    between atoms: C_5  and  C_22
    3  A    between atoms: C_6  and  C_17
    4  A    between atoms: C_8  and  C_14
    5  A    between atoms: N_9  and  N_11
    6  A    between atoms: C_19  and  C_22
                            x       y       z     vdW  Elec       q    Type
                         _______ _______ _______ _____ _____    ______ ____

>  <TORSDO>
F 6

$$$$
=
 OpenBabel10232407533D

 26 27  0  0  1  0  0  0  0  0999 V2000
  187.5610  177.6060  136.4040 C   0  0  0  0  0  0  0  0  0  0  0  0
  185.1350  177.0850  136.0010 C   0  0  0  0  0  0  0  0  0  0  0  0
  183.9610  178.3570  139.3220 C   0  0  0  0  0  3  0  0  0  0  0  0
  186.5550  176.8840  135.5360 C   0  0  2  0  0  3  0  0  0  0  0  0
  183.5520  177.7510  138.0110 C   0  0  0  0  0  3  0  0  0  0  0  0
  188.7210  177.8050  135.9500 O   0  0  0  0  0  0  0  0  0  0  0  0
  188.2350  178.5350  138.6290 C   0  0  0  0  0  0  0  0  0  0  0  0
  185.2820  178.4890  139.3930 C   0  0  0  0  0  2  0  0  0  0  0  0
  185.8420  177.9780  138.1530 C   0  0  0  0  0  0  0  0  0  0  0  0
  188.9970  179.4570  138.2290 O   0  0  0  0  0  0  0  0  0  0  0  0
  187.2230  178.0180  137.7470 N   0  0  0  0  0  0  0  0  0  0  0  0
  184.8760  177.5680  137.3600 C   0  0  0  0  0  0  0  0  0  0  0  0
  184.1770  176.8160  135.2300 O   0  0  0  0  0  0  0  0  0  0  0  0
  187.1260  174.8800  134.3500 O   0  0  0  0  0  0  0  0  0  0  0  0
  186.8800  175.4250  135.4600 C   0  0  0  0  0  0  0  0  0  0  0  0
  186.9130  174.6480  136.6500 N   0  0  0  0  0  1  0  0  0  0  0  0
  188.4160  177.9870  139.9820 C   0  0  0  0  0  0  0  0  0  0  0  0
  187.9210  178.7050  141.1120 N   0  0  0  0  0  2  0  0  0  0  0  0
  189.0240  176.8950  140.1480 O   0  0  0  0  0  0  0  0  0  0  0  0
  188.0840  178.2090  142.4100 N   0  0  0  0  0  0  0  0  0  0  0  0
  187.0670  177.7530  143.0610 C   0  0  0  0  0  3  0  0  0  0  0  0
  187.2300  177.2250  144.4470 C   0  0  0  0  0  2  0  0  0  0  0  0
  186.3140  177.9270  145.3940 C   0  0  0  0  0  0  0  0  0  0  0  0
  186.5760  177.9610  146.5840 O   0  0  0  0  0  0  0  0  0  0  0  0
  185.0550  178.5510  144.8880 C   0  0  0  0  0  2  0  0  0  0  0  0
  184.2760  178.9840  145.9620 O   0  0  0  0  0  1  0  0  0  0  0  0
  1 11  1  0  0  0  0
  2 12  1  0  0  0  0
  3  8  1  0  0  0  0
  4 15  1  1  0  0  0
  4  2  1  0  0  0  0
  4  1  1  0  0  0  0
  5  3  2  0  0  0  0
  6  1  2  0  0  0  0
  7 17  1  0  0  0  0
  9  8  1  0  0  0  0
 10  7  2  0  0  0  0
 11  9  1  0  0  0  0
 11  7  1  0  0  0  0
 12  5  1  0  0  0  0
 12  9  2  0  0  0  0
 13  2  2  0  0  0  0
 14 15  2  0  0  0  0
 15 16  1  0  0  0  0
 17 19  2  0  0  0  0
 17 18  1  0  0  0  0
 18 20  1  0  0  0  0
 20 21  2  0  0  0  0
 21 22  1  0  0  0  0
 22 23  1  0  0  0  0
 23 24  2  0  0  0  0
 25 23  1  0  0  0  0
 25 26  1  0  0  0  0
M  END
>  <MODEL>
4

>  <REMARK>
 VINA RESULT:      -5.9      3.014      3.991
  Name = 
  6 active torsions:
  status: ('A' for Active; 'I' for Inactive)
    1  A    between atoms: C_4  and  C_5
    2  A    between atoms: C_5  and  C_22
    3  A    between atoms: C_6  and  C_17
    4  A    between atoms: C_8  and  C_14
    5  A    between atoms: N_9  and  N_11
    6  A    between atoms: C_19  and  C_22
                            x       y       z     vdW  Elec       q    Type
                         _______ _______ _______ _____ _____    ______ ____

>  <TORSDO>
F 6

$$$$
=
 OpenBabel10232407533D

 26 27  0  0  1  0  0  0  0  0999 V2000
  189.7810  176.5360  143.9400 C   0  0  0  0  0  0  0  0  0  0  0  0
  190.9710  177.2420  146.0390 C   0  0  0  0  0  0  0  0  0  0  0  0
  187.8460  178.0040  147.9570 C   0  0  0  0  0  3  0  0  0  0  0  0
  191.1010  176.9170  144.5730 C   0  0  2  0  0  3  0  0  0  0  0  0
  189.3450  177.9560  147.9980 C   0  0  0  0  0  2  0  0  0  0  0  0
  189.7930  175.9260  142.8360 O   0  0  0  0  0  0  0  0  0  0  0  0
  187.2850  176.7050  143.8610 C   0  0  0  0  0  0  0  0  0  0  0  0
  187.3920  177.6760  146.7500 C   0  0  0  0  0  3  0  0  0  0  0  0
  188.5450  177.3990  145.9090 C   0  0  0  0  0  0  0  0  0  0  0  0
  187.0340  175.5810  143.3490 O   0  0  0  0  0  0  0  0  0  0  0  0
  188.5290  176.9060  144.5560 N   0  0  0  0  0  0  0  0  0  0  0  0
  189.6530  177.5430  146.6030 C   0  0  0  0  0  0  0  0  0  0  0  0
  191.9960  177.2760  146.7690 O   0  0  0  0  0  0  0  0  0  0  0  0
  192.3560  177.8640  142.7630 O   0  0  0  0  0  0  0  0  0  0  0  0
  191.7250  178.0610  143.8360 C   0  0  0  0  0  0  0  0  0  0  0  0
  191.6040  179.3810  144.3520 N   0  0  0  0  0  1  0  0  0  0  0  0
  186.3130  177.7990  143.7110 C   0  0  0  0  0  0  0  0  0  0  0  0
  185.1430  177.8280  144.5280 N   0  0  0  0  0  2  0  0  0  0  0  0
  186.5010  178.7000  142.8490 O   0  0  0  0  0  0  0  0  0  0  0  0
  184.2000  178.8530  144.4020 N   0  0  0  0  0  0  0  0  0  0  0  0
  183.0940  178.6410  143.7710 C   0  0  0  0  0  3  0  0  0  0  0  0
  182.0830  179.7280  143.6280 C   0  0  0  0  0  2  0  0  0  0  0  0
  180.7450  179.1650  143.2750 C   0  0  0  0  0  0  0  0  0  0  0  0
  180.1200  178.5170  144.0980 O   0  0  0  0  0  0  0  0  0  0  0  0
  180.1930  179.3610  141.9010 C   0  0  0  0  0  2  0  0  0  0  0  0
  179.9830  180.7200  141.6640 O   0  0  0  0  0  1  0  0  0  0  0  0
  1 11  1  0  0  0  0
  1  4  1  0  0  0  0
  2 12  1  0  0  0  0
  2 13  2  0  0  0  0
  3  5  1  0  0  0  0
  4 15  1  6  0  0  0
  4  2  1  0  0  0  0
  6  1  2  0  0  0  0
  7 11  1  0  0  0  0
  8  3  2  0  0  0  0
  9 12  2  0  0  0  0
  9  8  1  0  0  0  0
 10  7  2  0  0  0  0
 11  9  1  0  0  0  0
 12  5  1  0  0  0  0
 14 15  2  0  0  0  0
 15 16  1  0  0  0  0
 17  7  1  0  0  0  0
 17 18  1  0  0  0  0
 19 17  2  0  0  0  0
 20 18  1  0  0  0  0
 21 20  2  0  0  0  0
 22 21  1  0  0  0  0
 23 22  1  0  0  0  0
 23 24  2  0  0  0  0
 25 23  1  0  0  0  0
 26 25  1  0  0  0  0
M  END
>  <MODEL>
5

>  <REMARK>
 VINA RESULT:      -5.8      4.599      7.273
  Name = 
  6 active torsions:
  status: ('A' for Active; 'I' for Inactive)
    1  A    between atoms: C_4  and  C_5
    2  A    between atoms: C_5  and  C_22
    3  A    between atoms: C_6  and  C_17
    4  A    between atoms: C_8  and  C_14
    5  A    between atoms: N_9  and  N_11
    6  A    between atoms: C_19  and  C_22
                            x       y       z     vdW  Elec       q    Type
                         _______ _______ _______ _____ _____    ______ ____

>  <TORSDO>
F 6

$$$$
=
 OpenBabel10232407533D

 26 27  0  0  1  0  0  0  0  0999 V2000
  185.6390  178.1040  137.5710 C   0  0  0  0  0  0  0  0  0  0  0  0
  184.7540  175.9230  136.6890 C   0  0  0  0  0  0  0  0  0  0  0  0
  181.9970  175.6360  139.2060 C   0  0  0  0  0  3  0  0  0  0  0  0
  185.8850  176.9180  136.6650 C   0  0  2  0  0  3  0  0  0  0  0  0
  182.6550  175.0100  138.0120 C   0  0  0  0  0  3  0  0  0  0  0  0
  186.3210  179.1500  137.3980 O   0  0  0  0  0  0  0  0  0  0  0  0
  184.5830  179.0880  139.6160 C   0  0  0  0  0  0  0  0  0  0  0  0
  182.6420  176.7360  139.5830 C   0  0  0  0  0  2  0  0  0  0  0  0
  183.7680  176.9140  138.6820 C   0  0  0  0  0  0  0  0  0  0  0  0
  184.4820  180.2820  139.2230 O   0  0  0  0  0  0  0  0  0  0  0  0
  184.6800  178.0280  138.6480 N   0  0  0  0  0  0  0  0  0  0  0  0
  183.7820  175.9530  137.7840 C   0  0  0  0  0  0  0  0  0  0  0  0
  184.6600  175.0550  135.7810 O   0  0  0  0  0  0  0  0  0  0  0  0
  187.7510  176.4970  138.1100 O   0  0  0  0  0  0  0  0  0  0  0  0
  187.1790  176.2510  137.0150 C   0  0  0  0  0  0  0  0  0  0  0  0
  187.7650  175.3300  136.1030 N   0  0  0  0  0  1  0  0  0  0  0  0
  184.6310  178.8050  141.0590 C   0  0  0  0  0  0  0  0  0  0  0  0
  185.8680  178.4420  141.6720 N   0  0  0  0  0  2  0  0  0  0  0  0
  183.5780  178.8630  141.7510 O   0  0  0  0  0  0  0  0  0  0  0  0
  185.9400  178.1630  143.0410 N   0  0  0  0  0  0  0  0  0  0  0  0
  187.0200  177.6640  143.5430 C   0  0  0  0  0  3  0  0  0  0  0  0
  187.1060  177.3600  145.0010 C   0  0  0  0  0  2  0  0  0  0  0  0
  188.4830  177.6210  145.5170 C   0  0  0  0  0  0  0  0  0  0  0  0
  189.3500  178.0270  144.7610 O   0  0  0  0  0  0  0  0  0  0  0  0
  188.8080  177.3460  146.9480 C   0  0  0  0  0  2  0  0  0  0  0  0
  187.6920  177.6040  147.7450 O   0  0  0  0  0  1  0  0  0  0  0  0
  1 11  1  0  0  0  0
  2 12  1  0  0  0  0
  3  8  1  0  0  0  0
  4  2  1  0  0  0  0
  4 15  1  1  0  0  0
  4  1  1  0  0  0  0
  5  3  2  0  0  0  0
  6  1  2  0  0  0  0
  7 17  1  0  0  0  0
  9  8  1  0  0  0  0
 10  7  2  0  0  0  0
 11  9  1  0  0  0  0
 11  7  1  0  0  0  0
 12  5  1  0  0  0  0
 12  9  2  0  0  0  0
 13  2  2  0  0  0  0
 15 14  2  0  0  0  0
 16 15  1  0  0  0  0
 17 18  1  0  0  0  0
 17 19  2  0  0  0  0
 18 20  1  0  0  0  0
 20 21  2  0  0  0  0
 21 22  1  0  0  0  0
 22 23  1  0  0  0  0
 23 25  1  0  0  0  0
 24 23  2  0  0  0  0
 25 26  1  0  0  0  0
M  END
>  <MODEL>
6

>  <REMARK>
 VINA RESULT:      -5.8      4.076      5.338
  Name = 
  6 active torsions:
  status: ('A' for Active; 'I' for Inactive)
    1  A    between atoms: C_4  and  C_5
    2  A    between atoms: C_5  and  C_22
    3  A    between atoms: C_6  and  C_17
    4  A    between atoms: C_8  and  C_14
    5  A    between atoms: N_9  and  N_11
    6  A    between atoms: C_19  and  C_22
                            x       y       z     vdW  Elec       q    Type
                         _______ _______ _______ _____ _____    ______ ____

>  <TORSDO>
F 6

$$$$
=
 OpenBabel10232407533D

 26 27  0  0  1  0  0  0  0  0999 V2000
  189.8170  174.7570  137.1090 C   0  0  0  0  0  0  0  0  0  0  0  0
  187.9170  175.6650  135.7360 C   0  0  0  0  0  0  0  0  0  0  0  0
  188.2320  179.1740  137.0050 C   0  0  0  0  0  3  0  0  0  0  0  0
  188.6220  174.4320  136.2390 C   0  0  2  0  0  3  0  0  0  0  0  0
  187.4920  178.2520  136.0810 C   0  0  0  0  0  3  0  0  0  0  0  0
  190.6790  173.8600  137.3130 O   0  0  0  0  0  0  0  0  0  0  0  0
  190.9820  176.2910  138.7070 C   0  0  0  0  0  0  0  0  0  0  0  0
  189.1460  178.5110  137.7090 C   0  0  0  0  0  2  0  0  0  0  0  0
  189.0730  177.1140  137.3140 C   0  0  0  0  0  0  0  0  0  0  0  0
  192.1730  175.9830  138.4340 O   0  0  0  0  0  0  0  0  0  0  0  0
  189.9460  176.0510  137.7380 N   0  0  0  0  0  0  0  0  0  0  0  0
  188.1520  176.9550  136.3890 C   0  0  0  0  0  0  0  0  0  0  0  0
  187.1110  175.5790  134.7720 O   0  0  0  0  0  0  0  0  0  0  0  0
  186.7140  174.0340  137.6350 O   0  0  0  0  0  0  0  0  0  0  0  0
  187.6670  173.5430  136.9720 C   0  0  0  0  0  0  0  0  0  0  0  0
  187.8370  172.1320  136.9180 N   0  0  0  0  0  1  0  0  0  0  0  0
  190.6700  176.8630  140.0260 C   0  0  0  0  0  0  0  0  0  0  0  0
  189.4500  176.5160  140.6820 N   0  0  0  0  0  2  0  0  0  0  0  0
  191.4670  177.6740  140.5700 O   0  0  0  0  0  0  0  0  0  0  0  0
  189.1260  177.0500  141.9330 N   0  0  0  0  0  0  0  0  0  0  0  0
  189.3730  176.3770  143.0070 C   0  0  0  0  0  3  0  0  0  0  0  0
  189.0300  176.9360  144.3470 C   0  0  0  0  0  2  0  0  0  0  0  0
  190.2540  177.4290  145.0460 C   0  0  0  0  0  0  0  0  0  0  0  0
  190.9990  178.2180  144.4880 O   0  0  0  0  0  0  0  0  0  0  0  0
  190.5870  176.9240  146.4110 C   0  0  0  0  0  2  0  0  0  0  0  0
  191.9720  176.8290  146.5550 O   0  0  0  0  0  1  0  0  0  0  0  0
  1  6  2  0  0  0  0
  1 11  1  0  0  0  0
  2  4  1  0  0  0  0
  2 12  1  0  0  0  0
  3  8  1  0  0  0  0
  4 15  1  1  0  0  0
  4  1  1  0  0  0  0
  5 12  1  0  0  0  0
  5  3  2  0  0  0  0
  7 17  1  0  0  0  0
  9  8  1  0  0  0  0
  9 11  1  0  0  0  0
 10  7  2  0  0  0  0
 11  7  1  0  0  0  0
 12  9  2  0  0  0  0
 13  2  2  0  0  0  0
 15 14  2  0  0  0  0
 16 15  1  0  0  0  0
 17 19  2  0  0  0  0
 17 18  1  0  0  0  0
 18 20  1  0  0  0  0
 20 21  2  0  0  0  0
 21 22  1  0  0  0  0
 22 23  1  0  0  0  0
 23 25  1  0  0  0  0
 24 23  2  0  0  0  0
 25 26  1  0  0  0  0
M  END
>  <MODEL>
7

>  <REMARK>
 VINA RESULT:      -5.7      2.507      3.462
  Name = 
  6 active torsions:
  status: ('A' for Active; 'I' for Inactive)
    1  A    between atoms: C_4  and  C_5
    2  A    between atoms: C_5  and  C_22
    3  A    between atoms: C_6  and  C_17
    4  A    between atoms: C_8  and  C_14
    5  A    between atoms: N_9  and  N_11
    6  A    between atoms: C_19  and  C_22
                            x       y       z     vdW  Elec       q    Type
                         _______ _______ _______ _____ _____    ______ ____

>  <TORSDO>
F 6

$$$$
=
 OpenBabel10232407533D

 26 27  0  0  1  0  0  0  0  0999 V2000
  187.6710  177.0670  137.1410 C   0  0  0  0  0  0  0  0  0  0  0  0
  185.3110  176.6930  136.3610 C   0  0  0  0  0  0  0  0  0  0  0  0
  183.7370  178.7920  139.0340 C   0  0  0  0  0  3  0  0  0  0  0  0
  186.7500  176.2620  136.2510 C   0  0  2  0  0  3  0  0  0  0  0  0
  183.4940  177.9430  137.8200 C   0  0  0  0  0  3  0  0  0  0  0  0
  188.9100  177.0490  136.9050 O   0  0  0  0  0  0  0  0  0  0  0  0
  188.0500  178.4130  139.2170 C   0  0  0  0  0  0  0  0  0  0  0  0
  185.0290  178.8140  139.3480 C   0  0  0  0  0  2  0  0  0  0  0  0
  185.7300  177.9840  138.3820 C   0  0  0  0  0  0  0  0  0  0  0  0
  188.9890  179.1440  138.8020 O   0  0  0  0  0  0  0  0  0  0  0  0
  187.1540  177.8030  138.2710 N   0  0  0  0  0  0  0  0  0  0  0  0
  184.8780  177.4950  137.5080 C   0  0  0  0  0  0  0  0  0  0  0  0
  184.4810  176.3440  135.4810 O   0  0  0  0  0  0  0  0  0  0  0  0
  186.1310  174.2440  137.3880 O   0  0  0  0  0  0  0  0  0  0  0  0
  186.8840  174.8000  136.5450 C   0  0  0  0  0  0  0  0  0  0  0  0
  187.8710  174.0330  135.8650 N   0  0  0  0  0  1  0  0  0  0  0  0
  187.9070  178.1730  140.6610 C   0  0  0  0  0  0  0  0  0  0  0  0
  188.6550  177.1310  141.2870 N   0  0  0  0  0  2  0  0  0  0  0  0
  187.1090  178.8720  141.3440 O   0  0  0  0  0  0  0  0  0  0  0  0
  188.5340  176.8780  142.6570 N   0  0  0  0  0  0  0  0  0  0  0  0
  189.2630  177.5280  143.5020 C   0  0  0  0  0  3  0  0  0  0  0  0
  189.1430  177.2640  144.9660 C   0  0  0  0  0  2  0  0  0  0  0  0
  190.4840  177.2970  145.6220 C   0  0  0  0  0  0  0  0  0  0  0  0
  191.4700  177.6180  144.9790 O   0  0  0  0  0  0  0  0  0  0  0  0
  190.6230  176.8970  147.0540 C   0  0  0  0  0  2  0  0  0  0  0  0
  191.9700  176.9080  147.4200 O   0  0  0  0  0  1  0  0  0  0  0  0
  1 11  1  0  0  0  0
  2 12  1  0  0  0  0
  3  8  1  0  0  0  0
  4  2  1  0  0  0  0
  4 15  1  1  0  0  0
  4  1  1  0  0  0  0
  5  3  2  0  0  0  0
  6  1  2  0  0  0  0
  7 17  1  0  0  0  0
  9  8  1  0  0  0  0
 10  7  2  0  0  0  0
 11  9  1  0  0  0  0
 11  7  1  0  0  0  0
 12  5  1  0  0  0  0
 12  9  2  0  0  0  0
 13  2  2  0  0  0  0
 15 14  2  0  0  0  0
 16 15  1  0  0  0  0
 17 18  1  0  0  0  0
 17 19  2  0  0  0  0
 18 20  1  0  0  0  0
 20 21  2  0  0  0  0
 21 22  1  0  0  0  0
 22 23  1  0  0  0  0
 23 25  1  0  0  0  0
 24 23  2  0  0  0  0
 25 26  1  0  0  0  0
M  END
>  <MODEL>
8

>  <REMARK>
 VINA RESULT:      -5.7      3.102      4.168
  Name = 
  6 active torsions:
  status: ('A' for Active; 'I' for Inactive)
    1  A    between atoms: C_4  and  C_5
    2  A    between atoms: C_5  and  C_22
    3  A    between atoms: C_6  and  C_17
    4  A    between atoms: C_8  and  C_14
    5  A    between atoms: N_9  and  N_11
    6  A    between atoms: C_19  and  C_22
                            x       y       z     vdW  Elec       q    Type
                         _______ _______ _______ _____ _____    ______ ____

>  <TORSDO>
F 6

$$$$
=
 OpenBabel10232407533D

 26 27  0  0  1  0  0  0  0  0999 V2000
  187.8980  177.2370  136.2040 C   0  0  0  0  0  0  0  0  0  0  0  0
  185.5690  176.3970  135.7680 C   0  0  0  0  0  0  0  0  0  0  0  0
  184.0300  178.1320  138.7080 C   0  0  0  0  0  3  0  0  0  0  0  0
  187.0320  176.2640  135.4340 C   0  0  2  0  0  3  0  0  0  0  0  0
  183.7810  177.2540  137.5170 C   0  0  0  0  0  3  0  0  0  0  0  0
  189.0660  177.4690  135.7880 O   0  0  0  0  0  0  0  0  0  0  0  0
  188.3090  178.6280  138.2440 C   0  0  0  0  0  0  0  0  0  0  0  0
  185.3240  178.4140  138.8300 C   0  0  0  0  0  2  0  0  0  0  0  0
  186.0220  177.7430  137.7450 C   0  0  0  0  0  0  0  0  0  0  0  0
  189.0120  179.5340  137.7190 O   0  0  0  0  0  0  0  0  0  0  0  0
  187.4210  177.8520  137.4210 N   0  0  0  0  0  0  0  0  0  0  0  0
  185.1630  177.0940  136.9910 C   0  0  0  0  0  0  0  0  0  0  0  0
  184.7020  175.8900  135.0090 O   0  0  0  0  0  0  0  0  0  0  0  0
  188.0800  174.2220  134.7400 O   0  0  0  0  0  0  0  0  0  0  0  0
  187.4960  174.8590  135.6580 C   0  0  0  0  0  0  0  0  0  0  0  0
  187.2760  174.2380  136.9180 N   0  0  0  0  0  1  0  0  0  0  0  0
  188.4360  178.3620  139.6850 C   0  0  0  0  0  0  0  0  0  0  0  0
  189.1240  177.1950  140.1360 N   0  0  0  0  0  2  0  0  0  0  0  0
  187.9200  179.1510  140.5230 O   0  0  0  0  0  0  0  0  0  0  0  0
  189.2530  176.9150  141.5000 N   0  0  0  0  0  0  0  0  0  0  0  0
  190.4190  176.9220  142.0540 C   0  0  0  0  0  3  0  0  0  0  0  0
  190.5690  176.6230  143.5080 C   0  0  0  0  0  2  0  0  0  0  0  0
  190.0430  177.7480  144.3380 C   0  0  0  0  0  0  0  0  0  0  0  0
  190.5460  178.8550  144.2520 O   0  0  0  0  0  0  0  0  0  0  0  0
  188.9300  177.5050  145.3030 C   0  0  0  0  0  2  0  0  0  0  0  0
  187.8490  176.9190  144.6420 O   0  0  0  0  0  1  0  0  0  0  0  0
  1 11  1  0  0  0  0
  2 12  1  0  0  0  0
  3  8  1  0  0  0  0
  4 15  1  1  0  0  0
  4  2  1  0  0  0  0
  4  1  1  0  0  0  0
  5  3  2  0  0  0  0
  6  1  2  0  0  0  0
  7 17  1  0  0  0  0
  9  8  1  0  0  0  0
 10  7  2  0  0  0  0
 11  9  1  0  0  0  0
 11  7  1  0  0  0  0
 12  5  1  0  0  0  0
 12  9  2  0  0  0  0
 13  2  2  0  0  0  0
 14 15  2  0  0  0  0
 15 16  1  0  0  0  0
 17 18  1  0  0  0  0
 17 19  2  0  0  0  0
 18 20  1  0  0  0  0
 20 21  2  0  0  0  0
 21 22  1  0  0  0  0
 22 23  1  0  0  0  0
 23 25  1  0  0  0  0
 24 23  2  0  0  0  0
 26 25  1  0  0  0  0
M  END
>  <MODEL>
9

>  <REMARK>
 VINA RESULT:      -5.6      2.959      4.201
  Name = 
  6 active torsions:
  status: ('A' for Active; 'I' for Inactive)
    1  A    between atoms: C_4  and  C_5
    2  A    between atoms: C_5  and  C_22
    3  A    between atoms: C_6  and  C_17
    4  A    between atoms: C_8  and  C_14
    5  A    between atoms: N_9  and  N_11
    6  A    between atoms: C_19  and  C_22
                            x       y       z     vdW  Elec       q    Type
                         _______ _______ _______ _____ _____    ______ ____

>  <TORSDO>
F 6

$$$$
