=
 OpenBabel10232412243D

 38 40  0  0  1  0  0  0  0  0999 V2000
  189.2680  177.8780  141.2120 C   0  0  0  0  0  0  0  0  0  0  0  0
  191.3950  177.2690  141.4430 C   0  0  0  0  0  3  0  0  0  0  0  0
  189.6480  178.0680  142.5250 C   0  0  0  0  0  3  0  0  0  0  0  0
  190.3610  177.3850  140.5360 C   0  0  0  0  0  0  0  0  0  0  0  0
  190.9360  177.6830  142.6390 N   0  0  0  0  0  0  0  0  0  0  0  0
  187.9360  178.2030  140.6300 C   0  0  0  0  0  2  0  0  0  0  0  0
  187.0260  178.7640  141.7050 C   0  0  0  0  0  2  0  0  0  0  0  0
  183.2880  179.7150  138.6680 C   0  0  0  0  0  3  0  0  0  0  0  0
  181.8410  178.5470  140.8120 C   0  0  0  0  0  3  0  0  0  0  0  0
  181.1720  178.9990  139.6640 C   0  0  0  0  0  3  0  0  0  0  0  0
  185.2830  179.3370  140.0060 N   0  0  0  0  0  0  0  0  0  0  0  0
  184.2850  178.2490  142.0780 S   0  0  0  0  0  0  0  0  0  0  0  0
  181.8900  179.5780  138.5980 C   0  0  0  0  0  3  0  0  0  0  0  0
  183.9420  179.2620  139.8140 C   0  0  0  0  0  0  0  0  0  0  0  0
  183.2250  178.6890  140.8550 C   0  0  0  0  0  0  0  0  0  0  0  0
  185.6240  178.8170  141.2110 C   0  0  0  0  0  0  0  0  0  0  0  0
  190.3930  177.0690  139.1750 O   0  0  0  0  0  0  0  0  0  0  0  0
  191.4700  176.3530  138.5790 C   0  0  0  0  0  2  0  0  0  0  0  0
  191.3070  176.2980  137.1340 N   0  0  0  0  0  2  0  0  0  0  0  0
  189.9840  175.7620  136.8590 C   0  0  0  0  0  2  0  0  0  0  0  0
  189.7240  175.7880  135.3660 C   0  0  0  0  0  2  0  0  0  0  0  0
  188.5740  176.6300  135.0840 N   0  0  0  0  0  2  0  0  0  0  0  0
  188.7080  177.8210  135.9060 C   0  0  0  0  0  2  0  0  0  0  0  0
  187.3510  178.4830  136.0740 C   0  0  1  0  0  3  0  0  0  0  0  0
  186.3640  177.5000  136.6150 C   0  0  0  0  0  0  0  0  0  0  0  0
  186.6900  176.7420  137.7320 O   0  0  0  0  0  1  0  0  0  0  0  0
  185.2340  177.3610  136.0730 O   0  0  0  0  0  0  0  0  0  0  0  0
  187.4530  179.5780  136.9360 O   0  0  0  0  0  0  0  0  0  0  0  0
  188.6930  179.5400  137.3810 O   0  0  0  0  0  1  0  0  0  0  0  0
  191.7200  177.7250  143.8620 C   0  0  0  0  0  2  0  0  0  0  0  0
  191.4740  176.4810  144.7090 C   0  0  0  0  0  2  0  0  0  0  0  0
  191.1880  176.8370  146.1610 C   0  0  0  0  0  2  0  0  0  0  0  0
  189.8350  177.5180  146.2890 C   0  0  0  0  0  2  0  0  0  0  0  0
  189.0600  176.9320  147.4600 C   0  0  0  0  0  2  0  0  0  0  0  0
  187.7290  177.5930  147.6140 C   0  0  0  0  0  3  0  0  0  0  0  0
  187.1020  178.1280  146.5760 C   0  0  0  0  0  3  0  0  0  0  0  0
  184.8670  178.6180  145.8240 C   0  0  0  0  0  2  0  0  0  0  0  0
  185.7960  178.7520  146.7550 C   0  0  0  0  0  3  0  0  0  0  0  0
  1  3  2  0  0  0  0
  2  5  1  0  0  0  0
  3  5  1  0  0  0  0
  4  1  1  0  0  0  0
  4  2  2  0  0  0  0
  5 30  1  0  0  0  0
  6  1  1  0  0  0  0
  6  7  1  0  0  0  0
  8 14  1  0  0  0  0
  9 15  1  0  0  0  0
 10  9  2  0  0  0  0
 11 16  2  0  0  0  0
 13  8  2  0  0  0  0
 13 10  1  0  0  0  0
 14 11  1  0  0  0  0
 14 15  2  0  0  0  0
 15 12  1  0  0  0  0
 16  7  1  0  0  0  0
 16 12  1  0  0  0  0
 17  4  1  0  0  0  0
 18 17  1  0  0  0  0
 19 18  1  0  0  0  0
 20 19  1  0  0  0  0
 21 20  1  0  0  0  0
 22 21  1  0  0  0  0
 22 23  1  0  0  0  0
 24 23  1  1  0  0  0
 24 25  1  0  0  0  0
 24 28  1  0  0  0  0
 25 26  1  0  0  0  0
 27 25  2  0  0  0  0
 28 29  1  0  0  0  0
 30 31  1  0  0  0  0
 31 32  1  0  0  0  0
 32 33  1  0  0  0  0
 33 34  1  0  0  0  0
 34 35  1  0  0  0  0
 36 38  1  0  0  0  0
 36 35  2  0  0  0  0
 37 38  2  0  0  0  0
M  END
>  <MODEL>
1

>  <REMARK>
 VINA RESULT:      -6.9      0.000      0.000
  Name = 
  20 active torsions:
  status: ('A' for Active; 'I' for Inactive)
    1  A    between atoms: C_2  and  C_20
    2  A    between atoms: C_4  and  C_32
    3  A    between atoms: C_4  and  C_36
    4  A    between atoms: C_5  and  C_32
    5  A    between atoms: C_7  and  C_13
    6  A    between atoms: N_8  and  C_24
    7  A    between atoms: N_8  and  C_37
    8  A    between atoms: C_10  and  C_11
    9  A    between atoms: C_10  and  N_38
   10  A    between atoms: C_11  and  C_33
   11  A    between atoms: C_13  and  C_19
   12  A    between atoms: C_14  and  C_35
   13  A    between atoms: N_15  and  C_16
   14  A    between atoms: N_15  and  C_18
   15  A    between atoms: C_16  and  C_24
   16  A    between atoms: C_18  and  O_30
   17  A    between atoms: C_19  and  C_33
   18  A    between atoms: C_20  and  O_21
   19  A    between atoms: C_20  and  C_37
   20  A    between atoms: C_28  and  O_30
                            x       y       z     vdW  Elec       q    Type
                         _______ _______ _______ _____ _____    ______ ____

>  <TORSDO>
F 20

$$$$
=
 OpenBabel10232412243D

 38 40  0  0  1  0  0  0  0  0999 V2000
  189.5810  177.3740  140.5240 C   0  0  0  0  0  0  0  0  0  0  0  0
  188.8000  176.9030  138.4950 C   0  0  0  0  0  3  0  0  0  0  0  0
  188.4070  178.0710  140.3230 C   0  0  0  0  0  3  0  0  0  0  0  0
  189.8210  176.6400  139.3850 C   0  0  0  0  0  0  0  0  0  0  0  0
  187.9620  177.7770  139.0840 N   0  0  0  0  0  0  0  0  0  0  0  0
  190.3980  177.3750  141.7690 C   0  0  0  0  0  2  0  0  0  0  0  0
  189.9970  176.2070  142.6500 C   0  0  0  0  0  2  0  0  0  0  0  0
  189.4230  177.6250  147.3150 C   0  0  0  0  0  3  0  0  0  0  0  0
  186.7550  177.9630  146.4100 C   0  0  0  0  0  3  0  0  0  0  0  0
  187.0980  178.2530  147.7400 C   0  0  0  0  0  3  0  0  0  0  0  0
  189.9370  176.8870  145.0560 N   0  0  0  0  0  0  0  0  0  0  0  0
  187.6580  177.0900  143.9430 S   0  0  0  0  0  0  0  0  0  0  0  0
  188.4240  178.0870  148.1900 C   0  0  0  0  0  3  0  0  0  0  0  0
  189.0710  177.3400  145.9960 C   0  0  0  0  0  0  0  0  0  0  0  0
  187.7630  177.5130  145.5630 C   0  0  0  0  0  0  0  0  0  0  0  0
  189.3050  176.7030  143.8710 C   0  0  0  0  0  0  0  0  0  0  0  0
  190.9110  175.7870  139.1890 O   0  0  0  0  0  0  0  0  0  0  0  0
  191.5750  175.6650  137.9360 C   0  0  0  0  0  2  0  0  0  0  0  0
  191.6840  174.2660  137.5510 N   0  0  0  0  0  2  0  0  0  0  0  0
  193.0510  174.0330  137.1170 C   0  0  0  0  0  2  0  0  0  0  0  0
  193.7610  175.3610  136.9340 C   0  0  0  0  0  2  0  0  0  0  0  0
  195.1850  175.1900  137.1620 N   0  0  0  0  0  2  0  0  0  0  0  0
  195.3480  173.9840  137.9540 C   0  0  0  0  0  2  0  0  0  0  0  0
  196.4670  174.1800  138.9630 C   0  0  1  0  0  3  0  0  0  0  0  0
  197.7730  174.3380  138.2570 C   0  0  0  0  0  0  0  0  0  0  0  0
  198.4610  175.5410  138.3430 O   0  0  0  0  0  1  0  0  0  0  0  0
  198.2620  173.3850  137.5920 O   0  0  0  0  0  0  0  0  0  0  0  0
  196.2130  175.3080  139.7500 O   0  0  0  0  0  0  0  0  0  0  0  0
  196.9600  175.1440  140.8220 O   0  0  0  0  0  1  0  0  0  0  0  0
  186.7490  178.3040  138.4800 C   0  0  0  0  0  2  0  0  0  0  0  0
  186.1480  177.2990  137.5020 C   0  0  0  0  0  2  0  0  0  0  0  0
  184.6270  177.3460  137.5120 C   0  0  0  0  0  2  0  0  0  0  0  0
  184.1240  178.1250  138.7180 C   0  0  0  0  0  2  0  0  0  0  0  0
  183.1010  177.3010  139.4860 C   0  0  0  0  0  2  0  0  0  0  0  0
  183.1100  177.6470  140.9400 C   0  0  0  0  0  3  0  0  0  0  0  0
  184.1910  178.1460  141.5220 C   0  0  0  0  0  3  0  0  0  0  0  0
  184.8530  179.5270  143.3810 C   0  0  0  0  0  2  0  0  0  0  0  0
  184.1620  178.4890  142.9390 C   0  0  0  0  0  3  0  0  0  0  0  0
  1  6  1  0  0  0  0
  2  5  1  0  0  0  0
  2  4  2  0  0  0  0
  3  1  2  0  0  0  0
  4  1  1  0  0  0  0
  5  3  1  0  0  0  0
  6  7  1  0  0  0  0
  7 16  1  0  0  0  0
  8 13  1  0  0  0  0
  9 10  1  0  0  0  0
 10 13  2  0  0  0  0
 11 14  1  0  0  0  0
 12 15  1  0  0  0  0
 14  8  2  0  0  0  0
 15 14  1  0  0  0  0
 15  9  2  0  0  0  0
 16 12  1  0  0  0  0
 16 11  2  0  0  0  0
 17  4  1  0  0  0  0
 18 17  1  0  0  0  0
 19 18  1  0  0  0  0
 20 19  1  0  0  0  0
 21 20  1  0  0  0  0
 21 22  1  0  0  0  0
 22 23  1  0  0  0  0
 24 23  1  6  0  0  0
 24 28  1  0  0  0  0
 25 26  1  0  0  0  0
 25 24  1  0  0  0  0
 27 25  2  0  0  0  0
 28 29  1  0  0  0  0
 30  5  1  0  0  0  0
 31 32  1  0  0  0  0
 31 30  1  0  0  0  0
 32 33  1  0  0  0  0
 33 34  1  0  0  0  0
 34 35  1  0  0  0  0
 35 36  2  0  0  0  0
 36 38  1  0  0  0  0
 38 37  2  0  0  0  0
M  END
>  <MODEL>
2

>  <REMARK>
 VINA RESULT:      -6.8      3.463      7.591
  Name = 
  20 active torsions:
  status: ('A' for Active; 'I' for Inactive)
    1  A    between atoms: C_2  and  C_20
    2  A    between atoms: C_4  and  C_32
    3  A    between atoms: C_4  and  C_36
    4  A    between atoms: C_5  and  C_32
    5  A    between atoms: C_7  and  C_13
    6  A    between atoms: N_8  and  C_24
    7  A    between atoms: N_8  and  C_37
    8  A    between atoms: C_10  and  C_11
    9  A    between atoms: C_10  and  N_38
   10  A    between atoms: C_11  and  C_33
   11  A    between atoms: C_13  and  C_19
   12  A    between atoms: C_14  and  C_35
   13  A    between atoms: N_15  and  C_16
   14  A    between atoms: N_15  and  C_18
   15  A    between atoms: C_16  and  C_24
   16  A    between atoms: C_18  and  O_30
   17  A    between atoms: C_19  and  C_33
   18  A    between atoms: C_20  and  O_21
   19  A    between atoms: C_20  and  C_37
   20  A    between atoms: C_28  and  O_30
                            x       y       z     vdW  Elec       q    Type
                         _______ _______ _______ _____ _____    ______ ____

>  <TORSDO>
F 20

$$$$
=
 OpenBabel10232412243D

 38 40  0  0  1  0  0  0  0  0999 V2000
  189.9300  177.0430  140.1400 C   0  0  0  0  0  0  0  0  0  0  0  0
  189.6440  177.5270  137.9870 C   0  0  0  0  0  3  0  0  0  0  0  0
  188.7110  177.6690  139.9800 C   0  0  0  0  0  3  0  0  0  0  0  0
  190.5090  176.9490  138.8940 C   0  0  0  0  0  0  0  0  0  0  0  0
  188.5670  177.9600  138.6710 N   0  0  0  0  0  0  0  0  0  0  0  0
  190.4850  176.5180  141.4180 C   0  0  0  0  0  2  0  0  0  0  0  0
  190.9630  177.6680  142.2840 C   0  0  0  0  0  2  0  0  0  0  0  0
  187.3530  177.8860  145.6040 C   0  0  0  0  0  3  0  0  0  0  0  0
  189.5220  177.2930  147.3350 C   0  0  0  0  0  3  0  0  0  0  0  0
  188.2260  177.4580  147.8480 C   0  0  0  0  0  3  0  0  0  0  0  0
  188.9760  177.8260  143.7940 N   0  0  0  0  0  0  0  0  0  0  0  0
  191.1120  177.2890  145.0680 S   0  0  0  0  0  0  0  0  0  0  0  0
  187.1480  177.7510  146.9880 C   0  0  0  0  0  3  0  0  0  0  0  0
  188.6450  177.7200  145.1050 C   0  0  0  0  0  0  0  0  0  0  0  0
  189.6990  177.4270  145.9610 C   0  0  0  0  0  0  0  0  0  0  0  0
  190.3040  177.6130  143.6170 C   0  0  0  0  0  0  0  0  0  0  0  0
  191.7500  176.3670  138.6230 O   0  0  0  0  0  0  0  0  0  0  0  0
  191.8830  175.1390  137.9140 C   0  0  0  0  0  2  0  0  0  0  0  0
  192.4530  175.3710  136.5960 N   0  0  0  0  0  2  0  0  0  0  0  0
  193.5950  176.2560  136.7590 C   0  0  0  0  0  2  0  0  0  0  0  0
  194.6080  175.9870  135.6630 C   0  0  0  0  0  2  0  0  0  0  0  0
  195.9350  175.8670  136.2410 N   0  0  0  0  0  2  0  0  0  0  0  0
  196.1640  174.4540  136.4910 C   0  0  0  0  0  2  0  0  0  0  0  0
  196.9150  174.2800  137.8000 C   0  0  1  0  0  3  0  0  0  0  0  0
  195.9490  174.1540  138.9320 C   0  0  0  0  0  0  0  0  0  0  0  0
  195.7990  175.2030  139.8290 O   0  0  0  0  0  1  0  0  0  0  0  0
  195.2620  173.1060  139.0760 O   0  0  0  0  0  0  0  0  0  0  0  0
  197.7280  173.1450  137.7400 O   0  0  0  0  0  0  0  0  0  0  0  0
  197.4720  172.6100  136.5630 O   0  0  0  0  0  1  0  0  0  0  0  0
  187.4170  178.6220  138.0780 C   0  0  0  0  0  2  0  0  0  0  0  0
  186.1300  177.8720  138.4050 C   0  0  0  0  0  2  0  0  0  0  0  0
  185.0080  178.8250  138.7920 C   0  0  0  0  0  2  0  0  0  0  0  0
  184.5140  178.5260  140.1990 C   0  0  0  0  0  2  0  0  0  0  0  0
  185.5200  179.0220  141.2260 C   0  0  0  0  0  2  0  0  0  0  0  0
  184.9250  179.0510  142.5970 C   0  0  0  0  0  3  0  0  0  0  0  0
  183.6390  178.7980  142.7950 C   0  0  0  0  0  3  0  0  0  0  0  0
  183.8990  178.9680  145.1830 C   0  0  0  0  0  2  0  0  0  0  0  0
  183.0920  178.8170  144.1460 C   0  0  0  0  0  3  0  0  0  0  0  0
  1  6  1  0  0  0  0
  2  5  1  0  0  0  0
  2  4  2  0  0  0  0
  3  1  2  0  0  0  0
  4  1  1  0  0  0  0
  5  3  1  0  0  0  0
  6  7  1  0  0  0  0
  7 16  1  0  0  0  0
  8 13  1  0  0  0  0
  9 10  1  0  0  0  0
 11 14  1  0  0  0  0
 12 15  1  0  0  0  0
 13 10  2  0  0  0  0
 14  8  2  0  0  0  0
 14 15  1  0  0  0  0
 15  9  2  0  0  0  0
 16 11  2  0  0  0  0
 16 12  1  0  0  0  0
 17  4  1  0  0  0  0
 18 17  1  0  0  0  0
 19 20  1  0  0  0  0
 19 18  1  0  0  0  0
 21 22  1  0  0  0  0
 21 20  1  0  0  0  0
 22 23  1  0  0  0  0
 24 23  1  6  0  0  0
 24 25  1  0  0  0  0
 25 27  2  0  0  0  0
 25 26  1  0  0  0  0
 28 24  1  0  0  0  0
 29 28  1  0  0  0  0
 30 31  1  0  0  0  0
 30  5  1  0  0  0  0
 31 32  1  0  0  0  0
 32 33  1  0  0  0  0
 33 34  1  0  0  0  0
 34 35  1  0  0  0  0
 35 36  2  0  0  0  0
 36 38  1  0  0  0  0
 38 37  2  0  0  0  0
M  END
>  <MODEL>
3

>  <REMARK>
 VINA RESULT:      -6.8      3.562      7.262
  Name = 
  20 active torsions:
  status: ('A' for Active; 'I' for Inactive)
    1  A    between atoms: C_2  and  C_20
    2  A    between atoms: C_4  and  C_32
    3  A    between atoms: C_4  and  C_36
    4  A    between atoms: C_5  and  C_32
    5  A    between atoms: C_7  and  C_13
    6  A    between atoms: N_8  and  C_24
    7  A    between atoms: N_8  and  C_37
    8  A    between atoms: C_10  and  C_11
    9  A    between atoms: C_10  and  N_38
   10  A    between atoms: C_11  and  C_33
   11  A    between atoms: C_13  and  C_19
   12  A    between atoms: C_14  and  C_35
   13  A    between atoms: N_15  and  C_16
   14  A    between atoms: N_15  and  C_18
   15  A    between atoms: C_16  and  C_24
   16  A    between atoms: C_18  and  O_30
   17  A    between atoms: C_19  and  C_33
   18  A    between atoms: C_20  and  O_21
   19  A    between atoms: C_20  and  C_37
   20  A    between atoms: C_28  and  O_30
                            x       y       z     vdW  Elec       q    Type
                         _______ _______ _______ _____ _____    ______ ____

>  <TORSDO>
F 20

$$$$
=
 OpenBabel10232412243D

 38 40  0  0  1  0  0  0  0  0999 V2000
  189.2000  177.8600  141.7460 C   0  0  0  0  0  0  0  0  0  0  0  0
  191.2410  177.0840  142.1750 C   0  0  0  0  0  3  0  0  0  0  0  0
  189.6090  178.3310  142.9770 C   0  0  0  0  0  3  0  0  0  0  0  0
  190.2230  177.0870  141.2430 C   0  0  0  0  0  0  0  0  0  0  0  0
  190.8410  177.8380  143.2170 N   0  0  0  0  0  0  0  0  0  0  0  0
  187.9140  178.1800  141.0680 C   0  0  0  0  0  2  0  0  0  0  0  0
  186.8980  178.6550  142.0880 C   0  0  0  0  0  2  0  0  0  0  0  0
  183.5150  179.8260  138.7280 C   0  0  0  0  0  3  0  0  0  0  0  0
  181.8270  178.6250  140.6680 C   0  0  0  0  0  3  0  0  0  0  0  0
  181.2900  179.1380  139.4760 C   0  0  0  0  0  3  0  0  0  0  0  0
  185.3520  179.3410  140.2450 N   0  0  0  0  0  0  0  0  0  0  0  0
  184.1200  178.2090  142.1620 S   0  0  0  0  0  0  0  0  0  0  0  0
  182.1290  179.7330  138.5120 C   0  0  0  0  0  3  0  0  0  0  0  0
  184.0370  179.3130  139.9160 C   0  0  0  0  0  0  0  0  0  0  0  0
  183.2020  178.7240  140.8560 C   0  0  0  0  0  0  0  0  0  0  0  0
  185.5550  178.7680  141.4580 C   0  0  0  0  0  0  0  0  0  0  0  0
  190.2090  176.4340  140.0080 O   0  0  0  0  0  0  0  0  0  0  0  0
  191.2650  176.5590  139.0610 C   0  0  0  0  0  2  0  0  0  0  0  0
  190.7310  176.8290  137.7350 N   0  0  0  0  0  2  0  0  0  0  0  0
  191.0180  175.6730  136.9010 C   0  0  0  0  0  2  0  0  0  0  0  0
  192.5160  175.4450  136.8450 C   0  0  0  0  0  2  0  0  0  0  0  0
  192.8000  174.0260  136.9720 N   0  0  0  0  0  2  0  0  0  0  0  0
  194.2190  173.8520  136.7130 C   0  0  0  0  0  2  0  0  0  0  0  0
  195.0150  174.8640  137.5190 C   0  0  1  0  0  3  0  0  0  0  0  0
  195.4400  174.2650  138.8190 C   0  0  0  0  0  0  0  0  0  0  0  0
  195.4210  172.8860  138.9800 O   0  0  0  0  0  0  0  0  0  0  0  0
  195.8260  175.0000  139.7690 O   0  0  0  0  0  1  0  0  0  0  0  0
  196.1380  175.2770  136.7970 O   0  0  0  0  0  0  0  0  0  0  0  0
  195.6850  176.1980  135.9700 O   0  0  0  0  0  1  0  0  0  0  0  0
  191.6330  178.0970  144.4080 C   0  0  0  0  0  2  0  0  0  0  0  0
  191.4970  176.9540  145.4090 C   0  0  0  0  0  2  0  0  0  0  0  0
  190.0870  176.8670  145.9750 C   0  0  0  0  0  2  0  0  0  0  0  0
  190.0960  177.1090  147.4760 C   0  0  0  0  0  2  0  0  0  0  0  0
  188.7020  177.4840  147.9560 C   0  0  0  0  0  2  0  0  0  0  0  0
  187.7460  177.5930  146.8130 C   0  0  0  0  0  3  0  0  0  0  0  0
  186.7350  178.4500  146.8400 C   0  0  0  0  0  3  0  0  0  0  0  0
  184.5230  178.6080  145.9010 C   0  0  0  0  0  2  0  0  0  0  0  0
  185.8290  178.5450  145.7020 C   0  0  0  0  0  3  0  0  0  0  0  0
  1  3  2  0  0  0  0
  2  5  1  0  0  0  0
  3  5  1  0  0  0  0
  4  1  1  0  0  0  0
  4  2  2  0  0  0  0
  5 30  1  0  0  0  0
  6  1  1  0  0  0  0
  6  7  1  0  0  0  0
  8 14  1  0  0  0  0
  9 15  1  0  0  0  0
 10  9  2  0  0  0  0
 11 16  2  0  0  0  0
 13  8  2  0  0  0  0
 13 10  1  0  0  0  0
 14 11  1  0  0  0  0
 14 15  2  0  0  0  0
 15 12  1  0  0  0  0
 16  7  1  0  0  0  0
 16 12  1  0  0  0  0
 17  4  1  0  0  0  0
 18 17  1  0  0  0  0
 19 18  1  0  0  0  0
 20 19  1  0  0  0  0
 21 20  1  0  0  0  0
 21 22  1  0  0  0  0
 23 22  1  0  0  0  0
 24 23  1  6  0  0  0
 24 25  1  0  0  0  0
 25 26  2  0  0  0  0
 25 27  1  0  0  0  0
 28 24  1  0  0  0  0
 29 28  1  0  0  0  0
 30 31  1  0  0  0  0
 31 32  1  0  0  0  0
 32 33  1  0  0  0  0
 33 34  1  0  0  0  0
 35 36  2  0  0  0  0
 35 34  1  0  0  0  0
 38 37  2  0  0  0  0
 38 36  1  0  0  0  0
M  END
>  <MODEL>
4

>  <REMARK>
 VINA RESULT:      -6.8      2.490      4.136
  Name = 
  20 active torsions:
  status: ('A' for Active; 'I' for Inactive)
    1  A    between atoms: C_2  and  C_20
    2  A    between atoms: C_4  and  C_32
    3  A    between atoms: C_4  and  C_36
    4  A    between atoms: C_5  and  C_32
    5  A    between atoms: C_7  and  C_13
    6  A    between atoms: N_8  and  C_24
    7  A    between atoms: N_8  and  C_37
    8  A    between atoms: C_10  and  C_11
    9  A    between atoms: C_10  and  N_38
   10  A    between atoms: C_11  and  C_33
   11  A    between atoms: C_13  and  C_19
   12  A    between atoms: C_14  and  C_35
   13  A    between atoms: N_15  and  C_16
   14  A    between atoms: N_15  and  C_18
   15  A    between atoms: C_16  and  C_24
   16  A    between atoms: C_18  and  O_30
   17  A    between atoms: C_19  and  C_33
   18  A    between atoms: C_20  and  O_21
   19  A    between atoms: C_20  and  C_37
   20  A    between atoms: C_28  and  O_30
                            x       y       z     vdW  Elec       q    Type
                         _______ _______ _______ _____ _____    ______ ____

>  <TORSDO>
F 20

$$$$
=
 OpenBabel10232412243D

 38 40  0  0  1  0  0  0  0  0999 V2000
  188.8420  177.9790  138.9170 C   0  0  0  0  0  0  0  0  0  0  0  0
  187.5340  177.7870  137.1270 C   0  0  0  0  0  3  0  0  0  0  0  0
  187.5240  178.0820  139.3120 C   0  0  0  0  0  3  0  0  0  0  0  0
  188.8470  177.7880  137.5540 C   0  0  0  0  0  0  0  0  0  0  0  0
  186.7540  177.9730  138.2100 N   0  0  0  0  0  0  0  0  0  0  0  0
  190.0300  178.0110  139.8130 C   0  0  0  0  0  2  0  0  0  0  0  0
  190.2190  176.6550  140.4670 C   0  0  0  0  0  2  0  0  0  0  0  0
  191.3950  176.7760  145.2320 C   0  0  0  0  0  3  0  0  0  0  0  0
  188.5890  177.1350  145.4520 C   0  0  0  0  0  3  0  0  0  0  0  0
  189.3940  177.0980  146.6010 C   0  0  0  0  0  3  0  0  0  0  0  0
  191.0450  176.6860  142.8280 N   0  0  0  0  0  0  0  0  0  0  0  0
  188.5240  176.9970  142.6870 S   0  0  0  0  0  0  0  0  0  0  0  0
  190.7890  176.9210  146.4930 C   0  0  0  0  0  3  0  0  0  0  0  0
  190.5850  176.8150  144.0970 C   0  0  0  0  0  0  0  0  0  0  0  0
  189.2140  176.9950  144.2160 C   0  0  0  0  0  0  0  0  0  0  0  0
  190.0250  176.7660  141.9380 C   0  0  0  0  0  0  0  0  0  0  0  0
  189.9900  177.6250  136.7660 O   0  0  0  0  0  0  0  0  0  0  0  0
  190.1550  176.5310  135.8700 C   0  0  0  0  0  2  0  0  0  0  0  0
  190.3600  175.2950  136.6090 N   0  0  0  0  0  2  0  0  0  0  0  0
  191.7720  174.9590  136.5240 C   0  0  0  0  0  2  0  0  0  0  0  0
  192.4590  175.3090  137.8300 C   0  0  0  0  0  2  0  0  0  0  0  0
  193.6750  176.0560  137.5590 N   0  0  0  0  0  2  0  0  0  0  0  0
  194.4280  175.3000  136.5740 C   0  0  0  0  0  2  0  0  0  0  0  0
  195.5510  174.5410  137.2590 C   0  0  1  0  0  3  0  0  0  0  0  0
  196.8380  174.7610  136.5330 C   0  0  0  0  0  0  0  0  0  0  0  0
  197.2770  173.8210  135.6110 O   0  0  0  0  0  0  0  0  0  0  0  0
  197.5230  175.7990  136.7430 O   0  0  0  0  0  1  0  0  0  0  0  0
  195.6770  174.9620  138.5860 O   0  0  0  0  0  0  0  0  0  0  0  0
  195.7670  173.8480  139.2840 O   0  0  0  0  0  1  0  0  0  0  0  0
  185.3020  178.0260  138.1890 C   0  0  0  0  0  2  0  0  0  0  0  0
  184.7840  179.1110  139.1270 C   0  0  0  0  0  2  0  0  0  0  0  0
  184.0130  178.5200  140.2980 C   0  0  0  0  0  2  0  0  0  0  0  0
  184.8160  178.6400  141.5840 C   0  0  0  0  0  2  0  0  0  0  0  0
  183.8940  178.9530  142.7530 C   0  0  0  0  0  2  0  0  0  0  0  0
  184.3860  178.3220  144.0150 C   0  0  0  0  0  3  0  0  0  0  0  0
  184.7680  179.0590  145.0480 C   0  0  0  0  0  3  0  0  0  0  0  0
  185.9600  179.0930  147.1420 C   0  0  0  0  0  2  0  0  0  0  0  0
  185.2290  178.4150  146.2730 C   0  0  0  0  0  3  0  0  0  0  0  0
  1  3  2  0  0  0  0
  1  6  1  0  0  0  0
  2  4  2  0  0  0  0
  2  5  1  0  0  0  0
  4  1  1  0  0  0  0
  5  3  1  0  0  0  0
  6  7  1  0  0  0  0
  7 16  1  0  0  0  0
  8 13  1  0  0  0  0
  9 10  1  0  0  0  0
 11 14  1  0  0  0  0
 12 15  1  0  0  0  0
 13 10  2  0  0  0  0
 14 15  1  0  0  0  0
 14  8  2  0  0  0  0
 15  9  2  0  0  0  0
 16 12  1  0  0  0  0
 16 11  2  0  0  0  0
 17  4  1  0  0  0  0
 18 19  1  0  0  0  0
 18 17  1  0  0  0  0
 20 19  1  0  0  0  0
 20 21  1  0  0  0  0
 22 21  1  0  0  0  0
 23 22  1  0  0  0  0
 24 23  1  6  0  0  0
 24 28  1  0  0  0  0
 25 27  1  0  0  0  0
 25 24  1  0  0  0  0
 26 25  2  0  0  0  0
 28 29  1  0  0  0  0
 30  5  1  0  0  0  0
 30 31  1  0  0  0  0
 31 32  1  0  0  0  0
 32 33  1  0  0  0  0
 33 34  1  0  0  0  0
 34 35  1  0  0  0  0
 35 36  2  0  0  0  0
 36 38  1  0  0  0  0
 38 37  2  0  0  0  0
M  END
>  <MODEL>
5

>  <REMARK>
 VINA RESULT:      -6.7      3.079      7.142
  Name = 
  20 active torsions:
  status: ('A' for Active; 'I' for Inactive)
    1  A    between atoms: C_2  and  C_20
    2  A    between atoms: C_4  and  C_32
    3  A    between atoms: C_4  and  C_36
    4  A    between atoms: C_5  and  C_32
    5  A    between atoms: C_7  and  C_13
    6  A    between atoms: N_8  and  C_24
    7  A    between atoms: N_8  and  C_37
    8  A    between atoms: C_10  and  C_11
    9  A    between atoms: C_10  and  N_38
   10  A    between atoms: C_11  and  C_33
   11  A    between atoms: C_13  and  C_19
   12  A    between atoms: C_14  and  C_35
   13  A    between atoms: N_15  and  C_16
   14  A    between atoms: N_15  and  C_18
   15  A    between atoms: C_16  and  C_24
   16  A    between atoms: C_18  and  O_30
   17  A    between atoms: C_19  and  C_33
   18  A    between atoms: C_20  and  O_21
   19  A    between atoms: C_20  and  C_37
   20  A    between atoms: C_28  and  O_30
                            x       y       z     vdW  Elec       q    Type
                         _______ _______ _______ _____ _____    ______ ____

>  <TORSDO>
F 20

$$$$
=
 OpenBabel10232412243D

 38 40  0  0  1  0  0  0  0  0999 V2000
  188.9650  177.8810  140.6610 C   0  0  0  0  0  0  0  0  0  0  0  0
  191.0880  177.2370  140.4930 C   0  0  0  0  0  3  0  0  0  0  0  0
  189.4780  177.6950  141.9280 C   0  0  0  0  0  3  0  0  0  0  0  0
  189.9730  177.6010  139.7660 C   0  0  0  0  0  0  0  0  0  0  0  0
  190.7600  177.2950  141.7980 N   0  0  0  0  0  0  0  0  0  0  0  0
  187.5920  178.3540  140.3320 C   0  0  0  0  0  2  0  0  0  0  0  0
  186.8700  178.7640  141.6020 C   0  0  0  0  0  2  0  0  0  0  0  0
  182.0800  178.8170  142.6750 C   0  0  0  0  0  3  0  0  0  0  0  0
  181.9070  178.8120  139.8420 C   0  0  0  0  0  3  0  0  0  0  0  0
  180.7430  178.8240  140.6270 C   0  0  0  0  0  3  0  0  0  0  0  0
  184.4930  178.7920  142.3780 N   0  0  0  0  0  0  0  0  0  0  0  0
  184.6750  178.7910  139.8410 S   0  0  0  0  0  0  0  0  0  0  0  0
  180.8280  178.8280  142.0340 C   0  0  0  0  0  3  0  0  0  0  0  0
  183.2300  178.8050  141.8850 C   0  0  0  0  0  0  0  0  0  0  0  0
  183.1330  178.8070  140.5000 C   0  0  0  0  0  0  0  0  0  0  0  0
  185.4000  178.7840  141.3710 C   0  0  0  0  0  0  0  0  0  0  0  0
  189.8620  177.6810  138.3750 O   0  0  0  0  0  0  0  0  0  0  0  0
  190.7070  176.9480  137.4940 C   0  0  0  0  0  2  0  0  0  0  0  0
  190.0500  175.7250  137.0590 N   0  0  0  0  0  2  0  0  0  0  0  0
  190.9180  174.6110  137.4040 C   0  0  0  0  0  2  0  0  0  0  0  0
  192.2690  174.7920  136.7380 C   0  0  0  0  0  2  0  0  0  0  0  0
  193.2340  173.8860  137.3340 N   0  0  0  0  0  2  0  0  0  0  0  0
  194.2990  174.7030  137.8880 C   0  0  0  0  0  2  0  0  0  0  0  0
  195.5070  173.8330  138.1930 C   0  0  1  0  0  3  0  0  0  0  0  0
  196.5960  174.6590  138.7940 C   0  0  0  0  0  0  0  0  0  0  0  0
  196.5300  175.0170  140.1330 O   0  0  0  0  0  1  0  0  0  0  0  0
  197.5810  175.0260  138.0970 O   0  0  0  0  0  0  0  0  0  0  0  0
  195.1500  172.8060  139.0720 O   0  0  0  0  0  0  0  0  0  0  0  0
  195.5190  171.6980  138.4620 O   0  0  0  0  0  1  0  0  0  0  0  0
  191.6620  176.9930  142.8970 C   0  0  0  0  0  2  0  0  0  0  0  0
  191.4230  177.9340  144.0720 C   0  0  0  0  0  2  0  0  0  0  0  0
  191.4270  177.1890  145.3990 C   0  0  0  0  0  2  0  0  0  0  0  0
  190.1780  177.5170  146.2020 C   0  0  0  0  0  2  0  0  0  0  0  0
  188.9380  177.0270  145.4690 C   0  0  0  0  0  2  0  0  0  0  0  0
  187.7060  177.7040  145.9770 C   0  0  0  0  0  3  0  0  0  0  0  0
  186.7100  178.0200  145.1610 C   0  0  0  0  0  3  0  0  0  0  0  0
  185.0560  178.3310  146.8840 C   0  0  0  0  0  2  0  0  0  0  0  0
  185.5140  178.6650  145.6890 C   0  0  0  0  0  3  0  0  0  0  0  0
  1  3  2  0  0  0  0
  2  5  1  0  0  0  0
  4  2  2  0  0  0  0
  4  1  1  0  0  0  0
  5  3  1  0  0  0  0
  5 30  1  0  0  0  0
  6  1  1  0  0  0  0
  6  7  1  0  0  0  0
  9 15  2  0  0  0  0
  9 10  1  0  0  0  0
 10 13  2  0  0  0  0
 12 15  1  0  0  0  0
 12 16  1  0  0  0  0
 13  8  1  0  0  0  0
 14 11  1  0  0  0  0
 14  8  2  0  0  0  0
 15 14  1  0  0  0  0
 16  7  1  0  0  0  0
 16 11  2  0  0  0  0
 17  4  1  0  0  0  0
 18 17  1  0  0  0  0
 19 20  1  0  0  0  0
 19 18  1  0  0  0  0
 21 22  1  0  0  0  0
 21 20  1  0  0  0  0
 22 23  1  0  0  0  0
 24 23  1  1  0  0  0
 24 25  1  0  0  0  0
 24 28  1  0  0  0  0
 25 26  1  0  0  0  0
 27 25  2  0  0  0  0
 29 28  1  0  0  0  0
 30 31  1  0  0  0  0
 31 32  1  0  0  0  0
 32 33  1  0  0  0  0
 34 35  1  0  0  0  0
 34 33  1  0  0  0  0
 36 38  1  0  0  0  0
 36 35  2  0  0  0  0
 38 37  2  0  0  0  0
M  END
>  <MODEL>
6

>  <REMARK>
 VINA RESULT:      -6.7      2.884      4.769
  Name = 
  20 active torsions:
  status: ('A' for Active; 'I' for Inactive)
    1  A    between atoms: C_2  and  C_20
    2  A    between atoms: C_4  and  C_32
    3  A    between atoms: C_4  and  C_36
    4  A    between atoms: C_5  and  C_32
    5  A    between atoms: C_7  and  C_13
    6  A    between atoms: N_8  and  C_24
    7  A    between atoms: N_8  and  C_37
    8  A    between atoms: C_10  and  C_11
    9  A    between atoms: C_10  and  N_38
   10  A    between atoms: C_11  and  C_33
   11  A    between atoms: C_13  and  C_19
   12  A    between atoms: C_14  and  C_35
   13  A    between atoms: N_15  and  C_16
   14  A    between atoms: N_15  and  C_18
   15  A    between atoms: C_16  and  C_24
   16  A    between atoms: C_18  and  O_30
   17  A    between atoms: C_19  and  C_33
   18  A    between atoms: C_20  and  O_21
   19  A    between atoms: C_20  and  C_37
   20  A    between atoms: C_28  and  O_30
                            x       y       z     vdW  Elec       q    Type
                         _______ _______ _______ _____ _____    ______ ____

>  <TORSDO>
F 20

$$$$
=
 OpenBabel10232412243D

 38 40  0  0  1  0  0  0  0  0999 V2000
  185.7300  178.7200  145.1130 C   0  0  0  0  0  0  0  0  0  0  0  0
  187.3980  177.2820  145.4290 C   0  0  0  0  0  3  0  0  0  0  0  0
  186.0900  178.7370  146.4450 C   0  0  0  0  0  3  0  0  0  0  0  0
  186.5520  177.8160  144.4790 C   0  0  0  0  0  0  0  0  0  0  0  0
  187.0930  177.8510  146.6110 N   0  0  0  0  0  0  0  0  0  0  0  0
  184.6850  179.5690  144.4770 C   0  0  0  0  0  2  0  0  0  0  0  0
  183.4000  178.7760  144.3250 C   0  0  0  0  0  2  0  0  0  0  0  0
  183.7980  178.7210  139.4320 C   0  0  0  0  0  3  0  0  0  0  0  0
  180.9700  178.8180  139.6530 C   0  0  0  0  0  3  0  0  0  0  0  0
  181.5860  178.7890  138.3920 C   0  0  0  0  0  3  0  0  0  0  0  0
  183.8390  178.7390  141.8630 N   0  0  0  0  0  0  0  0  0  0  0  0
  181.3520  178.8210  142.3950 S   0  0  0  0  0  0  0  0  0  0  0  0
  182.9900  178.7390  138.2810 C   0  0  0  0  0  3  0  0  0  0  0  0
  183.1760  178.7500  140.6800 C   0  0  0  0  0  0  0  0  0  0  0  0
  181.7910  178.7950  140.7760 C   0  0  0  0  0  0  0  0  0  0  0  0
  182.9670  178.7740  142.9010 C   0  0  0  0  0  0  0  0  0  0  0  0
  186.5170  177.5130  143.1150 O   0  0  0  0  0  0  0  0  0  0  0  0
  187.6890  177.4740  142.3070 C   0  0  0  0  0  2  0  0  0  0  0  0
  187.7240  178.6160  141.4050 N   0  0  0  0  0  2  0  0  0  0  0  0
  188.8230  178.4100  140.4770 C   0  0  0  0  0  2  0  0  0  0  0  0
  188.2880  178.3430  139.0600 C   0  0  0  0  0  2  0  0  0  0  0  0
  189.3100  177.8130  138.1740 N   0  0  0  0  0  2  0  0  0  0  0  0
  189.6900  176.5120  138.6950 C   0  0  0  0  0  2  0  0  0  0  0  0
  190.9990  176.0690  138.0630 C   0  0  1  0  0  3  0  0  0  0  0  0
  192.1520  176.6780  138.7900 C   0  0  0  0  0  0  0  0  0  0  0  0
  193.3390  176.9270  138.1140 O   0  0  0  0  0  0  0  0  0  0  0  0
  192.0540  176.9780  140.0120 O   0  0  0  0  0  1  0  0  0  0  0  0
  191.1010  174.6760  138.0930 O   0  0  0  0  0  0  0  0  0  0  0  0
  191.5500  174.3460  136.8990 O   0  0  0  0  0  1  0  0  0  0  0  0
  187.7630  177.5650  147.8690 C   0  0  0  0  0  2  0  0  0  0  0  0
  188.9200  176.5930  147.6610 C   0  0  0  0  0  2  0  0  0  0  0  0
  190.2640  177.3050  147.6930 C   0  0  0  0  0  2  0  0  0  0  0  0
  191.4020  176.2980  147.7470 C   0  0  0  0  0  2  0  0  0  0  0  0
  191.9180  176.0120  146.3450 C   0  0  0  0  0  2  0  0  0  0  0  0
  191.6220  177.1460  145.4170 C   0  0  0  0  0  3  0  0  0  0  0  0
  191.5120  176.9540  144.1100 C   0  0  0  0  0  3  0  0  0  0  0  0
  191.1190  179.3000  143.7300 C   0  0  0  0  0  2  0  0  0  0  0  0
  191.2060  178.0780  143.2330 C   0  0  0  0  0  3  0  0  0  0  0  0
  1  3  2  0  0  0  0
  2  5  1  0  0  0  0
  3  5  1  0  0  0  0
  4  1  1  0  0  0  0
  4  2  2  0  0  0  0
  5 30  1  0  0  0  0
  6  1  1  0  0  0  0
  7  6  1  0  0  0  0
  8 14  1  0  0  0  0
  9 15  1  0  0  0  0
 10  9  2  0  0  0  0
 11 16  2  0  0  0  0
 12 16  1  0  0  0  0
 13 10  1  0  0  0  0
 13  8  2  0  0  0  0
 14 15  2  0  0  0  0
 14 11  1  0  0  0  0
 15 12  1  0  0  0  0
 16  7  1  0  0  0  0
 17  4  1  0  0  0  0
 18 17  1  0  0  0  0
 19 18  1  0  0  0  0
 20 19  1  0  0  0  0
 21 20  1  0  0  0  0
 22 23  1  0  0  0  0
 22 21  1  0  0  0  0
 24 28  1  0  0  0  0
 24 23  1  1  0  0  0
 24 25  1  0  0  0  0
 25 27  1  0  0  0  0
 26 25  2  0  0  0  0
 29 28  1  0  0  0  0
 31 32  1  0  0  0  0
 31 30  1  0  0  0  0
 32 33  1  0  0  0  0
 34 33  1  0  0  0  0
 35 34  1  0  0  0  0
 36 35  2  0  0  0  0
 38 37  2  0  0  0  0
 38 36  1  0  0  0  0
M  END
>  <MODEL>
7

>  <REMARK>
 VINA RESULT:      -6.7      2.592      4.696
  Name = 
  20 active torsions:
  status: ('A' for Active; 'I' for Inactive)
    1  A    between atoms: C_2  and  C_20
    2  A    between atoms: C_4  and  C_32
    3  A    between atoms: C_4  and  C_36
    4  A    between atoms: C_5  and  C_32
    5  A    between atoms: C_7  and  C_13
    6  A    between atoms: N_8  and  C_24
    7  A    between atoms: N_8  and  C_37
    8  A    between atoms: C_10  and  C_11
    9  A    between atoms: C_10  and  N_38
   10  A    between atoms: C_11  and  C_33
   11  A    between atoms: C_13  and  C_19
   12  A    between atoms: C_14  and  C_35
   13  A    between atoms: N_15  and  C_16
   14  A    between atoms: N_15  and  C_18
   15  A    between atoms: C_16  and  C_24
   16  A    between atoms: C_18  and  O_30
   17  A    between atoms: C_19  and  C_33
   18  A    between atoms: C_20  and  O_21
   19  A    between atoms: C_20  and  C_37
   20  A    between atoms: C_28  and  O_30
                            x       y       z     vdW  Elec       q    Type
                         _______ _______ _______ _____ _____    ______ ____

>  <TORSDO>
F 20

$$$$
=
 OpenBabel10232412243D

 38 40  0  0  1  0  0  0  0  0999 V2000
  184.6690  179.0640  144.7790 C   0  0  0  0  0  0  0  0  0  0  0  0
  183.8200  178.5000  142.8010 C   0  0  0  0  0  3  0  0  0  0  0  0
  183.2940  179.1610  144.8380 C   0  0  0  0  0  3  0  0  0  0  0  0
  184.9950  178.6450  143.5090 C   0  0  0  0  0  0  0  0  0  0  0  0
  182.8060  178.8250  143.6260 N   0  0  0  0  0  0  0  0  0  0  0  0
  185.6140  179.3120  145.9030 C   0  0  0  0  0  2  0  0  0  0  0  0
  185.8530  178.0240  146.6690 C   0  0  0  0  0  2  0  0  0  0  0  0
  190.2540  177.0630  144.7180 C   0  0  0  0  0  3  0  0  0  0  0  0
  190.8760  176.6530  147.4560 C   0  0  0  0  0  3  0  0  0  0  0  0
  191.8600  176.4850  146.4690 C   0  0  0  0  0  3  0  0  0  0  0  0
  187.9980  177.5800  145.4620 N   0  0  0  0  0  0  0  0  0  0  0  0
  188.2350  177.2970  147.9790 S   0  0  0  0  0  0  0  0  0  0  0  0
  191.5520  176.6900  145.1090 C   0  0  0  0  0  3  0  0  0  0  0  0
  189.2840  177.2260  145.7070 C   0  0  0  0  0  0  0  0  0  0  0  0
  189.6000  177.0260  147.0440 C   0  0  0  0  0  0  0  0  0  0  0  0
  187.2950  177.6610  146.6190 C   0  0  0  0  0  0  0  0  0  0  0  0
  186.2930  178.4130  143.0450 O   0  0  0  0  0  0  0  0  0  0  0  0
  186.6930  178.7010  141.7100 C   0  0  0  0  0  2  0  0  0  0  0  0
  188.1440  178.6820  141.5970 N   0  0  0  0  0  2  0  0  0  0  0  0
  188.5470  177.3120  141.3240 C   0  0  0  0  0  2  0  0  0  0  0  0
  190.0240  177.2740  140.9810 C   0  0  0  0  0  2  0  0  0  0  0  0
  190.1910  177.2310  139.5390 N   0  0  0  0  0  2  0  0  0  0  0  0
  188.9060  176.8590  138.9730 C   0  0  0  0  0  2  0  0  0  0  0  0
  188.5100  177.8600  137.9000 C   0  0  1  0  0  3  0  0  0  0  0  0
  187.1070  177.6070  137.4550 C   0  0  0  0  0  0  0  0  0  0  0  0
  186.7780  177.7330  136.1120 O   0  0  0  0  0  0  0  0  0  0  0  0
  186.2210  177.2680  138.2860 O   0  0  0  0  0  1  0  0  0  0  0  0
  188.6240  179.1630  138.3930 O   0  0  0  0  0  0  0  0  0  0  0  0
  188.9800  179.8860  137.3500 O   0  0  0  0  0  1  0  0  0  0  0  0
  181.3980  178.7960  143.2650 C   0  0  0  0  0  2  0  0  0  0  0  0
  181.2080  179.1310  141.7900 C   0  0  0  0  0  2  0  0  0  0  0  0
  180.7930  177.9080  140.9850 C   0  0  0  0  0  2  0  0  0  0  0  0
  181.9040  177.4910  140.0340 C   0  0  0  0  0  2  0  0  0  0  0  0
  181.6420  176.0900  139.5010 C   0  0  0  0  0  2  0  0  0  0  0  0
  182.7970  175.5930  138.6940 C   0  0  0  0  0  3  0  0  0  0  0  0
  182.6140  174.8020  137.6460 C   0  0  0  0  0  3  0  0  0  0  0  0
  184.6050  173.4710  137.3880 C   0  0  0  0  0  2  0  0  0  0  0  0
  183.7600  174.3460  136.8680 C   0  0  0  0  0  3  0  0  0  0  0  0
  1  3  2  0  0  0  0
  1  6  1  0  0  0  0
  2  4  2  0  0  0  0
  2  5  1  0  0  0  0
  4  1  1  0  0  0  0
  5  3  1  0  0  0  0
  6  7  1  0  0  0  0
  8 13  2  0  0  0  0
  8 14  1  0  0  0  0
 10  9  2  0  0  0  0
 11 14  1  0  0  0  0
 11 16  2  0  0  0  0
 13 10  1  0  0  0  0
 14 15  2  0  0  0  0
 15  9  1  0  0  0  0
 15 12  1  0  0  0  0
 16  7  1  0  0  0  0
 16 12  1  0  0  0  0
 17  4  1  0  0  0  0
 18 17  1  0  0  0  0
 19 18  1  0  0  0  0
 20 19  1  0  0  0  0
 21 20  1  0  0  0  0
 22 21  1  0  0  0  0
 23 22  1  0  0  0  0
 24 28  1  0  0  0  0
 24 23  1  1  0  0  0
 25 24  1  0  0  0  0
 25 27  1  0  0  0  0
 26 25  2  0  0  0  0
 29 28  1  0  0  0  0
 30  5  1  0  0  0  0
 31 30  1  0  0  0  0
 32 31  1  0  0  0  0
 33 32  1  0  0  0  0
 34 33  1  0  0  0  0
 35 34  1  0  0  0  0
 36 35  2  0  0  0  0
 38 37  2  0  0  0  0
 38 36  1  0  0  0  0
M  END
>  <MODEL>
8

>  <REMARK>
 VINA RESULT:      -6.7      2.651      7.882
  Name = 
  20 active torsions:
  status: ('A' for Active; 'I' for Inactive)
    1  A    between atoms: C_2  and  C_20
    2  A    between atoms: C_4  and  C_32
    3  A    between atoms: C_4  and  C_36
    4  A    between atoms: C_5  and  C_32
    5  A    between atoms: C_7  and  C_13
    6  A    between atoms: N_8  and  C_24
    7  A    between atoms: N_8  and  C_37
    8  A    between atoms: C_10  and  C_11
    9  A    between atoms: C_10  and  N_38
   10  A    between atoms: C_11  and  C_33
   11  A    between atoms: C_13  and  C_19
   12  A    between atoms: C_14  and  C_35
   13  A    between atoms: N_15  and  C_16
   14  A    between atoms: N_15  and  C_18
   15  A    between atoms: C_16  and  C_24
   16  A    between atoms: C_18  and  O_30
   17  A    between atoms: C_19  and  C_33
   18  A    between atoms: C_20  and  O_21
   19  A    between atoms: C_20  and  C_37
   20  A    between atoms: C_28  and  O_30
                            x       y       z     vdW  Elec       q    Type
                         _______ _______ _______ _____ _____    ______ ____

>  <TORSDO>
F 20

$$$$
=
 OpenBabel10232412243D

 38 40  0  0  1  0  0  0  0  0999 V2000
  189.2310  177.7710  141.0680 C   0  0  0  0  0  0  0  0  0  0  0  0
  187.9010  178.0780  139.3100 C   0  0  0  0  0  3  0  0  0  0  0  0
  187.9870  178.1730  141.5110 C   0  0  0  0  0  3  0  0  0  0  0  0
  189.1740  177.7060  139.6940 C   0  0  0  0  0  0  0  0  0  0  0  0
  187.2060  178.3620  140.4280 N   0  0  0  0  0  0  0  0  0  0  0  0
  190.3960  177.4190  141.9260 C   0  0  0  0  0  2  0  0  0  0  0  0
  190.0590  176.2130  142.7820 C   0  0  0  0  0  2  0  0  0  0  0  0
  187.3510  177.6790  146.6060 C   0  0  0  0  0  3  0  0  0  0  0  0
  189.9050  177.6620  147.8430 C   0  0  0  0  0  3  0  0  0  0  0  0
  188.7630  178.0330  148.5710 C   0  0  0  0  0  3  0  0  0  0  0  0
  188.4900  176.9460  144.5870 N   0  0  0  0  0  0  0  0  0  0  0  0
  190.8980  176.8220  145.3990 S   0  0  0  0  0  0  0  0  0  0  0  0
  187.4940  178.0400  147.9570 C   0  0  0  0  0  3  0  0  0  0  0  0
  188.4920  177.3120  145.8920 C   0  0  0  0  0  0  0  0  0  0  0  0
  189.7360  177.3040  146.5090 C   0  0  0  0  0  0  0  0  0  0  0  0
  189.7450  176.6450  144.1710 C   0  0  0  0  0  0  0  0  0  0  0  0
  190.2290  177.3260  138.8600 O   0  0  0  0  0  0  0  0  0  0  0  0
  190.1370  176.2290  137.9570 C   0  0  0  0  0  2  0  0  0  0  0  0
  190.9440  175.1130  138.4280 N   0  0  0  0  0  2  0  0  0  0  0  0
  191.5740  174.5050  137.2670 C   0  0  0  0  0  2  0  0  0  0  0  0
  192.9940  175.0190  137.1300 C   0  0  0  0  0  2  0  0  0  0  0  0
  193.8950  173.9080  136.8770 N   0  0  0  0  0  2  0  0  0  0  0  0
  194.9540  173.9850  137.8680 C   0  0  0  0  0  2  0  0  0  0  0  0
  196.2960  174.1470  137.1730 C   0  0  1  0  0  3  0  0  0  0  0  0
  197.2930  174.7400  138.1130 C   0  0  0  0  0  0  0  0  0  0  0  0
  196.9200  175.0310  139.4180 O   0  0  0  0  0  1  0  0  0  0  0  0
  198.4740  174.9710  137.7340 O   0  0  0  0  0  0  0  0  0  0  0  0
  196.7530  172.9080  136.7150 O   0  0  0  0  0  0  0  0  0  0  0  0
  196.7290  172.1290  137.7770 O   0  0  0  0  0  1  0  0  0  0  0  0
  185.8160  178.7860  140.4580 C   0  0  0  0  0  2  0  0  0  0  0  0
  185.4860  179.4760  141.7780 C   0  0  0  0  0  2  0  0  0  0  0  0
  184.5370  178.6410  142.6250 C   0  0  0  0  0  2  0  0  0  0  0  0
  184.8520  178.8080  144.1040 C   0  0  0  0  0  2  0  0  0  0  0  0
  183.5710  178.7690  144.9220 C   0  0  0  0  0  2  0  0  0  0  0  0
  182.4050  179.2630  144.1270 C   0  0  0  0  0  3  0  0  0  0  0  0
  181.3540  178.4900  143.8950 C   0  0  0  0  0  3  0  0  0  0  0  0
  180.4210  179.5180  141.9260 C   0  0  0  0  0  2  0  0  0  0  0  0
  180.2250  179.0060  143.1300 C   0  0  0  0  0  3  0  0  0  0  0  0
  1  3  2  0  0  0  0
  1  6  1  0  0  0  0
  2  4  2  0  0  0  0
  2  5  1  0  0  0  0
  4  1  1  0  0  0  0
  5 30  1  0  0  0  0
  5  3  1  0  0  0  0
  6  7  1  0  0  0  0
  7 16  1  0  0  0  0
  8 13  1  0  0  0  0
  9 10  1  0  0  0  0
 11 14  1  0  0  0  0
 12 15  1  0  0  0  0
 13 10  2  0  0  0  0
 14 15  1  0  0  0  0
 14  8  2  0  0  0  0
 15  9  2  0  0  0  0
 16 11  2  0  0  0  0
 16 12  1  0  0  0  0
 17  4  1  0  0  0  0
 18 19  1  0  0  0  0
 18 17  1  0  0  0  0
 20 19  1  0  0  0  0
 21 20  1  0  0  0  0
 22 21  1  0  0  0  0
 22 23  1  0  0  0  0
 24 23  1  1  0  0  0
 24 25  1  0  0  0  0
 25 26  1  0  0  0  0
 27 25  2  0  0  0  0
 28 24  1  0  0  0  0
 28 29  1  0  0  0  0
 30 31  1  0  0  0  0
 31 32  1  0  0  0  0
 32 33  1  0  0  0  0
 33 34  1  0  0  0  0
 35 34  1  0  0  0  0
 36 35  2  0  0  0  0
 37 38  2  0  0  0  0
 38 36  1  0  0  0  0
M  END
>  <MODEL>
9

>  <REMARK>
 VINA RESULT:      -6.6      3.608      7.396
  Name = 
  20 active torsions:
  status: ('A' for Active; 'I' for Inactive)
    1  A    between atoms: C_2  and  C_20
    2  A    between atoms: C_4  and  C_32
    3  A    between atoms: C_4  and  C_36
    4  A    between atoms: C_5  and  C_32
    5  A    between atoms: C_7  and  C_13
    6  A    between atoms: N_8  and  C_24
    7  A    between atoms: N_8  and  C_37
    8  A    between atoms: C_10  and  C_11
    9  A    between atoms: C_10  and  N_38
   10  A    between atoms: C_11  and  C_33
   11  A    between atoms: C_13  and  C_19
   12  A    between atoms: C_14  and  C_35
   13  A    between atoms: N_15  and  C_16
   14  A    between atoms: N_15  and  C_18
   15  A    between atoms: C_16  and  C_24
   16  A    between atoms: C_18  and  O_30
   17  A    between atoms: C_19  and  C_33
   18  A    between atoms: C_20  and  O_21
   19  A    between atoms: C_20  and  C_37
   20  A    between atoms: C_28  and  O_30
                            x       y       z     vdW  Elec       q    Type
                         _______ _______ _______ _____ _____    ______ ____

>  <TORSDO>
F 20

$$$$
