=
 OpenBabel10232411383D

 27 28  0  0  1  0  0  0  0  0999 V2000
  188.2200  177.0070  148.2320 O   0  0  0  0  0  1  0  0  0  0  0  0
  190.4490  177.3810  147.8900 O   0  0  0  0  0  0  0  0  0  0  0  0
  189.3090  177.1920  147.3880 C   0  0  0  0  0  0  0  0  0  0  0  0
  189.1310  177.1630  145.9590 N   0  0  0  0  0  0  0  0  0  0  0  0
  191.1420  178.7290  143.3250 C   0  0  0  0  0  2  0  0  0  0  0  0
  190.5650  178.7320  144.6960 C   0  0  0  0  0  2  0  0  0  0  0  0
  190.8820  177.6310  142.6260 C   0  0  2  0  0  3  0  0  0  0  0  0
  190.2470  177.2770  145.0210 C   0  0  2  0  0  3  0  0  0  0  0  0
  189.9010  176.3960  143.4610 S   0  0  0  0  0  0  0  0  0  0  0  0
  191.3880  177.4240  141.2340 C   0  0  0  0  0  2  0  0  0  0  0  0
  190.2990  176.8740  140.3200 C   0  0  0  0  0  2  0  0  0  0  0  0
  188.1210  178.6530  139.7860 O   0  0  0  0  0  1  0  0  0  0  0  0
  188.9810  179.3570  137.7830 O   0  0  0  0  0  0  0  0  0  0  0  0
  190.1540  177.7010  139.1300 N   0  0  0  0  0  2  0  0  0  0  0  0
  189.0440  178.5790  138.9310 C   0  0  0  0  0  0  0  0  0  0  0  0
  187.8080  176.9450  145.3950 C   0  0  0  0  0  2  0  0  0  0  0  0
  186.9690  178.2060  145.5210 C   0  0  0  0  0  2  0  0  0  0  0  0
  184.8190  179.0040  144.5160 C   0  0  0  0  0  3  0  0  0  0  0  0
  183.9470  179.1040  143.4320 C   0  0  0  0  0  3  0  0  0  0  0  0
  184.2870  178.5010  142.2120 C   0  0  0  0  0  0  0  0  0  0  0  0
  186.3310  177.7220  143.1490 C   0  0  0  0  0  3  0  0  0  0  0  0
  185.4670  177.8300  142.1050 N   0  0  0  0  0  0  0  0  0  0  0  0
  186.0190  178.3050  144.3790 C   0  0  0  0  0  0  0  0  0  0  0  0
  183.6790  179.2730  139.8440 C   0  0  0  0  0  0  0  0  0  0  0  0
  182.6620  179.2370  138.7600 C   0  0  0  0  0  1  0  0  0  0  0  0
  183.4240  178.5740  141.0680 N   0  0  0  0  0  2  0  0  0  0  0  0
  184.7460  179.9180  139.6670 O   0  0  0  0  0  0  0  0  0  0  0  0
  3  2  2  0  0  0  0
  3  1  1  0  0  0  0
  4  3  1  0  0  0  0
  5  6  1  0  0  0  0
  6  8  1  0  0  0  0
  7 10  1  1  0  0  0
  7  5  1  0  0  0  0
  7  9  1  0  0  0  0
  8  4  1  1  0  0  0
  9  8  1  0  0  0  0
 11 10  1  0  0  0  0
 13 15  2  0  0  0  0
 14 11  1  0  0  0  0
 15 14  1  0  0  0  0
 15 12  1  0  0  0  0
 16 17  1  0  0  0  0
 16  4  1  0  0  0  0
 19 18  2  0  0  0  0
 20 19  1  0  0  0  0
 21 23  2  0  0  0  0
 22 20  2  0  0  0  0
 22 21  1  0  0  0  0
 23 18  1  0  0  0  0
 23 17  1  0  0  0  0
 24 26  1  0  0  0  0
 25 24  1  0  0  0  0
 26 20  1  0  0  0  0
 27 24  2  0  0  0  0
M  END
>  <MODEL>
1

>  <REMARK>
 VINA RESULT:      -7.9      0.000      0.000
  Name = 
  8 active torsions:
  status: ('A' for Active; 'I' for Inactive)
    1  A    between atoms: C_6  and  N_18
    2  A    between atoms: C_7  and  N_14
    3  A    between atoms: C_7  and  C_27
    4  A    between atoms: C_8  and  C_12
    5  A    between atoms: C_8  and  C_26
    6  A    between atoms: C_12  and  N_24
    7  A    between atoms: C_16  and  C_27
    8  A    between atoms: C_21  and  N_24
                            x       y       z     vdW  Elec       q    Type
                         _______ _______ _______ _____ _____    ______ ____

>  <TORSDO>
F 8

$$$$
=
 OpenBabel10232411383D

 27 28  0  0  1  0  0  0  0  0999 V2000
  188.5420  176.7280  147.9590 O   0  0  0  0  0  1  0  0  0  0  0  0
  190.7800  176.9430  147.5500 O   0  0  0  0  0  0  0  0  0  0  0  0
  189.6090  176.8990  147.0860 C   0  0  0  0  0  0  0  0  0  0  0  0
  189.3760  177.0200  145.6700 N   0  0  0  0  0  0  0  0  0  0  0  0
  191.3460  178.6030  143.0160 C   0  0  0  0  0  2  0  0  0  0  0  0
  190.8190  178.5800  144.4070 C   0  0  0  0  0  2  0  0  0  0  0  0
  191.0220  177.5400  142.2920 C   0  0  2  0  0  3  0  0  0  0  0  0
  190.4610  177.1270  144.6950 C   0  0  2  0  0  3  0  0  0  0  0  0
  190.0280  176.3110  143.1210 S   0  0  0  0  0  0  0  0  0  0  0  0
  191.4700  177.3620  140.8750 C   0  0  0  0  0  2  0  0  0  0  0  0
  190.3640  176.7710  140.0090 C   0  0  0  0  0  2  0  0  0  0  0  0
  188.2680  178.7080  139.7880 O   0  0  0  0  0  1  0  0  0  0  0  0
  188.8760  179.3580  137.6780 O   0  0  0  0  0  0  0  0  0  0  0  0
  190.1080  177.6130  138.8490 N   0  0  0  0  0  2  0  0  0  0  0  0
  189.0490  178.5720  138.8090 C   0  0  0  0  0  0  0  0  0  0  0  0
  188.0180  176.9680  145.1490 C   0  0  0  0  0  2  0  0  0  0  0  0
  187.1900  178.1030  145.7310 C   0  0  0  0  0  2  0  0  0  0  0  0
  184.8600  178.9740  145.4430 C   0  0  0  0  0  3  0  0  0  0  0  0
  183.7310  179.1860  144.6520 C   0  0  0  0  0  3  0  0  0  0  0  0
  183.7240  178.7440  143.3210 C   0  0  0  0  0  0  0  0  0  0  0  0
  185.9340  177.8980  143.5740 C   0  0  0  0  0  3  0  0  0  0  0  0
  184.8230  178.1160  142.8200 N   0  0  0  0  0  0  0  0  0  0  0  0
  185.9700  178.3210  144.9050 C   0  0  0  0  0  0  0  0  0  0  0  0
  181.2070  178.8650  142.8440 C   0  0  0  0  0  0  0  0  0  0  0  0
  180.1590  179.0970  141.8170 C   0  0  0  0  0  1  0  0  0  0  0  0
  182.5870  178.9380  142.4670 N   0  0  0  0  0  2  0  0  0  0  0  0
  180.8640  178.6080  144.0280 O   0  0  0  0  0  0  0  0  0  0  0  0
  3  2  2  0  0  0  0
  3  1  1  0  0  0  0
  4  3  1  0  0  0  0
  5  6  1  0  0  0  0
  6  8  1  0  0  0  0
  7 10  1  1  0  0  0
  7  5  1  0  0  0  0
  7  9  1  0  0  0  0
  8  4  1  1  0  0  0
  9  8  1  0  0  0  0
 11 10  1  0  0  0  0
 13 15  2  0  0  0  0
 14 11  1  0  0  0  0
 15 14  1  0  0  0  0
 15 12  1  0  0  0  0
 16  4  1  0  0  0  0
 16 17  1  0  0  0  0
 19 18  2  0  0  0  0
 20 19  1  0  0  0  0
 21 23  2  0  0  0  0
 22 20  2  0  0  0  0
 22 21  1  0  0  0  0
 23 18  1  0  0  0  0
 23 17  1  0  0  0  0
 24 27  2  0  0  0  0
 25 24  1  0  0  0  0
 26 24  1  0  0  0  0
 26 20  1  0  0  0  0
M  END
>  <MODEL>
2

>  <REMARK>
 VINA RESULT:      -7.6      1.594      1.696
  Name = 
  8 active torsions:
  status: ('A' for Active; 'I' for Inactive)
    1  A    between atoms: C_6  and  N_18
    2  A    between atoms: C_7  and  N_14
    3  A    between atoms: C_7  and  C_27
    4  A    between atoms: C_8  and  C_12
    5  A    between atoms: C_8  and  C_26
    6  A    between atoms: C_12  and  N_24
    7  A    between atoms: C_16  and  C_27
    8  A    between atoms: C_21  and  N_24
                            x       y       z     vdW  Elec       q    Type
                         _______ _______ _______ _____ _____    ______ ____

>  <TORSDO>
F 8

$$$$
=
 OpenBabel10232411383D

 27 28  0  0  1  0  0  0  0  0999 V2000
  192.3790  175.7720  146.1060 O   0  0  0  0  0  0  0  0  0  0  0  0
  191.4690  176.9350  147.8500 O   0  0  0  0  0  1  0  0  0  0  0  0
  191.3860  176.5820  146.6430 C   0  0  0  0  0  0  0  0  0  0  0  0
  190.2800  177.0100  145.8270 N   0  0  0  0  0  0  0  0  0  0  0  0
  187.5420  178.1090  148.0020 C   0  0  0  0  0  2  0  0  0  0  0  0
  188.9620  177.7150  147.7960 C   0  0  0  0  0  2  0  0  0  0  0  0
  186.8190  178.1450  146.8900 C   0  0  2  0  0  3  0  0  0  0  0  0
  189.2440  177.9210  146.3130 C   0  0  2  0  0  3  0  0  0  0  0  0
  187.6830  177.7130  145.3900 S   0  0  0  0  0  0  0  0  0  0  0  0
  185.3750  178.5370  146.8790 C   0  0  0  0  0  2  0  0  0  0  0  0
  184.9800  179.1770  145.5540 C   0  0  0  0  0  2  0  0  0  0  0  0
  183.6270  178.4970  143.1250 O   0  0  0  0  0  0  0  0  0  0  0  0
  181.5380  178.7420  144.0340 O   0  0  0  0  0  1  0  0  0  0  0  0
  183.5350  179.1400  145.3710 N   0  0  0  0  0  2  0  0  0  0  0  0
  182.9230  178.7790  144.1310 C   0  0  0  0  0  0  0  0  0  0  0  0
  190.1970  176.5940  144.4350 C   0  0  0  0  0  2  0  0  0  0  0  0
  190.8050  177.6560  143.5330 C   0  0  0  0  0  2  0  0  0  0  0  0
  190.7910  176.9410  141.1330 C   0  0  0  0  0  3  0  0  0  0  0  0
  190.1740  176.8900  139.8830 C   0  0  0  0  0  3  0  0  0  0  0  0
  188.9290  177.5090  139.7000 C   0  0  0  0  0  0  0  0  0  0  0  0
  188.9240  178.2100  141.9740 C   0  0  0  0  0  3  0  0  0  0  0  0
  188.3400  178.1490  140.7480 N   0  0  0  0  0  0  0  0  0  0  0  0
  190.1670  177.6090  142.1880 C   0  0  0  0  0  0  0  0  0  0  0  0
  188.2820  178.5040  137.4270 C   0  0  0  0  0  0  0  0  0  0  0  0
  187.5150  178.3050  136.1700 C   0  0  0  0  0  1  0  0  0  0  0  0
  188.2530  177.4860  138.4340 N   0  0  0  0  0  2  0  0  0  0  0  0
  188.9420  179.5640  137.5850 O   0  0  0  0  0  0  0  0  0  0  0  0
  1  3  2  0  0  0  0
  3  2  1  0  0  0  0
  4  3  1  0  0  0  0
  6  5  1  0  0  0  0
  7 10  1  6  0  0  0
  7  5  1  0  0  0  0
  8  4  1  6  0  0  0
  8  6  1  0  0  0  0
  9  8  1  0  0  0  0
  9  7  1  0  0  0  0
 11 10  1  0  0  0  0
 12 15  2  0  0  0  0
 13 15  1  0  0  0  0
 14 11  1  0  0  0  0
 15 14  1  0  0  0  0
 16  4  1  0  0  0  0
 17 16  1  0  0  0  0
 18 23  1  0  0  0  0
 19 18  2  0  0  0  0
 20 19  1  0  0  0  0
 20 22  2  0  0  0  0
 21 23  2  0  0  0  0
 22 21  1  0  0  0  0
 23 17  1  0  0  0  0
 24 27  2  0  0  0  0
 24 26  1  0  0  0  0
 25 24  1  0  0  0  0
 26 20  1  0  0  0  0
M  END
>  <MODEL>
3

>  <REMARK>
 VINA RESULT:      -7.5      2.442      5.609
  Name = 
  8 active torsions:
  status: ('A' for Active; 'I' for Inactive)
    1  A    between atoms: C_6  and  N_18
    2  A    between atoms: C_7  and  N_14
    3  A    between atoms: C_7  and  C_27
    4  A    between atoms: C_8  and  C_12
    5  A    between atoms: C_8  and  C_26
    6  A    between atoms: C_12  and  N_24
    7  A    between atoms: C_16  and  C_27
    8  A    between atoms: C_21  and  N_24
                            x       y       z     vdW  Elec       q    Type
                         _______ _______ _______ _____ _____    ______ ____

>  <TORSDO>
F 8

$$$$
=
 OpenBabel10232411383D

 27 28  0  0  1  0  0  0  0  0999 V2000
  189.3690  176.5690  147.3240 O   0  0  0  0  0  0  0  0  0  0  0  0
  187.6220  177.8670  148.0230 O   0  0  0  0  0  1  0  0  0  0  0  0
  188.2510  177.3510  147.0600 C   0  0  0  0  0  0  0  0  0  0  0  0
  187.8220  177.5670  145.7030 N   0  0  0  0  0  0  0  0  0  0  0  0
  184.3060  178.5890  145.5400 C   0  0  0  0  0  2  0  0  0  0  0  0
  185.5300  178.2600  146.3180 C   0  0  0  0  0  2  0  0  0  0  0  0
  184.4710  178.5570  144.2240 C   0  0  2  0  0  3  0  0  0  0  0  0
  186.6990  178.4380  145.3570 C   0  0  2  0  0  3  0  0  0  0  0  0
  186.1080  178.1260  143.6590 S   0  0  0  0  0  0  0  0  0  0  0  0
  183.3680  178.8760  143.2650 C   0  0  0  0  0  2  0  0  0  0  0  0
  183.5400  178.1300  141.9470 C   0  0  0  0  0  2  0  0  0  0  0  0
  185.6780  178.9150  140.2130 O   0  0  0  0  0  1  0  0  0  0  0  0
  184.3420  180.2400  138.9060 O   0  0  0  0  0  0  0  0  0  0  0  0
  183.4230  179.0410  140.8170 N   0  0  0  0  0  2  0  0  0  0  0  0
  184.5310  179.3820  139.9810 C   0  0  0  0  0  0  0  0  0  0  0  0
  188.5570  176.9640  144.6020 C   0  0  0  0  0  2  0  0  0  0  0  0
  189.7530  177.8280  144.2340 C   0  0  0  0  0  2  0  0  0  0  0  0
  189.0490  177.6930  141.8360 C   0  0  0  0  0  3  0  0  0  0  0  0
  189.3610  177.5650  140.4820 C   0  0  0  0  0  3  0  0  0  0  0  0
  190.7000  177.4210  140.0910 C   0  0  0  0  0  0  0  0  0  0  0  0
  191.3930  177.5360  142.3650 C   0  0  0  0  0  3  0  0  0  0  0  0
  191.6760  177.4120  141.0410 N   0  0  0  0  0  0  0  0  0  0  0  0
  190.0690  177.6740  142.7880 C   0  0  0  0  0  0  0  0  0  0  0  0
  191.1470  176.0690  137.9580 C   0  0  0  0  0  0  0  0  0  0  0  0
  191.5560  176.1220  136.5310 C   0  0  0  0  0  1  0  0  0  0  0  0
  191.0730  177.2850  138.7120 N   0  0  0  0  0  2  0  0  0  0  0  0
  190.8760  174.9560  138.4820 O   0  0  0  0  0  0  0  0  0  0  0  0
  3  1  2  0  0  0  0
  3  2  1  0  0  0  0
  4  3  1  0  0  0  0
  5  6  1  0  0  0  0
  7 10  1  1  0  0  0
  7  5  1  0  0  0  0
  8  4  1  1  0  0  0
  8  6  1  0  0  0  0
  9  7  1  0  0  0  0
  9  8  1  0  0  0  0
 11 10  1  0  0  0  0
 13 15  2  0  0  0  0
 14 11  1  0  0  0  0
 15 12  1  0  0  0  0
 15 14  1  0  0  0  0
 16  4  1  0  0  0  0
 17 16  1  0  0  0  0
 18 23  1  0  0  0  0
 19 18  2  0  0  0  0
 20 19  1  0  0  0  0
 20 22  2  0  0  0  0
 21 23  2  0  0  0  0
 22 21  1  0  0  0  0
 23 17  1  0  0  0  0
 24 27  2  0  0  0  0
 24 26  1  0  0  0  0
 25 24  1  0  0  0  0
 26 20  1  0  0  0  0
M  END
>  <MODEL>
4

>  <REMARK>
 VINA RESULT:      -7.1      1.894      5.757
  Name = 
  8 active torsions:
  status: ('A' for Active; 'I' for Inactive)
    1  A    between atoms: C_6  and  N_18
    2  A    between atoms: C_7  and  N_14
    3  A    between atoms: C_7  and  C_27
    4  A    between atoms: C_8  and  C_12
    5  A    between atoms: C_8  and  C_26
    6  A    between atoms: C_12  and  N_24
    7  A    between atoms: C_16  and  C_27
    8  A    between atoms: C_21  and  N_24
                            x       y       z     vdW  Elec       q    Type
                         _______ _______ _______ _____ _____    ______ ____

>  <TORSDO>
F 8

$$$$
=
 OpenBabel10232411383D

 27 28  0  0  1  0  0  0  0  0999 V2000
  190.8800  176.9990  146.7370 O   0  0  0  0  0  1  0  0  0  0  0  0
  192.1260  175.8320  145.2170 O   0  0  0  0  0  0  0  0  0  0  0  0
  191.1570  176.6080  145.4320 C   0  0  0  0  0  0  0  0  0  0  0  0
  190.3420  177.0830  144.3440 N   0  0  0  0  0  0  0  0  0  0  0  0
  191.4920  177.3750  140.8760 C   0  0  0  0  0  2  0  0  0  0  0  0
  191.7680  177.2950  142.3360 C   0  0  0  0  0  2  0  0  0  0  0  0
  190.2090  177.2620  140.5570 C   0  0  2  0  0  3  0  0  0  0  0  0
  190.5370  176.6500  142.9610 C   0  0  2  0  0  3  0  0  0  0  0  0
  189.0860  177.0420  141.9260 S   0  0  0  0  0  0  0  0  0  0  0  0
  189.7250  177.2960  139.1420 C   0  0  0  0  0  2  0  0  0  0  0  0
  189.0770  178.6340  138.8050 C   0  0  0  0  0  2  0  0  0  0  0  0
  186.4960  178.6020  140.0420 O   0  0  0  0  0  1  0  0  0  0  0  0
  185.3790  178.2730  138.0700 O   0  0  0  0  0  0  0  0  0  0  0  0
  187.8090  178.4370  138.1160 N   0  0  0  0  0  2  0  0  0  0  0  0
  186.5510  178.4440  138.7940 C   0  0  0  0  0  0  0  0  0  0  0  0
  189.2260  177.9800  144.6080 C   0  0  0  0  0  2  0  0  0  0  0  0
  188.2640  177.3420  145.5980 C   0  0  0  0  0  2  0  0  0  0  0  0
  186.0400  178.1940  146.3710 C   0  0  0  0  0  3  0  0  0  0  0  0
  184.7460  178.6350  146.0980 C   0  0  0  0  0  3  0  0  0  0  0  0
  184.2940  178.6790  144.7710 C   0  0  0  0  0  0  0  0  0  0  0  0
  186.3960  177.8590  144.0120 C   0  0  0  0  0  3  0  0  0  0  0  0
  185.1300  178.2920  143.7680 N   0  0  0  0  0  0  0  0  0  0  0  0
  186.8730  177.7970  145.3230 C   0  0  0  0  0  0  0  0  0  0  0  0
  182.3240  179.0170  143.1640 C   0  0  0  0  0  0  0  0  0  0  0  0
  180.9420  179.5370  143.0040 C   0  0  0  0  0  1  0  0  0  0  0  0
  182.9710  179.1240  144.4380 N   0  0  0  0  0  2  0  0  0  0  0  0
  182.9040  178.4910  142.1770 O   0  0  0  0  0  0  0  0  0  0  0  0
  2  3  2  0  0  0  0
  3  1  1  0  0  0  0
  4 16  1  0  0  0  0
  4  3  1  0  0  0  0
  5  6  1  0  0  0  0
  6  8  1  0  0  0  0
  7 10  1  6  0  0  0
  7  5  1  0  0  0  0
  7  9  1  0  0  0  0
  8  4  1  1  0  0  0
  9  8  1  0  0  0  0
 11 10  1  0  0  0  0
 13 15  2  0  0  0  0
 14 15  1  0  0  0  0
 14 11  1  0  0  0  0
 15 12  1  0  0  0  0
 16 17  1  0  0  0  0
 19 18  2  0  0  0  0
 20 19  1  0  0  0  0
 21 23  2  0  0  0  0
 22 21  1  0  0  0  0
 22 20  2  0  0  0  0
 23 17  1  0  0  0  0
 23 18  1  0  0  0  0
 24 26  1  0  0  0  0
 25 24  1  0  0  0  0
 26 20  1  0  0  0  0
 27 24  2  0  0  0  0
M  END
>  <MODEL>
5

>  <REMARK>
 VINA RESULT:      -6.9      1.987      2.703
  Name = 
  8 active torsions:
  status: ('A' for Active; 'I' for Inactive)
    1  A    between atoms: C_6  and  N_18
    2  A    between atoms: C_7  and  N_14
    3  A    between atoms: C_7  and  C_27
    4  A    between atoms: C_8  and  C_12
    5  A    between atoms: C_8  and  C_26
    6  A    between atoms: C_12  and  N_24
    7  A    between atoms: C_16  and  C_27
    8  A    between atoms: C_21  and  N_24
                            x       y       z     vdW  Elec       q    Type
                         _______ _______ _______ _____ _____    ______ ____

>  <TORSDO>
F 8

$$$$
=
 OpenBabel10232411383D

 27 28  0  0  1  0  0  0  0  0999 V2000
  188.6530  178.8130  139.4370 O   0  0  0  0  0  1  0  0  0  0  0  0
  189.4180  178.6710  137.2880 O   0  0  0  0  0  0  0  0  0  0  0  0
  189.4210  178.1980  138.4560 C   0  0  0  0  0  0  0  0  0  0  0  0
  190.2100  177.0360  138.7750 N   0  0  0  0  0  0  0  0  0  0  0  0
  191.9550  174.2290  137.1910 C   0  0  0  0  0  2  0  0  0  0  0  0
  190.7010  174.9360  137.5670 C   0  0  0  0  0  2  0  0  0  0  0  0
  193.0650  174.8740  137.5260 C   0  0  2  0  0  3  0  0  0  0  0  0
  191.0940  176.3890  137.8070 C   0  0  2  0  0  3  0  0  0  0  0  0
  192.8350  176.4380  138.3530 S   0  0  0  0  0  0  0  0  0  0  0  0
  194.4300  174.3420  137.2190 C   0  0  0  0  0  2  0  0  0  0  0  0
  194.9680  173.4900  138.3630 C   0  0  0  0  0  2  0  0  0  0  0  0
  195.8230  175.4490  140.2660 O   0  0  0  0  0  1  0  0  0  0  0  0
  198.0510  175.0800  139.8820 O   0  0  0  0  0  0  0  0  0  0  0  0
  196.3510  173.8350  138.6590 N   0  0  0  0  0  2  0  0  0  0  0  0
  196.7100  174.8170  139.6330 C   0  0  0  0  0  0  0  0  0  0  0  0
  190.2020  176.5010  140.1280 C   0  0  0  0  0  2  0  0  0  0  0  0
  190.9890  177.4110  141.0570 C   0  0  0  0  0  2  0  0  0  0  0  0
  189.1830  176.7310  142.6520 C   0  0  0  0  0  3  0  0  0  0  0  0
  188.5530  176.8360  143.8920 C   0  0  0  0  0  3  0  0  0  0  0  0
  189.0460  177.7380  144.8450 C   0  0  0  0  0  0  0  0  0  0  0  0
  190.7650  178.4100  143.3430 C   0  0  0  0  0  3  0  0  0  0  0  0
  190.1360  178.4970  144.5450 N   0  0  0  0  0  0  0  0  0  0  0  0
  190.2950  177.5260  142.3690 C   0  0  0  0  0  0  0  0  0  0  0  0
  188.9680  177.4550  147.3920 C   0  0  0  0  0  0  0  0  0  0  0  0
  188.1870  177.6920  148.6340 C   0  0  0  0  0  1  0  0  0  0  0  0
  188.4340  177.8840  146.1350 N   0  0  0  0  0  2  0  0  0  0  0  0
  190.0860  176.8790  147.4670 O   0  0  0  0  0  0  0  0  0  0  0  0
  2  3  2  0  0  0  0
  3  4  1  0  0  0  0
  3  1  1  0  0  0  0
  4 16  1  0  0  0  0
  5  7  1  0  0  0  0
  5  6  1  0  0  0  0
  6  8  1  0  0  0  0
  7 10  1  6  0  0  0
  7  9  1  0  0  0  0
  8  9  1  0  0  0  0
  8  4  1  1  0  0  0
 10 11  1  0  0  0  0
 11 14  1  0  0  0  0
 14 15  1  0  0  0  0
 15 13  2  0  0  0  0
 15 12  1  0  0  0  0
 16 17  1  0  0  0  0
 17 23  1  0  0  0  0
 18 19  2  0  0  0  0
 19 20  1  0  0  0  0
 20 26  1  0  0  0  0
 21 22  1  0  0  0  0
 22 20  2  0  0  0  0
 23 18  1  0  0  0  0
 23 21  2  0  0  0  0
 24 27  2  0  0  0  0
 24 25  1  0  0  0  0
 26 24  1  0  0  0  0
M  END
>  <MODEL>
6

>  <REMARK>
 VINA RESULT:      -6.8      4.072      7.573
  Name = 
  8 active torsions:
  status: ('A' for Active; 'I' for Inactive)
    1  A    between atoms: C_6  and  N_18
    2  A    between atoms: C_7  and  N_14
    3  A    between atoms: C_7  and  C_27
    4  A    between atoms: C_8  and  C_12
    5  A    between atoms: C_8  and  C_26
    6  A    between atoms: C_12  and  N_24
    7  A    between atoms: C_16  and  C_27
    8  A    between atoms: C_21  and  N_24
                            x       y       z     vdW  Elec       q    Type
                         _______ _______ _______ _____ _____    ______ ____

>  <TORSDO>
F 8

$$$$
=
 OpenBabel10232411383D

 27 28  0  0  1  0  0  0  0  0999 V2000
  190.1580  176.9120  146.0170 O   0  0  0  0  0  1  0  0  0  0  0  0
  191.5150  178.0240  144.5530 O   0  0  0  0  0  0  0  0  0  0  0  0
  190.3870  177.5130  144.7850 C   0  0  0  0  0  0  0  0  0  0  0  0
  189.3470  177.5460  143.7900 N   0  0  0  0  0  0  0  0  0  0  0  0
  188.5080  178.2220  140.2870 C   0  0  0  0  0  2  0  0  0  0  0  0
  188.2270  178.3580  141.7410 C   0  0  0  0  0  2  0  0  0  0  0  0
  189.6260  177.5660  140.0070 C   0  0  2  0  0  3  0  0  0  0  0  0
  189.5500  178.0970  142.4500 C   0  0  2  0  0  3  0  0  0  0  0  0
  190.5550  176.9820  141.4130 S   0  0  0  0  0  0  0  0  0  0  0  0
  190.0980  177.3400  138.6050 C   0  0  0  0  0  2  0  0  0  0  0  0
  190.8130  176.0010  138.4650 C   0  0  0  0  0  2  0  0  0  0  0  0
  193.4820  176.9140  138.9470 O   0  0  0  0  0  1  0  0  0  0  0  0
  194.1610  176.5640  136.7870 O   0  0  0  0  0  0  0  0  0  0  0  0
  191.8730  176.0800  137.4700 N   0  0  0  0  0  2  0  0  0  0  0  0
  193.1910  176.5360  137.7810 C   0  0  0  0  0  0  0  0  0  0  0  0
  188.0490  176.9520  144.0740 C   0  0  0  0  0  2  0  0  0  0  0  0
  187.3950  177.6580  145.2520 C   0  0  0  0  0  2  0  0  0  0  0  0
  185.1050  178.4260  145.9080 C   0  0  0  0  0  3  0  0  0  0  0  0
  183.8040  178.8000  145.5680 C   0  0  0  0  0  3  0  0  0  0  0  0
  183.4090  178.7880  144.2230 C   0  0  0  0  0  0  0  0  0  0  0  0
  185.5760  178.0470  143.5760 C   0  0  0  0  0  3  0  0  0  0  0  0
  184.3040  178.4140  143.2670 N   0  0  0  0  0  0  0  0  0  0  0  0
  185.9990  178.0410  144.9070 C   0  0  0  0  0  0  0  0  0  0  0  0
  181.5520  179.1510  142.4920 C   0  0  0  0  0  0  0  0  0  0  0  0
  180.1460  179.5760  142.2660 C   0  0  0  0  0  1  0  0  0  0  0  0
  182.0830  179.1630  143.8230 N   0  0  0  0  0  2  0  0  0  0  0  0
  182.2530  178.7890  141.5100 O   0  0  0  0  0  0  0  0  0  0  0  0
  2  3  2  0  0  0  0
  3  1  1  0  0  0  0
  4 16  1  0  0  0  0
  4  3  1  0  0  0  0
  5  6  1  0  0  0  0
  6  8  1  0  0  0  0
  7 10  1  1  0  0  0
  7  5  1  0  0  0  0
  7  9  1  0  0  0  0
  8  4  1  1  0  0  0
  9  8  1  0  0  0  0
 11 10  1  0  0  0  0
 13 15  2  0  0  0  0
 14 15  1  0  0  0  0
 14 11  1  0  0  0  0
 15 12  1  0  0  0  0
 16 17  1  0  0  0  0
 19 18  2  0  0  0  0
 20 19  1  0  0  0  0
 21 23  2  0  0  0  0
 22 21  1  0  0  0  0
 22 20  2  0  0  0  0
 23 17  1  0  0  0  0
 23 18  1  0  0  0  0
 24 26  1  0  0  0  0
 25 24  1  0  0  0  0
 26 20  1  0  0  0  0
 27 24  2  0  0  0  0
M  END
>  <MODEL>
7

>  <REMARK>
 VINA RESULT:      -6.8      2.631      3.150
  Name = 
  8 active torsions:
  status: ('A' for Active; 'I' for Inactive)
    1  A    between atoms: C_6  and  N_18
    2  A    between atoms: C_7  and  N_14
    3  A    between atoms: C_7  and  C_27
    4  A    between atoms: C_8  and  C_12
    5  A    between atoms: C_8  and  C_26
    6  A    between atoms: C_12  and  N_24
    7  A    between atoms: C_16  and  C_27
    8  A    between atoms: C_21  and  N_24
                            x       y       z     vdW  Elec       q    Type
                         _______ _______ _______ _____ _____    ______ ____

>  <TORSDO>
F 8

$$$$
=
 OpenBabel10232411383D

 27 28  0  0  1  0  0  0  0  0999 V2000
  187.4230  178.1700  147.9080 O   0  0  0  0  0  1  0  0  0  0  0  0
  185.7360  179.6750  147.5750 O   0  0  0  0  0  0  0  0  0  0  0  0
  186.4610  178.7620  147.0980 C   0  0  0  0  0  0  0  0  0  0  0  0
  186.3020  178.3350  145.7320 N   0  0  0  0  0  0  0  0  0  0  0  0
  183.1000  178.7920  144.0090 C   0  0  0  0  0  2  0  0  0  0  0  0
  183.9160  178.7700  145.2530 C   0  0  0  0  0  2  0  0  0  0  0  0
  183.7930  178.5850  142.8970 C   0  0  2  0  0  3  0  0  0  0  0  0
  185.3600  178.9690  144.8100 C   0  0  2  0  0  3  0  0  0  0  0  0
  185.5440  178.3190  143.1150 S   0  0  0  0  0  0  0  0  0  0  0  0
  183.1610  178.5890  141.5410 C   0  0  0  0  0  2  0  0  0  0  0  0
  184.0920  179.1890  140.4930 C   0  0  0  0  0  2  0  0  0  0  0  0
  186.3300  178.6410  138.7960 O   0  0  0  0  0  1  0  0  0  0  0  0
  185.1030  177.4040  137.3100 O   0  0  0  0  0  0  0  0  0  0  0  0
  184.0500  178.4160  139.2600 N   0  0  0  0  0  2  0  0  0  0  0  0
  185.2110  178.1690  138.4630 C   0  0  0  0  0  0  0  0  0  0  0  0
  187.1460  177.2780  145.1960 C   0  0  0  0  0  2  0  0  0  0  0  0
  188.6130  177.6230  145.4040 C   0  0  0  0  0  2  0  0  0  0  0  0
  190.5480  178.1530  143.9070 C   0  0  0  0  0  3  0  0  0  0  0  0
  191.2510  177.9670  142.7160 C   0  0  0  0  0  3  0  0  0  0  0  0
  190.7600  177.0720  141.7540 C   0  0  0  0  0  0  0  0  0  0  0  0
  188.9050  176.5600  143.1550 C   0  0  0  0  0  3  0  0  0  0  0  0
  189.6050  176.3940  142.0010 N   0  0  0  0  0  0  0  0  0  0  0  0
  189.3630  177.4490  144.1300 C   0  0  0  0  0  0  0  0  0  0  0  0
  190.8810  176.9070  139.1980 C   0  0  0  0  0  0  0  0  0  0  0  0
  191.7480  176.6420  138.0220 C   0  0  0  0  0  1  0  0  0  0  0  0
  191.4450  176.8460  140.5140 N   0  0  0  0  0  2  0  0  0  0  0  0
  189.6640  177.1790  139.0190 O   0  0  0  0  0  0  0  0  0  0  0  0
  3  2  2  0  0  0  0
  3  1  1  0  0  0  0
  4  3  1  0  0  0  0
  5  6  1  0  0  0  0
  7 10  1  6  0  0  0
  7  9  1  0  0  0  0
  7  5  1  0  0  0  0
  8  6  1  0  0  0  0
  8  4  1  1  0  0  0
  9  8  1  0  0  0  0
 11 10  1  0  0  0  0
 13 15  2  0  0  0  0
 14 11  1  0  0  0  0
 15 12  1  0  0  0  0
 15 14  1  0  0  0  0
 16 17  1  0  0  0  0
 16  4  1  0  0  0  0
 18 23  1  0  0  0  0
 19 18  2  0  0  0  0
 20 22  2  0  0  0  0
 20 19  1  0  0  0  0
 21 23  2  0  0  0  0
 22 21  1  0  0  0  0
 23 17  1  0  0  0  0
 24 26  1  0  0  0  0
 25 24  1  0  0  0  0
 26 20  1  0  0  0  0
 27 24  2  0  0  0  0
M  END
>  <MODEL>
8

>  <REMARK>
 VINA RESULT:      -6.8      2.123      5.686
  Name = 
  8 active torsions:
  status: ('A' for Active; 'I' for Inactive)
    1  A    between atoms: C_6  and  N_18
    2  A    between atoms: C_7  and  N_14
    3  A    between atoms: C_7  and  C_27
    4  A    between atoms: C_8  and  C_12
    5  A    between atoms: C_8  and  C_26
    6  A    between atoms: C_12  and  N_24
    7  A    between atoms: C_16  and  C_27
    8  A    between atoms: C_21  and  N_24
                            x       y       z     vdW  Elec       q    Type
                         _______ _______ _______ _____ _____    ______ ____

>  <TORSDO>
F 8

$$$$
=
 OpenBabel10232411383D

 27 28  0  0  1  0  0  0  0  0999 V2000
  188.5530  178.7860  139.3570 O   0  0  0  0  0  1  0  0  0  0  0  0
  189.3680  178.6550  137.2260 O   0  0  0  0  0  0  0  0  0  0  0  0
  189.3650  178.1930  138.3980 C   0  0  0  0  0  0  0  0  0  0  0  0
  190.1910  177.0660  138.7450 N   0  0  0  0  0  0  0  0  0  0  0  0
  192.0570  174.3120  137.2060 C   0  0  0  0  0  2  0  0  0  0  0  0
  190.7740  174.9830  137.5460 C   0  0  0  0  0  2  0  0  0  0  0  0
  193.1390  174.9850  137.5730 C   0  0  2  0  0  3  0  0  0  0  0  0
  191.1200  176.4450  137.8000 C   0  0  2  0  0  3  0  0  0  0  0  0
  192.8420  176.5400  138.3960 S   0  0  0  0  0  0  0  0  0  0  0  0
  194.5260  174.4910  137.3040 C   0  0  0  0  0  2  0  0  0  0  0  0
  194.9840  174.8500  135.8960 C   0  0  0  0  0  2  0  0  0  0  0  0
  194.1610  177.1130  134.3490 O   0  0  0  0  0  0  0  0  0  0  0  0
  195.8330  178.4630  135.1420 O   0  0  0  0  0  1  0  0  0  0  0  0
  195.6410  176.1490  135.8800 N   0  0  0  0  0  2  0  0  0  0  0  0
  195.1700  177.2440  135.0910 C   0  0  0  0  0  0  0  0  0  0  0  0
  190.1760  176.5420  140.1020 C   0  0  0  0  0  2  0  0  0  0  0  0
  190.9210  177.4830  141.0360 C   0  0  0  0  0  2  0  0  0  0  0  0
  188.9980  176.9120  142.5340 C   0  0  0  0  0  3  0  0  0  0  0  0
  188.3560  176.9870  143.7700 C   0  0  0  0  0  3  0  0  0  0  0  0
  188.9420  177.7220  144.8110 C   0  0  0  0  0  0  0  0  0  0  0  0
  190.7750  178.2880  143.4030 C   0  0  0  0  0  3  0  0  0  0  0  0
  190.1320  178.3490  144.5990 N   0  0  0  0  0  0  0  0  0  0  0  0
  190.2150  177.5700  142.3430 C   0  0  0  0  0  0  0  0  0  0  0  0
  188.8990  177.4810  147.3640 C   0  0  0  0  0  0  0  0  0  0  0  0
  188.1010  177.6630  148.6040 C   0  0  0  0  0  1  0  0  0  0  0  0
  188.3210  177.8310  146.1010 N   0  0  0  0  0  2  0  0  0  0  0  0
  190.0690  177.0210  147.4440 O   0  0  0  0  0  0  0  0  0  0  0  0
  2  3  2  0  0  0  0
  3  4  1  0  0  0  0
  3  1  1  0  0  0  0
  4 16  1  0  0  0  0
  5  6  1  0  0  0  0
  5  7  1  0  0  0  0
  6  8  1  0  0  0  0
  7 10  1  6  0  0  0
  7  9  1  0  0  0  0
  8  9  1  0  0  0  0
  8  4  1  1  0  0  0
 11 10  1  0  0  0  0
 12 15  2  0  0  0  0
 14 11  1  0  0  0  0
 15 13  1  0  0  0  0
 15 14  1  0  0  0  0
 16 17  1  0  0  0  0
 17 23  1  0  0  0  0
 18 19  2  0  0  0  0
 19 20  1  0  0  0  0
 20 26  1  0  0  0  0
 21 22  1  0  0  0  0
 22 20  2  0  0  0  0
 23 18  1  0  0  0  0
 23 21  2  0  0  0  0
 24 27  2  0  0  0  0
 24 25  1  0  0  0  0
 26 24  1  0  0  0  0
M  END
>  <MODEL>
9

>  <REMARK>
 VINA RESULT:      -6.7      3.773      7.365
  Name = 
  8 active torsions:
  status: ('A' for Active; 'I' for Inactive)
    1  A    between atoms: C_6  and  N_18
    2  A    between atoms: C_7  and  N_14
    3  A    between atoms: C_7  and  C_27
    4  A    between atoms: C_8  and  C_12
    5  A    between atoms: C_8  and  C_26
    6  A    between atoms: C_12  and  N_24
    7  A    between atoms: C_16  and  C_27
    8  A    between atoms: C_21  and  N_24
                            x       y       z     vdW  Elec       q    Type
                         _______ _______ _______ _____ _____    ______ ____

>  <TORSDO>
F 8

$$$$
