=
 OpenBabel10232407573D

 44 47  0  0  1  0  0  0  0  0999 V2000
  190.7750  177.4360  140.9650 C   0  0  0  0  0  0  0  0  0  0  0  0
  189.4380  177.8360  140.9560 C   0  0  0  0  0  3  0  0  0  0  0  0
  189.3190  177.4580  138.5630 C   0  0  0  0  0  0  0  0  0  0  0  0
  188.7160  177.8530  139.7630 C   0  0  0  0  0  3  0  0  0  0  0  0
  190.6610  177.0190  138.5590 C   0  0  0  0  0  0  0  0  0  0  0  0
  191.3800  177.0350  139.7680 C   0  0  0  0  0  3  0  0  0  0  0  0
  191.3090  176.5640  137.2710 C   0  0  2  0  0  3  0  0  0  0  0  0
  192.8440  174.6600  137.4200 C   0  0  0  0  0  0  0  0  0  0  0  0
  193.5780  173.6380  137.7330 N   0  0  0  0  0  0  0  0  0  0  0  0
  191.0920  174.8300  136.9230 S   0  0  0  0  0  0  0  0  0  0  0  0
  193.0690  176.4810  137.4540 S   0  0  0  0  0  0  0  0  0  0  0  0
  195.3320  173.1250  139.2040 O   0  0  0  0  0  0  0  0  0  0  0  0
  195.8610  174.4970  137.3920 N   0  0  0  0  0  2  0  0  0  0  0  0
  194.9410  173.7230  138.1630 C   0  0  0  0  0  0  0  0  0  0  0  0
  198.3180  173.5150  137.2930 S   0  0  0  0  0  0  0  0  0  0  0  0
  197.2300  174.6350  137.7640 C   0  0  0  0  0  3  0  0  0  0  0  0
  188.5060  177.5150  137.3080 C   0  0  0  0  0  2  0  0  0  0  0  0
  187.3160  176.6130  137.3860 C   0  0  0  0  0  0  0  0  0  0  0  0
  187.4680  175.4110  137.5480 O   0  0  0  0  0  0  0  0  0  0  0  0
  185.9420  177.1880  137.2600 C   0  0  0  0  0  2  0  0  0  0  0  0
  185.8450  178.4560  138.0930 C   0  0  0  0  0  2  0  0  0  0  0  0
  184.4240  178.6700  138.5870 C   0  0  2  0  0  3  0  0  0  0  0  0
  182.8810  180.2550  138.7300 C   0  0  0  0  0  1  0  0  0  0  0  0
  184.2430  180.0130  138.9260 O   0  0  0  0  0  0  0  0  0  0  0  0
  184.1920  177.8430  139.7600 N   0  0  0  0  0  2  0  0  0  0  0  0
  182.5400  178.9470  144.2420 C   0  0  0  0  0  1  0  0  0  0  0  0
  184.2810  178.3540  141.0930 C   0  0  0  0  0  0  0  0  0  0  0  0
  183.2580  178.3100  141.9190 C   0  0  0  0  0  3  0  0  0  0  0  0
  184.8770  179.4060  143.3380 C   0  0  0  0  0  2  0  0  0  0  0  0
  185.7650  179.1020  141.7670 S   0  0  0  0  0  0  0  0  0  0  0  0
  183.5350  178.8730  143.1890 N   0  0  0  0  0  0  0  0  0  0  0  0
  191.4740  177.4280  142.1710 O   0  0  0  0  0  0  0  0  0  0  0  0
  191.4880  176.2980  143.0380 C   0  0  0  0  0  2  0  0  0  0  0  0
  189.5020  177.1360  144.2910 C   0  0  0  0  0  3  0  0  0  0  0  0
  188.8350  177.4360  145.4850 C   0  0  0  0  0  0  0  0  0  0  0  0
  189.4750  177.2260  146.7110 C   0  0  0  0  0  3  0  0  0  0  0  0
  190.8020  176.6250  144.3210 C   0  0  0  0  0  0  0  0  0  0  0  0
  191.4380  176.4070  145.5500 C   0  0  0  0  0  3  0  0  0  0  0  0
  190.7760  176.7120  146.7430 C   0  0  0  0  0  3  0  0  0  0  0  0
  187.4380  177.9580  145.4550 C   0  0  0  0  0  2  0  0  0  0  0  0
  186.8960  178.0360  146.8060 N   0  0  0  0  0  2  0  0  0  0  0  0
  184.5960  178.2680  147.1200 O   0  0  0  0  0  1  0  0  0  0  0  0
  185.7620  178.9490  146.7740 C   0  0  0  0  0  3  0  0  0  0  0  0
  185.9780  179.9910  147.6770 O   0  0  0  0  0  1  0  0  0  0  0  0
  1 32  1  0  0  0  0
  2  1  1  0  0  0  0
  3  4  1  0  0  0  0
  4  2  2  0  0  0  0
  5  3  2  0  0  0  0
  5  6  1  0  0  0  0
  6  1  2  0  0  0  0
  7 11  1  0  0  0  0
  7  5  1  1  0  0  0
  8 11  1  0  0  0  0
  8  9  2  0  0  0  0
  9 14  1  0  0  0  0
 10  7  1  0  0  0  0
 10  8  1  0  0  0  0
 13 16  1  0  0  0  0
 13 14  1  0  0  0  0
 14 12  2  0  0  0  0
 15 16  2  0  0  0  0
 17 18  1  0  0  0  0
 17  3  1  0  0  0  0
 18 19  2  0  0  0  0
 20 18  1  0  0  0  0
 20 21  1  0  0  0  0
 22 21  1  1  0  0  0
 22 24  1  0  0  0  0
 22 25  1  0  0  0  0
 23 24  1  0  0  0  0
 25 27  1  0  0  0  0
 27 30  1  0  0  0  0
 27 28  2  0  0  0  0
 28 31  1  0  0  0  0
 30 29  1  0  0  0  0
 31 29  1  0  0  0  0
 31 26  1  0  0  0  0
 32 33  1  0  0  0  0
 33 37  1  0  0  0  0
 34 37  2  0  0  0  0
 34 35  1  0  0  0  0
 35 36  2  0  0  0  0
 36 39  1  0  0  0  0
 37 38  1  0  0  0  0
 38 39  2  0  0  0  0
 40 35  1  0  0  0  0
 40 41  1  0  0  0  0
 43 41  1  0  0  0  0
 43 42  1  0  0  0  0
 43 44  1  0  0  0  0
M  END
>  <MODEL>
1

>  <REMARK>
 VINA RESULT:      -8.0      0.000      0.000
  Name = 
  17 active torsions:
  status: ('A' for Active; 'I' for Inactive)
    1  A    between atoms: O_2  and  C_19
    2  A    between atoms: O_3  and  C_9
    3  A    between atoms: O_3  and  C_42
    4  A    between atoms: C_5  and  N_27
    5  A    between atoms: C_6  and  C_8
    6  A    between atoms: C_6  and  C_32
    7  A    between atoms: C_7  and  C_28
    8  A    between atoms: C_8  and  C_13
    9  A    between atoms: C_13  and  C_19
   10  A    between atoms: C_16  and  N_33
   11  A    between atoms: C_17  and  C_20
   12  A    between atoms: C_17  and  N_35
   13  A    between atoms: C_19  and  N_27
   14  A    between atoms: C_24  and  C_32
   15  A    between atoms: N_29  and  C_37
   16  A    between atoms: C_31  and  N_35
   17  A    between atoms: C_36  and  C_42
                            x       y       z     vdW  Elec       q    Type
                         _______ _______ _______ _____ _____    ______ ____

>  <TORSDO>
F 17

$$$$
=
 OpenBabel10232407573D

 44 47  0  0  1  0  0  0  0  0999 V2000
  190.3440  177.0730  140.8580 C   0  0  0  0  0  0  0  0  0  0  0  0
  189.3370  178.0210  140.6710 C   0  0  0  0  0  3  0  0  0  0  0  0
  189.5930  177.8480  138.2650 C   0  0  0  0  0  0  0  0  0  0  0  0
  188.9670  178.4110  139.3840 C   0  0  0  0  0  3  0  0  0  0  0  0
  190.5900  176.8630  138.4360 C   0  0  0  0  0  0  0  0  0  0  0  0
  190.9670  176.5030  139.7420 C   0  0  0  0  0  3  0  0  0  0  0  0
  191.2480  176.2300  137.2310 C   0  0  2  0  0  3  0  0  0  0  0  0
  193.1420  174.7390  137.6630 C   0  0  0  0  0  0  0  0  0  0  0  0
  194.0840  173.9790  138.1300 N   0  0  0  0  0  0  0  0  0  0  0  0
  191.3690  174.4550  137.3190 S   0  0  0  0  0  0  0  0  0  0  0  0
  192.9950  176.5210  137.2510 S   0  0  0  0  0  0  0  0  0  0  0  0
  195.7380  174.9150  139.5070 O   0  0  0  0  0  0  0  0  0  0  0  0
  196.4040  174.2810  137.3610 N   0  0  0  0  0  2  0  0  0  0  0  0
  195.4220  174.4170  138.3890 C   0  0  0  0  0  0  0  0  0  0  0  0
  198.9620  173.6090  137.5020 S   0  0  0  0  0  0  0  0  0  0  0  0
  197.7540  174.7040  137.5440 C   0  0  0  0  0  3  0  0  0  0  0  0
  189.1730  178.3160  136.9080 C   0  0  0  0  0  2  0  0  0  0  0  0
  187.6860  178.2960  136.7570 C   0  0  0  0  0  0  0  0  0  0  0  0
  187.0580  179.3450  136.7430 O   0  0  0  0  0  0  0  0  0  0  0  0
  186.9720  176.9890  136.6280 C   0  0  0  0  0  2  0  0  0  0  0  0
  185.5970  177.2210  136.0210 C   0  0  0  0  0  2  0  0  0  0  0  0
  184.5100  176.6500  136.9170 C   0  0  2  0  0  3  0  0  0  0  0  0
  183.9160  176.1820  134.8330 C   0  0  0  0  0  1  0  0  0  0  0  0
  183.6650  175.8310  136.1620 O   0  0  0  0  0  0  0  0  0  0  0  0
  183.7370  177.7390  137.4910 N   0  0  0  0  0  2  0  0  0  0  0  0
  185.9640  179.1820  141.6130 C   0  0  0  0  0  1  0  0  0  0  0  0
  183.8160  178.0950  138.8740 C   0  0  0  0  0  0  0  0  0  0  0  0
  184.9500  178.4690  139.4260 C   0  0  0  0  0  3  0  0  0  0  0  0
  183.4980  178.5960  141.3540 C   0  0  0  0  0  2  0  0  0  0  0  0
  182.4070  178.0620  139.9840 S   0  0  0  0  0  0  0  0  0  0  0  0
  184.8310  178.7710  140.8050 N   0  0  0  0  0  0  0  0  0  0  0  0
  190.6940  176.7010  142.1560 O   0  0  0  0  0  0  0  0  0  0  0  0
  191.2840  177.6100  143.0770 C   0  0  0  0  0  2  0  0  0  0  0  0
  189.4680  177.6040  144.7850 C   0  0  0  0  0  3  0  0  0  0  0  0
  188.9890  177.3370  146.0730 C   0  0  0  0  0  0  0  0  0  0  0  0
  189.8480  176.7980  147.0370 C   0  0  0  0  0  3  0  0  0  0  0  0
  190.7990  177.3320  144.4600 C   0  0  0  0  0  0  0  0  0  0  0  0
  191.6550  176.7840  145.4240 C   0  0  0  0  0  3  0  0  0  0  0  0
  191.1810  176.5220  146.7130 C   0  0  0  0  0  3  0  0  0  0  0  0
  187.5620  177.6050  146.4150 C   0  0  0  0  0  2  0  0  0  0  0  0
  186.8850  178.2490  145.2970 N   0  0  0  0  0  2  0  0  0  0  0  0
  185.6530  179.3390  146.9520 O   0  0  0  0  0  1  0  0  0  0  0  0
  185.5560  178.6370  145.7510 C   0  0  0  0  0  3  0  0  0  0  0  0
  184.9530  179.4460  144.7870 O   0  0  0  0  0  1  0  0  0  0  0  0
  1 32  1  0  0  0  0
  2  1  1  0  0  0  0
  3  5  2  0  0  0  0
  3  4  1  0  0  0  0
  4  2  2  0  0  0  0
  5  6  1  0  0  0  0
  6  1  2  0  0  0  0
  7 11  1  0  0  0  0
  7 10  1  0  0  0  0
  7  5  1  1  0  0  0
  8  9  2  0  0  0  0
  9 14  1  0  0  0  0
 10  8  1  0  0  0  0
 11  8  1  0  0  0  0
 13 16  1  0  0  0  0
 13 14  1  0  0  0  0
 14 12  2  0  0  0  0
 15 16  2  0  0  0  0
 17  3  1  0  0  0  0
 18 17  1  0  0  0  0
 19 18  2  0  0  0  0
 20 18  1  0  0  0  0
 21 20  1  0  0  0  0
 22 21  1  6  0  0  0
 22 25  1  0  0  0  0
 23 24  1  0  0  0  0
 24 22  1  0  0  0  0
 25 27  1  0  0  0  0
 27 28  2  0  0  0  0
 27 30  1  0  0  0  0
 28 31  1  0  0  0  0
 30 29  1  0  0  0  0
 31 29  1  0  0  0  0
 31 26  1  0  0  0  0
 32 33  1  0  0  0  0
 33 37  1  0  0  0  0
 34 35  1  0  0  0  0
 35 40  1  0  0  0  0
 35 36  2  0  0  0  0
 37 34  2  0  0  0  0
 37 38  1  0  0  0  0
 38 39  2  0  0  0  0
 39 36  1  0  0  0  0
 41 43  1  0  0  0  0
 41 40  1  0  0  0  0
 43 42  1  0  0  0  0
 44 43  1  0  0  0  0
M  END
>  <MODEL>
2

>  <REMARK>
 VINA RESULT:      -7.9      1.536      2.085
  Name = 
  17 active torsions:
  status: ('A' for Active; 'I' for Inactive)
    1  A    between atoms: O_2  and  C_19
    2  A    between atoms: O_3  and  C_9
    3  A    between atoms: O_3  and  C_42
    4  A    between atoms: C_5  and  N_27
    5  A    between atoms: C_6  and  C_8
    6  A    between atoms: C_6  and  C_32
    7  A    between atoms: C_7  and  C_28
    8  A    between atoms: C_8  and  C_13
    9  A    between atoms: C_13  and  C_19
   10  A    between atoms: C_16  and  N_33
   11  A    between atoms: C_17  and  C_20
   12  A    between atoms: C_17  and  N_35
   13  A    between atoms: C_19  and  N_27
   14  A    between atoms: C_24  and  C_32
   15  A    between atoms: N_29  and  C_37
   16  A    between atoms: C_31  and  N_35
   17  A    between atoms: C_36  and  C_42
                            x       y       z     vdW  Elec       q    Type
                         _______ _______ _______ _____ _____    ______ ____

>  <TORSDO>
F 17

$$$$
=
 OpenBabel10232407573D

 44 47  0  0  1  0  0  0  0  0999 V2000
  190.6260  177.4840  141.2500 C   0  0  0  0  0  0  0  0  0  0  0  0
  192.0170  177.3920  141.1760 C   0  0  0  0  0  3  0  0  0  0  0  0
  191.8770  176.8840  138.8080 C   0  0  0  0  0  0  0  0  0  0  0  0
  192.6390  177.0890  139.9650 C   0  0  0  0  0  3  0  0  0  0  0  0
  190.4710  177.0060  138.8590 C   0  0  0  0  0  0  0  0  0  0  0  0
  189.8620  177.2870  140.0940 C   0  0  0  0  0  3  0  0  0  0  0  0
  189.6460  176.8160  137.6070 C   0  0  2  0  0  3  0  0  0  0  0  0
  187.5550  178.0840  137.4590 C   0  0  0  0  0  0  0  0  0  0  0  0
  186.5280  178.8650  137.5880 N   0  0  0  0  0  0  0  0  0  0  0  0
  189.2320  178.3350  136.7720 S   0  0  0  0  0  0  0  0  0  0  0  0
  187.9770  176.3890  138.0190 S   0  0  0  0  0  0  0  0  0  0  0  0
  184.6060  177.5330  137.7750 O   0  0  0  0  0  0  0  0  0  0  0  0
  184.8690  179.2120  139.3750 N   0  0  0  0  0  2  0  0  0  0  0  0
  185.3010  178.4890  138.2210 C   0  0  0  0  0  0  0  0  0  0  0  0
  183.6930  178.3970  141.6030 S   0  0  0  0  0  0  0  0  0  0  0  0
  183.6540  178.9010  140.0520 C   0  0  0  0  0  3  0  0  0  0  0  0
  192.5930  176.5410  137.5400 C   0  0  0  0  0  2  0  0  0  0  0  0
  193.1150  175.1410  137.5660 C   0  0  0  0  0  0  0  0  0  0  0  0
  192.3600  174.2110  137.8140 O   0  0  0  0  0  0  0  0  0  0  0  0
  194.5620  174.8840  137.2940 C   0  0  0  0  0  2  0  0  0  0  0  0
  195.2090  174.2760  138.5280 C   0  0  0  0  0  2  0  0  0  0  0  0
  196.6540  173.8950  138.2470 C   0  0  2  0  0  3  0  0  0  0  0  0
  198.3830  174.9620  139.1330 C   0  0  0  0  0  1  0  0  0  0  0  0
  197.4250  175.0530  138.1190 O   0  0  0  0  0  0  0  0  0  0  0  0
  196.7190  173.1340  137.0110 N   0  0  0  0  0  2  0  0  0  0  0  0
  197.6540  168.3870  137.8100 C   0  0  0  0  0  1  0  0  0  0  0  0
  196.4640  171.7280  136.9570 C   0  0  0  0  0  0  0  0  0  0  0  0
  197.2930  170.8540  137.4850 C   0  0  0  0  0  3  0  0  0  0  0  0
  195.6300  169.3450  136.5950 C   0  0  0  0  0  2  0  0  0  0  0  0
  195.0160  171.0170  136.1710 S   0  0  0  0  0  0  0  0  0  0  0  0
  196.8750  169.5110  137.3230 N   0  0  0  0  0  0  0  0  0  0  0  0
  190.0300  177.7900  142.4730 O   0  0  0  0  0  0  0  0  0  0  0  0
  190.7070  178.5190  143.4910 C   0  0  0  0  0  2  0  0  0  0  0  0
  189.1520  178.0460  145.3820 C   0  0  0  0  0  3  0  0  0  0  0  0
  188.8650  177.4790  146.6290 C   0  0  0  0  0  0  0  0  0  0  0  0
  189.8630  176.7860  147.3230 C   0  0  0  0  0  3  0  0  0  0  0  0
  190.4280  177.9200  144.8280 C   0  0  0  0  0  0  0  0  0  0  0  0
  191.4230  177.2170  145.5210 C   0  0  0  0  0  3  0  0  0  0  0  0
  191.1410  176.6550  146.7690 C   0  0  0  0  0  3  0  0  0  0  0  0
  187.4970  177.5920  147.2100 C   0  0  0  0  0  2  0  0  0  0  0  0
  186.5160  177.8290  146.1580 N   0  0  0  0  0  2  0  0  0  0  0  0
  185.8350  179.6500  147.4470 O   0  0  0  0  0  1  0  0  0  0  0  0
  185.3860  178.5250  146.7560 C   0  0  0  0  0  3  0  0  0  0  0  0
  184.4970  178.9170  145.7550 O   0  0  0  0  0  1  0  0  0  0  0  0
  1 32  1  0  0  0  0
  2  1  1  0  0  0  0
  3  5  2  0  0  0  0
  3  4  1  0  0  0  0
  4  2  2  0  0  0  0
  5  6  1  0  0  0  0
  6  1  2  0  0  0  0
  7 11  1  0  0  0  0
  7  5  1  1  0  0  0
  8  9  2  0  0  0  0
  8 11  1  0  0  0  0
  9 14  1  0  0  0  0
 10  8  1  0  0  0  0
 10  7  1  0  0  0  0
 12 14  2  0  0  0  0
 13 16  1  0  0  0  0
 14 13  1  0  0  0  0
 16 15  2  0  0  0  0
 17 18  1  0  0  0  0
 17  3  1  0  0  0  0
 18 19  2  0  0  0  0
 20 18  1  0  0  0  0
 20 21  1  0  0  0  0
 22 21  1  6  0  0  0
 24 22  1  0  0  0  0
 24 23  1  0  0  0  0
 25 22  1  0  0  0  0
 27 25  1  0  0  0  0
 27 28  2  0  0  0  0
 29 31  1  0  0  0  0
 30 29  1  0  0  0  0
 30 27  1  0  0  0  0
 31 28  1  0  0  0  0
 31 26  1  0  0  0  0
 32 33  1  0  0  0  0
 33 37  1  0  0  0  0
 34 35  1  0  0  0  0
 35 40  1  0  0  0  0
 35 36  2  0  0  0  0
 37 34  2  0  0  0  0
 37 38  1  0  0  0  0
 38 39  2  0  0  0  0
 39 36  1  0  0  0  0
 41 43  1  0  0  0  0
 41 40  1  0  0  0  0
 43 42  1  0  0  0  0
 44 43  1  0  0  0  0
M  END
>  <MODEL>
3

>  <REMARK>
 VINA RESULT:      -7.7      2.338      9.275
  Name = 
  17 active torsions:
  status: ('A' for Active; 'I' for Inactive)
    1  A    between atoms: O_2  and  C_19
    2  A    between atoms: O_3  and  C_9
    3  A    between atoms: O_3  and  C_42
    4  A    between atoms: C_5  and  N_27
    5  A    between atoms: C_6  and  C_8
    6  A    between atoms: C_6  and  C_32
    7  A    between atoms: C_7  and  C_28
    8  A    between atoms: C_8  and  C_13
    9  A    between atoms: C_13  and  C_19
   10  A    between atoms: C_16  and  N_33
   11  A    between atoms: C_17  and  C_20
   12  A    between atoms: C_17  and  N_35
   13  A    between atoms: C_19  and  N_27
   14  A    between atoms: C_24  and  C_32
   15  A    between atoms: N_29  and  C_37
   16  A    between atoms: C_31  and  N_35
   17  A    between atoms: C_36  and  C_42
                            x       y       z     vdW  Elec       q    Type
                         _______ _______ _______ _____ _____    ______ ____

>  <TORSDO>
F 17

$$$$
=
 OpenBabel10232407573D

 44 47  0  0  1  0  0  0  0  0999 V2000
  190.3590  177.2820  140.2780 C   0  0  0  0  0  0  0  0  0  0  0  0
  189.3140  178.1470  139.9470 C   0  0  0  0  0  3  0  0  0  0  0  0
  189.6640  177.6990  137.5880 C   0  0  0  0  0  0  0  0  0  0  0  0
  188.9720  178.3590  138.6110 C   0  0  0  0  0  3  0  0  0  0  0  0
  190.7010  176.7960  137.9080 C   0  0  0  0  0  0  0  0  0  0  0  0
  191.0490  176.6160  139.2580 C   0  0  0  0  0  3  0  0  0  0  0  0
  191.4320  176.0580  136.8090 C   0  0  2  0  0  3  0  0  0  0  0  0
  193.2450  174.5630  137.4990 C   0  0  0  0  0  0  0  0  0  0  0  0
  194.1270  173.8200  138.0940 N   0  0  0  0  0  0  0  0  0  0  0  0
  191.4960  174.2920  137.0380 S   0  0  0  0  0  0  0  0  0  0  0  0
  193.1800  176.3110  136.9440 S   0  0  0  0  0  0  0  0  0  0  0  0
  195.6560  175.0720  139.3600 O   0  0  0  0  0  0  0  0  0  0  0  0
  196.5530  173.7240  137.6790 N   0  0  0  0  0  2  0  0  0  0  0  0
  195.4530  174.2470  138.4250 C   0  0  0  0  0  0  0  0  0  0  0  0
  198.9910  174.1380  136.7340 S   0  0  0  0  0  0  0  0  0  0  0  0
  197.8990  174.1100  137.9450 C   0  0  0  0  0  3  0  0  0  0  0  0
  189.2700  177.9780  136.1720 C   0  0  0  0  0  2  0  0  0  0  0  0
  187.8860  177.4940  135.8830 C   0  0  0  0  0  0  0  0  0  0  0  0
  187.0910  178.2230  135.3080 O   0  0  0  0  0  0  0  0  0  0  0  0
  187.4780  176.1190  136.3040 C   0  0  0  0  0  2  0  0  0  0  0  0
  186.1850  175.7370  135.6000 C   0  0  0  0  0  2  0  0  0  0  0  0
  185.0440  175.6170  136.5980 C   0  0  2  0  0  3  0  0  0  0  0  0
  184.0400  173.9260  137.6210 C   0  0  0  0  0  1  0  0  0  0  0  0
  184.3330  174.4390  136.3540 O   0  0  0  0  0  0  0  0  0  0  0  0
  184.1530  176.7560  136.4500 N   0  0  0  0  0  2  0  0  0  0  0  0
  181.4690  179.6960  139.3130 C   0  0  0  0  0  1  0  0  0  0  0  0
  183.9250  177.6970  137.5020 C   0  0  0  0  0  0  0  0  0  0  0  0
  182.7180  178.1360  137.7860 C   0  0  0  0  0  3  0  0  0  0  0  0
  183.9960  179.3830  139.4150 C   0  0  0  0  0  2  0  0  0  0  0  0
  185.2360  178.3750  138.5220 S   0  0  0  0  0  0  0  0  0  0  0  0
  182.6950  179.0700  138.8510 N   0  0  0  0  0  0  0  0  0  0  0  0
  190.6800  177.0880  141.6210 O   0  0  0  0  0  0  0  0  0  0  0  0
  190.0880  176.0580  142.4060 C   0  0  0  0  0  2  0  0  0  0  0  0
  188.2940  176.7780  143.9800 C   0  0  0  0  0  3  0  0  0  0  0  0
  187.8670  177.2720  145.2180 C   0  0  0  0  0  0  0  0  0  0  0  0
  188.8090  177.5910  146.2020 C   0  0  0  0  0  3  0  0  0  0  0  0
  189.6560  176.6000  143.7260 C   0  0  0  0  0  0  0  0  0  0  0  0
  190.5970  176.9110  144.7160 C   0  0  0  0  0  3  0  0  0  0  0  0
  190.1730  177.4110  145.9510 C   0  0  0  0  0  3  0  0  0  0  0  0
  186.4120  177.4400  145.4990 C   0  0  0  0  0  2  0  0  0  0  0  0
  185.8400  178.4580  144.6270 N   0  0  0  0  0  2  0  0  0  0  0  0
  183.7440  178.9530  145.5240 O   0  0  0  0  0  1  0  0  0  0  0  0
  185.0730  179.3730  145.4610 C   0  0  0  0  0  3  0  0  0  0  0  0
  185.6150  179.3970  146.7460 O   0  0  0  0  0  1  0  0  0  0  0  0
  1 32  1  0  0  0  0
  2  1  1  0  0  0  0
  3  5  2  0  0  0  0
  3  4  1  0  0  0  0
  4  2  2  0  0  0  0
  5  6  1  0  0  0  0
  6  1  2  0  0  0  0
  7 11  1  0  0  0  0
  7 10  1  0  0  0  0
  7  5  1  1  0  0  0
  8  9  2  0  0  0  0
  9 14  1  0  0  0  0
 10  8  1  0  0  0  0
 11  8  1  0  0  0  0
 13 16  1  0  0  0  0
 13 14  1  0  0  0  0
 14 12  2  0  0  0  0
 15 16  2  0  0  0  0
 17  3  1  0  0  0  0
 18 17  1  0  0  0  0
 18 20  1  0  0  0  0
 19 18  2  0  0  0  0
 21 20  1  0  0  0  0
 22 21  1  6  0  0  0
 24 22  1  0  0  0  0
 24 23  1  0  0  0  0
 25 22  1  0  0  0  0
 25 27  1  0  0  0  0
 27 28  2  0  0  0  0
 27 30  1  0  0  0  0
 28 31  1  0  0  0  0
 30 29  1  0  0  0  0
 31 26  1  0  0  0  0
 31 29  1  0  0  0  0
 32 33  1  0  0  0  0
 33 37  1  0  0  0  0
 34 35  1  0  0  0  0
 35 40  1  0  0  0  0
 35 36  2  0  0  0  0
 37 34  2  0  0  0  0
 37 38  1  0  0  0  0
 38 39  2  0  0  0  0
 39 36  1  0  0  0  0
 41 43  1  0  0  0  0
 41 40  1  0  0  0  0
 43 42  1  0  0  0  0
 43 44  1  0  0  0  0
M  END
>  <MODEL>
4

>  <REMARK>
 VINA RESULT:      -7.6      1.753      2.560
  Name = 
  17 active torsions:
  status: ('A' for Active; 'I' for Inactive)
    1  A    between atoms: O_2  and  C_19
    2  A    between atoms: O_3  and  C_9
    3  A    between atoms: O_3  and  C_42
    4  A    between atoms: C_5  and  N_27
    5  A    between atoms: C_6  and  C_8
    6  A    between atoms: C_6  and  C_32
    7  A    between atoms: C_7  and  C_28
    8  A    between atoms: C_8  and  C_13
    9  A    between atoms: C_13  and  C_19
   10  A    between atoms: C_16  and  N_33
   11  A    between atoms: C_17  and  C_20
   12  A    between atoms: C_17  and  N_35
   13  A    between atoms: C_19  and  N_27
   14  A    between atoms: C_24  and  C_32
   15  A    between atoms: N_29  and  C_37
   16  A    between atoms: C_31  and  N_35
   17  A    between atoms: C_36  and  C_42
                            x       y       z     vdW  Elec       q    Type
                         _______ _______ _______ _____ _____    ______ ____

>  <TORSDO>
F 17

$$$$
=
 OpenBabel10232407573D

 44 47  0  0  1  0  0  0  0  0999 V2000
  185.6660  178.8960  141.4110 C   0  0  0  0  0  0  0  0  0  0  0  0
  187.0220  178.6640  141.1730 C   0  0  0  0  0  3  0  0  0  0  0  0
  186.5430  178.1160  138.8590 C   0  0  0  0  0  0  0  0  0  0  0  0
  187.4580  178.2710  139.9080 C   0  0  0  0  0  3  0  0  0  0  0  0
  185.1730  178.3780  139.0740 C   0  0  0  0  0  0  0  0  0  0  0  0
  184.7500  178.7480  140.3630 C   0  0  0  0  0  3  0  0  0  0  0  0
  184.1860  178.2410  137.9370 C   0  0  2  0  0  3  0  0  0  0  0  0
  181.9710  177.3590  138.5000 C   0  0  0  0  0  0  0  0  0  0  0  0
  180.8760  176.9100  139.0310 N   0  0  0  0  0  0  0  0  0  0  0  0
  182.6240  179.0460  138.2320 S   0  0  0  0  0  0  0  0  0  0  0  0
  183.5230  176.5990  137.8830 S   0  0  0  0  0  0  0  0  0  0  0  0
  180.4580  175.0220  140.3610 O   0  0  0  0  0  0  0  0  0  0  0  0
  180.3990  174.7020  138.0500 N   0  0  0  0  0  2  0  0  0  0  0  0
  180.5730  175.5220  139.2060 C   0  0  0  0  0  0  0  0  0  0  0  0
  180.4320  172.3210  136.8910 S   0  0  0  0  0  0  0  0  0  0  0  0
  180.1060  173.3100  138.1460 C   0  0  0  0  0  3  0  0  0  0  0  0
  187.0620  177.6730  137.5270 C   0  0  0  0  0  2  0  0  0  0  0  0
  188.3380  178.3670  137.1770 C   0  0  0  0  0  0  0  0  0  0  0  0
  188.3750  179.5870  137.1180 O   0  0  0  0  0  0  0  0  0  0  0  0
  189.5660  177.5620  136.8970 C   0  0  0  0  0  2  0  0  0  0  0  0
  189.4230  176.1850  137.5270 C   0  0  0  0  0  2  0  0  0  0  0  0
  190.7020  175.7840  138.2440 C   0  0  2  0  0  3  0  0  0  0  0  0
  191.1020  177.2960  139.8150 C   0  0  0  0  0  1  0  0  0  0  0  0
  190.5640  176.0220  139.6140 O   0  0  0  0  0  0  0  0  0  0  0  0
  191.8100  176.5710  137.7290 N   0  0  0  0  0  2  0  0  0  0  0  0
  196.0000  174.0680  138.2000 C   0  0  0  0  0  1  0  0  0  0  0  0
  193.0330  175.9800  137.2810 C   0  0  0  0  0  0  0  0  0  0  0  0
  193.8180  175.3140  138.0990 C   0  0  0  0  0  3  0  0  0  0  0  0
  195.1110  175.1380  136.0650 C   0  0  0  0  0  2  0  0  0  0  0  0
  193.6200  176.0880  135.5890 S   0  0  0  0  0  0  0  0  0  0  0  0
  194.9870  174.8130  137.4750 N   0  0  0  0  0  0  0  0  0  0  0  0
  185.2570  179.2880  142.6850 O   0  0  0  0  0  0  0  0  0  0  0  0
  184.6840  178.3770  143.6170 C   0  0  0  0  0  2  0  0  0  0  0  0
  186.8440  177.7760  144.7080 C   0  0  0  0  0  3  0  0  0  0  0  0
  187.6710  177.6820  145.8330 C   0  0  0  0  0  0  0  0  0  0  0  0
  187.1930  178.0860  147.0840 C   0  0  0  0  0  3  0  0  0  0  0  0
  185.5440  178.2730  144.8310 C   0  0  0  0  0  0  0  0  0  0  0  0
  185.0700  178.6850  146.0830 C   0  0  0  0  0  3  0  0  0  0  0  0
  185.8930  178.5870  147.2090 C   0  0  0  0  0  3  0  0  0  0  0  0
  189.0670  177.1740  145.6980 C   0  0  0  0  0  2  0  0  0  0  0  0
  189.7310  177.8080  144.5660 N   0  0  0  0  0  2  0  0  0  0  0  0
  191.8060  177.8830  143.5010 O   0  0  0  0  0  1  0  0  0  0  0  0
  191.0140  177.1430  144.3790 C   0  0  0  0  0  3  0  0  0  0  0  0
  191.6640  177.0300  145.6090 O   0  0  0  0  0  1  0  0  0  0  0  0
  1 32  1  0  0  0  0
  2  1  1  0  0  0  0
  3  5  2  0  0  0  0
  3  4  1  0  0  0  0
  4  2  2  0  0  0  0
  5  6  1  0  0  0  0
  6  1  2  0  0  0  0
  7 10  1  0  0  0  0
  7  5  1  1  0  0  0
  8  9  2  0  0  0  0
  9 14  1  0  0  0  0
 10  8  1  0  0  0  0
 11  7  1  0  0  0  0
 11  8  1  0  0  0  0
 13 16  1  0  0  0  0
 13 14  1  0  0  0  0
 14 12  2  0  0  0  0
 15 16  2  0  0  0  0
 17  3  1  0  0  0  0
 18 17  1  0  0  0  0
 19 18  2  0  0  0  0
 20 18  1  0  0  0  0
 20 21  1  0  0  0  0
 22 21  1  6  0  0  0
 22 24  1  0  0  0  0
 24 23  1  0  0  0  0
 25 22  1  0  0  0  0
 27 25  1  0  0  0  0
 27 28  2  0  0  0  0
 29 31  1  0  0  0  0
 30 29  1  0  0  0  0
 30 27  1  0  0  0  0
 31 28  1  0  0  0  0
 31 26  1  0  0  0  0
 32 33  1  0  0  0  0
 33 37  1  0  0  0  0
 34 37  2  0  0  0  0
 34 35  1  0  0  0  0
 35 36  2  0  0  0  0
 36 39  1  0  0  0  0
 37 38  1  0  0  0  0
 38 39  2  0  0  0  0
 40 35  1  0  0  0  0
 41 40  1  0  0  0  0
 42 43  1  0  0  0  0
 43 41  1  0  0  0  0
 43 44  1  0  0  0  0
M  END
>  <MODEL>
5

>  <REMARK>
 VINA RESULT:      -7.5      3.147      9.009
  Name = 
  17 active torsions:
  status: ('A' for Active; 'I' for Inactive)
    1  A    between atoms: O_2  and  C_19
    2  A    between atoms: O_3  and  C_9
    3  A    between atoms: O_3  and  C_42
    4  A    between atoms: C_5  and  N_27
    5  A    between atoms: C_6  and  C_8
    6  A    between atoms: C_6  and  C_32
    7  A    between atoms: C_7  and  C_28
    8  A    between atoms: C_8  and  C_13
    9  A    between atoms: C_13  and  C_19
   10  A    between atoms: C_16  and  N_33
   11  A    between atoms: C_17  and  C_20
   12  A    between atoms: C_17  and  N_35
   13  A    between atoms: C_19  and  N_27
   14  A    between atoms: C_24  and  C_32
   15  A    between atoms: N_29  and  C_37
   16  A    between atoms: C_31  and  N_35
   17  A    between atoms: C_36  and  C_42
                            x       y       z     vdW  Elec       q    Type
                         _______ _______ _______ _____ _____    ______ ____

>  <TORSDO>
F 17

$$$$
=
 OpenBabel10232407573D

 44 47  0  0  1  0  0  0  0  0999 V2000
  189.3650  177.5010  140.8810 C   0  0  0  0  0  0  0  0  0  0  0  0
  190.6760  177.0230  140.8440 C   0  0  0  0  0  3  0  0  0  0  0  0
  190.5060  176.6800  138.4490 C   0  0  0  0  0  0  0  0  0  0  0  0
  191.2420  176.6100  139.6380 C   0  0  0  0  0  3  0  0  0  0  0  0
  189.1910  177.1920  138.4630 C   0  0  0  0  0  0  0  0  0  0  0  0
  188.6290  177.5790  139.6920 C   0  0  0  0  0  3  0  0  0  0  0  0
  188.4030  177.2980  137.1770 C   0  0  2  0  0  3  0  0  0  0  0  0
  185.9610  177.2500  137.3710 C   0  0  0  0  0  0  0  0  0  0  0  0
  184.7110  177.2350  137.7180 N   0  0  0  0  0  0  0  0  0  0  0  0
  187.1830  178.5970  137.1780 S   0  0  0  0  0  0  0  0  0  0  0  0
  187.2360  175.9700  137.0500 S   0  0  0  0  0  0  0  0  0  0  0  0
  183.0420  175.9640  138.7670 O   0  0  0  0  0  0  0  0  0  0  0  0
  184.1680  174.9440  136.9960 N   0  0  0  0  0  2  0  0  0  0  0  0
  183.9300  176.0460  137.8730 C   0  0  0  0  0  0  0  0  0  0  0  0
  184.1920  172.2990  136.8610 S   0  0  0  0  0  0  0  0  0  0  0  0
  183.4360  173.7250  137.0970 C   0  0  0  0  0  3  0  0  0  0  0  0
  191.1540  176.2050  137.1860 C   0  0  0  0  0  2  0  0  0  0  0  0
  191.3330  174.7210  137.1870 C   0  0  0  0  0  0  0  0  0  0  0  0
  190.4490  173.9980  137.6230 O   0  0  0  0  0  0  0  0  0  0  0  0
  192.5980  174.1280  136.6580 C   0  0  0  0  0  2  0  0  0  0  0  0
  193.7590  175.0660  136.9510 C   0  0  0  0  0  2  0  0  0  0  0  0
  195.0720  174.4640  136.4770 C   0  0  2  0  0  3  0  0  0  0  0  0
  195.7270  172.5610  135.5480 C   0  0  0  0  0  1  0  0  0  0  0  0
  194.8340  173.6240  135.3860 O   0  0  0  0  0  0  0  0  0  0  0  0
  195.6660  173.6930  137.5570 N   0  0  0  0  0  2  0  0  0  0  0  0
  197.6470  175.6710  141.5820 C   0  0  0  0  0  1  0  0  0  0  0  0
  196.7240  174.2000  138.3750 C   0  0  0  0  0  0  0  0  0  0  0  0
  196.5020  174.6460  139.5920 C   0  0  0  0  0  3  0  0  0  0  0  0
  198.8810  175.0390  139.4450 C   0  0  0  0  0  2  0  0  0  0  0  0
  198.4320  174.2900  137.8360 S   0  0  0  0  0  0  0  0  0  0  0  0
  197.6700  175.1160  140.2410 N   0  0  0  0  0  0  0  0  0  0  0  0
  188.8240  177.9090  142.0990 O   0  0  0  0  0  0  0  0  0  0  0  0
  187.4630  177.6750  142.4460 C   0  0  0  0  0  2  0  0  0  0  0  0
  188.3990  177.7460  144.7560 C   0  0  0  0  0  3  0  0  0  0  0  0
  188.2490  177.8680  146.1420 C   0  0  0  0  0  0  0  0  0  0  0  0
  186.9740  178.0350  146.6920 C   0  0  0  0  0  3  0  0  0  0  0  0
  187.2790  177.7930  143.9210 C   0  0  0  0  0  0  0  0  0  0  0  0
  186.0040  177.9690  144.4730 C   0  0  0  0  0  3  0  0  0  0  0  0
  185.8520  178.0860  145.8580 C   0  0  0  0  0  3  0  0  0  0  0  0
  189.4460  177.8420  147.0320 C   0  0  0  0  0  2  0  0  0  0  0  0
  190.0140  176.5010  147.0800 N   0  0  0  0  0  2  0  0  0  0  0  0
  192.0430  175.3860  147.3760 O   0  0  0  0  0  1  0  0  0  0  0  0
  191.4610  176.6380  147.1770 C   0  0  0  0  0  3  0  0  0  0  0  0
  191.9550  177.2000  145.9990 O   0  0  0  0  0  1  0  0  0  0  0  0
  1 32  1  0  0  0  0
  2  1  1  0  0  0  0
  3  5  2  0  0  0  0
  3  4  1  0  0  0  0
  4  2  2  0  0  0  0
  5  6  1  0  0  0  0
  6  1  2  0  0  0  0
  7 10  1  0  0  0  0
  7  5  1  1  0  0  0
  8  9  2  0  0  0  0
  9 14  1  0  0  0  0
 10  8  1  0  0  0  0
 11  7  1  0  0  0  0
 11  8  1  0  0  0  0
 13 16  1  0  0  0  0
 13 14  1  0  0  0  0
 14 12  2  0  0  0  0
 15 16  2  0  0  0  0
 17 18  1  0  0  0  0
 17  3  1  0  0  0  0
 18 19  2  0  0  0  0
 20 21  1  0  0  0  0
 20 18  1  0  0  0  0
 22 21  1  1  0  0  0
 22 25  1  0  0  0  0
 24 23  1  0  0  0  0
 24 22  1  0  0  0  0
 25 27  1  0  0  0  0
 27 28  2  0  0  0  0
 28 31  1  0  0  0  0
 29 31  1  0  0  0  0
 30 27  1  0  0  0  0
 30 29  1  0  0  0  0
 31 26  1  0  0  0  0
 32 33  1  0  0  0  0
 33 37  1  0  0  0  0
 34 35  1  0  0  0  0
 35 36  2  0  0  0  0
 35 40  1  0  0  0  0
 37 38  1  0  0  0  0
 37 34  2  0  0  0  0
 38 39  2  0  0  0  0
 39 36  1  0  0  0  0
 40 41  1  0  0  0  0
 41 43  1  0  0  0  0
 43 42  1  0  0  0  0
 44 43  1  0  0  0  0
M  END
>  <MODEL>
6

>  <REMARK>
 VINA RESULT:      -7.3      2.900      8.874
  Name = 
  17 active torsions:
  status: ('A' for Active; 'I' for Inactive)
    1  A    between atoms: O_2  and  C_19
    2  A    between atoms: O_3  and  C_9
    3  A    between atoms: O_3  and  C_42
    4  A    between atoms: C_5  and  N_27
    5  A    between atoms: C_6  and  C_8
    6  A    between atoms: C_6  and  C_32
    7  A    between atoms: C_7  and  C_28
    8  A    between atoms: C_8  and  C_13
    9  A    between atoms: C_13  and  C_19
   10  A    between atoms: C_16  and  N_33
   11  A    between atoms: C_17  and  C_20
   12  A    between atoms: C_17  and  N_35
   13  A    between atoms: C_19  and  N_27
   14  A    between atoms: C_24  and  C_32
   15  A    between atoms: N_29  and  C_37
   16  A    between atoms: C_31  and  N_35
   17  A    between atoms: C_36  and  C_42
                            x       y       z     vdW  Elec       q    Type
                         _______ _______ _______ _____ _____    ______ ____

>  <TORSDO>
F 17

$$$$
=
 OpenBabel10232407573D

 44 47  0  0  1  0  0  0  0  0999 V2000
  189.1810  177.8990  141.2730 C   0  0  0  0  0  0  0  0  0  0  0  0
  187.9620  178.4260  141.7010 C   0  0  0  0  0  3  0  0  0  0  0  0
  187.0510  178.1910  139.4650 C   0  0  0  0  0  0  0  0  0  0  0  0
  186.9050  178.5770  140.8040 C   0  0  0  0  0  3  0  0  0  0  0  0
  188.2660  177.6250  139.0230 C   0  0  0  0  0  0  0  0  0  0  0  0
  189.3280  177.5060  139.9370 C   0  0  0  0  0  3  0  0  0  0  0  0
  188.4190  177.1800  137.5870 C   0  0  2  0  0  3  0  0  0  0  0  0
  189.8810  175.2570  137.1770 C   0  0  0  0  0  0  0  0  0  0  0  0
  190.6630  174.2220  137.2070 N   0  0  0  0  0  0  0  0  0  0  0  0
  188.0680  175.4530  137.3210 S   0  0  0  0  0  0  0  0  0  0  0  0
  190.1320  177.0750  137.1460 S   0  0  0  0  0  0  0  0  0  0  0  0
  192.7700  174.7260  138.1060 O   0  0  0  0  0  0  0  0  0  0  0  0
  192.7440  173.8410  135.9470 N   0  0  0  0  0  2  0  0  0  0  0  0
  192.0910  174.2860  137.1360 C   0  0  0  0  0  0  0  0  0  0  0  0
  194.9230  175.3200  135.6710 S   0  0  0  0  0  0  0  0  0  0  0  0
  194.1620  173.8840  135.8010 C   0  0  0  0  0  3  0  0  0  0  0  0
  185.8930  178.3930  138.5400 C   0  0  0  0  0  2  0  0  0  0  0  0
  184.7090  178.9550  139.2580 C   0  0  0  0  0  0  0  0  0  0  0  0
  184.4910  180.1580  139.2330 O   0  0  0  0  0  0  0  0  0  0  0  0
  183.7960  178.0400  140.0100 C   0  0  0  0  0  2  0  0  0  0  0  0
  182.3750  178.2080  139.4940 C   0  0  0  0  0  2  0  0  0  0  0  0
  182.0100  177.0780  138.5440 C   0  0  2  0  0  3  0  0  0  0  0  0
  180.8630  175.8270  139.9700 C   0  0  0  0  0  1  0  0  0  0  0  0
  180.7200  176.6250  138.8310 O   0  0  0  0  0  0  0  0  0  0  0  0
  182.9520  175.9840  138.7130 N   0  0  0  0  0  2  0  0  0  0  0  0
  185.4290  172.4420  136.3970 C   0  0  0  0  0  1  0  0  0  0  0  0
  183.6280  175.3720  137.6110 C   0  0  0  0  0  0  0  0  0  0  0  0
  184.1400  174.1640  137.6990 C   0  0  0  0  0  3  0  0  0  0  0  0
  184.7660  174.7030  135.4280 C   0  0  0  0  0  2  0  0  0  0  0  0
  183.8530  176.1750  136.0220 S   0  0  0  0  0  0  0  0  0  0  0  0
  184.7780  173.7350  136.5100 N   0  0  0  0  0  0  0  0  0  0  0  0
  190.2210  177.7580  142.1910 O   0  0  0  0  0  0  0  0  0  0  0  0
  190.4480  176.5490  142.9070 C   0  0  0  0  0  2  0  0  0  0  0  0
  189.0020  177.1850  144.8370 C   0  0  0  0  0  3  0  0  0  0  0  0
  188.7940  177.3860  146.2060 C   0  0  0  0  0  0  0  0  0  0  0  0
  189.8420  177.1730  147.1080 C   0  0  0  0  0  3  0  0  0  0  0  0
  190.2520  176.7710  144.3690 C   0  0  0  0  0  0  0  0  0  0  0  0
  191.2980  176.5500  145.2750 C   0  0  0  0  0  3  0  0  0  0  0  0
  191.0930  176.7560  146.6420 C   0  0  0  0  0  3  0  0  0  0  0  0
  187.4530  177.8040  146.7090 C   0  0  0  0  0  2  0  0  0  0  0  0
  186.5970  178.2030  145.5990 N   0  0  0  0  0  2  0  0  0  0  0  0
  185.2990  179.1580  147.2870 O   0  0  0  0  0  1  0  0  0  0  0  0
  185.2510  178.3880  146.1250 C   0  0  0  0  0  3  0  0  0  0  0  0
  184.4630  179.0340  145.1720 O   0  0  0  0  0  1  0  0  0  0  0  0
  1  2  1  0  0  0  0
  1 32  1  0  0  0  0
  3  4  1  0  0  0  0
  4  2  2  0  0  0  0
  5  3  2  0  0  0  0
  5  6  1  0  0  0  0
  6  1  2  0  0  0  0
  7  5  1  1  0  0  0
  8  9  2  0  0  0  0
  8 10  1  0  0  0  0
 10  7  1  0  0  0  0
 11  8  1  0  0  0  0
 11  7  1  0  0  0  0
 13 14  1  0  0  0  0
 14  9  1  0  0  0  0
 14 12  2  0  0  0  0
 15 16  2  0  0  0  0
 16 13  1  0  0  0  0
 17 18  1  0  0  0  0
 17  3  1  0  0  0  0
 18 20  1  0  0  0  0
 19 18  2  0  0  0  0
 21 20  1  0  0  0  0
 22 25  1  0  0  0  0
 22 24  1  0  0  0  0
 22 21  1  1  0  0  0
 24 23  1  0  0  0  0
 26 31  1  0  0  0  0
 27 28  2  0  0  0  0
 27 25  1  0  0  0  0
 29 30  1  0  0  0  0
 29 31  1  0  0  0  0
 30 27  1  0  0  0  0
 31 28  1  0  0  0  0
 32 33  1  0  0  0  0
 33 37  1  0  0  0  0
 34 35  1  0  0  0  0
 35 40  1  0  0  0  0
 35 36  2  0  0  0  0
 37 34  2  0  0  0  0
 37 38  1  0  0  0  0
 38 39  2  0  0  0  0
 39 36  1  0  0  0  0
 41 43  1  0  0  0  0
 41 40  1  0  0  0  0
 43 42  1  0  0  0  0
 44 43  1  0  0  0  0
M  END
>  <MODEL>
7

>  <REMARK>
 VINA RESULT:      -7.2      2.489      3.927
  Name = 
  17 active torsions:
  status: ('A' for Active; 'I' for Inactive)
    1  A    between atoms: O_2  and  C_19
    2  A    between atoms: O_3  and  C_9
    3  A    between atoms: O_3  and  C_42
    4  A    between atoms: C_5  and  N_27
    5  A    between atoms: C_6  and  C_8
    6  A    between atoms: C_6  and  C_32
    7  A    between atoms: C_7  and  C_28
    8  A    between atoms: C_8  and  C_13
    9  A    between atoms: C_13  and  C_19
   10  A    between atoms: C_16  and  N_33
   11  A    between atoms: C_17  and  C_20
   12  A    between atoms: C_17  and  N_35
   13  A    between atoms: C_19  and  N_27
   14  A    between atoms: C_24  and  C_32
   15  A    between atoms: N_29  and  C_37
   16  A    between atoms: C_31  and  N_35
   17  A    between atoms: C_36  and  C_42
                            x       y       z     vdW  Elec       q    Type
                         _______ _______ _______ _____ _____    ______ ____

>  <TORSDO>
F 17

$$$$
=
 OpenBabel10232407573D

 44 47  0  0  1  0  0  0  0  0999 V2000
  190.5040  177.4620  141.0340 C   0  0  0  0  0  0  0  0  0  0  0  0
  191.8790  177.2490  140.9270 C   0  0  0  0  0  3  0  0  0  0  0  0
  191.6570  176.8790  138.5390 C   0  0  0  0  0  0  0  0  0  0  0  0
  192.4520  176.9540  139.6900 C   0  0  0  0  0  3  0  0  0  0  0  0
  190.2690  177.1250  138.6240 C   0  0  0  0  0  0  0  0  0  0  0  0
  189.7070  177.3950  139.8840 C   0  0  0  0  0  3  0  0  0  0  0  0
  189.4110  177.0750  137.3810 C   0  0  2  0  0  3  0  0  0  0  0  0
  187.2090  178.1400  137.5160 C   0  0  0  0  0  0  0  0  0  0  0  0
  186.1210  178.7830  137.8080 N   0  0  0  0  0  0  0  0  0  0  0  0
  188.8240  178.6680  136.8400 S   0  0  0  0  0  0  0  0  0  0  0  0
  187.8080  176.4220  137.7570 S   0  0  0  0  0  0  0  0  0  0  0  0
  184.2770  177.3330  137.7650 O   0  0  0  0  0  0  0  0  0  0  0  0
  184.5890  178.5630  139.7240 N   0  0  0  0  0  2  0  0  0  0  0  0
  184.9630  178.1840  138.3980 C   0  0  0  0  0  0  0  0  0  0  0  0
  182.0550  178.8720  140.4280 S   0  0  0  0  0  0  0  0  0  0  0  0
  183.4420  178.0160  140.3710 C   0  0  0  0  0  3  0  0  0  0  0  0
  192.3190  176.5400  137.2420 C   0  0  0  0  0  2  0  0  0  0  0  0
  192.5420  175.0680  137.1090 C   0  0  0  0  0  0  0  0  0  0  0  0
  191.8180  174.2830  137.7050 O   0  0  0  0  0  0  0  0  0  0  0  0
  193.6540  174.5610  136.2490 C   0  0  0  0  0  2  0  0  0  0  0  0
  193.9600  173.1170  136.6150 C   0  0  0  0  0  2  0  0  0  0  0  0
  195.2790  172.6740  136.0030 C   0  0  2  0  0  3  0  0  0  0  0  0
  194.8040  170.9140  137.2650 C   0  0  0  0  0  1  0  0  0  0  0  0
  195.8680  171.7020  136.8160 O   0  0  0  0  0  0  0  0  0  0  0  0
  196.1700  173.8170  135.8990 N   0  0  0  0  0  2  0  0  0  0  0  0
  198.8800  175.0920  139.7810 C   0  0  0  0  0  1  0  0  0  0  0  0
  197.3690  173.9330  136.6710 C   0  0  0  0  0  0  0  0  0  0  0  0
  197.3690  174.4780  137.8680 C   0  0  0  0  0  3  0  0  0  0  0  0
  199.7200  173.9640  137.6570 C   0  0  0  0  0  2  0  0  0  0  0  0
  198.9710  173.3670  136.0970 S   0  0  0  0  0  0  0  0  0  0  0  0
  198.6510  174.5130  138.4700 N   0  0  0  0  0  0  0  0  0  0  0  0
  189.9570  177.7560  142.2820 O   0  0  0  0  0  0  0  0  0  0  0  0
  190.7040  178.3960  143.3110 C   0  0  0  0  0  2  0  0  0  0  0  0
  188.9550  178.0070  145.0460 C   0  0  0  0  0  3  0  0  0  0  0  0
  188.5420  177.5170  146.2900 C   0  0  0  0  0  0  0  0  0  0  0  0
  189.4680  176.8990  147.1370 C   0  0  0  0  0  3  0  0  0  0  0  0
  190.2880  177.8790  144.6470 C   0  0  0  0  0  0  0  0  0  0  0  0
  191.2120  177.2530  145.4930 C   0  0  0  0  0  3  0  0  0  0  0  0
  190.8030  176.7670  146.7390 C   0  0  0  0  0  3  0  0  0  0  0  0
  187.1140  177.6310  146.7060 C   0  0  0  0  0  2  0  0  0  0  0  0
  186.3080  178.1630  145.6140 N   0  0  0  0  0  2  0  0  0  0  0  0
  184.2470  178.4130  146.6790 O   0  0  0  0  0  1  0  0  0  0  0  0
  185.3550  179.1030  146.1870 C   0  0  0  0  0  3  0  0  0  0  0  0
  185.9640  179.8080  147.2260 O   0  0  0  0  0  1  0  0  0  0  0  0
  1 32  1  0  0  0  0
  2  1  1  0  0  0  0
  3  5  2  0  0  0  0
  3  4  1  0  0  0  0
  4  2  2  0  0  0  0
  5  6  1  0  0  0  0
  6  1  2  0  0  0  0
  7 11  1  0  0  0  0
  7  5  1  1  0  0  0
  8 11  1  0  0  0  0
  8  9  2  0  0  0  0
  9 14  1  0  0  0  0
 10  7  1  0  0  0  0
 10  8  1  0  0  0  0
 12 14  2  0  0  0  0
 13 16  1  0  0  0  0
 14 13  1  0  0  0  0
 16 15  2  0  0  0  0
 17  3  1  0  0  0  0
 18 17  1  0  0  0  0
 18 19  2  0  0  0  0
 20 21  1  0  0  0  0
 20 18  1  0  0  0  0
 22 21  1  1  0  0  0
 22 24  1  0  0  0  0
 24 23  1  0  0  0  0
 25 22  1  0  0  0  0
 25 27  1  0  0  0  0
 27 28  2  0  0  0  0
 28 31  1  0  0  0  0
 29 31  1  0  0  0  0
 30 27  1  0  0  0  0
 30 29  1  0  0  0  0
 31 26  1  0  0  0  0
 32 33  1  0  0  0  0
 33 37  1  0  0  0  0
 34 35  1  0  0  0  0
 35 40  1  0  0  0  0
 35 36  2  0  0  0  0
 37 34  2  0  0  0  0
 37 38  1  0  0  0  0
 38 39  2  0  0  0  0
 39 36  1  0  0  0  0
 41 43  1  0  0  0  0
 41 40  1  0  0  0  0
 43 42  1  0  0  0  0
 43 44  1  0  0  0  0
M  END
>  <MODEL>
8

>  <REMARK>
 VINA RESULT:      -7.1      2.014      9.152
  Name = 
  17 active torsions:
  status: ('A' for Active; 'I' for Inactive)
    1  A    between atoms: O_2  and  C_19
    2  A    between atoms: O_3  and  C_9
    3  A    between atoms: O_3  and  C_42
    4  A    between atoms: C_5  and  N_27
    5  A    between atoms: C_6  and  C_8
    6  A    between atoms: C_6  and  C_32
    7  A    between atoms: C_7  and  C_28
    8  A    between atoms: C_8  and  C_13
    9  A    between atoms: C_13  and  C_19
   10  A    between atoms: C_16  and  N_33
   11  A    between atoms: C_17  and  C_20
   12  A    between atoms: C_17  and  N_35
   13  A    between atoms: C_19  and  N_27
   14  A    between atoms: C_24  and  C_32
   15  A    between atoms: N_29  and  C_37
   16  A    between atoms: C_31  and  N_35
   17  A    between atoms: C_36  and  C_42
                            x       y       z     vdW  Elec       q    Type
                         _______ _______ _______ _____ _____    ______ ____

>  <TORSDO>
F 17

$$$$
=
 OpenBabel10232407573D

 44 47  0  0  1  0  0  0  0  0999 V2000
  190.2430  176.9180  140.1920 C   0  0  0  0  0  0  0  0  0  0  0  0
  189.2090  177.7930  139.8540 C   0  0  0  0  0  3  0  0  0  0  0  0
  189.6580  177.4450  137.4950 C   0  0  0  0  0  0  0  0  0  0  0  0
  188.9220  178.0600  138.5150 C   0  0  0  0  0  3  0  0  0  0  0  0
  190.6860  176.5330  137.8190 C   0  0  0  0  0  0  0  0  0  0  0  0
  190.9780  176.2970  139.1740 C   0  0  0  0  0  3  0  0  0  0  0  0
  191.4650  175.8440  136.7220 C   0  0  2  0  0  3  0  0  0  0  0  0
  193.3620  174.4590  137.4160 C   0  0  0  0  0  0  0  0  0  0  0  0
  194.2840  173.7700  138.0130 N   0  0  0  0  0  0  0  0  0  0  0  0
  191.6350  174.0850  136.9470 S   0  0  0  0  0  0  0  0  0  0  0  0
  193.1940  176.2020  136.8660 S   0  0  0  0  0  0  0  0  0  0  0  0
  195.7900  174.8340  139.4640 O   0  0  0  0  0  0  0  0  0  0  0  0
  196.6430  174.1370  137.4070 N   0  0  0  0  0  2  0  0  0  0  0  0
  195.5800  174.2750  138.3510 C   0  0  0  0  0  0  0  0  0  0  0  0
  199.2490  173.6650  137.4030 S   0  0  0  0  0  0  0  0  0  0  0  0
  197.9570  174.6240  137.6700 C   0  0  0  0  0  3  0  0  0  0  0  0
  189.3220  177.7820  136.0770 C   0  0  0  0  0  2  0  0  0  0  0  0
  188.1420  177.0020  135.5930 C   0  0  0  0  0  0  0  0  0  0  0  0
  188.2750  175.8310  135.2690 O   0  0  0  0  0  0  0  0  0  0  0  0
  186.8040  177.6610  135.5050 C   0  0  0  0  0  2  0  0  0  0  0  0
  185.9530  177.2410  136.6930 C   0  0  0  0  0  2  0  0  0  0  0  0
  184.4760  177.2760  136.3370 C   0  0  2  0  0  3  0  0  0  0  0  0
  184.5180  177.8930  138.4660 C   0  0  0  0  0  1  0  0  0  0  0  0
  183.7130  177.2700  137.5080 O   0  0  0  0  0  0  0  0  0  0  0  0
  184.1440  176.1050  135.5420 N   0  0  0  0  0  2  0  0  0  0  0  0
  186.4440  171.7800  135.7480 C   0  0  0  0  0  1  0  0  0  0  0  0
  184.3720  174.7700  136.0030 C   0  0  0  0  0  0  0  0  0  0  0  0
  185.3750  174.0470  135.5540 C   0  0  0  0  0  3  0  0  0  0  0  0
  184.3700  172.4520  137.0670 C   0  0  0  0  0  2  0  0  0  0  0  0
  183.3300  173.9520  137.2120 S   0  0  0  0  0  0  0  0  0  0  0  0
  185.4300  172.7490  136.1200 N   0  0  0  0  0  0  0  0  0  0  0  0
  190.5100  176.6690  141.5370 O   0  0  0  0  0  0  0  0  0  0  0  0
  190.7600  177.7130  142.4720 C   0  0  0  0  0  2  0  0  0  0  0  0
  190.4010  177.3480  144.9120 C   0  0  0  0  0  3  0  0  0  0  0  0
  189.5680  177.2350  146.0310 C   0  0  0  0  0  0  0  0  0  0  0  0
  188.1820  177.3520  145.8810 C   0  0  0  0  0  3  0  0  0  0  0  0
  189.8530  177.5810  143.6480 C   0  0  0  0  0  0  0  0  0  0  0  0
  188.4660  177.7060  143.5020 C   0  0  0  0  0  3  0  0  0  0  0  0
  187.6310  177.5880  144.6170 C   0  0  0  0  0  3  0  0  0  0  0  0
  190.1540  177.0120  147.3850 C   0  0  0  0  0  2  0  0  0  0  0  0
  191.6070  177.1090  147.3310 N   0  0  0  0  0  2  0  0  0  0  0  0
  192.2650  174.9390  146.7800 O   0  0  0  0  0  1  0  0  0  0  0  0
  192.1510  175.8520  147.8280 C   0  0  0  0  0  3  0  0  0  0  0  0
  193.4100  176.0790  148.3870 O   0  0  0  0  0  1  0  0  0  0  0  0
  1 32  1  0  0  0  0
  2  1  1  0  0  0  0
  3  5  2  0  0  0  0
  3  4  1  0  0  0  0
  4  2  2  0  0  0  0
  5  6  1  0  0  0  0
  6  1  2  0  0  0  0
  7 11  1  0  0  0  0
  7 10  1  0  0  0  0
  7  5  1  1  0  0  0
  8  9  2  0  0  0  0
  9 14  1  0  0  0  0
 10  8  1  0  0  0  0
 11  8  1  0  0  0  0
 13 16  1  0  0  0  0
 13 14  1  0  0  0  0
 14 12  2  0  0  0  0
 15 16  2  0  0  0  0
 17  3  1  0  0  0  0
 18 17  1  0  0  0  0
 19 18  2  0  0  0  0
 20 18  1  0  0  0  0
 20 21  1  0  0  0  0
 22 21  1  1  0  0  0
 22 24  1  0  0  0  0
 24 23  1  0  0  0  0
 25 27  1  0  0  0  0
 25 22  1  0  0  0  0
 26 31  1  0  0  0  0
 27 30  1  0  0  0  0
 28 27  2  0  0  0  0
 28 31  1  0  0  0  0
 29 30  1  0  0  0  0
 31 29  1  0  0  0  0
 32 33  1  0  0  0  0
 33 37  1  0  0  0  0
 34 35  1  0  0  0  0
 35 40  1  0  0  0  0
 36 35  2  0  0  0  0
 37 34  2  0  0  0  0
 38 37  1  0  0  0  0
 38 39  2  0  0  0  0
 39 36  1  0  0  0  0
 41 40  1  0  0  0  0
 41 43  1  0  0  0  0
 42 43  1  0  0  0  0
 43 44  1  0  0  0  0
M  END
>  <MODEL>
9

>  <REMARK>
 VINA RESULT:      -7.1      3.112      4.328
  Name = 
  17 active torsions:
  status: ('A' for Active; 'I' for Inactive)
    1  A    between atoms: O_2  and  C_19
    2  A    between atoms: O_3  and  C_9
    3  A    between atoms: O_3  and  C_42
    4  A    between atoms: C_5  and  N_27
    5  A    between atoms: C_6  and  C_8
    6  A    between atoms: C_6  and  C_32
    7  A    between atoms: C_7  and  C_28
    8  A    between atoms: C_8  and  C_13
    9  A    between atoms: C_13  and  C_19
   10  A    between atoms: C_16  and  N_33
   11  A    between atoms: C_17  and  C_20
   12  A    between atoms: C_17  and  N_35
   13  A    between atoms: C_19  and  N_27
   14  A    between atoms: C_24  and  C_32
   15  A    between atoms: N_29  and  C_37
   16  A    between atoms: C_31  and  N_35
   17  A    between atoms: C_36  and  C_42
                            x       y       z     vdW  Elec       q    Type
                         _______ _______ _______ _____ _____    ______ ____

>  <TORSDO>
F 17

$$$$
