=
 OpenBabel10232412213D

 51 57  0  0  1  0  0  0  0  0999 V2000
  190.0940  175.7810  135.5270 C   0  0  2  0  0  3  0  0  0  0  0  0
  184.4070  173.7570  136.9450 O   0  0  0  0  0  0  0  0  0  0  0  0
  189.7130  177.6380  134.3460 C   0  0  0  0  0  2  0  0  0  0  0  0
  190.6380  176.5820  134.4880 O   0  0  0  0  0  0  0  0  0  0  0  0
  188.1830  178.5930  135.9440 O   0  0  0  0  0  0  0  0  0  0  0  0
  186.0050  175.2360  136.8440 C   0  0  0  0  0  0  0  0  0  0  0  0
  185.6780  173.9120  136.6760 C   0  0  0  0  0  0  0  0  0  0  0  0
  186.6330  172.8200  136.3420 C   0  0  0  0  0  0  0  0  0  0  0  0
  190.4320  173.7260  136.7840 C   0  0  0  0  0  2  0  0  0  0  0  0
  183.9120  174.9200  137.3280 C   0  0  0  0  0  0  0  0  0  0  0  0
  189.0690  177.7900  135.6700 C   0  0  0  0  0  0  0  0  0  0  0  0
  188.7720  172.0010  135.4630 O   0  0  0  0  0  1  0  0  0  0  0  0
  188.4470  174.8860  137.9120 C   0  0  2  0  0  3  0  0  0  0  0  0
  184.8850  175.8980  137.3090 C   0  0  0  0  0  3  0  0  0  0  0  0
  186.1320  171.7030  136.0010 O   0  0  0  0  0  0  0  0  0  0  0  0
  188.5760  176.2440  137.6600 C   0  0  1  0  0  0  0  0  0  0  0  0
  189.5710  176.7470  136.5640 C   0  0  1  0  0  3  0  0  0  0  0  0
  188.9370  173.8300  136.9500 C   0  0  0  0  0  0  0  0  0  0  0  0
  187.3150  175.5590  137.2310 N   0  0  0  0  0  0  0  0  0  0  0  0
  188.1360  172.9320  136.2840 C   0  0  0  0  0  0  0  0  0  0  0  0
  191.0940  174.8940  136.1480 N   0  0  0  0  0  0  0  0  0  0  0  0
  180.2150  175.4690  137.5710 N   0  0  0  0  0  0  0  0  0  0  0  0
  181.5010  174.7550  135.6670 N   0  0  0  0  0  1  0  0  0  0  0  0
  180.1080  175.9220  138.8480 C   0  0  0  0  0  3  0  0  0  0  0  0
  182.4410  175.5660  139.1510 N   0  0  0  0  0  0  0  0  0  0  0  0
  181.4170  175.1030  137.0490 C   0  0  0  0  0  0  0  0  0  0  0  0
  182.5600  175.1140  137.8720 C   0  0  0  0  0  0  0  0  0  0  0  0
  181.2450  175.9580  139.6600 C   0  0  0  0  0  3  0  0  0  0  0  0
  193.2560  173.7760  135.7240 C   0  0  0  0  0  1  0  0  0  0  0  0
  191.9730  174.3330  135.1120 C   0  0  0  0  0  2  0  0  0  0  0  0
  188.3500  177.1350  138.8810 C   0  0  0  0  0  2  0  0  0  0  0  0
  189.6560  177.7460  139.3510 C   0  0  0  0  0  2  0  0  0  0  0  0
  191.1190  177.5170  141.2390 N   0  0  0  0  0  0  0  0  0  0  0  0
  189.9650  177.2630  140.7310 C   0  0  0  0  0  3  0  0  0  0  0  0
  191.4720  176.9860  142.5370 C   0  0  0  0  0  2  0  0  0  0  0  0
  190.5280  177.5000  143.5830 C   0  0  0  0  0  0  0  0  0  0  0  0
  190.6050  178.7120  143.9290 O   0  0  0  0  0  0  0  0  0  0  0  0
  189.5290  176.6870  144.1380 O   0  0  0  0  0  0  0  0  0  0  0  0
  188.4740  176.1370  143.3610 C   0  0  0  0  0  2  0  0  0  0  0  0
  187.1410  176.4710  144.0060 C   0  0  0  0  0  2  0  0  0  0  0  0
  187.1290  178.7060  147.6320 O   0  0  0  0  0  1  0  0  0  0  0  0
  185.1930  178.4440  146.2480 C   0  0  0  0  0  0  0  0  0  0  0  0
  186.9300  177.9140  144.0070 N   0  0  0  0  0  0  0  0  0  0  0  0
  184.8150  179.0100  144.9140 C   0  0  0  0  0  2  0  0  0  0  0  0
  187.4760  178.4670  145.2590 C   0  0  0  0  0  2  0  0  0  0  0  0
  185.4770  178.1380  143.8350 C   0  0  1  0  0  3  0  0  0  0  0  0
  184.3250  178.1530  147.0630 O   0  0  0  0  0  0  0  0  0  0  0  0
  186.6280  178.0760  146.4880 C   0  0  1  0  0  3  0  0  0  0  0  0
  185.9180  179.5740  141.8150 N   0  0  0  0  0  1  0  0  0  0  0  0
  184.2180  177.9720  141.7980 O   0  0  0  0  0  0  0  0  0  0  0  0
  185.1320  178.5600  142.4420 C   0  0  0  0  0  0  0  0  0  0  0  0
  1  4  1  6  0  0  0
  1 21  1  0  0  0  0
  1 17  1  0  0  0  0
  2 10  1  0  0  0  0
  3  4  1  0  0  0  0
  3 11  1  0  0  0  0
  6 19  1  0  0  0  0
  6 14  1  0  0  0  0
  7  6  2  0  0  0  0
  7  2  1  0  0  0  0
  8  7  1  0  0  0  0
  9 18  1  0  0  0  0
 10 27  1  0  0  0  0
 11  5  2  0  0  0  0
 12 20  1  0  0  0  0
 13 18  1  6  0  0  0
 14 10  2  0  0  0  0
 15  8  2  0  0  0  0
 16 13  1  0  0  0  0
 16 31  1  1  0  0  0
 17 11  1  6  0  0  0
 17 16  1  0  0  0  0
 19 16  1  0  0  0  0
 19 13  1  0  0  0  0
 20  8  1  0  0  0  0
 20 18  2  0  0  0  0
 21  9  1  0  0  0  0
 22 24  1  0  0  0  0
 23 26  1  0  0  0  0
 24 28  2  0  0  0  0
 25 28  1  0  0  0  0
 26 22  2  0  0  0  0
 26 27  1  0  0  0  0
 27 25  2  0  0  0  0
 30 29  1  0  0  0  0
 30 21  1  0  0  0  0
 31 32  1  0  0  0  0
 32 34  1  0  0  0  0
 33 35  1  0  0  0  0
 34 33  2  0  0  0  0
 35 36  1  0  0  0  0
 36 37  2  0  0  0  0
 36 38  1  0  0  0  0
 39 40  1  0  0  0  0
 39 38  1  0  0  0  0
 40 43  1  0  0  0  0
 42 48  1  0  0  0  0
 42 47  2  0  0  0  0
 43 45  1  0  0  0  0
 44 42  1  0  0  0  0
 45 48  1  0  0  0  0
 46 51  1  6  0  0  0
 46 43  1  0  0  0  0
 46 44  1  0  0  0  0
 48 41  1  1  0  0  0
 49 51  1  0  0  0  0
 50 51  2  0  0  0  0
M  END
>  <MODEL>
1

>  <REMARK>
 VINA RESULT:      -7.0      0.000      0.000
  Name = 
  12 active torsions:
  status: ('A' for Active; 'I' for Inactive)
    1  A    between atoms: C_3  and  C_7
    2  A    between atoms: C_3  and  C_42
    3  A    between atoms: C_4  and  C_24
    4  A    between atoms: C_4  and  O_33
    5  A    between atoms: C_7  and  C_49
    6  A    between atoms: N_8  and  C_24
    7  A    between atoms: C_14  and  N_15
    8  A    between atoms: C_14  and  C_32
    9  A    between atoms: C_26  and  C_47
   10  A    between atoms: C_29  and  C_38
   11  A    between atoms: C_32  and  O_33
   12  A    between atoms: C_43  and  N_51
                            x       y       z     vdW  Elec       q    Type
                         _______ _______ _______ _____ _____    ______ ____

>  <TORSDO>
F 12

$$$$
=
 OpenBabel10232412213D

 51 57  0  0  1  0  0  0  0  0999 V2000
  191.4070  175.8130  145.8830 C   0  0  2  0  0  3  0  0  0  0  0  0
  185.7090  177.9380  144.6720 O   0  0  0  0  0  0  0  0  0  0  0  0
  191.6360  174.0900  144.4810 C   0  0  0  0  0  2  0  0  0  0  0  0
  192.0540  174.5560  145.7450 O   0  0  0  0  0  0  0  0  0  0  0  0
  190.9200  175.3100  142.5300 O   0  0  0  0  0  0  0  0  0  0  0  0
  187.7330  177.3180  144.1540 C   0  0  0  0  0  0  0  0  0  0  0  0
  186.8680  177.6060  145.1810 C   0  0  0  0  0  0  0  0  0  0  0  0
  187.2190  177.6350  146.6270 C   0  0  0  0  0  0  0  0  0  0  0  0
  191.0710  177.6750  147.4120 C   0  0  0  0  0  2  0  0  0  0  0  0
  185.8060  177.9220  143.3550 C   0  0  0  0  0  0  0  0  0  0  0  0
  191.3380  175.3000  143.6830 C   0  0  0  0  0  0  0  0  0  0  0  0
  188.6550  177.0360  148.5240 O   0  0  0  0  0  1  0  0  0  0  0  0
  189.9540  178.3920  145.2220 C   0  0  2  0  0  3  0  0  0  0  0  0
  187.0780  177.5590  142.9620 C   0  0  0  0  0  3  0  0  0  0  0  0
  186.2550  177.6950  147.4520 O   0  0  0  0  0  0  0  0  0  0  0  0
  190.5870  177.7000  144.2000 C   0  0  1  0  0  0  0  0  0  0  0  0
  191.5060  176.4800  144.5310 C   0  0  1  0  0  3  0  0  0  0  0  0
  189.8000  177.8260  146.6140 C   0  0  0  0  0  0  0  0  0  0  0  0
  189.1040  177.5500  144.3470 N   0  0  0  0  0  0  0  0  0  0  0  0
  188.6030  177.5130  147.2140 C   0  0  0  0  0  0  0  0  0  0  0  0
  192.0410  176.6730  146.8980 N   0  0  0  0  0  0  0  0  0  0  0  0
  182.4820  178.9210  141.9480 N   0  0  0  0  0  0  0  0  0  0  0  0
  183.1040  178.6220  144.2520 N   0  0  0  0  0  1  0  0  0  0  0  0
  182.7390  178.8510  140.6150 C   0  0  0  0  0  3  0  0  0  0  0  0
  185.0110  178.3340  141.0960 N   0  0  0  0  0  0  0  0  0  0  0  0
  183.4500  178.6620  142.8690 C   0  0  0  0  0  0  0  0  0  0  0  0
  184.7640  178.3970  142.4340 C   0  0  0  0  0  0  0  0  0  0  0  0
  184.0360  178.5650  140.1810 C   0  0  0  0  0  3  0  0  0  0  0  0
  193.0800  176.7310  149.1380 C   0  0  0  0  0  1  0  0  0  0  0  0
  192.4270  175.8660  148.0640 C   0  0  0  0  0  2  0  0  0  0  0  0
  190.9520  178.5600  142.9900 C   0  0  0  0  0  2  0  0  0  0  0  0
  190.3430  177.9930  141.7230 C   0  0  0  0  0  2  0  0  0  0  0  0
  191.1210  177.0960  139.6370 N   0  0  0  0  0  0  0  0  0  0  0  0
  191.4300  177.6450  140.7590 C   0  0  0  0  0  3  0  0  0  0  0  0
  192.1610  176.6720  138.7260 C   0  0  0  0  0  2  0  0  0  0  0  0
  191.7900  175.3670  138.0860 C   0  0  0  0  0  0  0  0  0  0  0  0
  192.7120  174.5930  137.7030 O   0  0  0  0  0  0  0  0  0  0  0  0
  190.4530  174.9620  137.9600 O   0  0  0  0  0  0  0  0  0  0  0  0
  189.8660  174.6470  136.7050 C   0  0  0  0  0  2  0  0  0  0  0  0
  188.9740  175.7920  136.2600 C   0  0  0  0  0  2  0  0  0  0  0  0
  184.9750  174.3580  135.9470 O   0  0  0  0  0  1  0  0  0  0  0  0
  185.5440  176.6820  135.8630 C   0  0  0  0  0  0  0  0  0  0  0  0
  187.9800  176.0840  137.2870 N   0  0  0  0  0  0  0  0  0  0  0  0
  186.0070  177.6520  136.9070 C   0  0  0  0  0  2  0  0  0  0  0  0
  186.9040  175.0820  137.1970 C   0  0  0  0  0  2  0  0  0  0  0  0
  187.5260  177.4750  137.0640 C   0  0  1  0  0  3  0  0  0  0  0  0
  184.8990  177.0760  134.8980 O   0  0  0  0  0  0  0  0  0  0  0  0
  186.0380  175.2670  135.9330 C   0  0  1  0  0  3  0  0  0  0  0  0
  189.0120  179.4460  137.5580 N   0  0  0  0  0  1  0  0  0  0  0  0
  187.8080  178.3960  139.2630 O   0  0  0  0  0  0  0  0  0  0  0  0
  188.1320  178.4300  138.0410 C   0  0  0  0  0  0  0  0  0  0  0  0
  1  4  1  6  0  0  0
  1 21  1  0  0  0  0
  2  7  1  0  0  0  0
  3  4  1  0  0  0  0
  5 11  2  0  0  0  0
  6 19  1  0  0  0  0
  6  7  2  0  0  0  0
  7  8  1  0  0  0  0
  8 20  1  0  0  0  0
  8 15  2  0  0  0  0
 10  2  1  0  0  0  0
 11  3  1  0  0  0  0
 13 18  1  1  0  0  0
 14 10  2  0  0  0  0
 14  6  1  0  0  0  0
 16 31  1  6  0  0  0
 16 19  1  0  0  0  0
 16 17  1  0  0  0  0
 16 13  1  0  0  0  0
 17 11  1  6  0  0  0
 17  1  1  0  0  0  0
 18 20  2  0  0  0  0
 18  9  1  0  0  0  0
 19 13  1  0  0  0  0
 20 12  1  0  0  0  0
 21  9  1  0  0  0  0
 21 30  1  0  0  0  0
 22 26  1  0  0  0  0
 24 22  2  0  0  0  0
 25 27  1  0  0  0  0
 26 23  1  0  0  0  0
 27 26  2  0  0  0  0
 27 10  1  0  0  0  0
 28 24  1  0  0  0  0
 28 25  2  0  0  0  0
 30 29  1  0  0  0  0
 32 31  1  0  0  0  0
 33 34  2  0  0  0  0
 34 32  1  0  0  0  0
 35 33  1  0  0  0  0
 36 35  1  0  0  0  0
 37 36  2  0  0  0  0
 38 36  1  0  0  0  0
 39 38  1  0  0  0  0
 40 39  1  0  0  0  0
 40 43  1  0  0  0  0
 42 48  1  0  0  0  0
 42 44  1  0  0  0  0
 44 46  1  0  0  0  0
 45 43  1  0  0  0  0
 46 43  1  0  0  0  0
 46 51  1  1  0  0  0
 47 42  2  0  0  0  0
 48 41  1  1  0  0  0
 48 45  1  0  0  0  0
 49 51  1  0  0  0  0
 51 50  2  0  0  0  0
M  END
>  <MODEL>
2

>  <REMARK>
 VINA RESULT:      -6.8      2.707      8.672
  Name = 
  12 active torsions:
  status: ('A' for Active; 'I' for Inactive)
    1  A    between atoms: C_3  and  C_7
    2  A    between atoms: C_3  and  C_42
    3  A    between atoms: C_4  and  C_24
    4  A    between atoms: C_4  and  O_33
    5  A    between atoms: C_7  and  C_49
    6  A    between atoms: N_8  and  C_24
    7  A    between atoms: C_14  and  N_15
    8  A    between atoms: C_14  and  C_32
    9  A    between atoms: C_26  and  C_47
   10  A    between atoms: C_29  and  C_38
   11  A    between atoms: C_32  and  O_33
   12  A    between atoms: C_43  and  N_51
                            x       y       z     vdW  Elec       q    Type
                         _______ _______ _______ _____ _____    ______ ____

>  <TORSDO>
F 12

$$$$
=
 OpenBabel10232412213D

 51 57  0  0  1  0  0  0  0  0999 V2000
  181.4520  179.5650  139.3380 C   0  0  2  0  0  3  0  0  0  0  0  0
  182.5010  174.5960  135.7790 O   0  0  0  0  0  0  0  0  0  0  0  0
  181.1830  178.7030  141.3800 C   0  0  0  0  0  2  0  0  0  0  0  0
  180.7820  179.7860  140.5700 O   0  0  0  0  0  0  0  0  0  0  0  0
  183.1820  177.3590  141.3070 O   0  0  0  0  0  0  0  0  0  0  0  0
  182.8490  175.9090  137.4840 C   0  0  0  0  0  0  0  0  0  0  0  0
  182.1880  175.7600  136.2890 C   0  0  0  0  0  0  0  0  0  0  0  0
  181.3380  176.7920  135.6350 C   0  0  0  0  0  0  0  0  0  0  0  0
  181.7130  180.4280  137.0790 C   0  0  0  0  0  2  0  0  0  0  0  0
  183.3770  174.0090  136.5750 C   0  0  0  0  0  0  0  0  0  0  0  0
  182.5120  178.2920  140.8740 C   0  0  0  0  0  0  0  0  0  0  0  0
  179.9820  178.8360  135.6840 O   0  0  0  0  0  1  0  0  0  0  0  0
  183.4180  178.5280  137.2740 C   0  0  2  0  0  3  0  0  0  0  0  0
  183.6580  174.8040  137.6670 C   0  0  0  0  0  3  0  0  0  0  0  0
  180.6230  176.4110  134.6560 O   0  0  0  0  0  0  0  0  0  0  0  0
  183.7320  178.4040  138.6190 C   0  0  1  0  0  0  0  0  0  0  0  0
  182.8420  179.0970  139.7000 C   0  0  1  0  0  3  0  0  0  0  0  0
  182.0610  178.9890  136.7940 C   0  0  0  0  0  0  0  0  0  0  0  0
  183.1950  177.2030  137.9010 N   0  0  0  0  0  0  0  0  0  0  0  0
  181.1740  178.2250  136.0740 C   0  0  0  0  0  0  0  0  0  0  0  0
  181.5460  180.7820  138.5120 N   0  0  0  0  0  0  0  0  0  0  0  0
  185.7660  171.5630  135.0450 N   0  0  0  0  0  0  0  0  0  0  0  0
  185.8750  173.9660  135.0400 N   0  0  0  0  0  1  0  0  0  0  0  0
  185.1380  170.3890  135.3190 C   0  0  0  0  0  3  0  0  0  0  0  0
  183.4720  171.5810  136.5300 N   0  0  0  0  0  0  0  0  0  0  0  0
  185.2510  172.7530  135.4590 C   0  0  0  0  0  0  0  0  0  0  0  0
  184.0910  172.7640  136.2580 C   0  0  0  0  0  0  0  0  0  0  0  0
  183.9730  170.3980  136.0900 C   0  0  0  0  0  3  0  0  0  0  0  0
  180.1850  182.5510  137.4540 C   0  0  0  0  0  1  0  0  0  0  0  0
  180.2860  181.5340  138.5880 C   0  0  0  0  0  2  0  0  0  0  0  0
  185.2280  178.2700  138.9060 C   0  0  0  0  0  2  0  0  0  0  0  0
  185.9850  177.8830  137.6500 C   0  0  0  0  0  2  0  0  0  0  0  0
  188.0510  178.5420  138.6790 N   0  0  0  0  0  0  0  0  0  0  0  0
  187.4240  177.6580  137.9840 C   0  0  0  0  0  3  0  0  0  0  0  0
  189.4650  178.3890  138.9410 C   0  0  0  0  0  2  0  0  0  0  0  0
  189.7040  177.1920  139.8130 C   0  0  0  0  0  0  0  0  0  0  0  0
  190.3130  176.1980  139.3290 O   0  0  0  0  0  0  0  0  0  0  0  0
  189.3240  177.1760  141.1630 O   0  0  0  0  0  0  0  0  0  0  0  0
  189.8120  176.2090  142.0830 C   0  0  0  0  0  2  0  0  0  0  0  0
  188.8870  176.1390  143.2840 C   0  0  0  0  0  2  0  0  0  0  0  0
  191.4650  177.5100  146.3860 O   0  0  0  0  0  1  0  0  0  0  0  0
  189.1270  177.1050  146.7080 C   0  0  0  0  0  0  0  0  0  0  0  0
  188.7270  177.4630  143.8740 N   0  0  0  0  0  0  0  0  0  0  0  0
  187.8990  177.8350  146.2560 C   0  0  0  0  0  2  0  0  0  0  0  0
  190.0010  177.8540  144.5030 C   0  0  0  0  0  2  0  0  0  0  0  0
  187.5920  177.3800  144.8200 C   0  0  1  0  0  3  0  0  0  0  0  0
  189.1120  176.4610  147.7510 O   0  0  0  0  0  0  0  0  0  0  0  0
  190.3000  177.0330  145.7760 C   0  0  1  0  0  3  0  0  0  0  0  0
  185.4550  178.6710  145.1470 N   0  0  0  0  0  1  0  0  0  0  0  0
  186.1270  177.9850  143.0170 O   0  0  0  0  0  0  0  0  0  0  0  0
  186.3470  177.9920  144.2620 C   0  0  0  0  0  0  0  0  0  0  0  0
  1 17  1  0  0  0  0
  1  4  1  1  0  0  0
  2  7  1  0  0  0  0
  2 10  1  0  0  0  0
  4  3  1  0  0  0  0
  6 14  1  0  0  0  0
  6 19  1  0  0  0  0
  7  6  2  0  0  0  0
  8 20  1  0  0  0  0
  8  7  1  0  0  0  0
  9 21  1  0  0  0  0
 10 14  2  0  0  0  0
 11  5  2  0  0  0  0
 11  3  1  0  0  0  0
 12 20  1  0  0  0  0
 13 18  1  1  0  0  0
 13 19  1  0  0  0  0
 13 16  1  0  0  0  0
 15  8  2  0  0  0  0
 16 31  1  1  0  0  0
 16 17  1  0  0  0  0
 17 11  1  1  0  0  0
 18  9  1  0  0  0  0
 19 16  1  0  0  0  0
 20 18  2  0  0  0  0
 21 30  1  0  0  0  0
 21  1  1  0  0  0  0
 22 24  2  0  0  0  0
 22 26  1  0  0  0  0
 23 26  1  0  0  0  0
 24 28  1  0  0  0  0
 26 27  2  0  0  0  0
 27 25  1  0  0  0  0
 27 10  1  0  0  0  0
 28 25  2  0  0  0  0
 29 30  1  0  0  0  0
 32 34  1  0  0  0  0
 32 31  1  0  0  0  0
 33 35  1  0  0  0  0
 34 33  2  0  0  0  0
 35 36  1  0  0  0  0
 36 38  1  0  0  0  0
 37 36  2  0  0  0  0
 38 39  1  0  0  0  0
 39 40  1  0  0  0  0
 40 43  1  0  0  0  0
 42 47  2  0  0  0  0
 43 45  1  0  0  0  0
 43 46  1  0  0  0  0
 44 42  1  0  0  0  0
 45 48  1  0  0  0  0
 46 51  1  6  0  0  0
 46 44  1  0  0  0  0
 48 41  1  1  0  0  0
 48 42  1  0  0  0  0
 50 51  2  0  0  0  0
 51 49  1  0  0  0  0
M  END
>  <MODEL>
3

>  <REMARK>
 VINA RESULT:      -6.7      3.187      6.682
  Name = 
  12 active torsions:
  status: ('A' for Active; 'I' for Inactive)
    1  A    between atoms: C_3  and  C_7
    2  A    between atoms: C_3  and  C_42
    3  A    between atoms: C_4  and  C_24
    4  A    between atoms: C_4  and  O_33
    5  A    between atoms: C_7  and  C_49
    6  A    between atoms: N_8  and  C_24
    7  A    between atoms: C_14  and  N_15
    8  A    between atoms: C_14  and  C_32
    9  A    between atoms: C_26  and  C_47
   10  A    between atoms: C_29  and  C_38
   11  A    between atoms: C_32  and  O_33
   12  A    between atoms: C_43  and  N_51
                            x       y       z     vdW  Elec       q    Type
                         _______ _______ _______ _____ _____    ______ ____

>  <TORSDO>
F 12

$$$$
=
 OpenBabel10232412213D

 51 57  0  0  1  0  0  0  0  0999 V2000
  191.4760  175.8180  145.9350 C   0  0  2  0  0  3  0  0  0  0  0  0
  185.8020  177.9470  144.6230 O   0  0  0  0  0  0  0  0  0  0  0  0
  191.7340  174.1050  144.5260 C   0  0  0  0  0  2  0  0  0  0  0  0
  192.1260  174.5630  145.8020 O   0  0  0  0  0  0  0  0  0  0  0  0
  191.0570  175.3370  142.5690 O   0  0  0  0  0  0  0  0  0  0  0  0
  187.8370  177.3330  144.1420 C   0  0  0  0  0  0  0  0  0  0  0  0
  186.9510  177.6130  145.1530 C   0  0  0  0  0  0  0  0  0  0  0  0
  187.2720  177.6330  146.6060 C   0  0  0  0  0  0  0  0  0  0  0  0
  191.1070  177.6700  147.4690 C   0  0  0  0  0  2  0  0  0  0  0  0
  185.9260  177.9410  143.3080 C   0  0  0  0  0  0  0  0  0  0  0  0
  191.4520  175.3210  143.7310 C   0  0  0  0  0  0  0  0  0  0  0  0
  188.6700  177.0220  148.5270 O   0  0  0  0  0  1  0  0  0  0  0  0
  190.0340  178.4010  145.2620 C   0  0  2  0  0  3  0  0  0  0  0  0
  187.2060  177.5810  142.9380 C   0  0  0  0  0  3  0  0  0  0  0  0
  186.2910  177.6860  147.4120 O   0  0  0  0  0  0  0  0  0  0  0  0
  190.6880  177.7170  144.2490 C   0  0  1  0  0  0  0  0  0  0  0  0
  191.6010  176.4940  144.5890 C   0  0  1  0  0  3  0  0  0  0  0  0
  189.8530  177.8260  146.6470 C   0  0  0  0  0  0  0  0  0  0  0  0
  189.2030  177.5640  144.3650 N   0  0  0  0  0  0  0  0  0  0  0  0
  188.6440  177.5070  147.2210 C   0  0  0  0  0  0  0  0  0  0  0  0
  192.0880  176.6720  146.9690 N   0  0  0  0  0  0  0  0  0  0  0  0
  182.6250  178.9100  141.8260 N   0  0  0  0  0  0  0  0  0  0  0  0
  183.1810  178.5520  144.1390 N   0  0  0  0  0  1  0  0  0  0  0  0
  182.9250  178.8870  140.5010 C   0  0  0  0  0  3  0  0  0  0  0  0
  185.1920  178.4050  141.0390 N   0  0  0  0  0  0  0  0  0  0  0  0
  183.5690  178.6430  142.7700 C   0  0  0  0  0  0  0  0  0  0  0  0
  184.9020  178.4210  142.3690 C   0  0  0  0  0  0  0  0  0  0  0  0
  184.2410  178.6430  140.1000 C   0  0  0  0  0  3  0  0  0  0  0  0
  193.1750  176.6960  149.1860 C   0  0  0  0  0  1  0  0  0  0  0  0
  192.4510  175.8570  148.1370 C   0  0  0  0  0  2  0  0  0  0  0  0
  191.0770  178.5850  143.0520 C   0  0  0  0  0  2  0  0  0  0  0  0
  190.6030  177.9590  141.7550 C   0  0  0  0  0  2  0  0  0  0  0  0
  191.5890  177.1250  139.7330 N   0  0  0  0  0  0  0  0  0  0  0  0
  191.7730  177.7220  140.8570 C   0  0  0  0  0  3  0  0  0  0  0  0
  192.7180  176.8080  138.8870 C   0  0  0  0  0  2  0  0  0  0  0  0
  192.3470  175.7360  137.9050 C   0  0  0  0  0  0  0  0  0  0  0  0
  193.0610  175.5800  136.8750 O   0  0  0  0  0  0  0  0  0  0  0  0
  191.2670  174.8700  138.1330 O   0  0  0  0  0  0  0  0  0  0  0  0
  189.9690  175.1140  137.6100 C   0  0  0  0  0  2  0  0  0  0  0  0
  190.0800  175.9420  136.3420 C   0  0  0  0  0  2  0  0  0  0  0  0
  189.0700  179.9620  137.3210 O   0  0  0  0  0  1  0  0  0  0  0  0
  187.9680  178.0640  138.2780 C   0  0  0  0  0  0  0  0  0  0  0  0
  188.7810  176.5050  135.9920 N   0  0  0  0  0  0  0  0  0  0  0  0
  186.9960  177.0680  137.7220 C   0  0  0  0  0  2  0  0  0  0  0  0
  188.8960  177.9730  135.9710 C   0  0  0  0  0  2  0  0  0  0  0  0
  187.8080  175.9930  136.9820 C   0  0  1  0  0  3  0  0  0  0  0  0
  187.9480  178.3450  139.4710 O   0  0  0  0  0  0  0  0  0  0  0  0
  189.0670  178.5650  137.3870 C   0  0  1  0  0  3  0  0  0  0  0  0
  186.2350  174.0560  137.3240 N   0  0  0  0  0  1  0  0  0  0  0  0
  186.8150  174.7640  135.1740 O   0  0  0  0  0  0  0  0  0  0  0  0
  186.9590  174.8950  136.4230 C   0  0  0  0  0  0  0  0  0  0  0  0
  1  4  1  6  0  0  0
  1 21  1  0  0  0  0
  2  7  1  0  0  0  0
  3  4  1  0  0  0  0
  5 11  2  0  0  0  0
  6 19  1  0  0  0  0
  6  7  2  0  0  0  0
  7  8  1  0  0  0  0
  8 20  1  0  0  0  0
  8 15  2  0  0  0  0
 10  2  1  0  0  0  0
 11  3  1  0  0  0  0
 13 18  1  1  0  0  0
 14 10  2  0  0  0  0
 14  6  1  0  0  0  0
 16 31  1  6  0  0  0
 16 19  1  0  0  0  0
 16 17  1  0  0  0  0
 16 13  1  0  0  0  0
 17 11  1  6  0  0  0
 17  1  1  0  0  0  0
 18 20  2  0  0  0  0
 18  9  1  0  0  0  0
 19 13  1  0  0  0  0
 20 12  1  0  0  0  0
 21  9  1  0  0  0  0
 21 30  1  0  0  0  0
 22 26  1  0  0  0  0
 24 22  2  0  0  0  0
 25 27  1  0  0  0  0
 26 23  1  0  0  0  0
 27 26  2  0  0  0  0
 27 10  1  0  0  0  0
 28 24  1  0  0  0  0
 28 25  2  0  0  0  0
 30 29  1  0  0  0  0
 32 31  1  0  0  0  0
 33 34  2  0  0  0  0
 34 32  1  0  0  0  0
 35 33  1  0  0  0  0
 36 38  1  0  0  0  0
 36 35  1  0  0  0  0
 37 36  2  0  0  0  0
 39 38  1  0  0  0  0
 40 39  1  0  0  0  0
 42 47  2  0  0  0  0
 43 40  1  0  0  0  0
 43 46  1  0  0  0  0
 44 42  1  0  0  0  0
 45 43  1  0  0  0  0
 45 48  1  0  0  0  0
 46 51  1  6  0  0  0
 46 44  1  0  0  0  0
 48 41  1  6  0  0  0
 48 42  1  0  0  0  0
 50 51  2  0  0  0  0
 51 49  1  0  0  0  0
M  END
>  <MODEL>
4

>  <REMARK>
 VINA RESULT:      -6.6      2.667      8.605
  Name = 
  12 active torsions:
  status: ('A' for Active; 'I' for Inactive)
    1  A    between atoms: C_3  and  C_7
    2  A    between atoms: C_3  and  C_42
    3  A    between atoms: C_4  and  C_24
    4  A    between atoms: C_4  and  O_33
    5  A    between atoms: C_7  and  C_49
    6  A    between atoms: N_8  and  C_24
    7  A    between atoms: C_14  and  N_15
    8  A    between atoms: C_14  and  C_32
    9  A    between atoms: C_26  and  C_47
   10  A    between atoms: C_29  and  C_38
   11  A    between atoms: C_32  and  O_33
   12  A    between atoms: C_43  and  N_51
                            x       y       z     vdW  Elec       q    Type
                         _______ _______ _______ _____ _____    ______ ____

>  <TORSDO>
F 12

$$$$
=
 OpenBabel10232412213D

 51 57  0  0  1  0  0  0  0  0999 V2000
  191.3280  175.8160  145.8710 C   0  0  2  0  0  3  0  0  0  0  0  0
  185.6450  178.0080  144.7090 O   0  0  0  0  0  0  0  0  0  0  0  0
  191.5230  174.0880  144.4700 C   0  0  0  0  0  2  0  0  0  0  0  0
  191.9580  174.5520  145.7290 O   0  0  0  0  0  0  0  0  0  0  0  0
  190.8040  175.3140  142.5230 O   0  0  0  0  0  0  0  0  0  0  0  0
  187.6570  177.3640  144.1730 C   0  0  0  0  0  0  0  0  0  0  0  0
  186.8050  177.6640  145.2080 C   0  0  0  0  0  0  0  0  0  0  0  0
  187.1690  177.6910  146.6510 C   0  0  0  0  0  0  0  0  0  0  0  0
  191.0280  177.6840  147.4000 C   0  0  0  0  0  2  0  0  0  0  0  0
  185.7300  177.9900  143.3910 C   0  0  0  0  0  0  0  0  0  0  0  0
  191.2320  175.3010  143.6730 C   0  0  0  0  0  0  0  0  0  0  0  0
  188.6150  177.0770  148.5350 O   0  0  0  0  0  1  0  0  0  0  0  0
  189.9000  178.4120  145.2200 C   0  0  2  0  0  3  0  0  0  0  0  0
  186.9940  177.6100  142.9860 C   0  0  0  0  0  3  0  0  0  0  0  0
  186.2130  177.7640  147.4840 O   0  0  0  0  0  0  0  0  0  0  0  0
  190.5150  177.7110  144.1930 C   0  0  1  0  0  0  0  0  0  0  0  0
  191.4220  176.4800  144.5170 C   0  0  1  0  0  3  0  0  0  0  0  0
  189.7520  177.8500  146.6140 C   0  0  0  0  0  0  0  0  0  0  0  0
  189.0320  177.5790  144.3540 N   0  0  0  0  0  0  0  0  0  0  0  0
  188.5570  177.5520  147.2250 C   0  0  0  0  0  0  0  0  0  0  0  0
  191.9810  176.6700  146.8800 N   0  0  0  0  0  0  0  0  0  0  0  0
  182.4110  179.0560  142.0210 N   0  0  0  0  0  0  0  0  0  0  0  0
  183.0650  178.7840  144.3200 N   0  0  0  0  0  1  0  0  0  0  0  0
  182.6420  178.9520  140.6860 C   0  0  0  0  0  3  0  0  0  0  0  0
  184.9070  178.3790  141.1380 N   0  0  0  0  0  0  0  0  0  0  0  0
  183.3870  178.7870  142.9310 C   0  0  0  0  0  0  0  0  0  0  0  0
  184.6860  178.4760  142.4790 C   0  0  0  0  0  0  0  0  0  0  0  0
  183.9220  178.6200  140.2350 C   0  0  0  0  0  3  0  0  0  0  0  0
  193.1620  176.6890  149.0490 C   0  0  0  0  0  1  0  0  0  0  0  0
  192.3680  175.8600  148.0430 C   0  0  0  0  0  2  0  0  0  0  0  0
  190.8800  178.5650  142.9780 C   0  0  0  0  0  2  0  0  0  0  0  0
  192.1540  178.0620  142.3290 C   0  0  0  0  0  2  0  0  0  0  0  0
  190.6550  177.6680  140.4980 N   0  0  0  0  0  0  0  0  0  0  0  0
  191.8710  177.6600  140.9190 C   0  0  0  0  0  3  0  0  0  0  0  0
  190.3460  177.2000  139.1640 C   0  0  0  0  0  2  0  0  0  0  0  0
  189.3520  178.1140  138.5110 C   0  0  0  0  0  0  0  0  0  0  0  0
  188.9710  179.1440  139.1330 O   0  0  0  0  0  0  0  0  0  0  0  0
  188.8860  177.8840  137.2070 O   0  0  0  0  0  0  0  0  0  0  0  0
  187.5900  178.2790  136.7800 C   0  0  0  0  0  2  0  0  0  0  0  0
  186.5440  177.4360  137.4860 C   0  0  0  0  0  2  0  0  0  0  0  0
  182.3820  177.4000  136.5800 O   0  0  0  0  0  1  0  0  0  0  0  0
  183.4840  175.6250  137.7500 C   0  0  0  0  0  0  0  0  0  0  0  0
  185.9770  176.4590  136.5640 N   0  0  0  0  0  0  0  0  0  0  0  0
  184.4460  174.5640  137.3110 C   0  0  0  0  0  2  0  0  0  0  0  0
  184.6970  176.9830  136.0550 C   0  0  0  0  0  2  0  0  0  0  0  0
  185.8510  175.1850  137.3060 C   0  0  1  0  0  3  0  0  0  0  0  0
  182.7250  175.4180  138.6900 O   0  0  0  0  0  0  0  0  0  0  0  0
  183.5970  176.9910  137.1390 C   0  0  1  0  0  3  0  0  0  0  0  0
  186.7980  172.8530  137.3630 N   0  0  0  0  0  1  0  0  0  0  0  0
  187.8860  174.5600  136.1970 O   0  0  0  0  0  0  0  0  0  0  0  0
  186.9250  174.2110  136.9400 C   0  0  0  0  0  0  0  0  0  0  0  0
  1  4  1  6  0  0  0
  1 21  1  0  0  0  0
  2  7  1  0  0  0  0
  3  4  1  0  0  0  0
  5 11  2  0  0  0  0
  6 19  1  0  0  0  0
  6  7  2  0  0  0  0
  7  8  1  0  0  0  0
  8 20  1  0  0  0  0
  8 15  2  0  0  0  0
 10  2  1  0  0  0  0
 11  3  1  0  0  0  0
 13 18  1  1  0  0  0
 14 10  2  0  0  0  0
 14  6  1  0  0  0  0
 16 31  1  6  0  0  0
 16 19  1  0  0  0  0
 16 17  1  0  0  0  0
 16 13  1  0  0  0  0
 17 11  1  6  0  0  0
 17  1  1  0  0  0  0
 18 20  2  0  0  0  0
 18  9  1  0  0  0  0
 19 13  1  0  0  0  0
 20 12  1  0  0  0  0
 21  9  1  0  0  0  0
 21 30  1  0  0  0  0
 22 26  1  0  0  0  0
 24 22  2  0  0  0  0
 25 27  1  0  0  0  0
 26 23  1  0  0  0  0
 27 26  2  0  0  0  0
 27 10  1  0  0  0  0
 28 24  1  0  0  0  0
 28 25  2  0  0  0  0
 30 29  1  0  0  0  0
 32 31  1  0  0  0  0
 33 34  2  0  0  0  0
 34 32  1  0  0  0  0
 35 33  1  0  0  0  0
 36 37  2  0  0  0  0
 36 35  1  0  0  0  0
 38 36  1  0  0  0  0
 39 38  1  0  0  0  0
 39 40  1  0  0  0  0
 42 47  2  0  0  0  0
 43 46  1  0  0  0  0
 43 40  1  0  0  0  0
 44 42  1  0  0  0  0
 45 43  1  0  0  0  0
 45 48  1  0  0  0  0
 46 51  1  6  0  0  0
 46 44  1  0  0  0  0
 48 41  1  6  0  0  0
 48 42  1  0  0  0  0
 50 51  2  0  0  0  0
 51 49  1  0  0  0  0
M  END
>  <MODEL>
5

>  <REMARK>
 VINA RESULT:      -6.4      2.690      8.625
  Name = 
  12 active torsions:
  status: ('A' for Active; 'I' for Inactive)
    1  A    between atoms: C_3  and  C_7
    2  A    between atoms: C_3  and  C_42
    3  A    between atoms: C_4  and  C_24
    4  A    between atoms: C_4  and  O_33
    5  A    between atoms: C_7  and  C_49
    6  A    between atoms: N_8  and  C_24
    7  A    between atoms: C_14  and  N_15
    8  A    between atoms: C_14  and  C_32
    9  A    between atoms: C_26  and  C_47
   10  A    between atoms: C_29  and  C_38
   11  A    between atoms: C_32  and  O_33
   12  A    between atoms: C_43  and  N_51
                            x       y       z     vdW  Elec       q    Type
                         _______ _______ _______ _____ _____    ______ ____

>  <TORSDO>
F 12

$$$$
=
 OpenBabel10232412213D

 51 57  0  0  1  0  0  0  0  0999 V2000
  188.5930  178.0320  138.2960 C   0  0  2  0  0  3  0  0  0  0  0  0
  194.4260  176.0970  137.4720 O   0  0  0  0  0  0  0  0  0  0  0  0
  188.1430  179.1600  136.4220 C   0  0  0  0  0  2  0  0  0  0  0  0
  187.8190  179.1120  137.7940 O   0  0  0  0  0  0  0  0  0  0  0  0
  188.9040  177.4190  134.9400 O   0  0  0  0  0  0  0  0  0  0  0  0
  192.3320  176.3390  136.9170 C   0  0  0  0  0  0  0  0  0  0  0  0
  193.2590  176.4830  137.9200 C   0  0  0  0  0  0  0  0  0  0  0  0
  192.9650  176.9130  139.3150 C   0  0  0  0  0  0  0  0  0  0  0  0
  189.1680  176.8250  140.3280 C   0  0  0  0  0  2  0  0  0  0  0  0
  194.2790  175.6620  136.2340 C   0  0  0  0  0  0  0  0  0  0  0  0
  188.5300  177.7810  136.0510 C   0  0  0  0  0  0  0  0  0  0  0  0
  191.5470  177.9940  141.0000 O   0  0  0  0  0  1  0  0  0  0  0  0
  190.2700  175.5080  138.4280 C   0  0  2  0  0  3  0  0  0  0  0  0
  192.9640  175.7670  135.8300 C   0  0  0  0  0  3  0  0  0  0  0  0
  193.9600  177.2120  140.0460 O   0  0  0  0  0  0  0  0  0  0  0  0
  189.5350  175.7630  137.2800 C   0  0  1  0  0  0  0  0  0  0  0  0
  188.5110  176.9440  137.2500 C   0  0  1  0  0  3  0  0  0  0  0  0
  190.4180  176.5190  139.5410 C   0  0  0  0  0  0  0  0  0  0  0  0
  191.0000  176.0750  137.2680 N   0  0  0  0  0  0  0  0  0  0  0  0
  191.5980  177.1120  139.9210 C   0  0  0  0  0  0  0  0  0  0  0  0
  188.0850  177.5130  139.5790 N   0  0  0  0  0  0  0  0  0  0  0  0
  196.5810  173.0380  134.8750 N   0  0  0  0  0  0  0  0  0  0  0  0
  194.5420  172.7430  136.1170 N   0  0  0  0  0  1  0  0  0  0  0  0
  197.5660  173.8120  134.3470 C   0  0  0  0  0  3  0  0  0  0  0  0
  196.3200  175.7570  134.9180 N   0  0  0  0  0  0  0  0  0  0  0  0
  195.4860  173.5910  135.4650 C   0  0  0  0  0  0  0  0  0  0  0  0
  195.3290  174.9920  135.4540 C   0  0  0  0  0  0  0  0  0  0  0  0
  197.4250  175.2020  134.3580 C   0  0  0  0  0  3  0  0  0  0  0  0
  188.0650  178.3900  141.8880 C   0  0  0  0  0  1  0  0  0  0  0  0
  187.6630  178.6310  140.4360 C   0  0  0  0  0  2  0  0  0  0  0  0
  189.2130  174.5200  136.4500 C   0  0  0  0  0  2  0  0  0  0  0  0
  188.7510  173.3820  137.3390 C   0  0  0  0  0  2  0  0  0  0  0  0
  186.3760  173.2510  137.6520 N   0  0  0  0  0  0  0  0  0  0  0  0
  187.3870  172.9420  136.9190 C   0  0  0  0  0  3  0  0  0  0  0  0
  185.0570  172.7630  137.3120 C   0  0  0  0  0  2  0  0  0  0  0  0
  184.1030  173.9100  137.1580 C   0  0  0  0  0  0  0  0  0  0  0  0
  183.5330  174.0830  136.0440 O   0  0  0  0  0  0  0  0  0  0  0  0
  183.7840  174.7530  138.2330 O   0  0  0  0  0  0  0  0  0  0  0  0
  183.1820  176.0270  138.0520 C   0  0  0  0  0  2  0  0  0  0  0  0
  184.2610  177.0710  137.8280 C   0  0  0  0  0  2  0  0  0  0  0  0
  184.5830  179.5330  141.2890 O   0  0  0  0  0  1  0  0  0  0  0  0
  182.4990  178.6750  140.4810 C   0  0  0  0  0  0  0  0  0  0  0  0
  183.6830  178.4090  137.8640 N   0  0  0  0  0  0  0  0  0  0  0  0
  181.6570  179.0130  139.2880 C   0  0  0  0  0  2  0  0  0  0  0  0
  184.3640  179.1860  138.9140 C   0  0  0  0  0  2  0  0  0  0  0  0
  182.2290  178.2450  138.0850 C   0  0  1  0  0  3  0  0  0  0  0  0
  181.9760  178.2470  141.5030 O   0  0  0  0  0  0  0  0  0  0  0  0
  183.9920  178.7010  140.3320 C   0  0  1  0  0  3  0  0  0  0  0  0
  180.1220  178.9860  136.9220 N   0  0  0  0  0  1  0  0  0  0  0  0
  181.9620  178.2260  135.6990 O   0  0  0  0  0  0  0  0  0  0  0  0
  181.4410  178.4470  136.8300 C   0  0  0  0  0  0  0  0  0  0  0  0
  1  4  1  6  0  0  0
  1 21  1  0  0  0  0
  2  7  1  0  0  0  0
  3  4  1  0  0  0  0
  5 11  2  0  0  0  0
  6 19  1  0  0  0  0
  6  7  2  0  0  0  0
  7  8  1  0  0  0  0
  8 20  1  0  0  0  0
  8 15  2  0  0  0  0
 10  2  1  0  0  0  0
 11  3  1  0  0  0  0
 13 18  1  1  0  0  0
 14 10  2  0  0  0  0
 14  6  1  0  0  0  0
 16 31  1  6  0  0  0
 16 13  1  0  0  0  0
 17 11  1  6  0  0  0
 17 16  1  0  0  0  0
 17  1  1  0  0  0  0
 18 20  2  0  0  0  0
 18  9  1  0  0  0  0
 19 16  1  0  0  0  0
 19 13  1  0  0  0  0
 20 12  1  0  0  0  0
 21  9  1  0  0  0  0
 21 30  1  0  0  0  0
 22 26  1  0  0  0  0
 24 28  1  0  0  0  0
 24 22  2  0  0  0  0
 25 27  1  0  0  0  0
 26 23  1  0  0  0  0
 27 26  2  0  0  0  0
 27 10  1  0  0  0  0
 28 25  2  0  0  0  0
 30 29  1  0  0  0  0
 31 32  1  0  0  0  0
 34 32  1  0  0  0  0
 34 33  2  0  0  0  0
 35 33  1  0  0  0  0
 36 35  1  0  0  0  0
 36 38  1  0  0  0  0
 37 36  2  0  0  0  0
 39 38  1  0  0  0  0
 40 43  1  0  0  0  0
 40 39  1  0  0  0  0
 42 47  2  0  0  0  0
 43 46  1  0  0  0  0
 43 45  1  0  0  0  0
 44 42  1  0  0  0  0
 45 48  1  0  0  0  0
 46 51  1  6  0  0  0
 46 44  1  0  0  0  0
 48 42  1  0  0  0  0
 48 41  1  1  0  0  0
 50 51  2  0  0  0  0
 51 49  1  0  0  0  0
M  END
>  <MODEL>
6

>  <REMARK>
 VINA RESULT:      -6.3      2.994      8.576
  Name = 
  12 active torsions:
  status: ('A' for Active; 'I' for Inactive)
    1  A    between atoms: C_3  and  C_7
    2  A    between atoms: C_3  and  C_42
    3  A    between atoms: C_4  and  C_24
    4  A    between atoms: C_4  and  O_33
    5  A    between atoms: C_7  and  C_49
    6  A    between atoms: N_8  and  C_24
    7  A    between atoms: C_14  and  N_15
    8  A    between atoms: C_14  and  C_32
    9  A    between atoms: C_26  and  C_47
   10  A    between atoms: C_29  and  C_38
   11  A    between atoms: C_32  and  O_33
   12  A    between atoms: C_43  and  N_51
                            x       y       z     vdW  Elec       q    Type
                         _______ _______ _______ _____ _____    ______ ____

>  <TORSDO>
F 12

$$$$
=
 OpenBabel10232412213D

 51 57  0  0  1  0  0  0  0  0999 V2000
  191.5450  175.9040  146.2780 C   0  0  2  0  0  3  0  0  0  0  0  0
  185.9330  177.7860  144.4310 O   0  0  0  0  0  0  0  0  0  0  0  0
  191.9770  174.1580  144.9550 C   0  0  0  0  0  2  0  0  0  0  0  0
  192.2460  174.6690  146.2410 O   0  0  0  0  0  0  0  0  0  0  0  0
  191.4250  175.3030  142.9070 O   0  0  0  0  0  0  0  0  0  0  0  0
  188.0200  177.2300  144.1400 C   0  0  0  0  0  0  0  0  0  0  0  0
  187.0440  177.5100  145.0650 C   0  0  0  0  0  0  0  0  0  0  0  0
  187.2430  177.5870  146.5380 C   0  0  0  0  0  0  0  0  0  0  0  0
  190.9890  177.7880  147.7120 C   0  0  0  0  0  2  0  0  0  0  0  0
  186.1660  177.7420  143.1320 C   0  0  0  0  0  0  0  0  0  0  0  0
  191.7220  175.3370  144.0980 C   0  0  0  0  0  0  0  0  0  0  0  0
  188.4950  177.0870  148.5880 O   0  0  0  0  0  1  0  0  0  0  0  0
  190.0800  178.4110  145.4000 C   0  0  2  0  0  3  0  0  0  0  0  0
  187.4840  177.4170  142.8810 C   0  0  0  0  0  3  0  0  0  0  0  0
  186.1970  177.6310  147.2580 O   0  0  0  0  0  0  0  0  0  0  0  0
  190.8390  177.7190  144.4680 C   0  0  1  0  0  0  0  0  0  0  0  0
  191.7600  176.5410  144.9250 C   0  0  1  0  0  3  0  0  0  0  0  0
  189.8030  177.8730  146.7850 C   0  0  0  0  0  0  0  0  0  0  0  0
  189.3550  177.5170  144.4670 N   0  0  0  0  0  0  0  0  0  0  0  0
  188.5620  177.5300  147.2670 C   0  0  0  0  0  0  0  0  0  0  0  0
  192.0400  176.8110  147.3280 N   0  0  0  0  0  0  0  0  0  0  0  0
  184.7040  179.2570  140.0340 N   0  0  0  0  0  0  0  0  0  0  0  0
  187.0120  178.7890  140.5260 N   0  0  0  0  0  1  0  0  0  0  0  0
  183.3910  179.3260  140.3800 C   0  0  0  0  0  3  0  0  0  0  0  0
  183.8910  178.2270  142.4310 N   0  0  0  0  0  0  0  0  0  0  0  0
  185.6300  178.7240  140.8770 C   0  0  0  0  0  0  0  0  0  0  0  0
  185.2090  178.1570  142.0960 C   0  0  0  0  0  0  0  0  0  0  0  0
  182.9750  178.7860  141.5990 C   0  0  0  0  0  3  0  0  0  0  0  0
  193.3250  176.7920  149.4380 C   0  0  0  0  0  1  0  0  0  0  0  0
  192.3320  176.0470  148.5490 C   0  0  0  0  0  2  0  0  0  0  0  0
  191.2970  178.5630  143.2780 C   0  0  0  0  0  2  0  0  0  0  0  0
  190.7110  178.0320  141.9840 C   0  0  0  0  0  2  0  0  0  0  0  0
  191.5250  177.2080  139.8820 N   0  0  0  0  0  0  0  0  0  0  0  0
  191.8170  177.6640  141.0500 C   0  0  0  0  0  3  0  0  0  0  0  0
  192.5760  176.7640  138.9930 C   0  0  0  0  0  2  0  0  0  0  0  0
  192.0250  175.8170  137.9690 C   0  0  0  0  0  0  0  0  0  0  0  0
  191.0840  175.0420  138.3000 O   0  0  0  0  0  0  0  0  0  0  0  0
  192.4850  175.8160  136.6440 O   0  0  0  0  0  0  0  0  0  0  0  0
  193.8620  175.6970  136.3140 C   0  0  0  0  0  2  0  0  0  0  0  0
  194.3540  174.3090  136.6820 C   0  0  0  0  0  2  0  0  0  0  0  0
  195.1890  170.4460  135.0910 O   0  0  0  0  0  1  0  0  0  0  0  0
  196.4110  171.4060  136.9130 C   0  0  0  0  0  0  0  0  0  0  0  0
  195.6120  174.0240  136.0030 N   0  0  0  0  0  0  0  0  0  0  0  0
  197.4150  172.5160  136.9890 C   0  0  0  0  0  2  0  0  0  0  0  0
  195.4230  172.8450  135.1400 C   0  0  0  0  0  2  0  0  0  0  0  0
  196.6380  173.8400  137.0540 C   0  0  1  0  0  3  0  0  0  0  0  0
  196.4500  170.4830  137.7190 O   0  0  0  0  0  0  0  0  0  0  0  0
  195.2640  171.5440  135.9560 C   0  0  1  0  0  3  0  0  0  0  0  0
  198.3490  175.1540  138.3530 N   0  0  0  0  0  1  0  0  0  0  0  0
  197.6070  175.8890  136.2630 O   0  0  0  0  0  0  0  0  0  0  0  0
  197.5240  175.0370  137.1930 C   0  0  0  0  0  0  0  0  0  0  0  0
  1  4  1  6  0  0  0
  1 21  1  0  0  0  0
  2  7  1  0  0  0  0
  3  4  1  0  0  0  0
  5 11  2  0  0  0  0
  6 19  1  0  0  0  0
  6  7  2  0  0  0  0
  7  8  1  0  0  0  0
  8 15  2  0  0  0  0
  8 20  1  0  0  0  0
 10  2  1  0  0  0  0
 11  3  1  0  0  0  0
 13 18  1  1  0  0  0
 14 10  2  0  0  0  0
 14  6  1  0  0  0  0
 16 31  1  6  0  0  0
 16 17  1  0  0  0  0
 16 13  1  0  0  0  0
 17 11  1  6  0  0  0
 17  1  1  0  0  0  0
 18 20  2  0  0  0  0
 18  9  1  0  0  0  0
 19 16  1  0  0  0  0
 19 13  1  0  0  0  0
 20 12  1  0  0  0  0
 21  9  1  0  0  0  0
 21 30  1  0  0  0  0
 22 24  2  0  0  0  0
 22 26  1  0  0  0  0
 23 26  1  0  0  0  0
 24 28  1  0  0  0  0
 26 27  2  0  0  0  0
 27 25  1  0  0  0  0
 27 10  1  0  0  0  0
 28 25  2  0  0  0  0
 30 29  1  0  0  0  0
 32 31  1  0  0  0  0
 33 34  2  0  0  0  0
 34 32  1  0  0  0  0
 35 33  1  0  0  0  0
 36 37  2  0  0  0  0
 36 35  1  0  0  0  0
 38 36  1  0  0  0  0
 39 38  1  0  0  0  0
 39 40  1  0  0  0  0
 42 44  1  0  0  0  0
 42 47  2  0  0  0  0
 43 40  1  0  0  0  0
 43 46  1  0  0  0  0
 44 46  1  0  0  0  0
 45 48  1  0  0  0  0
 45 43  1  0  0  0  0
 46 51  1  6  0  0  0
 48 41  1  6  0  0  0
 48 42  1  0  0  0  0
 50 51  2  0  0  0  0
 51 49  1  0  0  0  0
M  END
>  <MODEL>
7

>  <REMARK>
 VINA RESULT:      -6.2      3.936     10.498
  Name = 
  12 active torsions:
  status: ('A' for Active; 'I' for Inactive)
    1  A    between atoms: C_3  and  C_7
    2  A    between atoms: C_3  and  C_42
    3  A    between atoms: C_4  and  C_24
    4  A    between atoms: C_4  and  O_33
    5  A    between atoms: C_7  and  C_49
    6  A    between atoms: N_8  and  C_24
    7  A    between atoms: C_14  and  N_15
    8  A    between atoms: C_14  and  C_32
    9  A    between atoms: C_26  and  C_47
   10  A    between atoms: C_29  and  C_38
   11  A    between atoms: C_32  and  O_33
   12  A    between atoms: C_43  and  N_51
                            x       y       z     vdW  Elec       q    Type
                         _______ _______ _______ _____ _____    ______ ____

>  <TORSDO>
F 12

$$$$
=
 OpenBabel10232412213D

 51 57  0  0  1  0  0  0  0  0999 V2000
  190.3230  175.5170  135.3530 C   0  0  2  0  0  3  0  0  0  0  0  0
  184.3620  174.3010  136.5520 O   0  0  0  0  0  0  0  0  0  0  0  0
  190.2620  177.5090  134.3470 C   0  0  0  0  0  2  0  0  0  0  0  0
  191.0060  176.3120  134.3950 O   0  0  0  0  0  0  0  0  0  0  0  0
  188.8710  178.5470  136.0190 O   0  0  0  0  0  0  0  0  0  0  0  0
  186.1750  175.5100  136.5950 C   0  0  0  0  0  0  0  0  0  0  0  0
  185.6470  174.2760  136.3040 C   0  0  0  0  0  0  0  0  0  0  0  0
  186.4240  173.0810  135.8750 C   0  0  0  0  0  0  0  0  0  0  0  0
  190.3090  173.3290  136.4170 C   0  0  0  0  0  2  0  0  0  0  0  0
  184.0490  175.4880  137.0380 C   0  0  0  0  0  0  0  0  0  0  0  0
  189.6240  177.6410  135.6760 C   0  0  0  0  0  0  0  0  0  0  0  0
  188.4230  172.0150  134.9350 O   0  0  0  0  0  1  0  0  0  0  0  0
  188.5100  174.6830  137.6370 C   0  0  2  0  0  3  0  0  0  0  0  0
  185.1640  176.2970  137.1130 C   0  0  0  0  0  3  0  0  0  0  0  0
  185.7600  172.0930  135.4300 O   0  0  0  0  0  0  0  0  0  0  0  0
  188.8560  176.0200  137.5120 C   0  0  1  0  0  0  0  0  0  0  0  0
  189.9380  176.4560  136.4720 C   0  0  1  0  0  3  0  0  0  0  0  0
  188.8460  173.6530  136.5840 C   0  0  0  0  0  0  0  0  0  0  0  0
  187.5110  175.5850  137.0160 N   0  0  0  0  0  0  0  0  0  0  0  0
  187.9260  172.9580  135.8350 C   0  0  0  0  0  0  0  0  0  0  0  0
  191.1590  174.4300  135.8950 N   0  0  0  0  0  0  0  0  0  0  0  0
  180.8190  177.2740  137.6790 N   0  0  0  0  0  0  0  0  0  0  0  0
  182.3010  177.4890  135.7970 N   0  0  0  0  0  1  0  0  0  0  0  0
  180.4990  176.7870  138.9070 C   0  0  0  0  0  3  0  0  0  0  0  0
  182.4020  175.3610  138.8200 N   0  0  0  0  0  0  0  0  0  0  0  0
  181.9380  176.8590  137.0240 C   0  0  0  0  0  0  0  0  0  0  0  0
  182.7350  175.8440  137.5910 C   0  0  0  0  0  0  0  0  0  0  0  0
  181.3010  175.7990  139.4830 C   0  0  0  0  0  3  0  0  0  0  0  0
  193.4520  173.9910  135.0870 C   0  0  0  0  0  1  0  0  0  0  0  0
  191.9580  173.8320  134.8160 C   0  0  0  0  0  2  0  0  0  0  0  0
  188.7500  176.8220  138.8100 C   0  0  0  0  0  2  0  0  0  0  0  0
  187.7430  177.9470  138.6670 C   0  0  0  0  0  2  0  0  0  0  0  0
  186.1080  178.8420  140.1780 N   0  0  0  0  0  0  0  0  0  0  0  0
  187.3070  178.4010  140.0210 C   0  0  0  0  0  3  0  0  0  0  0  0
  185.6910  179.3680  141.4590 C   0  0  0  0  0  2  0  0  0  0  0  0
  185.2240  178.2550  142.3500 C   0  0  0  0  0  0  0  0  0  0  0  0
  184.1390  177.6700  142.0760 O   0  0  0  0  0  0  0  0  0  0  0  0
  185.9910  177.8120  143.4380 O   0  0  0  0  0  0  0  0  0  0  0  0
  187.3730  177.5020  143.3230 C   0  0  0  0  0  2  0  0  0  0  0  0
  187.8640  176.8840  144.6200 C   0  0  0  0  0  2  0  0  0  0  0  0
  191.9880  177.7620  144.0130 O   0  0  0  0  0  1  0  0  0  0  0  0
  191.1420  176.7590  146.0170 C   0  0  0  0  0  0  0  0  0  0  0  0
  188.5530  177.8840  145.4260 N   0  0  0  0  0  0  0  0  0  0  0  0
  190.3300  177.2960  147.1550 C   0  0  0  0  0  2  0  0  0  0  0  0
  189.7480  178.3370  144.6910 C   0  0  0  0  0  2  0  0  0  0  0  0
  188.8530  177.2550  146.7310 C   0  0  1  0  0  3  0  0  0  0  0  0
  191.9270  175.8360  146.2010 O   0  0  0  0  0  0  0  0  0  0  0  0
  190.8420  177.2490  144.6310 C   0  0  1  0  0  3  0  0  0  0  0  0
  186.9440  178.7090  147.4940 N   0  0  0  0  0  1  0  0  0  0  0  0
  187.9320  177.1690  148.9460 O   0  0  0  0  0  0  0  0  0  0  0  0
  187.9190  177.7130  147.8060 C   0  0  0  0  0  0  0  0  0  0  0  0
  1  4  1  6  0  0  0
  1 21  1  0  0  0  0
  1 17  1  0  0  0  0
  2 10  1  0  0  0  0
  3  4  1  0  0  0  0
  3 11  1  0  0  0  0
  6 19  1  0  0  0  0
  6 14  1  0  0  0  0
  7  2  1  0  0  0  0
  7  6  2  0  0  0  0
  8  7  1  0  0  0  0
  9 18  1  0  0  0  0
 10 14  2  0  0  0  0
 10 27  1  0  0  0  0
 11  5  2  0  0  0  0
 12 20  1  0  0  0  0
 13 18  1  6  0  0  0
 15  8  2  0  0  0  0
 16 13  1  0  0  0  0
 16 31  1  1  0  0  0
 17 11  1  6  0  0  0
 17 16  1  0  0  0  0
 19 16  1  0  0  0  0
 19 13  1  0  0  0  0
 20  8  1  0  0  0  0
 20 18  2  0  0  0  0
 21  9  1  0  0  0  0
 22 24  1  0  0  0  0
 23 26  1  0  0  0  0
 24 28  2  0  0  0  0
 25 28  1  0  0  0  0
 26 27  1  0  0  0  0
 26 22  2  0  0  0  0
 27 25  2  0  0  0  0
 30 29  1  0  0  0  0
 30 21  1  0  0  0  0
 32 31  1  0  0  0  0
 32 34  1  0  0  0  0
 33 35  1  0  0  0  0
 34 33  2  0  0  0  0
 35 36  1  0  0  0  0
 36 38  1  0  0  0  0
 37 36  2  0  0  0  0
 39 38  1  0  0  0  0
 39 40  1  0  0  0  0
 40 43  1  0  0  0  0
 42 47  2  0  0  0  0
 42 44  1  0  0  0  0
 43 46  1  0  0  0  0
 45 43  1  0  0  0  0
 46 44  1  0  0  0  0
 46 51  1  1  0  0  0
 48 41  1  1  0  0  0
 48 45  1  0  0  0  0
 48 42  1  0  0  0  0
 49 51  1  0  0  0  0
 51 50  2  0  0  0  0
M  END
>  <MODEL>
8

>  <REMARK>
 VINA RESULT:      -6.2      1.597      3.337
  Name = 
  12 active torsions:
  status: ('A' for Active; 'I' for Inactive)
    1  A    between atoms: C_3  and  C_7
    2  A    between atoms: C_3  and  C_42
    3  A    between atoms: C_4  and  C_24
    4  A    between atoms: C_4  and  O_33
    5  A    between atoms: C_7  and  C_49
    6  A    between atoms: N_8  and  C_24
    7  A    between atoms: C_14  and  N_15
    8  A    between atoms: C_14  and  C_32
    9  A    between atoms: C_26  and  C_47
   10  A    between atoms: C_29  and  C_38
   11  A    between atoms: C_32  and  O_33
   12  A    between atoms: C_43  and  N_51
                            x       y       z     vdW  Elec       q    Type
                         _______ _______ _______ _____ _____    ______ ____

>  <TORSDO>
F 12

$$$$
=
 OpenBabel10232412213D

 51 57  0  0  1  0  0  0  0  0999 V2000
  191.3690  175.8440  145.7510 C   0  0  2  0  0  3  0  0  0  0  0  0
  185.5290  177.8450  145.1600 O   0  0  0  0  0  0  0  0  0  0  0  0
  191.5270  174.2230  144.2230 C   0  0  0  0  0  2  0  0  0  0  0  0
  192.0380  174.6210  145.4770 O   0  0  0  0  0  0  0  0  0  0  0  0
  190.6140  175.5400  142.4240 O   0  0  0  0  0  0  0  0  0  0  0  0
  187.5200  177.3300  144.4360 C   0  0  0  0  0  0  0  0  0  0  0  0
  186.7370  177.5220  145.5480 C   0  0  0  0  0  0  0  0  0  0  0  0
  187.2080  177.4700  146.9590 C   0  0  0  0  0  0  0  0  0  0  0  0
  191.1100  177.5910  147.4240 C   0  0  0  0  0  2  0  0  0  0  0  0
  185.5150  177.9170  143.8410 C   0  0  0  0  0  0  0  0  0  0  0  0
  191.1280  175.4710  143.5360 C   0  0  0  0  0  0  0  0  0  0  0  0
  188.8160  176.8000  148.6860 O   0  0  0  0  0  1  0  0  0  0  0  0
  189.7910  178.4090  145.3870 C   0  0  2  0  0  3  0  0  0  0  0  0
  186.7590  177.6240  143.3210 C   0  0  0  0  0  3  0  0  0  0  0  0
  186.3160  177.4440  147.8630 O   0  0  0  0  0  0  0  0  0  0  0  0
  190.3550  177.8060  144.2720 C   0  0  1  0  0  0  0  0  0  0  0  0
  191.3330  176.5990  144.4430 C   0  0  1  0  0  3  0  0  0  0  0  0
  189.7720  177.7500  146.7460 C   0  0  0  0  0  0  0  0  0  0  0  0
  188.8950  177.5950  144.5310 N   0  0  0  0  0  0  0  0  0  0  0  0
  188.6400  177.3580  147.4200 C   0  0  0  0  0  0  0  0  0  0  0  0
  192.0610  176.6580  146.7660 N   0  0  0  0  0  0  0  0  0  0  0  0
  182.1410  179.2200  142.8700 N   0  0  0  0  0  0  0  0  0  0  0  0
  183.1520  179.1620  145.0520 N   0  0  0  0  0  1  0  0  0  0  0  0
  182.1230  178.9180  141.5450 C   0  0  0  0  0  3  0  0  0  0  0  0
  184.3590  178.1200  141.7140 N   0  0  0  0  0  0  0  0  0  0  0  0
  183.2260  178.9450  143.6440 C   0  0  0  0  0  0  0  0  0  0  0  0
  184.3860  178.4150  143.0430 C   0  0  0  0  0  0  0  0  0  0  0  0
  183.2630  178.3680  140.9520 C   0  0  0  0  0  3  0  0  0  0  0  0
  193.0830  176.6180  149.0140 C   0  0  0  0  0  1  0  0  0  0  0  0
  192.5680  175.7920  147.8390 C   0  0  0  0  0  2  0  0  0  0  0  0
  190.5910  178.7540  143.0960 C   0  0  0  0  0  2  0  0  0  0  0  0
  190.3770  178.0390  141.7760 C   0  0  0  0  0  2  0  0  0  0  0  0
  188.4740  177.7620  140.3410 N   0  0  0  0  0  0  0  0  0  0  0  0
  189.1230  178.5380  141.1360 C   0  0  0  0  0  3  0  0  0  0  0  0
  187.3050  178.2520  139.6430 C   0  0  0  0  0  2  0  0  0  0  0  0
  187.4550  178.0390  138.1660 C   0  0  0  0  0  0  0  0  0  0  0  0
  186.7850  177.1240  137.6110 O   0  0  0  0  0  0  0  0  0  0  0  0
  188.2720  178.8670  137.3810 O   0  0  0  0  0  0  0  0  0  0  0  0
  189.3570  178.3630  136.6130 C   0  0  0  0  0  2  0  0  0  0  0  0
  190.1330  177.3500  137.4360 C   0  0  0  0  0  2  0  0  0  0  0  0
  188.3440  174.3910  134.9480 O   0  0  0  0  0  1  0  0  0  0  0  0
  189.8000  173.8620  136.7730 C   0  0  0  0  0  0  0  0  0  0  0  0
  190.9390  176.5040  136.5630 N   0  0  0  0  0  0  0  0  0  0  0  0
  191.2780  174.0110  136.9680 C   0  0  0  0  0  2  0  0  0  0  0  0
  190.0750  175.9780  135.4920 C   0  0  0  0  0  2  0  0  0  0  0  0
  191.5440  175.4570  137.4160 C   0  0  1  0  0  3  0  0  0  0  0  0
  189.1900  172.9670  137.3460 O   0  0  0  0  0  0  0  0  0  0  0  0
  189.0680  174.9310  136.0160 C   0  0  1  0  0  3  0  0  0  0  0  0
  193.8760  174.6240  137.8690 N   0  0  0  0  0  1  0  0  0  0  0  0
  193.4280  176.9120  137.7200 O   0  0  0  0  0  0  0  0  0  0  0  0
  192.9860  175.7280  137.7050 C   0  0  0  0  0  0  0  0  0  0  0  0
  1  4  1  6  0  0  0
  1 21  1  0  0  0  0
  2  7  1  0  0  0  0
  3  4  1  0  0  0  0
  5 11  2  0  0  0  0
  6 19  1  0  0  0  0
  6  7  2  0  0  0  0
  7  8  1  0  0  0  0
  8 20  1  0  0  0  0
  8 15  2  0  0  0  0
 10  2  1  0  0  0  0
 11  3  1  0  0  0  0
 13 18  1  1  0  0  0
 14 10  2  0  0  0  0
 14  6  1  0  0  0  0
 16 31  1  6  0  0  0
 16 17  1  0  0  0  0
 16 19  1  0  0  0  0
 16 13  1  0  0  0  0
 17 11  1  6  0  0  0
 17  1  1  0  0  0  0
 18 20  2  0  0  0  0
 18  9  1  0  0  0  0
 19 13  1  0  0  0  0
 20 12  1  0  0  0  0
 21  9  1  0  0  0  0
 21 30  1  0  0  0  0
 22 26  1  0  0  0  0
 24 22  2  0  0  0  0
 25 27  1  0  0  0  0
 26 23  1  0  0  0  0
 27 26  2  0  0  0  0
 27 10  1  0  0  0  0
 28 24  1  0  0  0  0
 28 25  2  0  0  0  0
 30 29  1  0  0  0  0
 32 31  1  0  0  0  0
 33 34  2  0  0  0  0
 34 32  1  0  0  0  0
 35 33  1  0  0  0  0
 36 35  1  0  0  0  0
 37 36  2  0  0  0  0
 38 36  1  0  0  0  0
 39 38  1  0  0  0  0
 39 40  1  0  0  0  0
 42 44  1  0  0  0  0
 42 47  2  0  0  0  0
 43 46  1  0  0  0  0
 43 40  1  0  0  0  0
 44 46  1  0  0  0  0
 45 48  1  0  0  0  0
 45 43  1  0  0  0  0
 46 51  1  6  0  0  0
 48 41  1  6  0  0  0
 48 42  1  0  0  0  0
 51 50  2  0  0  0  0
 51 49  1  0  0  0  0
M  END
>  <MODEL>
9

>  <REMARK>
 VINA RESULT:      -6.1      2.935      9.206
  Name = 
  12 active torsions:
  status: ('A' for Active; 'I' for Inactive)
    1  A    between atoms: C_3  and  C_7
    2  A    between atoms: C_3  and  C_42
    3  A    between atoms: C_4  and  C_24
    4  A    between atoms: C_4  and  O_33
    5  A    between atoms: C_7  and  C_49
    6  A    between atoms: N_8  and  C_24
    7  A    between atoms: C_14  and  N_15
    8  A    between atoms: C_14  and  C_32
    9  A    between atoms: C_26  and  C_47
   10  A    between atoms: C_29  and  C_38
   11  A    between atoms: C_32  and  O_33
   12  A    between atoms: C_43  and  N_51
                            x       y       z     vdW  Elec       q    Type
                         _______ _______ _______ _____ _____    ______ ____

>  <TORSDO>
F 12

$$$$
