=
 OpenBabel10232409453D

 25 28  0  0  1  0  0  0  0  0999 V2000
  186.1190  178.0960  144.9120 C   0  0  0  0  0  2  0  0  0  0  0  0
  186.4430  177.1590  143.7680 C   0  0  1  0  0  3  0  0  0  0  0  0
  185.3530  178.9280  142.8630 C   0  0  1  0  0  3  0  0  0  0  0  0
  185.0630  178.9810  144.3430 C   0  0  0  0  0  2  0  0  0  0  0  0
  185.9080  177.6690  142.5670 O   0  0  0  0  0  0  0  0  0  0  0  0
  187.9270  176.9460  143.6630 C   0  0  0  0  0  0  0  0  0  0  0  0
  188.3690  175.8890  143.0830 N   0  0  0  0  0  2  0  0  0  0  0  0
  191.4010  176.6480  147.3110 C   0  0  0  0  0  3  0  0  0  0  0  0
  188.8870  177.9810  144.1930 C   0  0  2  0  0  3  0  0  0  0  0  0
  190.0240  176.6680  147.5930 C   0  0  0  0  0  3  0  0  0  0  0  0
  191.8610  177.0420  146.0880 N   0  0  0  0  0  0  0  0  0  0  0  0
  189.9850  178.2970  143.1600 C   0  0  0  0  0  3  0  0  0  0  0  0
  190.9840  177.4550  145.1350 C   0  0  0  0  0  0  0  0  0  0  0  0
  191.3410  177.9200  143.7810 C   0  0  0  0  0  3  0  0  0  0  0  0
  189.6380  177.4800  145.3680 C   0  0  0  0  0  0  0  0  0  0  0  0
  189.1240  177.0950  146.6060 C   0  0  0  0  0  3  0  0  0  0  0  0
  184.0810  179.1650  142.0460 C   0  0  2  0  0  3  0  0  0  0  0  0
  182.1470  179.6070  143.4320 O   0  0  0  0  0  0  0  0  0  0  0  0
  182.8580  178.5890  142.7720 C   0  0  1  0  0  3  0  0  0  0  0  0
  181.0400  179.4160  142.5910 C   0  0  0  0  0  2  0  0  0  0  0  0
  181.7250  178.3260  141.8170 C   0  0  0  0  0  2  0  0  0  0  0  0
  184.2140  178.5400  140.7720 O   0  0  0  0  0  0  0  0  0  0  0  0
  184.8330  179.1740  139.6930 C   0  0  0  0  0  0  0  0  0  0  0  0
  184.3280  180.2050  139.1730 O   0  0  0  0  0  0  0  0  0  0  0  0
  186.0240  178.6680  139.1920 O   0  0  0  0  0  1  0  0  0  0  0  0
  2  6  1  6  0  0  0
  2  1  1  0  0  0  0
  3 17  1  6  0  0  0
  3  4  1  0  0  0  0
  4  1  1  0  0  0  0
  5  3  1  0  0  0  0
  5  2  1  0  0  0  0
  7  6  2  0  0  0  0
  8 10  1  0  0  0  0
  9  6  1  6  0  0  0
  9 15  1  0  0  0  0
 11  8  2  0  0  0  0
 12 14  2  0  0  0  0
 12  9  1  0  0  0  0
 13 15  2  0  0  0  0
 13 11  1  0  0  0  0
 14 13  1  0  0  0  0
 15 16  1  0  0  0  0
 16 10  2  0  0  0  0
 17 22  1  6  0  0  0
 19 17  1  6  0  0  0
 19 18  1  0  0  0  0
 20 18  1  0  0  0  0
 21 20  1  0  0  0  0
 21 19  1  0  0  0  0
 23 22  1  0  0  0  0
 24 23  2  0  0  0  0
 25 23  1  0  0  0  0
M  END
>  <MODEL>
1

>  <REMARK>
 VINA RESULT:      -7.8      0.000      0.000
  Name = 
  6 active torsions:
  status: ('A' for Active; 'I' for Inactive)
    1  A    between atoms: O_1  and  C_2
    2  A    between atoms: O_1  and  C_13
    3  A    between atoms: C_5  and  C_17
    4  A    between atoms: C_7  and  C_13
    5  A    between atoms: C_8  and  C_17
    6  A    between atoms: C_10  and  C_13
                            x       y       z     vdW  Elec       q    Type
                         _______ _______ _______ _____ _____    ______ ____

>  <TORSDO>
F 6

$$$$
=
 OpenBabel10232409453D

 25 28  0  0  1  0  0  0  0  0999 V2000
  185.0650  178.6290  141.6330 C   0  0  0  0  0  2  0  0  0  0  0  0
  185.8600  177.9370  142.7190 C   0  0  1  0  0  3  0  0  0  0  0  0
  187.3700  178.7930  141.2620 C   0  0  1  0  0  3  0  0  0  0  0  0
  186.0530  178.7780  140.5270 C   0  0  0  0  0  2  0  0  0  0  0  0
  187.2370  178.0070  142.4220 O   0  0  0  0  0  0  0  0  0  0  0  0
  185.5550  178.5400  144.0620 C   0  0  0  0  0  0  0  0  0  0  0  0
  185.1780  179.7660  144.1270 N   0  0  0  0  0  2  0  0  0  0  0  0
  189.4160  177.7570  147.2170 C   0  0  0  0  0  3  0  0  0  0  0  0
  185.6480  177.7060  145.3140 C   0  0  2  0  0  3  0  0  0  0  0  0
  189.3820  177.1990  145.9260 C   0  0  0  0  0  3  0  0  0  0  0  0
  188.2760  178.2450  147.7870 N   0  0  0  0  0  0  0  0  0  0  0  0
  184.8280  178.3300  146.4580 C   0  0  0  0  0  3  0  0  0  0  0  0
  187.1020  178.1950  147.1050 C   0  0  0  0  0  0  0  0  0  0  0  0
  185.7960  178.6700  147.6040 C   0  0  0  0  0  3  0  0  0  0  0  0
  187.0300  177.6680  145.8460 C   0  0  0  0  0  0  0  0  0  0  0  0
  188.1670  177.1490  145.2280 C   0  0  0  0  0  3  0  0  0  0  0  0
  188.5000  178.2650  140.3770 C   0  0  2  0  0  3  0  0  0  0  0  0
  188.6590  179.1060  138.1130 O   0  0  0  0  0  0  0  0  0  0  0  0
  188.0310  178.1410  138.9210 C   0  0  1  0  0  3  0  0  0  0  0  0
  189.3320  178.1060  137.3950 C   0  0  0  0  0  2  0  0  0  0  0  0
  188.7220  177.0050  138.2160 C   0  0  0  0  0  2  0  0  0  0  0  0
  188.9160  176.9870  140.8520 O   0  0  0  0  0  0  0  0  0  0  0  0
  190.1870  176.7700  141.3880 C   0  0  0  0  0  0  0  0  0  0  0  0
  191.2060  177.2990  140.8690 O   0  0  0  0  0  0  0  0  0  0  0  0
  190.3280  175.9680  142.5120 O   0  0  0  0  0  1  0  0  0  0  0  0
  1  2  1  0  0  0  0
  2  6  1  1  0  0  0
  3 17  1  6  0  0  0
  3  5  1  0  0  0  0
  4  3  1  0  0  0  0
  4  1  1  0  0  0  0
  5  2  1  0  0  0  0
  6  7  2  0  0  0  0
  8 11  1  0  0  0  0
  9  6  1  6  0  0  0
  9 15  1  0  0  0  0
  9 12  1  0  0  0  0
 10  8  2  0  0  0  0
 12 14  2  0  0  0  0
 13 14  1  0  0  0  0
 13 11  2  0  0  0  0
 15 13  1  0  0  0  0
 16 15  2  0  0  0  0
 16 10  1  0  0  0  0
 17 22  1  1  0  0  0
 18 19  1  0  0  0  0
 19 17  1  1  0  0  0
 20 18  1  0  0  0  0
 20 21  1  0  0  0  0
 21 19  1  0  0  0  0
 22 23  1  0  0  0  0
 23 25  1  0  0  0  0
 24 23  2  0  0  0  0
M  END
>  <MODEL>
2

>  <REMARK>
 VINA RESULT:      -7.6      3.042      5.207
  Name = 
  6 active torsions:
  status: ('A' for Active; 'I' for Inactive)
    1  A    between atoms: O_1  and  C_2
    2  A    between atoms: O_1  and  C_13
    3  A    between atoms: C_5  and  C_17
    4  A    between atoms: C_7  and  C_13
    5  A    between atoms: C_8  and  C_17
    6  A    between atoms: C_10  and  C_13
                            x       y       z     vdW  Elec       q    Type
                         _______ _______ _______ _____ _____    ______ ____

>  <TORSDO>
F 6

$$$$
=
 OpenBabel10232409453D

 25 28  0  0  1  0  0  0  0  0999 V2000
  191.7380  177.6380  141.5530 C   0  0  0  0  0  2  0  0  0  0  0  0
  190.2720  177.6440  141.9320 C   0  0  1  0  0  3  0  0  0  0  0  0
  190.4290  176.4960  139.9840 C   0  0  1  0  0  3  0  0  0  0  0  0
  191.7170  177.2720  140.1080 C   0  0  0  0  0  2  0  0  0  0  0  0
  189.5170  177.0020  140.9290 O   0  0  0  0  0  0  0  0  0  0  0  0
  190.0700  176.9950  143.2730 C   0  0  0  0  0  0  0  0  0  0  0  0
  189.7130  175.7630  143.3260 N   0  0  0  0  0  2  0  0  0  0  0  0
  187.4210  177.2480  147.5600 C   0  0  0  0  0  3  0  0  0  0  0  0
  190.3260  177.7670  144.5420 C   0  0  2  0  0  3  0  0  0  0  0  0
  186.9770  177.8560  146.3720 C   0  0  0  0  0  3  0  0  0  0  0  0
  188.7230  176.8620  147.6920 N   0  0  0  0  0  0  0  0  0  0  0  0
  191.5300  177.1890  145.3090 C   0  0  0  0  0  3  0  0  0  0  0  0
  189.5960  177.0610  146.6700 C   0  0  0  0  0  0  0  0  0  0  0  0
  191.0290  176.7070  146.6810 C   0  0  0  0  0  3  0  0  0  0  0  0
  189.2010  177.6390  145.4970 C   0  0  0  0  0  0  0  0  0  0  0  0
  187.8820  178.0590  145.3220 C   0  0  0  0  0  3  0  0  0  0  0  0
  189.8580  176.6030  138.5690 C   0  0  2  0  0  3  0  0  0  0  0  0
  190.8550  174.4590  138.0530 O   0  0  0  0  0  0  0  0  0  0  0  0
  190.6960  175.7760  137.5850 C   0  0  1  0  0  3  0  0  0  0  0  0
  190.1110  173.9580  136.9740 C   0  0  0  0  0  2  0  0  0  0  0  0
  189.8760  175.3280  136.4050 C   0  0  0  0  0  2  0  0  0  0  0  0
  189.8570  177.9690  138.1600 O   0  0  0  0  0  0  0  0  0  0  0  0
  188.6780  178.7010  138.0110 C   0  0  0  0  0  0  0  0  0  0  0  0
  188.5840  179.6040  137.1380 O   0  0  0  0  0  0  0  0  0  0  0  0
  187.5920  178.4230  138.8300 O   0  0  0  0  0  1  0  0  0  0  0  0
  1  2  1  0  0  0  0
  2  6  1  1  0  0  0
  3 17  1  6  0  0  0
  3  4  1  0  0  0  0
  3  5  1  0  0  0  0
  4  1  1  0  0  0  0
  5  2  1  0  0  0  0
  6  7  2  0  0  0  0
  8 11  1  0  0  0  0
  9  6  1  6  0  0  0
  9 12  1  0  0  0  0
  9 15  1  0  0  0  0
 10  8  2  0  0  0  0
 12 14  2  0  0  0  0
 13 14  1  0  0  0  0
 13 11  2  0  0  0  0
 15 13  1  0  0  0  0
 16 15  2  0  0  0  0
 16 10  1  0  0  0  0
 17 22  1  6  0  0  0
 19 18  1  0  0  0  0
 19 17  1  1  0  0  0
 20 18  1  0  0  0  0
 21 20  1  0  0  0  0
 21 19  1  0  0  0  0
 23 22  1  0  0  0  0
 23 25  1  0  0  0  0
 24 23  2  0  0  0  0
M  END
>  <MODEL>
3

>  <REMARK>
 VINA RESULT:      -7.6      3.679      5.897
  Name = 
  6 active torsions:
  status: ('A' for Active; 'I' for Inactive)
    1  A    between atoms: O_1  and  C_2
    2  A    between atoms: O_1  and  C_13
    3  A    between atoms: C_5  and  C_17
    4  A    between atoms: C_7  and  C_13
    5  A    between atoms: C_8  and  C_17
    6  A    between atoms: C_10  and  C_13
                            x       y       z     vdW  Elec       q    Type
                         _______ _______ _______ _____ _____    ______ ____

>  <TORSDO>
F 6

$$$$
=
 OpenBabel10232409453D

 25 28  0  0  1  0  0  0  0  0999 V2000
  188.4560  178.3630  141.8580 C   0  0  0  0  0  2  0  0  0  0  0  0
  188.8030  176.8910  141.8020 C   0  0  1  0  0  3  0  0  0  0  0  0
  189.4840  177.7880  139.8360 C   0  0  1  0  0  3  0  0  0  0  0  0
  188.5200  178.7850  140.4300 C   0  0  0  0  0  2  0  0  0  0  0  0
  189.3610  176.5790  140.5450 O   0  0  0  0  0  0  0  0  0  0  0  0
  189.7350  176.5250  142.9240 C   0  0  0  0  0  0  0  0  0  0  0  0
  190.2200  175.3370  142.9730 N   0  0  0  0  0  2  0  0  0  0  0  0
  188.1900  177.1710  147.6840 C   0  0  0  0  0  3  0  0  0  0  0  0
  190.1310  177.5510  143.9550 C   0  0  2  0  0  3  0  0  0  0  0  0
  187.3650  177.4700  146.5850 C   0  0  0  0  0  3  0  0  0  0  0  0
  189.5350  177.0190  147.5150 N   0  0  0  0  0  0  0  0  0  0  0  0
  191.5710  177.3170  144.4440 C   0  0  0  0  0  3  0  0  0  0  0  0
  190.0830  177.1530  146.2790 C   0  0  0  0  0  0  0  0  0  0  0  0
  191.5170  177.0300  145.9550 C   0  0  0  0  0  3  0  0  0  0  0  0
  189.3130  177.4350  145.1850 C   0  0  0  0  0  0  0  0  0  0  0  0
  187.9350  177.6090  145.3120 C   0  0  0  0  0  3  0  0  0  0  0  0
  189.2040  177.5730  138.3470 C   0  0  2  0  0  3  0  0  0  0  0  0
  187.8750  179.0980  137.0180 O   0  0  0  0  0  0  0  0  0  0  0  0
  187.8010  178.0780  137.9840 C   0  0  1  0  0  3  0  0  0  0  0  0
  187.2190  178.2900  136.0760 C   0  0  0  0  0  2  0  0  0  0  0  0
  187.1070  177.1390  137.0340 C   0  0  0  0  0  2  0  0  0  0  0  0
  189.3020  176.1840  138.0430 O   0  0  0  0  0  0  0  0  0  0  0  0
  190.4300  175.6340  137.4310 C   0  0  0  0  0  0  0  0  0  0  0  0
  190.7940  176.0140  136.2870 O   0  0  0  0  0  0  0  0  0  0  0  0
  191.1640  174.6620  138.0960 O   0  0  0  0  0  1  0  0  0  0  0  0
  2  1  1  0  0  0  0
  2  6  1  1  0  0  0
  3 17  1  6  0  0  0
  3  4  1  0  0  0  0
  3  5  1  0  0  0  0
  4  1  1  0  0  0  0
  5  2  1  0  0  0  0
  6  7  2  0  0  0  0
  9  6  1  6  0  0  0
  9 12  1  0  0  0  0
  9 15  1  0  0  0  0
 10  8  2  0  0  0  0
 11  8  1  0  0  0  0
 12 14  2  0  0  0  0
 13 11  2  0  0  0  0
 14 13  1  0  0  0  0
 15 16  2  0  0  0  0
 15 13  1  0  0  0  0
 16 10  1  0  0  0  0
 17 22  1  1  0  0  0
 18 19  1  0  0  0  0
 19 17  1  6  0  0  0
 20 18  1  0  0  0  0
 20 21  1  0  0  0  0
 21 19  1  0  0  0  0
 23 22  1  0  0  0  0
 23 25  1  0  0  0  0
 24 23  2  0  0  0  0
M  END
>  <MODEL>
4

>  <REMARK>
 VINA RESULT:      -7.6      3.809      5.090
  Name = 
  6 active torsions:
  status: ('A' for Active; 'I' for Inactive)
    1  A    between atoms: O_1  and  C_2
    2  A    between atoms: O_1  and  C_13
    3  A    between atoms: C_5  and  C_17
    4  A    between atoms: C_7  and  C_13
    5  A    between atoms: C_8  and  C_17
    6  A    between atoms: C_10  and  C_13
                            x       y       z     vdW  Elec       q    Type
                         _______ _______ _______ _____ _____    ______ ____

>  <TORSDO>
F 6

$$$$
=
 OpenBabel10232409453D

 25 28  0  0  1  0  0  0  0  0999 V2000
  183.9530  178.7690  145.0290 C   0  0  0  0  0  2  0  0  0  0  0  0
  185.3200  178.1210  144.9720 C   0  0  1  0  0  3  0  0  0  0  0  0
  185.1770  179.4800  143.1650 C   0  0  1  0  0  3  0  0  0  0  0  0
  183.7590  179.2820  143.6430 C   0  0  0  0  0  2  0  0  0  0  0  0
  185.9940  178.5300  143.8030 O   0  0  0  0  0  0  0  0  0  0  0  0
  186.1120  178.4490  146.2070 C   0  0  0  0  0  0  0  0  0  0  0  0
  185.9390  179.5870  146.7780 N   0  0  0  0  0  2  0  0  0  0  0  0
  190.8170  177.2000  144.8790 C   0  0  0  0  0  3  0  0  0  0  0  0
  187.0630  177.4400  146.7960 C   0  0  2  0  0  3  0  0  0  0  0  0
  189.7010  176.8360  144.1030 C   0  0  0  0  0  3  0  0  0  0  0  0
  190.6550  177.6020  146.1720 N   0  0  0  0  0  0  0  0  0  0  0  0
  187.5650  177.8930  148.1800 C   0  0  0  0  0  3  0  0  0  0  0  0
  189.4110  177.6570  146.7150 C   0  0  0  0  0  0  0  0  0  0  0  0
  189.0920  178.0580  148.0990 C   0  0  0  0  0  3  0  0  0  0  0  0
  188.3010  177.3200  145.9910 C   0  0  0  0  0  0  0  0  0  0  0  0
  188.4200  176.8940  144.6680 C   0  0  0  0  0  3  0  0  0  0  0  0
  185.2680  179.3400  141.6440 C   0  0  2  0  0  3  0  0  0  0  0  0
  183.7510  179.6750  139.7890 O   0  0  0  0  0  0  0  0  0  0  0  0
  183.8840  179.0560  141.0440 C   0  0  1  0  0  3  0  0  0  0  0  0
  183.6650  178.4270  139.1530 C   0  0  0  0  0  2  0  0  0  0  0  0
  183.8160  177.6770  140.4460 C   0  0  0  0  0  2  0  0  0  0  0  0
  186.1540  178.2710  141.3200 O   0  0  0  0  0  0  0  0  0  0  0  0
  187.3620  178.4820  140.6530 C   0  0  0  0  0  0  0  0  0  0  0  0
  188.4350  178.6370  141.2940 O   0  0  0  0  0  1  0  0  0  0  0  0
  187.3820  178.5130  139.2650 O   0  0  0  0  0  0  0  0  0  0  0  0
  2  1  1  0  0  0  0
  2  6  1  1  0  0  0
  3 17  1  6  0  0  0
  3  4  1  0  0  0  0
  3  5  1  0  0  0  0
  4  1  1  0  0  0  0
  5  2  1  0  0  0  0
  6  7  2  0  0  0  0
  8 11  1  0  0  0  0
  9  6  1  6  0  0  0
  9 12  1  0  0  0  0
 10 16  1  0  0  0  0
 10  8  2  0  0  0  0
 11 13  2  0  0  0  0
 13 14  1  0  0  0  0
 14 12  2  0  0  0  0
 15 13  1  0  0  0  0
 15  9  1  0  0  0  0
 16 15  2  0  0  0  0
 17 22  1  1  0  0  0
 18 19  1  0  0  0  0
 19 17  1  6  0  0  0
 20 18  1  0  0  0  0
 20 21  1  0  0  0  0
 21 19  1  0  0  0  0
 23 24  1  0  0  0  0
 23 22  1  0  0  0  0
 25 23  2  0  0  0  0
M  END
>  <MODEL>
5

>  <REMARK>
 VINA RESULT:      -7.6      1.920      3.113
  Name = 
  6 active torsions:
  status: ('A' for Active; 'I' for Inactive)
    1  A    between atoms: O_1  and  C_2
    2  A    between atoms: O_1  and  C_13
    3  A    between atoms: C_5  and  C_17
    4  A    between atoms: C_7  and  C_13
    5  A    between atoms: C_8  and  C_17
    6  A    between atoms: C_10  and  C_13
                            x       y       z     vdW  Elec       q    Type
                         _______ _______ _______ _____ _____    ______ ____

>  <TORSDO>
F 6

$$$$
=
 OpenBabel10232409453D

 25 28  0  0  1  0  0  0  0  0999 V2000
  186.1950  178.4950  144.8700 C   0  0  0  0  0  2  0  0  0  0  0  0
  186.4290  177.2460  144.0480 C   0  0  1  0  0  3  0  0  0  0  0  0
  185.0800  178.5840  142.8140 C   0  0  1  0  0  3  0  0  0  0  0  0
  184.9990  179.1100  144.2260 C   0  0  0  0  0  2  0  0  0  0  0  0
  185.6900  177.3160  142.8500 O   0  0  0  0  0  0  0  0  0  0  0  0
  187.8970  177.0580  143.7800 C   0  0  0  0  0  0  0  0  0  0  0  0
  188.2800  176.0640  143.0620 N   0  0  0  0  0  2  0  0  0  0  0  0
  191.4170  176.5710  147.3620 C   0  0  0  0  0  3  0  0  0  0  0  0
  188.9040  178.0470  144.3080 C   0  0  2  0  0  3  0  0  0  0  0  0
  190.0460  176.6390  147.6680 C   0  0  0  0  0  3  0  0  0  0  0  0
  191.8710  176.9680  146.1380 N   0  0  0  0  0  0  0  0  0  0  0  0
  189.9950  178.3380  143.2630 C   0  0  0  0  0  3  0  0  0  0  0  0
  190.9950  177.4280  145.2070 C   0  0  0  0  0  0  0  0  0  0  0  0
  191.3460  177.9010  143.8540 C   0  0  0  0  0  3  0  0  0  0  0  0
  189.6540  177.5000  145.4630 C   0  0  0  0  0  0  0  0  0  0  0  0
  189.1470  177.1140  146.7040 C   0  0  0  0  0  3  0  0  0  0  0  0
  183.6910  178.4980  142.1790 C   0  0  2  0  0  3  0  0  0  0  0  0
  184.9790  179.5660  140.4310 O   0  0  0  0  0  0  0  0  0  0  0  0
  183.6760  179.2040  140.8170 C   0  0  1  0  0  3  0  0  0  0  0  0
  184.9340  178.6780  139.3450 C   0  0  0  0  0  2  0  0  0  0  0  0
  183.5460  178.2170  139.6880 C   0  0  0  0  0  2  0  0  0  0  0  0
  182.7370  179.1130  143.0420 O   0  0  0  0  0  0  0  0  0  0  0  0
  181.3820  179.1910  142.7180 C   0  0  0  0  0  0  0  0  0  0  0  0
  180.7210  180.2380  142.9510 O   0  0  0  0  0  1  0  0  0  0  0  0
  180.7560  178.1040  142.1230 O   0  0  0  0  0  0  0  0  0  0  0  0
  2  6  1  6  0  0  0
  2  1  1  0  0  0  0
  3 17  1  1  0  0  0
  3  5  1  0  0  0  0
  3  4  1  0  0  0  0
  4  1  1  0  0  0  0
  5  2  1  0  0  0  0
  7  6  2  0  0  0  0
  8 10  1  0  0  0  0
  9  6  1  6  0  0  0
  9 15  1  0  0  0  0
 11  8  2  0  0  0  0
 12 14  2  0  0  0  0
 12  9  1  0  0  0  0
 13 15  2  0  0  0  0
 13 11  1  0  0  0  0
 14 13  1  0  0  0  0
 15 16  1  0  0  0  0
 16 10  2  0  0  0  0
 17 22  1  1  0  0  0
 18 19  1  0  0  0  0
 19 17  1  1  0  0  0
 20 21  1  0  0  0  0
 20 18  1  0  0  0  0
 21 19  1  0  0  0  0
 23 24  1  0  0  0  0
 23 22  1  0  0  0  0
 25 23  2  0  0  0  0
M  END
>  <MODEL>
6

>  <REMARK>
 VINA RESULT:      -7.5      0.834      2.451
  Name = 
  6 active torsions:
  status: ('A' for Active; 'I' for Inactive)
    1  A    between atoms: O_1  and  C_2
    2  A    between atoms: O_1  and  C_13
    3  A    between atoms: C_5  and  C_17
    4  A    between atoms: C_7  and  C_13
    5  A    between atoms: C_8  and  C_17
    6  A    between atoms: C_10  and  C_13
                            x       y       z     vdW  Elec       q    Type
                         _______ _______ _______ _____ _____    ______ ____

>  <TORSDO>
F 6

$$$$
=
 OpenBabel10232409453D

 25 28  0  0  1  0  0  0  0  0999 V2000
  191.9820  177.2860  141.4980 C   0  0  0  0  0  2  0  0  0  0  0  0
  190.9040  177.6640  142.4920 C   0  0  1  0  0  3  0  0  0  0  0  0
  189.8360  177.0190  140.6010 C   0  0  1  0  0  3  0  0  0  0  0  0
  191.2620  177.2960  140.1920 C   0  0  0  0  0  2  0  0  0  0  0  0
  189.6350  177.5480  141.8890 O   0  0  0  0  0  0  0  0  0  0  0  0
  191.0060  176.8160  143.7290 C   0  0  0  0  0  0  0  0  0  0  0  0
  191.0590  175.5380  143.6090 N   0  0  0  0  0  2  0  0  0  0  0  0
  187.5350  177.2930  147.3600 C   0  0  0  0  0  3  0  0  0  0  0  0
  191.0910  177.4560  145.0900 C   0  0  2  0  0  3  0  0  0  0  0  0
  187.4750  178.0370  146.1680 C   0  0  0  0  0  3  0  0  0  0  0  0
  188.6930  176.6730  147.7280 N   0  0  0  0  0  0  0  0  0  0  0  0
  191.9800  176.6290  146.0370 C   0  0  0  0  0  3  0  0  0  0  0  0
  189.7950  176.7710  146.9380 C   0  0  0  0  0  0  0  0  0  0  0  0
  191.1120  176.1670  147.2190 C   0  0  0  0  0  3  0  0  0  0  0  0
  189.7730  177.4770  145.7680 C   0  0  0  0  0  0  0  0  0  0  0  0
  188.6140  178.1350  145.3580 C   0  0  0  0  0  3  0  0  0  0  0  0
  188.8500  177.6300  139.6040 C   0  0  2  0  0  3  0  0  0  0  0  0
  189.3820  177.0900  137.3050 O   0  0  0  0  0  0  0  0  0  0  0  0
  189.5740  178.0480  138.3170 C   0  0  1  0  0  3  0  0  0  0  0  0
  188.6570  178.0100  136.5330 C   0  0  0  0  0  2  0  0  0  0  0  0
  188.7960  179.0940  137.5640 C   0  0  0  0  0  2  0  0  0  0  0  0
  188.2290  178.7710  140.1910 O   0  0  0  0  0  0  0  0  0  0  0  0
  186.8810  178.7800  140.5540 C   0  0  0  0  0  0  0  0  0  0  0  0
  185.9760  178.7880  139.6770 O   0  0  0  0  0  0  0  0  0  0  0  0
  186.5330  178.7710  141.8970 O   0  0  0  0  0  1  0  0  0  0  0  0
  1  2  1  0  0  0  0
  2  6  1  1  0  0  0
  3 17  1  6  0  0  0
  3  5  1  0  0  0  0
  4  3  1  0  0  0  0
  4  1  1  0  0  0  0
  5  2  1  0  0  0  0
  7  6  2  0  0  0  0
  8 11  1  0  0  0  0
  9  6  1  6  0  0  0
  9 15  1  0  0  0  0
  9 12  1  0  0  0  0
 10  8  2  0  0  0  0
 12 14  2  0  0  0  0
 13 14  1  0  0  0  0
 13 11  2  0  0  0  0
 15 13  1  0  0  0  0
 16 15  2  0  0  0  0
 16 10  1  0  0  0  0
 17 22  1  1  0  0  0
 18 19  1  0  0  0  0
 19 17  1  1  0  0  0
 20 18  1  0  0  0  0
 20 21  1  0  0  0  0
 21 19  1  0  0  0  0
 22 23  1  0  0  0  0
 23 25  1  0  0  0  0
 24 23  2  0  0  0  0
M  END
>  <MODEL>
7

>  <REMARK>
 VINA RESULT:      -7.4      2.784      5.146
  Name = 
  6 active torsions:
  status: ('A' for Active; 'I' for Inactive)
    1  A    between atoms: O_1  and  C_2
    2  A    between atoms: O_1  and  C_13
    3  A    between atoms: C_5  and  C_17
    4  A    between atoms: C_7  and  C_13
    5  A    between atoms: C_8  and  C_17
    6  A    between atoms: C_10  and  C_13
                            x       y       z     vdW  Elec       q    Type
                         _______ _______ _______ _____ _____    ______ ____

>  <TORSDO>
F 6

$$$$
=
 OpenBabel10232409453D

 25 28  0  0  1  0  0  0  0  0999 V2000
  188.2330  178.4230  140.6030 C   0  0  0  0  0  2  0  0  0  0  0  0
  188.8410  177.2280  141.3060 C   0  0  1  0  0  3  0  0  0  0  0  0
  190.1740  177.6770  139.5290 C   0  0  1  0  0  3  0  0  0  0  0  0
  188.8740  178.3920  139.2570 C   0  0  0  0  0  2  0  0  0  0  0  0
  189.9680  176.7750  140.5900 O   0  0  0  0  0  0  0  0  0  0  0  0
  189.1920  177.5730  142.7260 C   0  0  0  0  0  0  0  0  0  0  0  0
  189.9020  178.6170  142.9600 N   0  0  0  0  0  2  0  0  0  0  0  0
  190.9150  177.0220  147.4370 C   0  0  0  0  0  3  0  0  0  0  0  0
  188.6820  176.7310  143.8670 C   0  0  2  0  0  3  0  0  0  0  0  0
  191.5890  176.4800  146.3280 C   0  0  0  0  0  3  0  0  0  0  0  0
  189.6150  177.4200  147.3260 N   0  0  0  0  0  0  0  0  0  0  0  0
  187.3490  177.2800  144.4080 C   0  0  0  0  0  3  0  0  0  0  0  0
  188.9670  177.2970  146.1380 C   0  0  0  0  0  0  0  0  0  0  0  0
  187.5630  177.6720  145.8810 C   0  0  0  0  0  3  0  0  0  0  0  0
  189.5900  176.7830  145.0360 C   0  0  0  0  0  0  0  0  0  0  0  0
  190.9150  176.3540  145.1060 C   0  0  0  0  0  3  0  0  0  0  0  0
  190.6680  176.9410  138.2820 C   0  0  2  0  0  3  0  0  0  0  0  0
  189.1150  176.5350  136.4700 O   0  0  0  0  0  0  0  0  0  0  0  0
  189.5610  176.0450  137.7110 C   0  0  1  0  0  3  0  0  0  0  0  0
  189.6050  175.3950  135.8140 C   0  0  0  0  0  2  0  0  0  0  0  0
  190.1300  174.7980  137.0890 C   0  0  0  0  0  2  0  0  0  0  0  0
  191.7990  176.1420  138.6200 O   0  0  0  0  0  0  0  0  0  0  0  0
  193.1060  176.6220  138.5190 C   0  0  0  0  0  0  0  0  0  0  0  0
  193.7470  176.5280  137.4380 O   0  0  0  0  0  0  0  0  0  0  0  0
  193.7030  177.2190  139.6200 O   0  0  0  0  0  1  0  0  0  0  0  0
  1  2  1  0  0  0  0
  2  6  1  1  0  0  0
  3 17  1  6  0  0  0
  3  5  1  0  0  0  0
  4  3  1  0  0  0  0
  4  1  1  0  0  0  0
  5  2  1  0  0  0  0
  6  7  2  0  0  0  0
  9  6  1  6  0  0  0
  9 12  1  0  0  0  0
  9 15  1  0  0  0  0
 10  8  2  0  0  0  0
 11  8  1  0  0  0  0
 12 14  2  0  0  0  0
 13 11  2  0  0  0  0
 14 13  1  0  0  0  0
 15 16  2  0  0  0  0
 15 13  1  0  0  0  0
 16 10  1  0  0  0  0
 17 22  1  1  0  0  0
 18 19  1  0  0  0  0
 19 17  1  6  0  0  0
 20 18  1  0  0  0  0
 20 21  1  0  0  0  0
 21 19  1  0  0  0  0
 23 22  1  0  0  0  0
 23 25  1  0  0  0  0
 24 23  2  0  0  0  0
M  END
>  <MODEL>
8

>  <REMARK>
 VINA RESULT:      -7.4      4.372      6.312
  Name = 
  6 active torsions:
  status: ('A' for Active; 'I' for Inactive)
    1  A    between atoms: O_1  and  C_2
    2  A    between atoms: O_1  and  C_13
    3  A    between atoms: C_5  and  C_17
    4  A    between atoms: C_7  and  C_13
    5  A    between atoms: C_8  and  C_17
    6  A    between atoms: C_10  and  C_13
                            x       y       z     vdW  Elec       q    Type
                         _______ _______ _______ _____ _____    ______ ____

>  <TORSDO>
F 6

$$$$
=
 OpenBabel10232409453D

 25 28  0  0  1  0  0  0  0  0999 V2000
  184.6080  178.3220  146.4580 C   0  0  0  0  0  2  0  0  0  0  0  0
  185.7180  177.6980  145.6390 C   0  0  1  0  0  3  0  0  0  0  0  0
  184.7110  179.2250  144.3010 C   0  0  1  0  0  3  0  0  0  0  0  0
  183.7430  178.9660  145.4290 C   0  0  0  0  0  2  0  0  0  0  0  0
  185.7010  178.2260  144.3320 O   0  0  0  0  0  0  0  0  0  0  0  0
  187.0500  177.9140  146.3030 C   0  0  0  0  0  0  0  0  0  0  0  0
  187.2130  178.9380  147.0600 N   0  0  0  0  0  2  0  0  0  0  0  0
  191.3630  178.2500  143.7070 C   0  0  0  0  0  3  0  0  0  0  0  0
  188.1660  176.9180  146.1200 C   0  0  2  0  0  3  0  0  0  0  0  0
  190.1160  178.1270  143.0680 C   0  0  0  0  0  3  0  0  0  0  0  0
  191.4930  177.9480  145.0310 N   0  0  0  0  0  0  0  0  0  0  0  0
  188.9570  176.7250  147.4260 C   0  0  0  0  0  3  0  0  0  0  0  0
  190.4120  177.5300  145.7400 C   0  0  0  0  0  0  0  0  0  0  0  0
  190.4100  177.1570  147.1680 C   0  0  0  0  0  3  0  0  0  0  0  0
  189.1810  177.4060  145.1570 C   0  0  0  0  0  0  0  0  0  0  0  0
  189.0050  177.6940  143.8040 C   0  0  0  0  0  3  0  0  0  0  0  0
  183.9910  179.2330  142.9510 C   0  0  2  0  0  3  0  0  0  0  0  0
  181.6670  179.8140  143.2950 O   0  0  0  0  0  0  0  0  0  0  0  0
  182.5480  178.7340  143.1060 C   0  0  1  0  0  3  0  0  0  0  0  0
  181.0360  179.5480  142.0700 C   0  0  0  0  0  2  0  0  0  0  0  0
  181.9410  178.3860  141.7730 C   0  0  0  0  0  2  0  0  0  0  0  0
  184.6890  178.3910  142.0380 O   0  0  0  0  0  0  0  0  0  0  0  0
  185.4910  178.9040  141.0170 C   0  0  0  0  0  0  0  0  0  0  0  0
  186.7450  178.7920  141.0610 O   0  0  0  0  0  1  0  0  0  0  0  0
  184.8990  179.5390  139.9330 O   0  0  0  0  0  0  0  0  0  0  0  0
  2  6  1  1  0  0  0
  2  1  1  0  0  0  0
  3 17  1  6  0  0  0
  3  5  1  0  0  0  0
  3  4  1  0  0  0  0
  4  1  1  0  0  0  0
  5  2  1  0  0  0  0
  6  7  2  0  0  0  0
  8 11  1  0  0  0  0
  9  6  1  1  0  0  0
  9 12  1  0  0  0  0
 10  8  2  0  0  0  0
 10 16  1  0  0  0  0
 11 13  2  0  0  0  0
 13 14  1  0  0  0  0
 14 12  2  0  0  0  0
 15 13  1  0  0  0  0
 15  9  1  0  0  0  0
 16 15  2  0  0  0  0
 17 22  1  6  0  0  0
 19 17  1  6  0  0  0
 19 18  1  0  0  0  0
 20 18  1  0  0  0  0
 21 20  1  0  0  0  0
 21 19  1  0  0  0  0
 23 24  1  0  0  0  0
 23 22  1  0  0  0  0
 25 23  2  0  0  0  0
M  END
>  <MODEL>
9

>  <REMARK>
 VINA RESULT:      -7.3      1.528      2.548
  Name = 
  6 active torsions:
  status: ('A' for Active; 'I' for Inactive)
    1  A    between atoms: O_1  and  C_2
    2  A    between atoms: O_1  and  C_13
    3  A    between atoms: C_5  and  C_17
    4  A    between atoms: C_7  and  C_13
    5  A    between atoms: C_8  and  C_17
    6  A    between atoms: C_10  and  C_13
                            x       y       z     vdW  Elec       q    Type
                         _______ _______ _______ _____ _____    ______ ____

>  <TORSDO>
F 6

$$$$
