=
 OpenBabel10222421473D

 31 33  0  0  1  0  0  0  0  0999 V2000
  191.1050  176.9560  141.6760 N   0  0  0  0  0  2  0  0  0  0  0  0
  188.4270  178.1570  140.8910 N   0  0  0  0  0  0  0  0  0  0  0  0
  189.3190  177.7230  140.0420 C   0  0  0  0  0  0  0  0  0  0  0  0
  191.7790  177.9790  143.7630 C   0  0  0  0  0  1  0  0  0  0  0  0
  190.8550  175.9780  139.5950 O   0  0  0  0  0  0  0  0  0  0  0  0
  190.4420  176.8370  140.4190 C   0  0  0  0  0  0  0  0  0  0  0  0
  188.3410  177.9520  142.3170 C   0  0  0  0  0  0  0  0  0  0  0  0
  189.4240  177.9030  143.1010 C   0  0  0  0  0  3  0  0  0  0  0  0
  190.8160  178.0380  142.5960 C   0  0  2  0  0  3  0  0  0  0  0  0
  186.9980  177.9080  142.9440 C   0  0  0  0  0  0  0  0  0  0  0  0
  185.1610  178.5190  145.3400 C   0  0  0  0  0  0  0  0  0  0  0  0
  182.7790  178.7880  144.4710 C   0  0  0  0  0  1  0  0  0  0  0  0
  184.6140  178.6840  142.9060 C   0  0  0  0  0  3  0  0  0  0  0  0
  184.2300  178.6110  144.1890 C   0  0  0  0  0  0  0  0  0  0  0  0
  185.9930  178.5900  142.3830 C   0  0  0  0  0  3  0  0  0  0  0  0
  186.3020  177.8280  145.3120 C   0  0  0  0  0  3  0  0  0  0  0  0
  186.7470  177.0290  144.1330 C   0  0  0  0  0  2  0  0  0  0  0  0
  184.8220  179.1630  146.5240 O   0  0  0  0  0  1  0  0  0  0  0  0
  190.2690  177.6660  137.8570 O   0  0  0  0  0  1  0  0  0  0  0  0
  189.1470  178.0580  138.5900 C   0  0  1  0  0  3  0  0  0  0  0  0
  187.8610  176.2260  137.8700 O   0  0  0  0  0  0  0  0  0  0  0  0
  187.9060  177.4370  138.0240 C   0  0  0  0  0  0  0  0  0  0  0  0
  186.7390  178.2900  137.6270 C   0  0  1  0  0  3  0  0  0  0  0  0
  187.1120  179.1610  136.6010 O   0  0  0  0  0  1  0  0  0  0  0  0
  185.5730  177.4250  137.1800 C   0  0  0  0  0  2  0  0  0  0  0  0
  183.3590  176.5280  138.2060 S   0  0  0  0  0  0  0  0  0  0  0  0
  182.1600  178.9280  139.0150 C   0  0  0  0  0  2  0  0  0  0  0  0
  183.5090  179.5380  139.4000 C   0  0  0  0  0  2  0  0  0  0  0  0
  184.6860  178.6760  138.9420 C   0  0  0  0  0  2  0  0  0  0  0  0
  182.1490  177.4250  139.2620 C   0  0  0  0  0  2  0  0  0  0  0  0
  184.3340  177.9400  137.7360 N   0  0  0  0  0  0  0  0  0  0  0  0
  1  9  1  0  0  0  0
  2  7  1  0  0  0  0
  3  6  1  0  0  0  0
  3  2  2  0  0  0  0
  5  6  2  0  0  0  0
  6  1  1  0  0  0  0
  7 10  1  0  0  0  0
  7  8  2  0  0  0  0
  9  8  1  0  0  0  0
  9  4  1  1  0  0  0
 10 17  1  0  0  0  0
 11 18  1  0  0  0  0
 13 14  2  0  0  0  0
 14 12  1  0  0  0  0
 14 11  1  0  0  0  0
 15 13  1  0  0  0  0
 15 10  2  0  0  0  0
 16 11  2  0  0  0  0
 17 16  1  0  0  0  0
 20 19  1  6  0  0  0
 20  3  1  0  0  0  0
 21 22  2  0  0  0  0
 22 20  1  0  0  0  0
 23 24  1  6  0  0  0
 23 22  1  0  0  0  0
 25 23  1  0  0  0  0
 25 31  1  0  0  0  0
 26 30  1  0  0  0  0
 27 30  1  0  0  0  0
 27 28  1  0  0  0  0
 29 28  1  0  0  0  0
 31 26  1  0  0  0  0
 31 29  1  0  0  0  0
M  END
>  <MODEL>
1

>  <REMARK>
 VINA RESULT:      -8.8      0.000      0.000
  Name = 
  6 active torsions:
  status: ('A' for Active; 'I' for Inactive)
    1  A    between atoms: C_3  and  C_14
    2  A    between atoms: C_8  and  C_18
    3  A    between atoms: C_18  and  C_26
    4  A    between atoms: C_19  and  C_26
    5  A    between atoms: C_19  and  C_31
    6  A    between atoms: N_29  and  C_31
                            x       y       z     vdW  Elec       q    Type
                         _______ _______ _______ _____ _____    ______ ____

>  <TORSDO>
F 6

$$$$
=
 OpenBabel10222421473D

 31 33  0  0  1  0  0  0  0  0999 V2000
  190.5780  176.7150  140.4820 N   0  0  0  0  0  2  0  0  0  0  0  0
  188.0430  178.3890  140.4880 N   0  0  0  0  0  0  0  0  0  0  0  0
  188.6820  178.0210  139.4100 C   0  0  0  0  0  0  0  0  0  0  0  0
  191.7760  177.1990  142.5270 C   0  0  0  0  0  1  0  0  0  0  0  0
  189.8000  176.2160  138.3610 O   0  0  0  0  0  0  0  0  0  0  0  0
  189.6900  176.9380  139.3890 C   0  0  0  0  0  0  0  0  0  0  0  0
  188.1800  177.9140  141.8430 C   0  0  0  0  0  0  0  0  0  0  0  0
  189.3620  177.5670  142.3660 C   0  0  0  0  0  3  0  0  0  0  0  0
  190.6440  177.6180  141.6130 C   0  0  2  0  0  3  0  0  0  0  0  0
  186.9830  177.9210  142.7180 C   0  0  0  0  0  0  0  0  0  0  0  0
  185.6400  178.6930  145.3810 C   0  0  0  0  0  0  0  0  0  0  0  0
  183.1350  178.9320  144.9710 C   0  0  0  0  0  1  0  0  0  0  0  0
  184.6340  178.7160  143.0920 C   0  0  0  0  0  3  0  0  0  0  0  0
  184.5040  178.7240  144.4260 C   0  0  0  0  0  0  0  0  0  0  0  0
  185.8870  178.5770  142.3210 C   0  0  0  0  0  3  0  0  0  0  0  0
  186.7560  177.9900  145.1760 C   0  0  0  0  0  3  0  0  0  0  0  0
  186.9670  177.1170  143.9850 C   0  0  0  0  0  2  0  0  0  0  0  0
  185.5330  179.4100  146.5660 O   0  0  0  0  0  1  0  0  0  0  0  0
  189.4570  179.0060  137.3830 O   0  0  0  0  0  1  0  0  0  0  0  0
  188.3120  178.6620  138.1050 C   0  0  1  0  0  3  0  0  0  0  0  0
  187.8130  177.3730  136.2020 O   0  0  0  0  0  0  0  0  0  0  0  0
  187.4240  177.7730  137.2890 C   0  0  0  0  0  0  0  0  0  0  0  0
  186.0590  177.3970  137.7850 C   0  0  1  0  0  3  0  0  0  0  0  0
  185.3710  178.5390  138.2010 O   0  0  0  0  0  1  0  0  0  0  0  0
  185.2750  176.6810  136.6970 C   0  0  0  0  0  2  0  0  0  0  0  0
  183.3030  175.0090  136.9580 S   0  0  0  0  0  0  0  0  0  0  0  0
  184.7030  172.6490  137.5220 C   0  0  0  0  0  2  0  0  0  0  0  0
  185.8420  173.0320  136.5770 C   0  0  0  0  0  2  0  0  0  0  0  0
  185.7220  174.4730  136.0800 C   0  0  0  0  0  2  0  0  0  0  0  0
  183.3670  173.1710  137.0080 C   0  0  0  0  0  2  0  0  0  0  0  0
  185.0540  175.2970  137.0780 N   0  0  0  0  0  0  0  0  0  0  0  0
  1  9  1  0  0  0  0
  2  7  1  0  0  0  0
  3  2  2  0  0  0  0
  5  6  2  0  0  0  0
  6  3  1  0  0  0  0
  6  1  1  0  0  0  0
  7  8  2  0  0  0  0
  7 10  1  0  0  0  0
  9  8  1  0  0  0  0
  9  4  1  1  0  0  0
 10 17  1  0  0  0  0
 11 18  1  0  0  0  0
 13 14  2  0  0  0  0
 14 12  1  0  0  0  0
 14 11  1  0  0  0  0
 15 10  2  0  0  0  0
 15 13  1  0  0  0  0
 16 11  2  0  0  0  0
 17 16  1  0  0  0  0
 20 19  1  6  0  0  0
 20  3  1  0  0  0  0
 21 22  2  0  0  0  0
 22 23  1  0  0  0  0
 22 20  1  0  0  0  0
 23 24  1  6  0  0  0
 25 31  1  0  0  0  0
 25 23  1  0  0  0  0
 26 30  1  0  0  0  0
 26 31  1  0  0  0  0
 28 27  1  0  0  0  0
 29 28  1  0  0  0  0
 29 31  1  0  0  0  0
 30 27  1  0  0  0  0
M  END
>  <MODEL>
2

>  <REMARK>
 VINA RESULT:      -8.2      1.939      2.525
  Name = 
  6 active torsions:
  status: ('A' for Active; 'I' for Inactive)
    1  A    between atoms: C_3  and  C_14
    2  A    between atoms: C_8  and  C_18
    3  A    between atoms: C_18  and  C_26
    4  A    between atoms: C_19  and  C_26
    5  A    between atoms: C_19  and  C_31
    6  A    between atoms: N_29  and  C_31
                            x       y       z     vdW  Elec       q    Type
                         _______ _______ _______ _____ _____    ______ ____

>  <TORSDO>
F 6

$$$$
=
 OpenBabel10222421473D

 31 33  0  0  1  0  0  0  0  0999 V2000
  189.2440  176.3860  144.4330 N   0  0  0  0  0  2  0  0  0  0  0  0
  188.2090  178.2170  142.2410 N   0  0  0  0  0  0  0  0  0  0  0  0
  189.2870  177.4860  142.1440 C   0  0  0  0  0  0  0  0  0  0  0  0
  188.5830  177.3430  146.5540 C   0  0  0  0  0  1  0  0  0  0  0  0
  190.2090  175.3530  142.6010 O   0  0  0  0  0  0  0  0  0  0  0  0
  189.5910  176.3550  143.0500 C   0  0  0  0  0  0  0  0  0  0  0  0
  187.1430  178.1570  143.2110 C   0  0  0  0  0  0  0  0  0  0  0  0
  187.3620  177.8710  144.5000 C   0  0  0  0  0  3  0  0  0  0  0  0
  188.7060  177.5740  145.0630 C   0  0  2  0  0  3  0  0  0  0  0  0
  185.7760  178.5370  142.7830 C   0  0  0  0  0  0  0  0  0  0  0  0
  183.3360  178.0740  140.9600 C   0  0  0  0  0  0  0  0  0  0  0  0
  181.2610  178.9290  142.1720 C   0  0  0  0  0  1  0  0  0  0  0  0
  183.3470  178.7330  143.3720 C   0  0  0  0  0  3  0  0  0  0  0  0
  182.7180  178.6220  142.1930 C   0  0  0  0  0  0  0  0  0  0  0  0
  184.7670  178.4370  143.6550 C   0  0  0  0  0  3  0  0  0  0  0  0
  184.6100  178.2790  140.6210 C   0  0  0  0  0  3  0  0  0  0  0  0
  185.5450  179.1230  141.4210 C   0  0  0  0  0  2  0  0  0  0  0  0
  182.5450  177.3290  140.0930 O   0  0  0  0  0  1  0  0  0  0  0  0
  191.5360  177.4240  141.3590 O   0  0  0  0  0  1  0  0  0  0  0  0
  190.2240  177.7400  141.0010 C   0  0  1  0  0  3  0  0  0  0  0  0
  190.4890  176.0260  139.4120 O   0  0  0  0  0  0  0  0  0  0  0  0
  189.8170  176.9790  139.7760 C   0  0  0  0  0  0  0  0  0  0  0  0
  188.6100  177.3930  138.9880 C   0  0  1  0  0  3  0  0  0  0  0  0
  188.5900  178.7820  138.8420 O   0  0  0  0  0  1  0  0  0  0  0  0
  188.6090  176.7230  137.6240 C   0  0  0  0  0  2  0  0  0  0  0  0
  186.1520  176.3480  136.8620 S   0  0  0  0  0  0  0  0  0  0  0  0
  185.8920  173.5940  137.3080 C   0  0  0  0  0  2  0  0  0  0  0  0
  187.3390  173.3320  136.8870 C   0  0  0  0  0  2  0  0  0  0  0  0
  188.1340  174.6270  136.7100 C   0  0  0  0  0  2  0  0  0  0  0  0
  185.2960  174.7550  136.5230 C   0  0  0  0  0  2  0  0  0  0  0  0
  187.6190  175.6600  137.5970 N   0  0  0  0  0  0  0  0  0  0  0  0
  1  9  1  0  0  0  0
  2  7  1  0  0  0  0
  3  2  2  0  0  0  0
  3  6  1  0  0  0  0
  5  6  2  0  0  0  0
  6  1  1  0  0  0  0
  7  8  2  0  0  0  0
  8  9  1  0  0  0  0
  9  4  1  1  0  0  0
 10  7  1  0  0  0  0
 10 15  2  0  0  0  0
 11 14  1  0  0  0  0
 12 14  1  0  0  0  0
 13 15  1  0  0  0  0
 14 13  2  0  0  0  0
 16 11  2  0  0  0  0
 16 17  1  0  0  0  0
 17 10  1  0  0  0  0
 18 11  1  0  0  0  0
 20 19  1  1  0  0  0
 20  3  1  0  0  0  0
 21 22  2  0  0  0  0
 22 20  1  0  0  0  0
 23 24  1  6  0  0  0
 23 22  1  0  0  0  0
 25 23  1  0  0  0  0
 26 31  1  0  0  0  0
 28 27  1  0  0  0  0
 29 28  1  0  0  0  0
 29 31  1  0  0  0  0
 30 26  1  0  0  0  0
 30 27  1  0  0  0  0
 31 25  1  0  0  0  0
M  END
>  <MODEL>
3

>  <REMARK>
 VINA RESULT:      -8.2      2.463      3.825
  Name = 
  6 active torsions:
  status: ('A' for Active; 'I' for Inactive)
    1  A    between atoms: C_3  and  C_14
    2  A    between atoms: C_8  and  C_18
    3  A    between atoms: C_18  and  C_26
    4  A    between atoms: C_19  and  C_26
    5  A    between atoms: C_19  and  C_31
    6  A    between atoms: N_29  and  C_31
                            x       y       z     vdW  Elec       q    Type
                         _______ _______ _______ _____ _____    ______ ____

>  <TORSDO>
F 6

$$$$
=
 OpenBabel10222421473D

 31 33  0  0  1  0  0  0  0  0999 V2000
  188.1100  178.7370  139.8370 N   0  0  0  0  0  2  0  0  0  0  0  0
  189.9900  176.6910  141.0660 N   0  0  0  0  0  0  0  0  0  0  0  0
  189.9470  176.9840  139.7940 C   0  0  0  0  0  0  0  0  0  0  0  0
  186.1020  178.7830  141.1860 C   0  0  0  0  0  1  0  0  0  0  0  0
  189.7810  178.7600  138.2380 O   0  0  0  0  0  0  0  0  0  0  0  0
  189.2980  178.2010  139.2580 C   0  0  0  0  0  0  0  0  0  0  0  0
  189.4120  177.3880  142.1890 C   0  0  0  0  0  0  0  0  0  0  0  0
  188.2260  178.0030  142.1180 C   0  0  0  0  0  3  0  0  0  0  0  0
  187.3900  178.0460  140.8880 C   0  0  2  0  0  3  0  0  0  0  0  0
  190.1100  177.3220  143.4950 C   0  0  0  0  0  0  0  0  0  0  0  0
  189.9930  177.0280  146.5600 C   0  0  0  0  0  0  0  0  0  0  0  0
  192.2060  176.0370  147.3500 C   0  0  0  0  0  1  0  0  0  0  0  0
  191.6980  176.0870  144.9910 C   0  0  0  0  0  3  0  0  0  0  0  0
  191.3100  176.4290  146.2280 C   0  0  0  0  0  0  0  0  0  0  0  0
  190.9610  176.3180  143.7310 C   0  0  0  0  0  3  0  0  0  0  0  0
  189.3650  177.9060  145.7760 C   0  0  0  0  0  3  0  0  0  0  0  0
  189.9400  178.4240  144.5000 C   0  0  0  0  0  2  0  0  0  0  0  0
  189.3870  176.6790  147.7610 O   0  0  0  0  0  1  0  0  0  0  0  0
  190.0380  176.0910  137.5870 O   0  0  0  0  0  1  0  0  0  0  0  0
  190.6750  176.0950  138.8290 C   0  0  1  0  0  3  0  0  0  0  0  0
  192.6320  177.1770  139.5550 O   0  0  0  0  0  0  0  0  0  0  0  0
  192.1100  176.4980  138.6830 C   0  0  0  0  0  0  0  0  0  0  0  0
  192.8950  176.0970  137.4700 C   0  0  1  0  0  3  0  0  0  0  0  0
  193.8500  177.0730  137.1760 O   0  0  0  0  0  1  0  0  0  0  0  0
  193.5700  174.7540  137.6920 C   0  0  0  0  0  2  0  0  0  0  0  0
  195.8040  174.2430  138.9170 S   0  0  0  0  0  0  0  0  0  0  0  0
  197.6480  174.8560  136.8980 C   0  0  0  0  0  2  0  0  0  0  0  0
  196.7190  174.3190  135.8090 C   0  0  0  0  0  2  0  0  0  0  0  0
  195.3220  174.0000  136.3440 C   0  0  0  0  0  2  0  0  0  0  0  0
  197.4860  174.0690  138.1920 C   0  0  0  0  0  2  0  0  0  0  0  0
  194.9990  174.8750  137.4620 N   0  0  0  0  0  0  0  0  0  0  0  0
  1  9  1  0  0  0  0
  2  7  1  0  0  0  0
  3  2  2  0  0  0  0
  5  6  2  0  0  0  0
  6  3  1  0  0  0  0
  6  1  1  0  0  0  0
  7 10  1  0  0  0  0
  8  7  2  0  0  0  0
  9  4  1  1  0  0  0
  9  8  1  0  0  0  0
 10 15  2  0  0  0  0
 10 17  1  0  0  0  0
 11 18  1  0  0  0  0
 13 14  2  0  0  0  0
 14 11  1  0  0  0  0
 14 12  1  0  0  0  0
 15 13  1  0  0  0  0
 16 11  2  0  0  0  0
 17 16  1  0  0  0  0
 20 19  1  6  0  0  0
 20  3  1  0  0  0  0
 22 20  1  0  0  0  0
 22 21  2  0  0  0  0
 23 24  1  1  0  0  0
 23 25  1  0  0  0  0
 23 22  1  0  0  0  0
 27 30  1  0  0  0  0
 28 29  1  0  0  0  0
 28 27  1  0  0  0  0
 29 31  1  0  0  0  0
 30 26  1  0  0  0  0
 31 25  1  0  0  0  0
 31 26  1  0  0  0  0
M  END
>  <MODEL>
4

>  <REMARK>
 VINA RESULT:      -8.1      4.426      7.633
  Name = 
  6 active torsions:
  status: ('A' for Active; 'I' for Inactive)
    1  A    between atoms: C_3  and  C_14
    2  A    between atoms: C_8  and  C_18
    3  A    between atoms: C_18  and  C_26
    4  A    between atoms: C_19  and  C_26
    5  A    between atoms: C_19  and  C_31
    6  A    between atoms: N_29  and  C_31
                            x       y       z     vdW  Elec       q    Type
                         _______ _______ _______ _____ _____    ______ ____

>  <TORSDO>
F 6

$$$$
=
 OpenBabel10222421473D

 31 33  0  0  1  0  0  0  0  0999 V2000
  187.7860  178.9670  139.8530 N   0  0  0  0  0  2  0  0  0  0  0  0
  189.9940  177.0510  140.6820 N   0  0  0  0  0  0  0  0  0  0  0  0
  189.8360  177.5160  139.4720 C   0  0  0  0  0  0  0  0  0  0  0  0
  185.8750  178.5350  141.2720 C   0  0  0  0  0  1  0  0  0  0  0  0
  189.3390  179.4570  138.2100 O   0  0  0  0  0  0  0  0  0  0  0  0
  188.9980  178.6940  139.1530 C   0  0  0  0  0  0  0  0  0  0  0  0
  189.3970  177.4910  141.9190 C   0  0  0  0  0  0  0  0  0  0  0  0
  188.1370  177.9360  141.9900 C   0  0  0  0  0  3  0  0  0  0  0  0
  187.2300  178.0380  140.8160 C   0  0  2  0  0  3  0  0  0  0  0  0
  190.1750  177.3370  143.1720 C   0  0  0  0  0  0  0  0  0  0  0  0
  190.2490  177.0820  146.2420 C   0  0  0  0  0  0  0  0  0  0  0  0
  192.3550  175.7960  146.8840 C   0  0  0  0  0  1  0  0  0  0  0  0
  191.6830  175.9000  144.5680 C   0  0  0  0  0  3  0  0  0  0  0  0
  191.4410  176.3020  145.8240 C   0  0  0  0  0  0  0  0  0  0  0  0
  190.8930  176.2240  143.3620 C   0  0  0  0  0  3  0  0  0  0  0  0
  189.6930  178.0350  145.4910 C   0  0  0  0  0  3  0  0  0  0  0  0
  190.2370  178.4580  144.1670 C   0  0  0  0  0  2  0  0  0  0  0  0
  189.6930  176.8310  147.4900 O   0  0  0  0  0  1  0  0  0  0  0  0
  191.8870  176.5120  138.7930 O   0  0  0  0  0  1  0  0  0  0  0  0
  190.6150  176.8870  138.3560 C   0  0  1  0  0  3  0  0  0  0  0  0
  190.3670  174.5920  137.9060 O   0  0  0  0  0  0  0  0  0  0  0  0
  189.8920  175.7100  137.7750 C   0  0  0  0  0  0  0  0  0  0  0  0
  188.6120  175.9000  137.0170 C   0  0  1  0  0  3  0  0  0  0  0  0
  188.8320  176.7130  135.9040 O   0  0  0  0  0  1  0  0  0  0  0  0
  188.0460  174.5580  136.5820 C   0  0  0  0  0  2  0  0  0  0  0  0
  185.6940  175.2330  135.7060 S   0  0  0  0  0  0  0  0  0  0  0  0
  184.0610  174.0070  137.6240 C   0  0  0  0  0  2  0  0  0  0  0  0
  185.0060  172.8100  137.7460 C   0  0  0  0  0  2  0  0  0  0  0  0
  186.3250  173.0370  137.0060 C   0  0  0  0  0  2  0  0  0  0  0  0
  184.0570  174.5580  136.2040 C   0  0  0  0  0  2  0  0  0  0  0  0
  186.6540  174.4550  136.9850 N   0  0  0  0  0  0  0  0  0  0  0  0
  1  9  1  0  0  0  0
  2  7  1  0  0  0  0
  3  2  2  0  0  0  0
  5  6  2  0  0  0  0
  6  3  1  0  0  0  0
  6  1  1  0  0  0  0
  7  8  2  0  0  0  0
  7 10  1  0  0  0  0
  9  4  1  1  0  0  0
  9  8  1  0  0  0  0
 10 15  2  0  0  0  0
 10 17  1  0  0  0  0
 11 18  1  0  0  0  0
 13 14  2  0  0  0  0
 14 11  1  0  0  0  0
 14 12  1  0  0  0  0
 15 13  1  0  0  0  0
 16 11  2  0  0  0  0
 17 16  1  0  0  0  0
 20 19  1  1  0  0  0
 20  3  1  0  0  0  0
 22 21  2  0  0  0  0
 22 20  1  0  0  0  0
 23 24  1  6  0  0  0
 23 22  1  0  0  0  0
 25 31  1  0  0  0  0
 25 23  1  0  0  0  0
 26 30  1  0  0  0  0
 26 31  1  0  0  0  0
 27 28  1  0  0  0  0
 29 28  1  0  0  0  0
 30 27  1  0  0  0  0
 31 29  1  0  0  0  0
M  END
>  <MODEL>
5

>  <REMARK>
 VINA RESULT:      -8.0      2.806      4.717
  Name = 
  6 active torsions:
  status: ('A' for Active; 'I' for Inactive)
    1  A    between atoms: C_3  and  C_14
    2  A    between atoms: C_8  and  C_18
    3  A    between atoms: C_18  and  C_26
    4  A    between atoms: C_19  and  C_26
    5  A    between atoms: C_19  and  C_31
    6  A    between atoms: N_29  and  C_31
                            x       y       z     vdW  Elec       q    Type
                         _______ _______ _______ _____ _____    ______ ____

>  <TORSDO>
F 6

$$$$
=
 OpenBabel10222421473D

 31 33  0  0  1  0  0  0  0  0999 V2000
  190.9040  176.7250  141.3520 N   0  0  0  0  0  2  0  0  0  0  0  0
  188.3230  178.2390  140.8270 N   0  0  0  0  0  0  0  0  0  0  0  0
  189.1540  177.8520  139.8970 C   0  0  0  0  0  0  0  0  0  0  0  0
  191.7100  177.3950  143.5330 C   0  0  0  0  0  1  0  0  0  0  0  0
  190.5240  176.0630  139.1690 O   0  0  0  0  0  0  0  0  0  0  0  0
  190.2050  176.8330  140.1140 C   0  0  0  0  0  0  0  0  0  0  0  0
  188.2510  177.8500  142.2140 C   0  0  0  0  0  0  0  0  0  0  0  0
  189.3430  177.6050  142.9480 C   0  0  0  0  0  3  0  0  0  0  0  0
  190.7300  177.6920  142.4180 C   0  0  2  0  0  3  0  0  0  0  0  0
  186.9240  177.8320  142.8750 C   0  0  0  0  0  0  0  0  0  0  0  0
  185.1560  178.4980  145.3080 C   0  0  0  0  0  0  0  0  0  0  0  0
  182.7560  178.7880  144.4940 C   0  0  0  0  0  1  0  0  0  0  0  0
  184.5500  178.6390  142.8860 C   0  0  0  0  0  3  0  0  0  0  0  0
  184.1970  178.5880  144.1790 C   0  0  0  0  0  0  0  0  0  0  0  0
  185.9140  178.5200  142.3310 C   0  0  0  0  0  3  0  0  0  0  0  0
  186.2860  177.7920  145.2600 C   0  0  0  0  0  3  0  0  0  0  0  0
  186.6910  176.9710  144.0810 C   0  0  0  0  0  2  0  0  0  0  0  0
  184.8540  179.1620  146.4910 O   0  0  0  0  0  1  0  0  0  0  0  0
  190.0430  178.0090  137.6920 O   0  0  0  0  0  1  0  0  0  0  0  0
  188.9790  178.3940  138.5090 C   0  0  1  0  0  3  0  0  0  0  0  0
  186.7830  178.7890  137.7650 O   0  0  0  0  0  0  0  0  0  0  0  0
  187.6740  177.9650  137.9110 C   0  0  0  0  0  0  0  0  0  0  0  0
  187.4500  176.5360  137.5160 C   0  0  1  0  0  3  0  0  0  0  0  0
  186.0820  176.2800  137.4070 O   0  0  0  0  0  1  0  0  0  0  0  0
  188.1470  176.2300  136.2010 C   0  0  0  0  0  2  0  0  0  0  0  0
  188.9510  174.5340  134.4040 S   0  0  0  0  0  0  0  0  0  0  0  0
  187.9580  172.1430  135.4740 C   0  0  0  0  0  2  0  0  0  0  0  0
  188.2330  172.6040  136.9070 C   0  0  0  0  0  2  0  0  0  0  0  0
  188.6300  174.0800  136.9730 C   0  0  0  0  0  2  0  0  0  0  0  0
  189.0000  172.6980  134.5120 C   0  0  0  0  0  2  0  0  0  0  0  0
  188.0080  174.8200  135.8850 N   0  0  0  0  0  0  0  0  0  0  0  0
  1  9  1  0  0  0  0
  2  7  1  0  0  0  0
  3  6  1  0  0  0  0
  3  2  2  0  0  0  0
  5  6  2  0  0  0  0
  6  1  1  0  0  0  0
  7 10  1  0  0  0  0
  7  8  2  0  0  0  0
  9  8  1  0  0  0  0
  9  4  1  1  0  0  0
 10 17  1  0  0  0  0
 11 18  1  0  0  0  0
 13 14  2  0  0  0  0
 14 12  1  0  0  0  0
 14 11  1  0  0  0  0
 15 10  2  0  0  0  0
 15 13  1  0  0  0  0
 16 11  2  0  0  0  0
 17 16  1  0  0  0  0
 20 19  1  6  0  0  0
 20  3  1  0  0  0  0
 21 22  2  0  0  0  0
 22 20  1  0  0  0  0
 23 24  1  6  0  0  0
 23 22  1  0  0  0  0
 25 23  1  0  0  0  0
 26 30  1  0  0  0  0
 26 31  1  0  0  0  0
 27 28  1  0  0  0  0
 28 29  1  0  0  0  0
 30 27  1  0  0  0  0
 31 25  1  0  0  0  0
 31 29  1  0  0  0  0
M  END
>  <MODEL>
6

>  <REMARK>
 VINA RESULT:      -8.0      2.526      3.637
  Name = 
  6 active torsions:
  status: ('A' for Active; 'I' for Inactive)
    1  A    between atoms: C_3  and  C_14
    2  A    between atoms: C_8  and  C_18
    3  A    between atoms: C_18  and  C_26
    4  A    between atoms: C_19  and  C_26
    5  A    between atoms: C_19  and  C_31
    6  A    between atoms: N_29  and  C_31
                            x       y       z     vdW  Elec       q    Type
                         _______ _______ _______ _____ _____    ______ ____

>  <TORSDO>
F 6

$$$$
=
 OpenBabel10222421473D

 31 33  0  0  1  0  0  0  0  0999 V2000
  190.9980  177.2790  147.8470 N   0  0  0  0  0  2  0  0  0  0  0  0
  188.7880  177.3080  145.7620 N   0  0  0  0  0  0  0  0  0  0  0  0
  188.6060  177.5420  147.0340 C   0  0  0  0  0  0  0  0  0  0  0  0
  192.6780  175.7040  147.1070 C   0  0  0  0  0  1  0  0  0  0  0  0
  189.4870  178.6590  148.9270 O   0  0  0  0  0  0  0  0  0  0  0  0
  189.7050  177.8690  147.9690 C   0  0  0  0  0  0  0  0  0  0  0  0
  190.0150  177.2550  145.0050 C   0  0  0  0  0  0  0  0  0  0  0  0
  191.1490  176.7560  145.5110 C   0  0  0  0  0  3  0  0  0  0  0  0
  191.2720  176.2220  146.8940 C   0  0  2  0  0  3  0  0  0  0  0  0
  189.9840  177.6640  143.5800 C   0  0  0  0  0  0  0  0  0  0  0  0
  190.5160  177.0170  140.6160 C   0  0  0  0  0  0  0  0  0  0  0  0
  188.9200  178.4100  139.1970 C   0  0  0  0  0  1  0  0  0  0  0  0
  188.6030  178.3010  141.5870 C   0  0  0  0  0  3  0  0  0  0  0  0
  189.3640  177.9490  140.5410 C   0  0  0  0  0  0  0  0  0  0  0  0
  188.8070  177.9260  143.0020 C   0  0  0  0  0  3  0  0  0  0  0  0
  191.3580  176.9680  141.6500 C   0  0  0  0  0  3  0  0  0  0  0  0
  191.2640  177.8800  142.8270 C   0  0  0  0  0  2  0  0  0  0  0  0
  190.7530  176.1640  139.5450 O   0  0  0  0  0  1  0  0  0  0  0  0
  187.1960  177.8730  148.9260 O   0  0  0  0  0  1  0  0  0  0  0  0
  187.2020  177.5750  147.5620 C   0  0  1  0  0  3  0  0  0  0  0  0
  185.9520  179.5580  147.3710 O   0  0  0  0  0  0  0  0  0  0  0  0
  186.3540  178.5520  146.8060 C   0  0  0  0  0  0  0  0  0  0  0  0
  185.9780  178.2900  145.3780 C   0  0  1  0  0  3  0  0  0  0  0  0
  185.9910  176.9160  145.1260 O   0  0  0  0  0  1  0  0  0  0  0  0
  184.6040  178.8640  145.0740 C   0  0  0  0  0  2  0  0  0  0  0  0
  182.4720  178.8950  143.5890 S   0  0  0  0  0  0  0  0  0  0  0  0
  183.5370  178.0360  141.1450 C   0  0  0  0  0  2  0  0  0  0  0  0
  184.8480  178.7840  141.3880 C   0  0  0  0  0  2  0  0  0  0  0  0
  184.9440  179.3350  142.8120 C   0  0  0  0  0  2  0  0  0  0  0  0
  182.3590  178.7830  141.7560 C   0  0  0  0  0  2  0  0  0  0  0  0
  184.1970  178.4890  143.7320 N   0  0  0  0  0  0  0  0  0  0  0  0
  1  6  1  0  0  0  0
  2  3  2  0  0  0  0
  3 20  1  0  0  0  0
  3  6  1  0  0  0  0
  6  5  2  0  0  0  0
  7  8  2  0  0  0  0
  7  2  1  0  0  0  0
  8  9  1  0  0  0  0
  9  4  1  1  0  0  0
  9  1  1  0  0  0  0
 10  7  1  0  0  0  0
 11 16  2  0  0  0  0
 12 14  1  0  0  0  0
 13 15  1  0  0  0  0
 14 11  1  0  0  0  0
 14 13  2  0  0  0  0
 15 10  2  0  0  0  0
 16 17  1  0  0  0  0
 17 10  1  0  0  0  0
 18 11  1  0  0  0  0
 20 19  1  1  0  0  0
 22 21  2  0  0  0  0
 22 20  1  0  0  0  0
 23 24  1  1  0  0  0
 23 22  1  0  0  0  0
 25 23  1  0  0  0  0
 26 31  1  0  0  0  0
 27 28  1  0  0  0  0
 27 30  1  0  0  0  0
 28 29  1  0  0  0  0
 29 31  1  0  0  0  0
 30 26  1  0  0  0  0
 31 25  1  0  0  0  0
M  END
>  <MODEL>
7

>  <REMARK>
 VINA RESULT:      -7.9      2.944      6.704
  Name = 
  6 active torsions:
  status: ('A' for Active; 'I' for Inactive)
    1  A    between atoms: C_3  and  C_14
    2  A    between atoms: C_8  and  C_18
    3  A    between atoms: C_18  and  C_26
    4  A    between atoms: C_19  and  C_26
    5  A    between atoms: C_19  and  C_31
    6  A    between atoms: N_29  and  C_31
                            x       y       z     vdW  Elec       q    Type
                         _______ _______ _______ _____ _____    ______ ____

>  <TORSDO>
F 6

$$$$
=
 OpenBabel10222421473D

 31 33  0  0  1  0  0  0  0  0999 V2000
  187.7690  178.1600  147.0640 N   0  0  0  0  0  2  0  0  0  0  0  0
  186.6460  177.8490  144.2580 N   0  0  0  0  0  0  0  0  0  0  0  0
  185.9510  178.2400  145.2920 C   0  0  0  0  0  0  0  0  0  0  0  0
  189.5620  176.5550  147.3130 C   0  0  0  0  0  1  0  0  0  0  0  0
  185.9810  179.6200  147.2160 O   0  0  0  0  0  0  0  0  0  0  0  0
  186.5620  178.7200  146.5520 C   0  0  0  0  0  0  0  0  0  0  0  0
  188.0750  177.7360  144.1020 C   0  0  0  0  0  0  0  0  0  0  0  0
  188.8770  177.3430  145.0990 C   0  0  0  0  0  3  0  0  0  0  0  0
  188.3910  176.9970  146.4620 C   0  0  2  0  0  3  0  0  0  0  0  0
  188.6590  177.9550  142.7570 C   0  0  0  0  0  0  0  0  0  0  0  0
  190.2470  176.8910  140.3410 C   0  0  0  0  0  0  0  0  0  0  0  0
  189.5130  178.1860  138.2710 C   0  0  0  0  0  1  0  0  0  0  0  0
  188.2640  178.4130  140.3240 C   0  0  0  0  0  3  0  0  0  0  0  0
  189.3320  177.8780  139.7160 C   0  0  0  0  0  0  0  0  0  0  0  0
  187.8460  178.2150  141.7270 C   0  0  0  0  0  3  0  0  0  0  0  0
  190.5980  176.9230  141.6280 C   0  0  0  0  0  3  0  0  0  0  0  0
  190.1470  177.9860  142.5740 C   0  0  0  0  0  2  0  0  0  0  0  0
  190.7920  175.8910  139.5450 O   0  0  0  0  0  1  0  0  0  0  0  0
  183.8850  178.7880  146.3460 O   0  0  0  0  0  1  0  0  0  0  0  0
  184.4570  178.2980  145.1700 C   0  0  1  0  0  3  0  0  0  0  0  0
  184.4020  180.2870  143.9170 O   0  0  0  0  0  0  0  0  0  0  0  0
  184.0330  179.1260  143.9950 C   0  0  0  0  0  0  0  0  0  0  0  0
  183.1430  178.5460  142.9360 C   0  0  1  0  0  3  0  0  0  0  0  0
  181.8910  179.1650  142.9730 O   0  0  0  0  0  1  0  0  0  0  0  0
  183.7700  178.7140  141.5620 C   0  0  0  0  0  2  0  0  0  0  0  0
  183.1580  179.5390  139.1750 S   0  0  0  0  0  0  0  0  0  0  0  0
  181.0960  177.7550  138.5290 C   0  0  0  0  0  2  0  0  0  0  0  0
  181.7820  176.6060  139.2700 C   0  0  0  0  0  2  0  0  0  0  0  0
  182.9810  177.0810  140.0910 C   0  0  0  0  0  2  0  0  0  0  0  0
  182.1220  178.6960  137.9100 C   0  0  0  0  0  2  0  0  0  0  0  0
  182.7790  178.4530  140.5320 N   0  0  0  0  0  0  0  0  0  0  0  0
  2  3  2  0  0  0  0
  3  6  1  0  0  0  0
  6  1  1  0  0  0  0
  6  5  2  0  0  0  0
  7  2  1  0  0  0  0
  7  8  2  0  0  0  0
  8  9  1  0  0  0  0
  9  1  1  0  0  0  0
  9  4  1  1  0  0  0
 10  7  1  0  0  0  0
 11 16  2  0  0  0  0
 12 14  1  0  0  0  0
 13 15  1  0  0  0  0
 14 13  2  0  0  0  0
 14 11  1  0  0  0  0
 15 10  2  0  0  0  0
 16 17  1  0  0  0  0
 17 10  1  0  0  0  0
 18 11  1  0  0  0  0
 20  3  1  0  0  0  0
 20 19  1  1  0  0  0
 21 22  2  0  0  0  0
 22 20  1  0  0  0  0
 23 24  1  6  0  0  0
 23 22  1  0  0  0  0
 25 23  1  0  0  0  0
 26 31  1  0  0  0  0
 27 28  1  0  0  0  0
 28 29  1  0  0  0  0
 29 31  1  0  0  0  0
 30 27  1  0  0  0  0
 30 26  1  0  0  0  0
 31 25  1  0  0  0  0
M  END
>  <MODEL>
8

>  <REMARK>
 VINA RESULT:      -7.9      2.360      6.027
  Name = 
  6 active torsions:
  status: ('A' for Active; 'I' for Inactive)
    1  A    between atoms: C_3  and  C_14
    2  A    between atoms: C_8  and  C_18
    3  A    between atoms: C_18  and  C_26
    4  A    between atoms: C_19  and  C_26
    5  A    between atoms: C_19  and  C_31
    6  A    between atoms: N_29  and  C_31
                            x       y       z     vdW  Elec       q    Type
                         _______ _______ _______ _____ _____    ______ ____

>  <TORSDO>
F 6

$$$$
=
 OpenBabel10222421473D

 31 33  0  0  1  0  0  0  0  0999 V2000
  190.0050  176.7850  139.2230 N   0  0  0  0  0  2  0  0  0  0  0  0
  187.5460  178.2100  140.2950 N   0  0  0  0  0  0  0  0  0  0  0  0
  187.7450  177.9290  139.0360 C   0  0  0  0  0  0  0  0  0  0  0  0
  191.8580  177.3350  140.6770 C   0  0  0  0  0  1  0  0  0  0  0  0
  188.5090  176.2620  137.5380 O   0  0  0  0  0  0  0  0  0  0  0  0
  188.7490  176.9470  138.5680 C   0  0  0  0  0  0  0  0  0  0  0  0
  188.2330  177.7210  141.4650 C   0  0  0  0  0  0  0  0  0  0  0  0
  189.5490  177.4760  141.4740 C   0  0  0  0  0  3  0  0  0  0  0  0
  190.4320  177.6650  140.2920 C   0  0  2  0  0  3  0  0  0  0  0  0
  187.4710  177.5940  142.7310 C   0  0  0  0  0  0  0  0  0  0  0  0
  187.3530  177.8400  145.8000 C   0  0  0  0  0  0  0  0  0  0  0  0
  184.9320  178.2730  146.4720 C   0  0  0  0  0  1  0  0  0  0  0  0
  185.5620  178.3950  144.1460 C   0  0  0  0  0  3  0  0  0  0  0  0
  185.9530  178.1250  145.3990 C   0  0  0  0  0  0  0  0  0  0  0  0
  186.3980  178.3680  142.9280 C   0  0  0  0  0  3  0  0  0  0  0  0
  188.2090  177.1490  145.0450 C   0  0  0  0  0  3  0  0  0  0  0  0
  187.8400  176.5410  143.7340 C   0  0  0  0  0  2  0  0  0  0  0  0
  187.7970  178.2930  147.0360 O   0  0  0  0  0  1  0  0  0  0  0  0
  187.4100  178.4560  136.7360 O   0  0  0  0  0  1  0  0  0  0  0  0
  186.8500  178.5600  138.0110 C   0  0  1  0  0  3  0  0  0  0  0  0
  185.2530  176.9580  137.3690 O   0  0  0  0  0  0  0  0  0  0  0  0
  185.4780  177.9580  138.0330 C   0  0  0  0  0  0  0  0  0  0  0  0
  184.3830  178.5870  138.8420 C   0  0  1  0  0  3  0  0  0  0  0  0
  184.6760  179.9310  139.0780 O   0  0  0  0  0  1  0  0  0  0  0  0
  183.0500  178.4600  138.1230 C   0  0  0  0  0  2  0  0  0  0  0  0
  181.6170  178.5940  140.2880 S   0  0  0  0  0  0  0  0  0  0  0  0
  180.2690  176.1410  140.1630 C   0  0  0  0  0  2  0  0  0  0  0  0
  180.1630  176.2120  138.6390 C   0  0  0  0  0  2  0  0  0  0  0  0
  180.9930  177.3560  138.0540 C   0  0  0  0  0  2  0  0  0  0  0  0
  180.1990  177.5310  140.7820 C   0  0  0  0  0  2  0  0  0  0  0  0
  182.1500  177.6220  138.8970 N   0  0  0  0  0  0  0  0  0  0  0  0
  1  9  1  0  0  0  0
  2  7  1  0  0  0  0
  3  2  2  0  0  0  0
  5  6  2  0  0  0  0
  6  3  1  0  0  0  0
  6  1  1  0  0  0  0
  7  8  2  0  0  0  0
  7 10  1  0  0  0  0
  9  4  1  1  0  0  0
  9  8  1  0  0  0  0
 10 15  2  0  0  0  0
 10 17  1  0  0  0  0
 11 18  1  0  0  0  0
 13 14  2  0  0  0  0
 14 11  1  0  0  0  0
 14 12  1  0  0  0  0
 15 13  1  0  0  0  0
 16 11  2  0  0  0  0
 17 16  1  0  0  0  0
 20 19  1  6  0  0  0
 20 22  1  0  0  0  0
 20  3  1  0  0  0  0
 21 22  2  0  0  0  0
 22 23  1  0  0  0  0
 23 24  1  6  0  0  0
 25 23  1  0  0  0  0
 25 31  1  0  0  0  0
 26 30  1  0  0  0  0
 27 30  1  0  0  0  0
 28 27  1  0  0  0  0
 29 28  1  0  0  0  0
 29 31  1  0  0  0  0
 31 26  1  0  0  0  0
M  END
>  <MODEL>
9

>  <REMARK>
 VINA RESULT:      -7.8      1.794      2.656
  Name = 
  6 active torsions:
  status: ('A' for Active; 'I' for Inactive)
    1  A    between atoms: C_3  and  C_14
    2  A    between atoms: C_8  and  C_18
    3  A    between atoms: C_18  and  C_26
    4  A    between atoms: C_19  and  C_26
    5  A    between atoms: C_19  and  C_31
    6  A    between atoms: N_29  and  C_31
                            x       y       z     vdW  Elec       q    Type
                         _______ _______ _______ _____ _____    ______ ____

>  <TORSDO>
F 6

$$$$
