=
 OpenBabel10232412303D

 29 34  0  0  1  0  0  0  0  0999 V2000
  188.5050  176.5030  142.8830 S   0  0  0  0  0  0  0  0  0  0  0  0
  186.8740  178.9780  137.0780 N   0  0  0  0  0  0  0  0  0  0  0  0
  187.5430  177.8120  140.6020 C   0  0  0  0  0  0  0  0  0  0  0  0
  187.2040  177.5480  143.5630 C   0  0  0  0  0  0  0  0  0  0  0  0
  186.4160  178.0960  141.2770 C   0  0  0  0  0  2  0  0  0  0  0  0
  187.6770  178.1300  139.2120 C   0  0  0  0  0  0  0  0  0  0  0  0
  189.2610  178.5260  137.2420 C   0  0  0  0  0  3  0  0  0  0  0  0
  186.6320  178.4540  138.3930 C   0  0  0  0  0  0  0  0  0  0  0  0
  188.6710  177.3650  141.3170 C   0  0  0  0  0  0  0  0  0  0  0  0
  186.2850  178.0720  142.7440 C   0  0  0  0  0  3  0  0  0  0  0  0
  190.0570  177.8100  139.4370 N   0  0  0  0  0  0  0  0  0  0  0  0
  188.9920  178.1670  138.6750 C   0  0  0  0  0  0  0  0  0  0  0  0
  188.0500  179.0470  136.5410 C   0  0  0  0  0  3  0  0  0  0  0  0
  189.9230  177.3910  140.7160 C   0  0  0  0  0  3  0  0  0  0  0  0
  182.0210  179.0960  139.8940 O   0  0  0  0  0  0  0  0  0  0  0  0
  184.4430  179.4640  139.1420 C   0  0  2  0  0  3  0  0  0  0  0  0
  185.2660  178.2610  138.7790 N   0  0  0  0  0  0  0  0  0  0  0  0
  184.6140  176.9390  138.5090 C   0  0  0  0  0  2  0  0  0  0  0  0
  182.8400  177.9780  139.3590 C   0  0  0  0  0  0  0  0  0  0  0  0
  184.6830  179.8360  140.4550 F   0  0  0  0  0  0  0  0  0  0  0  0
  182.9260  179.2520  138.8700 C   0  0  1  0  0  3  0  0  0  0  0  0
  183.3710  176.8190  139.2810 N   0  0  0  0  0  0  0  0  0  0  0  0
  187.4770  178.3430  148.0670 C   0  0  0  0  0  3  0  0  0  0  0  0
  188.1800  177.5450  145.8080 C   0  0  0  0  0  3  0  0  0  0  0  0
  187.0840  177.7060  145.0380 C   0  0  0  0  0  0  0  0  0  0  0  0
  188.2650  177.6110  147.2800 C   0  0  0  0  0  3  0  0  0  0  0  0
  185.4240  178.5420  146.7250 C   0  0  0  0  0  3  0  0  0  0  0  0
  185.7250  177.8840  145.6050 C   0  0  0  0  0  3  0  0  0  0  0  0
  186.4370  179.2710  147.5380 C   0  0  0  0  0  2  0  0  0  0  0  0
  1  4  1  0  0  0  0
  2  8  1  0  0  0  0
  3  5  1  0  0  0  0
  3  9  2  0  0  0  0
  4 25  1  0  0  0  0
  5 10  1  0  0  0  0
  6  3  1  0  0  0  0
  7 12  2  0  0  0  0
  8 17  1  0  0  0  0
  8  6  2  0  0  0  0
  9  1  1  0  0  0  0
 10  4  2  0  0  0  0
 11 14  2  0  0  0  0
 12  6  1  0  0  0  0
 12 11  1  0  0  0  0
 13  2  2  0  0  0  0
 13  7  1  0  0  0  0
 14  9  1  0  0  0  0
 16 20  1  1  0  0  0
 17 16  1  0  0  0  0
 18 17  1  0  0  0  0
 18 22  1  0  0  0  0
 19 15  1  0  0  0  0
 21 16  1  0  0  0  0
 21 19  1  6  0  0  0
 21 15  1  0  0  0  0
 22 19  2  0  0  0  0
 24 26  1  0  0  0  0
 25 28  1  0  0  0  0
 25 24  2  0  0  0  0
 26 23  2  0  0  0  0
 27 29  1  0  0  0  0
 28 27  2  0  0  0  0
 29 23  1  0  0  0  0
M  END
>  <MODEL>
1

>  <REMARK>
 VINA RESULT:      -8.4      0.000      0.000
  Name = 
  2 active torsions:
  status: ('A' for Active; 'I' for Inactive)
    1  A    between atoms: C_8  and  C_9
    2  A    between atoms: N_10  and  C_16
                            x       y       z     vdW  Elec       q    Type
                         _______ _______ _______ _____ _____    ______ ____

>  <TORSDO>
F 2

$$$$
=
 OpenBabel10232412303D

 29 34  0  0  1  0  0  0  0  0999 V2000
  185.1090  179.4680  144.7160 S   0  0  0  0  0  0  0  0  0  0  0  0
  181.2650  178.0310  139.6520 N   0  0  0  0  0  0  0  0  0  0  0  0
  183.7190  178.5330  142.4720 C   0  0  0  0  0  0  0  0  0  0  0  0
  186.1740  178.1360  144.1340 C   0  0  0  0  0  0  0  0  0  0  0  0
  184.8570  177.9640  142.0410 C   0  0  0  0  0  2  0  0  0  0  0  0
  182.5340  178.5280  141.6670 C   0  0  0  0  0  0  0  0  0  0  0  0
  179.9880  178.7660  141.5910 C   0  0  0  0  0  3  0  0  0  0  0  0
  182.5130  178.2370  140.3320 C   0  0  0  0  0  0  0  0  0  0  0  0
  183.6410  178.9760  143.8060 C   0  0  0  0  0  0  0  0  0  0  0  0
  186.0240  177.6690  142.8890 C   0  0  0  0  0  3  0  0  0  0  0  0
  181.2740  179.1210  143.6360 N   0  0  0  0  0  0  0  0  0  0  0  0
  181.2990  178.7830  142.3210 C   0  0  0  0  0  0  0  0  0  0  0  0
  180.1090  178.2370  140.1990 C   0  0  0  0  0  3  0  0  0  0  0  0
  182.4020  179.2460  144.3720 C   0  0  0  0  0  3  0  0  0  0  0  0
  185.9180  177.0080  137.0410 O   0  0  0  0  0  0  0  0  0  0  0  0
  183.7500  177.1880  138.3970 C   0  0  2  0  0  3  0  0  0  0  0  0
  183.7070  178.1560  139.5450 N   0  0  0  0  0  0  0  0  0  0  0  0
  184.7390  179.2360  139.6770 C   0  0  0  0  0  2  0  0  0  0  0  0
  185.7420  178.0590  138.0770 C   0  0  0  0  0  0  0  0  0  0  0  0
  184.0530  175.9140  138.8510 F   0  0  0  0  0  0  0  0  0  0  0  0
  184.7190  177.6440  137.2690 C   0  0  1  0  0  3  0  0  0  0  0  0
  186.0090  178.7990  139.0830 N   0  0  0  0  0  0  0  0  0  0  0  0
  190.0410  177.0990  146.3620 C   0  0  0  0  0  3  0  0  0  0  0  0
  188.4980  177.4260  144.4270 C   0  0  0  0  0  3  0  0  0  0  0  0
  187.2960  177.6640  144.9910 C   0  0  0  0  0  0  0  0  0  0  0  0
  189.7160  176.9120  145.0830 C   0  0  0  0  0  3  0  0  0  0  0  0
  187.8450  177.4130  147.4270 C   0  0  0  0  0  3  0  0  0  0  0  0
  186.9940  177.3310  146.4040 C   0  0  0  0  0  3  0  0  0  0  0  0
  189.2320  177.9390  147.2910 C   0  0  0  0  0  2  0  0  0  0  0  0
  2 13  2  0  0  0  0
  2  8  1  0  0  0  0
  3  9  2  0  0  0  0
  4  1  1  0  0  0  0
  4 25  1  0  0  0  0
  5  3  1  0  0  0  0
  5 10  1  0  0  0  0
  6 12  1  0  0  0  0
  6  3  1  0  0  0  0
  7 12  2  0  0  0  0
  8  6  2  0  0  0  0
  9 14  1  0  0  0  0
  9  1  1  0  0  0  0
 10  4  2  0  0  0  0
 11 14  2  0  0  0  0
 12 11  1  0  0  0  0
 13  7  1  0  0  0  0
 15 19  1  0  0  0  0
 16 20  1  1  0  0  0
 16 17  1  0  0  0  0
 17 18  1  0  0  0  0
 17  8  1  0  0  0  0
 19 22  2  0  0  0  0
 21 15  1  6  0  0  0
 21 19  1  0  0  0  0
 21 16  1  0  0  0  0
 22 18  1  0  0  0  0
 23 29  1  0  0  0  0
 24 25  2  0  0  0  0
 24 26  1  0  0  0  0
 25 28  1  0  0  0  0
 26 23  2  0  0  0  0
 28 27  2  0  0  0  0
 29 27  1  0  0  0  0
M  END
>  <MODEL>
2

>  <REMARK>
 VINA RESULT:      -7.9      2.621      5.018
  Name = 
  2 active torsions:
  status: ('A' for Active; 'I' for Inactive)
    1  A    between atoms: C_8  and  C_9
    2  A    between atoms: N_10  and  C_16
                            x       y       z     vdW  Elec       q    Type
                         _______ _______ _______ _____ _____    ______ ____

>  <TORSDO>
F 2

$$$$
=
 OpenBabel10232412303D

 29 34  0  0  1  0  0  0  0  0999 V2000
  188.1180  176.6370  143.5020 S   0  0  0  0  0  0  0  0  0  0  0  0
  192.0580  177.2710  138.3480 N   0  0  0  0  0  0  0  0  0  0  0  0
  189.5390  177.1960  141.1540 C   0  0  0  0  0  0  0  0  0  0  0  0
  187.0180  177.7850  142.6530 C   0  0  0  0  0  0  0  0  0  0  0  0
  188.3920  177.6210  140.5970 C   0  0  0  0  0  2  0  0  0  0  0  0
  190.7470  177.1040  140.3900 C   0  0  0  0  0  0  0  0  0  0  0  0
  193.3020  176.9740  140.4210 C   0  0  0  0  0  3  0  0  0  0  0  0
  190.7980  177.1400  139.0250 C   0  0  0  0  0  0  0  0  0  0  0  0
  189.5920  177.0160  142.5500 C   0  0  0  0  0  0  0  0  0  0  0  0
  187.1880  178.0160  141.3470 C   0  0  0  0  0  3  0  0  0  0  0  0
  191.9670  176.9510  142.4650 N   0  0  0  0  0  0  0  0  0  0  0  0
  191.9700  177.0340  141.1100 C   0  0  0  0  0  0  0  0  0  0  0  0
  193.2030  177.2250  138.9520 C   0  0  0  0  0  3  0  0  0  0  0  0
  190.8220  176.9150  143.1850 C   0  0  0  0  0  3  0  0  0  0  0  0
  187.1230  177.9440  135.9000 O   0  0  0  0  0  0  0  0  0  0  0  0
  189.2570  178.1540  137.3020 C   0  0  2  0  0  3  0  0  0  0  0  0
  189.6270  177.0160  138.2100 N   0  0  0  0  0  0  0  0  0  0  0  0
  188.9970  175.6660  138.0430 C   0  0  0  0  0  2  0  0  0  0  0  0
  187.6430  176.7970  136.6870 C   0  0  0  0  0  0  0  0  0  0  0  0
  188.5720  179.1310  138.0070 F   0  0  0  0  0  0  0  0  0  0  0  0
  188.4660  177.6840  136.0490 C   0  0  1  0  0  3  0  0  0  0  0  0
  187.6440  175.8030  137.4890 N   0  0  0  0  0  0  0  0  0  0  0  0
  183.0470  179.0290  144.5720 C   0  0  0  0  0  3  0  0  0  0  0  0
  184.6500  178.3940  142.7660 C   0  0  0  0  0  3  0  0  0  0  0  0
  185.8510  178.3580  143.3790 C   0  0  0  0  0  0  0  0  0  0  0  0
  183.3890  178.9580  143.2860 C   0  0  0  0  0  3  0  0  0  0  0  0
  185.2340  179.0890  145.7000 C   0  0  0  0  0  3  0  0  0  0  0  0
  186.1010  179.0030  144.6900 C   0  0  0  0  0  3  0  0  0  0  0  0
  183.8840  178.4590  145.6670 C   0  0  0  0  0  2  0  0  0  0  0  0
  2 13  2  0  0  0  0
  2  8  1  0  0  0  0
  3  9  2  0  0  0  0
  4 25  1  0  0  0  0
  4  1  1  0  0  0  0
  5  3  1  0  0  0  0
  5 10  1  0  0  0  0
  6 12  1  0  0  0  0
  6  3  1  0  0  0  0
  7 12  2  0  0  0  0
  8  6  2  0  0  0  0
  9 14  1  0  0  0  0
  9  1  1  0  0  0  0
 10  4  2  0  0  0  0
 11 14  2  0  0  0  0
 12 11  1  0  0  0  0
 13  7  1  0  0  0  0
 15 19  1  0  0  0  0
 16 20  1  1  0  0  0
 16 17  1  0  0  0  0
 17  8  1  0  0  0  0
 18 17  1  0  0  0  0
 19 22  2  0  0  0  0
 21 15  1  1  0  0  0
 21 19  1  0  0  0  0
 21 16  1  0  0  0  0
 22 18  1  0  0  0  0
 23 29  1  0  0  0  0
 24 26  1  0  0  0  0
 24 25  2  0  0  0  0
 25 28  1  0  0  0  0
 26 23  2  0  0  0  0
 28 27  2  0  0  0  0
 29 27  1  0  0  0  0
M  END
>  <MODEL>
3

>  <REMARK>
 VINA RESULT:      -7.7      2.852      4.258
  Name = 
  2 active torsions:
  status: ('A' for Active; 'I' for Inactive)
    1  A    between atoms: C_8  and  C_9
    2  A    between atoms: N_10  and  C_16
                            x       y       z     vdW  Elec       q    Type
                         _______ _______ _______ _____ _____    ______ ____

>  <TORSDO>
F 2

$$$$
=
 OpenBabel10232412303D

 29 34  0  0  1  0  0  0  0  0999 V2000
  188.6090  178.6440  140.6370 S   0  0  0  0  0  0  0  0  0  0  0  0
  190.2200  175.6640  135.0680 N   0  0  0  0  0  0  0  0  0  0  0  0
  189.4230  177.0460  138.4860 C   0  0  0  0  0  0  0  0  0  0  0  0
  189.3410  177.2240  141.4720 C   0  0  0  0  0  0  0  0  0  0  0  0
  190.2570  176.4010  139.3200 C   0  0  0  0  0  2  0  0  0  0  0  0
  189.4180  176.7720  137.0800 C   0  0  0  0  0  0  0  0  0  0  0  0
  188.1410  176.9160  134.8680 C   0  0  0  0  0  3  0  0  0  0  0  0
  190.4080  176.0940  136.4260 C   0  0  0  0  0  0  0  0  0  0  0  0
  188.4170  177.8670  139.0300 C   0  0  0  0  0  0  0  0  0  0  0  0
  190.1460  176.4020  140.7880 C   0  0  0  0  0  3  0  0  0  0  0  0
  187.2910  177.8980  136.9360 N   0  0  0  0  0  0  0  0  0  0  0  0
  188.2780  177.1820  136.3390 C   0  0  0  0  0  0  0  0  0  0  0  0
  189.1970  175.9970  134.3480 C   0  0  0  0  0  3  0  0  0  0  0  0
  187.3490  178.2650  138.2370 C   0  0  0  0  0  3  0  0  0  0  0  0
  194.4200  173.8930  138.1550 O   0  0  0  0  0  0  0  0  0  0  0  0
  192.1850  174.3970  137.0060 C   0  0  2  0  0  3  0  0  0  0  0  0
  191.6740  175.8090  137.0330 N   0  0  0  0  0  0  0  0  0  0  0  0
  192.5850  176.9480  137.3830 C   0  0  0  0  0  2  0  0  0  0  0  0
  193.9360  175.2870  137.9910 C   0  0  0  0  0  0  0  0  0  0  0  0
  191.6130  173.6570  138.0290 F   0  0  0  0  0  0  0  0  0  0  0  0
  193.7380  174.3240  137.0400 C   0  0  1  0  0  3  0  0  0  0  0  0
  193.6380  176.4910  138.2990 N   0  0  0  0  0  0  0  0  0  0  0  0
  189.2440  177.2450  146.0520 C   0  0  0  0  0  3  0  0  0  0  0  0
  190.2220  177.1980  143.7550 C   0  0  0  0  0  3  0  0  0  0  0  0
  189.1570  177.0580  142.9390 C   0  0  0  0  0  0  0  0  0  0  0  0
  190.2630  177.0280  145.2210 C   0  0  0  0  0  3  0  0  0  0  0  0
  187.2890  176.8700  144.6050 C   0  0  0  0  0  3  0  0  0  0  0  0
  187.8340  176.5920  143.4200 C   0  0  0  0  0  3  0  0  0  0  0  0
  187.9260  177.7770  145.6000 C   0  0  0  0  0  2  0  0  0  0  0  0
  1  4  1  0  0  0  0
  2  8  1  0  0  0  0
  3  9  2  0  0  0  0
  3  5  1  0  0  0  0
  4 25  1  0  0  0  0
  5 10  1  0  0  0  0
  6  3  1  0  0  0  0
  7 12  2  0  0  0  0
  8 17  1  0  0  0  0
  8  6  2  0  0  0  0
  9  1  1  0  0  0  0
 10  4  2  0  0  0  0
 11 14  2  0  0  0  0
 12 11  1  0  0  0  0
 12  6  1  0  0  0  0
 13  7  1  0  0  0  0
 13  2  2  0  0  0  0
 14  9  1  0  0  0  0
 16 17  1  0  0  0  0
 16 21  1  0  0  0  0
 16 20  1  1  0  0  0
 17 18  1  0  0  0  0
 18 22  1  0  0  0  0
 19 15  1  0  0  0  0
 19 22  2  0  0  0  0
 21 19  1  1  0  0  0
 21 15  1  0  0  0  0
 24 26  1  0  0  0  0
 25 28  1  0  0  0  0
 25 24  2  0  0  0  0
 26 23  2  0  0  0  0
 27 29  1  0  0  0  0
 28 27  2  0  0  0  0
 29 23  1  0  0  0  0
M  END
>  <MODEL>
4

>  <REMARK>
 VINA RESULT:      -7.4      4.183      6.223
  Name = 
  2 active torsions:
  status: ('A' for Active; 'I' for Inactive)
    1  A    between atoms: C_8  and  C_9
    2  A    between atoms: N_10  and  C_16
                            x       y       z     vdW  Elec       q    Type
                         _______ _______ _______ _____ _____    ______ ____

>  <TORSDO>
F 2

$$$$
=
 OpenBabel10232412303D

 29 34  0  0  1  0  0  0  0  0999 V2000
  189.2900  178.6470  142.8050 S   0  0  0  0  0  0  0  0  0  0  0  0
  189.0930  176.6160  136.6140 N   0  0  0  0  0  0  0  0  0  0  0  0
  189.3810  177.4230  140.2870 C   0  0  0  0  0  0  0  0  0  0  0  0
  190.1810  177.1190  143.1540 C   0  0  0  0  0  0  0  0  0  0  0  0
  190.3970  176.6610  140.7270 C   0  0  0  0  0  2  0  0  0  0  0  0
  188.9550  177.3780  138.9200 C   0  0  0  0  0  0  0  0  0  0  0  0
  187.0940  177.8620  137.2330 C   0  0  0  0  0  3  0  0  0  0  0  0
  189.6850  176.8240  137.9060 C   0  0  0  0  0  0  0  0  0  0  0  0
  188.6080  178.1360  141.2240 C   0  0  0  0  0  0  0  0  0  0  0  0
  190.7190  176.4260  142.1440 C   0  0  0  0  0  3  0  0  0  0  0  0
  186.9220  178.4910  139.5860 N   0  0  0  0  0  0  0  0  0  0  0  0
  187.6650  177.8910  138.6210 C   0  0  0  0  0  0  0  0  0  0  0  0
  187.9170  177.0500  136.2880 C   0  0  0  0  0  3  0  0  0  0  0  0
  187.3710  178.6450  140.8530 C   0  0  0  0  0  3  0  0  0  0  0  0
  194.0060  174.5390  137.7240 O   0  0  0  0  0  0  0  0  0  0  0  0
  191.5580  175.2150  137.3810 C   0  0  2  0  0  3  0  0  0  0  0  0
  191.0610  176.4590  138.0610 N   0  0  0  0  0  0  0  0  0  0  0  0
  192.0230  177.4670  138.6130 C   0  0  0  0  0  2  0  0  0  0  0  0
  193.4900  175.8410  138.2210 C   0  0  0  0  0  0  0  0  0  0  0  0
  191.2530  174.0960  138.1390 F   0  0  0  0  0  0  0  0  0  0  0  0
  193.0740  175.2870  137.0410 C   0  0  1  0  0  3  0  0  0  0  0  0
  193.2690  176.8080  139.0250 N   0  0  0  0  0  0  0  0  0  0  0  0
  191.6040  176.1160  147.3920 C   0  0  0  0  0  3  0  0  0  0  0  0
  191.6150  176.1700  144.8960 C   0  0  0  0  0  3  0  0  0  0  0  0
  190.4260  176.7170  144.5660 C   0  0  0  0  0  0  0  0  0  0  0  0
  192.0390  175.6640  146.2160 C   0  0  0  0  0  3  0  0  0  0  0  0
  189.3790  177.0060  146.8290 C   0  0  0  0  0  3  0  0  0  0  0  0
  189.2900  176.7960  145.5150 C   0  0  0  0  0  3  0  0  0  0  0  0
  190.6700  177.2710  147.5240 C   0  0  0  0  0  2  0  0  0  0  0  0
  1  4  1  0  0  0  0
  2  8  1  0  0  0  0
  3  5  1  0  0  0  0
  3  9  2  0  0  0  0
  4 25  1  0  0  0  0
  5 10  1  0  0  0  0
  6  3  1  0  0  0  0
  7 12  2  0  0  0  0
  8 17  1  0  0  0  0
  8  6  2  0  0  0  0
  9  1  1  0  0  0  0
 10  4  2  0  0  0  0
 11 14  2  0  0  0  0
 12  6  1  0  0  0  0
 12 11  1  0  0  0  0
 13  2  2  0  0  0  0
 13  7  1  0  0  0  0
 14  9  1  0  0  0  0
 15 19  1  0  0  0  0
 16 17  1  0  0  0  0
 16 20  1  1  0  0  0
 17 18  1  0  0  0  0
 18 22  1  0  0  0  0
 19 22  2  0  0  0  0
 21 16  1  0  0  0  0
 21 15  1  1  0  0  0
 21 19  1  0  0  0  0
 23 29  1  0  0  0  0
 24 26  1  0  0  0  0
 25 24  2  0  0  0  0
 25 28  1  0  0  0  0
 26 23  2  0  0  0  0
 27 29  1  0  0  0  0
 28 27  2  0  0  0  0
M  END
>  <MODEL>
5

>  <REMARK>
 VINA RESULT:      -7.4      3.907      5.845
  Name = 
  2 active torsions:
  status: ('A' for Active; 'I' for Inactive)
    1  A    between atoms: C_8  and  C_9
    2  A    between atoms: N_10  and  C_16
                            x       y       z     vdW  Elec       q    Type
                         _______ _______ _______ _____ _____    ______ ____

>  <TORSDO>
F 2

$$$$
=
 OpenBabel10232412303D

 29 34  0  0  1  0  0  0  0  0999 V2000
  188.6940  176.5140  142.7030 S   0  0  0  0  0  0  0  0  0  0  0  0
  186.5880  178.9410  137.0320 N   0  0  0  0  0  0  0  0  0  0  0  0
  187.5750  177.8290  140.4990 C   0  0  0  0  0  0  0  0  0  0  0  0
  187.5690  177.6830  143.4870 C   0  0  0  0  0  0  0  0  0  0  0  0
  186.5620  178.2260  141.2880 C   0  0  0  0  0  2  0  0  0  0  0  0
  187.5680  178.0930  139.0910 C   0  0  0  0  0  0  0  0  0  0  0  0
  188.9340  178.2970  136.9370 C   0  0  0  0  0  3  0  0  0  0  0  0
  186.4620  178.4780  138.3860 C   0  0  0  0  0  0  0  0  0  0  0  0
  188.7400  177.3120  141.0950 C   0  0  0  0  0  0  0  0  0  0  0  0
  186.6040  178.2570  142.7590 C   0  0  0  0  0  3  0  0  0  0  0  0
  189.9250  177.5830  139.0520 N   0  0  0  0  0  0  0  0  0  0  0  0
  188.8090  178.0050  138.4040 C   0  0  0  0  0  0  0  0  0  0  0  0
  187.6940  178.8960  136.3600 C   0  0  0  0  0  3  0  0  0  0  0  0
  189.9100  177.2160  140.3540 C   0  0  0  0  0  3  0  0  0  0  0  0
  181.9970  177.0330  139.7650 O   0  0  0  0  0  0  0  0  0  0  0  0
  184.3850  177.1170  138.8380 C   0  0  2  0  0  3  0  0  0  0  0  0
  185.1410  178.4110  138.9350 N   0  0  0  0  0  0  0  0  0  0  0  0
  184.6790  179.5020  139.8530 C   0  0  0  0  0  2  0  0  0  0  0  0
  182.8640  178.2210  139.9770 C   0  0  0  0  0  0  0  0  0  0  0  0
  183.7920  176.9950  137.5910 F   0  0  0  0  0  0  0  0  0  0  0  0
  183.3520  176.9430  139.9880 C   0  0  1  0  0  3  0  0  0  0  0  0
  183.2200  179.4470  140.0130 N   0  0  0  0  0  0  0  0  0  0  0  0
  187.1530  177.9860  148.0400 C   0  0  0  0  0  3  0  0  0  0  0  0
  186.5010  178.1640  145.6360 C   0  0  0  0  0  3  0  0  0  0  0  0
  187.6360  177.8950  144.9580 C   0  0  0  0  0  0  0  0  0  0  0  0
  186.3570  178.4500  147.0770 C   0  0  0  0  0  3  0  0  0  0  0  0
  189.2700  177.6090  146.8420 C   0  0  0  0  0  3  0  0  0  0  0  0
  188.9780  177.9540  145.5880 C   0  0  0  0  0  3  0  0  0  0  0  0
  188.2680  177.0300  147.7810 C   0  0  0  0  0  2  0  0  0  0  0  0
  1  4  1  0  0  0  0
  2  8  1  0  0  0  0
  3  9  2  0  0  0  0
  3  5  1  0  0  0  0
  4 25  1  0  0  0  0
  5 10  1  0  0  0  0
  6  3  1  0  0  0  0
  7 12  2  0  0  0  0
  8 17  1  0  0  0  0
  8  6  2  0  0  0  0
  9  1  1  0  0  0  0
 10  4  2  0  0  0  0
 11 14  2  0  0  0  0
 12 11  1  0  0  0  0
 12  6  1  0  0  0  0
 13  7  1  0  0  0  0
 13  2  2  0  0  0  0
 14  9  1  0  0  0  0
 15 19  1  0  0  0  0
 16 20  1  6  0  0  0
 16 17  1  0  0  0  0
 16 21  1  0  0  0  0
 17 18  1  0  0  0  0
 18 22  1  0  0  0  0
 19 21  1  0  0  0  0
 19 22  2  0  0  0  0
 21 15  1  6  0  0  0
 24 26  1  0  0  0  0
 25 28  1  0  0  0  0
 25 24  2  0  0  0  0
 26 23  2  0  0  0  0
 27 29  1  0  0  0  0
 28 27  2  0  0  0  0
 29 23  1  0  0  0  0
M  END
>  <MODEL>
6

>  <REMARK>
 VINA RESULT:      -7.4      1.141      1.805
  Name = 
  2 active torsions:
  status: ('A' for Active; 'I' for Inactive)
    1  A    between atoms: C_8  and  C_9
    2  A    between atoms: N_10  and  C_16
                            x       y       z     vdW  Elec       q    Type
                         _______ _______ _______ _____ _____    ______ ____

>  <TORSDO>
F 2

$$$$
=
 OpenBabel10232412303D

 29 34  0  0  1  0  0  0  0  0999 V2000
  188.7360  178.4070  139.9280 S   0  0  0  0  0  0  0  0  0  0  0  0
  190.1130  174.4620  134.9240 N   0  0  0  0  0  0  0  0  0  0  0  0
  189.5460  176.4880  138.0540 C   0  0  0  0  0  0  0  0  0  0  0  0
  189.8560  177.3780  140.8940 C   0  0  0  0  0  0  0  0  0  0  0  0
  190.6040  176.2150  138.8360 C   0  0  0  0  0  2  0  0  0  0  0  0
  189.3960  175.8800  136.7660 C   0  0  0  0  0  0  0  0  0  0  0  0
  187.8140  175.2630  134.8530 C   0  0  0  0  0  3  0  0  0  0  0  0
  190.4000  175.2370  136.0990 C   0  0  0  0  0  0  0  0  0  0  0  0
  188.4800  177.2380  138.5880 C   0  0  0  0  0  0  0  0  0  0  0  0
  190.7070  176.5590  140.2640 C   0  0  0  0  0  3  0  0  0  0  0  0
  187.0840  176.5670  136.7840 N   0  0  0  0  0  0  0  0  0  0  0  0
  188.1020  175.9010  136.1810 C   0  0  0  0  0  0  0  0  0  0  0  0
  188.9500  174.4330  134.3530 C   0  0  0  0  0  3  0  0  0  0  0  0
  187.2510  177.2460  137.9430 C   0  0  0  0  0  3  0  0  0  0  0  0
  194.9530  174.2320  137.5770 O   0  0  0  0  0  0  0  0  0  0  0  0
  192.5220  174.0540  136.7880 C   0  0  2  0  0  3  0  0  0  0  0  0
  191.7710  175.3240  136.5050 N   0  0  0  0  0  0  0  0  0  0  0  0
  192.5000  176.6230  136.3300 C   0  0  0  0  0  2  0  0  0  0  0  0
  194.2040  175.4290  137.1160 C   0  0  0  0  0  0  0  0  0  0  0  0
  192.2490  173.6070  138.0710 F   0  0  0  0  0  0  0  0  0  0  0  0
  194.0500  174.1980  136.5390 C   0  0  1  0  0  3  0  0  0  0  0  0
  193.7400  176.6180  137.1160 N   0  0  0  0  0  0  0  0  0  0  0  0
  189.6490  177.3150  145.4710 C   0  0  0  0  0  3  0  0  0  0  0  0
  188.8290  177.2720  143.1130 C   0  0  0  0  0  3  0  0  0  0  0  0
  189.9220  177.5480  142.3710 C   0  0  0  0  0  0  0  0  0  0  0  0
  188.6690  177.4190  144.5730 C   0  0  0  0  0  3  0  0  0  0  0  0
  191.6380  177.9370  144.1610 C   0  0  0  0  0  3  0  0  0  0  0  0
  191.1440  178.1620  142.9430 C   0  0  0  0  0  3  0  0  0  0  0  0
  191.0480  176.9480  145.1070 C   0  0  0  0  0  2  0  0  0  0  0  0
  1  4  1  0  0  0  0
  2  8  1  0  0  0  0
  3  9  2  0  0  0  0
  3  5  1  0  0  0  0
  4 25  1  0  0  0  0
  5 10  1  0  0  0  0
  6  3  1  0  0  0  0
  7 12  2  0  0  0  0
  8 17  1  0  0  0  0
  8  6  2  0  0  0  0
  9  1  1  0  0  0  0
 10  4  2  0  0  0  0
 11 14  2  0  0  0  0
 12  6  1  0  0  0  0
 12 11  1  0  0  0  0
 13  7  1  0  0  0  0
 13  2  2  0  0  0  0
 14  9  1  0  0  0  0
 16 20  1  1  0  0  0
 17 16  1  0  0  0  0
 18 17  1  0  0  0  0
 18 22  1  0  0  0  0
 19 15  1  0  0  0  0
 21 16  1  0  0  0  0
 21 19  1  1  0  0  0
 21 15  1  0  0  0  0
 22 19  2  0  0  0  0
 24 26  1  0  0  0  0
 25 28  1  0  0  0  0
 25 24  2  0  0  0  0
 26 23  2  0  0  0  0
 27 29  1  0  0  0  0
 28 27  2  0  0  0  0
 29 23  1  0  0  0  0
M  END
>  <MODEL>
7

>  <REMARK>
 VINA RESULT:      -7.3      4.678      6.840
  Name = 
  2 active torsions:
  status: ('A' for Active; 'I' for Inactive)
    1  A    between atoms: C_8  and  C_9
    2  A    between atoms: N_10  and  C_16
                            x       y       z     vdW  Elec       q    Type
                         _______ _______ _______ _____ _____    ______ ____

>  <TORSDO>
F 2

$$$$
=
 OpenBabel10232412303D

 29 34  0  0  1  0  0  0  0  0999 V2000
  190.3460  176.8180  141.7100 S   0  0  0  0  0  0  0  0  0  0  0  0
  192.2320  175.8180  135.5520 N   0  0  0  0  0  0  0  0  0  0  0  0
  190.7910  176.5610  138.9570 C   0  0  0  0  0  0  0  0  0  0  0  0
  188.7800  177.3800  141.0150 C   0  0  0  0  0  0  0  0  0  0  0  0
  189.4610  176.5770  138.7710 C   0  0  0  0  0  2  0  0  0  0  0  0
  191.6920  176.3230  137.8690 C   0  0  0  0  0  0  0  0  0  0  0  0
  194.0770  176.5390  136.9690 C   0  0  0  0  0  3  0  0  0  0  0  0
  191.3170  175.8120  136.6590 C   0  0  0  0  0  0  0  0  0  0  0  0
  191.3100  176.9650  140.2030 C   0  0  0  0  0  0  0  0  0  0  0  0
  188.4800  177.0850  139.7450 C   0  0  0  0  0  3  0  0  0  0  0  0
  193.4780  177.1720  139.2500 N   0  0  0  0  0  0  0  0  0  0  0  0
  193.0490  176.7020  138.0500 C   0  0  0  0  0  0  0  0  0  0  0  0
  193.4760  176.1630  135.6540 C   0  0  0  0  0  3  0  0  0  0  0  0
  192.6560  177.2840  140.3180 C   0  0  0  0  0  3  0  0  0  0  0  0
  186.7880  174.8270  135.0950 O   0  0  0  0  0  0  0  0  0  0  0  0
  189.1130  175.8510  135.4270 C   0  0  2  0  0  3  0  0  0  0  0  0
  190.0290  175.2240  136.4390 N   0  0  0  0  0  0  0  0  0  0  0  0
  189.7570  173.8490  136.9710 C   0  0  0  0  0  2  0  0  0  0  0  0
  187.8060  174.1640  135.9480 C   0  0  0  0  0  0  0  0  0  0  0  0
  188.4430  176.9290  135.9840 F   0  0  0  0  0  0  0  0  0  0  0  0
  188.1310  174.8250  134.7950 C   0  0  1  0  0  3  0  0  0  0  0  0
  188.3140  173.5790  136.9640 N   0  0  0  0  0  0  0  0  0  0  0  0
  185.2270  179.2500  143.2220 C   0  0  0  0  0  3  0  0  0  0  0  0
  186.7900  178.7680  141.3350 C   0  0  0  0  0  3  0  0  0  0  0  0
  187.7810  178.0440  141.8960 C   0  0  0  0  0  0  0  0  0  0  0  0
  185.7360  179.5380  142.0240 C   0  0  0  0  0  3  0  0  0  0  0  0
  187.0720  178.0330  144.3040 C   0  0  0  0  0  3  0  0  0  0  0  0
  188.0130  178.0020  143.3600 C   0  0  0  0  0  3  0  0  0  0  0  0
  185.6140  178.0370  143.9980 C   0  0  0  0  0  2  0  0  0  0  0  0
  2 13  2  0  0  0  0
  2  8  1  0  0  0  0
  3  9  2  0  0  0  0
  4  1  1  0  0  0  0
  4 25  1  0  0  0  0
  5  3  1  0  0  0  0
  5 10  1  0  0  0  0
  6 12  1  0  0  0  0
  6  3  1  0  0  0  0
  7 12  2  0  0  0  0
  8  6  2  0  0  0  0
  9 14  1  0  0  0  0
  9  1  1  0  0  0  0
 10  4  2  0  0  0  0
 11 14  2  0  0  0  0
 12 11  1  0  0  0  0
 13  7  1  0  0  0  0
 15 19  1  0  0  0  0
 16 20  1  1  0  0  0
 16 17  1  0  0  0  0
 17  8  1  0  0  0  0
 17 18  1  0  0  0  0
 19 22  2  0  0  0  0
 21 15  1  1  0  0  0
 21 16  1  0  0  0  0
 21 19  1  0  0  0  0
 22 18  1  0  0  0  0
 23 29  1  0  0  0  0
 24 25  2  0  0  0  0
 24 26  1  0  0  0  0
 25 28  1  0  0  0  0
 26 23  2  0  0  0  0
 28 27  2  0  0  0  0
 29 27  1  0  0  0  0
M  END
>  <MODEL>
8

>  <REMARK>
 VINA RESULT:      -7.2      3.671      5.215
  Name = 
  2 active torsions:
  status: ('A' for Active; 'I' for Inactive)
    1  A    between atoms: C_8  and  C_9
    2  A    between atoms: N_10  and  C_16
                            x       y       z     vdW  Elec       q    Type
                         _______ _______ _______ _____ _____    ______ ____

>  <TORSDO>
F 2

$$$$
=
 OpenBabel10232412303D

 29 34  0  0  1  0  0  0  0  0999 V2000
  188.6940  178.5530  139.9040 S   0  0  0  0  0  0  0  0  0  0  0  0
  189.5600  174.4660  134.9000 N   0  0  0  0  0  0  0  0  0  0  0  0
  189.2630  176.5520  138.0290 C   0  0  0  0  0  0  0  0  0  0  0  0
  189.7100  177.4110  140.8590 C   0  0  0  0  0  0  0  0  0  0  0  0
  190.2970  176.1680  138.7960 C   0  0  0  0  0  2  0  0  0  0  0  0
  189.0290  175.9590  136.7450 C   0  0  0  0  0  0  0  0  0  0  0  0
  187.3610  175.5110  134.8580 C   0  0  0  0  0  3  0  0  0  0  0  0
  189.9470  175.2090  136.0670 C   0  0  0  0  0  0  0  0  0  0  0  0
  188.2930  177.4150  138.5740 C   0  0  0  0  0  0  0  0  0  0  0  0
  190.4570  176.5020  140.2220 C   0  0  0  0  0  3  0  0  0  0  0  0
  186.8060  176.8930  136.7930 N   0  0  0  0  0  0  0  0  0  0  0  0
  187.7360  176.1190  136.1790 C   0  0  0  0  0  0  0  0  0  0  0  0
  188.3930  174.5620  134.3460 C   0  0  0  0  0  3  0  0  0  0  0  0
  187.0630  177.5540  137.9460 C   0  0  0  0  0  3  0  0  0  0  0  0
  194.6870  176.1740  136.7970 O   0  0  0  0  0  0  0  0  0  0  0  0
  192.2090  176.3260  136.1600 C   0  0  2  0  0  3  0  0  0  0  0  0
  191.3260  175.1480  136.4530 N   0  0  0  0  0  0  0  0  0  0  0  0
  191.7670  174.0760  137.4030 C   0  0  0  0  0  2  0  0  0  0  0  0
  193.7200  175.1240  137.2080 C   0  0  0  0  0  0  0  0  0  0  0  0
  192.6530  176.2820  134.8480 F   0  0  0  0  0  0  0  0  0  0  0  0
  193.3900  176.4510  137.1640 C   0  0  1  0  0  3  0  0  0  0  0  0
  193.2310  173.9580  137.3900 N   0  0  0  0  0  0  0  0  0  0  0  0
  189.5820  177.3710  145.4390 C   0  0  0  0  0  3  0  0  0  0  0  0
  188.7180  177.3880  143.0970 C   0  0  0  0  0  3  0  0  0  0  0  0
  189.8150  177.5780  142.3340 C   0  0  0  0  0  0  0  0  0  0  0  0
  188.5970  177.5490  144.5590 C   0  0  0  0  0  3  0  0  0  0  0  0
  191.5880  177.8370  144.0920 C   0  0  0  0  0  3  0  0  0  0  0  0
  191.0910  178.0970  142.8820 C   0  0  0  0  0  3  0  0  0  0  0  0
  190.9420  176.8980  145.0520 C   0  0  0  0  0  2  0  0  0  0  0  0
  1  4  1  0  0  0  0
  2  8  1  0  0  0  0
  3  9  2  0  0  0  0
  3  5  1  0  0  0  0
  4 25  1  0  0  0  0
  5 10  1  0  0  0  0
  6  3  1  0  0  0  0
  7 12  2  0  0  0  0
  8 17  1  0  0  0  0
  8  6  2  0  0  0  0
  9  1  1  0  0  0  0
 10  4  2  0  0  0  0
 11 14  2  0  0  0  0
 12  6  1  0  0  0  0
 12 11  1  0  0  0  0
 13  7  1  0  0  0  0
 13  2  2  0  0  0  0
 14  9  1  0  0  0  0
 15 19  1  0  0  0  0
 16 20  1  6  0  0  0
 16 17  1  0  0  0  0
 16 21  1  0  0  0  0
 17 18  1  0  0  0  0
 19 22  2  0  0  0  0
 21 15  1  6  0  0  0
 21 19  1  0  0  0  0
 22 18  1  0  0  0  0
 24 26  1  0  0  0  0
 25 28  1  0  0  0  0
 25 24  2  0  0  0  0
 26 23  2  0  0  0  0
 27 29  1  0  0  0  0
 28 27  2  0  0  0  0
 29 23  1  0  0  0  0
M  END
>  <MODEL>
9

>  <REMARK>
 VINA RESULT:      -7.2      4.529      6.571
  Name = 
  2 active torsions:
  status: ('A' for Active; 'I' for Inactive)
    1  A    between atoms: C_8  and  C_9
    2  A    between atoms: N_10  and  C_16
                            x       y       z     vdW  Elec       q    Type
                         _______ _______ _______ _____ _____    ______ ____

>  <TORSDO>
F 2

$$$$
