=
 OpenBabel10222421543D

 40 45  0  0  1  0  0  0  0  0999 V2000
  186.9650  179.0830  147.5150 C   0  0  0  0  0  3  0  0  0  0  0  0
  183.1060  178.8110  141.8290 C   0  0  0  0  0  2  0  0  0  0  0  0
  186.5010  178.2300  142.7900 C   0  0  0  0  0  0  0  0  0  0  0  0
  191.0450  178.1640  141.4970 C   0  0  1  0  0  3  0  0  0  0  0  0
  190.1390  177.4290  143.7380 C   0  0  1  0  0  3  0  0  0  0  0  0
  184.5720  178.3950  143.8250 C   0  0  0  0  0  0  0  0  0  0  0  0
  186.6600  177.9080  145.3250 C   0  0  0  0  0  0  0  0  0  0  0  0
  186.4150  179.0140  146.3020 C   0  0  0  0  0  3  0  0  0  0  0  0
  189.8030  177.4650  140.9240 C   0  0  0  0  0  2  0  0  0  0  0  0
  187.9720  178.1610  148.0830 C   0  0  0  0  0  0  0  0  0  0  0  0
  188.1330  177.7640  145.0240 C   0  0  0  0  0  0  0  0  0  0  0  0
  187.9430  178.0150  142.5780 C   0  0  0  0  0  0  0  0  0  0  0  0
  185.9150  178.1820  144.0440 C   0  0  0  0  0  0  0  0  0  0  0  0
  188.9180  177.5330  147.3720 C   0  0  0  0  0  3  0  0  0  0  0  0
  184.4320  178.5450  142.4660 C   0  0  0  0  0  0  0  0  0  0  0  0
  187.9900  178.0050  149.4620 O   0  0  0  0  0  1  0  0  0  0  0  0
  188.5220  178.2450  141.2030 C   0  0  0  0  0  2  0  0  0  0  0  0
  189.0960  177.5730  145.9080 C   0  0  0  0  0  0  0  0  0  0  0  0
  190.4390  177.4140  145.2430 C   0  0  1  0  0  3  0  0  0  0  0  0
  183.4170  178.3560  144.7700 C   0  0  0  0  0  2  0  0  0  0  0  0
  182.0210  178.3550  142.7210 N   0  0  0  0  0  0  0  0  0  0  0  0
  185.5960  178.4570  141.8590 O   0  0  0  0  0  0  0  0  0  0  0  0
  188.6860  177.7580  143.6750 C   0  0  2  0  0  3  0  0  0  0  0  0
  190.9560  178.4770  142.9990 C   0  0  0  0  0  2  0  0  0  0  0  0
  182.1760  178.9310  144.0670 C   0  0  0  0  0  2  0  0  0  0  0  0
  191.1100  176.1300  145.6350 C   0  0  0  0  0  0  0  0  0  0  0  0
  191.2770  175.2620  144.7930 O   0  0  0  0  0  0  0  0  0  0  0  0
  191.5760  175.8920  147.0350 C   0  0  0  0  0  1  0  0  0  0  0  0
  180.4480  180.1160  142.5030 O   0  0  0  0  0  1  0  0  0  0  0  0
  180.7210  178.7780  142.1900 C   0  0  1  0  0  3  0  0  0  0  0  0
  180.6830  178.5980  140.8050 O   0  0  0  0  0  0  0  0  0  0  0  0
  179.9820  179.7060  140.3220 C   0  0  0  0  0  2  0  0  0  0  0  0
  180.4220  180.0180  138.9050 C   0  0  1  0  0  3  0  0  0  0  0  0
  180.8760  181.4610  138.8290 C   0  0  0  0  0  1  0  0  0  0  0  0
  181.5230  179.1480  138.5290 N   0  0  0  0  0  1  0  0  0  0  0  0
  192.1700  177.3740  141.2530 O   0  0  0  0  0  0  0  0  0  0  0  0
  192.0620  177.0010  139.9120 C   0  0  0  0  0  2  0  0  0  0  0  0
  193.4200  176.8760  139.3190 C   0  0  0  0  0  0  0  0  0  0  0  0
  193.5810  176.9010  137.9400 O   0  0  0  0  0  0  0  0  0  0  0  0
  194.4280  176.7860  140.0670 O   0  0  0  0  0  1  0  0  0  0  0  0
  1 10  1  0  0  0  0
  2 15  1  0  0  0  0
  2 21  1  0  0  0  0
  3 13  1  0  0  0  0
  4 36  1  1  0  0  0
  4 24  1  0  0  0  0
  5 24  1  6  0  0  0
  5 19  1  0  0  0  0
  6 13  1  0  0  0  0
  6 20  1  0  0  0  0
  7  8  1  0  0  0  0
  8  1  2  0  0  0  0
  9 17  1  0  0  0  0
  9  4  1  0  0  0  0
 10 16  1  0  0  0  0
 11  7  1  0  0  0  0
 11 18  2  0  0  0  0
 12  3  2  0  0  0  0
 13  7  2  0  0  0  0
 14 10  2  0  0  0  0
 15  6  2  0  0  0  0
 17 12  1  0  0  0  0
 18 14  1  0  0  0  0
 19 26  1  1  0  0  0
 19 18  1  0  0  0  0
 21 25  1  0  0  0  0
 22 15  1  0  0  0  0
 22  3  1  0  0  0  0
 23 12  1  6  0  0  0
 23  5  1  0  0  0  0
 23 11  1  0  0  0  0
 25 20  1  0  0  0  0
 26 28  1  0  0  0  0
 27 26  2  0  0  0  0
 30 29  1  6  0  0  0
 30 21  1  0  0  0  0
 31 30  1  0  0  0  0
 32 31  1  0  0  0  0
 33 34  1  1  0  0  0
 33 32  1  0  0  0  0
 35 33  1  0  0  0  0
 37 36  1  0  0  0  0
 38 37  1  0  0  0  0
 38 40  1  0  0  0  0
 39 38  2  0  0  0  0
M  END
>  <MODEL>
1

>  <REMARK>
 VINA RESULT:      -9.0      0.000      0.000
  Name = 
  8 active torsions:
  status: ('A' for Active; 'I' for Inactive)
    1  A    between atoms: O_3  and  C_4
    2  A    between atoms: O_3  and  C_19
    3  A    between atoms: C_4  and  C_25
    4  A    between atoms: C_6  and  O_38
    5  A    between atoms: C_7  and  C_30
    6  A    between atoms: C_15  and  C_20
    7  A    between atoms: C_19  and  N_33
    8  A    between atoms: C_20  and  O_38
                            x       y       z     vdW  Elec       q    Type
                         _______ _______ _______ _____ _____    ______ ____

>  <TORSDO>
F 8

$$$$
=
 OpenBabel10222421543D

 40 45  0  0  1  0  0  0  0  0999 V2000
  188.5440  176.8640  138.6790 C   0  0  0  0  0  3  0  0  0  0  0  0
  182.4020  179.1720  140.7420 C   0  0  0  0  0  2  0  0  0  0  0  0
  185.5940  178.4150  142.1670 C   0  0  0  0  0  0  0  0  0  0  0  0
  188.0250  177.0660  145.9860 C   0  0  1  0  0  3  0  0  0  0  0  0
  189.0250  177.7800  143.7790 C   0  0  1  0  0  3  0  0  0  0  0  0
  184.8140  178.7990  140.1520 C   0  0  0  0  0  0  0  0  0  0  0  0
  187.3830  178.3390  140.3380 C   0  0  0  0  0  0  0  0  0  0  0  0
  187.4300  177.2730  139.2900 C   0  0  0  0  0  3  0  0  0  0  0  0
  187.0370  178.2180  145.7520 C   0  0  0  0  0  2  0  0  0  0  0  0
  189.9240  177.3010  138.9760 C   0  0  0  0  0  0  0  0  0  0  0  0
  188.2870  178.0000  141.4990 C   0  0  0  0  0  0  0  0  0  0  0  0
  186.5550  178.1430  143.2500 C   0  0  0  0  0  0  0  0  0  0  0  0
  185.9710  178.5040  140.8370 C   0  0  1  0  0  3  0  0  0  0  0  0
  190.3710  177.6460  140.1910 C   0  0  0  0  0  3  0  0  0  0  0  0
  183.8230  178.8800  141.1010 C   0  0  0  0  0  0  0  0  0  0  0  0
  190.8430  177.2660  137.9360 O   0  0  0  0  0  1  0  0  0  0  0  0
  186.0350  177.9020  144.6460 C   0  0  0  0  0  2  0  0  0  0  0  0
  189.5790  177.7330  141.4320 C   0  0  0  0  0  0  0  0  0  0  0  0
  190.1710  177.4990  142.7980 C   0  0  1  0  0  3  0  0  0  0  0  0
  184.5960  179.1160  138.7080 C   0  0  0  0  0  2  0  0  0  0  0  0
  182.3450  179.8600  139.4370 N   0  0  0  0  0  0  0  0  0  0  0  0
  184.3020  178.6350  142.3020 O   0  0  0  0  0  0  0  0  0  0  0  0
  187.8460  177.9850  142.8890 C   0  0  0  0  0  0  0  0  0  0  0  0
  188.7820  176.6160  144.7270 C   0  0  0  0  0  2  0  0  0  0  0  0
  183.0870  179.1000  138.4160 C   0  0  0  0  0  2  0  0  0  0  0  0
  191.3320  178.4120  143.0690 C   0  0  0  0  0  0  0  0  0  0  0  0
  192.3980  178.2030  142.5130 O   0  0  0  0  0  0  0  0  0  0  0  0
  191.2080  179.5690  144.0070 C   0  0  0  0  0  1  0  0  0  0  0  0
  180.1480  180.5700  139.9780 O   0  0  0  0  0  1  0  0  0  0  0  0
  180.9530  179.9830  138.9930 C   0  0  1  0  0  3  0  0  0  0  0  0
  180.8860  180.7350  137.8170 O   0  0  0  0  0  0  0  0  0  0  0  0
  181.1850  182.0400  138.2130 C   0  0  0  0  0  2  0  0  0  0  0  0
  180.6350  183.0260  137.2000 C   0  0  1  0  0  3  0  0  0  0  0  0
  181.4900  184.2750  137.2010 C   0  0  0  0  0  1  0  0  0  0  0  0
  180.6530  182.4320  135.8750 N   0  0  0  0  0  1  0  0  0  0  0  0
  188.9430  177.4410  146.9700 O   0  0  0  0  0  0  0  0  0  0  0  0
  189.8080  176.3510  147.0870 C   0  0  0  0  0  2  0  0  0  0  0  0
  191.2130  176.8350  147.1410 C   0  0  0  0  0  0  0  0  0  0  0  0
  191.7330  177.3260  148.3310 O   0  0  0  0  0  1  0  0  0  0  0  0
  191.9440  176.7640  146.1190 O   0  0  0  0  0  0  0  0  0  0  0  0
  1 10  2  0  0  0  0
  1  8  1  0  0  0  0
  2 15  1  0  0  0  0
  3 22  1  0  0  0  0
  3 12  2  0  0  0  0
  4 36  1  1  0  0  0
  5 24  1  1  0  0  0
  6 15  2  0  0  0  0
  7 13  1  0  0  0  0
  7 11  1  0  0  0  0
  8  7  2  0  0  0  0
  9  4  1  0  0  0  0
 10 14  1  0  0  0  0
 11 23  2  0  0  0  0
 12 17  1  0  0  0  0
 13  6  1  1  0  0  0
 13  3  1  0  0  0  0
 14 18  2  0  0  0  0
 15 22  1  0  0  0  0
 16 10  1  0  0  0  0
 17  9  1  0  0  0  0
 18 11  1  0  0  0  0
 18 19  1  0  0  0  0
 19 26  1  1  0  0  0
 19  5  1  0  0  0  0
 20  6  1  0  0  0  0
 21  2  1  0  0  0  0
 23 12  1  0  0  0  0
 23  5  1  0  0  0  0
 24  4  1  0  0  0  0
 25 20  1  0  0  0  0
 25 21  1  0  0  0  0
 26 28  1  0  0  0  0
 27 26  2  0  0  0  0
 30 21  1  0  0  0  0
 30 29  1  1  0  0  0
 31 32  1  0  0  0  0
 31 30  1  0  0  0  0
 33 34  1  6  0  0  0
 33 32  1  0  0  0  0
 35 33  1  0  0  0  0
 36 37  1  0  0  0  0
 37 38  1  0  0  0  0
 38 39  1  0  0  0  0
 40 38  2  0  0  0  0
M  END
>  <MODEL>
2

>  <REMARK>
 VINA RESULT:      -8.2      2.007      5.370
  Name = 
  8 active torsions:
  status: ('A' for Active; 'I' for Inactive)
    1  A    between atoms: O_3  and  C_4
    2  A    between atoms: O_3  and  C_19
    3  A    between atoms: C_4  and  C_25
    4  A    between atoms: C_6  and  O_38
    5  A    between atoms: C_7  and  C_30
    6  A    between atoms: C_15  and  C_20
    7  A    between atoms: C_19  and  N_33
    8  A    between atoms: C_20  and  O_38
                            x       y       z     vdW  Elec       q    Type
                         _______ _______ _______ _____ _____    ______ ____

>  <TORSDO>
F 8

$$$$
=
 OpenBabel10222421543D

 40 45  0  0  1  0  0  0  0  0999 V2000
  193.3670  177.1010  139.7120 C   0  0  0  0  0  3  0  0  0  0  0  0
  188.4050  177.6240  144.4460 C   0  0  0  0  0  2  0  0  0  0  0  0
  188.7010  177.4540  140.8860 C   0  0  0  0  0  0  0  0  0  0  0  0
  186.8600  178.5820  136.6840 C   0  0  1  0  0  3  0  0  0  0  0  0
  188.8890  177.1250  137.0610 C   0  0  1  0  0  3  0  0  0  0  0  0
  189.9830  176.9770  142.6030 C   0  0  0  0  0  0  0  0  0  0  0  0
  190.9900  176.5100  140.2330 C   0  0  0  0  0  0  0  0  0  0  0  0
  192.2690  177.2530  140.4550 C   0  0  0  0  0  3  0  0  0  0  0  0
  186.2770  177.8400  137.8960 C   0  0  0  0  0  2  0  0  0  0  0  0
  193.5050  176.2670  138.5000 C   0  0  0  0  0  0  0  0  0  0  0  0
  190.4700  176.7290  138.8320 C   0  0  1  0  0  3  0  0  0  0  0  0
  188.2480  177.5760  139.4900 C   0  0  0  0  0  0  0  0  0  0  0  0
  189.9540  176.9680  141.2260 C   0  0  0  0  0  0  0  0  0  0  0  0
  192.5250  176.0370  137.6160 C   0  0  0  0  0  3  0  0  0  0  0  0
  188.7570  177.4520  143.0040 C   0  0  0  0  0  0  0  0  0  0  0  0
  194.7650  175.7580  138.2140 O   0  0  0  0  0  1  0  0  0  0  0  0
  186.9360  178.2650  139.2040 C   0  0  0  0  0  2  0  0  0  0  0  0
  191.1250  176.4940  137.7090 C   0  0  0  0  0  0  0  0  0  0  0  0
  190.2720  176.7710  136.4990 C   0  0  1  0  0  3  0  0  0  0  0  0
  191.0200  176.4750  143.5540 C   0  0  0  0  0  2  0  0  0  0  0  0
  189.2610  176.7540  145.2790 N   0  0  0  0  0  0  0  0  0  0  0  0
  188.0040  177.7460  141.9660 O   0  0  0  0  0  0  0  0  0  0  0  0
  189.1160  177.1820  138.5340 C   0  0  0  0  0  0  0  0  0  0  0  0
  188.3860  178.4640  136.5470 C   0  0  0  0  0  2  0  0  0  0  0  0
  190.6840  176.9730  144.9690 C   0  0  0  0  0  2  0  0  0  0  0  0
  190.1830  175.5770  135.5920 C   0  0  0  0  0  0  0  0  0  0  0  0
  190.8370  175.5580  134.5620 O   0  0  0  0  0  0  0  0  0  0  0  0
  189.3060  174.4120  135.9260 C   0  0  0  0  0  1  0  0  0  0  0  0
  190.2360  176.9170  147.4340 O   0  0  0  0  0  1  0  0  0  0  0  0
  189.0510  177.0520  146.6990 C   0  0  1  0  0  3  0  0  0  0  0  0
  188.5440  178.3450  146.8510 O   0  0  0  0  0  0  0  0  0  0  0  0
  187.3490  178.1770  147.5540 C   0  0  0  0  0  2  0  0  0  0  0  0
  186.2590  179.0280  146.9310 C   0  0  1  0  0  3  0  0  0  0  0  0
  185.0130  178.1880  146.7410 C   0  0  0  0  0  1  0  0  0  0  0  0
  185.9540  180.1510  147.8000 N   0  0  0  0  0  1  0  0  0  0  0  0
  186.2520  178.1090  135.5200 O   0  0  0  0  0  0  0  0  0  0  0  0
  185.3680  177.1190  135.9540 C   0  0  0  0  0  2  0  0  0  0  0  0
  185.4570  175.9400  135.0510 C   0  0  0  0  0  0  0  0  0  0  0  0
  184.3900  175.0570  134.9550 O   0  0  0  0  0  1  0  0  0  0  0  0
  186.4840  175.7640  134.3460 O   0  0  0  0  0  0  0  0  0  0  0  0
  1  8  1  0  0  0  0
  2 21  1  0  0  0  0
  3 13  2  0  0  0  0
  3 22  1  0  0  0  0
  4 36  1  6  0  0  0
  4  9  1  0  0  0  0
  5 24  1  6  0  0  0
  5 23  1  0  0  0  0
  6 15  2  0  0  0  0
  6 20  1  0  0  0  0
  7  8  2  0  0  0  0
  7 13  1  0  0  0  0
  9 17  1  0  0  0  0
 10  1  2  0  0  0  0
 11 18  1  6  0  0  0
 11  7  1  0  0  0  0
 12  3  1  0  0  0  0
 13  6  1  0  0  0  0
 14 18  2  0  0  0  0
 14 10  1  0  0  0  0
 15  2  1  0  0  0  0
 16 10  1  0  0  0  0
 17 12  1  0  0  0  0
 19 26  1  6  0  0  0
 19  5  1  0  0  0  0
 19 18  1  0  0  0  0
 20 25  1  0  0  0  0
 21 30  1  0  0  0  0
 22 15  1  0  0  0  0
 23 11  1  0  0  0  0
 23 12  2  0  0  0  0
 24  4  1  0  0  0  0
 25 21  1  0  0  0  0
 26 28  1  0  0  0  0
 27 26  2  0  0  0  0
 30 31  1  0  0  0  0
 30 29  1  1  0  0  0
 31 32  1  0  0  0  0
 33 34  1  1  0  0  0
 33 32  1  0  0  0  0
 33 35  1  0  0  0  0
 36 37  1  0  0  0  0
 38 37  1  0  0  0  0
 39 38  1  0  0  0  0
 40 38  2  0  0  0  0
M  END
>  <MODEL>
3

>  <REMARK>
 VINA RESULT:      -7.9      3.875      8.417
  Name = 
  8 active torsions:
  status: ('A' for Active; 'I' for Inactive)
    1  A    between atoms: O_3  and  C_4
    2  A    between atoms: O_3  and  C_19
    3  A    between atoms: C_4  and  C_25
    4  A    between atoms: C_6  and  O_38
    5  A    between atoms: C_7  and  C_30
    6  A    between atoms: C_15  and  C_20
    7  A    between atoms: C_19  and  N_33
    8  A    between atoms: C_20  and  O_38
                            x       y       z     vdW  Elec       q    Type
                         _______ _______ _______ _____ _____    ______ ____

>  <TORSDO>
F 8

$$$$
=
 OpenBabel10222421543D

 40 45  0  0  1  0  0  0  0  0999 V2000
  188.8040  176.8890  138.8350 C   0  0  0  0  0  3  0  0  0  0  0  0
  182.5340  179.0900  140.6100 C   0  0  0  0  0  2  0  0  0  0  0  0
  185.6700  178.3890  142.1810 C   0  0  0  0  0  0  0  0  0  0  0  0
  187.9450  177.0820  146.1100 C   0  0  1  0  0  3  0  0  0  0  0  0
  189.0330  177.8140  143.9500 C   0  0  1  0  0  3  0  0  0  0  0  0
  184.9770  178.7590  140.1320 C   0  0  0  0  0  0  0  0  0  0  0  0
  187.5430  178.3440  140.4360 C   0  0  0  0  0  0  0  0  0  0  0  0
  187.6560  177.2780  139.3930 C   0  0  0  0  0  3  0  0  0  0  0  0
  186.9490  178.2170  145.8290 C   0  0  0  0  0  2  0  0  0  0  0  0
  190.1610  177.3500  139.1940 C   0  0  0  0  0  0  0  0  0  0  0  0
  188.3980  178.0210  141.6390 C   0  0  0  0  0  0  0  0  0  0  0  0
  186.5840  178.1330  143.3070 C   0  0  0  0  0  0  0  0  0  0  0  0
  186.1060  178.4840  140.8700 C   0  0  1  0  0  3  0  0  0  0  0  0
  190.5460  177.7030  140.4280 C   0  0  0  0  0  3  0  0  0  0  0  0
  183.9420  178.8220  141.0340 C   0  0  0  0  0  0  0  0  0  0  0  0
  191.1280  177.3310  138.1970 O   0  0  0  0  0  1  0  0  0  0  0  0
  186.0050  177.8830  144.6780 C   0  0  0  0  0  2  0  0  0  0  0  0
  189.6960  177.7760  141.6320 C   0  0  0  0  0  0  0  0  0  0  0  0
  190.2280  177.5530  143.0230 C   0  0  1  0  0  3  0  0  0  0  0  0
  184.8200  179.0720  138.6790 C   0  0  0  0  0  2  0  0  0  0  0  0
  182.5260  179.7760  139.3030 N   0  0  0  0  0  0  0  0  0  0  0  0
  184.3690  178.5860  142.2560 O   0  0  0  0  0  0  0  0  0  0  0  0
  187.8930  177.9980  143.0070 C   0  0  0  0  0  0  0  0  0  0  0  0
  188.7670  176.6460  144.8860 C   0  0  0  0  0  2  0  0  0  0  0  0
  183.3270  179.0300  138.3180 C   0  0  0  0  0  2  0  0  0  0  0  0
  191.3600  178.4850  143.3470 C   0  0  0  0  0  0  0  0  0  0  0  0
  192.4930  178.1900  143.0060 O   0  0  0  0  0  0  0  0  0  0  0  0
  191.1250  179.7670  144.0790 C   0  0  0  0  0  1  0  0  0  0  0  0
  181.1230  179.8970  137.3950 O   0  0  0  0  0  1  0  0  0  0  0  0
  181.1540  179.8760  138.7950 C   0  0  1  0  0  3  0  0  0  0  0  0
  180.3850  178.8100  139.2690 O   0  0  0  0  0  0  0  0  0  0  0  0
  179.9830  178.1240  138.1210 C   0  0  0  0  0  2  0  0  0  0  0  0
  180.1220  176.6290  138.3380 C   0  0  1  0  0  3  0  0  0  0  0  0
  181.2250  176.0950  137.4470 C   0  0  0  0  0  1  0  0  0  0  0  0
  180.4540  176.3620  139.7260 N   0  0  0  0  0  1  0  0  0  0  0  0
  188.8100  177.4730  147.1340 O   0  0  0  0  0  0  0  0  0  0  0  0
  189.6900  176.4000  147.2900 C   0  0  0  0  0  2  0  0  0  0  0  0
  191.0910  176.9000  147.2810 C   0  0  0  0  0  0  0  0  0  0  0  0
  191.5360  177.7350  148.2970 O   0  0  0  0  0  1  0  0  0  0  0  0
  191.8840  176.5360  146.3750 O   0  0  0  0  0  0  0  0  0  0  0  0
  1 10  2  0  0  0  0
  1  8  1  0  0  0  0
  2 15  1  0  0  0  0
  3 22  1  0  0  0  0
  3 12  2  0  0  0  0
  4 36  1  1  0  0  0
  5 24  1  1  0  0  0
  6 15  2  0  0  0  0
  7 13  1  0  0  0  0
  7 11  1  0  0  0  0
  8  7  2  0  0  0  0
  9  4  1  0  0  0  0
 10 14  1  0  0  0  0
 11 23  2  0  0  0  0
 12 17  1  0  0  0  0
 13  6  1  1  0  0  0
 13  3  1  0  0  0  0
 14 18  2  0  0  0  0
 15 22  1  0  0  0  0
 16 10  1  0  0  0  0
 17  9  1  0  0  0  0
 18 11  1  0  0  0  0
 18 19  1  0  0  0  0
 19 26  1  1  0  0  0
 19  5  1  0  0  0  0
 20  6  1  0  0  0  0
 21  2  1  0  0  0  0
 23 12  1  0  0  0  0
 23  5  1  0  0  0  0
 24  4  1  0  0  0  0
 25 20  1  0  0  0  0
 25 21  1  0  0  0  0
 26 28  1  0  0  0  0
 27 26  2  0  0  0  0
 30 29  1  6  0  0  0
 30 31  1  0  0  0  0
 30 21  1  0  0  0  0
 32 33  1  0  0  0  0
 32 31  1  0  0  0  0
 33 34  1  6  0  0  0
 33 35  1  0  0  0  0
 36 37  1  0  0  0  0
 38 37  1  0  0  0  0
 38 39  1  0  0  0  0
 40 38  2  0  0  0  0
M  END
>  <MODEL>
4

>  <REMARK>
 VINA RESULT:      -7.5      2.034      5.412
  Name = 
  8 active torsions:
  status: ('A' for Active; 'I' for Inactive)
    1  A    between atoms: O_3  and  C_4
    2  A    between atoms: O_3  and  C_19
    3  A    between atoms: C_4  and  C_25
    4  A    between atoms: C_6  and  O_38
    5  A    between atoms: C_7  and  C_30
    6  A    between atoms: C_15  and  C_20
    7  A    between atoms: C_19  and  N_33
    8  A    between atoms: C_20  and  O_38
                            x       y       z     vdW  Elec       q    Type
                         _______ _______ _______ _____ _____    ______ ____

>  <TORSDO>
F 8

$$$$
=
 OpenBabel10222421543D

 40 45  0  0  1  0  0  0  0  0999 V2000
  189.0160  178.3400  136.4770 C   0  0  0  0  0  3  0  0  0  0  0  0
  189.6010  178.3950  143.3290 C   0  0  0  0  0  2  0  0  0  0  0  0
  187.0110  178.3260  140.8640 C   0  0  0  0  0  0  0  0  0  0  0  0
  182.5490  179.4100  139.7520 C   0  0  1  0  0  3  0  0  0  0  0  0
  184.1510  178.0970  138.3060 C   0  0  1  0  0  3  0  0  0  0  0  0
  189.1650  177.9060  140.9050 C   0  0  0  0  0  0  0  0  0  0  0  0
  187.9560  177.5660  138.6090 C   0  0  0  0  0  0  0  0  0  0  0  0
  188.9060  178.3950  137.8050 C   0  0  0  0  0  3  0  0  0  0  0  0
  183.1520  178.6000  140.9100 C   0  0  0  0  0  2  0  0  0  0  0  0
  188.1790  177.5450  135.5540 C   0  0  0  0  0  0  0  0  0  0  0  0
  186.5310  177.7770  138.1550 C   0  0  1  0  0  3  0  0  0  0  0  0
  185.6350  178.4450  140.3540 C   0  0  0  0  0  0  0  0  0  0  0  0
  188.0720  177.9260  140.0680 C   0  0  0  0  0  0  0  0  0  0  0  0
  186.8840  177.2650  135.7470 C   0  0  0  0  0  3  0  0  0  0  0  0
  188.6990  178.2810  142.1430 C   0  0  0  0  0  0  0  0  0  0  0  0
  188.7570  177.1370  134.3590 O   0  0  0  0  0  1  0  0  0  0  0  0
  184.5720  179.0430  141.2440 C   0  0  0  0  0  2  0  0  0  0  0  0
  186.0700  177.6160  136.9270 C   0  0  0  0  0  0  0  0  0  0  0  0
  184.5850  177.8560  136.8540 C   0  0  1  0  0  3  0  0  0  0  0  0
  190.5690  177.4600  140.6560 C   0  0  0  0  0  2  0  0  0  0  0  0
  190.8090  177.5720  143.1220 N   0  0  0  0  0  0  0  0  0  0  0  0
  187.4100  178.5420  142.1010 O   0  0  0  0  0  0  0  0  0  0  0  0
  185.4410  178.1380  139.0540 C   0  0  0  0  0  0  0  0  0  0  0  0
  183.3970  179.4070  138.4710 C   0  0  0  0  0  2  0  0  0  0  0  0
  191.4490  177.9010  141.8370 C   0  0  0  0  0  2  0  0  0  0  0  0
  183.8550  176.6800  136.2740 C   0  0  0  0  0  0  0  0  0  0  0  0
  183.2460  176.8120  135.2250 O   0  0  0  0  0  0  0  0  0  0  0  0
  183.8580  175.3500  136.9570 C   0  0  0  0  0  1  0  0  0  0  0  0
  192.2180  179.1530  144.1890 O   0  0  0  0  0  1  0  0  0  0  0  0
  191.7790  177.8220  144.1930 C   0  0  1  0  0  3  0  0  0  0  0  0
  191.2190  177.5110  145.4340 O   0  0  0  0  0  0  0  0  0  0  0  0
  191.6840  176.2260  145.7210 C   0  0  0  0  0  2  0  0  0  0  0  0
  191.3950  175.8840  147.1700 C   0  0  1  0  0  3  0  0  0  0  0  0
  192.7000  175.7910  147.9320 C   0  0  0  0  0  1  0  0  0  0  0  0
  190.5650  176.9180  147.7640 N   0  0  0  0  0  1  0  0  0  0  0  0
  181.2730  178.9190  139.4650 O   0  0  0  0  0  0  0  0  0  0  0  0
  181.1670  177.7400  140.2060 C   0  0  0  0  0  2  0  0  0  0  0  0
  180.7990  176.6170  139.3040 C   0  0  0  0  0  0  0  0  0  0  0  0
  180.7240  176.8240  137.9330 O   0  0  0  0  0  0  0  0  0  0  0  0
  180.5930  175.4700  139.7780 O   0  0  0  0  0  1  0  0  0  0  0  0
  1  8  1  0  0  0  0
  3 22  1  0  0  0  0
  4 36  1  6  0  0  0
  4  9  1  0  0  0  0
  5 24  1  6  0  0  0
  5 23  1  0  0  0  0
  6 15  2  0  0  0  0
  7 13  1  0  0  0  0
  8  7  2  0  0  0  0
  9 17  1  0  0  0  0
 10 14  1  0  0  0  0
 10  1  2  0  0  0  0
 11 18  1  1  0  0  0
 11  7  1  0  0  0  0
 11 23  1  0  0  0  0
 12  3  1  0  0  0  0
 12 17  1  0  0  0  0
 13  3  2  0  0  0  0
 13  6  1  0  0  0  0
 14 18  2  0  0  0  0
 15  2  1  0  0  0  0
 16 10  1  0  0  0  0
 19 26  1  1  0  0  0
 19 18  1  0  0  0  0
 19  5  1  0  0  0  0
 20  6  1  0  0  0  0
 20 25  1  0  0  0  0
 21  2  1  0  0  0  0
 21 30  1  0  0  0  0
 22 15  1  0  0  0  0
 23 12  2  0  0  0  0
 24  4  1  0  0  0  0
 25 21  1  0  0  0  0
 26 28  1  0  0  0  0
 27 26  2  0  0  0  0
 30 29  1  1  0  0  0
 30 31  1  0  0  0  0
 31 32  1  0  0  0  0
 32 33  1  0  0  0  0
 33 35  1  0  0  0  0
 33 34  1  1  0  0  0
 36 37  1  0  0  0  0
 38 40  1  0  0  0  0
 38 37  1  0  0  0  0
 39 38  2  0  0  0  0
M  END
>  <MODEL>
5

>  <REMARK>
 VINA RESULT:      -7.4      3.922     10.178
  Name = 
  8 active torsions:
  status: ('A' for Active; 'I' for Inactive)
    1  A    between atoms: O_3  and  C_4
    2  A    between atoms: O_3  and  C_19
    3  A    between atoms: C_4  and  C_25
    4  A    between atoms: C_6  and  O_38
    5  A    between atoms: C_7  and  C_30
    6  A    between atoms: C_15  and  C_20
    7  A    between atoms: C_19  and  N_33
    8  A    between atoms: C_20  and  O_38
                            x       y       z     vdW  Elec       q    Type
                         _______ _______ _______ _____ _____    ______ ____

>  <TORSDO>
F 8

$$$$
=
 OpenBabel10222421543D

 40 45  0  0  1  0  0  0  0  0999 V2000
  189.0450  178.8390  139.1870 C   0  0  0  0  0  3  0  0  0  0  0  0
  186.9190  178.1830  145.6950 C   0  0  0  0  0  2  0  0  0  0  0  0
  185.4990  178.3080  142.4150 C   0  0  0  0  0  0  0  0  0  0  0  0
  181.7580  179.3860  139.7400 C   0  0  1  0  0  3  0  0  0  0  0  0
  183.8780  178.2760  138.9310 C   0  0  1  0  0  3  0  0  0  0  0  0
  187.4910  177.9420  143.2620 C   0  0  0  0  0  0  0  0  0  0  0  0
  187.2930  177.8160  140.6560 C   0  0  0  0  0  0  0  0  0  0  0  0
  188.4240  178.7500  140.3650 C   0  0  0  0  0  3  0  0  0  0  0  0
  181.9160  178.4750  140.9660 C   0  0  0  0  0  2  0  0  0  0  0  0
  188.6860  178.1240  137.9440 C   0  0  0  0  0  0  0  0  0  0  0  0
  186.1460  178.0370  139.6980 C   0  0  1  0  0  3  0  0  0  0  0  0
  184.4250  178.4450  141.4180 C   0  0  0  0  0  0  0  0  0  0  0  0
  186.8100  178.0220  142.0680 C   0  0  0  0  0  0  0  0  0  0  0  0
  187.4380  177.7910  137.5880 C   0  0  0  0  0  3  0  0  0  0  0  0
  186.5580  178.1720  144.2450 C   0  0  0  0  0  0  0  0  0  0  0  0
  189.7070  177.8600  137.0410 O   0  0  0  0  0  1  0  0  0  0  0  0
  183.0630  178.9170  141.8680 C   0  0  0  0  0  2  0  0  0  0  0  0
  186.2090  177.9940  138.3800 C   0  0  0  0  0  0  0  0  0  0  0  0
  184.8560  178.2020  137.7500 C   0  0  1  0  0  3  0  0  0  0  0  0
  188.9070  177.5620  143.5470 C   0  0  0  0  0  2  0  0  0  0  0  0
  188.1640  177.4180  145.9080 N   0  0  0  0  0  0  0  0  0  0  0  0
  185.3720  178.4020  143.7230 O   0  0  0  0  0  0  0  0  0  0  0  0
  184.7710  178.2710  140.1250 C   0  0  0  0  0  0  0  0  0  0  0  0
  183.0360  179.5410  138.9000 C   0  0  0  0  0  2  0  0  0  0  0  0
  189.2300  177.8980  145.0120 C   0  0  0  0  0  2  0  0  0  0  0  0
  184.4870  177.0750  136.8300 C   0  0  0  0  0  0  0  0  0  0  0  0
  184.5810  177.2340  135.6230 O   0  0  0  0  0  0  0  0  0  0  0  0
  184.0060  175.7630  137.3620 C   0  0  0  0  0  1  0  0  0  0  0  0
  187.5500  177.7460  148.1750 O   0  0  0  0  0  1  0  0  0  0  0  0
  188.6240  177.5790  147.2910 C   0  0  1  0  0  3  0  0  0  0  0  0
  189.3880  176.4750  147.6780 O   0  0  0  0  0  0  0  0  0  0  0  0
  190.7020  176.9490  147.7160 C   0  0  0  0  0  2  0  0  0  0  0  0
  191.6610  175.8410  147.3250 C   0  0  1  0  0  3  0  0  0  0  0  0
  192.0520  176.0070  145.8720 C   0  0  0  0  0  1  0  0  0  0  0  0
  192.8530  175.9080  148.1540 N   0  0  0  0  0  1  0  0  0  0  0  0
  180.7290  178.8960  138.9330 O   0  0  0  0  0  0  0  0  0  0  0  0
  180.5980  179.8360  137.9080 C   0  0  0  0  0  2  0  0  0  0  0  0
  180.5690  179.1390  136.5950 C   0  0  0  0  0  0  0  0  0  0  0  0
  180.9160  177.7970  136.5130 O   0  0  0  0  0  1  0  0  0  0  0  0
  180.1940  179.7540  135.5630 O   0  0  0  0  0  0  0  0  0  0  0  0
  1  8  1  0  0  0  0
  2 21  1  0  0  0  0
  3 22  1  0  0  0  0
  4 36  1  6  0  0  0
  4  9  1  0  0  0  0
  5 24  1  6  0  0  0
  5 23  1  0  0  0  0
  6 20  1  0  0  0  0
  6 15  2  0  0  0  0
  7 13  1  0  0  0  0
  8  7  2  0  0  0  0
  9 17  1  0  0  0  0
 10  1  2  0  0  0  0
 11 18  1  6  0  0  0
 11 23  1  0  0  0  0
 11  7  1  0  0  0  0
 12 17  1  0  0  0  0
 12  3  1  0  0  0  0
 13  3  2  0  0  0  0
 13  6  1  0  0  0  0
 14 10  1  0  0  0  0
 14 18  2  0  0  0  0
 15  2  1  0  0  0  0
 16 10  1  0  0  0  0
 19 26  1  6  0  0  0
 19 18  1  0  0  0  0
 19  5  1  0  0  0  0
 20 25  1  0  0  0  0
 21 30  1  0  0  0  0
 22 15  1  0  0  0  0
 23 12  2  0  0  0  0
 24  4  1  0  0  0  0
 25 21  1  0  0  0  0
 26 28  1  0  0  0  0
 27 26  2  0  0  0  0
 30 31  1  0  0  0  0
 30 29  1  1  0  0  0
 31 32  1  0  0  0  0
 33 34  1  6  0  0  0
 33 32  1  0  0  0  0
 33 35  1  0  0  0  0
 37 36  1  0  0  0  0
 38 37  1  0  0  0  0
 39 38  1  0  0  0  0
 40 38  2  0  0  0  0
M  END
>  <MODEL>
6

>  <REMARK>
 VINA RESULT:      -7.4      3.540      9.530
  Name = 
  8 active torsions:
  status: ('A' for Active; 'I' for Inactive)
    1  A    between atoms: O_3  and  C_4
    2  A    between atoms: O_3  and  C_19
    3  A    between atoms: C_4  and  C_25
    4  A    between atoms: C_6  and  O_38
    5  A    between atoms: C_7  and  C_30
    6  A    between atoms: C_15  and  C_20
    7  A    between atoms: C_19  and  N_33
    8  A    between atoms: C_20  and  O_38
                            x       y       z     vdW  Elec       q    Type
                         _______ _______ _______ _____ _____    ______ ____

>  <TORSDO>
F 8

$$$$
=
 OpenBabel10222421543D

 40 45  0  0  1  0  0  0  0  0999 V2000
  185.1850  179.4790  141.6140 C   0  0  0  0  0  3  0  0  0  0  0  0
  189.8180  177.0500  137.1480 C   0  0  0  0  0  2  0  0  0  0  0  0
  189.4860  177.5030  140.6810 C   0  0  0  0  0  0  0  0  0  0  0  0
  191.6500  178.2040  144.8210 C   0  0  1  0  0  3  0  0  0  0  0  0
  189.1770  177.8010  144.5000 C   0  0  1  0  0  3  0  0  0  0  0  0
  188.1240  177.4440  138.9600 C   0  0  0  0  0  0  0  0  0  0  0  0
  187.0210  177.8040  141.3050 C   0  0  2  0  0  3  0  0  0  0  0  0
  186.2280  179.0130  140.9240 C   0  0  0  0  0  3  0  0  0  0  0  0
  191.8230  177.1260  143.7410 C   0  0  0  0  0  2  0  0  0  0  0  0
  184.6820  178.9660  142.9050 C   0  0  0  0  0  0  0  0  0  0  0  0
  187.5870  177.9420  142.6990 C   0  0  0  0  0  0  0  0  0  0  0  0
  189.9480  177.5860  142.0760 C   0  0  0  0  0  0  0  0  0  0  0  0
  188.1500  177.6030  140.3270 C   0  0  0  0  0  0  0  0  0  0  0  0
  185.4470  178.4330  143.8660 C   0  0  0  0  0  3  0  0  0  0  0  0
  189.4300  177.2490  138.5780 C   0  0  0  0  0  0  0  0  0  0  0  0
  183.3300  179.1330  143.1750 O   0  0  0  0  0  1  0  0  0  0  0  0
  191.4300  177.6300  142.3560 C   0  0  0  0  0  2  0  0  0  0  0  0
  186.9000  178.1830  143.8010 C   0  0  0  0  0  0  0  0  0  0  0  0
  187.7870  178.1950  145.0190 C   0  0  1  0  0  3  0  0  0  0  0  0
  186.9710  177.3520  138.0160 C   0  0  0  0  0  2  0  0  0  0  0  0
  188.6570  176.5670  136.3750 N   0  0  0  0  0  0  0  0  0  0  0  0
  190.2370  177.2990  139.6170 O   0  0  0  0  0  0  0  0  0  0  0  0
  188.9990  177.7620  143.0200 C   0  0  0  0  0  0  0  0  0  0  0  0
  190.2420  178.8170  144.8820 C   0  0  0  0  0  2  0  0  0  0  0  0
  187.4950  177.4510  136.5740 C   0  0  0  0  0  2  0  0  0  0  0  0
  187.3190  177.2220  146.0630 C   0  0  0  0  0  0  0  0  0  0  0  0
  186.2350  176.6780  145.9290 O   0  0  0  0  0  0  0  0  0  0  0  0
  188.1540  176.9090  147.2630 C   0  0  0  0  0  1  0  0  0  0  0  0
  189.4290  177.7970  134.5010 O   0  0  0  0  0  1  0  0  0  0  0  0
  188.9770  176.5480  134.9450 C   0  0  1  0  0  3  0  0  0  0  0  0
  189.9410  175.5730  134.6790 O   0  0  0  0  0  0  0  0  0  0  0  0
  189.4040  174.3920  135.1960 C   0  0  0  0  0  2  0  0  0  0  0  0
  190.4930  173.5820  135.8740 C   0  0  1  0  0  3  0  0  0  0  0  0
  191.8360  174.2310  135.6110 C   0  0  0  0  0  1  0  0  0  0  0  0
  190.2540  173.5360  137.3060 N   0  0  0  0  0  1  0  0  0  0  0  0
  191.9750  177.6630  146.0660 O   0  0  0  0  0  0  0  0  0  0  0  0
  191.7510  176.2910  145.9310 C   0  0  0  0  0  2  0  0  0  0  0  0
  192.0010  175.6140  147.2300 C   0  0  0  0  0  0  0  0  0  0  0  0
  193.2310  175.7550  147.8610 O   0  0  0  0  0  1  0  0  0  0  0  0
  191.0880  174.9450  147.7790 O   0  0  0  0  0  0  0  0  0  0  0  0
  1 10  1  0  0  0  0
  2 15  1  0  0  0  0
  3 12  1  0  0  0  0
  4 24  1  0  0  0  0
  4 36  1  1  0  0  0
  5 24  1  6  0  0  0
  5 19  1  0  0  0  0
  6 13  1  0  0  0  0
  7  8  1  6  0  0  0
  7 11  1  0  0  0  0
  8  1  2  0  0  0  0
  9  4  1  0  0  0  0
 10 16  1  0  0  0  0
 10 14  2  0  0  0  0
 11 23  1  0  0  0  0
 11 18  2  0  0  0  0
 12 17  1  0  0  0  0
 12 23  2  0  0  0  0
 13  3  2  0  0  0  0
 13  7  1  0  0  0  0
 15  6  2  0  0  0  0
 15 22  1  0  0  0  0
 17  9  1  0  0  0  0
 18 14  1  0  0  0  0
 18 19  1  0  0  0  0
 19 26  1  1  0  0  0
 20  6  1  0  0  0  0
 21 25  1  0  0  0  0
 21  2  1  0  0  0  0
 22  3  1  0  0  0  0
 23  5  1  0  0  0  0
 25 20  1  0  0  0  0
 26 28  1  0  0  0  0
 27 26  2  0  0  0  0
 30 29  1  1  0  0  0
 30 21  1  0  0  0  0
 31 30  1  0  0  0  0
 31 32  1  0  0  0  0
 32 33  1  0  0  0  0
 33 34  1  1  0  0  0
 33 35  1  0  0  0  0
 37 36  1  0  0  0  0
 37 38  1  0  0  0  0
 38 40  2  0  0  0  0
 38 39  1  0  0  0  0
M  END
>  <MODEL>
7

>  <REMARK>
 VINA RESULT:      -7.3      3.537      7.199
  Name = 
  8 active torsions:
  status: ('A' for Active; 'I' for Inactive)
    1  A    between atoms: O_3  and  C_4
    2  A    between atoms: O_3  and  C_19
    3  A    between atoms: C_4  and  C_25
    4  A    between atoms: C_6  and  O_38
    5  A    between atoms: C_7  and  C_30
    6  A    between atoms: C_15  and  C_20
    7  A    between atoms: C_19  and  N_33
    8  A    between atoms: C_20  and  O_38
                            x       y       z     vdW  Elec       q    Type
                         _______ _______ _______ _____ _____    ______ ____

>  <TORSDO>
F 8

$$$$
=
 OpenBabel10222421543D

 40 45  0  0  1  0  0  0  0  0999 V2000
  187.0130  178.9440  137.9470 C   0  0  0  0  0  3  0  0  0  0  0  0
  192.9610  175.7540  136.6260 C   0  0  0  0  0  2  0  0  0  0  0  0
  191.1120  176.9030  139.4630 C   0  0  0  0  0  0  0  0  0  0  0  0
  191.2320  178.4660  143.9200 C   0  0  1  0  0  3  0  0  0  0  0  0
  189.1440  177.9590  142.5910 C   0  0  1  0  0  3  0  0  0  0  0  0
  190.6690  176.4730  137.3570 C   0  0  0  0  0  0  0  0  0  0  0  0
  188.6600  177.2770  138.8290 C   0  0  2  0  0  3  0  0  0  0  0  0
  188.2160  178.3690  137.9090 C   0  0  0  0  0  3  0  0  0  0  0  0
  191.7900  177.1950  143.2620 C   0  0  0  0  0  2  0  0  0  0  0  0
  185.9460  178.6940  138.9390 C   0  0  0  0  0  0  0  0  0  0  0  0
  188.5480  177.7040  140.2740 C   0  0  0  0  0  0  0  0  0  0  0  0
  190.9030  177.2750  140.8730 C   0  0  0  0  0  0  0  0  0  0  0  0
  190.0890  176.9050  138.5290 C   0  0  0  0  0  0  0  0  0  0  0  0
  186.1560  178.3790  140.2240 C   0  0  0  0  0  3  0  0  0  0  0  0
  191.9880  176.2300  137.6560 C   0  0  0  0  0  0  0  0  0  0  0  0
  184.6330  178.8850  138.5270 O   0  0  0  0  0  1  0  0  0  0  0  0
  192.1000  177.4020  141.7830 C   0  0  0  0  0  2  0  0  0  0  0  0
  187.4600  178.1490  140.8750 C   0  0  0  0  0  0  0  0  0  0  0  0
  187.7040  178.4230  142.3370 C   0  0  1  0  0  3  0  0  0  0  0  0
  190.0590  176.1700  136.0280 C   0  0  0  0  0  2  0  0  0  0  0  0
  192.2380  175.1030  135.5150 N   0  0  0  0  0  0  0  0  0  0  0  0
  192.2430  176.5040  138.9170 O   0  0  0  0  0  0  0  0  0  0  0  0
  189.6470  177.6190  141.2290 C   0  0  0  0  0  0  0  0  0  0  0  0
  189.9970  179.0510  143.2170 C   0  0  0  0  0  2  0  0  0  0  0  0
  191.1810  175.9870  134.9930 C   0  0  0  0  0  2  0  0  0  0  0  0
  186.7450  177.6720  143.2150 C   0  0  0  0  0  0  0  0  0  0  0  0
  187.1070  176.6340  143.7450 O   0  0  0  0  0  0  0  0  0  0  0  0
  185.3550  178.1700  143.4510 C   0  0  0  0  0  1  0  0  0  0  0  0
  194.3800  175.4800  134.5710 O   0  0  0  0  0  1  0  0  0  0  0  0
  193.1630  174.8020  134.4190 C   0  0  1  0  0  3  0  0  0  0  0  0
  193.3940  173.4260  134.3460 O   0  0  0  0  0  0  0  0  0  0  0  0
  194.7410  173.2730  134.6840 C   0  0  0  0  0  2  0  0  0  0  0  0
  194.8860  172.2260  135.7710 C   0  0  1  0  0  3  0  0  0  0  0  0
  195.3120  172.8970  137.0600 C   0  0  0  0  0  1  0  0  0  0  0  0
  193.6150  171.5520  135.9760 N   0  0  0  0  0  1  0  0  0  0  0  0
  190.9210  178.1930  145.2540 O   0  0  0  0  0  0  0  0  0  0  0  0
  191.4260  176.9110  145.4850 C   0  0  0  0  0  2  0  0  0  0  0  0
  191.3180  176.5860  146.9310 C   0  0  0  0  0  0  0  0  0  0  0  0
  192.1490  175.6250  147.4910 O   0  0  0  0  0  0  0  0  0  0  0  0
  190.5000  177.2080  147.6570 O   0  0  0  0  0  1  0  0  0  0  0  0
  1 10  1  0  0  0  0
  2 15  1  0  0  0  0
  3 12  1  0  0  0  0
  4 36  1  1  0  0  0
  5 24  1  6  0  0  0
  6 15  2  0  0  0  0
  6 13  1  0  0  0  0
  7  8  1  6  0  0  0
  7 11  1  0  0  0  0
  8  1  2  0  0  0  0
  9  4  1  0  0  0  0
 10 14  2  0  0  0  0
 11 18  2  0  0  0  0
 11 23  1  0  0  0  0
 12 23  2  0  0  0  0
 12 17  1  0  0  0  0
 13  7  1  0  0  0  0
 13  3  2  0  0  0  0
 14 18  1  0  0  0  0
 15 22  1  0  0  0  0
 16 10  1  0  0  0  0
 17  9  1  0  0  0  0
 18 19  1  0  0  0  0
 19  5  1  0  0  0  0
 19 26  1  1  0  0  0
 20  6  1  0  0  0  0
 21  2  1  0  0  0  0
 22  3  1  0  0  0  0
 23  5  1  0  0  0  0
 24  4  1  0  0  0  0
 25 21  1  0  0  0  0
 25 20  1  0  0  0  0
 26 28  1  0  0  0  0
 26 27  2  0  0  0  0
 30 29  1  1  0  0  0
 30 21  1  0  0  0  0
 31 30  1  0  0  0  0
 31 32  1  0  0  0  0
 32 33  1  0  0  0  0
 33 35  1  0  0  0  0
 33 34  1  1  0  0  0
 36 37  1  0  0  0  0
 37 38  1  0  0  0  0
 38 39  2  0  0  0  0
 38 40  1  0  0  0  0
M  END
>  <MODEL>
8

>  <REMARK>
 VINA RESULT:      -7.2      4.194      9.629
  Name = 
  8 active torsions:
  status: ('A' for Active; 'I' for Inactive)
    1  A    between atoms: O_3  and  C_4
    2  A    between atoms: O_3  and  C_19
    3  A    between atoms: C_4  and  C_25
    4  A    between atoms: C_6  and  O_38
    5  A    between atoms: C_7  and  C_30
    6  A    between atoms: C_15  and  C_20
    7  A    between atoms: C_19  and  N_33
    8  A    between atoms: C_20  and  O_38
                            x       y       z     vdW  Elec       q    Type
                         _______ _______ _______ _____ _____    ______ ____

>  <TORSDO>
F 8

$$$$
=
 OpenBabel10222421543D

 40 45  0  0  1  0  0  0  0  0999 V2000
  191.9820  175.4150  145.8050 C   0  0  0  0  0  3  0  0  0  0  0  0
  191.0050  177.0490  139.1960 C   0  0  0  0  0  2  0  0  0  0  0  0
  189.2830  177.3650  142.3140 C   0  0  0  0  0  0  0  0  0  0  0  0
  185.1350  177.7050  144.5500 C   0  0  1  0  0  3  0  0  0  0  0  0
  187.4110  177.8960  145.6290 C   0  0  1  0  0  3  0  0  0  0  0  0
  191.3480  176.9720  141.6820 C   0  0  0  0  0  0  0  0  0  0  0  0
  190.9200  177.0770  144.2620 C   0  0  2  0  0  3  0  0  0  0  0  0
  191.5770  175.7730  144.5850 C   0  0  0  0  0  3  0  0  0  0  0  0
  185.7600  178.5280  143.4140 C   0  0  0  0  0  2  0  0  0  0  0  0
  191.7800  176.1710  147.0590 C   0  0  0  0  0  0  0  0  0  0  0  0
  189.6740  177.2780  145.0910 C   0  0  0  0  0  0  0  0  0  0  0  0
  188.1300  177.6150  143.1960 C   0  0  0  0  0  0  0  0  0  0  0  0
  190.5570  177.1180  142.8000 C   0  0  0  0  0  0  0  0  0  0  0  0
  190.7170  176.9420  147.3230 C   0  0  0  0  0  3  0  0  0  0  0  0
  190.5140  177.1480  140.6040 C   0  0  0  0  0  0  0  0  0  0  0  0
  192.7170  175.9960  148.0680 O   0  0  0  0  0  1  0  0  0  0  0  0
  186.7520  177.7130  142.5900 C   0  0  0  0  0  2  0  0  0  0  0  0
  189.5990  177.2490  146.4100 C   0  0  0  0  0  0  0  0  0  0  0  0
  188.2060  177.5520  146.8960 C   0  0  1  0  0  3  0  0  0  0  0  0
  192.8260  176.7940  141.5570 C   0  0  0  0  0  2  0  0  0  0  0  0
  192.4620  177.2880  139.1540 N   0  0  0  0  0  0  0  0  0  0  0  0
  189.2780  177.3700  140.9960 O   0  0  0  0  0  0  0  0  0  0  0  0
  188.3690  177.6000  144.5250 C   0  0  0  0  0  0  0  0  0  0  0  0
  186.1580  177.0470  145.4890 C   0  0  0  0  0  2  0  0  0  0  0  0
  193.1610  176.4090  140.1070 C   0  0  0  0  0  2  0  0  0  0  0  0
  188.1860  178.7030  147.8590 C   0  0  0  0  0  0  0  0  0  0  0  0
  189.1340  178.8700  148.6100 O   0  0  0  0  0  0  0  0  0  0  0  0
  187.0280  179.6470  147.9180 C   0  0  0  0  0  1  0  0  0  0  0  0
  194.1150  176.1920  137.8560 O   0  0  0  0  0  1  0  0  0  0  0  0
  192.9800  177.0110  137.8110 C   0  0  1  0  0  3  0  0  0  0  0  0
  191.9920  176.4080  137.0280 O   0  0  0  0  0  0  0  0  0  0  0  0
  192.6270  175.3140  136.4360 C   0  0  0  0  0  2  0  0  0  0  0  0
  191.6210  174.2080  136.1820 C   0  0  1  0  0  3  0  0  0  0  0  0
  192.3570  172.9350  135.8190 C   0  0  0  0  0  1  0  0  0  0  0  0
  190.8280  173.9810  137.3780 N   0  0  0  0  0  1  0  0  0  0  0  0
  184.2810  178.5230  145.2930 O   0  0  0  0  0  0  0  0  0  0  0  0
  183.7650  179.4350  144.3700 C   0  0  0  0  0  2  0  0  0  0  0  0
  182.5380  178.8720  143.7460 C   0  0  0  0  0  0  0  0  0  0  0  0
  182.4380  178.7890  142.3640 O   0  0  0  0  0  0  0  0  0  0  0  0
  181.6070  178.4370  144.4700 O   0  0  0  0  0  1  0  0  0  0  0  0
  1 10  1  0  0  0  0
  2 15  1  0  0  0  0
  3 13  2  0  0  0  0
  3 12  1  0  0  0  0
  4 36  1  1  0  0  0
  4 24  1  0  0  0  0
  5 24  1  6  0  0  0
  5 19  1  0  0  0  0
  6 13  1  0  0  0  0
  7  8  1  1  0  0  0
  7 11  1  0  0  0  0
  8  1  2  0  0  0  0
  9  4  1  0  0  0  0
 10 14  2  0  0  0  0
 10 16  1  0  0  0  0
 11 18  2  0  0  0  0
 12 23  2  0  0  0  0
 13  7  1  0  0  0  0
 15 22  1  0  0  0  0
 15  6  2  0  0  0  0
 17 12  1  0  0  0  0
 17  9  1  0  0  0  0
 18 19  1  0  0  0  0
 18 14  1  0  0  0  0
 19 26  1  1  0  0  0
 20  6  1  0  0  0  0
 21  2  1  0  0  0  0
 21 25  1  0  0  0  0
 22  3  1  0  0  0  0
 23 11  1  0  0  0  0
 23  5  1  0  0  0  0
 25 20  1  0  0  0  0
 26 28  1  0  0  0  0
 26 27  2  0  0  0  0
 30 29  1  1  0  0  0
 30 21  1  0  0  0  0
 31 30  1  0  0  0  0
 32 31  1  0  0  0  0
 33 34  1  1  0  0  0
 33 32  1  0  0  0  0
 33 35  1  0  0  0  0
 37 36  1  0  0  0  0
 38 37  1  0  0  0  0
 38 40  1  0  0  0  0
 39 38  2  0  0  0  0
M  END
>  <MODEL>
9

>  <REMARK>
 VINA RESULT:      -7.1      3.191      8.418
  Name = 
  8 active torsions:
  status: ('A' for Active; 'I' for Inactive)
    1  A    between atoms: O_3  and  C_4
    2  A    between atoms: O_3  and  C_19
    3  A    between atoms: C_4  and  C_25
    4  A    between atoms: C_6  and  O_38
    5  A    between atoms: C_7  and  C_30
    6  A    between atoms: C_15  and  C_20
    7  A    between atoms: C_19  and  N_33
    8  A    between atoms: C_20  and  O_38
                            x       y       z     vdW  Elec       q    Type
                         _______ _______ _______ _____ _____    ______ ____

>  <TORSDO>
F 8

$$$$
