=
 OpenBabel10232410403D

 48 52  0  0  1  0  0  0  0  0999 V2000
  190.4510  177.4420  142.3500 C   0  0  1  0  0  3  0  0  0  0  0  0
  190.7460  176.9100  139.8630 C   0  0  0  0  0  0  0  0  0  0  0  0
  193.1050  176.7200  138.4490 C   0  0  0  0  0  0  0  0  0  0  0  0
  191.9290  176.3490  137.8560 C   0  0  0  0  0  0  0  0  0  0  0  0
  193.1710  177.2060  139.7530 C   0  0  0  0  0  3  0  0  0  0  0  0
  190.6960  176.4460  138.5230 C   0  0  0  0  0  0  0  0  0  0  0  0
  194.0810  176.5280  137.6040 O   0  0  0  0  0  0  0  0  0  0  0  0
  193.5140  176.0410  136.5120 C   0  0  0  0  0  0  0  0  0  0  0  0
  191.9550  177.2890  140.4520 C   0  0  0  0  0  0  0  0  0  0  0  0
  192.1660  175.9080  136.6070 N   0  0  0  0  0  0  0  0  0  0  0  0
  191.8650  177.7520  141.8520 C   0  0  0  0  0  2  0  0  0  0  0  0
  189.3380  177.0240  140.9510 S   0  0  0  0  0  0  0  0  0  0  0  0
  190.4770  176.3460  143.3720 C   0  0  0  0  0  0  0  0  0  0  0  0
  190.4080  176.6610  144.7620 N   0  0  0  0  0  2  0  0  0  0  0  0
  190.6970  175.1240  143.0110 N   0  0  0  0  0  2  0  0  0  0  0  0
  190.2360  177.9800  145.2000 N   0  0  0  0  0  2  0  0  0  0  0  0
  189.8650  177.3670  147.5080 C   0  0  0  0  0  1  0  0  0  0  0  0
  189.2440  177.9530  146.2590 C   0  0  2  0  0  3  0  0  0  0  0  0
  188.1120  177.1270  145.8480 N   0  0  0  0  0  2  0  0  0  0  0  0
  185.8390  177.9070  146.2170 N   0  0  0  0  0  0  0  0  0  0  0  0
  184.8180  178.8310  145.7210 C   0  0  0  0  0  2  0  0  0  0  0  0
  184.3550  178.4210  144.3300 C   0  0  1  0  0  3  0  0  0  0  0  0
  183.2880  179.3810  143.8520 C   0  0  0  0  0  1  0  0  0  0  0  0
  186.6560  177.5680  143.8970 C   0  0  0  0  0  2  0  0  0  0  0  0
  185.5390  178.4640  143.3770 C   0  0  0  0  0  2  0  0  0  0  0  0
  186.2190  178.3900  147.4260 O   0  0  0  0  0  1  0  0  0  0  0  0
  187.0150  177.9620  145.3340 C   0  0  2  0  0  3  0  0  0  0  0  0
  189.4210  176.3070  136.3850 C   0  0  0  0  0  2  0  0  0  0  0  0
  189.4080  176.0070  137.8740 C   0  0  2  0  0  3  0  0  0  0  0  0
  188.6540  177.2060  137.3200 C   0  0  2  0  0  3  0  0  0  0  0  0
  187.1810  176.8610  137.2240 C   0  0  0  0  0  2  0  0  0  0  0  0
  186.4280  179.4460  137.1320 O   0  0  0  0  0  0  0  0  0  0  0  0
  186.5330  178.3910  139.3450 O   0  0  0  0  0  0  0  0  0  0  0  0
  186.1840  178.1750  137.8990 S   0  0  0  0  0  0  0  0  0  0  0  0
  184.4700  177.7290  137.7700 C   0  0  0  0  0  1  0  0  0  0  0  0
  194.2800  175.6840  135.2870 C   0  0  0  0  0  2  0  0  0  0  0  0
  194.1210  173.3420  135.4300 O   0  0  0  0  0  0  0  0  0  0  0  0
  194.8600  174.3130  135.4080 C   0  0  0  0  0  0  0  0  0  0  0  0
  196.3450  174.1330  135.4770 C   0  0  0  0  0  2  0  0  0  0  0  0
  196.7340  173.2580  136.6610 C   0  0  0  0  0  2  0  0  0  0  0  0
  197.2990  175.4430  137.4290 O   0  0  0  0  0  1  0  0  0  0  0  0
  197.3070  174.0950  137.8010 C   0  0  1  0  0  3  0  0  0  0  0  0
  195.1630  173.5770  138.7400 O   0  0  0  0  0  1  0  0  0  0  0  0
  196.4860  173.8960  139.0710 C   0  0  2  0  0  3  0  0  0  0  0  0
  197.3670  175.1000  140.7560 O   0  0  0  0  0  0  0  0  0  0  0  0
  196.5080  175.1460  139.8970 C   0  0  0  0  0  2  0  0  0  0  0  0
  197.3170  175.6740  141.1240 C   0  0  0  0  0  2  0  0  0  0  0  0
  198.6250  174.9690  141.3020 O   0  0  0  0  0  1  0  0  0  0  0  0
  1 13  1  1  0  0  0
  2  9  1  0  0  0  0
  2 12  1  0  0  0  0
  3  5  1  0  0  0  0
  4  3  2  0  0  0  0
  4  6  1  0  0  0  0
  5  9  2  0  0  0  0
  6  2  2  0  0  0  0
  7  3  1  0  0  0  0
  8 10  2  0  0  0  0
  8  7  1  0  0  0  0
  9 11  1  0  0  0  0
 10  4  1  0  0  0  0
 11  1  1  0  0  0  0
 12  1  1  0  0  0  0
 13 14  1  0  0  0  0
 14 16  1  0  0  0  0
 15 13  2  0  0  0  0
 16 18  1  0  0  0  0
 18 17  1  1  0  0  0
 19 18  1  0  0  0  0
 20 26  1  0  0  0  0
 21 20  1  0  0  0  0
 22 23  1  6  0  0  0
 22 21  1  0  0  0  0
 24 27  1  0  0  0  0
 25 24  1  0  0  0  0
 25 22  1  0  0  0  0
 27 19  1  1  0  0  0
 27 20  1  0  0  0  0
 28 30  1  0  0  0  0
 28 29  1  0  0  0  0
 29  6  1  1  0  0  0
 30 31  1  6  0  0  0
 30 29  1  0  0  0  0
 31 34  1  0  0  0  0
 32 34  2  0  0  0  0
 34 33  2  0  0  0  0
 35 34  1  0  0  0  0
 36 38  1  0  0  0  0
 36  8  1  0  0  0  0
 38 37  2  0  0  0  0
 38 39  1  0  0  0  0
 39 40  1  0  0  0  0
 40 42  1  0  0  0  0
 42 41  1  6  0  0  0
 42 44  1  0  0  0  0
 44 43  1  6  0  0  0
 44 46  1  0  0  0  0
 45 47  1  0  0  0  0
 46 45  1  0  0  0  0
 47 48  1  0  0  0  0
M  END
>  <MODEL>
1

>  <REMARK>
 VINA RESULT:      -8.5      0.000      0.000
  Name = 
  16 active torsions:
  status: ('A' for Active; 'I' for Inactive)
    1  A    between atoms: C_3  and  C_24
    2  A    between atoms: C_10  and  C_19
    3  A    between atoms: C_10  and  C_46
    4  A    between atoms: C_13  and  C_34
    5  A    between atoms: C_14  and  C_43
    6  A    between atoms: C_18  and  C_34
    7  A    between atoms: C_18  and  C_44
    8  A    between atoms: S_22  and  C_28
    9  A    between atoms: C_28  and  C_47
   10  A    between atoms: N_29  and  N_30
   11  A    between atoms: N_29  and  C_33
   12  A    between atoms: C_33  and  N_45
   13  A    between atoms: C_36  and  C_37
   14  A    between atoms: C_36  and  C_46
   15  A    between atoms: C_37  and  C_44
   16  A    between atoms: C_42  and  N_45
                            x       y       z     vdW  Elec       q    Type
                         _______ _______ _______ _____ _____    ______ ____

>  <TORSDO>
F 16

$$$$
=
 OpenBabel10232410403D

 48 52  0  0  1  0  0  0  0  0999 V2000
  185.4350  177.6990  136.9120 C   0  0  1  0  0  3  0  0  0  0  0  0
  187.9030  177.5630  137.5810 C   0  0  0  0  0  0  0  0  0  0  0  0
  188.9790  177.8130  140.1070 C   0  0  0  0  0  0  0  0  0  0  0  0
  189.7760  177.4170  139.0670 C   0  0  0  0  0  0  0  0  0  0  0  0
  187.6270  178.1100  139.9490 C   0  0  0  0  0  3  0  0  0  0  0  0
  189.2850  177.2960  137.7570 C   0  0  0  0  0  0  0  0  0  0  0  0
  189.6950  177.8430  141.1980 O   0  0  0  0  0  0  0  0  0  0  0  0
  190.9100  177.4650  140.8360 C   0  0  0  0  0  0  0  0  0  0  0  0
  187.1030  177.9710  138.6530 C   0  0  0  0  0  0  0  0  0  0  0  0
  191.0260  177.1870  139.5110 N   0  0  0  0  0  0  0  0  0  0  0  0
  185.6830  178.2150  138.3320 C   0  0  0  0  0  2  0  0  0  0  0  0
  187.0200  177.3800  136.0430 S   0  0  0  0  0  0  0  0  0  0  0  0
  184.5700  176.4750  136.9360 C   0  0  0  0  0  0  0  0  0  0  0  0
  183.2620  176.5330  137.5020 N   0  0  0  0  0  2  0  0  0  0  0  0
  185.0500  175.3320  136.5700 N   0  0  0  0  0  2  0  0  0  0  0  0
  182.7270  177.7390  137.9720 N   0  0  0  0  0  2  0  0  0  0  0  0
  180.6650  176.9300  138.9390 C   0  0  0  0  0  1  0  0  0  0  0  0
  182.0570  177.4500  139.2260 C   0  0  2  0  0  3  0  0  0  0  0  0
  181.9620  178.6690  140.0240 N   0  0  0  0  0  2  0  0  0  0  0  0
  181.6650  179.2050  142.3770 N   0  0  0  0  0  0  0  0  0  0  0  0
  182.1120  178.8600  143.7270 C   0  0  0  0  0  2  0  0  0  0  0  0
  183.5740  179.2390  143.9190 C   0  0  1  0  0  3  0  0  0  0  0  0
  184.0030  178.8900  145.3270 C   0  0  0  0  0  1  0  0  0  0  0  0
  183.9420  178.7410  141.5060 C   0  0  0  0  0  2  0  0  0  0  0  0
  184.4250  178.4650  142.9230 C   0  0  0  0  0  2  0  0  0  0  0  0
  180.3790  178.7810  142.2930 O   0  0  0  0  0  1  0  0  0  0  0  0
  182.4450  178.4360  141.3940 C   0  0  2  0  0  3  0  0  0  0  0  0
  189.9850  175.3430  136.3740 C   0  0  0  0  0  2  0  0  0  0  0  0
  190.1620  176.8310  136.6220 C   0  0  2  0  0  3  0  0  0  0  0  0
  191.1970  175.8350  137.1220 C   0  0  2  0  0  3  0  0  0  0  0  0
  192.3820  175.8380  136.1760 C   0  0  0  0  0  2  0  0  0  0  0  0
  193.6190  173.7200  137.2890 O   0  0  0  0  0  0  0  0  0  0  0  0
  194.0890  175.9250  138.2590 O   0  0  0  0  0  0  0  0  0  0  0  0
  193.8280  175.1770  136.9810 S   0  0  0  0  0  0  0  0  0  0  0  0
  195.2260  175.3570  135.9010 C   0  0  0  0  0  1  0  0  0  0  0  0
  192.0500  177.3660  141.7880 C   0  0  0  0  0  2  0  0  0  0  0  0
  191.3850  178.8360  143.5000 O   0  0  0  0  0  0  0  0  0  0  0  0
  191.6040  177.6790  143.1790 C   0  0  0  0  0  0  0  0  0  0  0  0
  191.4040  176.5700  144.1660 C   0  0  0  0  0  2  0  0  0  0  0  0
  191.5840  177.0720  145.5930 C   0  0  0  0  0  2  0  0  0  0  0  0
  190.8260  176.4840  147.7740 O   0  0  0  0  0  1  0  0  0  0  0  0
  190.3890  176.7010  146.4640 C   0  0  1  0  0  3  0  0  0  0  0  0
  188.9700  178.1480  147.7440 O   0  0  0  0  0  1  0  0  0  0  0  0
  189.3440  177.8120  146.4370 C   0  0  2  0  0  3  0  0  0  0  0  0
  188.2110  177.6760  144.4970 O   0  0  0  0  0  0  0  0  0  0  0  0
  188.1370  177.3630  145.6700 C   0  0  0  0  0  2  0  0  0  0  0  0
  187.6280  177.4800  144.1980 C   0  0  0  0  0  2  0  0  0  0  0  0
  187.9580  176.2760  143.3740 O   0  0  0  0  0  1  0  0  0  0  0  0
  1 13  1  1  0  0  0
  1 11  1  0  0  0  0
  2  6  2  0  0  0  0
  2  9  1  0  0  0  0
  3  7  1  0  0  0  0
  4 10  1  0  0  0  0
  4  3  2  0  0  0  0
  5  3  1  0  0  0  0
  6  4  1  0  0  0  0
  8  7  1  0  0  0  0
  8 36  1  0  0  0  0
  9  5  2  0  0  0  0
 10  8  2  0  0  0  0
 11  9  1  0  0  0  0
 12  1  1  0  0  0  0
 12  2  1  0  0  0  0
 13 14  1  0  0  0  0
 14 16  1  0  0  0  0
 15 13  2  0  0  0  0
 16 18  1  0  0  0  0
 18 17  1  6  0  0  0
 18 19  1  0  0  0  0
 20 21  1  0  0  0  0
 21 22  1  0  0  0  0
 22 23  1  1  0  0  0
 24 25  1  0  0  0  0
 25 22  1  0  0  0  0
 26 20  1  0  0  0  0
 27 19  1  6  0  0  0
 27 24  1  0  0  0  0
 27 20  1  0  0  0  0
 28 29  1  0  0  0  0
 28 30  1  0  0  0  0
 29 30  1  0  0  0  0
 29  6  1  1  0  0  0
 30 31  1  6  0  0  0
 31 34  1  0  0  0  0
 34 32  2  0  0  0  0
 34 33  2  0  0  0  0
 35 34  1  0  0  0  0
 36 38  1  0  0  0  0
 38 37  2  0  0  0  0
 38 39  1  0  0  0  0
 39 40  1  0  0  0  0
 40 42  1  0  0  0  0
 42 41  1  1  0  0  0
 44 42  1  0  0  0  0
 44 43  1  1  0  0  0
 45 46  1  0  0  0  0
 46 44  1  0  0  0  0
 47 45  1  0  0  0  0
 48 47  1  0  0  0  0
M  END
>  <MODEL>
2

>  <REMARK>
 VINA RESULT:      -7.9      3.585      7.900
  Name = 
  16 active torsions:
  status: ('A' for Active; 'I' for Inactive)
    1  A    between atoms: C_3  and  C_24
    2  A    between atoms: C_10  and  C_19
    3  A    between atoms: C_10  and  C_46
    4  A    between atoms: C_13  and  C_34
    5  A    between atoms: C_14  and  C_43
    6  A    between atoms: C_18  and  C_34
    7  A    between atoms: C_18  and  C_44
    8  A    between atoms: S_22  and  C_28
    9  A    between atoms: C_28  and  C_47
   10  A    between atoms: N_29  and  N_30
   11  A    between atoms: N_29  and  C_33
   12  A    between atoms: C_33  and  N_45
   13  A    between atoms: C_36  and  C_37
   14  A    between atoms: C_36  and  C_46
   15  A    between atoms: C_37  and  C_44
   16  A    between atoms: C_42  and  N_45
                            x       y       z     vdW  Elec       q    Type
                         _______ _______ _______ _____ _____    ______ ____

>  <TORSDO>
F 16

$$$$
=
 OpenBabel10232410403D

 48 52  0  0  1  0  0  0  0  0999 V2000
  191.0380  177.4450  142.9620 C   0  0  1  0  0  3  0  0  0  0  0  0
  189.1630  178.1390  141.3630 C   0  0  0  0  0  0  0  0  0  0  0  0
  188.9910  177.6450  138.6550 C   0  0  0  0  0  0  0  0  0  0  0  0
  187.9180  178.1800  139.3160 C   0  0  0  0  0  0  0  0  0  0  0  0
  190.1910  177.3400  139.2920 C   0  0  0  0  0  3  0  0  0  0  0  0
  187.9600  178.4720  140.6900 C   0  0  0  0  0  0  0  0  0  0  0  0
  188.6740  177.4850  137.3990 O   0  0  0  0  0  0  0  0  0  0  0  0
  187.4250  177.9080  137.2910 C   0  0  0  0  0  0  0  0  0  0  0  0
  190.2510  177.5970  140.6730 C   0  0  0  0  0  0  0  0  0  0  0  0
  186.8970  178.3590  138.4580 N   0  0  0  0  0  0  0  0  0  0  0  0
  191.4410  177.2960  141.4930 C   0  0  0  0  0  2  0  0  0  0  0  0
  189.4280  178.3140  143.1170 S   0  0  0  0  0  0  0  0  0  0  0  0
  191.0050  176.1100  143.6420 C   0  0  0  0  0  0  0  0  0  0  0  0
  191.4320  175.9860  144.9980 N   0  0  0  0  0  2  0  0  0  0  0  0
  190.7190  175.0430  142.9690 N   0  0  0  0  0  2  0  0  0  0  0  0
  191.8130  177.1070  145.7450 N   0  0  0  0  0  2  0  0  0  0  0  0
  192.4520  175.8940  147.7350 C   0  0  0  0  0  1  0  0  0  0  0  0
  191.4470  176.8460  147.1250 C   0  0  2  0  0  3  0  0  0  0  0  0
  190.1180  176.2420  147.1740 N   0  0  0  0  0  2  0  0  0  0  0  0
  188.4120  177.6040  148.2450 N   0  0  0  0  0  0  0  0  0  0  0  0
  187.4590  178.6900  148.0150 C   0  0  0  0  0  2  0  0  0  0  0  0
  186.3700  178.2490  147.0460 C   0  0  1  0  0  3  0  0  0  0  0  0
  185.3900  179.3830  146.8420 C   0  0  0  0  0  1  0  0  0  0  0  0
  188.0590  176.8030  145.9220 C   0  0  0  0  0  2  0  0  0  0  0  0
  187.0050  177.8830  145.7140 C   0  0  0  0  0  2  0  0  0  0  0  0
  189.3610  178.1130  149.0690 O   0  0  0  0  0  1  0  0  0  0  0  0
  189.0740  177.2590  146.9760 C   0  0  2  0  0  3  0  0  0  0  0  0
  186.2260  178.0360  142.4280 C   0  0  0  0  0  2  0  0  0  0  0  0
  186.7630  179.0330  141.4160 C   0  0  2  0  0  3  0  0  0  0  0  0
  185.5200  178.2140  141.1080 C   0  0  2  0  0  3  0  0  0  0  0  0
  184.2930  179.0770  141.3280 C   0  0  0  0  0  2  0  0  0  0  0  0
  183.4800  179.5900  138.8120 O   0  0  0  0  0  0  0  0  0  0  0  0
  181.7340  179.2410  140.5010 O   0  0  0  0  0  0  0  0  0  0  0  0
  183.0970  178.8060  140.0360 S   0  0  0  0  0  0  0  0  0  0  0  0
  183.0540  177.0750  139.6380 C   0  0  0  0  0  1  0  0  0  0  0  0
  186.6720  177.9030  136.0080 C   0  0  0  0  0  2  0  0  0  0  0  0
  184.4140  177.4020  136.4370 O   0  0  0  0  0  0  0  0  0  0  0  0
  185.5020  176.9760  136.0860 C   0  0  0  0  0  0  0  0  0  0  0  0
  185.6640  175.5360  135.7100 C   0  0  0  0  0  2  0  0  0  0  0  0
  185.1420  174.6230  136.8110 C   0  0  0  0  0  2  0  0  0  0  0  0
  185.6770  172.7420  138.1740 O   0  0  0  0  0  1  0  0  0  0  0  0
  186.2440  173.7130  137.3430 C   0  0  1  0  0  3  0  0  0  0  0  0
  186.5460  171.7270  136.0360 O   0  0  0  0  0  1  0  0  0  0  0  0
  186.9880  173.0470  136.1890 C   0  0  2  0  0  3  0  0  0  0  0  0
  188.9340  174.1680  136.3400 O   0  0  0  0  0  0  0  0  0  0  0  0
  188.4620  173.0540  136.4570 C   0  0  0  0  0  2  0  0  0  0  0  0
  189.6070  174.1150  136.4390 C   0  0  0  0  0  2  0  0  0  0  0  0
  190.3700  174.1660  137.7250 O   0  0  0  0  0  1  0  0  0  0  0  0
  1 12  1  0  0  0  0
  1 13  1  6  0  0  0
  2 12  1  0  0  0  0
  3  5  2  0  0  0  0
  3  4  1  0  0  0  0
  4  6  2  0  0  0  0
  5  9  1  0  0  0  0
  6  2  1  0  0  0  0
  7  3  1  0  0  0  0
  8  7  1  0  0  0  0
  8 10  2  0  0  0  0
  9  2  2  0  0  0  0
  9 11  1  0  0  0  0
 10  4  1  0  0  0  0
 11  1  1  0  0  0  0
 13 14  1  0  0  0  0
 14 16  1  0  0  0  0
 15 13  2  0  0  0  0
 16 18  1  0  0  0  0
 18 19  1  0  0  0  0
 18 17  1  6  0  0  0
 20 26  1  0  0  0  0
 21 20  1  0  0  0  0
 22 23  1  6  0  0  0
 22 21  1  0  0  0  0
 24 27  1  0  0  0  0
 25 24  1  0  0  0  0
 25 22  1  0  0  0  0
 27 19  1  1  0  0  0
 27 20  1  0  0  0  0
 29  6  1  6  0  0  0
 29 28  1  0  0  0  0
 30 31  1  1  0  0  0
 30 29  1  0  0  0  0
 30 28  1  0  0  0  0
 32 34  2  0  0  0  0
 34 33  2  0  0  0  0
 34 31  1  0  0  0  0
 35 34  1  0  0  0  0
 36 38  1  0  0  0  0
 36  8  1  0  0  0  0
 38 37  2  0  0  0  0
 39 38  1  0  0  0  0
 39 40  1  0  0  0  0
 40 42  1  0  0  0  0
 42 41  1  1  0  0  0
 44 43  1  1  0  0  0
 44 46  1  0  0  0  0
 44 42  1  0  0  0  0
 45 47  1  0  0  0  0
 45 46  1  0  0  0  0
 47 48  1  0  0  0  0
M  END
>  <MODEL>
3

>  <REMARK>
 VINA RESULT:      -7.7      4.013      6.127
  Name = 
  16 active torsions:
  status: ('A' for Active; 'I' for Inactive)
    1  A    between atoms: C_3  and  C_24
    2  A    between atoms: C_10  and  C_19
    3  A    between atoms: C_10  and  C_46
    4  A    between atoms: C_13  and  C_34
    5  A    between atoms: C_14  and  C_43
    6  A    between atoms: C_18  and  C_34
    7  A    between atoms: C_18  and  C_44
    8  A    between atoms: S_22  and  C_28
    9  A    between atoms: C_28  and  C_47
   10  A    between atoms: N_29  and  N_30
   11  A    between atoms: N_29  and  C_33
   12  A    between atoms: C_33  and  N_45
   13  A    between atoms: C_36  and  C_37
   14  A    between atoms: C_36  and  C_46
   15  A    between atoms: C_37  and  C_44
   16  A    between atoms: C_42  and  N_45
                            x       y       z     vdW  Elec       q    Type
                         _______ _______ _______ _____ _____    ______ ____

>  <TORSDO>
F 16

$$$$
=
 OpenBabel10232410403D

 48 52  0  0  1  0  0  0  0  0999 V2000
  185.9960  176.9510  136.1910 C   0  0  1  0  0  3  0  0  0  0  0  0
  188.3440  176.7710  137.1970 C   0  0  0  0  0  0  0  0  0  0  0  0
  189.1840  177.6330  139.6780 C   0  0  0  0  0  0  0  0  0  0  0  0
  190.0210  176.8770  138.9040 C   0  0  0  0  0  0  0  0  0  0  0  0
  187.9060  178.0040  139.2630 C   0  0  0  0  0  3  0  0  0  0  0  0
  189.6530  176.4300  137.6240 C   0  0  0  0  0  0  0  0  0  0  0  0
  189.7830  177.9070  140.8040 O   0  0  0  0  0  0  0  0  0  0  0  0
  190.9670  177.3220  140.7270 C   0  0  0  0  0  0  0  0  0  0  0  0
  187.5020  177.5490  137.9970 C   0  0  0  0  0  0  0  0  0  0  0  0
  191.1770  176.6630  139.5590 N   0  0  0  0  0  0  0  0  0  0  0  0
  186.1660  177.8290  137.4320 C   0  0  0  0  0  2  0  0  0  0  0  0
  187.6050  176.2380  135.6650 S   0  0  0  0  0  0  0  0  0  0  0  0
  184.9780  175.8780  136.4340 C   0  0  0  0  0  0  0  0  0  0  0  0
  183.6070  176.2220  136.6280 N   0  0  0  0  0  2  0  0  0  0  0  0
  185.3520  174.6520  136.6040 N   0  0  0  0  0  2  0  0  0  0  0  0
  183.1690  177.5480  136.5180 N   0  0  0  0  0  2  0  0  0  0  0  0
  180.7840  177.5700  136.9080 C   0  0  0  0  0  1  0  0  0  0  0  0
  182.1510  177.7470  137.5330 C   0  0  2  0  0  3  0  0  0  0  0  0
  182.2610  179.0970  138.0800 N   0  0  0  0  0  2  0  0  0  0  0  0
  184.3110  179.3970  139.3520 N   0  0  0  0  0  0  0  0  0  0  0  0
  184.8540  179.4610  140.7090 C   0  0  0  0  0  2  0  0  0  0  0  0
  184.7300  178.1100  141.3990 C   0  0  1  0  0  3  0  0  0  0  0  0
  185.3160  178.2010  142.7910 C   0  0  0  0  0  1  0  0  0  0  0  0
  182.6400  177.7210  140.1010 C   0  0  0  0  0  2  0  0  0  0  0  0
  183.2610  177.7290  141.4920 C   0  0  0  0  0  2  0  0  0  0  0  0
  184.4180  180.6520  138.8500 O   0  0  0  0  0  1  0  0  0  0  0  0
  182.8770  179.0710  139.4150 C   0  0  2  0  0  3  0  0  0  0  0  0
  190.3470  174.0970  137.0820 C   0  0  0  0  0  2  0  0  0  0  0  0
  190.5700  175.5710  136.7910 C   0  0  2  0  0  3  0  0  0  0  0  0
  191.5360  174.8040  137.6800 C   0  0  2  0  0  3  0  0  0  0  0  0
  192.7690  174.4440  136.8750 C   0  0  0  0  0  2  0  0  0  0  0  0
  194.0310  175.7710  138.8490 O   0  0  0  0  0  0  0  0  0  0  0  0
  194.2270  176.6910  136.5830 O   0  0  0  0  0  0  0  0  0  0  0  0
  194.1630  175.4250  137.3920 S   0  0  0  0  0  0  0  0  0  0  0  0
  195.6540  174.4940  137.1400 C   0  0  0  0  0  1  0  0  0  0  0  0
  191.9810  177.3910  141.8140 C   0  0  0  0  0  2  0  0  0  0  0  0
  191.1920  175.7860  143.3430 O   0  0  0  0  0  0  0  0  0  0  0  0
  191.3860  176.9700  143.1190 C   0  0  0  0  0  0  0  0  0  0  0  0
  191.0540  177.9990  144.1550 C   0  0  0  0  0  2  0  0  0  0  0  0
  190.1760  177.4070  145.2490 C   0  0  0  0  0  2  0  0  0  0  0  0
  188.1240  176.5410  144.4020 O   0  0  0  0  0  1  0  0  0  0  0  0
  188.7000  177.6770  144.9800 C   0  0  1  0  0  3  0  0  0  0  0  0
  188.4780  177.2500  147.3280 O   0  0  0  0  0  1  0  0  0  0  0  0
  187.9780  178.0290  146.2770 C   0  0  2  0  0  3  0  0  0  0  0  0
  185.8620  178.4350  146.9270 O   0  0  0  0  0  0  0  0  0  0  0  0
  186.5070  177.7840  146.1280 C   0  0  0  0  0  2  0  0  0  0  0  0
  185.2050  178.2670  146.8420 C   0  0  0  0  0  2  0  0  0  0  0  0
  184.3480  179.1260  145.9670 O   0  0  0  0  0  1  0  0  0  0  0  0
  1 13  1  1  0  0  0
  1 11  1  0  0  0  0
  2  6  2  0  0  0  0
  2  9  1  0  0  0  0
  3  7  1  0  0  0  0
  4 10  1  0  0  0  0
  4  3  2  0  0  0  0
  5  3  1  0  0  0  0
  6  4  1  0  0  0  0
  8  7  1  0  0  0  0
  8 36  1  0  0  0  0
  9  5  2  0  0  0  0
 10  8  2  0  0  0  0
 11  9  1  0  0  0  0
 12  1  1  0  0  0  0
 12  2  1  0  0  0  0
 13 15  2  0  0  0  0
 13 14  1  0  0  0  0
 16 14  1  0  0  0  0
 16 18  1  0  0  0  0
 18 17  1  6  0  0  0
 18 19  1  0  0  0  0
 20 27  1  0  0  0  0
 20 21  1  0  0  0  0
 21 22  1  0  0  0  0
 22 25  1  0  0  0  0
 22 23  1  1  0  0  0
 24 25  1  0  0  0  0
 26 20  1  0  0  0  0
 27 19  1  6  0  0  0
 27 24  1  0  0  0  0
 28 30  1  0  0  0  0
 29 28  1  0  0  0  0
 29  6  1  1  0  0  0
 29 30  1  0  0  0  0
 30 31  1  6  0  0  0
 31 34  1  0  0  0  0
 33 34  2  0  0  0  0
 34 32  2  0  0  0  0
 35 34  1  0  0  0  0
 36 38  1  0  0  0  0
 38 37  2  0  0  0  0
 38 39  1  0  0  0  0
 39 40  1  0  0  0  0
 42 41  1  1  0  0  0
 42 40  1  0  0  0  0
 42 44  1  0  0  0  0
 44 43  1  1  0  0  0
 46 44  1  0  0  0  0
 46 45  1  0  0  0  0
 47 45  1  0  0  0  0
 48 47  1  0  0  0  0
M  END
>  <MODEL>
4

>  <REMARK>
 VINA RESULT:      -7.5      3.538      8.597
  Name = 
  16 active torsions:
  status: ('A' for Active; 'I' for Inactive)
    1  A    between atoms: C_3  and  C_24
    2  A    between atoms: C_10  and  C_19
    3  A    between atoms: C_10  and  C_46
    4  A    between atoms: C_13  and  C_34
    5  A    between atoms: C_14  and  C_43
    6  A    between atoms: C_18  and  C_34
    7  A    between atoms: C_18  and  C_44
    8  A    between atoms: S_22  and  C_28
    9  A    between atoms: C_28  and  C_47
   10  A    between atoms: N_29  and  N_30
   11  A    between atoms: N_29  and  C_33
   12  A    between atoms: C_33  and  N_45
   13  A    between atoms: C_36  and  C_37
   14  A    between atoms: C_36  and  C_46
   15  A    between atoms: C_37  and  C_44
   16  A    between atoms: C_42  and  N_45
                            x       y       z     vdW  Elec       q    Type
                         _______ _______ _______ _____ _____    ______ ____

>  <TORSDO>
F 16

$$$$
=
 OpenBabel10232410403D

 48 52  0  0  1  0  0  0  0  0999 V2000
  191.1450  177.4160  142.9890 C   0  0  1  0  0  3  0  0  0  0  0  0
  189.3100  178.0830  141.3330 C   0  0  0  0  0  0  0  0  0  0  0  0
  189.1910  177.5250  138.6350 C   0  0  0  0  0  0  0  0  0  0  0  0
  188.1090  178.0830  139.2590 C   0  0  0  0  0  0  0  0  0  0  0  0
  190.3760  177.2260  139.3050 C   0  0  0  0  0  3  0  0  0  0  0  0
  188.1240  178.4090  140.6260 C   0  0  0  0  0  0  0  0  0  0  0  0
  188.9000  177.3360  137.3770 O   0  0  0  0  0  0  0  0  0  0  0  0
  187.6570  177.7650  137.2320 C   0  0  0  0  0  0  0  0  0  0  0  0
  190.4080  177.5170  140.6800 C   0  0  0  0  0  0  0  0  0  0  0  0
  187.1070  178.2490  138.3760 N   0  0  0  0  0  0  0  0  0  0  0  0
  191.5780  177.2270  141.5330 C   0  0  0  0  0  2  0  0  0  0  0  0
  189.5380  178.2990  143.0870 S   0  0  0  0  0  0  0  0  0  0  0  0
  191.0870  176.0970  143.7000 C   0  0  0  0  0  0  0  0  0  0  0  0
  191.4530  176.0100  145.0760 N   0  0  0  0  0  2  0  0  0  0  0  0
  190.8360  175.0130  143.0420 N   0  0  0  0  0  2  0  0  0  0  0  0
  191.7960  177.1520  145.8110 N   0  0  0  0  0  2  0  0  0  0  0  0
  192.3640  176.0230  147.8700 C   0  0  0  0  0  1  0  0  0  0  0  0
  191.3660  176.9250  147.1780 C   0  0  2  0  0  3  0  0  0  0  0  0
  190.0540  176.2840  147.1810 N   0  0  0  0  0  2  0  0  0  0  0  0
  188.2540  177.5640  148.2000 N   0  0  0  0  0  0  0  0  0  0  0  0
  187.2800  178.6260  147.9500 C   0  0  0  0  0  2  0  0  0  0  0  0
  186.2550  178.1800  146.9160 C   0  0  1  0  0  3  0  0  0  0  0  0
  185.2500  179.2890  146.6930 C   0  0  0  0  0  1  0  0  0  0  0  0
  188.0430  176.8180  145.8410 C   0  0  0  0  0  2  0  0  0  0  0  0
  186.9670  177.8700  145.6090 C   0  0  0  0  0  2  0  0  0  0  0  0
  189.1440  178.0780  149.0840 O   0  0  0  0  0  1  0  0  0  0  0  0
  188.9890  177.2740  146.9580 C   0  0  2  0  0  3  0  0  0  0  0  0
  186.4040  178.0660  142.3990 C   0  0  0  0  0  2  0  0  0  0  0  0
  186.9170  178.9960  141.3130 C   0  0  2  0  0  3  0  0  0  0  0  0
  185.6910  178.1280  141.0720 C   0  0  2  0  0  3  0  0  0  0  0  0
  184.4460  178.9780  141.2310 C   0  0  0  0  0  2  0  0  0  0  0  0
  183.8940  178.0460  138.7650 O   0  0  0  0  0  0  0  0  0  0  0  0
  184.2180  180.4670  138.9970 O   0  0  0  0  0  0  0  0  0  0  0  0
  183.6580  179.2360  139.6540 S   0  0  0  0  0  0  0  0  0  0  0  0
  181.9130  179.4480  139.9030 C   0  0  0  0  0  1  0  0  0  0  0  0
  186.9310  177.7340  135.9330 C   0  0  0  0  0  2  0  0  0  0  0  0
  187.1800  175.6850  134.8050 O   0  0  0  0  0  0  0  0  0  0  0  0
  186.5170  176.3400  135.5930 C   0  0  0  0  0  0  0  0  0  0  0  0
  185.3060  175.7420  136.2410 C   0  0  0  0  0  2  0  0  0  0  0  0
  185.6860  174.5550  137.1160 C   0  0  0  0  0  2  0  0  0  0  0  0
  183.5700  174.7930  138.1860 O   0  0  0  0  0  1  0  0  0  0  0  0
  184.4470  173.8450  137.6520 C   0  0  1  0  0  3  0  0  0  0  0  0
  182.4850  173.5920  136.2990 O   0  0  0  0  0  1  0  0  0  0  0  0
  183.7590  173.0630  136.5370 C   0  0  2  0  0  3  0  0  0  0  0  0
  183.5950  170.8970  135.9450 O   0  0  0  0  0  0  0  0  0  0  0  0
  183.6380  171.6190  136.9220 C   0  0  0  0  0  2  0  0  0  0  0  0
  183.5080  170.2580  136.1690 C   0  0  0  0  0  2  0  0  0  0  0  0
  184.4780  170.1280  135.0370 O   0  0  0  0  0  1  0  0  0  0  0  0
  1 12  1  0  0  0  0
  1 13  1  6  0  0  0
  2 12  1  0  0  0  0
  3  4  2  0  0  0  0
  3  5  1  0  0  0  0
  4  6  1  0  0  0  0
  5  9  2  0  0  0  0
  6  2  2  0  0  0  0
  7  3  1  0  0  0  0
  8  7  1  0  0  0  0
  8 10  2  0  0  0  0
  9  2  1  0  0  0  0
  9 11  1  0  0  0  0
 10  4  1  0  0  0  0
 11  1  1  0  0  0  0
 13 14  1  0  0  0  0
 14 16  1  0  0  0  0
 15 13  2  0  0  0  0
 16 18  1  0  0  0  0
 18 19  1  0  0  0  0
 18 17  1  6  0  0  0
 20 26  1  0  0  0  0
 21 20  1  0  0  0  0
 22 23  1  6  0  0  0
 22 21  1  0  0  0  0
 24 27  1  0  0  0  0
 25 24  1  0  0  0  0
 25 22  1  0  0  0  0
 27 19  1  1  0  0  0
 27 20  1  0  0  0  0
 29  6  1  6  0  0  0
 29 28  1  0  0  0  0
 30 31  1  1  0  0  0
 30 29  1  0  0  0  0
 30 28  1  0  0  0  0
 32 34  2  0  0  0  0
 33 34  2  0  0  0  0
 34 35  1  0  0  0  0
 34 31  1  0  0  0  0
 36  8  1  0  0  0  0
 37 38  2  0  0  0  0
 38 36  1  0  0  0  0
 38 39  1  0  0  0  0
 39 40  1  0  0  0  0
 40 42  1  0  0  0  0
 42 41  1  6  0  0  0
 44 43  1  1  0  0  0
 44 46  1  0  0  0  0
 44 42  1  0  0  0  0
 45 47  1  0  0  0  0
 45 46  1  0  0  0  0
 48 47  1  0  0  0  0
M  END
>  <MODEL>
5

>  <REMARK>
 VINA RESULT:      -7.5      4.467      7.215
  Name = 
  16 active torsions:
  status: ('A' for Active; 'I' for Inactive)
    1  A    between atoms: C_3  and  C_24
    2  A    between atoms: C_10  and  C_19
    3  A    between atoms: C_10  and  C_46
    4  A    between atoms: C_13  and  C_34
    5  A    between atoms: C_14  and  C_43
    6  A    between atoms: C_18  and  C_34
    7  A    between atoms: C_18  and  C_44
    8  A    between atoms: S_22  and  C_28
    9  A    between atoms: C_28  and  C_47
   10  A    between atoms: N_29  and  N_30
   11  A    between atoms: N_29  and  C_33
   12  A    between atoms: C_33  and  N_45
   13  A    between atoms: C_36  and  C_37
   14  A    between atoms: C_36  and  C_46
   15  A    between atoms: C_37  and  C_44
   16  A    between atoms: C_42  and  N_45
                            x       y       z     vdW  Elec       q    Type
                         _______ _______ _______ _____ _____    ______ ____

>  <TORSDO>
F 16

$$$$
=
 OpenBabel10232410403D

 48 52  0  0  1  0  0  0  0  0999 V2000
  189.5070  177.4870  139.6060 C   0  0  1  0  0  3  0  0  0  0  0  0
  187.9260  177.6990  141.6090 C   0  0  0  0  0  0  0  0  0  0  0  0
  185.3870  178.7730  141.6440 C   0  0  0  0  0  0  0  0  0  0  0  0
  185.8620  178.1210  142.7500 C   0  0  0  0  0  0  0  0  0  0  0  0
  186.1400  178.9330  140.4830 C   0  0  0  0  0  3  0  0  0  0  0  0
  187.1560  177.5750  142.7930 C   0  0  0  0  0  0  0  0  0  0  0  0
  184.1690  179.1780  141.8840 O   0  0  0  0  0  0  0  0  0  0  0  0
  183.8980  178.7740  143.1150 C   0  0  0  0  0  0  0  0  0  0  0  0
  187.4290  178.3730  140.4900 C   0  0  0  0  0  0  0  0  0  0  0  0
  184.9210  178.1080  143.7110 N   0  0  0  0  0  0  0  0  0  0  0  0
  188.3340  178.4280  139.3240 C   0  0  0  0  0  2  0  0  0  0  0  0
  189.5510  177.0030  141.3770 S   0  0  0  0  0  0  0  0  0  0  0  0
  189.4490  176.2840  138.7140 C   0  0  0  0  0  0  0  0  0  0  0  0
  190.6540  175.6730  138.2560 N   0  0  0  0  0  2  0  0  0  0  0  0
  188.3150  175.8750  138.2450 N   0  0  0  0  0  2  0  0  0  0  0  0
  191.9070  176.1260  138.6870 N   0  0  0  0  0  2  0  0  0  0  0  0
  191.8900  176.2810  136.2750 C   0  0  0  0  0  1  0  0  0  0  0  0
  192.5450  176.7650  137.5510 C   0  0  2  0  0  3  0  0  0  0  0  0
  193.9640  176.4210  137.5260 N   0  0  0  0  0  2  0  0  0  0  0  0
  195.4290  174.7280  138.4730 N   0  0  0  0  0  0  0  0  0  0  0  0
  195.5270  173.3040  138.7940 C   0  0  0  0  0  2  0  0  0  0  0  0
  195.5330  172.4680  137.5210 C   0  0  1  0  0  3  0  0  0  0  0  0
  195.6540  171.0030  137.8820 C   0  0  0  0  0  1  0  0  0  0  0  0
  194.0590  174.1830  136.4760 C   0  0  0  0  0  2  0  0  0  0  0  0
  194.2330  172.6980  136.7660 C   0  0  0  0  0  2  0  0  0  0  0  0
  195.3760  175.3720  139.6650 O   0  0  0  0  0  1  0  0  0  0  0  0
  194.1580  174.9850  137.7780 C   0  0  2  0  0  3  0  0  0  0  0  0
  187.2240  177.5210  145.2850 C   0  0  0  0  0  2  0  0  0  0  0  0
  187.6600  176.8310  144.0040 C   0  0  2  0  0  3  0  0  0  0  0  0
  188.6370  177.6920  144.7900 C   0  0  2  0  0  3  0  0  0  0  0  0
  189.5470  176.7900  145.6010 C   0  0  0  0  0  2  0  0  0  0  0  0
  191.6660  175.9220  144.1830 O   0  0  0  0  0  0  0  0  0  0  0  0
  192.1300  177.0020  146.3370 O   0  0  0  0  0  0  0  0  0  0  0  0
  191.2470  177.0210  145.1200 S   0  0  0  0  0  0  0  0  0  0  0  0
  191.4130  178.5890  144.3030 C   0  0  0  0  0  1  0  0  0  0  0  0
  182.5980  179.0350  143.7890 C   0  0  0  0  0  2  0  0  0  0  0  0
  180.8050  180.2250  142.8390 O   0  0  0  0  0  0  0  0  0  0  0  0
  181.5110  179.2310  142.7830 C   0  0  0  0  0  0  0  0  0  0  0  0
  181.3090  178.2220  141.6950 C   0  0  0  0  0  2  0  0  0  0  0  0
  180.7090  178.8700  140.4550 C   0  0  0  0  0  2  0  0  0  0  0  0
  182.5600  179.4530  139.0720 O   0  0  0  0  0  1  0  0  0  0  0  0
  181.5190  178.5300  139.2080 C   0  0  1  0  0  3  0  0  0  0  0  0
  183.4630  177.1340  139.0840 O   0  0  0  0  0  1  0  0  0  0  0  0
  182.0800  177.1150  139.3070 C   0  0  2  0  0  3  0  0  0  0  0  0
  180.4830  175.6230  138.7720 O   0  0  0  0  0  0  0  0  0  0  0  0
  181.4220  176.2300  138.2930 C   0  0  0  0  0  2  0  0  0  0  0  0
  180.2380  175.2120  138.2840 C   0  0  0  0  0  2  0  0  0  0  0  0
  180.6880  173.8020  138.0650 O   0  0  0  0  0  1  0  0  0  0  0  0
  1 13  1  6  0  0  0
  1 12  1  0  0  0  0
  2  6  1  0  0  0  0
  3  7  1  0  0  0  0
  3  4  1  0  0  0  0
  4  6  2  0  0  0  0
  4 10  1  0  0  0  0
  5  9  1  0  0  0  0
  5  3  2  0  0  0  0
  7  8  1  0  0  0  0
  8 10  2  0  0  0  0
  8 36  1  0  0  0  0
  9  2  2  0  0  0  0
 11  1  1  0  0  0  0
 11  9  1  0  0  0  0
 12  2  1  0  0  0  0
 14 16  1  0  0  0  0
 14 13  1  0  0  0  0
 15 13  2  0  0  0  0
 18 17  1  6  0  0  0
 18 16  1  0  0  0  0
 19 18  1  0  0  0  0
 20 21  1  0  0  0  0
 20 26  1  0  0  0  0
 22 23  1  1  0  0  0
 22 21  1  0  0  0  0
 24 25  1  0  0  0  0
 24 27  1  0  0  0  0
 25 22  1  0  0  0  0
 27 19  1  6  0  0  0
 27 20  1  0  0  0  0
 29  6  1  6  0  0  0
 29 30  1  0  0  0  0
 29 28  1  0  0  0  0
 30 28  1  0  0  0  0
 30 31  1  1  0  0  0
 32 34  2  0  0  0  0
 34 31  1  0  0  0  0
 34 33  2  0  0  0  0
 35 34  1  0  0  0  0
 38 37  2  0  0  0  0
 38 36  1  0  0  0  0
 39 38  1  0  0  0  0
 40 39  1  0  0  0  0
 42 41  1  1  0  0  0
 42 44  1  0  0  0  0
 42 40  1  0  0  0  0
 44 43  1  6  0  0  0
 46 45  1  0  0  0  0
 46 44  1  0  0  0  0
 47 45  1  0  0  0  0
 48 47  1  0  0  0  0
M  END
>  <MODEL>
6

>  <REMARK>
 VINA RESULT:      -7.4      3.298     11.602
  Name = 
  16 active torsions:
  status: ('A' for Active; 'I' for Inactive)
    1  A    between atoms: C_3  and  C_24
    2  A    between atoms: C_10  and  C_19
    3  A    between atoms: C_10  and  C_46
    4  A    between atoms: C_13  and  C_34
    5  A    between atoms: C_14  and  C_43
    6  A    between atoms: C_18  and  C_34
    7  A    between atoms: C_18  and  C_44
    8  A    between atoms: S_22  and  C_28
    9  A    between atoms: C_28  and  C_47
   10  A    between atoms: N_29  and  N_30
   11  A    between atoms: N_29  and  C_33
   12  A    between atoms: C_33  and  N_45
   13  A    between atoms: C_36  and  C_37
   14  A    between atoms: C_36  and  C_46
   15  A    between atoms: C_37  and  C_44
   16  A    between atoms: C_42  and  N_45
                            x       y       z     vdW  Elec       q    Type
                         _______ _______ _______ _____ _____    ______ ____

>  <TORSDO>
F 16

$$$$
=
 OpenBabel10232410403D

 48 52  0  0  1  0  0  0  0  0999 V2000
  189.7890  177.6220  139.7070 C   0  0  1  0  0  3  0  0  0  0  0  0
  188.1120  177.7540  141.6370 C   0  0  0  0  0  0  0  0  0  0  0  0
  185.5550  178.7840  141.5800 C   0  0  0  0  0  0  0  0  0  0  0  0
  185.9890  178.1110  142.6890 C   0  0  0  0  0  0  0  0  0  0  0  0
  186.3580  178.9870  140.4600 C   0  0  0  0  0  3  0  0  0  0  0  0
  187.2890  177.5850  142.7800 C   0  0  0  0  0  0  0  0  0  0  0  0
  184.3200  179.1610  141.7730 O   0  0  0  0  0  0  0  0  0  0  0  0
  183.9990  178.7200  142.9780 C   0  0  0  0  0  0  0  0  0  0  0  0
  187.6560  178.4490  140.5140 C   0  0  0  0  0  0  0  0  0  0  0  0
  185.0040  178.0560  143.6050 N   0  0  0  0  0  0  0  0  0  0  0  0
  188.6130  178.5500  139.3940 C   0  0  0  0  0  2  0  0  0  0  0  0
  189.7580  177.0910  141.4650 S   0  0  0  0  0  0  0  0  0  0  0  0
  189.7940  176.4420  138.7820 C   0  0  0  0  0  0  0  0  0  0  0  0
  191.0300  175.8860  138.3390 N   0  0  0  0  0  2  0  0  0  0  0  0
  188.6870  176.0080  138.2740 N   0  0  0  0  0  2  0  0  0  0  0  0
  192.2560  176.3690  138.8130 N   0  0  0  0  0  2  0  0  0  0  0  0
  193.4800  176.5840  136.7400 C   0  0  0  0  0  1  0  0  0  0  0  0
  193.2970  175.7670  138.0000 C   0  0  2  0  0  3  0  0  0  0  0  0
  192.9120  174.4050  137.6410 N   0  0  0  0  0  2  0  0  0  0  0  0
  193.7150  172.2540  136.8420 N   0  0  0  0  0  0  0  0  0  0  0  0
  194.9130  171.5320  136.4140 C   0  0  0  0  0  2  0  0  0  0  0  0
  195.8780  171.3570  137.5790 C   0  0  1  0  0  3  0  0  0  0  0  0
  197.0970  170.5910  137.1130 C   0  0  0  0  0  1  0  0  0  0  0  0
  195.0740  173.5380  138.4740 C   0  0  0  0  0  2  0  0  0  0  0  0
  196.3030  172.7260  138.0860 C   0  0  0  0  0  2  0  0  0  0  0  0
  192.9560  172.4030  135.7280 O   0  0  0  0  0  1  0  0  0  0  0  0
  194.0950  173.6000  137.2970 C   0  0  2  0  0  3  0  0  0  0  0  0
  187.1940  177.4330  145.2670 C   0  0  0  0  0  2  0  0  0  0  0  0
  187.7490  176.8180  143.9940 C   0  0  2  0  0  3  0  0  0  0  0  0
  188.6270  177.6920  144.8760 C   0  0  2  0  0  3  0  0  0  0  0  0
  189.5260  176.8030  145.7130 C   0  0  0  0  0  2  0  0  0  0  0  0
  191.6010  175.9080  144.2470 O   0  0  0  0  0  0  0  0  0  0  0  0
  192.1220  176.9100  146.4260 O   0  0  0  0  0  0  0  0  0  0  0  0
  191.2270  176.9920  145.2200 S   0  0  0  0  0  0  0  0  0  0  0  0
  191.4350  178.5770  144.4460 C   0  0  0  0  0  1  0  0  0  0  0  0
  182.6640  178.9410  143.5970 C   0  0  0  0  0  2  0  0  0  0  0  0
  180.7430  179.9610  142.6990 O   0  0  0  0  0  0  0  0  0  0  0  0
  181.6180  179.1250  142.5450 C   0  0  0  0  0  0  0  0  0  0  0  0
  181.6630  178.3000  141.2950 C   0  0  0  0  0  2  0  0  0  0  0  0
  180.9130  178.9860  140.1620 C   0  0  0  0  0  2  0  0  0  0  0  0
  182.8260  179.0560  138.7420 O   0  0  0  0  0  1  0  0  0  0  0  0
  181.8460  179.8610  139.3310 C   0  0  1  0  0  3  0  0  0  0  0  0
  181.1710  179.9300  137.0320 O   0  0  0  0  0  1  0  0  0  0  0  0
  181.0610  180.6040  138.2550 C   0  0  2  0  0  3  0  0  0  0  0  0
  180.7840  182.7240  137.5520 O   0  0  0  0  0  0  0  0  0  0  0  0
  181.5880  181.9990  138.1070 C   0  0  0  0  0  2  0  0  0  0  0  0
  181.0800  183.3360  137.4800 C   0  0  0  0  0  2  0  0  0  0  0  0
  180.6060  183.1710  136.0700 O   0  0  0  0  0  1  0  0  0  0  0  0
  1 13  1  6  0  0  0
  1 12  1  0  0  0  0
  2  6  1  0  0  0  0
  3  7  1  0  0  0  0
  3  4  1  0  0  0  0
  4  6  2  0  0  0  0
  4 10  1  0  0  0  0
  5  9  1  0  0  0  0
  5  3  2  0  0  0  0
  7  8  1  0  0  0  0
  8 36  1  0  0  0  0
  8 10  2  0  0  0  0
  9  2  2  0  0  0  0
 11  1  1  0  0  0  0
 11  9  1  0  0  0  0
 12  2  1  0  0  0  0
 14 13  1  0  0  0  0
 14 16  1  0  0  0  0
 15 13  2  0  0  0  0
 18 17  1  6  0  0  0
 18 16  1  0  0  0  0
 19 18  1  0  0  0  0
 20 27  1  0  0  0  0
 21 20  1  0  0  0  0
 21 22  1  0  0  0  0
 22 23  1  6  0  0  0
 22 25  1  0  0  0  0
 25 24  1  0  0  0  0
 26 20  1  0  0  0  0
 27 19  1  1  0  0  0
 27 24  1  0  0  0  0
 29  6  1  6  0  0  0
 29 30  1  0  0  0  0
 29 28  1  0  0  0  0
 30 28  1  0  0  0  0
 30 31  1  1  0  0  0
 32 34  2  0  0  0  0
 34 31  1  0  0  0  0
 34 33  2  0  0  0  0
 35 34  1  0  0  0  0
 38 37  2  0  0  0  0
 38 36  1  0  0  0  0
 39 38  1  0  0  0  0
 40 39  1  0  0  0  0
 42 41  1  6  0  0  0
 42 40  1  0  0  0  0
 44 43  1  6  0  0  0
 44 42  1  0  0  0  0
 45 46  1  0  0  0  0
 46 44  1  0  0  0  0
 47 45  1  0  0  0  0
 48 47  1  0  0  0  0
M  END
>  <MODEL>
7

>  <REMARK>
 VINA RESULT:      -7.3      3.468     12.078
  Name = 
  16 active torsions:
  status: ('A' for Active; 'I' for Inactive)
    1  A    between atoms: C_3  and  C_24
    2  A    between atoms: C_10  and  C_19
    3  A    between atoms: C_10  and  C_46
    4  A    between atoms: C_13  and  C_34
    5  A    between atoms: C_14  and  C_43
    6  A    between atoms: C_18  and  C_34
    7  A    between atoms: C_18  and  C_44
    8  A    between atoms: S_22  and  C_28
    9  A    between atoms: C_28  and  C_47
   10  A    between atoms: N_29  and  N_30
   11  A    between atoms: N_29  and  C_33
   12  A    between atoms: C_33  and  N_45
   13  A    between atoms: C_36  and  C_37
   14  A    between atoms: C_36  and  C_46
   15  A    between atoms: C_37  and  C_44
   16  A    between atoms: C_42  and  N_45
                            x       y       z     vdW  Elec       q    Type
                         _______ _______ _______ _____ _____    ______ ____

>  <TORSDO>
F 16

$$$$
=
 OpenBabel10232410403D

 48 52  0  0  1  0  0  0  0  0999 V2000
  190.9100  175.4290  136.2770 C   0  0  1  0  0  3  0  0  0  0  0  0
  189.3390  176.9550  137.6040 C   0  0  0  0  0  0  0  0  0  0  0  0
  186.6580  177.4130  137.1520 C   0  0  0  0  0  0  0  0  0  0  0  0
  187.2470  177.9010  138.2870 C   0  0  0  0  0  0  0  0  0  0  0  0
  187.3600  176.6910  136.1910 C   0  0  0  0  0  3  0  0  0  0  0  0
  188.6130  177.7160  138.5560 C   0  0  0  0  0  0  0  0  0  0  0  0
  185.3930  177.7350  137.1620 O   0  0  0  0  0  0  0  0  0  0  0  0
  185.2060  178.4040  138.2890 C   0  0  0  0  0  0  0  0  0  0  0  0
  188.7240  176.4680  136.4470 C   0  0  0  0  0  0  0  0  0  0  0  0
  186.3320  178.5430  139.0360 N   0  0  0  0  0  0  0  0  0  0  0  0
  189.5940  175.6920  135.5410 C   0  0  0  0  0  2  0  0  0  0  0  0
  191.0540  176.4950  137.7660 S   0  0  0  0  0  0  0  0  0  0  0  0
  191.0410  173.9790  136.6300 C   0  0  0  0  0  0  0  0  0  0  0  0
  192.1160  173.2060  136.0970 N   0  0  0  0  0  2  0  0  0  0  0  0
  190.1130  173.3870  137.3070 N   0  0  0  0  0  2  0  0  0  0  0  0
  193.1090  173.7940  135.3040 N   0  0  0  0  0  2  0  0  0  0  0  0
  194.2740  172.0220  136.4620 C   0  0  0  0  0  1  0  0  0  0  0  0
  194.3900  173.4080  135.8660 C   0  0  2  0  0  3  0  0  0  0  0  0
  194.7710  174.3530  136.9130 N   0  0  0  0  0  2  0  0  0  0  0  0
  196.5440  175.0390  138.4290 N   0  0  0  0  0  0  0  0  0  0  0  0
  197.8380  174.6390  138.9810 C   0  0  0  0  0  2  0  0  0  0  0  0
  198.9010  174.6190  137.8920 C   0  0  1  0  0  3  0  0  0  0  0  0
  200.2320  174.2220  138.4940 C   0  0  0  0  0  1  0  0  0  0  0  0
  197.1270  173.9490  136.2760 C   0  0  0  0  0  2  0  0  0  0  0  0
  198.5060  173.6090  136.8260 C   0  0  0  0  0  2  0  0  0  0  0  0
  195.6650  174.9710  139.4590 O   0  0  0  0  0  1  0  0  0  0  0  0
  196.1170  174.0520  137.4240 C   0  0  2  0  0  3  0  0  0  0  0  0
  190.2830  177.2510  140.3480 C   0  0  0  0  0  2  0  0  0  0  0  0
  189.2480  178.2300  139.8240 C   0  0  2  0  0  3  0  0  0  0  0  0
  188.9220  177.3140  140.9930 C   0  0  2  0  0  3  0  0  0  0  0  0
  189.0330  178.1020  142.2830 C   0  0  0  0  0  2  0  0  0  0  0  0
  190.0140  175.7140  143.0530 O   0  0  0  0  0  0  0  0  0  0  0  0
  188.6110  176.9180  144.6660 O   0  0  0  0  0  0  0  0  0  0  0  0
  189.6550  177.0700  143.5960 S   0  0  0  0  0  0  0  0  0  0  0  0
  191.1020  177.8270  144.2940 C   0  0  0  0  0  1  0  0  0  0  0  0
  183.8880  178.9630  138.6950 C   0  0  0  0  0  2  0  0  0  0  0  0
  182.2450  177.3000  138.4320 O   0  0  0  0  0  0  0  0  0  0  0  0
  182.9910  177.8820  139.2040 C   0  0  0  0  0  0  0  0  0  0  0  0
  183.0280  177.4990  140.6510 C   0  0  0  0  0  2  0  0  0  0  0  0
  183.3280  178.7080  141.5270 C   0  0  0  0  0  2  0  0  0  0  0  0
  185.5000  179.5200  142.0760 O   0  0  0  0  0  1  0  0  0  0  0  0
  184.5920  178.4930  142.3520 C   0  0  1  0  0  3  0  0  0  0  0  0
  183.4060  179.5390  144.1530 O   0  0  0  0  0  1  0  0  0  0  0  0
  184.2590  178.4730  143.8400 C   0  0  2  0  0  3  0  0  0  0  0  0
  185.2770  178.8050  145.8200 O   0  0  0  0  0  0  0  0  0  0  0  0
  185.5160  178.5840  144.6490 C   0  0  0  0  0  2  0  0  0  0  0  0
  185.8770  178.8780  146.1390 C   0  0  0  0  0  2  0  0  0  0  0  0
  184.8210  178.4140  147.0930 O   0  0  0  0  0  1  0  0  0  0  0  0
  1 13  1  1  0  0  0
  1 12  1  0  0  0  0
  2 12  1  0  0  0  0
  2  6  1  0  0  0  0
  3  7  1  0  0  0  0
  3  4  1  0  0  0  0
  4  6  2  0  0  0  0
  4 10  1  0  0  0  0
  5  9  1  0  0  0  0
  5  3  2  0  0  0  0
  7  8  1  0  0  0  0
  8 36  1  0  0  0  0
  8 10  2  0  0  0  0
  9  2  2  0  0  0  0
 11  1  1  0  0  0  0
 11  9  1  0  0  0  0
 13 15  2  0  0  0  0
 14 13  1  0  0  0  0
 16 18  1  0  0  0  0
 16 14  1  0  0  0  0
 18 17  1  1  0  0  0
 18 19  1  0  0  0  0
 20 21  1  0  0  0  0
 20 26  1  0  0  0  0
 22 23  1  1  0  0  0
 22 21  1  0  0  0  0
 24 25  1  0  0  0  0
 24 27  1  0  0  0  0
 25 22  1  0  0  0  0
 27 19  1  6  0  0  0
 27 20  1  0  0  0  0
 28 30  1  0  0  0  0
 29  6  1  6  0  0  0
 29 28  1  0  0  0  0
 29 30  1  0  0  0  0
 30 31  1  1  0  0  0
 31 34  1  0  0  0  0
 32 34  2  0  0  0  0
 34 35  1  0  0  0  0
 34 33  2  0  0  0  0
 36 38  1  0  0  0  0
 37 38  2  0  0  0  0
 38 39  1  0  0  0  0
 39 40  1  0  0  0  0
 40 42  1  0  0  0  0
 42 41  1  1  0  0  0
 42 44  1  0  0  0  0
 44 43  1  6  0  0  0
 44 46  1  0  0  0  0
 45 47  1  0  0  0  0
 46 45  1  0  0  0  0
 47 48  1  0  0  0  0
M  END
>  <MODEL>
8

>  <REMARK>
 VINA RESULT:      -7.2      3.095     10.912
  Name = 
  16 active torsions:
  status: ('A' for Active; 'I' for Inactive)
    1  A    between atoms: C_3  and  C_24
    2  A    between atoms: C_10  and  C_19
    3  A    between atoms: C_10  and  C_46
    4  A    between atoms: C_13  and  C_34
    5  A    between atoms: C_14  and  C_43
    6  A    between atoms: C_18  and  C_34
    7  A    between atoms: C_18  and  C_44
    8  A    between atoms: S_22  and  C_28
    9  A    between atoms: C_28  and  C_47
   10  A    between atoms: N_29  and  N_30
   11  A    between atoms: N_29  and  C_33
   12  A    between atoms: C_33  and  N_45
   13  A    between atoms: C_36  and  C_37
   14  A    between atoms: C_36  and  C_46
   15  A    between atoms: C_37  and  C_44
   16  A    between atoms: C_42  and  N_45
                            x       y       z     vdW  Elec       q    Type
                         _______ _______ _______ _____ _____    ______ ____

>  <TORSDO>
F 16

$$$$
=
 OpenBabel10232410403D

 48 52  0  0  1  0  0  0  0  0999 V2000
  189.7030  177.7410  142.5680 C   0  0  1  0  0  3  0  0  0  0  0  0
  187.2250  178.0790  143.1180 C   0  0  0  0  0  0  0  0  0  0  0  0
  185.1850  178.7200  141.3770 C   0  0  0  0  0  0  0  0  0  0  0  0
  184.8900  178.3770  142.6680 C   0  0  0  0  0  0  0  0  0  0  0  0
  186.4900  178.7710  140.8900 C   0  0  0  0  0  3  0  0  0  0  0  0
  185.8920  178.0630  143.6020 C   0  0  0  0  0  0  0  0  0  0  0  0
  184.0710  178.9620  140.7400 O   0  0  0  0  0  0  0  0  0  0  0  0
  183.1080  178.7650  141.6250 C   0  0  0  0  0  0  0  0  0  0  0  0
  187.5100  178.4370  141.7970 C   0  0  0  0  0  0  0  0  0  0  0  0
  183.5580  178.3990  142.8530 N   0  0  0  0  0  0  0  0  0  0  0  0
  188.9380  178.4110  141.4230 C   0  0  0  0  0  2  0  0  0  0  0  0
  188.6580  177.6210  144.0730 S   0  0  0  0  0  0  0  0  0  0  0  0
  190.2140  176.3960  142.1490 C   0  0  0  0  0  0  0  0  0  0  0  0
  190.6720  176.1870  140.8150 N   0  0  0  0  0  2  0  0  0  0  0  0
  190.1180  175.3850  142.9500 N   0  0  0  0  0  2  0  0  0  0  0  0
  190.7300  177.2410  139.8930 N   0  0  0  0  0  2  0  0  0  0  0  0
  191.9740  176.1850  138.1120 C   0  0  0  0  0  1  0  0  0  0  0  0
  190.6120  176.6580  138.5690 C   0  0  2  0  0  3  0  0  0  0  0  0
  190.1100  177.6620  137.6350 N   0  0  0  0  0  2  0  0  0  0  0  0
  188.7790  177.2560  135.6410 N   0  0  0  0  0  0  0  0  0  0  0  0
  187.4830  176.7670  135.1730 C   0  0  0  0  0  2  0  0  0  0  0  0
  186.3660  177.7010  135.6180 C   0  0  1  0  0  3  0  0  0  0  0  0
  185.0410  177.1820  135.1040 C   0  0  0  0  0  1  0  0  0  0  0  0
  187.6930  178.1900  137.6690 C   0  0  0  0  0  2  0  0  0  0  0  0
  186.3340  177.7530  137.1380 C   0  0  0  0  0  2  0  0  0  0  0  0
  189.6890  176.3330  135.2420 O   0  0  0  0  0  1  0  0  0  0  0  0
  188.7910  177.2760  137.1120 C   0  0  2  0  0  3  0  0  0  0  0  0
  184.8550  178.7850  145.7520 C   0  0  0  0  0  2  0  0  0  0  0  0
  185.5570  177.6570  145.0150 C   0  0  2  0  0  3  0  0  0  0  0  0
  186.3150  178.5190  146.0120 C   0  0  2  0  0  3  0  0  0  0  0  0
  186.4450  177.7640  147.3200 C   0  0  0  0  0  2  0  0  0  0  0  0
  188.0560  177.7530  149.4790 O   0  0  0  0  0  0  0  0  0  0  0  0
  188.6220  179.3120  147.6700 O   0  0  0  0  0  0  0  0  0  0  0  0
  188.0870  177.9430  147.9870 S   0  0  0  0  0  0  0  0  0  0  0  0
  189.1470  176.7180  147.2590 C   0  0  0  0  0  1  0  0  0  0  0  0
  181.6640  178.9390  141.3090 C   0  0  0  0  0  2  0  0  0  0  0  0
  181.4650  180.1750  139.3170 O   0  0  0  0  0  0  0  0  0  0  0  0
  181.4580  179.0700  139.8350 C   0  0  0  0  0  0  0  0  0  0  0  0
  181.2710  177.8430  138.9960 C   0  0  0  0  0  2  0  0  0  0  0  0
  182.5080  177.5650  138.1540 C   0  0  0  0  0  2  0  0  0  0  0  0
  182.5550  175.7770  139.7290 O   0  0  0  0  0  1  0  0  0  0  0  0
  183.1900  176.2710  138.5860 C   0  0  1  0  0  3  0  0  0  0  0  0
  181.8550  174.6590  137.4170 O   0  0  0  0  0  1  0  0  0  0  0  0
  183.1300  175.2380  137.4650 C   0  0  2  0  0  3  0  0  0  0  0  0
  185.2310  174.4710  137.2120 O   0  0  0  0  0  0  0  0  0  0  0  0
  184.1570  174.1700  137.6950 C   0  0  0  0  0  2  0  0  0  0  0  0
  185.6540  173.9440  137.3130 C   0  0  0  0  0  2  0  0  0  0  0  0
  185.9200  172.5600  136.8100 O   0  0  0  0  0  1  0  0  0  0  0  0
  1 13  1  6  0  0  0
  1 12  1  0  0  0  0
  2  6  1  0  0  0  0
  2 12  1  0  0  0  0
  3  4  1  0  0  0  0
  4 10  1  0  0  0  0
  4  6  2  0  0  0  0
  5  3  2  0  0  0  0
  5  9  1  0  0  0  0
  7  3  1  0  0  0  0
  7  8  1  0  0  0  0
  8 10  2  0  0  0  0
  9  2  2  0  0  0  0
 11  9  1  0  0  0  0
 11  1  1  0  0  0  0
 13 15  2  0  0  0  0
 14 13  1  0  0  0  0
 16 14  1  0  0  0  0
 18 17  1  6  0  0  0
 18 16  1  0  0  0  0
 19 18  1  0  0  0  0
 20 27  1  0  0  0  0
 21 22  1  0  0  0  0
 21 20  1  0  0  0  0
 22 23  1  1  0  0  0
 22 25  1  0  0  0  0
 25 24  1  0  0  0  0
 26 20  1  0  0  0  0
 27 19  1  6  0  0  0
 27 24  1  0  0  0  0
 28 30  1  0  0  0  0
 29  6  1  6  0  0  0
 29 28  1  0  0  0  0
 29 30  1  0  0  0  0
 30 31  1  1  0  0  0
 31 34  1  0  0  0  0
 33 34  2  0  0  0  0
 34 32  2  0  0  0  0
 35 34  1  0  0  0  0
 36  8  1  0  0  0  0
 37 38  2  0  0  0  0
 38 36  1  0  0  0  0
 39 38  1  0  0  0  0
 40 42  1  0  0  0  0
 40 39  1  0  0  0  0
 42 41  1  1  0  0  0
 44 43  1  1  0  0  0
 44 46  1  0  0  0  0
 44 42  1  0  0  0  0
 45 47  1  0  0  0  0
 45 46  1  0  0  0  0
 48 47  1  0  0  0  0
M  END
>  <MODEL>
9

>  <REMARK>
 VINA RESULT:      -6.9      4.059     10.301
  Name = 
  16 active torsions:
  status: ('A' for Active; 'I' for Inactive)
    1  A    between atoms: C_3  and  C_24
    2  A    between atoms: C_10  and  C_19
    3  A    between atoms: C_10  and  C_46
    4  A    between atoms: C_13  and  C_34
    5  A    between atoms: C_14  and  C_43
    6  A    between atoms: C_18  and  C_34
    7  A    between atoms: C_18  and  C_44
    8  A    between atoms: S_22  and  C_28
    9  A    between atoms: C_28  and  C_47
   10  A    between atoms: N_29  and  N_30
   11  A    between atoms: N_29  and  C_33
   12  A    between atoms: C_33  and  N_45
   13  A    between atoms: C_36  and  C_37
   14  A    between atoms: C_36  and  C_46
   15  A    between atoms: C_37  and  C_44
   16  A    between atoms: C_42  and  N_45
                            x       y       z     vdW  Elec       q    Type
                         _______ _______ _______ _____ _____    ______ ____

>  <TORSDO>
F 16

$$$$
