=
 OpenBabel10232412323D

 29 34  0  0  1  0  0  0  0  0999 V2000
  186.2300  178.6120  138.9300 N   0  0  0  0  0  0  0  0  0  0  0  0
  188.5720  178.1210  139.3450 C   0  0  0  0  0  0  0  0  0  0  0  0
  185.4410  178.0550  143.0940 C   0  0  0  0  0  3  0  0  0  0  0  0
  184.9270  175.9970  137.6350 C   0  0  0  0  0  0  0  0  0  0  0  0
  184.5970  178.7480  140.8980 C   0  0  0  0  0  0  0  0  0  0  0  0
  185.8930  178.4480  140.3390 C   0  0  0  0  0  0  0  0  0  0  0  0
  186.2560  175.8580  136.9600 C   0  0  0  0  0  1  0  0  0  0  0  0
  183.4980  179.4770  140.1090 C   0  0  2  0  0  3  0  0  0  0  0  0
  190.8980  177.5280  139.6620 C   0  0  0  0  0  3  0  0  0  0  0  0
  182.4600  176.2240  138.9020 C   0  0  0  0  0  3  0  0  0  0  0  0
  189.8710  178.0000  138.8420 C   0  0  0  0  0  3  0  0  0  0  0  0
  182.1310  178.8440  140.3920 C   0  0  0  0  0  2  0  0  0  0  0  0
  185.2600  178.5090  137.8540 C   0  0  0  0  0  2  0  0  0  0  0  0
  187.5480  178.5630  138.5130 O   0  0  0  0  0  0  0  0  0  0  0  0
  184.4480  177.2620  138.0190 C   0  0  0  0  0  0  0  0  0  0  0  0
  188.2930  177.7790  140.6720 C   0  0  0  0  0  0  0  0  0  0  0  0
  189.3310  177.3070  141.4930 C   0  0  0  0  0  3  0  0  0  0  0  0
  183.2240  177.3730  138.6820 C   0  0  0  0  0  0  0  0  0  0  0  0
  182.9300  175.0090  138.5170 N   0  0  0  0  0  0  0  0  0  0  0  0
  190.6280  177.1790  140.9880 C   0  0  0  0  0  3  0  0  0  0  0  0
  184.5820  173.4960  137.5140 C   0  0  0  0  0  1  0  0  0  0  0  0
  186.9230  177.9780  141.1930 C   0  0  0  0  0  0  0  0  0  0  0  0
  184.4220  178.5760  142.3050 C   0  0  0  0  0  0  0  0  0  0  0  0
  186.6740  177.7580  142.5460 C   0  0  0  0  0  3  0  0  0  0  0  0
  182.6980  178.7390  139.0080 C   0  0  2  0  0  3  0  0  0  0  0  0
  184.1330  174.8650  137.8990 C   0  0  0  0  0  0  0  0  0  0  0  0
  183.1990  179.0270  143.0450 C   0  0  0  0  0  2  0  0  0  0  0  0
  183.4550  179.0530  144.4880 C   0  0  0  0  0  0  0  0  0  0  0  0
  183.6570  179.0730  145.6280 N   0  0  0  0  0  0  0  0  0  0  0  0
  1  6  1  0  0  0  0
  2 16  1  0  0  0  0
  4 26  2  0  0  0  0
  4 15  1  0  0  0  0
  5 23  1  0  0  0  0
  6  5  2  0  0  0  0
  6 22  1  0  0  0  0
  7  4  1  0  0  0  0
  8 12  1  1  0  0  0
  8  5  1  0  0  0  0
  9 20  2  0  0  0  0
 11  2  2  0  0  0  0
 11  9  1  0  0  0  0
 13 15  1  0  0  0  0
 13  1  1  0  0  0  0
 14  1  1  0  0  0  0
 14  2  1  0  0  0  0
 15 18  2  0  0  0  0
 16 22  1  0  0  0  0
 16 17  2  0  0  0  0
 18 10  1  0  0  0  0
 18 25  1  0  0  0  0
 19 10  2  0  0  0  0
 20 17  1  0  0  0  0
 21 26  1  0  0  0  0
 22 24  2  0  0  0  0
 23 27  1  0  0  0  0
 23  3  2  0  0  0  0
 24  3  1  0  0  0  0
 25  8  1  0  0  0  0
 25 12  1  1  0  0  0
 26 19  1  0  0  0  0
 27 28  1  0  0  0  0
 28 29  3  0  0  0  0
M  END
>  <MODEL>
1

>  <REMARK>
 VINA RESULT:      -7.3      0.000      0.000
  Name = 
  2 active torsions:
  status: ('A' for Active; 'I' for Inactive)
    1  A    between atoms: C_6  and  C_11
    2  A    between atoms: C_11  and  C_26
                            x       y       z     vdW  Elec       q    Type
                         _______ _______ _______ _____ _____    ______ ____

>  <TORSDO>
F 2

$$$$
=
 OpenBabel10232412323D

 29 34  0  0  1  0  0  0  0  0999 V2000
  188.0120  177.8970  138.0370 N   0  0  0  0  0  0  0  0  0  0  0  0
  185.6680  177.6170  137.4680 C   0  0  0  0  0  0  0  0  0  0  0  0
  188.6940  173.8170  136.9570 C   0  0  0  0  0  3  0  0  0  0  0  0
  188.2330  177.8020  141.2240 C   0  0  0  0  0  0  0  0  0  0  0  0
  189.6520  175.9750  137.6230 C   0  0  0  0  0  0  0  0  0  0  0  0
  188.3170  176.5180  137.6750 C   0  0  0  0  0  0  0  0  0  0  0  0
  186.9200  178.5210  141.1810 C   0  0  0  0  0  1  0  0  0  0  0  0
  190.9120  176.8480  137.7340 C   0  0  2  0  0  3  0  0  0  0  0  0
  183.2970  177.3810  137.0320 C   0  0  0  0  0  3  0  0  0  0  0  0
  190.6590  176.4430  141.3230 C   0  0  0  0  0  3  0  0  0  0  0  0
  184.3950  178.1840  137.3460 C   0  0  0  0  0  3  0  0  0  0  0  0
  191.9660  176.1550  138.6030 C   0  0  0  0  0  2  0  0  0  0  0  0
  188.8400  178.6980  138.9220 C   0  0  0  0  0  2  0  0  0  0  0  0
  186.7510  178.4200  137.8110 O   0  0  0  0  0  0  0  0  0  0  0  0
  189.1510  177.9240  140.1650 C   0  0  0  0  0  0  0  0  0  0  0  0
  185.8520  176.2450  137.2700 C   0  0  0  0  0  0  0  0  0  0  0  0
  184.7420  175.4420  136.9530 C   0  0  0  0  0  3  0  0  0  0  0  0
  190.3550  177.2190  140.2010 C   0  0  0  0  0  0  0  0  0  0  0  0
  189.7670  176.3420  142.3430 N   0  0  0  0  0  0  0  0  0  0  0  0
  183.4700  176.0080  136.8380 C   0  0  0  0  0  3  0  0  0  0  0  0
  187.6440  176.8220  143.4780 C   0  0  0  0  0  1  0  0  0  0  0  0
  187.2180  175.6840  137.3450 C   0  0  0  0  0  0  0  0  0  0  0  0
  189.8040  174.6150  137.2130 C   0  0  0  0  0  0  0  0  0  0  0  0
  187.4190  174.3440  137.0230 C   0  0  0  0  0  3  0  0  0  0  0  0
  191.3510  177.4290  139.1000 C   0  0  2  0  0  3  0  0  0  0  0  0
  188.5720  176.9900  142.3230 C   0  0  0  0  0  0  0  0  0  0  0  0
  191.1340  173.9820  136.9320 C   0  0  0  0  0  2  0  0  0  0  0  0
  191.3260  173.8200  135.4870 C   0  0  0  0  0  0  0  0  0  0  0  0
  191.4770  173.6930  134.3470 N   0  0  0  0  0  0  0  0  0  0  0  0
  1 13  1  0  0  0  0
  2 14  1  0  0  0  0
  3 24  2  0  0  0  0
  3 23  1  0  0  0  0
  4 26  1  0  0  0  0
  5  6  1  0  0  0  0
  5  8  1  0  0  0  0
  6  1  1  0  0  0  0
  7  4  1  0  0  0  0
  8 12  1  1  0  0  0
  8 25  1  0  0  0  0
  9 11  2  0  0  0  0
 10 19  1  0  0  0  0
 11  2  1  0  0  0  0
 13 15  1  0  0  0  0
 14  1  1  0  0  0  0
 15 18  1  0  0  0  0
 15  4  2  0  0  0  0
 16 22  1  0  0  0  0
 16  2  2  0  0  0  0
 17 16  1  0  0  0  0
 18 10  2  0  0  0  0
 20 17  2  0  0  0  0
 20  9  1  0  0  0  0
 22  6  2  0  0  0  0
 23  5  2  0  0  0  0
 24 22  1  0  0  0  0
 25 12  1  1  0  0  0
 25 18  1  0  0  0  0
 26 19  2  0  0  0  0
 26 21  1  0  0  0  0
 27 23  1  0  0  0  0
 28 27  1  0  0  0  0
 29 28  3  0  0  0  0
M  END
>  <MODEL>
2

>  <REMARK>
 VINA RESULT:      -6.8      2.772      7.560
  Name = 
  2 active torsions:
  status: ('A' for Active; 'I' for Inactive)
    1  A    between atoms: C_6  and  C_11
    2  A    between atoms: C_11  and  C_26
                            x       y       z     vdW  Elec       q    Type
                         _______ _______ _______ _____ _____    ______ ____

>  <TORSDO>
F 2

$$$$
=
 OpenBabel10232412323D

 29 34  0  0  1  0  0  0  0  0999 V2000
  185.4210  178.7360  139.1200 N   0  0  0  0  0  0  0  0  0  0  0  0
  187.4430  178.4140  140.4250 C   0  0  0  0  0  0  0  0  0  0  0  0
  183.1280  178.4170  142.7140 C   0  0  0  0  0  3  0  0  0  0  0  0
  184.7830  175.9660  137.6580 C   0  0  0  0  0  0  0  0  0  0  0  0
  183.1610  178.9080  140.3110 C   0  0  0  0  0  0  0  0  0  0  0  0
  184.5790  178.6480  140.3070 C   0  0  0  0  0  0  0  0  0  0  0  0
  186.2730  175.8610  137.5470 C   0  0  0  0  0  1  0  0  0  0  0  0
  182.4220  179.5150  139.1080 C   0  0  2  0  0  3  0  0  0  0  0  0
  189.4920  177.9830  141.6420 C   0  0  0  0  0  3  0  0  0  0  0  0
  182.0150  176.1320  137.8810 C   0  0  0  0  0  3  0  0  0  0  0  0
  188.8390  178.3360  140.4590 C   0  0  0  0  0  3  0  0  0  0  0  0
  181.0690  178.8230  138.9090 C   0  0  0  0  0  2  0  0  0  0  0  0
  184.9350  178.5030  137.7710 C   0  0  0  0  0  2  0  0  0  0  0  0
  186.8000  178.7370  139.2350 O   0  0  0  0  0  0  0  0  0  0  0  0
  184.1570  177.2240  137.7250 C   0  0  0  0  0  0  0  0  0  0  0  0
  186.6920  178.1470  141.5740 C   0  0  0  0  0  0  0  0  0  0  0  0
  187.3550  177.7940  142.7620 C   0  0  0  0  0  3  0  0  0  0  0  0
  182.7710  177.3070  137.8660 C   0  0  0  0  0  0  0  0  0  0  0  0
  182.6310  174.9240  137.8050 N   0  0  0  0  0  0  0  0  0  0  0  0
  188.7490  177.7090  142.7940 C   0  0  0  0  0  3  0  0  0  0  0  0
  184.5840  173.4460  137.6300 C   0  0  0  0  0  1  0  0  0  0  0  0
  185.2220  178.2980  141.5230 C   0  0  0  0  0  0  0  0  0  0  0  0
  182.4690  178.8210  141.5580 C   0  0  0  0  0  0  0  0  0  0  0  0
  184.4850  178.1570  142.6960 C   0  0  0  0  0  3  0  0  0  0  0  0
  182.1210  178.6580  137.8540 C   0  0  2  0  0  3  0  0  0  0  0  0
  183.9820  174.8090  137.7000 C   0  0  0  0  0  0  0  0  0  0  0  0
  181.0440  179.2490  141.7420 C   0  0  0  0  0  2  0  0  0  0  0  0
  180.4500  178.5620  142.8940 C   0  0  0  0  0  0  0  0  0  0  0  0
  179.9820  178.0200  143.8020 N   0  0  0  0  0  0  0  0  0  0  0  0
  1 14  1  0  0  0  0
  1  6  1  0  0  0  0
  2 11  2  0  0  0  0
  2 16  1  0  0  0  0
  4 26  2  0  0  0  0
  4 15  1  0  0  0  0
  5 23  1  0  0  0  0
  6  5  2  0  0  0  0
  6 22  1  0  0  0  0
  7  4  1  0  0  0  0
  8 12  1  1  0  0  0
  8  5  1  0  0  0  0
  9 20  2  0  0  0  0
 11  9  1  0  0  0  0
 13  1  1  0  0  0  0
 14  2  1  0  0  0  0
 15 13  1  0  0  0  0
 15 18  2  0  0  0  0
 16 17  2  0  0  0  0
 17 20  1  0  0  0  0
 18 10  1  0  0  0  0
 19 10  2  0  0  0  0
 21 26  1  0  0  0  0
 22 16  1  0  0  0  0
 22 24  2  0  0  0  0
 23 27  1  0  0  0  0
 23  3  2  0  0  0  0
 24  3  1  0  0  0  0
 25 18  1  0  0  0  0
 25 12  1  1  0  0  0
 25  8  1  0  0  0  0
 26 19  1  0  0  0  0
 27 28  1  0  0  0  0
 28 29  3  0  0  0  0
M  END
>  <MODEL>
3

>  <REMARK>
 VINA RESULT:      -6.6      1.293      1.854
  Name = 
  2 active torsions:
  status: ('A' for Active; 'I' for Inactive)
    1  A    between atoms: C_6  and  C_11
    2  A    between atoms: C_11  and  C_26
                            x       y       z     vdW  Elec       q    Type
                         _______ _______ _______ _____ _____    ______ ____

>  <TORSDO>
F 2

$$$$
=
 OpenBabel10232412323D

 29 34  0  0  1  0  0  0  0  0999 V2000
  181.8630  177.8800  140.1540 N   0  0  0  0  0  0  0  0  0  0  0  0
  182.7520  178.5440  142.3150 C   0  0  0  0  0  0  0  0  0  0  0  0
  185.7880  178.2380  138.5010 C   0  0  0  0  0  3  0  0  0  0  0  0
  180.3700  180.4240  138.9200 C   0  0  0  0  0  0  0  0  0  0  0  0
  183.4560  177.5510  138.1770 C   0  0  0  0  0  0  0  0  0  0  0  0
  183.1760  177.9710  139.5280 C   0  0  0  0  0  0  0  0  0  0  0  0
  179.9820  180.6900  140.3420 C   0  0  0  0  0  1  0  0  0  0  0  0
  182.4490  176.7620  137.3250 C   0  0  2  0  0  3  0  0  0  0  0  0
  183.5440  179.3110  144.4710 C   0  0  0  0  0  3  0  0  0  0  0  0
  181.1070  179.9580  136.2780 C   0  0  0  0  0  3  0  0  0  0  0  0
  182.5250  178.7850  143.6730 C   0  0  0  0  0  3  0  0  0  0  0  0
  182.4580  177.2740  135.8800 C   0  0  0  0  0  2  0  0  0  0  0  0
  180.6130  177.9400  139.4150 C   0  0  0  0  0  2  0  0  0  0  0  0
  181.7220  178.0480  141.5210 O   0  0  0  0  0  0  0  0  0  0  0  0
  180.6300  179.1120  138.4830 C   0  0  0  0  0  0  0  0  0  0  0  0
  184.0000  178.8190  141.7460 C   0  0  0  0  0  0  0  0  0  0  0  0
  185.0210  179.3470  142.5550 C   0  0  0  0  0  3  0  0  0  0  0  0
  181.0280  178.8820  137.1650 C   0  0  0  0  0  0  0  0  0  0  0  0
  180.8440  181.2190  136.7110 N   0  0  0  0  0  0  0  0  0  0  0  0
  184.7920  179.5940  143.9110 C   0  0  0  0  0  3  0  0  0  0  0  0
  180.2210  182.8920  138.3960 C   0  0  0  0  0  1  0  0  0  0  0  0
  184.2290  178.4950  140.3220 C   0  0  0  0  0  0  0  0  0  0  0  0
  184.8010  177.6630  137.7080 C   0  0  0  0  0  0  0  0  0  0  0  0
  185.5060  178.6500  139.7890 C   0  0  0  0  0  3  0  0  0  0  0  0
  181.2200  177.4680  136.7030 C   0  0  2  0  0  3  0  0  0  0  0  0
  180.4860  181.4790  137.9970 C   0  0  0  0  0  0  0  0  0  0  0  0
  185.2690  177.0910  136.4040 C   0  0  0  0  0  2  0  0  0  0  0  0
  186.2970  176.0700  136.6340 C   0  0  0  0  0  0  0  0  0  0  0  0
  187.1070  175.2640  136.8160 N   0  0  0  0  0  0  0  0  0  0  0  0
  1 14  1  0  0  0  0
  2 11  1  0  0  0  0
  3 24  1  0  0  0  0
  4  7  1  0  0  0  0
  5  6  2  0  0  0  0
  6  1  1  0  0  0  0
  6 22  1  0  0  0  0
  8 12  1  6  0  0  0
  8  5  1  0  0  0  0
 10 19  2  0  0  0  0
 10 18  1  0  0  0  0
 11  9  2  0  0  0  0
 13  1  1  0  0  0  0
 14  2  1  0  0  0  0
 15  4  1  0  0  0  0
 15 13  1  0  0  0  0
 16  2  2  0  0  0  0
 16 17  1  0  0  0  0
 17 20  2  0  0  0  0
 18 15  2  0  0  0  0
 19 26  1  0  0  0  0
 20  9  1  0  0  0  0
 22 16  1  0  0  0  0
 23  5  1  0  0  0  0
 23  3  2  0  0  0  0
 24 22  2  0  0  0  0
 25 12  1  6  0  0  0
 25 18  1  0  0  0  0
 25  8  1  0  0  0  0
 26 21  1  0  0  0  0
 26  4  2  0  0  0  0
 27 28  1  0  0  0  0
 27 23  1  0  0  0  0
 28 29  3  0  0  0  0
M  END
>  <MODEL>
4

>  <REMARK>
 VINA RESULT:      -6.5      3.006      6.224
  Name = 
  2 active torsions:
  status: ('A' for Active; 'I' for Inactive)
    1  A    between atoms: C_6  and  C_11
    2  A    between atoms: C_11  and  C_26
                            x       y       z     vdW  Elec       q    Type
                         _______ _______ _______ _____ _____    ______ ____

>  <TORSDO>
F 2

$$$$
=
 OpenBabel10232412323D

 29 34  0  0  1  0  0  0  0  0999 V2000
  190.0820  176.6770  135.6870 N   0  0  0  0  0  0  0  0  0  0  0  0
  192.3850  175.9070  135.6440 C   0  0  0  0  0  0  0  0  0  0  0  0
  190.4050  177.2050  139.9160 C   0  0  0  0  0  3  0  0  0  0  0  0
  188.2130  174.0930  135.4640 C   0  0  0  0  0  0  0  0  0  0  0  0
  189.0700  177.5200  137.8820 C   0  0  0  0  0  0  0  0  0  0  0  0
  190.1260  176.8900  137.1280 C   0  0  0  0  0  0  0  0  0  0  0  0
  189.2870  173.5870  134.5520 C   0  0  0  0  0  1  0  0  0  0  0  0
  187.8790  178.2270  137.2170 C   0  0  2  0  0  3  0  0  0  0  0  0
  194.6360  175.0190  135.5400 C   0  0  0  0  0  3  0  0  0  0  0  0
  186.2220  175.0070  137.1790 C   0  0  0  0  0  3  0  0  0  0  0  0
  193.4780  175.4600  134.8950 C   0  0  0  0  0  3  0  0  0  0  0  0
  186.5830  177.9110  137.9720 C   0  0  0  0  0  2  0  0  0  0  0  0
  188.8500  176.4990  134.9380 C   0  0  0  0  0  2  0  0  0  0  0  0
  191.2250  176.3160  134.9940 O   0  0  0  0  0  0  0  0  0  0  0  0
  187.9900  175.4740  135.6100 C   0  0  0  0  0  0  0  0  0  0  0  0
  192.4440  175.9220  137.0410 C   0  0  0  0  0  0  0  0  0  0  0  0
  193.6130  175.4780  137.6840 C   0  0  0  0  0  3  0  0  0  0  0  0
  187.0110  175.9340  136.4930 C   0  0  0  0  0  0  0  0  0  0  0  0
  186.4410  173.6760  137.0220 N   0  0  0  0  0  0  0  0  0  0  0  0
  194.7020  175.0260  136.9360 C   0  0  0  0  0  3  0  0  0  0  0  0
  187.5930  171.7220  136.0820 C   0  0  0  0  0  1  0  0  0  0  0  0
  191.2960  176.4580  137.8040 C   0  0  0  0  0  0  0  0  0  0  0  0
  189.2680  177.6990  139.2860 C   0  0  0  0  0  0  0  0  0  0  0  0
  191.4040  176.5910  139.1860 C   0  0  0  0  0  3  0  0  0  0  0  0
  186.7380  177.4060  136.5690 C   0  0  2  0  0  3  0  0  0  0  0  0
  187.4090  173.1980  136.1950 C   0  0  0  0  0  0  0  0  0  0  0  0
  188.3460  178.5020  140.1520 C   0  0  0  0  0  2  0  0  0  0  0  0
  188.2370  177.8950  141.4830 C   0  0  0  0  0  0  0  0  0  0  0  0
  188.1520  177.4170  142.5330 N   0  0  0  0  0  0  0  0  0  0  0  0
  1  6  1  0  0  0  0
  2 16  1  0  0  0  0
  4 15  2  0  0  0  0
  4 26  1  0  0  0  0
  5 23  2  0  0  0  0
  6 22  2  0  0  0  0
  6  5  1  0  0  0  0
  7  4  1  0  0  0  0
  8  5  1  0  0  0  0
  8 12  1  1  0  0  0
  9 20  2  0  0  0  0
 11  9  1  0  0  0  0
 11  2  2  0  0  0  0
 13 15  1  0  0  0  0
 13  1  1  0  0  0  0
 14  2  1  0  0  0  0
 14  1  1  0  0  0  0
 15 18  1  0  0  0  0
 16 17  2  0  0  0  0
 16 22  1  0  0  0  0
 18 25  1  0  0  0  0
 18 10  2  0  0  0  0
 19 10  1  0  0  0  0
 20 17  1  0  0  0  0
 21 26  1  0  0  0  0
 22 24  1  0  0  0  0
 23  3  1  0  0  0  0
 23 27  1  0  0  0  0
 24  3  2  0  0  0  0
 25  8  1  0  0  0  0
 25 12  1  1  0  0  0
 26 19  2  0  0  0  0
 27 28  1  0  0  0  0
 28 29  3  0  0  0  0
M  END
>  <MODEL>
5

>  <REMARK>
 VINA RESULT:      -6.4      3.408      5.334
  Name = 
  2 active torsions:
  status: ('A' for Active; 'I' for Inactive)
    1  A    between atoms: C_6  and  C_11
    2  A    between atoms: C_11  and  C_26
                            x       y       z     vdW  Elec       q    Type
                         _______ _______ _______ _____ _____    ______ ____

>  <TORSDO>
F 2

$$$$
=
 OpenBabel10232412323D

 29 34  0  0  1  0  0  0  0  0999 V2000
  186.9280  178.3090  137.1500 N   0  0  0  0  0  0  0  0  0  0  0  0
  184.8940  178.6240  138.4370 C   0  0  0  0  0  0  0  0  0  0  0  0
  185.5860  174.3850  136.1110 C   0  0  0  0  0  3  0  0  0  0  0  0
  189.2800  177.6950  139.2260 C   0  0  0  0  0  0  0  0  0  0  0  0
  187.2430  176.1640  135.7860 C   0  0  0  0  0  0  0  0  0  0  0  0
  186.5270  176.9660  136.7480 C   0  0  0  0  0  0  0  0  0  0  0  0
  188.5560  178.6760  140.0960 C   0  0  0  0  0  1  0  0  0  0  0  0
  188.3850  176.7220  134.9220 C   0  0  2  0  0  3  0  0  0  0  0  0
  182.9460  178.9670  139.8340 C   0  0  0  0  0  3  0  0  0  0  0  0
  190.6220  175.8500  137.6340 C   0  0  0  0  0  3  0  0  0  0  0  0
  184.1040  179.4620  139.2310 C   0  0  0  0  0  3  0  0  0  0  0  0
  189.5200  175.6980  134.8130 C   0  0  0  0  0  2  0  0  0  0  0  0
  188.3050  178.7730  137.1390 C   0  0  0  0  0  2  0  0  0  0  0  0
  186.0620  179.1170  137.8650 O   0  0  0  0  0  0  0  0  0  0  0  0
  189.1840  177.7750  137.8250 C   0  0  0  0  0  0  0  0  0  0  0  0
  184.5280  177.2890  138.2360 C   0  0  0  0  0  0  0  0  0  0  0  0
  183.3600  176.7980  138.8450 C   0  0  0  0  0  3  0  0  0  0  0  0
  189.8330  176.8310  137.0270 C   0  0  0  0  0  0  0  0  0  0  0  0
  190.7130  175.7910  138.9880 N   0  0  0  0  0  0  0  0  0  0  0  0
  182.5740  177.6340  139.6440 C   0  0  0  0  0  3  0  0  0  0  0  0
  190.2120  176.5390  141.2710 C   0  0  0  0  0  1  0  0  0  0  0  0
  185.3490  176.4450  137.3420 C   0  0  0  0  0  0  0  0  0  0  0  0
  186.7110  174.8800  135.4590 C   0  0  0  0  0  0  0  0  0  0  0  0
  184.9150  175.1570  137.0400 C   0  0  0  0  0  3  0  0  0  0  0  0
  189.7820  176.9860  135.5360 C   0  0  2  0  0  3  0  0  0  0  0  0
  190.0670  176.6750  139.7930 C   0  0  0  0  0  0  0  0  0  0  0  0
  187.2400  174.0270  134.3460 C   0  0  0  0  0  2  0  0  0  0  0  0
  187.4060  172.6420  134.7980 C   0  0  0  0  0  0  0  0  0  0  0  0
  187.5370  171.5490  135.1550 N   0  0  0  0  0  0  0  0  0  0  0  0
  1 14  1  0  0  0  0
  2 11  1  0  0  0  0
  3 24  1  0  0  0  0
  4 26  1  0  0  0  0
  4  7  1  0  0  0  0
  5  6  2  0  0  0  0
  6  1  1  0  0  0  0
  6 22  1  0  0  0  0
  8 12  1  6  0  0  0
  8 25  1  0  0  0  0
  8  5  1  0  0  0  0
 10 19  1  0  0  0  0
 11  9  2  0  0  0  0
 13  1  1  0  0  0  0
 13 15  1  0  0  0  0
 14  2  1  0  0  0  0
 15  4  2  0  0  0  0
 16  2  2  0  0  0  0
 16 17  1  0  0  0  0
 17 20  2  0  0  0  0
 18 10  2  0  0  0  0
 18 15  1  0  0  0  0
 19 26  2  0  0  0  0
 20  9  1  0  0  0  0
 22 16  1  0  0  0  0
 23  5  1  0  0  0  0
 23  3  2  0  0  0  0
 24 22  2  0  0  0  0
 25 12  1  6  0  0  0
 25 18  1  0  0  0  0
 26 21  1  0  0  0  0
 27 28  1  0  0  0  0
 27 23  1  0  0  0  0
 28 29  3  0  0  0  0
M  END
>  <MODEL>
6

>  <REMARK>
 VINA RESULT:      -6.2      2.734      7.234
  Name = 
  2 active torsions:
  status: ('A' for Active; 'I' for Inactive)
    1  A    between atoms: C_6  and  C_11
    2  A    between atoms: C_11  and  C_26
                            x       y       z     vdW  Elec       q    Type
                         _______ _______ _______ _____ _____    ______ ____

>  <TORSDO>
F 2

$$$$
=
 OpenBabel10232412323D

 29 34  0  0  1  0  0  0  0  0999 V2000
  187.2600  177.3520  137.2090 N   0  0  0  0  0  0  0  0  0  0  0  0
  184.8800  176.8850  137.0880 C   0  0  0  0  0  0  0  0  0  0  0  0
  188.0320  173.1560  136.9550 C   0  0  0  0  0  3  0  0  0  0  0  0
  187.9490  177.9880  140.2650 C   0  0  0  0  0  0  0  0  0  0  0  0
  188.9400  175.4340  136.9750 C   0  0  0  0  0  0  0  0  0  0  0  0
  187.5950  175.9370  137.1150 C   0  0  0  0  0  0  0  0  0  0  0  0
  186.6010  178.6400  140.2700 C   0  0  0  0  0  1  0  0  0  0  0  0
  190.1450  176.3450  136.6940 C   0  0  2  0  0  3  0  0  0  0  0  0
  182.4910  176.4890  137.0890 C   0  0  0  0  0  3  0  0  0  0  0  0
  190.4430  176.7550  140.2800 C   0  0  0  0  0  3  0  0  0  0  0  0
  183.5710  177.3740  137.0440 C   0  0  0  0  0  3  0  0  0  0  0  0
  191.3560  175.8970  137.5190 C   0  0  0  0  0  2  0  0  0  0  0  0
  188.1560  178.3560  137.7570 C   0  0  0  0  0  2  0  0  0  0  0  0
  185.9500  177.7750  137.0730 O   0  0  0  0  0  0  0  0  0  0  0  0
  188.6930  177.8930  139.0750 C   0  0  0  0  0  0  0  0  0  0  0  0
  185.1190  175.5090  137.1690 C   0  0  0  0  0  0  0  0  0  0  0  0
  184.0280  174.6240  137.2120 C   0  0  0  0  0  3  0  0  0  0  0  0
  189.9320  177.2480  139.0770 C   0  0  0  0  0  0  0  0  0  0  0  0
  189.7180  176.8620  141.4230 N   0  0  0  0  0  0  0  0  0  0  0  0
  182.7190  175.1140  137.1760 C   0  0  0  0  0  3  0  0  0  0  0  0
  187.7570  177.5260  142.7420 C   0  0  0  0  0  1  0  0  0  0  0  0
  186.5140  175.0190  137.1500 C   0  0  0  0  0  0  0  0  0  0  0  0
  189.1150  174.0210  136.8550 C   0  0  0  0  0  0  0  0  0  0  0  0
  186.7490  173.6470  137.1030 C   0  0  0  0  0  3  0  0  0  0  0  0
  190.7410  177.2320  137.8140 C   0  0  2  0  0  3  0  0  0  0  0  0
  188.4940  177.4550  141.4480 C   0  0  0  0  0  0  0  0  0  0  0  0
  190.4260  173.3800  136.5150 C   0  0  0  0  0  2  0  0  0  0  0  0
  190.2960  172.5640  135.3030 C   0  0  0  0  0  0  0  0  0  0  0  0
  190.1940  171.9210  134.3460 N   0  0  0  0  0  0  0  0  0  0  0  0
  1 13  1  0  0  0  0
  2 16  1  0  0  0  0
  3 24  1  0  0  0  0
  4  7  1  0  0  0  0
  4 26  1  0  0  0  0
  5  6  2  0  0  0  0
  6 22  1  0  0  0  0
  6  1  1  0  0  0  0
  8  5  1  0  0  0  0
  8 12  1  1  0  0  0
  8 25  1  0  0  0  0
  9 20  2  0  0  0  0
 10 19  1  0  0  0  0
 11  2  2  0  0  0  0
 11  9  1  0  0  0  0
 13 15  1  0  0  0  0
 14  2  1  0  0  0  0
 14  1  1  0  0  0  0
 15 18  1  0  0  0  0
 15  4  2  0  0  0  0
 16 17  2  0  0  0  0
 18 10  2  0  0  0  0
 19 26  2  0  0  0  0
 20 17  1  0  0  0  0
 22 16  1  0  0  0  0
 23  3  2  0  0  0  0
 23  5  1  0  0  0  0
 24 22  2  0  0  0  0
 25 12  1  1  0  0  0
 25 18  1  0  0  0  0
 26 21  1  0  0  0  0
 27 23  1  0  0  0  0
 28 27  1  0  0  0  0
 29 28  3  0  0  0  0
M  END
>  <MODEL>
7

>  <REMARK>
 VINA RESULT:      -6.2      2.857      7.606
  Name = 
  2 active torsions:
  status: ('A' for Active; 'I' for Inactive)
    1  A    between atoms: C_6  and  C_11
    2  A    between atoms: C_11  and  C_26
                            x       y       z     vdW  Elec       q    Type
                         _______ _______ _______ _____ _____    ______ ____

>  <TORSDO>
F 2

$$$$
=
 OpenBabel10232412323D

 29 34  0  0  1  0  0  0  0  0999 V2000
  187.5210  178.1310  138.0760 N   0  0  0  0  0  0  0  0  0  0  0  0
  185.0940  178.0980  138.0190 C   0  0  0  0  0  0  0  0  0  0  0  0
  187.5450  174.0800  136.7140 C   0  0  0  0  0  3  0  0  0  0  0  0
  188.4040  177.8270  141.1330 C   0  0  0  0  0  0  0  0  0  0  0  0
  188.8350  176.0980  137.2400 C   0  0  0  0  0  0  0  0  0  0  0  0
  187.6020  176.7550  137.6020 C   0  0  0  0  0  0  0  0  0  0  0  0
  187.1910  178.6620  141.4030 C   0  0  0  0  0  1  0  0  0  0  0  0
  190.1700  176.8470  137.1080 C   0  0  2  0  0  3  0  0  0  0  0  0
  182.6740  178.1020  138.1000 C   0  0  0  0  0  3  0  0  0  0  0  0
  190.6460  176.2520  140.6480 C   0  0  0  0  0  3  0  0  0  0  0  0
  183.8880  178.7830  138.1990 C   0  0  0  0  0  3  0  0  0  0  0  0
  191.3100  176.0120  137.7000 C   0  0  0  0  0  2  0  0  0  0  0  0
  188.5950  178.8010  138.7900 C   0  0  0  0  0  2  0  0  0  0  0  0
  186.3000  178.7780  138.1490 O   0  0  0  0  0  0  0  0  0  0  0  0
  189.0840  177.9290  139.9050 C   0  0  0  0  0  0  0  0  0  0  0  0
  185.0930  176.7290  137.7330 C   0  0  0  0  0  0  0  0  0  0  0  0
  183.8660  176.0490  137.6330 C   0  0  0  0  0  3  0  0  0  0  0  0
  190.1910  177.1180  139.6510 C   0  0  0  0  0  0  0  0  0  0  0  0
  189.9870  176.1700  141.8330 N   0  0  0  0  0  0  0  0  0  0  0  0
  182.6620  176.7330  137.8200 C   0  0  0  0  0  3  0  0  0  0  0  0
  188.2130  176.7710  143.4200 C   0  0  0  0  0  1  0  0  0  0  0  0
  186.3800  176.0450  137.4860 C   0  0  0  0  0  0  0  0  0  0  0  0
  188.7580  174.7570  136.7540 C   0  0  0  0  0  0  0  0  0  0  0  0
  186.3720  174.7140  137.0760 C   0  0  0  0  0  3  0  0  0  0  0  0
  190.9450  177.3030  138.3680 C   0  0  2  0  0  3  0  0  0  0  0  0
  188.8860  176.9240  142.0980 C   0  0  0  0  0  0  0  0  0  0  0  0
  189.9270  174.0260  136.1660 C   0  0  0  0  0  2  0  0  0  0  0  0
  189.4920  172.7520  135.5840 C   0  0  0  0  0  0  0  0  0  0  0  0
  189.1480  171.7480  135.1240 N   0  0  0  0  0  0  0  0  0  0  0  0
  1 14  1  0  0  0  0
  1 13  1  0  0  0  0
  2 14  1  0  0  0  0
  2 11  1  0  0  0  0
  3 23  2  0  0  0  0
  3 24  1  0  0  0  0
  4  7  1  0  0  0  0
  4 26  1  0  0  0  0
  5  6  2  0  0  0  0
  6  1  1  0  0  0  0
  8  5  1  0  0  0  0
  8 12  1  1  0  0  0
  8 25  1  0  0  0  0
  9 11  2  0  0  0  0
 10 19  1  0  0  0  0
 13 15  1  0  0  0  0
 15  4  2  0  0  0  0
 16  2  2  0  0  0  0
 17 16  1  0  0  0  0
 17 20  2  0  0  0  0
 18 15  1  0  0  0  0
 18 10  2  0  0  0  0
 19 26  2  0  0  0  0
 20  9  1  0  0  0  0
 22  6  1  0  0  0  0
 22 16  1  0  0  0  0
 23  5  1  0  0  0  0
 24 22  2  0  0  0  0
 25 12  1  1  0  0  0
 25 18  1  0  0  0  0
 26 21  1  0  0  0  0
 27 23  1  0  0  0  0
 28 27  1  0  0  0  0
 29 28  3  0  0  0  0
M  END
>  <MODEL>
8

>  <REMARK>
 VINA RESULT:      -6.1      2.597      7.371
  Name = 
  2 active torsions:
  status: ('A' for Active; 'I' for Inactive)
    1  A    between atoms: C_6  and  C_11
    2  A    between atoms: C_11  and  C_26
                            x       y       z     vdW  Elec       q    Type
                         _______ _______ _______ _____ _____    ______ ____

>  <TORSDO>
F 2

$$$$
=
 OpenBabel10232412323D

 29 34  0  0  1  0  0  0  0  0999 V2000
  185.9550  176.1110  135.8440 N   0  0  0  0  0  0  0  0  0  0  0  0
  184.0100  174.6710  136.0430 C   0  0  0  0  0  0  0  0  0  0  0  0
  188.3840  172.9300  137.3460 C   0  0  0  0  0  3  0  0  0  0  0  0
  185.8890  178.1410  138.3120 C   0  0  0  0  0  0  0  0  0  0  0  0
  188.2810  175.1750  136.3610 C   0  0  0  0  0  0  0  0  0  0  0  0
  186.8430  175.0670  136.3390 C   0  0  0  0  0  0  0  0  0  0  0  0
  184.4070  178.1000  138.1050 C   0  0  0  0  0  1  0  0  0  0  0  0
  189.0410  176.3150  135.6660 C   0  0  2  0  0  3  0  0  0  0  0  0
  182.0100  173.3330  136.3240 C   0  0  0  0  0  3  0  0  0  0  0  0
  188.6400  178.2070  138.7270 C   0  0  0  0  0  3  0  0  0  0  0  0
  182.6350  174.4930  135.8590 C   0  0  0  0  0  3  0  0  0  0  0  0
  190.2010  176.7960  136.5450 C   0  0  0  0  0  2  0  0  0  0  0  0
  186.2820  177.5260  135.8750 C   0  0  0  0  0  2  0  0  0  0  0  0
  184.6190  175.8420  135.6040 O   0  0  0  0  0  0  0  0  0  0  0  0
  186.7680  177.9050  137.2390 C   0  0  0  0  0  0  0  0  0  0  0  0
  184.7700  173.6880  136.6850 C   0  0  0  0  0  0  0  0  0  0  0  0
  184.1350  172.5220  137.1480 C   0  0  0  0  0  3  0  0  0  0  0  0
  188.1480  177.9090  137.4540 C   0  0  0  0  0  0  0  0  0  0  0  0
  187.7800  178.4430  139.7520 N   0  0  0  0  0  0  0  0  0  0  0  0
  182.7600  172.3480  136.9710 C   0  0  0  0  0  3  0  0  0  0  0  0
  185.5530  178.6750  140.7590 C   0  0  0  0  0  1  0  0  0  0  0  0
  186.2310  173.8760  136.8090 C   0  0  0  0  0  0  0  0  0  0  0  0
  189.0270  174.0540  136.8390 C   0  0  0  0  0  0  0  0  0  0  0  0
  187.0050  172.8430  137.3330 C   0  0  0  0  0  3  0  0  0  0  0  0
  189.0630  177.7360  136.2790 C   0  0  2  0  0  3  0  0  0  0  0  0
  186.4310  178.4130  139.5820 C   0  0  0  0  0  0  0  0  0  0  0  0
  190.5200  173.9550  136.7400 C   0  0  0  0  0  2  0  0  0  0  0  0
  190.9000  173.0490  135.6510 C   0  0  0  0  0  0  0  0  0  0  0  0
  191.1990  172.3330  134.7930 N   0  0  0  0  0  0  0  0  0  0  0  0
  1 13  1  0  0  0  0
  1  6  1  0  0  0  0
  2 16  1  0  0  0  0
  4 26  1  0  0  0  0
  5 23  1  0  0  0  0
  6  5  2  0  0  0  0
  6 22  1  0  0  0  0
  7  4  1  0  0  0  0
  8 25  1  0  0  0  0
  8  5  1  0  0  0  0
  8 12  1  1  0  0  0
  9 20  2  0  0  0  0
 10 19  1  0  0  0  0
 11  2  2  0  0  0  0
 11  9  1  0  0  0  0
 13 15  1  0  0  0  0
 14  1  1  0  0  0  0
 14  2  1  0  0  0  0
 15 18  1  0  0  0  0
 15  4  2  0  0  0  0
 16 22  1  0  0  0  0
 16 17  2  0  0  0  0
 18 10  2  0  0  0  0
 20 17  1  0  0  0  0
 22 24  2  0  0  0  0
 23  3  2  0  0  0  0
 24  3  1  0  0  0  0
 25 12  1  1  0  0  0
 25 18  1  0  0  0  0
 26 19  2  0  0  0  0
 26 21  1  0  0  0  0
 27 23  1  0  0  0  0
 28 27  1  0  0  0  0
 29 28  3  0  0  0  0
M  END
>  <MODEL>
9

>  <REMARK>
 VINA RESULT:      -5.8      3.107      7.605
  Name = 
  2 active torsions:
  status: ('A' for Active; 'I' for Inactive)
    1  A    between atoms: C_6  and  C_11
    2  A    between atoms: C_11  and  C_26
                            x       y       z     vdW  Elec       q    Type
                         _______ _______ _______ _____ _____    ______ ____

>  <TORSDO>
F 2

$$$$
