=
 OpenBabel10232407483D

 32 35  0  0  1  0  0  0  0  0999 V2000
  189.3080  177.1670  141.9390 C   0  0  0  0  0  0  0  0  0  0  0  0
  189.0250  177.3560  144.7810 C   0  0  0  0  0  0  0  0  0  0  0  0
  190.0720  177.0800  146.9110 N   0  0  0  0  0  0  0  0  0  0  0  0
  190.2470  176.7430  142.7350 N   0  0  0  0  0  0  0  0  0  0  0  0
  190.1790  176.8540  144.1600 C   0  0  0  0  0  0  0  0  0  0  0  0
  192.3090  176.2140  147.1320 N   0  0  0  0  0  1  0  0  0  0  0  0
  191.2730  176.4740  144.9370 C   0  0  0  0  0  3  0  0  0  0  0  0
  191.2010  176.5970  146.3270 C   0  0  0  0  0  0  0  0  0  0  0  0
  187.1620  178.4340  141.7670 C   0  0  0  0  0  3  0  0  0  0  0  0
  187.8120  177.7190  143.9800 C   0  0  0  0  0  2  0  0  0  0  0  0
  189.4610  177.0060  140.5240 N   0  0  0  0  0  2  0  0  0  0  0  0
  188.9900  177.4540  146.1730 C   0  0  0  0  0  3  0  0  0  0  0  0
  188.0830  177.8050  142.5040 C   0  0  0  0  0  0  0  0  0  0  0  0
  190.3190  175.9860  138.4870 C   0  0  0  0  0  2  0  0  0  0  0  0
  191.5900  175.4950  137.7970 C   0  0  0  0  0  2  0  0  0  0  0  0
  192.5800  176.5730  137.7570 N   0  0  0  0  0  0  0  0  0  0  0  0
  191.7790  177.4590  139.8910 C   0  0  0  0  0  2  0  0  0  0  0  0
  192.9740  176.8910  139.1270 C   0  0  0  0  0  2  0  0  0  0  0  0
  190.6490  176.4310  139.9090 C   0  0  1  0  0  3  0  0  0  0  0  0
  193.7620  176.0460  137.0910 C   0  0  0  0  0  2  0  0  0  0  0  0
  194.5720  175.2950  138.0390 N   0  0  0  0  0  2  0  0  0  0  0  0
  195.6630  174.7770  137.3280 N   0  0  0  0  0  2  0  0  0  0  0  0
  197.9090  174.8480  138.1270 C   0  0  0  0  0  0  0  0  0  0  0  0
  197.4070  175.3820  140.2920 O   0  0  0  0  0  0  0  0  0  0  0  0
  198.2920  175.5530  139.2770 N   0  0  0  0  0  2  0  0  0  0  0  0
  196.2530  174.8090  139.6890 C   0  0  0  0  0  2  0  0  0  0  0  0
  196.5980  174.2470  138.3070 C   0  0  1  0  0  3  0  0  0  0  0  0
  198.6200  174.7640  137.0930 O   0  0  0  0  0  0  0  0  0  0  0  0
  187.2690  178.6010  140.3540 N   0  0  0  0  0  2  0  0  0  0  0  0
  186.1210  178.6750  139.5530 N   0  0  0  0  0  2  0  0  0  0  0  0
  185.1820  179.4460  140.2500 N   0  0  0  0  0  2  0  0  0  0  0  0
  184.3060  179.9750  139.2940 N   0  0  0  0  0  1  0  0  0  0  0  0
  1 13  1  0  0  0  0
  1  4  2  0  0  0  0
  2 12  1  0  0  0  0
  4  5  1  0  0  0  0
  5  2  2  0  0  0  0
  5  7  1  0  0  0  0
  7  8  2  0  0  0  0
  8  3  1  0  0  0  0
  8  6  1  0  0  0  0
  9 13  2  0  0  0  0
 10  2  1  0  0  0  0
 11  1  1  0  0  0  0
 12  3  2  0  0  0  0
 13 10  1  0  0  0  0
 14 19  1  0  0  0  0
 15 14  1  0  0  0  0
 16 15  1  0  0  0  0
 16 18  1  0  0  0  0
 17 19  1  0  0  0  0
 18 17  1  0  0  0  0
 19 11  1  6  0  0  0
 20 16  1  0  0  0  0
 20 21  1  0  0  0  0
 22 21  1  0  0  0  0
 23 27  1  0  0  0  0
 23 25  1  0  0  0  0
 25 24  1  0  0  0  0
 26 24  1  0  0  0  0
 27 22  1  6  0  0  0
 27 26  1  0  0  0  0
 28 23  2  0  0  0  0
 29  9  1  0  0  0  0
 30 31  1  0  0  0  0
 30 29  1  0  0  0  0
 32 31  1  0  0  0  0
M  END
>  <MODEL>
1

>  <REMARK>
 VINA RESULT:      -9.2      0.000      0.000
  Name = 
  8 active torsions:
  status: ('A' for Active; 'I' for Inactive)
    1  A    between atoms: N_2  and  N_12
    2  A    between atoms: N_2  and  C_17
    3  A    between atoms: N_4  and  N_29
    4  A    between atoms: N_4  and  N_31
    5  A    between atoms: N_8  and  C_17
    6  A    between atoms: N_12  and  C_28
    7  A    between atoms: C_21  and  N_31
    8  A    between atoms: N_24  and  C_27
                            x       y       z     vdW  Elec       q    Type
                         _______ _______ _______ _____ _____    ______ ____

>  <TORSDO>
F 8

$$$$
=
 OpenBabel10232407483D

 32 35  0  0  1  0  0  0  0  0999 V2000
  188.6520  177.8340  145.2210 C   0  0  0  0  0  0  0  0  0  0  0  0
  186.0710  178.2940  146.3710 C   0  0  0  0  0  0  0  0  0  0  0  0
  183.7600  178.7430  145.9640 N   0  0  0  0  0  0  0  0  0  0  0  0
  187.6410  178.1810  144.4780 N   0  0  0  0  0  0  0  0  0  0  0  0
  186.3190  178.3780  144.9920 C   0  0  0  0  0  0  0  0  0  0  0  0
  182.8980  179.0930  143.7420 N   0  0  0  0  0  1  0  0  0  0  0  0
  185.2680  178.6430  144.1140 C   0  0  0  0  0  3  0  0  0  0  0  0
  183.9800  178.8230  144.6250 C   0  0  0  0  0  0  0  0  0  0  0  0
  189.3920  177.0910  147.4890 C   0  0  0  0  0  3  0  0  0  0  0  0
  187.1870  178.0680  147.3440 C   0  0  0  0  0  2  0  0  0  0  0  0
  189.9410  177.6670  144.6180 N   0  0  0  0  0  2  0  0  0  0  0  0
  184.7710  178.4890  146.8400 C   0  0  0  0  0  3  0  0  0  0  0  0
  188.4640  177.6260  146.6870 C   0  0  0  0  0  0  0  0  0  0  0  0
  191.5730  177.2880  142.8520 C   0  0  0  0  0  2  0  0  0  0  0  0
  191.7810  177.3280  141.3400 C   0  0  0  0  0  2  0  0  0  0  0  0
  190.7700  176.5030  140.6780 N   0  0  0  0  0  0  0  0  0  0  0  0
  189.1200  177.0500  142.3990 C   0  0  0  0  0  2  0  0  0  0  0  0
  189.4580  177.1030  140.9100 C   0  0  0  0  0  2  0  0  0  0  0  0
  190.1810  177.8150  143.1900 C   0  0  1  0  0  3  0  0  0  0  0  0
  191.0200  176.5820  139.2470 C   0  0  0  0  0  2  0  0  0  0  0  0
  189.9130  177.2550  138.5850 N   0  0  0  0  0  2  0  0  0  0  0  0
  189.5320  176.4520  137.5010 N   0  0  0  0  0  2  0  0  0  0  0  0
  187.3260  177.2840  137.1330 C   0  0  0  0  0  0  0  0  0  0  0  0
  187.8750  179.5020  137.1170 O   0  0  0  0  0  0  0  0  0  0  0  0
  186.9330  178.5880  137.4640 N   0  0  0  0  0  2  0  0  0  0  0  0
  189.0470  178.7450  136.8430 C   0  0  0  0  0  2  0  0  0  0  0  0
  188.6940  177.2700  136.6390 C   0  0  1  0  0  3  0  0  0  0  0  0
  186.5800  176.2780  137.2580 O   0  0  0  0  0  0  0  0  0  0  0  0
  190.6560  176.6230  147.0220 N   0  0  0  0  0  2  0  0  0  0  0  0
  191.8310  176.9100  147.7300 N   0  0  0  0  0  2  0  0  0  0  0  0
  192.7000  175.8270  147.5440 N   0  0  0  0  0  2  0  0  0  0  0  0
  192.3250  175.2140  146.3420 N   0  0  0  0  0  1  0  0  0  0  0  0
  1 13  1  0  0  0  0
  2 12  1  0  0  0  0
  2 10  1  0  0  0  0
  3 12  2  0  0  0  0
  4  5  1  0  0  0  0
  4  1  2  0  0  0  0
  5  2  2  0  0  0  0
  6  8  1  0  0  0  0
  7  8  2  0  0  0  0
  7  5  1  0  0  0  0
  8  3  1  0  0  0  0
 11  1  1  0  0  0  0
 13 10  1  0  0  0  0
 13  9  2  0  0  0  0
 14 19  1  0  0  0  0
 15 14  1  0  0  0  0
 16 18  1  0  0  0  0
 16 15  1  0  0  0  0
 17 19  1  0  0  0  0
 18 17  1  0  0  0  0
 19 11  1  1  0  0  0
 20 16  1  0  0  0  0
 21 20  1  0  0  0  0
 22 21  1  0  0  0  0
 23 28  2  0  0  0  0
 23 25  1  0  0  0  0
 24 25  1  0  0  0  0
 26 24  1  0  0  0  0
 27 26  1  0  0  0  0
 27 23  1  0  0  0  0
 27 22  1  1  0  0  0
 29  9  1  0  0  0  0
 29 30  1  0  0  0  0
 31 30  1  0  0  0  0
 32 31  1  0  0  0  0
M  END
>  <MODEL>
2

>  <REMARK>
 VINA RESULT:      -9.0      4.311      7.248
  Name = 
  8 active torsions:
  status: ('A' for Active; 'I' for Inactive)
    1  A    between atoms: N_2  and  N_12
    2  A    between atoms: N_2  and  C_17
    3  A    between atoms: N_4  and  N_29
    4  A    between atoms: N_4  and  N_31
    5  A    between atoms: N_8  and  C_17
    6  A    between atoms: N_12  and  C_28
    7  A    between atoms: C_21  and  N_31
    8  A    between atoms: N_24  and  C_27
                            x       y       z     vdW  Elec       q    Type
                         _______ _______ _______ _____ _____    ______ ____

>  <TORSDO>
F 8

$$$$
=
 OpenBabel10232407483D

 32 35  0  0  1  0  0  0  0  0999 V2000
  188.6340  177.8480  145.1400 C   0  0  0  0  0  0  0  0  0  0  0  0
  186.0840  178.2980  146.3600 C   0  0  0  0  0  0  0  0  0  0  0  0
  183.7630  178.7490  146.0180 N   0  0  0  0  0  0  0  0  0  0  0  0
  187.6040  178.2000  144.4270 N   0  0  0  0  0  0  0  0  0  0  0  0
  186.2960  178.3920  144.9760 C   0  0  0  0  0  0  0  0  0  0  0  0
  182.8430  179.1160  143.8220 N   0  0  0  0  0  1  0  0  0  0  0  0
  185.2220  178.6640  144.1290 C   0  0  0  0  0  3  0  0  0  0  0  0
  183.9480  178.8390  144.6740 C   0  0  0  0  0  0  0  0  0  0  0  0
  189.4330  177.0880  147.3820 C   0  0  0  0  0  3  0  0  0  0  0  0
  187.2250  178.0640  147.3030 C   0  0  0  0  0  2  0  0  0  0  0  0
  189.9070  177.6860  144.5020 N   0  0  0  0  0  2  0  0  0  0  0  0
  184.7970  178.4880  146.8650 C   0  0  0  0  0  3  0  0  0  0  0  0
  188.4850  177.6280  146.6090 C   0  0  0  0  0  0  0  0  0  0  0  0
  191.4260  177.1860  142.6670 C   0  0  0  0  0  2  0  0  0  0  0  0
  191.5820  177.2430  141.1490 C   0  0  0  0  0  2  0  0  0  0  0  0
  190.4670  176.5440  140.5090 N   0  0  0  0  0  0  0  0  0  0  0  0
  188.9470  177.2140  142.3040 C   0  0  0  0  0  2  0  0  0  0  0  0
  189.2340  177.2700  140.8040 C   0  0  0  0  0  2  0  0  0  0  0  0
  190.1090  177.8450  143.0700 C   0  0  1  0  0  3  0  0  0  0  0  0
  190.6730  176.6330  139.0710 C   0  0  0  0  0  2  0  0  0  0  0  0
  190.4450  175.3350  138.4550 N   0  0  0  0  0  2  0  0  0  0  0  0
  191.6920  174.8570  138.0280 N   0  0  0  0  0  2  0  0  0  0  0  0
  193.7610  175.9910  137.6800 C   0  0  0  0  0  0  0  0  0  0  0  0
  193.8170  175.7570  135.4070 O   0  0  0  0  0  0  0  0  0  0  0  0
  194.5580  175.7990  136.5440 N   0  0  0  0  0  2  0  0  0  0  0  0
  192.4730  175.5970  135.8450 C   0  0  0  0  0  2  0  0  0  0  0  0
  192.3510  175.9480  137.3300 C   0  0  1  0  0  3  0  0  0  0  0  0
  194.2260  176.1700  138.8350 O   0  0  0  0  0  0  0  0  0  0  0  0
  190.6840  176.6230  146.8780 N   0  0  0  0  0  2  0  0  0  0  0  0
  191.8780  176.9070  147.5570 N   0  0  0  0  0  2  0  0  0  0  0  0
  192.6710  175.7540  147.4970 N   0  0  0  0  0  2  0  0  0  0  0  0
  192.3540  175.1110  146.2940 N   0  0  0  0  0  1  0  0  0  0  0  0
  1 13  1  0  0  0  0
  2 12  1  0  0  0  0
  2 10  1  0  0  0  0
  3 12  2  0  0  0  0
  4  5  1  0  0  0  0
  4  1  2  0  0  0  0
  5  2  2  0  0  0  0
  6  8  1  0  0  0  0
  7  8  2  0  0  0  0
  7  5  1  0  0  0  0
  8  3  1  0  0  0  0
 11  1  1  0  0  0  0
 13 10  1  0  0  0  0
 13  9  2  0  0  0  0
 14 19  1  0  0  0  0
 15 14  1  0  0  0  0
 16 18  1  0  0  0  0
 16 15  1  0  0  0  0
 17 19  1  0  0  0  0
 18 17  1  0  0  0  0
 19 11  1  1  0  0  0
 20 16  1  0  0  0  0
 21 20  1  0  0  0  0
 22 21  1  0  0  0  0
 23 28  2  0  0  0  0
 24 26  1  0  0  0  0
 24 25  1  0  0  0  0
 25 23  1  0  0  0  0
 26 27  1  0  0  0  0
 27 23  1  0  0  0  0
 27 22  1  1  0  0  0
 29  9  1  0  0  0  0
 29 30  1  0  0  0  0
 31 30  1  0  0  0  0
 32 31  1  0  0  0  0
M  END
>  <MODEL>
3

>  <REMARK>
 VINA RESULT:      -8.7      2.661      5.913
  Name = 
  8 active torsions:
  status: ('A' for Active; 'I' for Inactive)
    1  A    between atoms: N_2  and  N_12
    2  A    between atoms: N_2  and  C_17
    3  A    between atoms: N_4  and  N_29
    4  A    between atoms: N_4  and  N_31
    5  A    between atoms: N_8  and  C_17
    6  A    between atoms: N_12  and  C_28
    7  A    between atoms: C_21  and  N_31
    8  A    between atoms: N_24  and  C_27
                            x       y       z     vdW  Elec       q    Type
                         _______ _______ _______ _____ _____    ______ ____

>  <TORSDO>
F 8

$$$$
=
 OpenBabel10232407483D

 32 35  0  0  1  0  0  0  0  0999 V2000
  188.1770  177.5400  144.1070 C   0  0  0  0  0  0  0  0  0  0  0  0
  185.9720  178.4190  145.7070 C   0  0  0  0  0  0  0  0  0  0  0  0
  183.6430  178.9450  145.7730 N   0  0  0  0  0  0  0  0  0  0  0  0
  187.0210  177.7990  143.5680 N   0  0  0  0  0  0  0  0  0  0  0  0
  185.8720  178.1960  144.3250 C   0  0  0  0  0  0  0  0  0  0  0  0
  182.2640  178.8880  143.7980 N   0  0  0  0  0  1  0  0  0  0  0  0
  184.6420  178.3510  143.6860 C   0  0  0  0  0  3  0  0  0  0  0  0
  183.5250  178.7280  144.4350 C   0  0  0  0  0  0  0  0  0  0  0  0
  189.4400  177.2320  146.2400 C   0  0  0  0  0  3  0  0  0  0  0  0
  187.2900  178.3180  146.4130 C   0  0  0  0  0  2  0  0  0  0  0  0
  189.2730  177.1560  143.2670 N   0  0  0  0  0  2  0  0  0  0  0  0
  184.8330  178.8040  146.4170 C   0  0  0  0  0  3  0  0  0  0  0  0
  188.3550  177.6550  145.5840 C   0  0  0  0  0  0  0  0  0  0  0  0
  188.6490  178.2830  141.2020 C   0  0  0  0  0  2  0  0  0  0  0  0
  188.6390  178.1480  139.6810 C   0  0  0  0  0  2  0  0  0  0  0  0
  189.9920  177.8660  139.1990 N   0  0  0  0  0  0  0  0  0  0  0  0
  190.5080  176.6040  141.2300 C   0  0  0  0  0  2  0  0  0  0  0  0
  190.4000  176.5580  139.7070 C   0  0  0  0  0  2  0  0  0  0  0  0
  189.1540  176.9850  141.8260 C   0  0  1  0  0  3  0  0  0  0  0  0
  189.9160  177.7490  137.7510 C   0  0  0  0  0  2  0  0  0  0  0  0
  190.4250  176.4520  137.3300 N   0  0  0  0  0  2  0  0  0  0  0  0
  191.1430  176.6560  136.1440 N   0  0  0  0  0  2  0  0  0  0  0  0
  193.3290  175.9800  136.8170 C   0  0  0  0  0  0  0  0  0  0  0  0
  192.7090  174.0150  137.8070 O   0  0  0  0  0  0  0  0  0  0  0  0
  193.5640  175.0700  137.8570 N   0  0  0  0  0  2  0  0  0  0  0  0
  191.6850  174.4080  136.9020 C   0  0  0  0  0  2  0  0  0  0  0  0
  192.1430  175.6040  136.0640 C   0  0  1  0  0  3  0  0  0  0  0  0
  194.0580  176.9800  136.5890 O   0  0  0  0  0  0  0  0  0  0  0  0
  190.5390  176.5840  145.6010 N   0  0  0  0  0  2  0  0  0  0  0  0
  191.8420  176.7280  146.0990 N   0  0  0  0  0  2  0  0  0  0  0  0
  191.7440  176.8050  147.4940 N   0  0  0  0  0  2  0  0  0  0  0  0
  192.7360  175.9650  148.0130 N   0  0  0  0  0  1  0  0  0  0  0  0
  1 13  1  0  0  0  0
  2 10  1  0  0  0  0
  2 12  1  0  0  0  0
  3 12  2  0  0  0  0
  4  1  2  0  0  0  0
  4  5  1  0  0  0  0
  5  2  2  0  0  0  0
  6  8  1  0  0  0  0
  7  5  1  0  0  0  0
  7  8  2  0  0  0  0
  8  3  1  0  0  0  0
 11  1  1  0  0  0  0
 13  9  2  0  0  0  0
 13 10  1  0  0  0  0
 14 19  1  0  0  0  0
 15 14  1  0  0  0  0
 16 15  1  0  0  0  0
 16 18  1  0  0  0  0
 17 19  1  0  0  0  0
 18 17  1  0  0  0  0
 19 11  1  1  0  0  0
 20 16  1  0  0  0  0
 21 20  1  0  0  0  0
 22 21  1  0  0  0  0
 23 25  1  0  0  0  0
 24 25  1  0  0  0  0
 26 24  1  0  0  0  0
 27 22  1  1  0  0  0
 27 23  1  0  0  0  0
 27 26  1  0  0  0  0
 28 23  2  0  0  0  0
 29 30  1  0  0  0  0
 29  9  1  0  0  0  0
 30 31  1  0  0  0  0
 31 32  1  0  0  0  0
M  END
>  <MODEL>
4

>  <REMARK>
 VINA RESULT:      -8.6      2.815      5.792
  Name = 
  8 active torsions:
  status: ('A' for Active; 'I' for Inactive)
    1  A    between atoms: N_2  and  N_12
    2  A    between atoms: N_2  and  C_17
    3  A    between atoms: N_4  and  N_29
    4  A    between atoms: N_4  and  N_31
    5  A    between atoms: N_8  and  C_17
    6  A    between atoms: N_12  and  C_28
    7  A    between atoms: C_21  and  N_31
    8  A    between atoms: N_24  and  C_27
                            x       y       z     vdW  Elec       q    Type
                         _______ _______ _______ _____ _____    ______ ____

>  <TORSDO>
F 8

$$$$
=
 OpenBabel10232407483D

 32 35  0  0  1  0  0  0  0  0999 V2000
  189.3520  177.2390  142.2440 C   0  0  0  0  0  0  0  0  0  0  0  0
  189.0510  177.3710  145.0870 C   0  0  0  0  0  0  0  0  0  0  0  0
  190.0830  177.0500  147.2170 N   0  0  0  0  0  0  0  0  0  0  0  0
  190.2840  176.7960  143.0370 N   0  0  0  0  0  0  0  0  0  0  0  0
  190.2080  176.8790  144.4630 C   0  0  0  0  0  0  0  0  0  0  0  0
  192.3160  176.1730  147.4350 N   0  0  0  0  0  1  0  0  0  0  0  0
  191.2960  176.4800  145.2400 C   0  0  0  0  0  3  0  0  0  0  0  0
  191.2150  176.5750  146.6310 C   0  0  0  0  0  0  0  0  0  0  0  0
  187.2100  178.5150  142.0830 C   0  0  0  0  0  3  0  0  0  0  0  0
  187.8440  177.7540  144.2860 C   0  0  0  0  0  2  0  0  0  0  0  0
  189.5140  177.1050  140.8260 N   0  0  0  0  0  2  0  0  0  0  0  0
  189.0080  177.4420  146.4810 C   0  0  0  0  0  3  0  0  0  0  0  0
  188.1240  177.8690  142.8140 C   0  0  0  0  0  0  0  0  0  0  0  0
  190.3780  176.1130  138.7790 C   0  0  0  0  0  2  0  0  0  0  0  0
  191.6510  175.6320  138.0870 C   0  0  0  0  0  2  0  0  0  0  0  0
  192.6410  176.7100  138.0640 N   0  0  0  0  0  0  0  0  0  0  0  0
  191.8330  177.5680  140.2070 C   0  0  0  0  0  2  0  0  0  0  0  0
  193.0310  177.0100  139.4400 C   0  0  0  0  0  2  0  0  0  0  0  0
  190.7030  176.5390  140.2080 C   0  0  1  0  0  3  0  0  0  0  0  0
  193.8250  176.1930  137.3950 C   0  0  0  0  0  2  0  0  0  0  0  0
  194.2490  174.9510  138.0250 N   0  0  0  0  0  2  0  0  0  0  0  0
  195.6500  174.9490  138.0310 N   0  0  0  0  0  2  0  0  0  0  0  0
  197.3670  174.9820  136.3760 C   0  0  0  0  0  0  0  0  0  0  0  0
  197.7950  172.7370  136.3880 O   0  0  0  0  0  0  0  0  0  0  0  0
  198.3350  173.9760  136.2550 N   0  0  0  0  0  2  0  0  0  0  0  0
  196.4960  172.9520  136.9260 C   0  0  0  0  0  2  0  0  0  0  0  0
  196.0820  174.4150  136.7500 C   0  0  1  0  0  3  0  0  0  0  0  0
  197.6040  176.2030  136.1850 O   0  0  0  0  0  0  0  0  0  0  0  0
  187.3270  178.7100  140.6740 N   0  0  0  0  0  2  0  0  0  0  0  0
  186.2060  178.5950  139.8410 N   0  0  0  0  0  2  0  0  0  0  0  0
  185.2310  179.4680  140.3400 N   0  0  0  0  0  2  0  0  0  0  0  0
  184.4920  179.9170  139.2380 N   0  0  0  0  0  1  0  0  0  0  0  0
  1 13  1  0  0  0  0
  1  4  2  0  0  0  0
  2 12  1  0  0  0  0
  4  5  1  0  0  0  0
  5  2  2  0  0  0  0
  5  7  1  0  0  0  0
  7  8  2  0  0  0  0
  8  3  1  0  0  0  0
  8  6  1  0  0  0  0
  9 13  2  0  0  0  0
 10  2  1  0  0  0  0
 11  1  1  0  0  0  0
 12  3  2  0  0  0  0
 13 10  1  0  0  0  0
 14 19  1  0  0  0  0
 15 14  1  0  0  0  0
 16 15  1  0  0  0  0
 16 18  1  0  0  0  0
 17 19  1  0  0  0  0
 18 17  1  0  0  0  0
 19 11  1  6  0  0  0
 20 21  1  0  0  0  0
 20 16  1  0  0  0  0
 21 22  1  0  0  0  0
 23 27  1  0  0  0  0
 24 26  1  0  0  0  0
 25 23  1  0  0  0  0
 25 24  1  0  0  0  0
 27 26  1  0  0  0  0
 27 22  1  1  0  0  0
 28 23  2  0  0  0  0
 29  9  1  0  0  0  0
 30 31  1  0  0  0  0
 30 29  1  0  0  0  0
 32 31  1  0  0  0  0
M  END
>  <MODEL>
5

>  <REMARK>
 VINA RESULT:      -8.4      1.230      1.349
  Name = 
  8 active torsions:
  status: ('A' for Active; 'I' for Inactive)
    1  A    between atoms: N_2  and  N_12
    2  A    between atoms: N_2  and  C_17
    3  A    between atoms: N_4  and  N_29
    4  A    between atoms: N_4  and  N_31
    5  A    between atoms: N_8  and  C_17
    6  A    between atoms: N_12  and  C_28
    7  A    between atoms: C_21  and  N_31
    8  A    between atoms: N_24  and  C_27
                            x       y       z     vdW  Elec       q    Type
                         _______ _______ _______ _____ _____    ______ ____

>  <TORSDO>
F 8

$$$$
=
 OpenBabel10232407483D

 32 35  0  0  1  0  0  0  0  0999 V2000
  190.0810  177.2860  139.6250 C   0  0  0  0  0  0  0  0  0  0  0  0
  190.5880  176.5560  136.9040 C   0  0  0  0  0  0  0  0  0  0  0  0
  191.9640  175.3130  135.3980 N   0  0  0  0  0  0  0  0  0  0  0  0
  191.1410  176.6030  139.3020 N   0  0  0  0  0  0  0  0  0  0  0  0
  191.4210  176.1710  137.9660 C   0  0  0  0  0  0  0  0  0  0  0  0
  193.8980  174.0890  136.1490 N   0  0  0  0  0  1  0  0  0  0  0  0
  192.5220  175.3510  137.7200 C   0  0  0  0  0  3  0  0  0  0  0  0
  192.7800  174.9260  136.4150 C   0  0  0  0  0  0  0  0  0  0  0  0
  187.8870  178.1900  138.8420 C   0  0  0  0  0  3  0  0  0  0  0  0
  189.4310  177.4820  137.1250 C   0  0  0  0  0  2  0  0  0  0  0  0
  189.8890  177.6820  140.9890 N   0  0  0  0  0  2  0  0  0  0  0  0
  190.8860  176.1160  135.6130 C   0  0  0  0  0  3  0  0  0  0  0  0
  189.0860  177.6590  138.5770 C   0  0  0  0  0  0  0  0  0  0  0  0
  190.7770  178.3960  143.1400 C   0  0  0  0  0  2  0  0  0  0  0  0
  191.6360  177.9560  144.3230 C   0  0  0  0  0  2  0  0  0  0  0  0
  191.1200  176.7030  144.8740 N   0  0  0  0  0  0  0  0  0  0  0  0
  190.3930  175.9670  142.6580 C   0  0  0  0  0  2  0  0  0  0  0  0
  191.2730  175.6560  143.8670 C   0  0  0  0  0  2  0  0  0  0  0  0
  190.8010  177.3140  142.0630 C   0  0  1  0  0  3  0  0  0  0  0  0
  191.9770  176.3390  145.9920 C   0  0  0  0  0  2  0  0  0  0  0  0
  191.3930  176.8100  147.2390 N   0  0  0  0  0  2  0  0  0  0  0  0
  190.0160  176.5530  147.1720 N   0  0  0  0  0  2  0  0  0  0  0  0
  188.0710  177.7460  146.4800 C   0  0  0  0  0  0  0  0  0  0  0  0
  187.4450  178.4690  148.5560 O   0  0  0  0  0  0  0  0  0  0  0  0
  187.0080  178.0460  147.3420 N   0  0  0  0  0  2  0  0  0  0  0  0
  188.8270  178.1330  148.5920 C   0  0  0  0  0  2  0  0  0  0  0  0
  189.3410  177.8410  147.1800 C   0  0  1  0  0  3  0  0  0  0  0  0
  187.9200  177.4380  145.2690 O   0  0  0  0  0  0  0  0  0  0  0  0
  187.4090  178.4230  140.1660 N   0  0  0  0  0  2  0  0  0  0  0  0
  186.0700  178.7740  140.3910 N   0  0  0  0  0  2  0  0  0  0  0  0
  185.4270  178.7620  139.1470 N   0  0  0  0  0  2  0  0  0  0  0  0
  184.6520  179.9270  139.0850 N   0  0  0  0  0  1  0  0  0  0  0  0
  1 11  1  0  0  0  0
  2 10  1  0  0  0  0
  2  5  1  0  0  0  0
  3 12  1  0  0  0  0
  3  8  2  0  0  0  0
  4  1  2  0  0  0  0
  5  4  1  0  0  0  0
  6  8  1  0  0  0  0
  7  5  2  0  0  0  0
  8  7  1  0  0  0  0
  9 29  1  0  0  0  0
 10 13  1  0  0  0  0
 12  2  2  0  0  0  0
 13  9  2  0  0  0  0
 13  1  1  0  0  0  0
 14 15  1  0  0  0  0
 15 16  1  0  0  0  0
 16 20  1  0  0  0  0
 17 18  1  0  0  0  0
 18 16  1  0  0  0  0
 19 11  1  6  0  0  0
 19 17  1  0  0  0  0
 19 14  1  0  0  0  0
 20 21  1  0  0  0  0
 22 21  1  0  0  0  0
 23 27  1  0  0  0  0
 23 25  1  0  0  0  0
 24 26  1  0  0  0  0
 25 24  1  0  0  0  0
 27 22  1  1  0  0  0
 27 26  1  0  0  0  0
 28 23  2  0  0  0  0
 29 30  1  0  0  0  0
 31 30  1  0  0  0  0
 32 31  1  0  0  0  0
M  END
>  <MODEL>
6

>  <REMARK>
 VINA RESULT:      -8.3      3.858      8.402
  Name = 
  8 active torsions:
  status: ('A' for Active; 'I' for Inactive)
    1  A    between atoms: N_2  and  N_12
    2  A    between atoms: N_2  and  C_17
    3  A    between atoms: N_4  and  N_29
    4  A    between atoms: N_4  and  N_31
    5  A    between atoms: N_8  and  C_17
    6  A    between atoms: N_12  and  C_28
    7  A    between atoms: C_21  and  N_31
    8  A    between atoms: N_24  and  C_27
                            x       y       z     vdW  Elec       q    Type
                         _______ _______ _______ _____ _____    ______ ____

>  <TORSDO>
F 8

$$$$
=
 OpenBabel10232407483D

 32 35  0  0  1  0  0  0  0  0999 V2000
  187.8800  177.8700  142.8010 C   0  0  0  0  0  0  0  0  0  0  0  0
  188.0730  177.3210  145.6030 C   0  0  0  0  0  0  0  0  0  0  0  0
  189.5230  176.9220  147.4600 N   0  0  0  0  0  0  0  0  0  0  0  0
  189.0270  177.5980  143.3510 N   0  0  0  0  0  0  0  0  0  0  0  0
  189.1900  177.3610  144.7530 C   0  0  0  0  0  0  0  0  0  0  0  0
  191.9140  176.7800  147.2060 N   0  0  0  0  0  1  0  0  0  0  0  0
  190.4680  177.1820  145.2810 C   0  0  0  0  0  3  0  0  0  0  0  0
  190.6170  176.9630  146.6530 C   0  0  0  0  0  0  0  0  0  0  0  0
  185.4700  178.4000  143.1980 C   0  0  0  0  0  3  0  0  0  0  0  0
  186.6830  177.4510  145.0590 C   0  0  0  0  0  2  0  0  0  0  0  0
  187.8130  178.0850  141.3850 N   0  0  0  0  0  2  0  0  0  0  0  0
  188.2660  177.0900  146.9660 C   0  0  0  0  0  3  0  0  0  0  0  0
  186.6480  177.9450  143.6400 C   0  0  0  0  0  0  0  0  0  0  0  0
  189.8800  176.8950  140.9040 C   0  0  0  0  0  2  0  0  0  0  0  0
  191.0440  176.7990  139.9200 C   0  0  0  0  0  2  0  0  0  0  0  0
  190.5330  176.6000  138.5630 N   0  0  0  0  0  0  0  0  0  0  0  0
  188.5490  177.9440  139.0580 C   0  0  0  0  0  2  0  0  0  0  0  0
  189.7840  177.7930  138.1710 C   0  0  0  0  0  2  0  0  0  0  0  0
  188.9820  178.0670  140.5180 C   0  0  1  0  0  3  0  0  0  0  0  0
  191.6840  176.5170  137.6770 C   0  0  0  0  0  2  0  0  0  0  0  0
  192.5410  175.4120  138.0790 N   0  0  0  0  0  2  0  0  0  0  0  0
  193.8330  175.9300  138.2410 N   0  0  0  0  0  2  0  0  0  0  0  0
  195.5450  174.3550  138.7670 C   0  0  0  0  0  0  0  0  0  0  0  0
  194.5370  172.5360  137.8190 O   0  0  0  0  0  0  0  0  0  0  0  0
  195.3200  172.9740  138.8380 N   0  0  0  0  0  2  0  0  0  0  0  0
  193.9750  173.7120  137.2490 C   0  0  0  0  0  2  0  0  0  0  0  0
  194.7580  174.9480  137.6980 C   0  0  1  0  0  3  0  0  0  0  0  0
  196.3240  174.9740  139.5360 O   0  0  0  0  0  0  0  0  0  0  0  0
  185.2700  178.9030  141.8780 N   0  0  0  0  0  2  0  0  0  0  0  0
  184.1710  178.4860  141.1140 N   0  0  0  0  0  2  0  0  0  0  0  0
  184.5570  178.5480  139.7690 N   0  0  0  0  0  2  0  0  0  0  0  0
  184.4870  179.8960  139.3930 N   0  0  0  0  0  1  0  0  0  0  0  0
  1  4  2  0  0  0  0
  1 13  1  0  0  0  0
  2 12  1  0  0  0  0
  4  5  1  0  0  0  0
  5  7  1  0  0  0  0
  5  2  2  0  0  0  0
  7  8  2  0  0  0  0
  8  6  1  0  0  0  0
  8  3  1  0  0  0  0
  9 13  2  0  0  0  0
 10  2  1  0  0  0  0
 11  1  1  0  0  0  0
 12  3  2  0  0  0  0
 13 10  1  0  0  0  0
 15 14  1  0  0  0  0
 16 15  1  0  0  0  0
 17 19  1  0  0  0  0
 18 16  1  0  0  0  0
 18 17  1  0  0  0  0
 19 14  1  0  0  0  0
 19 11  1  1  0  0  0
 20 21  1  0  0  0  0
 20 16  1  0  0  0  0
 21 22  1  0  0  0  0
 23 25  1  0  0  0  0
 23 28  2  0  0  0  0
 24 25  1  0  0  0  0
 26 27  1  0  0  0  0
 26 24  1  0  0  0  0
 27 22  1  1  0  0  0
 27 23  1  0  0  0  0
 29  9  1  0  0  0  0
 30 29  1  0  0  0  0
 31 30  1  0  0  0  0
 32 31  1  0  0  0  0
M  END
>  <MODEL>
7

>  <REMARK>
 VINA RESULT:      -8.3      1.668      2.352
  Name = 
  8 active torsions:
  status: ('A' for Active; 'I' for Inactive)
    1  A    between atoms: N_2  and  N_12
    2  A    between atoms: N_2  and  C_17
    3  A    between atoms: N_4  and  N_29
    4  A    between atoms: N_4  and  N_31
    5  A    between atoms: N_8  and  C_17
    6  A    between atoms: N_12  and  C_28
    7  A    between atoms: C_21  and  N_31
    8  A    between atoms: N_24  and  C_27
                            x       y       z     vdW  Elec       q    Type
                         _______ _______ _______ _____ _____    ______ ____

>  <TORSDO>
F 8

$$$$
=
 OpenBabel10232407483D

 32 35  0  0  1  0  0  0  0  0999 V2000
  187.8880  177.6270  143.7150 C   0  0  0  0  0  0  0  0  0  0  0  0
  185.7130  178.4360  145.3900 C   0  0  0  0  0  0  0  0  0  0  0  0
  183.3840  178.9510  145.5220 N   0  0  0  0  0  0  0  0  0  0  0  0
  186.7210  177.9030  143.2090 N   0  0  0  0  0  0  0  0  0  0  0  0
  185.5870  178.2670  144.0030 C   0  0  0  0  0  0  0  0  0  0  0  0
  181.9680  178.9690  143.5730 N   0  0  0  0  0  1  0  0  0  0  0  0
  184.3440  178.4430  143.3940 C   0  0  0  0  0  3  0  0  0  0  0  0
  183.2410  178.7870  144.1790 C   0  0  0  0  0  0  0  0  0  0  0  0
  189.1930  177.2380  145.8110 C   0  0  0  0  0  3  0  0  0  0  0  0
  187.0440  178.3110  146.0670 C   0  0  0  0  0  2  0  0  0  0  0  0
  188.9690  177.2790  142.8400 N   0  0  0  0  0  2  0  0  0  0  0  0
  184.5870  178.7880  146.1370 C   0  0  0  0  0  3  0  0  0  0  0  0
  188.0940  177.6840  145.1930 C   0  0  0  0  0  0  0  0  0  0  0  0
  188.1510  178.4240  140.8540 C   0  0  0  0  0  2  0  0  0  0  0  0
  188.1070  178.3620  139.3290 C   0  0  0  0  0  2  0  0  0  0  0  0
  189.4660  178.2630  138.7960 N   0  0  0  0  0  0  0  0  0  0  0  0
  190.1910  176.9740  140.7450 C   0  0  0  0  0  2  0  0  0  0  0  0
  190.0390  176.9890  139.2250 C   0  0  0  0  0  2  0  0  0  0  0  0
  188.8220  177.1650  141.3970 C   0  0  1  0  0  3  0  0  0  0  0  0
  189.3570  178.2080  137.3460 C   0  0  0  0  0  2  0  0  0  0  0  0
  189.0480  176.8500  136.9230 N   0  0  0  0  0  2  0  0  0  0  0  0
  189.6650  176.6570  135.6790 N   0  0  0  0  0  2  0  0  0  0  0  0
  191.2550  174.9910  136.2980 C   0  0  0  0  0  0  0  0  0  0  0  0
  189.7840  173.5910  137.3460 O   0  0  0  0  0  0  0  0  0  0  0  0
  191.0480  174.0860  137.3470 N   0  0  0  0  0  2  0  0  0  0  0  0
  189.0540  174.4360  136.4650 C   0  0  0  0  0  2  0  0  0  0  0  0
  190.0120  175.2480  135.5900 C   0  0  1  0  0  3  0  0  0  0  0  0
  192.3740  175.5000  136.0270 O   0  0  0  0  0  0  0  0  0  0  0  0
  190.2800  176.6190  145.1250 N   0  0  0  0  0  2  0  0  0  0  0  0
  191.5790  177.1370  145.2300 N   0  0  0  0  0  2  0  0  0  0  0  0
  191.8960  177.7070  143.9900 N   0  0  0  0  0  2  0  0  0  0  0  0
  191.6220  179.0760  144.0960 N   0  0  0  0  0  1  0  0  0  0  0  0
  1 13  1  0  0  0  0
  2 10  1  0  0  0  0
  2 12  1  0  0  0  0
  3 12  2  0  0  0  0
  4  1  2  0  0  0  0
  4  5  1  0  0  0  0
  5  2  2  0  0  0  0
  6  8  1  0  0  0  0
  7  5  1  0  0  0  0
  7  8  2  0  0  0  0
  8  3  1  0  0  0  0
 11  1  1  0  0  0  0
 13  9  2  0  0  0  0
 13 10  1  0  0  0  0
 14 19  1  0  0  0  0
 15 14  1  0  0  0  0
 16 18  1  0  0  0  0
 16 15  1  0  0  0  0
 17 19  1  0  0  0  0
 18 17  1  0  0  0  0
 19 11  1  1  0  0  0
 20 16  1  0  0  0  0
 21 20  1  0  0  0  0
 22 21  1  0  0  0  0
 23 25  1  0  0  0  0
 24 25  1  0  0  0  0
 26 24  1  0  0  0  0
 27 22  1  1  0  0  0
 27 23  1  0  0  0  0
 27 26  1  0  0  0  0
 28 23  2  0  0  0  0
 29 30  1  0  0  0  0
 29  9  1  0  0  0  0
 31 32  1  0  0  0  0
 31 30  1  0  0  0  0
M  END
>  <MODEL>
8

>  <REMARK>
 VINA RESULT:      -8.2      3.633      6.027
  Name = 
  8 active torsions:
  status: ('A' for Active; 'I' for Inactive)
    1  A    between atoms: N_2  and  N_12
    2  A    between atoms: N_2  and  C_17
    3  A    between atoms: N_4  and  N_29
    4  A    between atoms: N_4  and  N_31
    5  A    between atoms: N_8  and  C_17
    6  A    between atoms: N_12  and  C_28
    7  A    between atoms: C_21  and  N_31
    8  A    between atoms: N_24  and  C_27
                            x       y       z     vdW  Elec       q    Type
                         _______ _______ _______ _____ _____    ______ ____

>  <TORSDO>
F 8

$$$$
=
 OpenBabel10232407483D

 32 35  0  0  1  0  0  0  0  0999 V2000
  185.8490  178.0890  143.8100 C   0  0  0  0  0  0  0  0  0  0  0  0
  183.1150  178.8870  143.5260 C   0  0  0  0  0  0  0  0  0  0  0  0
  181.2090  178.9920  142.0890 N   0  0  0  0  0  0  0  0  0  0  0  0
  185.2470  178.0160  142.6580 N   0  0  0  0  0  0  0  0  0  0  0  0
  183.8700  178.3570  142.4680 C   0  0  0  0  0  0  0  0  0  0  0  0
  181.2990  178.2670  139.7930 N   0  0  0  0  0  1  0  0  0  0  0  0
  183.2710  178.1490  141.2260 C   0  0  0  0  0  3  0  0  0  0  0  0
  181.9230  178.4750  141.0530 C   0  0  0  0  0  0  0  0  0  0  0  0
  185.5760  178.4780  146.2630 C   0  0  0  0  0  3  0  0  0  0  0  0
  183.7430  179.1760  144.8550 C   0  0  0  0  0  2  0  0  0  0  0  0
  187.2340  177.7340  143.9030 N   0  0  0  0  0  2  0  0  0  0  0  0
  181.7740  179.2070  143.3080 C   0  0  0  0  0  3  0  0  0  0  0  0
  185.1000  178.5500  145.0160 C   0  0  0  0  0  0  0  0  0  0  0  0
  188.2740  178.3820  141.8000 C   0  0  0  0  0  2  0  0  0  0  0  0
  189.1880  177.8950  140.6780 C   0  0  0  0  0  2  0  0  0  0  0  0
  190.4560  177.4250  141.2390 N   0  0  0  0  0  0  0  0  0  0  0  0
  189.3290  176.6450  143.2650 C   0  0  0  0  0  2  0  0  0  0  0  0
  190.1880  176.2500  142.0660 C   0  0  0  0  0  2  0  0  0  0  0  0
  188.0090  177.2380  142.7740 C   0  0  1  0  0  3  0  0  0  0  0  0
  191.2790  176.9770  140.1260 C   0  0  0  0  0  2  0  0  0  0  0  0
  190.4330  176.4710  139.0550 N   0  0  0  0  0  2  0  0  0  0  0  0
  191.1630  175.4760  138.3900 N   0  0  0  0  0  2  0  0  0  0  0  0
  192.9010  176.0900  136.8750 C   0  0  0  0  0  0  0  0  0  0  0  0
  192.2770  174.6990  135.1720 O   0  0  0  0  0  0  0  0  0  0  0  0
  193.3240  175.2690  135.8210 N   0  0  0  0  0  2  0  0  0  0  0  0
  191.1560  174.9000  136.0240 C   0  0  0  0  0  2  0  0  0  0  0  0
  191.4620  175.9840  137.0610 C   0  0  1  0  0  3  0  0  0  0  0  0
  193.6780  176.8080  137.5550 O   0  0  0  0  0  0  0  0  0  0  0  0
  186.8460  177.9130  146.5850 N   0  0  0  0  0  2  0  0  0  0  0  0
  187.3210  177.9270  147.9040 N   0  0  0  0  0  2  0  0  0  0  0  0
  188.5200  177.2030  147.9190 N   0  0  0  0  0  2  0  0  0  0  0  0
  189.2320  177.5810  146.7740 N   0  0  0  0  0  1  0  0  0  0  0  0
  1 11  1  0  0  0  0
  1 13  1  0  0  0  0
  2 10  1  0  0  0  0
  3 12  2  0  0  0  0
  4  1  2  0  0  0  0
  5  4  1  0  0  0  0
  5  2  2  0  0  0  0
  6  8  1  0  0  0  0
  7  5  1  0  0  0  0
  8  7  2  0  0  0  0
  8  3  1  0  0  0  0
  9 29  1  0  0  0  0
 10 13  1  0  0  0  0
 12  2  1  0  0  0  0
 13  9  2  0  0  0  0
 14 19  1  0  0  0  0
 15 16  1  0  0  0  0
 15 14  1  0  0  0  0
 16 18  1  0  0  0  0
 18 17  1  0  0  0  0
 19 17  1  0  0  0  0
 19 11  1  1  0  0  0
 20 16  1  0  0  0  0
 21 20  1  0  0  0  0
 22 21  1  0  0  0  0
 23 27  1  0  0  0  0
 23 28  2  0  0  0  0
 24 25  1  0  0  0  0
 24 26  1  0  0  0  0
 25 23  1  0  0  0  0
 26 27  1  0  0  0  0
 27 22  1  1  0  0  0
 29 30  1  0  0  0  0
 30 31  1  0  0  0  0
 32 31  1  0  0  0  0
M  END
>  <MODEL>
9

>  <REMARK>
 VINA RESULT:      -8.1      3.157      6.622
  Name = 
  8 active torsions:
  status: ('A' for Active; 'I' for Inactive)
    1  A    between atoms: N_2  and  N_12
    2  A    between atoms: N_2  and  C_17
    3  A    between atoms: N_4  and  N_29
    4  A    between atoms: N_4  and  N_31
    5  A    between atoms: N_8  and  C_17
    6  A    between atoms: N_12  and  C_28
    7  A    between atoms: C_21  and  N_31
    8  A    between atoms: N_24  and  C_27
                            x       y       z     vdW  Elec       q    Type
                         _______ _______ _______ _____ _____    ______ ____

>  <TORSDO>
F 8

$$$$
