=
 OpenBabel10232411373D

 27 31  0  0  1  0  0  0  0  0999 V2000
  184.1320  179.3280  142.9280 C   0  0  0  0  0  3  0  0  0  0  0  0
  188.4530  177.9850  144.8130 N   0  0  0  0  0  0  0  0  0  0  0  0
  186.1740  178.5310  144.1210 C   0  0  2  0  0  3  0  0  0  0  0  0
  189.2120  177.8840  143.5700 C   0  0  0  0  0  2  0  0  0  0  0  0
  185.3180  178.4020  142.8570 C   0  0  2  0  0  3  0  0  0  0  0  0
  185.8350  178.3820  146.4710 O   0  0  0  0  0  0  0  0  0  0  0  0
  187.5950  178.3300  141.7630 N   0  0  0  0  0  0  0  0  0  0  0  0
  183.8160  178.5640  145.2600 C   0  0  0  0  0  2  0  0  0  0  0  0
  186.1910  178.6510  141.6670 C   0  0  0  0  0  0  0  0  0  0  0  0
  185.6850  179.0350  140.5780 O   0  0  0  0  0  0  0  0  0  0  0  0
  187.2830  177.4710  144.1120 C   0  0  1  0  0  3  0  0  0  0  0  0
  183.4260  179.3990  144.0660 C   0  0  0  0  0  3  0  0  0  0  0  0
  185.3180  178.4750  145.3690 C   0  0  0  0  0  0  0  0  0  0  0  0
  188.0320  177.3550  142.7760 C   0  0  2  0  0  3  0  0  0  0  0  0
  188.2890  176.9980  138.6000 C   0  0  2  0  0  0  0  0  0  0  0  0
  189.3480  177.9240  138.2360 C   0  0  1  0  0  0  0  0  0  0  0  0
  188.6850  178.0790  139.6010 C   0  0  0  0  0  0  0  0  0  0  0  0
  188.5490  178.7170  140.7590 C   0  0  0  0  0  3  0  0  0  0  0  0
  189.2570  176.6590  137.6550 O   0  0  0  0  0  0  0  0  0  0  0  0
  188.9360  179.0240  137.2620 C   0  0  0  0  0  1  0  0  0  0  0  0
  187.0150  177.3050  137.9590 N   0  0  0  0  0  1  0  0  0  0  0  0
  188.9220  176.9300  145.6990 C   0  0  0  0  0  2  0  0  0  0  0  0
  189.3290  177.5270  147.0340 C   0  0  0  0  0  2  0  0  0  0  0  0
  190.6870  176.9960  147.4540 C   0  0  0  0  0  2  0  0  0  0  0  0
  191.4310  176.5560  146.2870 N   0  0  0  0  0  2  0  0  0  0  0  0
  192.6730  175.7330  148.1950 C   0  0  0  0  0  1  0  0  0  0  0  0
  192.3350  175.5150  146.7360 C   0  0  0  0  0  2  0  0  0  0  0  0
  1 12  2  0  0  0  0
  2 22  1  0  0  0  0
  3 13  1  1  0  0  0
  4  2  1  0  0  0  0
  5  1  1  1  0  0  0
  5  3  1  0  0  0  0
  7 14  1  0  0  0  0
  8 13  1  0  0  0  0
  9  7  1  0  0  0  0
  9  5  1  0  0  0  0
 10  9  2  0  0  0  0
 11  3  1  0  0  0  0
 11  2  1  1  0  0  0
 12  8  1  0  0  0  0
 13  6  2  0  0  0  0
 14  4  1  1  0  0  0
 14 11  1  0  0  0  0
 15 21  1  6  0  0  0
 15 17  1  0  0  0  0
 16 20  1  6  0  0  0
 16 15  1  0  0  0  0
 16 17  1  0  0  0  0
 17 18  2  0  0  0  0
 18  7  1  0  0  0  0
 19 16  1  0  0  0  0
 19 15  1  0  0  0  0
 22 23  1  0  0  0  0
 23 24  1  0  0  0  0
 25 27  1  0  0  0  0
 25 24  1  0  0  0  0
 27 26  1  0  0  0  0
M  END
>  <MODEL>
1

>  <REMARK>
 VINA RESULT:      -8.4      0.000      0.000
  Name = 
  6 active torsions:
  status: ('A' for Active; 'I' for Inactive)
    1  A    between atoms: N_2  and  C_25
    2  A    between atoms: C_6  and  N_14
    3  A    between atoms: C_6  and  C_21
    4  A    between atoms: N_10  and  C_18
    5  A    between atoms: N_14  and  C_15
    6  A    between atoms: C_21  and  C_25
                            x       y       z     vdW  Elec       q    Type
                         _______ _______ _______ _____ _____    ______ ____

>  <TORSDO>
F 6

$$$$
=
 OpenBabel10232411373D

 27 31  0  0  1  0  0  0  0  0999 V2000
  184.4330  179.3020  142.9450 C   0  0  0  0  0  3  0  0  0  0  0  0
  188.9100  177.7720  144.2270 N   0  0  0  0  0  0  0  0  0  0  0  0
  186.5800  178.4010  143.8420 C   0  0  2  0  0  3  0  0  0  0  0  0
  189.5130  177.7210  142.8980 C   0  0  0  0  0  2  0  0  0  0  0  0
  185.5770  178.3560  142.6850 C   0  0  2  0  0  3  0  0  0  0  0  0
  186.5190  178.1340  146.2060 O   0  0  0  0  0  0  0  0  0  0  0  0
  187.7050  178.2960  141.3230 N   0  0  0  0  0  0  0  0  0  0  0  0
  184.3760  178.4210  145.2560 C   0  0  0  0  0  2  0  0  0  0  0  0
  186.3080  178.6500  141.4140 C   0  0  0  0  0  0  0  0  0  0  0  0
  185.6860  179.1010  140.4130 O   0  0  0  0  0  0  0  0  0  0  0  0
  187.6510  177.3200  143.6470 C   0  0  1  0  0  3  0  0  0  0  0  0
  183.8690  179.3260  144.1610 C   0  0  0  0  0  3  0  0  0  0  0  0
  185.8770  178.2950  145.1800 C   0  0  0  0  0  0  0  0  0  0  0  0
  188.2330  177.2590  142.2260 C   0  0  2  0  0  3  0  0  0  0  0  0
  188.4730  176.7550  138.2740 C   0  0  2  0  0  0  0  0  0  0  0  0
  189.3550  177.7890  137.7610 C   0  0  1  0  0  0  0  0  0  0  0  0
  188.7320  177.9860  139.1380 C   0  0  0  0  0  0  0  0  0  0  0  0
  188.5430  178.7160  140.2330 C   0  0  0  0  0  3  0  0  0  0  0  0
  189.4440  176.4700  137.3150 O   0  0  0  0  0  0  0  0  0  0  0  0
  188.7320  178.7000  136.7060 C   0  0  0  0  0  1  0  0  0  0  0  0
  187.1420  176.7890  137.6800 N   0  0  0  0  0  1  0  0  0  0  0  0
  189.4530  176.6620  144.9960 C   0  0  0  0  0  2  0  0  0  0  0  0
  190.8680  176.9900  145.4380 C   0  0  0  0  0  2  0  0  0  0  0  0
  190.9910  176.8590  146.9440 C   0  0  0  0  0  2  0  0  0  0  0  0
  189.6700  176.7940  147.5470 N   0  0  0  0  0  2  0  0  0  0  0  0
  188.1280  178.0240  148.9500 C   0  0  0  0  0  1  0  0  0  0  0  0
  189.4640  178.0520  148.2380 C   0  0  0  0  0  2  0  0  0  0  0  0
  1 12  2  0  0  0  0
  2 22  1  0  0  0  0
  3 13  1  1  0  0  0
  4  2  1  0  0  0  0
  5  1  1  1  0  0  0
  5  3  1  0  0  0  0
  7  9  1  0  0  0  0
  7 14  1  0  0  0  0
  9  5  1  0  0  0  0
 10  9  2  0  0  0  0
 11  3  1  0  0  0  0
 11  2  1  1  0  0  0
 12  8  1  0  0  0  0
 13  8  1  0  0  0  0
 13  6  2  0  0  0  0
 14  4  1  1  0  0  0
 14 11  1  0  0  0  0
 15 21  1  6  0  0  0
 15 17  1  0  0  0  0
 16 20  1  6  0  0  0
 16 15  1  0  0  0  0
 16 17  1  0  0  0  0
 17 18  2  0  0  0  0
 18  7  1  0  0  0  0
 19 16  1  0  0  0  0
 19 15  1  0  0  0  0
 22 23  1  0  0  0  0
 23 24  1  0  0  0  0
 24 25  1  0  0  0  0
 25 27  1  0  0  0  0
 27 26  1  0  0  0  0
M  END
>  <MODEL>
2

>  <REMARK>
 VINA RESULT:      -7.9      0.926      1.500
  Name = 
  6 active torsions:
  status: ('A' for Active; 'I' for Inactive)
    1  A    between atoms: N_2  and  C_25
    2  A    between atoms: C_6  and  N_14
    3  A    between atoms: C_6  and  C_21
    4  A    between atoms: N_10  and  C_18
    5  A    between atoms: N_14  and  C_15
    6  A    between atoms: C_21  and  C_25
                            x       y       z     vdW  Elec       q    Type
                         _______ _______ _______ _____ _____    ______ ____

>  <TORSDO>
F 6

$$$$
=
 OpenBabel10232411373D

 27 31  0  0  1  0  0  0  0  0999 V2000
  185.4150  178.9930  143.3240 C   0  0  0  0  0  3  0  0  0  0  0  0
  189.9210  177.0700  143.1250 N   0  0  0  0  0  0  0  0  0  0  0  0
  187.6360  177.8650  143.4770 C   0  0  2  0  0  3  0  0  0  0  0  0
  190.1420  177.1820  141.6860 C   0  0  0  0  0  2  0  0  0  0  0  0
  186.3620  178.0390  142.6440 C   0  0  2  0  0  3  0  0  0  0  0  0
  188.1810  177.2640  145.7130 O   0  0  0  0  0  0  0  0  0  0  0  0
  188.0390  178.0680  140.7530 N   0  0  0  0  0  0  0  0  0  0  0  0
  185.8970  177.7930  145.4330 C   0  0  0  0  0  2  0  0  0  0  0  0
  186.7530  178.4760  141.2670 C   0  0  0  0  0  0  0  0  0  0  0  0
  185.9300  179.0970  140.5410 O   0  0  0  0  0  0  0  0  0  0  0  0
  188.5180  176.7710  142.8610 C   0  0  1  0  0  3  0  0  0  0  0  0
  185.1990  178.8700  144.6420 C   0  0  0  0  0  3  0  0  0  0  0  0
  187.3070  177.6040  144.9320 C   0  0  0  0  0  0  0  0  0  0  0  0
  188.6950  176.8870  141.3390 C   0  0  2  0  0  3  0  0  0  0  0  0
  188.9960  176.4960  137.7750 C   0  0  2  0  0  0  0  0  0  0  0  0
  189.4400  177.6860  137.0700 C   0  0  1  0  0  0  0  0  0  0  0  0
  188.9120  177.8400  138.4920 C   0  0  0  0  0  0  0  0  0  0  0  0
  188.5910  178.5980  139.5360 C   0  0  0  0  0  3  0  0  0  0  0  0
  189.9170  176.4210  136.7300 O   0  0  0  0  0  0  0  0  0  0  0  0
  188.4600  178.2190  136.0270 C   0  0  0  0  0  1  0  0  0  0  0  0
  187.6800  176.0340  137.3490 N   0  0  0  0  0  1  0  0  0  0  0  0
  190.5480  175.8360  143.5700 C   0  0  0  0  0  2  0  0  0  0  0  0
  191.7410  176.1580  144.4520 C   0  0  0  0  0  2  0  0  0  0  0  0
  191.4880  177.4350  145.2300 C   0  0  0  0  0  2  0  0  0  0  0  0
  191.6720  177.1970  146.6510 N   0  0  0  0  0  2  0  0  0  0  0  0
  192.7160  175.6220  148.1660 C   0  0  0  0  0  1  0  0  0  0  0  0
  192.1140  175.8220  146.7910 C   0  0  0  0  0  2  0  0  0  0  0  0
  1 12  2  0  0  0  0
  2 22  1  0  0  0  0
  3 13  1  1  0  0  0
  4  2  1  0  0  0  0
  5  1  1  1  0  0  0
  5  3  1  0  0  0  0
  7  9  1  0  0  0  0
  7 14  1  0  0  0  0
  9  5  1  0  0  0  0
 10  9  2  0  0  0  0
 11  2  1  1  0  0  0
 11  3  1  0  0  0  0
 12  8  1  0  0  0  0
 13  8  1  0  0  0  0
 13  6  2  0  0  0  0
 14  4  1  1  0  0  0
 14 11  1  0  0  0  0
 15 21  1  6  0  0  0
 15 17  1  0  0  0  0
 16 20  1  6  0  0  0
 16 15  1  0  0  0  0
 16 17  1  0  0  0  0
 17 18  2  0  0  0  0
 18  7  1  0  0  0  0
 19 16  1  0  0  0  0
 19 15  1  0  0  0  0
 22 23  1  0  0  0  0
 23 24  1  0  0  0  0
 24 25  1  0  0  0  0
 25 27  1  0  0  0  0
 27 26  1  0  0  0  0
M  END
>  <MODEL>
3

>  <REMARK>
 VINA RESULT:      -7.8      1.441      1.797
  Name = 
  6 active torsions:
  status: ('A' for Active; 'I' for Inactive)
    1  A    between atoms: N_2  and  C_25
    2  A    between atoms: C_6  and  N_14
    3  A    between atoms: C_6  and  C_21
    4  A    between atoms: N_10  and  C_18
    5  A    between atoms: N_14  and  C_15
    6  A    between atoms: C_21  and  C_25
                            x       y       z     vdW  Elec       q    Type
                         _______ _______ _______ _____ _____    ______ ____

>  <TORSDO>
F 6

$$$$
=
 OpenBabel10232411373D

 27 31  0  0  1  0  0  0  0  0999 V2000
  183.6980  179.1250  142.6420 C   0  0  0  0  0  3  0  0  0  0  0  0
  187.3480  178.2590  145.7980 N   0  0  0  0  0  0  0  0  0  0  0  0
  185.3420  178.5960  144.4450 C   0  0  2  0  0  3  0  0  0  0  0  0
  188.4200  178.0270  144.8340 C   0  0  0  0  0  2  0  0  0  0  0  0
  184.8670  178.2560  143.0280 C   0  0  2  0  0  3  0  0  0  0  0  0
  184.3720  178.7510  146.6110 O   0  0  0  0  0  0  0  0  0  0  0  0
  187.3570  178.1450  142.6130 N   0  0  0  0  0  0  0  0  0  0  0  0
  182.7620  178.6690  144.8860 C   0  0  0  0  0  2  0  0  0  0  0  0
  186.0300  178.3830  142.0960 C   0  0  0  0  0  0  0  0  0  0  0  0
  185.8390  178.5900  140.8660 O   0  0  0  0  0  0  0  0  0  0  0  0
  186.4200  177.5990  144.8880 C   0  0  1  0  0  3  0  0  0  0  0  0
  182.7060  179.3150  143.5240 C   0  0  0  0  0  3  0  0  0  0  0  0
  184.1760  178.6680  145.4090 C   0  0  0  0  0  0  0  0  0  0  0  0
  187.5080  177.3390  143.8350 C   0  0  2  0  0  3  0  0  0  0  0  0
  190.6060  176.8590  142.8350 C   0  0  2  0  0  0  0  0  0  0  0  0
  191.1920  177.6470  141.7640 C   0  0  1  0  0  0  0  0  0  0  0  0
  189.7170  177.8520  142.0930 C   0  0  0  0  0  0  0  0  0  0  0  0
  188.5470  178.4380  141.8600 C   0  0  0  0  0  3  0  0  0  0  0  0
  191.9760  177.1150  142.7880 O   0  0  0  0  0  0  0  0  0  0  0  0
  191.3950  176.8970  140.4500 C   0  0  0  0  0  1  0  0  0  0  0  0
  190.3150  175.4850  142.4430 N   0  0  0  0  0  1  0  0  0  0  0  0
  187.5660  177.3580  146.9200 C   0  0  0  0  0  2  0  0  0  0  0  0
  188.1560  178.1280  148.0870 C   0  0  0  0  0  2  0  0  0  0  0  0
  189.6300  177.8000  148.2390 C   0  0  0  0  0  2  0  0  0  0  0  0
  189.9420  176.5710  147.5300 N   0  0  0  0  0  2  0  0  0  0  0  0
  192.2580  175.8970  147.7400 C   0  0  0  0  0  1  0  0  0  0  0  0
  191.2670  176.7400  146.9650 C   0  0  0  0  0  2  0  0  0  0  0  0
  1 12  2  0  0  0  0
  2 22  1  0  0  0  0
  3 11  1  0  0  0  0
  3 13  1  1  0  0  0
  4  2  1  0  0  0  0
  5  1  1  6  0  0  0
  5  3  1  0  0  0  0
  7 14  1  0  0  0  0
  8 13  1  0  0  0  0
  9  7  1  0  0  0  0
  9  5  1  0  0  0  0
 10  9  2  0  0  0  0
 11  2  1  1  0  0  0
 12  8  1  0  0  0  0
 13  6  2  0  0  0  0
 14  4  1  1  0  0  0
 14 11  1  0  0  0  0
 15 21  1  6  0  0  0
 16 20  1  6  0  0  0
 16 17  1  0  0  0  0
 16 19  1  0  0  0  0
 16 15  1  0  0  0  0
 17 15  1  0  0  0  0
 18 17  2  0  0  0  0
 18  7  1  0  0  0  0
 19 15  1  0  0  0  0
 22 23  1  0  0  0  0
 23 24  1  0  0  0  0
 25 24  1  0  0  0  0
 27 25  1  0  0  0  0
 27 26  1  0  0  0  0
M  END
>  <MODEL>
4

>  <REMARK>
 VINA RESULT:      -7.7      2.118      2.496
  Name = 
  6 active torsions:
  status: ('A' for Active; 'I' for Inactive)
    1  A    between atoms: N_2  and  C_25
    2  A    between atoms: C_6  and  N_14
    3  A    between atoms: C_6  and  C_21
    4  A    between atoms: N_10  and  C_18
    5  A    between atoms: N_14  and  C_15
    6  A    between atoms: C_21  and  C_25
                            x       y       z     vdW  Elec       q    Type
                         _______ _______ _______ _____ _____    ______ ____

>  <TORSDO>
F 6

$$$$
=
 OpenBabel10232411373D

 27 31  0  0  1  0  0  0  0  0999 V2000
  184.9800  178.7350  145.9190 C   0  0  0  0  0  3  0  0  0  0  0  0
  188.9800  178.0950  143.1580 N   0  0  0  0  0  0  0  0  0  0  0  0
  187.1280  178.2490  144.7460 C   0  0  2  0  0  3  0  0  0  0  0  0
  188.3630  178.2420  141.8430 C   0  0  0  0  0  2  0  0  0  0  0  0
  185.6080  178.0610  144.7270 C   0  0  2  0  0  3  0  0  0  0  0  0
  188.9090  177.8500  146.2720 O   0  0  0  0  0  0  0  0  0  0  0  0
  185.9490  178.5140  142.2640 N   0  0  0  0  0  0  0  0  0  0  0  0
  186.7810  177.7390  147.2910 C   0  0  0  0  0  2  0  0  0  0  0  0
  185.0850  178.5670  143.4200 C   0  0  0  0  0  0  0  0  0  0  0  0
  183.8830  178.9340  143.3150 O   0  0  0  0  0  0  0  0  0  0  0  0
  187.7710  177.4250  143.6240 C   0  0  1  0  0  3  0  0  0  0  0  0
  185.5380  178.5770  147.1280 C   0  0  0  0  0  3  0  0  0  0  0  0
  187.7020  177.9300  146.1110 C   0  0  0  0  0  0  0  0  0  0  0  0
  187.0720  177.5620  142.2620 C   0  0  2  0  0  3  0  0  0  0  0  0
  183.6450  177.6700  139.7670 C   0  0  2  0  0  0  0  0  0  0  0  0
  183.9180  178.7840  138.8760 C   0  0  1  0  0  0  0  0  0  0  0  0
  184.7120  178.6810  140.1740 C   0  0  0  0  0  0  0  0  0  0  0  0
  185.6210  179.1560  141.0200 C   0  0  0  0  0  3  0  0  0  0  0  0
  183.3670  177.5940  138.4020 O   0  0  0  0  0  0  0  0  0  0  0  0
  182.8850  179.9080  138.9160 C   0  0  0  0  0  1  0  0  0  0  0  0
  182.4220  177.8420  140.5430 N   0  0  0  0  0  1  0  0  0  0  0  0
  190.0180  177.0820  143.0450 C   0  0  0  0  0  2  0  0  0  0  0  0
  191.2080  177.4710  143.9020 C   0  0  0  0  0  2  0  0  0  0  0  0
  191.6690  176.2860  144.7290 C   0  0  0  0  0  2  0  0  0  0  0  0
  191.9430  176.7070  146.0920 N   0  0  0  0  0  2  0  0  0  0  0  0
  192.7140  175.8600  148.2250 C   0  0  0  0  0  1  0  0  0  0  0  0
  192.1390  175.5000  146.8720 C   0  0  0  0  0  2  0  0  0  0  0  0
  1 12  2  0  0  0  0
  3 13  1  1  0  0  0
  4  2  1  0  0  0  0
  5  3  1  0  0  0  0
  5  1  1  1  0  0  0
  7  9  1  0  0  0  0
  9  5  1  0  0  0  0
 10  9  2  0  0  0  0
 11  2  1  6  0  0  0
 11  3  1  0  0  0  0
 12  8  1  0  0  0  0
 13  6  2  0  0  0  0
 13  8  1  0  0  0  0
 14  4  1  6  0  0  0
 14  7  1  0  0  0  0
 14 11  1  0  0  0  0
 15 17  1  0  0  0  0
 15 21  1  1  0  0  0
 16 20  1  1  0  0  0
 16 15  1  0  0  0  0
 16 17  1  0  0  0  0
 17 18  2  0  0  0  0
 18  7  1  0  0  0  0
 19 16  1  0  0  0  0
 19 15  1  0  0  0  0
 22  2  1  0  0  0  0
 22 23  1  0  0  0  0
 23 24  1  0  0  0  0
 24 25  1  0  0  0  0
 25 27  1  0  0  0  0
 27 26  1  0  0  0  0
M  END
>  <MODEL>
5

>  <REMARK>
 VINA RESULT:      -7.6      2.456      3.337
  Name = 
  6 active torsions:
  status: ('A' for Active; 'I' for Inactive)
    1  A    between atoms: N_2  and  C_25
    2  A    between atoms: C_6  and  N_14
    3  A    between atoms: C_6  and  C_21
    4  A    between atoms: N_10  and  C_18
    5  A    between atoms: N_14  and  C_15
    6  A    between atoms: C_21  and  C_25
                            x       y       z     vdW  Elec       q    Type
                         _______ _______ _______ _____ _____    ______ ____

>  <TORSDO>
F 6

$$$$
=
 OpenBabel10232411373D

 27 31  0  0  1  0  0  0  0  0999 V2000
  191.9830  176.0440  146.2050 C   0  0  0  0  0  3  0  0  0  0  0  0
  187.3980  177.5150  145.2830 N   0  0  0  0  0  0  0  0  0  0  0  0
  189.6640  176.9440  145.9980 C   0  0  2  0  0  3  0  0  0  0  0  0
  187.4210  177.4030  143.8270 C   0  0  0  0  0  2  0  0  0  0  0  0
  191.0660  176.9100  145.3800 C   0  0  2  0  0  3  0  0  0  0  0  0
  188.7120  177.4540  148.1170 O   0  0  0  0  0  0  0  0  0  0  0  0
  189.7250  176.7440  143.2450 N   0  0  0  0  0  0  0  0  0  0  0  0
  191.0530  177.1580  148.2080 C   0  0  0  0  0  2  0  0  0  0  0  0
  190.9470  176.4580  143.9590 C   0  0  0  0  0  0  0  0  0  0  0  0
  191.9330  175.9320  143.3750 O   0  0  0  0  0  0  0  0  0  0  0  0
  188.7870  177.9550  145.2480 C   0  0  1  0  0  3  0  0  0  0  0  0
  191.9730  176.1670  147.5400 C   0  0  0  0  0  3  0  0  0  0  0  0
  189.7290  177.2150  147.4870 C   0  0  0  0  0  0  0  0  0  0  0  0
  188.8690  177.8450  143.7170 C   0  0  2  0  0  3  0  0  0  0  0  0
  190.5410  177.8180  140.0140 C   0  0  2  0  0  0  0  0  0  0  0  0
  189.8950  176.7370  139.2890 C   0  0  1  0  0  0  0  0  0  0  0  0
  189.8160  176.7390  140.8120 C   0  0  0  0  0  0  0  0  0  0  0  0
  189.4300  176.1810  141.9550 C   0  0  0  0  0  3  0  0  0  0  0  0
  190.1320  177.9740  138.6900 O   0  0  0  0  0  0  0  0  0  0  0  0
  190.8410  175.6630  138.7590 C   0  0  0  0  0  1  0  0  0  0  0  0
  191.9890  177.6660  140.1010 N   0  0  0  0  0  1  0  0  0  0  0  0
  186.5870  178.6740  145.6200 C   0  0  0  0  0  2  0  0  0  0  0  0
  185.3310  178.2260  146.3470 C   0  0  0  0  0  2  0  0  0  0  0  0
  184.1010  178.7950  145.6660 C   0  0  0  0  0  2  0  0  0  0  0  0
  184.4830  179.4950  144.4520 N   0  0  0  0  0  2  0  0  0  0  0  0
  184.2570  178.4380  142.2850 C   0  0  0  0  0  1  0  0  0  0  0  0
  183.5290  179.1100  143.4290 C   0  0  0  0  0  2  0  0  0  0  0  0
  1 12  2  0  0  0  0
  2 22  1  0  0  0  0
  3 13  1  1  0  0  0
  4  2  1  0  0  0  0
  5  3  1  0  0  0  0
  5  1  1  1  0  0  0
  7 14  1  0  0  0  0
  7  9  1  0  0  0  0
  9  5  1  0  0  0  0
 10  9  2  0  0  0  0
 11  2  1  1  0  0  0
 11  3  1  0  0  0  0
 12  8  1  0  0  0  0
 13  6  2  0  0  0  0
 13  8  1  0  0  0  0
 14  4  1  1  0  0  0
 14 11  1  0  0  0  0
 15 21  1  1  0  0  0
 15 17  1  0  0  0  0
 16 20  1  6  0  0  0
 16 15  1  0  0  0  0
 16 17  1  0  0  0  0
 17 18  2  0  0  0  0
 18  7  1  0  0  0  0
 19 16  1  0  0  0  0
 19 15  1  0  0  0  0
 22 23  1  0  0  0  0
 24 23  1  0  0  0  0
 25 24  1  0  0  0  0
 26 27  1  0  0  0  0
 27 25  1  0  0  0  0
M  END
>  <MODEL>
6

>  <REMARK>
 VINA RESULT:      -7.4      2.324      5.683
  Name = 
  6 active torsions:
  status: ('A' for Active; 'I' for Inactive)
    1  A    between atoms: N_2  and  C_25
    2  A    between atoms: C_6  and  N_14
    3  A    between atoms: C_6  and  C_21
    4  A    between atoms: N_10  and  C_18
    5  A    between atoms: N_14  and  C_15
    6  A    between atoms: C_21  and  C_25
                            x       y       z     vdW  Elec       q    Type
                         _______ _______ _______ _____ _____    ______ ____

>  <TORSDO>
F 6

$$$$
=
 OpenBabel10232411373D

 27 31  0  0  1  0  0  0  0  0999 V2000
  186.2000  178.4410  146.5840 C   0  0  0  0  0  3  0  0  0  0  0  0
  189.0830  177.8550  142.6630 N   0  0  0  0  0  0  0  0  0  0  0  0
  187.8210  177.9400  144.7540 C   0  0  2  0  0  3  0  0  0  0  0  0
  188.1310  178.2540  141.6300 C   0  0  0  0  0  2  0  0  0  0  0  0
  186.3520  177.8990  145.1870 C   0  0  2  0  0  3  0  0  0  0  0  0
  189.9020  177.1520  145.5950 O   0  0  0  0  0  0  0  0  0  0  0  0
  186.0080  178.6820  142.8090 N   0  0  0  0  0  0  0  0  0  0  0  0
  188.1750  177.0880  147.2040 C   0  0  0  0  0  2  0  0  0  0  0  0
  185.5390  178.6420  144.1740 C   0  0  0  0  0  0  0  0  0  0  0  0
  184.4200  179.1290  144.4910 O   0  0  0  0  0  0  0  0  0  0  0  0
  187.9870  177.2370  143.4000 C   0  0  1  0  0  3  0  0  0  0  0  0
  187.0640  178.0530  147.5330 C   0  0  0  0  0  3  0  0  0  0  0  0
  188.7230  177.3670  145.8270 C   0  0  0  0  0  0  0  0  0  0  0  0
  186.9420  177.6420  142.3490 C   0  0  2  0  0  3  0  0  0  0  0  0
  184.4550  177.9290  139.7620 C   0  0  2  0  0  0  0  0  0  0  0  0
  184.1460  179.2930  139.3680 C   0  0  1  0  0  0  0  0  0  0  0  0
  184.8730  179.0660  140.6890 C   0  0  0  0  0  0  0  0  0  0  0  0
  185.4160  179.5320  141.8100 C   0  0  0  0  0  3  0  0  0  0  0  0
  184.2660  178.2730  138.4240 O   0  0  0  0  0  0  0  0  0  0  0  0
  182.6910  179.7070  139.5710 C   0  0  0  0  0  1  0  0  0  0  0  0
  183.3010  177.2090  140.2880 N   0  0  0  0  0  1  0  0  0  0  0  0
  189.8950  176.7780  142.1170 C   0  0  0  0  0  2  0  0  0  0  0  0
  191.2720  177.3070  141.7600 C   0  0  0  0  0  2  0  0  0  0  0  0
  191.4860  177.2400  140.2590 C   0  0  0  0  0  2  0  0  0  0  0  0
  190.4570  176.4180  139.6460 N   0  0  0  0  0  2  0  0  0  0  0  0
  188.7310  177.0610  138.0740 C   0  0  0  0  0  1  0  0  0  0  0  0
  190.2220  176.9610  138.3220 C   0  0  0  0  0  2  0  0  0  0  0  0
  1 12  2  0  0  0  0
  3  5  1  0  0  0  0
  3 13  1  1  0  0  0
  4  2  1  0  0  0  0
  5  1  1  1  0  0  0
  6 13  2  0  0  0  0
  7  9  1  0  0  0  0
  8 12  1  0  0  0  0
  9 10  2  0  0  0  0
  9  5  1  0  0  0  0
 11  2  1  6  0  0  0
 11  3  1  0  0  0  0
 13  8  1  0  0  0  0
 14  4  1  6  0  0  0
 14  7  1  0  0  0  0
 14 11  1  0  0  0  0
 15 21  1  1  0  0  0
 15 17  1  0  0  0  0
 16 20  1  1  0  0  0
 16 15  1  0  0  0  0
 16 17  1  0  0  0  0
 17 18  2  0  0  0  0
 18  7  1  0  0  0  0
 19 16  1  0  0  0  0
 19 15  1  0  0  0  0
 22  2  1  0  0  0  0
 23 22  1  0  0  0  0
 24 23  1  0  0  0  0
 25 24  1  0  0  0  0
 26 27  1  0  0  0  0
 27 25  1  0  0  0  0
M  END
>  <MODEL>
7

>  <REMARK>
 VINA RESULT:      -7.3      2.477      4.945
  Name = 
  6 active torsions:
  status: ('A' for Active; 'I' for Inactive)
    1  A    between atoms: N_2  and  C_25
    2  A    between atoms: C_6  and  N_14
    3  A    between atoms: C_6  and  C_21
    4  A    between atoms: N_10  and  C_18
    5  A    between atoms: N_14  and  C_15
    6  A    between atoms: C_21  and  C_25
                            x       y       z     vdW  Elec       q    Type
                         _______ _______ _______ _____ _____    ______ ____

>  <TORSDO>
F 6

$$$$
=
 OpenBabel10232411373D

 27 31  0  0  1  0  0  0  0  0999 V2000
  186.5050  178.1300  146.5630 C   0  0  0  0  0  3  0  0  0  0  0  0
  189.0430  178.0420  142.3690 N   0  0  0  0  0  0  0  0  0  0  0  0
  187.9810  177.8860  144.5650 C   0  0  2  0  0  3  0  0  0  0  0  0
  187.9690  178.4220  141.4560 C   0  0  0  0  0  2  0  0  0  0  0  0
  186.5670  177.6920  145.1220 C   0  0  2  0  0  3  0  0  0  0  0  0
  190.1880  177.2270  145.1600 O   0  0  0  0  0  0  0  0  0  0  0  0
  185.9400  178.5930  142.8460 N   0  0  0  0  0  0  0  0  0  0  0  0
  188.6310  176.9130  146.9080 C   0  0  0  0  0  2  0  0  0  0  0  0
  185.6060  178.4250  144.2410 C   0  0  0  0  0  0  0  0  0  0  0  0
  184.4870  178.7950  144.6900 O   0  0  0  0  0  0  0  0  0  0  0  0
  188.0740  177.2870  143.1560 C   0  0  1  0  0  3  0  0  0  0  0  0
  187.4830  177.7570  147.4010 C   0  0  0  0  0  3  0  0  0  0  0  0
  189.0230  177.3260  145.5110 C   0  0  0  0  0  0  0  0  0  0  0  0
  186.9060  177.6670  142.2320 C   0  0  2  0  0  3  0  0  0  0  0  0
  184.2880  177.9310  139.8300 C   0  0  2  0  0  0  0  0  0  0  0  0
  183.8000  179.2780  139.5860 C   0  0  1  0  0  0  0  0  0  0  0  0
  184.6330  179.0240  140.8380 C   0  0  0  0  0  0  0  0  0  0  0  0
  185.1910  179.4500  141.9670 C   0  0  0  0  0  3  0  0  0  0  0  0
  183.9740  178.3680  138.5440 O   0  0  0  0  0  0  0  0  0  0  0  0
  182.3230  179.4950  139.9050 C   0  0  0  0  0  1  0  0  0  0  0  0
  183.2600  177.0340  140.3460 N   0  0  0  0  0  1  0  0  0  0  0  0
  189.8830  177.0750  141.6790 C   0  0  0  0  0  2  0  0  0  0  0  0
  189.8840  177.3710  140.1900 C   0  0  0  0  0  2  0  0  0  0  0  0
  191.1480  176.8290  139.5490 C   0  0  0  0  0  2  0  0  0  0  0  0
  190.8580  175.5920  138.8440 N   0  0  0  0  0  2  0  0  0  0  0  0
  191.5240  174.2620  136.9340 C   0  0  0  0  0  1  0  0  0  0  0  0
  191.6920  175.5810  137.6580 C   0  0  0  0  0  2  0  0  0  0  0  0
  1 12  2  0  0  0  0
  3  5  1  0  0  0  0
  3 13  1  1  0  0  0
  4  2  1  0  0  0  0
  5  1  1  1  0  0  0
  6 13  2  0  0  0  0
  7  9  1  0  0  0  0
  8 12  1  0  0  0  0
  9 10  2  0  0  0  0
  9  5  1  0  0  0  0
 11  2  1  6  0  0  0
 11  3  1  0  0  0  0
 13  8  1  0  0  0  0
 14  4  1  6  0  0  0
 14  7  1  0  0  0  0
 14 11  1  0  0  0  0
 15 21  1  1  0  0  0
 15 17  1  0  0  0  0
 16 15  1  0  0  0  0
 16 20  1  1  0  0  0
 16 17  1  0  0  0  0
 17 18  2  0  0  0  0
 18  7  1  0  0  0  0
 19 16  1  0  0  0  0
 19 15  1  0  0  0  0
 22  2  1  0  0  0  0
 23 22  1  0  0  0  0
 24 23  1  0  0  0  0
 25 24  1  0  0  0  0
 26 27  1  0  0  0  0
 27 25  1  0  0  0  0
M  END
>  <MODEL>
8

>  <REMARK>
 VINA RESULT:      -7.0      2.588      5.294
  Name = 
  6 active torsions:
  status: ('A' for Active; 'I' for Inactive)
    1  A    between atoms: N_2  and  C_25
    2  A    between atoms: C_6  and  N_14
    3  A    between atoms: C_6  and  C_21
    4  A    between atoms: N_10  and  C_18
    5  A    between atoms: N_14  and  C_15
    6  A    between atoms: C_21  and  C_25
                            x       y       z     vdW  Elec       q    Type
                         _______ _______ _______ _____ _____    ______ ____

>  <TORSDO>
F 6

$$$$
=
 OpenBabel10232411373D

 27 31  0  0  1  0  0  0  0  0999 V2000
  191.4040  176.8300  146.1130 C   0  0  0  0  0  3  0  0  0  0  0  0
  186.9160  177.2640  144.1900 N   0  0  0  0  0  0  0  0  0  0  0  0
  189.0440  177.1960  145.3890 C   0  0  2  0  0  3  0  0  0  0  0  0
  187.2760  177.1950  142.7760 C   0  0  0  0  0  2  0  0  0  0  0  0
  190.5170  177.4890  145.0890 C   0  0  2  0  0  3  0  0  0  0  0  0
  187.5680  177.4330  147.2400 O   0  0  0  0  0  0  0  0  0  0  0  0
  189.7380  177.0790  142.7200 N   0  0  0  0  0  0  0  0  0  0  0  0
  189.8410  177.6630  147.8400 C   0  0  0  0  0  2  0  0  0  0  0  0
  190.8100  177.0550  143.6880 C   0  0  0  0  0  0  0  0  0  0  0  0
  191.9900  176.7750  143.3420 O   0  0  0  0  0  0  0  0  0  0  0  0
  188.1470  178.0040  144.4420 C   0  0  1  0  0  3  0  0  0  0  0  0
  191.0790  176.9170  147.4110 C   0  0  0  0  0  3  0  0  0  0  0  0
  188.7250  177.4400  146.8500 C   0  0  0  0  0  0  0  0  0  0  0  0
  188.5780  177.9510  142.9690 C   0  0  2  0  0  3  0  0  0  0  0  0
  188.3220  177.9770  139.6470 C   0  0  2  0  0  0  0  0  0  0  0  0
  188.9190  176.9190  138.8500 C   0  0  1  0  0  0  0  0  0  0  0  0
  189.2310  176.9680  140.3420 C   0  0  0  0  0  0  0  0  0  0  0  0
  189.8610  176.4930  141.4120 C   0  0  0  0  0  3  0  0  0  0  0  0
  187.7410  177.5510  138.4520 O   0  0  0  0  0  0  0  0  0  0  0  0
  190.1080  177.3520  137.9950 C   0  0  0  0  0  1  0  0  0  0  0  0
  188.9840  179.2660  139.4790 N   0  0  0  0  0  1  0  0  0  0  0  0
  185.8140  178.2060  144.3150 C   0  0  0  0  0  2  0  0  0  0  0  0
  184.9670  178.1730  143.0560 C   0  0  0  0  0  2  0  0  0  0  0  0
  183.7770  179.1030  143.1990 C   0  0  0  0  0  2  0  0  0  0  0  0
  183.0600  178.8070  144.4280 N   0  0  0  0  0  2  0  0  0  0  0  0
  181.4690  179.1610  142.6380 C   0  0  0  0  0  1  0  0  0  0  0  0
  181.6490  178.7900  144.0940 C   0  0  0  0  0  2  0  0  0  0  0  0
  1 12  2  0  0  0  0
  2 22  1  0  0  0  0
  3 13  1  1  0  0  0
  4  2  1  0  0  0  0
  5  3  1  0  0  0  0
  5  1  1  1  0  0  0
  7 14  1  0  0  0  0
  7  9  1  0  0  0  0
  9  5  1  0  0  0  0
 10  9  2  0  0  0  0
 11  2  1  6  0  0  0
 11  3  1  0  0  0  0
 12  8  1  0  0  0  0
 13  6  2  0  0  0  0
 13  8  1  0  0  0  0
 14  4  1  6  0  0  0
 14 11  1  0  0  0  0
 15 21  1  6  0  0  0
 15 17  1  0  0  0  0
 16 20  1  6  0  0  0
 16 15  1  0  0  0  0
 16 17  1  0  0  0  0
 17 18  2  0  0  0  0
 18  7  1  0  0  0  0
 19 16  1  0  0  0  0
 19 15  1  0  0  0  0
 23 24  1  0  0  0  0
 23 22  1  0  0  0  0
 24 25  1  0  0  0  0
 26 27  1  0  0  0  0
 27 25  1  0  0  0  0
M  END
>  <MODEL>
9

>  <REMARK>
 VINA RESULT:      -7.0      2.167      5.706
  Name = 
  6 active torsions:
  status: ('A' for Active; 'I' for Inactive)
    1  A    between atoms: N_2  and  C_25
    2  A    between atoms: C_6  and  N_14
    3  A    between atoms: C_6  and  C_21
    4  A    between atoms: N_10  and  C_18
    5  A    between atoms: N_14  and  C_15
    6  A    between atoms: C_21  and  C_25
                            x       y       z     vdW  Elec       q    Type
                         _______ _______ _______ _____ _____    ______ ____

>  <TORSDO>
F 6

$$$$
