=
 OpenBabel10232411173D

 50 57  0  0  1  0  0  0  0  0999 V2000
  196.1260  175.0850  134.9100 N   0  0  0  0  0  1  0  0  0  0  0  0
  187.2450  178.1930  137.3190 C   0  0  1  0  0  3  0  0  0  0  0  0
  189.1000  177.6250  138.8420 N   0  0  0  0  0  0  0  0  0  0  0  0
  186.4500  177.8020  138.5730 C   0  0  1  0  0  3  0  0  0  0  0  0
  187.0200  178.4020  139.7090 O   0  0  0  0  0  0  0  0  0  0  0  0
  191.2590  176.7000  137.9820 C   0  0  0  0  0  0  0  0  0  0  0  0
  187.2680  175.7570  136.2770 C   0  0  2  0  0  3  0  0  0  0  0  0
  188.2020  177.6900  140.0100 C   0  0  2  0  0  3  0  0  0  0  0  0
  188.6240  175.4340  136.8830 C   0  0  0  0  0  2  0  0  0  0  0  0
  188.7350  178.3630  137.6310 C   0  0  0  0  0  2  0  0  0  0  0  0
  193.1990  176.7000  139.3940 N   0  0  0  0  0  0  0  0  0  0  0  0
  190.4520  177.1740  139.0320 C   0  0  0  0  0  0  0  0  0  0  0  0
  192.3290  175.4000  134.6270 C   0  0  0  0  0  2  0  0  0  0  0  0
  187.0280  177.2420  136.1710 C   0  0  0  0  0  0  0  0  0  0  0  0
  189.6960  175.9420  136.0420 N   0  0  0  0  0  2  0  0  0  0  0  0
  192.6130  176.5370  138.1830 C   0  0  0  0  0  0  0  0  0  0  0  0
  190.2240  177.6370  141.5130 C   0  0  0  0  0  2  0  0  0  0  0  0
  194.7740  175.3430  135.2690 C   0  0  0  0  0  0  0  0  0  0  0  0
  186.6400  177.6950  135.1070 O   0  0  0  0  0  0  0  0  0  0  0  0
  193.8050  175.1820  134.3460 C   0  0  0  0  0  3  0  0  0  0  0  0
  190.9680  176.3080  136.5820 C   0  0  0  0  0  0  0  0  0  0  0  0
  192.4300  177.0640  140.4620 C   0  0  0  0  0  3  0  0  0  0  0  0
  193.2120  176.1260  136.9340 C   0  0  0  0  0  0  0  0  0  0  0  0
  194.4660  175.8000  136.6440 C   0  0  0  0  0  3  0  0  0  0  0  0
  192.1240  176.0220  135.9760 C   0  0  0  0  0  0  0  0  0  0  0  0
  188.9320  178.3780  141.1650 C   0  0  2  0  0  3  0  0  0  0  0  0
  191.0520  177.3110  140.3050 C   0  0  0  0  0  0  0  0  0  0  0  0
  184.9850  178.2030  138.4470 C   0  0  0  0  0  2  0  0  0  0  0  0
  184.8000  179.5250  138.8570 O   0  0  0  0  0  1  0  0  0  0  0  0
  186.2600  175.1550  137.0410 O   0  0  0  0  0  0  0  0  0  0  0  0
  185.5730  173.7410  135.4290 C   0  0  0  0  0  1  0  0  0  0  0  0
  186.2830  173.8440  136.6920 N   0  0  0  0  0  0  0  0  0  0  0  0
  185.4890  173.1270  137.6750 C   0  0  0  0  0  1  0  0  0  0  0  0
  188.0440  178.4410  142.4000 C   0  0  0  0  0  2  0  0  0  0  0  0
  188.1540  178.0100  144.8320 C   0  0  2  0  0  3  0  0  0  0  0  0
  190.2650  177.0290  144.7050 O   0  0  0  0  0  0  0  0  0  0  0  0
  189.9170  177.3950  143.4740 O   0  0  0  0  0  0  0  0  0  0  0  0
  190.0650  179.0010  145.8290 O   0  0  0  0  0  1  0  0  0  0  0  0
  188.5170  177.4700  143.4760 C   0  0  2  0  0  0  0  0  0  0  0  0
  189.4540  177.7700  145.5830 C   0  0  1  0  0  0  0  0  0  0  0  0
  187.9870  176.2040  143.2560 F   0  0  0  0  0  0  0  0  0  0  0  0
  189.3040  177.0170  146.8810 C   0  0  0  0  0  0  0  0  0  0  0  0
  189.8260  175.8780  147.0160 O   0  0  0  0  0  0  0  0  0  0  0  0
  188.5270  177.5610  147.9440 N   0  0  0  0  0  1  0  0  0  0  0  0
  186.8820  177.3700  145.4070 C   0  0  0  0  0  2  0  0  0  0  0  0
  185.9960  178.4130  146.0700 C   0  0  0  0  0  2  0  0  0  0  0  0
  185.2540  179.2210  145.0190 C   0  0  0  0  0  2  0  0  0  0  0  0
  183.2290  179.0710  143.6190 C   0  0  0  0  0  2  0  0  0  0  0  0
  184.4020  178.2930  144.1800 C   0  0  0  0  0  3  0  0  0  0  0  0
  184.4230  178.7660  142.7410 C   0  0  0  0  0  2  0  0  0  0  0  0
  1 18  1  0  0  0  0
  2 10  1  1  0  0  0
  2  4  1  0  0  0  0
  3 12  1  0  0  0  0
  3  8  1  0  0  0  0
  4 28  1  6  0  0  0
  4  5  1  0  0  0  0
  6 16  1  0  0  0  0
  6 12  2  0  0  0  0
  7  9  1  0  0  0  0
  7 30  1  1  0  0  0
  8  5  1  6  0  0  0
  8 26  1  0  0  0  0
 10  3  1  0  0  0  0
 11 22  1  0  0  0  0
 12 27  1  0  0  0  0
 13 25  1  0  0  0  0
 14  7  1  0  0  0  0
 14  2  1  0  0  0  0
 15 21  1  0  0  0  0
 15  9  1  0  0  0  0
 16 11  2  0  0  0  0
 18 24  1  0  0  0  0
 19 14  2  0  0  0  0
 20 13  1  0  0  0  0
 20 18  2  0  0  0  0
 21  6  1  0  0  0  0
 23 16  1  0  0  0  0
 24 23  2  0  0  0  0
 25 21  2  0  0  0  0
 25 23  1  0  0  0  0
 26 17  1  0  0  0  0
 26 34  1  1  0  0  0
 27 22  2  0  0  0  0
 27 17  1  0  0  0  0
 28 29  1  0  0  0  0
 31 32  1  0  0  0  0
 32 30  1  0  0  0  0
 32 33  1  0  0  0  0
 34 39  1  0  0  0  0
 35 45  1  1  0  0  0
 35 40  1  0  0  0  0
 36 40  1  0  0  0  0
 37 39  1  0  0  0  0
 37 36  1  0  0  0  0
 39 41  1  6  0  0  0
 39 35  1  0  0  0  0
 40 38  1  1  0  0  0
 40 42  1  0  0  0  0
 42 43  2  0  0  0  0
 42 44  1  0  0  0  0
 45 46  1  0  0  0  0
 47 46  1  0  0  0  0
 48 49  1  0  0  0  0
 49 47  1  0  0  0  0
 50 48  1  0  0  0  0
 50 49  1  0  0  0  0
M  END
>  <MODEL>
1

>  <REMARK>
 VINA RESULT:      -9.0      0.000      0.000
  Name = 
  10 active torsions:
  status: ('A' for Active; 'I' for Inactive)
    1  A    between atoms: C_4  and  C_19
    2  A    between atoms: O_7  and  C_8
    3  A    between atoms: O_7  and  N_41
    4  A    between atoms: C_9  and  C_14
    5  A    between atoms: C_12  and  C_38
    6  A    between atoms: C_12  and  C_47
    7  A    between atoms: C_13  and  C_27
    8  A    between atoms: C_13  and  C_50
    9  A    between atoms: C_14  and  C_50
   10  A    between atoms: C_15  and  C_43
                            x       y       z     vdW  Elec       q    Type
                         _______ _______ _______ _____ _____    ______ ____

>  <TORSDO>
F 10

$$$$
=
 OpenBabel10232411173D

 50 57  0  0  1  0  0  0  0  0999 V2000
  185.0820  178.9760  147.2050 N   0  0  0  0  0  1  0  0  0  0  0  0
  182.6210  176.9840  138.0230 C   0  0  1  0  0  3  0  0  0  0  0  0
  184.8130  177.7480  138.8560 N   0  0  0  0  0  0  0  0  0  0  0  0
  183.1590  177.6770  136.7620 C   0  0  1  0  0  3  0  0  0  0  0  0
  184.4930  177.2970  136.5380 O   0  0  0  0  0  0  0  0  0  0  0  0
  185.1620  178.3400  141.2620 C   0  0  0  0  0  0  0  0  0  0  0  0
  181.4270  179.1400  138.9950 C   0  0  2  0  0  3  0  0  0  0  0  0
  185.2880  177.9840  137.4810 C   0  0  2  0  0  3  0  0  0  0  0  0
  182.6260  179.5010  139.8580 C   0  0  0  0  0  2  0  0  0  0  0  0
  183.7220  176.7950  139.0710 C   0  0  0  0  0  2  0  0  0  0  0  0
  187.3910  178.5200  142.1310 N   0  0  0  0  0  0  0  0  0  0  0  0
  185.6490  178.1460  139.9560 C   0  0  0  0  0  0  0  0  0  0  0  0
  182.8050  178.8370  144.1400 C   0  0  0  0  0  3  0  0  0  0  0  0
  181.4210  177.6830  138.6060 C   0  0  0  0  0  0  0  0  0  0  0  0
  182.5970  178.7640  141.1110 N   0  0  0  0  0  2  0  0  0  0  0  0
  186.0490  178.4590  142.3100 C   0  0  0  0  0  0  0  0  0  0  0  0
  187.6300  178.2310  138.3790 C   0  0  0  0  0  2  0  0  0  0  0  0
  184.6700  178.8810  145.8470 C   0  0  0  0  0  0  0  0  0  0  0  0
  180.3970  177.0400  138.7710 O   0  0  0  0  0  0  0  0  0  0  0  0
  183.3550  178.9020  145.5540 C   0  0  0  0  0  3  0  0  0  0  0  0
  183.7940  178.4440  141.8240 C   0  0  0  0  0  0  0  0  0  0  0  0
  187.8980  178.4360  140.8660 C   0  0  0  0  0  3  0  0  0  0  0  0
  185.2920  178.5610  143.5370 C   0  0  0  0  0  0  0  0  0  0  0  0
  185.6970  178.7430  144.7880 C   0  0  0  0  0  3  0  0  0  0  0  0
  183.8910  178.5270  143.1540 C   0  0  1  0  0  3  0  0  0  0  0  0
  186.7400  177.5120  137.3640 C   0  0  2  0  0  3  0  0  0  0  0  0
  187.0460  178.2450  139.7610 C   0  0  0  0  0  0  0  0  0  0  0  0
  182.3060  177.3480  135.5440 C   0  0  0  0  0  2  0  0  0  0  0  0
  181.9990  178.5080  134.8300 O   0  0  0  0  0  1  0  0  0  0  0  0
  181.4150  179.9490  137.8520 O   0  0  0  0  0  0  0  0  0  0  0  0
  179.9980  181.0910  136.5260 C   0  0  0  0  0  1  0  0  0  0  0  0
  180.2040  180.5620  137.8620 N   0  0  0  0  0  0  0  0  0  0  0  0
  180.3130  181.7070  138.7500 C   0  0  0  0  0  1  0  0  0  0  0  0
  187.2750  177.7640  135.9620 C   0  0  0  0  0  2  0  0  0  0  0  0
  188.5390  175.7220  136.5490 C   0  0  2  0  0  3  0  0  0  0  0  0
  190.6070  176.7860  136.3920 O   0  0  0  0  0  0  0  0  0  0  0  0
  189.6680  177.6890  136.1200 O   0  0  0  0  0  0  0  0  0  0  0  0
  189.9340  176.0470  138.4400 O   0  0  0  0  0  1  0  0  0  0  0  0
  188.5450  176.9630  135.6990 C   0  0  2  0  0  0  0  0  0  0  0  0
  189.9640  175.7410  137.0780 C   0  0  1  0  0  0  0  0  0  0  0  0
  188.6650  176.6710  134.3460 F   0  0  0  0  0  0  0  0  0  0  0  0
  190.7310  174.4590  136.8700 C   0  0  0  0  0  0  0  0  0  0  0  0
  190.5110  173.4620  137.6100 O   0  0  0  0  0  0  0  0  0  0  0  0
  191.7460  174.3800  135.8740 N   0  0  0  0  0  1  0  0  0  0  0  0
  188.0920  174.4720  135.7760 C   0  0  0  0  0  2  0  0  0  0  0  0
  187.1290  173.6330  136.6010 C   0  0  0  0  0  2  0  0  0  0  0  0
  185.6930  173.9670  136.2380 C   0  0  0  0  0  2  0  0  0  0  0  0
  183.3640  173.6180  136.9750 C   0  0  0  0  0  2  0  0  0  0  0  0
  184.8020  173.7320  137.4390 C   0  0  0  0  0  3  0  0  0  0  0  0
  184.1500  172.3700  137.3150 C   0  0  0  0  0  2  0  0  0  0  0  0
  2 14  1  0  0  0  0
  2 10  1  1  0  0  0
  3 10  1  0  0  0  0
  3 12  1  0  0  0  0
  4 28  1  6  0  0  0
  4  2  1  0  0  0  0
  5  4  1  0  0  0  0
  6 21  2  0  0  0  0
  6 16  1  0  0  0  0
  7 30  1  6  0  0  0
  7  9  1  0  0  0  0
  8  5  1  6  0  0  0
  8  3  1  0  0  0  0
  9 15  1  0  0  0  0
 11 16  1  0  0  0  0
 12  6  1  0  0  0  0
 13 20  2  0  0  0  0
 14 19  2  0  0  0  0
 14  7  1  0  0  0  0
 15 21  1  0  0  0  0
 16 23  2  0  0  0  0
 17 27  1  0  0  0  0
 18  1  1  0  0  0  0
 20 18  1  0  0  0  0
 21 25  1  0  0  0  0
 22 11  2  0  0  0  0
 23 24  1  0  0  0  0
 24 18  2  0  0  0  0
 25 23  1  0  0  0  0
 25 13  1  6  0  0  0
 26 34  1  6  0  0  0
 26  8  1  0  0  0  0
 26 17  1  0  0  0  0
 27 12  2  0  0  0  0
 27 22  1  0  0  0  0
 29 28  1  0  0  0  0
 30 32  1  0  0  0  0
 31 32  1  0  0  0  0
 32 33  1  0  0  0  0
 35 45  1  6  0  0  0
 35 40  1  0  0  0  0
 36 40  1  0  0  0  0
 37 36  1  0  0  0  0
 39 41  1  6  0  0  0
 39 34  1  0  0  0  0
 39 37  1  0  0  0  0
 39 35  1  0  0  0  0
 40 38  1  1  0  0  0
 42 40  1  0  0  0  0
 42 43  2  0  0  0  0
 44 42  1  0  0  0  0
 45 46  1  0  0  0  0
 47 46  1  0  0  0  0
 47 49  1  0  0  0  0
 48 50  1  0  0  0  0
 48 49  1  0  0  0  0
 50 49  1  0  0  0  0
M  END
>  <MODEL>
2

>  <REMARK>
 VINA RESULT:      -8.5      3.545      8.809
  Name = 
  10 active torsions:
  status: ('A' for Active; 'I' for Inactive)
    1  A    between atoms: C_4  and  C_19
    2  A    between atoms: O_7  and  C_8
    3  A    between atoms: O_7  and  N_41
    4  A    between atoms: C_9  and  C_14
    5  A    between atoms: C_12  and  C_38
    6  A    between atoms: C_12  and  C_47
    7  A    between atoms: C_13  and  C_27
    8  A    between atoms: C_13  and  C_50
    9  A    between atoms: C_14  and  C_50
   10  A    between atoms: C_15  and  C_43
                            x       y       z     vdW  Elec       q    Type
                         _______ _______ _______ _____ _____    ______ ____

>  <TORSDO>
F 10

$$$$
=
 OpenBabel10232411173D

 50 57  0  0  1  0  0  0  0  0999 V2000
  191.5370  176.7560  147.9060 N   0  0  0  0  0  1  0  0  0  0  0  0
  188.6230  178.6880  138.8450 C   0  0  1  0  0  3  0  0  0  0  0  0
  187.2080  178.3790  140.8420 N   0  0  0  0  0  0  0  0  0  0  0  0
  187.3250  178.2050  138.1810 C   0  0  1  0  0  3  0  0  0  0  0  0
  186.2240  178.8830  138.7310 O   0  0  0  0  0  0  0  0  0  0  0  0
  188.1900  177.7390  143.0520 C   0  0  0  0  0  0  0  0  0  0  0  0
  189.6640  176.2680  139.1290 C   0  0  2  0  0  3  0  0  0  0  0  0
  185.9910  178.3340  140.0110 C   0  0  2  0  0  3  0  0  0  0  0  0
  189.1370  176.1310  140.5480 C   0  0  0  0  0  2  0  0  0  0  0  0
  188.3960  179.0540  140.3150 C   0  0  0  0  0  2  0  0  0  0  0  0
  186.8920  178.0050  145.0520 N   0  0  0  0  0  0  0  0  0  0  0  0
  187.0960  178.1110  142.2500 C   0  0  0  0  0  0  0  0  0  0  0  0
  191.6010  176.5670  144.0910 C   0  0  0  0  0  3  0  0  0  0  0  0
  189.7560  177.7090  138.6900 C   0  0  0  0  0  0  0  0  0  0  0  0
  190.0390  176.7690  141.4950 N   0  0  0  0  0  2  0  0  0  0  0  0
  188.0680  177.7570  144.4250 C   0  0  0  0  0  0  0  0  0  0  0  0
  184.6060  178.5580  142.1050 C   0  0  0  0  0  2  0  0  0  0  0  0
  191.1010  176.8360  146.5550 C   0  0  0  0  0  0  0  0  0  0  0  0
  190.7970  178.0990  138.1860 O   0  0  0  0  0  0  0  0  0  0  0  0
  191.9670  176.5430  145.5640 C   0  0  0  0  0  3  0  0  0  0  0  0
  189.5710  177.3030  142.7360 C   0  0  0  0  0  0  0  0  0  0  0  0
  185.7820  178.2720  144.3040 C   0  0  0  0  0  3  0  0  0  0  0  0
  189.3490  177.4190  145.0010 C   0  0  0  0  0  0  0  0  0  0  0  0
  189.7110  177.2580  146.2680 C   0  0  0  0  0  3  0  0  0  0  0  0
  190.2430  177.1660  143.8830 C   0  0  1  0  0  3  0  0  0  0  0  0
  184.8790  179.1210  140.7090 C   0  0  2  0  0  3  0  0  0  0  0  0
  185.8600  178.3350  142.8990 C   0  0  0  0  0  0  0  0  0  0  0  0
  187.3670  178.4090  136.6720 C   0  0  0  0  0  2  0  0  0  0  0  0
  187.3370  179.7700  136.3590 O   0  0  0  0  0  1  0  0  0  0  0  0
  188.8440  175.5450  138.2550 O   0  0  0  0  0  0  0  0  0  0  0  0
  188.6570  174.9250  136.0980 C   0  0  0  0  0  1  0  0  0  0  0  0
  189.5720  175.4000  137.1190 N   0  0  0  0  0  0  0  0  0  0  0  0
  190.5230  174.3270  137.3570 C   0  0  0  0  0  1  0  0  0  0  0  0
  183.5950  179.0750  139.8920 C   0  0  0  0  0  2  0  0  0  0  0  0
  182.2750  177.2050  138.9600 C   0  0  2  0  0  3  0  0  0  0  0  0
  180.7100  177.2630  140.6870 O   0  0  0  0  0  0  0  0  0  0  0  0
  181.6030  178.2210  140.9200 O   0  0  0  0  0  0  0  0  0  0  0  0
  180.0110  177.8080  138.5870 O   0  0  0  0  0  1  0  0  0  0  0  0
  182.7640  177.8440  140.2310 C   0  0  2  0  0  0  0  0  0  0  0  0
  180.8220  176.9410  139.3230 C   0  0  1  0  0  0  0  0  0  0  0  0
  183.4980  176.9610  141.0130 F   0  0  0  0  0  0  0  0  0  0  0  0
  180.3650  175.5210  139.1050 C   0  0  0  0  0  0  0  0  0  0  0  0
  180.0370  175.1310  137.9520 O   0  0  0  0  0  0  0  0  0  0  0  0
  180.2480  174.6240  140.2050 N   0  0  0  0  0  1  0  0  0  0  0  0
  183.1240  175.9970  138.5350 C   0  0  0  0  0  2  0  0  0  0  0  0
  183.4200  176.0340  137.0440 C   0  0  0  0  0  2  0  0  0  0  0  0
  183.7500  174.6410  136.5380 C   0  0  0  0  0  2  0  0  0  0  0  0
  184.2770  172.3390  137.2540 C   0  0  0  0  0  2  0  0  0  0  0  0
  184.2450  173.7900  137.6880 C   0  0  0  0  0  3  0  0  0  0  0  0
  185.5580  173.1430  137.2980 C   0  0  0  0  0  2  0  0  0  0  0  0
  2 10  1  1  0  0  0
  3 12  1  0  0  0  0
  4 28  1  6  0  0  0
  4  5  1  0  0  0  0
  4  2  1  0  0  0  0
  6 16  1  0  0  0  0
  7 30  1  6  0  0  0
  7  9  1  0  0  0  0
  8  5  1  6  0  0  0
  8 26  1  0  0  0  0
  8  3  1  0  0  0  0
  9 15  1  0  0  0  0
 10  3  1  0  0  0  0
 12 27  2  0  0  0  0
 12  6  1  0  0  0  0
 13 20  2  0  0  0  0
 14  2  1  0  0  0  0
 14  7  1  0  0  0  0
 15 21  1  0  0  0  0
 16 23  2  0  0  0  0
 16 11  1  0  0  0  0
 17 27  1  0  0  0  0
 18  1  1  0  0  0  0
 19 14  2  0  0  0  0
 20 18  1  0  0  0  0
 21  6  2  0  0  0  0
 21 25  1  0  0  0  0
 22 11  2  0  0  0  0
 23 24  1  0  0  0  0
 24 18  2  0  0  0  0
 25 13  1  1  0  0  0
 25 23  1  0  0  0  0
 26 34  1  6  0  0  0
 26 17  1  0  0  0  0
 27 22  1  0  0  0  0
 29 28  1  0  0  0  0
 31 32  1  0  0  0  0
 32 33  1  0  0  0  0
 32 30  1  0  0  0  0
 34 39  1  0  0  0  0
 35 45  1  1  0  0  0
 35 40  1  0  0  0  0
 35 39  1  0  0  0  0
 36 37  1  0  0  0  0
 39 37  1  0  0  0  0
 39 41  1  1  0  0  0
 40 38  1  6  0  0  0
 40 36  1  0  0  0  0
 42 40  1  0  0  0  0
 42 44  1  0  0  0  0
 43 42  2  0  0  0  0
 46 45  1  0  0  0  0
 47 46  1  0  0  0  0
 47 49  1  0  0  0  0
 48 50  1  0  0  0  0
 48 49  1  0  0  0  0
 50 49  1  0  0  0  0
M  END
>  <MODEL>
3

>  <REMARK>
 VINA RESULT:      -8.3      3.207      7.688
  Name = 
  10 active torsions:
  status: ('A' for Active; 'I' for Inactive)
    1  A    between atoms: C_4  and  C_19
    2  A    between atoms: O_7  and  C_8
    3  A    between atoms: O_7  and  N_41
    4  A    between atoms: C_9  and  C_14
    5  A    between atoms: C_12  and  C_38
    6  A    between atoms: C_12  and  C_47
    7  A    between atoms: C_13  and  C_27
    8  A    between atoms: C_13  and  C_50
    9  A    between atoms: C_14  and  C_50
   10  A    between atoms: C_15  and  C_43
                            x       y       z     vdW  Elec       q    Type
                         _______ _______ _______ _____ _____    ______ ____

>  <TORSDO>
F 10

$$$$
=
 OpenBabel10232411173D

 50 57  0  0  1  0  0  0  0  0999 V2000
  190.7710  177.3640  134.4120 N   0  0  0  0  0  1  0  0  0  0  0  0
  182.4600  179.2470  139.0700 C   0  0  1  0  0  3  0  0  0  0  0  0
  184.6160  178.5770  140.0620 N   0  0  0  0  0  0  0  0  0  0  0  0
  181.9630  178.5770  140.3610 C   0  0  1  0  0  3  0  0  0  0  0  0
  182.7310  179.0140  141.4530 O   0  0  0  0  0  0  0  0  0  0  0  0
  186.5870  178.0010  138.6340 C   0  0  0  0  0  0  0  0  0  0  0  0
  182.3740  177.0430  137.6030 C   0  0  2  0  0  3  0  0  0  0  0  0
  183.9810  178.3600  141.3750 C   0  0  2  0  0  3  0  0  0  0  0  0
  183.8410  176.7330  137.8570 C   0  0  0  0  0  2  0  0  0  0  0  0
  183.9720  179.4830  139.1090 C   0  0  0  0  0  2  0  0  0  0  0  0
  188.7780  177.9150  139.6080 N   0  0  0  0  0  0  0  0  0  0  0  0
  185.9970  178.2150  139.8930 C   0  0  0  0  0  0  0  0  0  0  0  0
  186.9880  177.4060  134.9490 C   0  0  0  0  0  2  0  0  0  0  0  0
  182.0500  178.4990  137.8300 C   0  0  0  0  0  0  0  0  0  0  0  0
  184.6890  177.4680  136.9320 N   0  0  0  0  0  2  0  0  0  0  0  0
  187.9600  177.9190  138.5280 C   0  0  0  0  0  0  0  0  0  0  0  0
  186.2730  178.2130  142.4120 C   0  0  0  0  0  2  0  0  0  0  0  0
  189.5140  177.4410  135.0720 C   0  0  0  0  0  0  0  0  0  0  0  0
  181.4280  179.0980  136.9680 O   0  0  0  0  0  0  0  0  0  0  0  0
  188.3810  177.3640  134.3460 C   0  0  0  0  0  3  0  0  0  0  0  0
  186.0280  177.8390  137.2700 C   0  0  0  0  0  0  0  0  0  0  0  0
  188.2340  178.0200  140.8560 C   0  0  0  0  0  3  0  0  0  0  0  0
  188.3010  177.7860  137.1310 C   0  0  0  0  0  0  0  0  0  0  0  0
  189.4800  177.6210  136.5420 C   0  0  0  0  0  3  0  0  0  0  0  0
  187.0420  177.7610  136.4050 C   0  0  0  0  0  0  0  0  0  0  0  0
  184.9050  178.8930  142.4720 C   0  0  2  0  0  3  0  0  0  0  0  0
  186.8440  178.1750  141.0240 C   0  0  0  0  0  0  0  0  0  0  0  0
  180.4890  178.8700  140.6040 C   0  0  0  0  0  2  0  0  0  0  0  0
  180.3150  179.5490  141.8120 O   0  0  0  0  0  1  0  0  0  0  0  0
  181.5780  176.2340  138.4230 O   0  0  0  0  0  0  0  0  0  0  0  0
  180.0960  174.5510  138.2230 C   0  0  0  0  0  1  0  0  0  0  0  0
  180.5870  175.7770  137.6180 N   0  0  0  0  0  0  0  0  0  0  0  0
  181.2020  175.4000  136.3560 C   0  0  0  0  0  1  0  0  0  0  0  0
  184.2930  178.6640  143.8470 C   0  0  0  0  0  2  0  0  0  0  0  0
  186.0990  177.9710  145.3870 C   0  0  2  0  0  3  0  0  0  0  0  0
  185.3190  179.3080  147.1300 O   0  0  0  0  0  0  0  0  0  0  0  0
  184.4950  179.4710  146.0970 O   0  0  0  0  0  0  0  0  0  0  0  0
  185.2510  177.0460  147.4010 O   0  0  0  0  0  1  0  0  0  0  0  0
  185.2320  179.1230  144.9570 C   0  0  2  0  0  0  0  0  0  0  0  0
  186.0100  178.1060  146.8990 C   0  0  1  0  0  0  0  0  0  0  0  0
  185.9820  180.2160  144.5400 F   0  0  0  0  0  0  0  0  0  0  0  0
  187.3400  178.1490  147.6080 C   0  0  0  0  0  0  0  0  0  0  0  0
  187.7920  179.2440  148.0400 O   0  0  0  0  0  0  0  0  0  0  0  0
  188.1200  176.9660  147.7500 N   0  0  0  0  0  1  0  0  0  0  0  0
  187.5000  178.0130  144.7590 C   0  0  0  0  0  2  0  0  0  0  0  0
  187.9070  176.6450  144.2360 C   0  0  0  0  0  2  0  0  0  0  0  0
  189.4110  176.5810  144.0370 C   0  0  0  0  0  2  0  0  0  0  0  0
  191.2740  177.6930  145.2110 C   0  0  0  0  0  2  0  0  0  0  0  0
  190.0230  177.9200  144.3880 C   0  0  0  0  0  3  0  0  0  0  0  0
  191.3880  178.0280  143.7400 C   0  0  0  0  0  2  0  0  0  0  0  0
  1 18  1  0  0  0  0
  2 10  1  1  0  0  0
  2  4  1  0  0  0  0
  3  8  1  0  0  0  0
  4 28  1  1  0  0  0
  4  5  1  0  0  0  0
  6 12  2  0  0  0  0
  7 14  1  0  0  0  0
  7  9  1  0  0  0  0
  7 30  1  1  0  0  0
  8  5  1  6  0  0  0
  8 26  1  0  0  0  0
 10  3  1  0  0  0  0
 11 22  1  0  0  0  0
 12  3  1  0  0  0  0
 12 27  1  0  0  0  0
 13 25  1  0  0  0  0
 14  2  1  0  0  0  0
 15 21  1  0  0  0  0
 15  9  1  0  0  0  0
 16  6  1  0  0  0  0
 16 11  2  0  0  0  0
 17 26  1  0  0  0  0
 18 24  1  0  0  0  0
 19 14  2  0  0  0  0
 20 13  1  0  0  0  0
 20 18  2  0  0  0  0
 21  6  1  0  0  0  0
 22 27  2  0  0  0  0
 23 16  1  0  0  0  0
 24 23  2  0  0  0  0
 25 23  1  0  0  0  0
 25 21  2  0  0  0  0
 26 34  1  1  0  0  0
 27 17  1  0  0  0  0
 28 29  1  0  0  0  0
 32 31  1  0  0  0  0
 32 30  1  0  0  0  0
 33 32  1  0  0  0  0
 34 39  1  0  0  0  0
 35 45  1  6  0  0  0
 35 40  1  0  0  0  0
 37 36  1  0  0  0  0
 39 41  1  6  0  0  0
 39 35  1  0  0  0  0
 39 37  1  0  0  0  0
 40 36  1  0  0  0  0
 40 38  1  1  0  0  0
 40 42  1  0  0  0  0
 42 44  1  0  0  0  0
 42 43  2  0  0  0  0
 46 45  1  0  0  0  0
 47 46  1  0  0  0  0
 47 49  1  0  0  0  0
 49 48  1  0  0  0  0
 50 49  1  0  0  0  0
 50 48  1  0  0  0  0
M  END
>  <MODEL>
4

>  <REMARK>
 VINA RESULT:      -7.7      3.196      5.019
  Name = 
  10 active torsions:
  status: ('A' for Active; 'I' for Inactive)
    1  A    between atoms: C_4  and  C_19
    2  A    between atoms: O_7  and  C_8
    3  A    between atoms: O_7  and  N_41
    4  A    between atoms: C_9  and  C_14
    5  A    between atoms: C_12  and  C_38
    6  A    between atoms: C_12  and  C_47
    7  A    between atoms: C_13  and  C_27
    8  A    between atoms: C_13  and  C_50
    9  A    between atoms: C_14  and  C_50
   10  A    between atoms: C_15  and  C_43
                            x       y       z     vdW  Elec       q    Type
                         _______ _______ _______ _____ _____    ______ ____

>  <TORSDO>
F 10

$$$$
=
 OpenBabel10232411173D

 50 57  0  0  1  0  0  0  0  0999 V2000
  194.1150  176.0900  136.0760 N   0  0  0  0  0  1  0  0  0  0  0  0
  184.6350  178.0200  136.9210 C   0  0  1  0  0  3  0  0  0  0  0  0
  186.2830  177.7760  138.7390 N   0  0  0  0  0  0  0  0  0  0  0  0
  183.7090  177.5710  138.0620 C   0  0  1  0  0  3  0  0  0  0  0  0
  184.0090  178.2890  139.2330 O   0  0  0  0  0  0  0  0  0  0  0  0
  188.6540  177.1280  138.2730 C   0  0  0  0  0  0  0  0  0  0  0  0
  185.1420  175.5730  136.0430 C   0  0  2  0  0  3  0  0  0  0  0  0
  185.2120  177.7600  139.7510 C   0  0  2  0  0  3  0  0  0  0  0  0
  186.4160  175.4660  136.8660 C   0  0  0  0  0  2  0  0  0  0  0  0
  186.0210  178.4080  137.4450 C   0  0  0  0  0  2  0  0  0  0  0  0
  190.3300  177.4540  139.9600 N   0  0  0  0  0  0  0  0  0  0  0  0
  187.6360  177.5260  139.1580 C   0  0  0  0  0  0  0  0  0  0  0  0
  190.4030  175.8610  135.2030 C   0  0  0  0  0  2  0  0  0  0  0  0
  184.7280  177.0050  135.8130 C   0  0  0  0  0  0  0  0  0  0  0  0
  187.5320  176.0850  136.1670 N   0  0  0  0  0  2  0  0  0  0  0  0
  189.9690  177.1640  138.6860 C   0  0  0  0  0  0  0  0  0  0  0  0
  186.9600  178.0480  141.5440 C   0  0  0  0  0  2  0  0  0  0  0  0
  192.7020  176.1700  136.2090 C   0  0  0  0  0  0  0  0  0  0  0  0
  184.4580  177.3570  134.6770 O   0  0  0  0  0  0  0  0  0  0  0  0
  191.9200  175.8400  135.1620 C   0  0  0  0  0  3  0  0  0  0  0  0
  188.6430  176.6460  136.8710 C   0  0  0  0  0  0  0  0  0  0  0  0
  189.3600  177.7480  140.8750 C   0  0  0  0  0  3  0  0  0  0  0  0
  190.8070  176.7920  137.5690 C   0  0  0  0  0  0  0  0  0  0  0  0
  192.1230  176.6320  137.4920 C   0  0  0  0  0  3  0  0  0  0  0  0
  189.9070  176.5000  136.4650 C   0  0  0  0  0  0  0  0  0  0  0  0
  185.6530  178.5880  140.9610 C   0  0  2  0  0  3  0  0  0  0  0  0
  188.0040  177.7940  140.4970 C   0  0  0  0  0  0  0  0  0  0  0  0
  182.2440  177.7590  137.6920 C   0  0  0  0  0  2  0  0  0  0  0  0
  181.4920  178.1050  138.8170 O   0  0  0  0  0  1  0  0  0  0  0  0
  184.1150  174.8660  136.6810 O   0  0  0  0  0  0  0  0  0  0  0  0
  182.0320  174.0850  136.3320 C   0  0  0  0  0  1  0  0  0  0  0  0
  183.2660  174.4980  135.6890 N   0  0  0  0  0  0  0  0  0  0  0  0
  183.8270  173.3110  135.0660 C   0  0  0  0  0  1  0  0  0  0  0  0
  184.5800  178.5740  142.0410 C   0  0  0  0  0  2  0  0  0  0  0  0
  185.5780  178.2850  144.2840 C   0  0  2  0  0  3  0  0  0  0  0  0
  184.3010  179.9930  145.2270 O   0  0  0  0  0  0  0  0  0  0  0  0
  183.9610  179.8980  143.9440 O   0  0  0  0  0  0  0  0  0  0  0  0
  183.9360  177.8610  145.9440 O   0  0  0  0  0  1  0  0  0  0  0  0
  185.0500  179.2930  143.3000 C   0  0  2  0  0  0  0  0  0  0  0  0
  184.9200  178.7770  145.5640 C   0  0  1  0  0  0  0  0  0  0  0  0
  185.9950  180.2620  142.9840 F   0  0  0  0  0  0  0  0  0  0  0  0
  185.8680  179.0000  146.7150 C   0  0  0  0  0  0  0  0  0  0  0  0
  186.5230  178.0350  147.1930 O   0  0  0  0  0  0  0  0  0  0  0  0
  185.9920  180.2900  147.3070 N   0  0  0  0  0  1  0  0  0  0  0  0
  187.1110  178.1890  144.2740 C   0  0  0  0  0  2  0  0  0  0  0  0
  187.5730  176.7760  144.5940 C   0  0  0  0  0  2  0  0  0  0  0  0
  189.0560  176.6270  144.3040 C   0  0  0  0  0  2  0  0  0  0  0  0
  191.1340  176.9970  145.5820 C   0  0  0  0  0  2  0  0  0  0  0  0
  189.8340  177.6290  145.1290 C   0  0  0  0  0  3  0  0  0  0  0  0
  191.1280  177.9620  144.4160 C   0  0  0  0  0  2  0  0  0  0  0  0
  1 18  1  0  0  0  0
  2 10  1  1  0  0  0
  2  4  1  0  0  0  0
  3 12  1  0  0  0  0
  3  8  1  0  0  0  0
  4 28  1  6  0  0  0
  4  5  1  0  0  0  0
  6 16  1  0  0  0  0
  6 12  2  0  0  0  0
  7 30  1  1  0  0  0
  7  9  1  0  0  0  0
  8  5  1  6  0  0  0
  8 26  1  0  0  0  0
 10  3  1  0  0  0  0
 11 22  1  0  0  0  0
 12 27  1  0  0  0  0
 13 25  1  0  0  0  0
 14  7  1  0  0  0  0
 14  2  1  0  0  0  0
 15  9  1  0  0  0  0
 15 21  1  0  0  0  0
 16 11  2  0  0  0  0
 18 24  1  0  0  0  0
 19 14  2  0  0  0  0
 20 13  1  0  0  0  0
 20 18  2  0  0  0  0
 21  6  1  0  0  0  0
 23 16  1  0  0  0  0
 24 23  2  0  0  0  0
 25 21  2  0  0  0  0
 25 23  1  0  0  0  0
 26 17  1  0  0  0  0
 26 34  1  1  0  0  0
 27 22  2  0  0  0  0
 27 17  1  0  0  0  0
 28 29  1  0  0  0  0
 32 31  1  0  0  0  0
 32 30  1  0  0  0  0
 33 32  1  0  0  0  0
 34 39  1  0  0  0  0
 35 45  1  1  0  0  0
 35 40  1  0  0  0  0
 36 40  1  0  0  0  0
 37 36  1  0  0  0  0
 39 41  1  6  0  0  0
 39 37  1  0  0  0  0
 39 35  1  0  0  0  0
 40 38  1  1  0  0  0
 40 42  1  0  0  0  0
 42 43  2  0  0  0  0
 42 44  1  0  0  0  0
 45 46  1  0  0  0  0
 47 46  1  0  0  0  0
 47 49  1  0  0  0  0
 49 48  1  0  0  0  0
 50 49  1  0  0  0  0
 50 48  1  0  0  0  0
M  END
>  <MODEL>
5

>  <REMARK>
 VINA RESULT:      -6.7      2.395      3.689
  Name = 
  10 active torsions:
  status: ('A' for Active; 'I' for Inactive)
    1  A    between atoms: C_4  and  C_19
    2  A    between atoms: O_7  and  C_8
    3  A    between atoms: O_7  and  N_41
    4  A    between atoms: C_9  and  C_14
    5  A    between atoms: C_12  and  C_38
    6  A    between atoms: C_12  and  C_47
    7  A    between atoms: C_13  and  C_27
    8  A    between atoms: C_13  and  C_50
    9  A    between atoms: C_14  and  C_50
   10  A    between atoms: C_15  and  C_43
                            x       y       z     vdW  Elec       q    Type
                         _______ _______ _______ _____ _____    ______ ____

>  <TORSDO>
F 10

$$$$
=
 OpenBabel10232411173D

 50 57  0  0  1  0  0  0  0  0999 V2000
  189.3630  178.2280  145.9810 N   0  0  0  0  0  1  0  0  0  0  0  0
  188.8890  174.9020  136.8690 C   0  0  1  0  0  3  0  0  0  0  0  0
  190.8000  176.0150  137.9610 N   0  0  0  0  0  0  0  0  0  0  0  0
  189.5860  175.5040  135.6390 C   0  0  1  0  0  3  0  0  0  0  0  0
  190.9690  175.2620  135.7070 O   0  0  0  0  0  0  0  0  0  0  0  0
  190.6280  176.9200  140.2870 C   0  0  0  0  0  0  0  0  0  0  0  0
  187.3300  176.9970  137.3130 C   0  0  2  0  0  3  0  0  0  0  0  0
  191.5010  176.1460  136.6710 C   0  0  2  0  0  3  0  0  0  0  0  0
  188.3030  177.5970  138.3150 C   0  0  0  0  0  2  0  0  0  0  0  0
  189.7850  174.9690  138.1090 C   0  0  0  0  0  2  0  0  0  0  0  0
  192.6230  177.4670  141.5010 N   0  0  0  0  0  0  0  0  0  0  0  0
  191.3690  176.6360  139.1260 C   0  0  0  0  0  0  0  0  0  0  0  0
  187.7310  177.4620  142.6120 C   0  0  0  0  0  3  0  0  0  0  0  0
  187.5390  175.5140  137.1310 C   0  0  0  0  0  0  0  0  0  0  0  0
  188.1080  177.0130  139.6320 N   0  0  0  0  0  2  0  0  0  0  0  0
  191.2840  177.2670  141.4490 C   0  0  0  0  0  0  0  0  0  0  0  0
  193.5960  176.7750  137.9240 C   0  0  0  0  0  2  0  0  0  0  0  0
  189.2260  177.9280  144.5980 C   0  0  0  0  0  0  0  0  0  0  0  0
  186.5690  174.7770  137.1990 O   0  0  0  0  0  0  0  0  0  0  0  0
  187.9940  177.7560  144.0780 C   0  0  0  0  0  3  0  0  0  0  0  0
  189.1750  176.9240  140.5810 C   0  0  0  0  0  0  0  0  0  0  0  0
  193.3660  177.2980  140.3680 C   0  0  0  0  0  3  0  0  0  0  0  0
  190.3030  177.4190  142.4980 C   0  0  0  0  0  0  0  0  0  0  0  0
  190.4430  177.7920  143.7640 C   0  0  0  0  0  3  0  0  0  0  0  0
  189.0090  177.1720  141.8840 C   0  0  1  0  0  3  0  0  0  0  0  0
  192.9870  175.8410  136.8770 C   0  0  2  0  0  3  0  0  0  0  0  0
  192.7620  176.8790  139.1670 C   0  0  0  0  0  0  0  0  0  0  0  0
  189.0160  174.9340  134.3460 C   0  0  0  0  0  2  0  0  0  0  0  0
  187.8840  174.1590  134.6080 O   0  0  0  0  0  1  0  0  0  0  0  0
  187.4560  177.6600  136.0860 O   0  0  0  0  0  0  0  0  0  0  0  0
  185.3430  177.6550  136.8650 C   0  0  0  0  0  1  0  0  0  0  0  0
  186.2160  178.1370  135.8100 N   0  0  0  0  0  0  0  0  0  0  0  0
  185.7770  177.4970  134.5810 C   0  0  0  0  0  1  0  0  0  0  0  0
  193.7520  175.9910  135.5690 C   0  0  0  0  0  2  0  0  0  0  0  0
  194.9690  174.0280  136.4500 C   0  0  2  0  0  3  0  0  0  0  0  0
  196.9340  175.2300  136.8090 O   0  0  0  0  0  0  0  0  0  0  0  0
  196.0310  176.0730  136.3130 O   0  0  0  0  0  0  0  0  0  0  0  0
  195.8300  174.4130  138.6270 O   0  0  0  0  0  1  0  0  0  0  0  0
  195.0990  175.2810  135.6280 C   0  0  2  0  0  0  0  0  0  0  0  0
  196.2160  174.1330  137.3140 C   0  0  1  0  0  0  0  0  0  0  0  0
  195.5690  175.0210  134.3460 F   0  0  0  0  0  0  0  0  0  0  0  0
  197.0970  172.9090  137.3020 C   0  0  0  0  0  0  0  0  0  0  0  0
  196.7590  171.8790  137.9450 O   0  0  0  0  0  0  0  0  0  0  0  0
  198.3410  172.9240  136.6090 N   0  0  0  0  0  1  0  0  0  0  0  0
  194.8140  172.7650  135.5900 C   0  0  0  0  0  2  0  0  0  0  0  0
  193.6110  171.9460  136.0310 C   0  0  0  0  0  2  0  0  0  0  0  0
  194.0170  170.5050  136.2860 C   0  0  0  0  0  2  0  0  0  0  0  0
  196.0950  169.3900  135.5580 C   0  0  0  0  0  2  0  0  0  0  0  0
  194.7800  169.9780  135.0880 C   0  0  0  0  0  3  0  0  0  0  0  0
  194.9360  168.4770  135.2210 C   0  0  0  0  0  2  0  0  0  0  0  0
  2 14  1  0  0  0  0
  2 10  1  1  0  0  0
  3 10  1  0  0  0  0
  3 12  1  0  0  0  0
  4 28  1  6  0  0  0
  4  5  1  0  0  0  0
  4  2  1  0  0  0  0
  6 21  2  0  0  0  0
  6 16  1  0  0  0  0
  7 30  1  6  0  0  0
  7  9  1  0  0  0  0
  8  5  1  6  0  0  0
  8 26  1  0  0  0  0
  8  3  1  0  0  0  0
  9 15  1  0  0  0  0
 12 27  2  0  0  0  0
 12  6  1  0  0  0  0
 13 20  2  0  0  0  0
 14 19  2  0  0  0  0
 14  7  1  0  0  0  0
 15 21  1  0  0  0  0
 16 11  1  0  0  0  0
 16 23  2  0  0  0  0
 17 27  1  0  0  0  0
 18  1  1  0  0  0  0
 20 18  1  0  0  0  0
 21 25  1  0  0  0  0
 22 11  2  0  0  0  0
 23 24  1  0  0  0  0
 24 18  2  0  0  0  0
 25 23  1  0  0  0  0
 25 13  1  6  0  0  0
 26 34  1  6  0  0  0
 26 17  1  0  0  0  0
 27 22  1  0  0  0  0
 28 29  1  0  0  0  0
 32 30  1  0  0  0  0
 32 31  1  0  0  0  0
 33 32  1  0  0  0  0
 34 39  1  0  0  0  0
 35 45  1  6  0  0  0
 35 40  1  0  0  0  0
 36 40  1  0  0  0  0
 37 36  1  0  0  0  0
 39 41  1  6  0  0  0
 39 37  1  0  0  0  0
 39 35  1  0  0  0  0
 40 38  1  1  0  0  0
 42 40  1  0  0  0  0
 42 43  2  0  0  0  0
 44 42  1  0  0  0  0
 45 46  1  0  0  0  0
 46 47  1  0  0  0  0
 49 50  1  0  0  0  0
 49 48  1  0  0  0  0
 49 47  1  0  0  0  0
 50 48  1  0  0  0  0
M  END
>  <MODEL>
6

>  <REMARK>
 VINA RESULT:      -6.6      4.025      9.021
  Name = 
  10 active torsions:
  status: ('A' for Active; 'I' for Inactive)
    1  A    between atoms: C_4  and  C_19
    2  A    between atoms: O_7  and  C_8
    3  A    between atoms: O_7  and  N_41
    4  A    between atoms: C_9  and  C_14
    5  A    between atoms: C_12  and  C_38
    6  A    between atoms: C_12  and  C_47
    7  A    between atoms: C_13  and  C_27
    8  A    between atoms: C_13  and  C_50
    9  A    between atoms: C_14  and  C_50
   10  A    between atoms: C_15  and  C_43
                            x       y       z     vdW  Elec       q    Type
                         _______ _______ _______ _____ _____    ______ ____

>  <TORSDO>
F 10

$$$$
=
 OpenBabel10232411173D

 50 57  0  0  1  0  0  0  0  0999 V2000
  180.8190  175.9850  134.5870 N   0  0  0  0  0  1  0  0  0  0  0  0
  189.9190  177.7760  137.4690 C   0  0  1  0  0  3  0  0  0  0  0  0
  188.9970  175.6370  136.6570 N   0  0  0  0  0  0  0  0  0  0  0  0
  190.8640  176.7920  138.1750 C   0  0  1  0  0  3  0  0  0  0  0  0
  191.2930  175.8060  137.2700 O   0  0  0  0  0  0  0  0  0  0  0  0
  186.5690  175.3870  136.1080 C   0  0  0  0  0  0  0  0  0  0  0  0
  188.1490  177.8680  139.4370 C   0  0  2  0  0  3  0  0  0  0  0  0
  190.2130  174.9180  137.0760 C   0  0  2  0  0  3  0  0  0  0  0  0
  187.2880  176.7850  138.8070 C   0  0  0  0  0  2  0  0  0  0  0  0
  189.0850  177.0750  136.3920 C   0  0  0  0  0  2  0  0  0  0  0  0
  185.8310  173.5120  134.8070 N   0  0  0  0  0  0  0  0  0  0  0  0
  187.8800  174.8800  136.1600 C   0  0  0  0  0  0  0  0  0  0  0  0
  183.5740  177.5690  136.7080 C   0  0  0  0  0  3  0  0  0  0  0  0
  189.0490  178.5400  138.4300 C   0  0  0  0  0  0  0  0  0  0  0  0
  186.3960  177.3530  137.8090 N   0  0  0  0  0  2  0  0  0  0  0  0
  185.6060  174.7170  135.3840 C   0  0  0  0  0  0  0  0  0  0  0  0
  189.4310  172.9170  135.7580 C   0  0  0  0  0  2  0  0  0  0  0  0
  182.0880  176.1920  135.1950 C   0  0  0  0  0  0  0  0  0  0  0  0
  189.0720  179.7590  138.3930 O   0  0  0  0  0  0  0  0  0  0  0  0
  182.2730  177.2670  135.9870 C   0  0  0  0  0  3  0  0  0  0  0  0
  185.9260  176.5870  136.6960 C   0  0  0  0  0  0  0  0  0  0  0  0
  187.0650  172.9400  134.9200 C   0  0  0  0  0  3  0  0  0  0  0  0
  184.3860  175.4890  135.4270 C   0  0  1  0  0  3  0  0  0  0  0  0
  183.1820  175.2300  134.9280 C   0  0  0  0  0  3  0  0  0  0  0  0
  184.6690  176.6530  136.2510 C   0  0  0  0  0  0  0  0  0  0  0  0
  190.5840  173.8920  136.0020 C   0  0  2  0  0  3  0  0  0  0  0  0
  188.1090  173.6070  135.5890 C   0  0  0  0  0  0  0  0  0  0  0  0
  192.0650  177.5130  138.7760 C   0  0  0  0  0  2  0  0  0  0  0  0
  192.2610  177.1210  140.1020 O   0  0  0  0  0  1  0  0  0  0  0  0
  188.9080  177.3150  140.4760 O   0  0  0  0  0  0  0  0  0  0  0  0
  189.8520  177.9750  142.4100 C   0  0  0  0  0  1  0  0  0  0  0  0
  188.6980  178.1260  141.5420 N   0  0  0  0  0  0  0  0  0  0  0  0
  187.5590  177.5900  142.2680 C   0  0  0  0  0  1  0  0  0  0  0  0
  191.8230  173.1090  136.4120 C   0  0  0  0  0  2  0  0  0  0  0  0
  194.2330  173.6570  136.4540 C   0  0  2  0  0  3  0  0  0  0  0  0
  194.0430  175.2550  134.7680 O   0  0  0  0  0  0  0  0  0  0  0  0
  192.8290  174.7550  134.9870 O   0  0  0  0  0  0  0  0  0  0  0  0
  194.6170  175.9640  136.8560 O   0  0  0  0  0  1  0  0  0  0  0  0
  193.0300  173.4950  135.5660 C   0  0  2  0  0  0  0  0  0  0  0  0
  194.8070  174.9550  135.9090 C   0  0  1  0  0  0  0  0  0  0  0  0
  193.2430  172.5560  134.5630 F   0  0  0  0  0  0  0  0  0  0  0  0
  196.2660  174.8910  135.5320 C   0  0  0  0  0  0  0  0  0  0  0  0
  196.6490  174.1160  134.6140 O   0  0  0  0  0  0  0  0  0  0  0  0
  197.2290  175.6620  136.2430 N   0  0  0  0  0  1  0  0  0  0  0  0
  195.1500  172.4250  136.4480 C   0  0  0  0  0  2  0  0  0  0  0  0
  195.4920  171.9900  137.8640 C   0  0  0  0  0  2  0  0  0  0  0  0
  195.1730  170.5180  138.0560 C   0  0  0  0  0  2  0  0  0  0  0  0
  195.2310  168.6340  136.4640 C   0  0  0  0  0  2  0  0  0  0  0  0
  194.5750  169.9620  136.7810 C   0  0  0  0  0  3  0  0  0  0  0  0
  193.8560  168.6660  137.0940 C   0  0  0  0  0  2  0  0  0  0  0  0
  1 18  1  0  0  0  0
  2 10  1  6  0  0  0
  2  4  1  0  0  0  0
  2 14  1  0  0  0  0
  3  8  1  0  0  0  0
  4 28  1  6  0  0  0
  5  4  1  0  0  0  0
  6 12  1  0  0  0  0
  6 21  1  0  0  0  0
  7 30  1  1  0  0  0
  8  5  1  6  0  0  0
  9  7  1  0  0  0  0
 10  3  1  0  0  0  0
 11 22  2  0  0  0  0
 11 16  1  0  0  0  0
 12  3  1  0  0  0  0
 14  7  1  0  0  0  0
 15  9  1  0  0  0  0
 16 23  1  0  0  0  0
 16  6  2  0  0  0  0
 17 26  1  0  0  0  0
 18 20  1  0  0  0  0
 19 14  2  0  0  0  0
 20 13  2  0  0  0  0
 21 15  1  0  0  0  0
 22 27  1  0  0  0  0
 23 24  1  1  0  0  0
 23 25  1  0  0  0  0
 24 18  2  0  0  0  0
 25 21  2  0  0  0  0
 25 13  1  0  0  0  0
 26 34  1  1  0  0  0
 26  8  1  0  0  0  0
 27 17  1  0  0  0  0
 27 12  2  0  0  0  0
 28 29  1  0  0  0  0
 30 32  1  0  0  0  0
 32 33  1  0  0  0  0
 32 31  1  0  0  0  0
 35 45  1  6  0  0  0
 36 37  1  0  0  0  0
 36 40  1  0  0  0  0
 37 39  1  0  0  0  0
 39 41  1  6  0  0  0
 39 34  1  0  0  0  0
 39 35  1  0  0  0  0
 40 35  1  0  0  0  0
 40 38  1  1  0  0  0
 42 40  1  0  0  0  0
 42 44  1  0  0  0  0
 43 42  2  0  0  0  0
 45 46  1  0  0  0  0
 46 47  1  0  0  0  0
 48 49  1  0  0  0  0
 48 50  1  0  0  0  0
 49 50  1  0  0  0  0
 49 47  1  0  0  0  0
M  END
>  <MODEL>
7

>  <REMARK>
 VINA RESULT:      -6.4      4.071      9.620
  Name = 
  10 active torsions:
  status: ('A' for Active; 'I' for Inactive)
    1  A    between atoms: C_4  and  C_19
    2  A    between atoms: O_7  and  C_8
    3  A    between atoms: O_7  and  N_41
    4  A    between atoms: C_9  and  C_14
    5  A    between atoms: C_12  and  C_38
    6  A    between atoms: C_12  and  C_47
    7  A    between atoms: C_13  and  C_27
    8  A    between atoms: C_13  and  C_50
    9  A    between atoms: C_14  and  C_50
   10  A    between atoms: C_15  and  C_43
                            x       y       z     vdW  Elec       q    Type
                         _______ _______ _______ _____ _____    ______ ____

>  <TORSDO>
F 10

$$$$
=
 OpenBabel10232411173D

 50 57  0  0  1  0  0  0  0  0999 V2000
  180.4540  179.4120  143.4990 N   0  0  0  0  0  1  0  0  0  0  0  0
  190.0660  178.8010  142.2560 C   0  0  1  0  0  3  0  0  0  0  0  0
  188.3050  178.2700  140.6130 N   0  0  0  0  0  0  0  0  0  0  0  0
  190.8120  177.7770  141.3870 C   0  0  1  0  0  3  0  0  0  0  0  0
  190.6050  178.0630  140.0270 O   0  0  0  0  0  0  0  0  0  0  0  0
  185.8800  178.3670  141.2220 C   0  0  0  0  0  0  0  0  0  0  0  0
  189.1040  177.0170  143.9620 C   0  0  2  0  0  3  0  0  0  0  0  0
  189.2920  177.6540  139.7080 C   0  0  2  0  0  3  0  0  0  0  0  0
  187.7930  176.8940  143.2030 C   0  0  0  0  0  2  0  0  0  0  0  0
  188.7660  179.2600  141.5900 C   0  0  0  0  0  2  0  0  0  0  0  0
  184.2200  178.4060  139.4900 N   0  0  0  0  0  0  0  0  0  0  0  0
  186.9090  178.1830  140.2800 C   0  0  0  0  0  0  0  0  0  0  0  0
  184.0780  178.7220  144.4940 C   0  0  0  0  0  3  0  0  0  0  0  0
  189.8230  178.3080  143.6580 C   0  0  0  0  0  0  0  0  0  0  0  0
  186.8730  177.9510  143.5930 N   0  0  0  0  0  2  0  0  0  0  0  0
  184.5820  178.5320  140.7900 C   0  0  0  0  0  0  0  0  0  0  0  0
  187.5470  177.6360  137.8890 C   0  0  0  0  0  2  0  0  0  0  0  0
  181.8430  179.1300  143.3840 C   0  0  0  0  0  0  0  0  0  0  0  0
  190.2240  178.9840  144.5910 O   0  0  0  0  0  0  0  0  0  0  0  0
  182.5940  179.0460  144.4990 C   0  0  0  0  0  3  0  0  0  0  0  0
  185.8680  178.4410  142.7020 C   0  0  0  0  0  0  0  0  0  0  0  0
  185.1780  178.1280  138.5570 C   0  0  0  0  0  3  0  0  0  0  0  0
  183.7480  178.7860  141.9420 C   0  0  1  0  0  3  0  0  0  0  0  0
  182.4340  178.9540  142.0370 C   0  0  0  0  0  3  0  0  0  0  0  0
  184.6260  178.7310  143.0990 C   0  0  0  0  0  0  0  0  0  0  0  0
  188.9680  178.0560  138.2670 C   0  0  2  0  0  3  0  0  0  0  0  0
  186.5320  178.0150  138.9280 C   0  0  0  0  0  0  0  0  0  0  0  0
  192.3020  177.7660  141.7010 C   0  0  0  0  0  2  0  0  0  0  0  0
  193.0140  177.1210  140.6870 O   0  0  0  0  0  1  0  0  0  0  0  0
  189.9230  175.9220  143.6580 O   0  0  0  0  0  0  0  0  0  0  0  0
  191.9300  174.9940  144.0820 C   0  0  0  0  0  1  0  0  0  0  0  0
  191.0800  176.1450  144.3300 N   0  0  0  0  0  0  0  0  0  0  0  0
  190.7600  176.1280  145.7480 C   0  0  0  0  0  1  0  0  0  0  0  0
  189.9530  177.4160  137.2970 C   0  0  0  0  0  2  0  0  0  0  0  0
  190.5210  175.3450  136.0740 C   0  0  2  0  0  3  0  0  0  0  0  0
  188.4670  174.3420  136.5320 O   0  0  0  0  0  0  0  0  0  0  0  0
  188.4590  175.5500  137.0900 O   0  0  0  0  0  0  0  0  0  0  0  0
  188.9490  174.8560  134.3650 O   0  0  0  0  0  1  0  0  0  0  0  0
  189.8040  175.8990  137.2740 C   0  0  2  0  0  0  0  0  0  0  0  0
  189.4810  174.3630  135.5580 C   0  0  1  0  0  0  0  0  0  0  0  0
  190.2660  175.3460  138.4620 F   0  0  0  0  0  0  0  0  0  0  0  0
  189.9910  172.9610  135.3370 C   0  0  0  0  0  0  0  0  0  0  0  0
  191.1310  172.7740  134.8330 O   0  0  0  0  0  0  0  0  0  0  0  0
  189.1710  171.8380  135.6460 N   0  0  0  0  0  1  0  0  0  0  0  0
  191.9100  174.7830  136.4160 C   0  0  0  0  0  2  0  0  0  0  0  0
  193.0100  175.7240  135.9500 C   0  0  0  0  0  2  0  0  0  0  0  0
  194.3690  175.1990  136.3790 C   0  0  0  0  0  2  0  0  0  0  0  0
  195.4180  173.3830  137.6800 C   0  0  0  0  0  2  0  0  0  0  0  0
  194.2020  174.2810  137.5710 C   0  0  0  0  0  3  0  0  0  0  0  0
  195.2820  174.5860  138.5880 C   0  0  0  0  0  2  0  0  0  0  0  0
  2 10  1  6  0  0  0
  2 14  1  0  0  0  0
  3 10  1  0  0  0  0
  4 28  1  1  0  0  0
  4  2  1  0  0  0  0
  5  4  1  0  0  0  0
  6 21  1  0  0  0  0
  7 30  1  6  0  0  0
  8  5  1  1  0  0  0
  8  3  1  0  0  0  0
  9 15  1  0  0  0  0
  9  7  1  0  0  0  0
 11 16  1  0  0  0  0
 12  3  1  0  0  0  0
 12  6  1  0  0  0  0
 13 20  2  0  0  0  0
 14  7  1  0  0  0  0
 14 19  2  0  0  0  0
 16  6  2  0  0  0  0
 16 23  1  0  0  0  0
 17 26  1  0  0  0  0
 17 27  1  0  0  0  0
 18  1  1  0  0  0  0
 18 20  1  0  0  0  0
 21 25  2  0  0  0  0
 21 15  1  0  0  0  0
 22 27  1  0  0  0  0
 22 11  2  0  0  0  0
 23 24  1  1  0  0  0
 23 25  1  0  0  0  0
 24 18  2  0  0  0  0
 25 13  1  0  0  0  0
 26 34  1  6  0  0  0
 26  8  1  0  0  0  0
 27 12  2  0  0  0  0
 29 28  1  0  0  0  0
 30 32  1  0  0  0  0
 31 32  1  0  0  0  0
 32 33  1  0  0  0  0
 35 45  1  1  0  0  0
 35 39  1  0  0  0  0
 36 37  1  0  0  0  0
 37 39  1  0  0  0  0
 39 34  1  0  0  0  0
 39 41  1  1  0  0  0
 40 38  1  6  0  0  0
 40 35  1  0  0  0  0
 40 36  1  0  0  0  0
 42 40  1  0  0  0  0
 42 44  1  0  0  0  0
 43 42  2  0  0  0  0
 46 47  1  0  0  0  0
 46 45  1  0  0  0  0
 47 49  1  0  0  0  0
 48 50  1  0  0  0  0
 49 48  1  0  0  0  0
 49 50  1  0  0  0  0
M  END
>  <MODEL>
8

>  <REMARK>
 VINA RESULT:      -6.2      2.789      9.802
  Name = 
  10 active torsions:
  status: ('A' for Active; 'I' for Inactive)
    1  A    between atoms: C_4  and  C_19
    2  A    between atoms: O_7  and  C_8
    3  A    between atoms: O_7  and  N_41
    4  A    between atoms: C_9  and  C_14
    5  A    between atoms: C_12  and  C_38
    6  A    between atoms: C_12  and  C_47
    7  A    between atoms: C_13  and  C_27
    8  A    between atoms: C_13  and  C_50
    9  A    between atoms: C_14  and  C_50
   10  A    between atoms: C_15  and  C_43
                            x       y       z     vdW  Elec       q    Type
                         _______ _______ _______ _____ _____    ______ ____

>  <TORSDO>
F 10

$$$$
=
 OpenBabel10232411173D

 50 57  0  0  1  0  0  0  0  0999 V2000
  188.2650  177.8390  146.6180 N   0  0  0  0  0  1  0  0  0  0  0  0
  188.7370  175.4860  137.2070 C   0  0  1  0  0  3  0  0  0  0  0  0
  190.5400  176.4110  138.6140 N   0  0  0  0  0  0  0  0  0  0  0  0
  189.5830  176.1850  136.1320 C   0  0  1  0  0  3  0  0  0  0  0  0
  190.9430  175.8880  136.3240 O   0  0  0  0  0  0  0  0  0  0  0  0
  190.1300  177.0780  140.9900 C   0  0  0  0  0  0  0  0  0  0  0  0
  187.1900  177.5810  137.6980 C   0  0  2  0  0  3  0  0  0  0  0  0
  191.3850  176.6470  137.4300 C   0  0  2  0  0  3  0  0  0  0  0  0
  188.0590  178.0380  138.8590 C   0  0  0  0  0  2  0  0  0  0  0  0
  189.4890  175.3930  138.5380 C   0  0  0  0  0  2  0  0  0  0  0  0
  191.9890  177.4240  142.4660 N   0  0  0  0  0  0  0  0  0  0  0  0
  190.9900  176.8880  139.8930 C   0  0  0  0  0  0  0  0  0  0  0  0
  187.0040  177.4830  143.0290 C   0  0  0  0  0  3  0  0  0  0  0  0
  187.3820  176.1180  137.3830 C   0  0  0  0  0  0  0  0  0  0  0  0
  187.7030  177.3300  140.0770 N   0  0  0  0  0  2  0  0  0  0  0  0
  190.6600  177.2790  142.2470 C   0  0  0  0  0  0  0  0  0  0  0  0
  193.3410  177.0670  138.9640 C   0  0  0  0  0  2  0  0  0  0  0  0
  188.2780  177.6870  145.2040 C   0  0  0  0  0  0  0  0  0  0  0  0
  186.3920  175.4130  137.2670 O   0  0  0  0  0  0  0  0  0  0  0  0
  187.1080  177.6150  144.5380 C   0  0  0  0  0  3  0  0  0  0  0  0
  188.6530  177.1050  141.1220 C   0  0  0  0  0  0  0  0  0  0  0  0
  192.8500  177.3450  141.4100 C   0  0  0  0  0  3  0  0  0  0  0  0
  189.5710  177.3580  143.1920 C   0  0  0  0  0  0  0  0  0  0  0  0
  189.5770  177.5940  144.4990 C   0  0  0  0  0  3  0  0  0  0  0  0
  188.3480  177.2230  142.4180 C   0  0  1  0  0  3  0  0  0  0  0  0
  192.8310  176.2690  137.7630 C   0  0  2  0  0  3  0  0  0  0  0  0
  192.3750  177.0730  140.1120 C   0  0  0  0  0  0  0  0  0  0  0  0
  189.1480  175.7730  134.7320 C   0  0  0  0  0  2  0  0  0  0  0  0
  189.3260  174.4010  134.5450 O   0  0  0  0  0  1  0  0  0  0  0  0
  187.4700  178.3610  136.5700 O   0  0  0  0  0  0  0  0  0  0  0  0
  187.1060  178.4290  134.3490 C   0  0  0  0  0  1  0  0  0  0  0  0
  186.6020  177.9360  135.6180 N   0  0  0  0  0  0  0  0  0  0  0  0
  185.3400  178.6160  135.8570 C   0  0  0  0  0  1  0  0  0  0  0  0
  193.7410  176.5240  136.5700 C   0  0  0  0  0  2  0  0  0  0  0  0
  195.2920  174.6030  136.6780 C   0  0  2  0  0  3  0  0  0  0  0  0
  195.5110  174.4690  134.3610 O   0  0  0  0  0  0  0  0  0  0  0  0
  194.6890  175.4800  134.6290 O   0  0  0  0  0  0  0  0  0  0  0  0
  197.3470  175.0500  135.5790 O   0  0  0  0  0  1  0  0  0  0  0  0
  194.1610  175.2210  135.9020 C   0  0  2  0  0  0  0  0  0  0  0  0
  196.2280  174.2160  135.5430 C   0  0  1  0  0  0  0  0  0  0  0  0
  193.0750  174.3610  135.7840 F   0  0  0  0  0  0  0  0  0  0  0  0
  196.6760  172.7760  135.5590 C   0  0  0  0  0  0  0  0  0  0  0  0
  195.9530  171.8820  135.0430 O   0  0  0  0  0  0  0  0  0  0  0  0
  197.8930  172.4070  136.2010 N   0  0  0  0  0  1  0  0  0  0  0  0
  194.8270  173.4820  137.6190 C   0  0  0  0  0  2  0  0  0  0  0  0
  195.7610  173.3440  138.8100 C   0  0  0  0  0  2  0  0  0  0  0  0
  196.4800  174.6550  139.0720 C   0  0  0  0  0  2  0  0  0  0  0  0
  197.6580  175.3880  141.1130 C   0  0  0  0  0  2  0  0  0  0  0  0
  196.3050  175.0440  140.5250 C   0  0  0  0  0  3  0  0  0  0  0  0
  196.7090  176.4930  140.7030 C   0  0  0  0  0  2  0  0  0  0  0  0
  2 14  1  0  0  0  0
  2 10  1  1  0  0  0
  3 12  1  0  0  0  0
  4 28  1  6  0  0  0
  4  5  1  0  0  0  0
  4  2  1  0  0  0  0
  6 21  2  0  0  0  0
  6 16  1  0  0  0  0
  7 30  1  6  0  0  0
  7  9  1  0  0  0  0
  8  5  1  6  0  0  0
  8 26  1  0  0  0  0
  8  3  1  0  0  0  0
  9 15  1  0  0  0  0
 10  3  1  0  0  0  0
 12 27  2  0  0  0  0
 12  6  1  0  0  0  0
 13 20  2  0  0  0  0
 14  7  1  0  0  0  0
 15 21  1  0  0  0  0
 16 11  1  0  0  0  0
 16 23  2  0  0  0  0
 17 27  1  0  0  0  0
 18  1  1  0  0  0  0
 19 14  2  0  0  0  0
 20 18  1  0  0  0  0
 21 25  1  0  0  0  0
 22 11  2  0  0  0  0
 23 24  1  0  0  0  0
 24 18  2  0  0  0  0
 25 13  1  6  0  0  0
 25 23  1  0  0  0  0
 26 34  1  6  0  0  0
 26 17  1  0  0  0  0
 27 22  1  0  0  0  0
 29 28  1  0  0  0  0
 31 32  1  0  0  0  0
 32 33  1  0  0  0  0
 32 30  1  0  0  0  0
 35 45  1  6  0  0  0
 36 37  1  0  0  0  0
 36 40  1  0  0  0  0
 37 39  1  0  0  0  0
 39 41  1  6  0  0  0
 39 34  1  0  0  0  0
 39 35  1  0  0  0  0
 40 42  1  0  0  0  0
 40 38  1  1  0  0  0
 40 35  1  0  0  0  0
 42 44  1  0  0  0  0
 43 42  2  0  0  0  0
 45 46  1  0  0  0  0
 46 47  1  0  0  0  0
 47 49  1  0  0  0  0
 49 50  1  0  0  0  0
 49 48  1  0  0  0  0
 50 48  1  0  0  0  0
M  END
>  <MODEL>
9

>  <REMARK>
 VINA RESULT:      -6.1      3.787      8.858
  Name = 
  10 active torsions:
  status: ('A' for Active; 'I' for Inactive)
    1  A    between atoms: C_4  and  C_19
    2  A    between atoms: O_7  and  C_8
    3  A    between atoms: O_7  and  N_41
    4  A    between atoms: C_9  and  C_14
    5  A    between atoms: C_12  and  C_38
    6  A    between atoms: C_12  and  C_47
    7  A    between atoms: C_13  and  C_27
    8  A    between atoms: C_13  and  C_50
    9  A    between atoms: C_14  and  C_50
   10  A    between atoms: C_15  and  C_43
                            x       y       z     vdW  Elec       q    Type
                         _______ _______ _______ _____ _____    ______ ____

>  <TORSDO>
F 10

$$$$
