=
 OpenBabel10232407593D

 44 49  0  0  1  0  0  0  0  0999 V2000
  190.4310  175.4310  138.0590 C   0  0  2  0  0  3  0  0  0  0  0  0
  188.0500  178.1780  137.7210 C   0  0  0  0  0  3  0  0  0  0  0  0
  184.7770  177.0820  137.6470 C   0  0  0  0  0  3  0  0  0  0  0  0
  186.1930  178.8250  141.5190 C   0  0  0  0  0  0  0  0  0  0  0  0
  190.5250  174.0490  137.6750 N   0  0  0  0  0  0  0  0  0  0  0  0
  189.6170  173.6940  136.8440 C   0  0  0  0  0  3  0  0  0  0  0  0
  186.3070  175.5220  136.2130 C   0  0  0  0  0  3  0  0  0  0  0  0
  189.2680  175.9150  137.2740 C   0  0  0  0  0  0  0  0  0  0  0  0
  191.6950  176.1630  137.6380 C   0  0  0  0  0  1  0  0  0  0  0  0
  187.3970  178.4040  139.0170 C   0  0  0  0  0  0  0  0  0  0  0  0
  185.4150  178.8950  140.3550 C   0  0  0  0  0  0  0  0  0  0  0  0
  187.2050  174.4940  136.8290 C   0  0  2  0  0  3  0  0  0  0  0  0
  185.5430  176.2910  136.9430 C   0  0  0  0  0  0  0  0  0  0  0  0
  188.6860  177.0630  137.4890 C   0  0  0  0  0  0  0  0  0  0  0  0
  188.6810  174.8000  136.4610 C   0  0  2  0  0  3  0  0  0  0  0  0
  188.1580  178.3360  140.1880 C   0  0  0  0  0  3  0  0  0  0  0  0
  185.1540  178.5120  137.8680 C   0  0  0  0  0  2  0  0  0  0  0  0
  186.0110  178.6560  139.0940 C   0  0  0  0  0  0  0  0  0  0  0  0
  187.5610  178.5420  141.4290 C   0  0  0  0  0  3  0  0  0  0  0  0
  183.5160  172.0530  134.5510 C   0  0  0  0  0  3  0  0  0  0  0  0
  185.9600  173.1600  135.0180 C   0  0  0  0  0  2  0  0  0  0  0  0
  184.7350  172.3920  135.3200 C   0  0  0  0  0  0  0  0  0  0  0  0
  184.6340  172.0300  136.5430 C   0  0  0  0  0  0  0  0  0  0  0  0
  185.7700  172.4130  137.3990 C   0  0  0  0  0  2  0  0  0  0  0  0
  183.4490  171.3940  136.8250 O   0  0  0  0  0  0  0  0  0  0  0  0
  186.6970  173.1120  136.3740 C   0  0  2  0  0  3  0  0  0  0  0  0
  182.6710  171.3310  135.6280 C   0  0  0  0  0  3  0  0  0  0  0  0
  184.0520  179.1820  140.4940 O   0  0  0  0  0  0  0  0  0  0  0  0
  181.8280  178.5070  139.3680 O   0  0  0  0  0  1  0  0  0  0  0  0
  181.9140  178.7920  141.9540 N   0  0  0  0  0  1  0  0  0  0  0  0
  182.8210  177.9300  140.6690 P   0  0  2  0  0  0  0  0  0  0  0  0
  185.5800  179.0570  142.7550 O   0  0  0  0  0  0  0  0  0  0  0  0
  185.3320  178.0260  143.7020 C   0  0  0  0  0  2  0  0  0  0  0  0
  185.8910  178.4420  145.0510 C   0  0  0  0  0  2  0  0  0  0  0  0
  186.7630  177.3370  145.6260 C   0  0  0  0  0  2  0  0  0  0  0  0
  187.8870  177.9180  146.4760 C   0  0  0  0  0  2  0  0  0  0  0  0
  190.9800  177.4930  144.3130 C   0  0  1  0  0  3  0  0  0  0  0  0
  190.3190  177.1490  146.5520 C   0  0  0  0  0  0  0  0  0  0  0  0
  190.3280  176.8820  147.7820 O   0  0  0  0  0  0  0  0  0  0  0  0
  189.5000  177.8830  144.4850 C   0  0  0  0  0  2  0  0  0  0  0  0
  191.4910  176.9990  145.6710 C   0  0  0  0  0  2  0  0  0  0  0  0
  189.1830  177.6340  145.8720 N   0  0  0  0  0  0  0  0  0  0  0  0
  191.1180  176.3810  143.2860 C   0  0  0  0  0  2  0  0  0  0  0  0
  189.7530  175.8600  142.8820 C   0  0  0  0  0  1  0  0  0  0  0  0
  1  9  1  6  0  0  0
  2 10  1  0  0  0  0
  3 17  1  0  0  0  0
  4 32  1  0  0  0  0
  5  1  1  0  0  0  0
  6  5  2  0  0  0  0
  7 13  2  0  0  0  0
  8 14  2  0  0  0  0
  8  1  1  0  0  0  0
 10 18  2  0  0  0  0
 10 16  1  0  0  0  0
 11 28  1  0  0  0  0
 11  4  2  0  0  0  0
 12  7  1  6  0  0  0
 13  3  2  0  0  0  0
 14  2  2  0  0  0  0
 15 12  1  0  0  0  0
 15  6  1  1  0  0  0
 15  8  1  0  0  0  0
 16 19  2  0  0  0  0
 17 18  1  0  0  0  0
 18 11  1  0  0  0  0
 19  4  1  0  0  0  0
 20 22  1  0  0  0  0
 20 27  2  0  0  0  0
 21 22  1  0  0  0  0
 22 23  2  0  0  0  0
 23 25  1  0  0  0  0
 23 24  1  0  0  0  0
 26 21  1  6  0  0  0
 26 12  1  0  0  0  0
 26 24  1  0  0  0  0
 27 25  1  0  0  0  0
 28 31  1  0  0  0  0
 31 29  1  6  0  0  0
 31 30  1  0  0  0  0
 32 33  1  0  0  0  0
 33 34  1  0  0  0  0
 34 35  1  0  0  0  0
 35 36  1  0  0  0  0
 37 43  1  6  0  0  0
 37 40  1  0  0  0  0
 37 41  1  0  0  0  0
 38 39  2  0  0  0  0
 40 42  1  0  0  0  0
 41 38  1  0  0  0  0
 42 36  1  0  0  0  0
 42 38  1  0  0  0  0
 44 43  1  0  0  0  0
M  END
>  <MODEL>
1

>  <REMARK>
 VINA RESULT:      -8.7      0.000      0.000
  Name = 
  10 active torsions:
  status: ('A' for Active; 'I' for Inactive)
    1  A    between atoms: O_4  and  C_16
    2  A    between atoms: O_4  and  P_33
    3  A    between atoms: C_5  and  O_25
    4  A    between atoms: C_7  and  C_26
    5  A    between atoms: C_7  and  C_36
    6  A    between atoms: C_13  and  O_25
    7  A    between atoms: C_13  and  C_26
    8  A    between atoms: C_18  and  C_31
    9  A    between atoms: C_20  and  C_29
   10  A    between atoms: C_36  and  N_44
                            x       y       z     vdW  Elec       q    Type
                         _______ _______ _______ _____ _____    ______ ____

>  <TORSDO>
F 10

$$$$
=
 OpenBabel10232407593D

 44 49  0  0  1  0  0  0  0  0999 V2000
  188.2510  177.5330  137.6750 C   0  0  2  0  0  3  0  0  0  0  0  0
  185.0100  178.9700  138.5490 C   0  0  0  0  0  3  0  0  0  0  0  0
  182.6230  176.5560  139.1700 C   0  0  0  0  0  3  0  0  0  0  0  0
  184.4300  178.5220  142.7630 C   0  0  0  0  0  0  0  0  0  0  0  0
  188.7520  176.3570  137.0200 N   0  0  0  0  0  0  0  0  0  0  0  0
  187.8400  175.6870  136.4190 C   0  0  0  0  0  3  0  0  0  0  0  0
  184.0730  175.9090  137.0940 C   0  0  0  0  0  3  0  0  0  0  0  0
  186.8020  177.5010  137.3510 C   0  0  0  0  0  0  0  0  0  0  0  0
  188.9000  178.7680  137.0720 C   0  0  0  0  0  1  0  0  0  0  0  0
  184.7940  178.8130  139.9930 C   0  0  0  0  0  0  0  0  0  0  0  0
  183.3490  178.3080  141.8950 C   0  0  0  0  0  0  0  0  0  0  0  0
  185.4540  175.3460  137.2260 C   0  0  2  0  0  3  0  0  0  0  0  0
  183.3570  176.2220  138.1420 C   0  0  0  0  0  0  0  0  0  0  0  0
  185.9200  178.2630  137.9390 C   0  0  0  0  0  0  0  0  0  0  0  0
  186.4720  176.2890  136.5320 C   0  0  2  0  0  3  0  0  0  0  0  0
  185.8610  179.0210  140.8720 C   0  0  0  0  0  3  0  0  0  0  0  0
  182.4500  177.9910  139.5520 C   0  0  0  0  0  2  0  0  0  0  0  0
  183.5340  178.4270  140.4980 C   0  0  0  0  0  0  0  0  0  0  0  0
  185.6820  178.8730  142.2450 C   0  0  0  0  0  3  0  0  0  0  0  0
  182.6490  171.9260  134.9490 C   0  0  0  0  0  3  0  0  0  0  0  0
  184.5900  173.7900  135.3730 C   0  0  0  0  0  2  0  0  0  0  0  0
  183.7390  172.6190  135.6720 C   0  0  0  0  0  0  0  0  0  0  0  0
  183.8830  172.1600  136.8580 C   0  0  0  0  0  0  0  0  0  0  0  0
  184.8890  172.8580  137.6760 C   0  0  0  0  0  2  0  0  0  0  0  0
  183.0230  171.1280  137.1470 O   0  0  0  0  0  0  0  0  0  0  0  0
  185.4180  173.9100  136.6700 C   0  0  2  0  0  3  0  0  0  0  0  0
  182.2090  170.8770  136.0000 C   0  0  0  0  0  3  0  0  0  0  0  0
  182.1160  177.9600  142.4580 O   0  0  0  0  0  0  0  0  0  0  0  0
  179.9820  177.9780  143.9130 O   0  0  0  0  0  1  0  0  0  0  0  0
  180.0000  179.2810  141.6590 N   0  0  0  0  0  1  0  0  0  0  0  0
  181.0040  179.1490  143.1410 P   0  0  2  0  0  0  0  0  0  0  0  0
  184.2250  178.3900  144.1400 O   0  0  0  0  0  0  0  0  0  0  0  0
  184.8050  179.2670  145.0970 C   0  0  0  0  0  2  0  0  0  0  0  0
  185.4140  178.4490  146.2210 C   0  0  0  0  0  2  0  0  0  0  0  0
  186.5670  177.6070  145.6970 C   0  0  0  0  0  2  0  0  0  0  0  0
  187.7750  177.7040  146.6230 C   0  0  0  0  0  2  0  0  0  0  0  0
  190.6750  177.9580  144.1820 C   0  0  1  0  0  3  0  0  0  0  0  0
  190.1940  176.9710  146.2700 C   0  0  0  0  0  0  0  0  0  0  0  0
  190.2990  176.3570  147.3640 O   0  0  0  0  0  0  0  0  0  0  0  0
  189.2190  178.2670  144.5820 C   0  0  0  0  0  2  0  0  0  0  0  0
  191.2870  177.0950  145.2910 C   0  0  0  0  0  2  0  0  0  0  0  0
  189.0130  177.6220  145.8580 N   0  0  0  0  0  0  0  0  0  0  0  0
  190.7120  177.1960  142.8690 C   0  0  0  0  0  2  0  0  0  0  0  0
  190.4200  175.7260  143.1000 C   0  0  0  0  0  1  0  0  0  0  0  0
  1  9  1  6  0  0  0
  2 10  1  0  0  0  0
  3 17  1  0  0  0  0
  4 32  1  0  0  0  0
  5  1  1  0  0  0  0
  6  5  2  0  0  0  0
  7 13  2  0  0  0  0
  8  1  1  0  0  0  0
  8 14  2  0  0  0  0
 10 18  2  0  0  0  0
 10 16  1  0  0  0  0
 11 28  1  0  0  0  0
 11  4  2  0  0  0  0
 12  7  1  6  0  0  0
 13  3  2  0  0  0  0
 14  2  2  0  0  0  0
 15  6  1  1  0  0  0
 15 12  1  0  0  0  0
 15  8  1  0  0  0  0
 16 19  2  0  0  0  0
 17 18  1  0  0  0  0
 18 11  1  0  0  0  0
 19  4  1  0  0  0  0
 20 22  1  0  0  0  0
 20 27  2  0  0  0  0
 21 22  1  0  0  0  0
 22 23  2  0  0  0  0
 23 25  1  0  0  0  0
 23 24  1  0  0  0  0
 26 21  1  6  0  0  0
 26 12  1  0  0  0  0
 26 24  1  0  0  0  0
 27 25  1  0  0  0  0
 28 31  1  0  0  0  0
 31 30  1  6  0  0  0
 31 29  1  0  0  0  0
 32 33  1  0  0  0  0
 33 34  1  0  0  0  0
 35 34  1  0  0  0  0
 35 36  1  0  0  0  0
 37 43  1  6  0  0  0
 37 40  1  0  0  0  0
 37 41  1  0  0  0  0
 38 39  2  0  0  0  0
 40 42  1  0  0  0  0
 41 38  1  0  0  0  0
 42 38  1  0  0  0  0
 42 36  1  0  0  0  0
 43 44  1  0  0  0  0
M  END
>  <MODEL>
2

>  <REMARK>
 VINA RESULT:      -8.7      1.667      2.228
  Name = 
  10 active torsions:
  status: ('A' for Active; 'I' for Inactive)
    1  A    between atoms: O_4  and  C_16
    2  A    between atoms: O_4  and  P_33
    3  A    between atoms: C_5  and  O_25
    4  A    between atoms: C_7  and  C_26
    5  A    between atoms: C_7  and  C_36
    6  A    between atoms: C_13  and  O_25
    7  A    between atoms: C_13  and  C_26
    8  A    between atoms: C_18  and  C_31
    9  A    between atoms: C_20  and  C_29
   10  A    between atoms: C_36  and  N_44
                            x       y       z     vdW  Elec       q    Type
                         _______ _______ _______ _____ _____    ______ ____

>  <TORSDO>
F 10

$$$$
=
 OpenBabel10232407593D

 44 49  0  0  1  0  0  0  0  0999 V2000
  184.9080  178.2200  140.4890 C   0  0  2  0  0  3  0  0  0  0  0  0
  188.3520  178.5570  139.3230 C   0  0  0  0  0  3  0  0  0  0  0  0
  190.5600  176.6540  141.1700 C   0  0  0  0  0  3  0  0  0  0  0  0
  189.3980  175.0100  137.1720 C   0  0  0  0  0  0  0  0  0  0  0  0
  184.2230  177.9790  141.7280 N   0  0  0  0  0  0  0  0  0  0  0  0
  184.9870  178.0630  142.7530 C   0  0  0  0  0  3  0  0  0  0  0  0
  188.8140  177.8160  142.7290 C   0  0  0  0  0  3  0  0  0  0  0  0
  186.2970  178.5070  140.9290 C   0  0  0  0  0  0  0  0  0  0  0  0
  184.3090  179.4370  139.8040 C   0  0  0  0  0  1  0  0  0  0  0  0
  188.7270  177.3400  138.5900 C   0  0  0  0  0  0  0  0  0  0  0  0
  190.3400  175.5950  138.0310 C   0  0  0  0  0  0  0  0  0  0  0  0
  187.4120  177.3100  142.8780 C   0  0  2  0  0  3  0  0  0  0  0  0
  189.6780  177.2210  141.9500 C   0  0  0  0  0  0  0  0  0  0  0  0
  187.3120  178.5570  140.1090 C   0  0  0  0  0  0  0  0  0  0  0  0
  186.4100  178.4020  142.4200 C   0  0  2  0  0  3  0  0  0  0  0  0
  187.7990  176.7440  137.7310 C   0  0  0  0  0  3  0  0  0  0  0  0
  190.9120  177.2590  139.8480 C   0  0  0  0  0  2  0  0  0  0  0  0
  189.9970  176.7520  138.7690 C   0  0  0  0  0  0  0  0  0  0  0  0
  188.1300  175.5870  137.0300 C   0  0  0  0  0  3  0  0  0  0  0  0
  186.9000  178.8100  147.5940 C   0  0  0  0  0  3  0  0  0  0  0  0
  186.3030  177.7610  145.1520 C   0  0  0  0  0  2  0  0  0  0  0  0
  187.0990  177.9940  146.3750 C   0  0  0  0  0  0  0  0  0  0  0  0
  188.2690  177.4770  146.3420 C   0  0  0  0  0  0  0  0  0  0  0  0
  188.5800  176.7230  145.1160 C   0  0  0  0  0  2  0  0  0  0  0  0
  189.0260  177.7770  147.4490 O   0  0  0  0  0  0  0  0  0  0  0  0
  187.2460  176.8490  144.3380 C   0  0  2  0  0  3  0  0  0  0  0  0
  188.2490  178.5980  148.3230 C   0  0  0  0  0  3  0  0  0  0  0  0
  191.5950  174.9840  138.1400 O   0  0  0  0  0  0  0  0  0  0  0  0
  193.4180  173.6920  136.8460 O   0  0  0  0  0  1  0  0  0  0  0  0
  194.1060  175.6910  138.3650 N   0  0  0  0  0  1  0  0  0  0  0  0
  192.9350  175.3460  137.0500 P   0  0  2  0  0  0  0  0  0  0  0  0
  189.7560  173.8610  136.4600 O   0  0  0  0  0  0  0  0  0  0  0  0
  189.1020  173.4550  135.2640 C   0  0  0  0  0  2  0  0  0  0  0  0
  188.3400  172.1690  135.5240 C   0  0  0  0  0  2  0  0  0  0  0  0
  187.1150  172.0900  134.6250 C   0  0  0  0  0  2  0  0  0  0  0  0
  185.8650  171.7690  135.4360 C   0  0  0  0  0  2  0  0  0  0  0  0
  183.9750  175.0210  135.9630 C   0  0  1  0  0  3  0  0  0  0  0  0
  185.1460  173.4210  137.2430 C   0  0  0  0  0  0  0  0  0  0  0  0
  185.6450  172.7810  138.2050 O   0  0  0  0  0  0  0  0  0  0  0  0
  184.5260  173.9180  135.0410 C   0  0  0  0  0  2  0  0  0  0  0  0
  184.4070  174.6860  137.3960 C   0  0  0  0  0  2  0  0  0  0  0  0
  185.2290  172.9950  135.9010 N   0  0  0  0  0  0  0  0  0  0  0  0
  184.5420  176.3740  135.5670 C   0  0  0  0  0  2  0  0  0  0  0  0
  184.3920  177.3660  136.7040 C   0  0  0  0  0  1  0  0  0  0  0  0
  1  9  1  1  0  0  0
  1  8  1  0  0  0  0
  1  5  1  0  0  0  0
  2 14  2  0  0  0  0
  3 13  2  0  0  0  0
  4 11  1  0  0  0  0
  5  6  2  0  0  0  0
  8 15  1  0  0  0  0
 10 18  1  0  0  0  0
 10  2  1  0  0  0  0
 11 28  1  0  0  0  0
 11 18  2  0  0  0  0
 12  7  1  1  0  0  0
 12 26  1  0  0  0  0
 13  7  2  0  0  0  0
 14  8  2  0  0  0  0
 15  6  1  1  0  0  0
 15 12  1  0  0  0  0
 16 10  2  0  0  0  0
 17  3  1  0  0  0  0
 18 17  1  0  0  0  0
 19  4  2  0  0  0  0
 19 16  1  0  0  0  0
 20 27  2  0  0  0  0
 21 22  1  0  0  0  0
 22 20  1  0  0  0  0
 23 22  2  0  0  0  0
 23 25  1  0  0  0  0
 24 23  1  0  0  0  0
 25 27  1  0  0  0  0
 26 24  1  1  0  0  0
 26 21  1  0  0  0  0
 31 29  1  1  0  0  0
 31 28  1  0  0  0  0
 31 30  1  0  0  0  0
 32  4  1  0  0  0  0
 33 34  1  0  0  0  0
 33 32  1  0  0  0  0
 35 36  1  0  0  0  0
 35 34  1  0  0  0  0
 36 42  1  0  0  0  0
 37 43  1  6  0  0  0
 37 41  1  0  0  0  0
 38 41  1  0  0  0  0
 38 39  2  0  0  0  0
 40 42  1  0  0  0  0
 40 37  1  0  0  0  0
 42 38  1  0  0  0  0
 43 44  1  0  0  0  0
M  END
>  <MODEL>
3

>  <REMARK>
 VINA RESULT:      -8.2      3.332      9.643
  Name = 
  10 active torsions:
  status: ('A' for Active; 'I' for Inactive)
    1  A    between atoms: O_4  and  C_16
    2  A    between atoms: O_4  and  P_33
    3  A    between atoms: C_5  and  O_25
    4  A    between atoms: C_7  and  C_26
    5  A    between atoms: C_7  and  C_36
    6  A    between atoms: C_13  and  O_25
    7  A    between atoms: C_13  and  C_26
    8  A    between atoms: C_18  and  C_31
    9  A    between atoms: C_20  and  C_29
   10  A    between atoms: C_36  and  N_44
                            x       y       z     vdW  Elec       q    Type
                         _______ _______ _______ _____ _____    ______ ____

>  <TORSDO>
F 10

$$$$
=
 OpenBabel10232407593D

 44 49  0  0  1  0  0  0  0  0999 V2000
  183.7210  178.3040  140.6830 C   0  0  2  0  0  3  0  0  0  0  0  0
  185.9710  178.4480  137.8100 C   0  0  0  0  0  3  0  0  0  0  0  0
  189.0300  176.9880  138.4590 C   0  0  0  0  0  3  0  0  0  0  0  0
  186.1500  174.5560  136.0440 C   0  0  0  0  0  0  0  0  0  0  0  0
  183.8230  178.3080  142.1160 N   0  0  0  0  0  0  0  0  0  0  0  0
  184.9950  178.6080  142.5380 C   0  0  0  0  0  3  0  0  0  0  0  0
  188.2360  178.4150  140.4990 C   0  0  0  0  0  3  0  0  0  0  0  0
  185.0880  178.6940  140.2530 C   0  0  0  0  0  0  0  0  0  0  0  0
  182.7110  179.3500  140.2410 C   0  0  0  0  0  1  0  0  0  0  0  0
  186.0490  177.1140  137.2000 C   0  0  0  0  0  0  0  0  0  0  0  0
  187.3240  175.3150  136.1530 C   0  0  0  0  0  0  0  0  0  0  0  0
  187.1940  177.9300  141.4590 C   0  0  2  0  0  3  0  0  0  0  0  0
  188.6280  177.6880  139.4860 C   0  0  0  0  0  0  0  0  0  0  0  0
  185.5070  178.5920  139.0210 C   0  0  0  0  0  0  0  0  0  0  0  0
  185.9780  178.8930  141.4420 C   0  0  2  0  0  3  0  0  0  0  0  0
  184.8880  176.3440  137.0860 C   0  0  0  0  0  3  0  0  0  0  0  0
  188.5600  177.3190  137.0780 C   0  0  0  0  0  2  0  0  0  0  0  0
  187.2840  176.5920  136.7590 C   0  0  0  0  0  0  0  0  0  0  0  0
  184.9370  175.0750  136.5160 C   0  0  0  0  0  3  0  0  0  0  0  0
  191.5530  177.7810  143.8540 C   0  0  0  0  0  3  0  0  0  0  0  0
  189.1250  178.6630  142.9880 C   0  0  0  0  0  2  0  0  0  0  0  0
  190.1150  177.6980  143.5110 C   0  0  0  0  0  0  0  0  0  0  0  0
  189.6840  176.4960  143.5810 C   0  0  0  0  0  0  0  0  0  0  0  0
  188.2820  176.3140  143.1670 C   0  0  0  0  0  2  0  0  0  0  0  0
  190.6430  175.5990  143.9860 O   0  0  0  0  0  0  0  0  0  0  0  0
  187.8760  177.7700  142.8310 C   0  0  2  0  0  3  0  0  0  0  0  0
  191.8630  176.3070  144.2110 C   0  0  0  0  0  3  0  0  0  0  0  0
  188.5120  174.7570  135.6670 O   0  0  0  0  0  0  0  0  0  0  0  0
  190.9230  174.6040  136.5790 O   0  0  0  0  0  1  0  0  0  0  0  0
  189.9600  172.6290  135.1830 N   0  0  0  0  0  1  0  0  0  0  0  0
  189.4920  173.6240  136.6010 P   0  0  2  0  0  0  0  0  0  0  0  0
  186.2160  173.2930  135.4490 O   0  0  0  0  0  0  0  0  0  0  0  0
  185.0640  172.5660  135.0420 C   0  0  0  0  0  2  0  0  0  0  0  0
  184.8260  171.4220  136.0100 C   0  0  0  0  0  2  0  0  0  0  0  0
  183.5500  171.6570  136.8040 C   0  0  0  0  0  2  0  0  0  0  0  0
  182.4630  172.2580  135.9210 C   0  0  0  0  0  2  0  0  0  0  0  0
  180.6690  175.2260  137.4720 C   0  0  1  0  0  3  0  0  0  0  0  0
  180.6460  172.8700  137.6050 C   0  0  0  0  0  0  0  0  0  0  0  0
  180.3440  171.6840  137.9000 O   0  0  0  0  0  0  0  0  0  0  0  0
  181.7340  174.6390  136.5260 C   0  0  0  0  0  2  0  0  0  0  0  0
  179.9820  174.0520  138.1810 C   0  0  0  0  0  2  0  0  0  0  0  0
  181.6540  173.2050  136.6790 N   0  0  0  0  0  0  0  0  0  0  0  0
  181.3190  176.1300  138.5050 C   0  0  0  0  0  2  0  0  0  0  0  0
  180.3760  176.3710  139.6670 C   0  0  0  0  0  1  0  0  0  0  0  0
  1  9  1  1  0  0  0
  1  5  1  0  0  0  0
  2 14  2  0  0  0  0
  3 13  2  0  0  0  0
  4 11  2  0  0  0  0
  4 19  1  0  0  0  0
  5  6  2  0  0  0  0
  8  1  1  0  0  0  0
  8 15  1  0  0  0  0
 10  2  1  0  0  0  0
 11 18  1  0  0  0  0
 12  7  1  6  0  0  0
 12 26  1  0  0  0  0
 13  7  2  0  0  0  0
 14  8  2  0  0  0  0
 15 12  1  0  0  0  0
 15  6  1  1  0  0  0
 16 10  1  0  0  0  0
 17  3  1  0  0  0  0
 18 17  1  0  0  0  0
 18 10  2  0  0  0  0
 19 16  2  0  0  0  0
 20 27  2  0  0  0  0
 21 22  1  0  0  0  0
 22 23  2  0  0  0  0
 22 20  1  0  0  0  0
 23 25  1  0  0  0  0
 24 23  1  0  0  0  0
 25 27  1  0  0  0  0
 26 21  1  6  0  0  0
 26 24  1  0  0  0  0
 28 11  1  0  0  0  0
 28 31  1  0  0  0  0
 29 31  1  0  0  0  0
 31 30  1  6  0  0  0
 32  4  1  0  0  0  0
 33 32  1  0  0  0  0
 33 34  1  0  0  0  0
 34 35  1  0  0  0  0
 36 42  1  0  0  0  0
 36 35  1  0  0  0  0
 37 41  1  0  0  0  0
 37 43  1  1  0  0  0
 38 39  2  0  0  0  0
 38 41  1  0  0  0  0
 40 42  1  0  0  0  0
 40 37  1  0  0  0  0
 42 38  1  0  0  0  0
 43 44  1  0  0  0  0
M  END
>  <MODEL>
4

>  <REMARK>
 VINA RESULT:      -7.1      3.157      9.452
  Name = 
  10 active torsions:
  status: ('A' for Active; 'I' for Inactive)
    1  A    between atoms: O_4  and  C_16
    2  A    between atoms: O_4  and  P_33
    3  A    between atoms: C_5  and  O_25
    4  A    between atoms: C_7  and  C_26
    5  A    between atoms: C_7  and  C_36
    6  A    between atoms: C_13  and  O_25
    7  A    between atoms: C_13  and  C_26
    8  A    between atoms: C_18  and  C_31
    9  A    between atoms: C_20  and  C_29
   10  A    between atoms: C_36  and  N_44
                            x       y       z     vdW  Elec       q    Type
                         _______ _______ _______ _____ _____    ______ ____

>  <TORSDO>
F 10

$$$$
=
 OpenBabel10232407593D

 44 49  0  0  1  0  0  0  0  0999 V2000
  184.8450  178.3290  140.2590 C   0  0  2  0  0  3  0  0  0  0  0  0
  188.3710  178.6330  139.3620 C   0  0  0  0  0  3  0  0  0  0  0  0
  190.4140  176.7270  141.3880 C   0  0  0  0  0  3  0  0  0  0  0  0
  189.5540  175.0650  137.3220 C   0  0  0  0  0  0  0  0  0  0  0  0
  184.0630  178.1020  141.4430 N   0  0  0  0  0  0  0  0  0  0  0  0
  184.7460  178.1870  142.5230 C   0  0  0  0  0  3  0  0  0  0  0  0
  188.5610  177.9110  142.7980 C   0  0  0  0  0  3  0  0  0  0  0  0
  186.1970  178.6090  140.8040 C   0  0  0  0  0  0  0  0  0  0  0  0
  184.3100  179.5460  139.5220 C   0  0  0  0  0  1  0  0  0  0  0  0
  188.7930  177.4080  138.6690 C   0  0  0  0  0  0  0  0  0  0  0  0
  190.4300  175.6480  138.2480 C   0  0  0  0  0  0  0  0  0  0  0  0
  187.1480  177.4170  142.8410 C   0  0  2  0  0  3  0  0  0  0  0  0
  189.4790  177.3050  142.0930 C   0  0  0  0  0  0  0  0  0  0  0  0
  187.2730  178.6460  140.0660 C   0  0  0  0  0  0  0  0  0  0  0  0
  186.1930  178.5130  142.3000 C   0  0  2  0  0  3  0  0  0  0  0  0
  187.9300  176.8140  137.7440 C   0  0  0  0  0  3  0  0  0  0  0  0
  190.8720  177.3190  140.0940 C   0  0  0  0  0  2  0  0  0  0  0  0
  190.0410  176.8130  138.9490 C   0  0  0  0  0  0  0  0  0  0  0  0
  188.3050  175.6500  137.0780 C   0  0  0  0  0  3  0  0  0  0  0  0
  186.8100  178.8950  147.5790 C   0  0  0  0  0  3  0  0  0  0  0  0
  186.0880  178.0220  145.1030 C   0  0  0  0  0  2  0  0  0  0  0  0
  186.8830  178.0800  146.3460 C   0  0  0  0  0  0  0  0  0  0  0  0
  187.9390  177.3570  146.3240 C   0  0  0  0  0  0  0  0  0  0  0  0
  188.1340  176.5810  145.0870 C   0  0  0  0  0  2  0  0  0  0  0  0
  188.7120  177.4900  147.4520 O   0  0  0  0  0  0  0  0  0  0  0  0
  186.8650  176.9670  144.2870 C   0  0  2  0  0  3  0  0  0  0  0  0
  188.0790  178.4240  148.3300 C   0  0  0  0  0  3  0  0  0  0  0  0
  191.6680  175.0280  138.4580 O   0  0  0  0  0  0  0  0  0  0  0  0
  193.9950  173.9900  138.0390 O   0  0  0  0  0  1  0  0  0  0  0  0
  193.8090  176.5330  138.5640 N   0  0  0  0  0  1  0  0  0  0  0  0
  193.0790  175.3370  137.4430 P   0  0  2  0  0  0  0  0  0  0  0  0
  189.9570  173.9080  136.6460 O   0  0  0  0  0  0  0  0  0  0  0  0
  190.3750  173.9100  135.2880 C   0  0  0  0  0  2  0  0  0  0  0  0
  190.0510  172.5650  134.6640 C   0  0  0  0  0  2  0  0  0  0  0  0
  191.3230  171.7590  134.4510 C   0  0  0  0  0  2  0  0  0  0  0  0
  192.5550  172.6510  134.5560 C   0  0  0  0  0  2  0  0  0  0  0  0
  195.1120  170.0690  135.6620 C   0  0  1  0  0  3  0  0  0  0  0  0
  195.0220  172.3700  135.1460 C   0  0  0  0  0  0  0  0  0  0  0  0
  195.3420  173.5660  134.9210 O   0  0  0  0  0  0  0  0  0  0  0  0
  193.6710  170.4640  135.2910 C   0  0  0  0  0  2  0  0  0  0  0  0
  195.9750  171.3330  135.5780 C   0  0  0  0  0  2  0  0  0  0  0  0
  193.7080  171.8780  135.0010 N   0  0  0  0  0  0  0  0  0  0  0  0
  195.1620  169.5160  137.0760 C   0  0  0  0  0  2  0  0  0  0  0  0
  193.8720  168.7920  137.4080 C   0  0  0  0  0  1  0  0  0  0  0  0
  1  9  1  1  0  0  0
  1  8  1  0  0  0  0
  1  5  1  0  0  0  0
  2 14  2  0  0  0  0
  3 13  2  0  0  0  0
  4 11  1  0  0  0  0
  5  6  2  0  0  0  0
  8 15  1  0  0  0  0
 10 18  1  0  0  0  0
 10  2  1  0  0  0  0
 11 28  1  0  0  0  0
 11 18  2  0  0  0  0
 12  7  1  1  0  0  0
 12 26  1  0  0  0  0
 13  7  2  0  0  0  0
 14  8  2  0  0  0  0
 15  6  1  6  0  0  0
 15 12  1  0  0  0  0
 16 10  2  0  0  0  0
 17  3  1  0  0  0  0
 18 17  1  0  0  0  0
 19  4  2  0  0  0  0
 19 16  1  0  0  0  0
 20 27  2  0  0  0  0
 21 22  1  0  0  0  0
 22 20  1  0  0  0  0
 23 22  2  0  0  0  0
 23 25  1  0  0  0  0
 24 23  1  0  0  0  0
 25 27  1  0  0  0  0
 26 24  1  1  0  0  0
 26 21  1  0  0  0  0
 31 29  1  1  0  0  0
 31 28  1  0  0  0  0
 31 30  1  0  0  0  0
 32  4  1  0  0  0  0
 33 32  1  0  0  0  0
 34 33  1  0  0  0  0
 35 36  1  0  0  0  0
 35 34  1  0  0  0  0
 36 42  1  0  0  0  0
 37 43  1  1  0  0  0
 38 41  1  0  0  0  0
 39 38  2  0  0  0  0
 40 37  1  0  0  0  0
 41 37  1  0  0  0  0
 42 38  1  0  0  0  0
 42 40  1  0  0  0  0
 43 44  1  0  0  0  0
M  END
>  <MODEL>
5

>  <REMARK>
 VINA RESULT:      -7.1      4.486     10.015
  Name = 
  10 active torsions:
  status: ('A' for Active; 'I' for Inactive)
    1  A    between atoms: O_4  and  C_16
    2  A    between atoms: O_4  and  P_33
    3  A    between atoms: C_5  and  O_25
    4  A    between atoms: C_7  and  C_26
    5  A    between atoms: C_7  and  C_36
    6  A    between atoms: C_13  and  O_25
    7  A    between atoms: C_13  and  C_26
    8  A    between atoms: C_18  and  C_31
    9  A    between atoms: C_20  and  C_29
   10  A    between atoms: C_36  and  N_44
                            x       y       z     vdW  Elec       q    Type
                         _______ _______ _______ _____ _____    ______ ____

>  <TORSDO>
F 10

$$$$
=
 OpenBabel10232407593D

 44 49  0  0  1  0  0  0  0  0999 V2000
  183.1930  178.4280  142.8570 C   0  0  2  0  0  3  0  0  0  0  0  0
  184.4910  179.2280  139.5390 C   0  0  0  0  0  3  0  0  0  0  0  0
  187.5720  177.7890  138.9480 C   0  0  0  0  0  3  0  0  0  0  0  0
  184.0510  175.7750  137.0530 C   0  0  0  0  0  0  0  0  0  0  0  0
  183.7160  178.1510  144.1660 N   0  0  0  0  0  0  0  0  0  0  0  0
  184.9660  178.4060  144.2750 C   0  0  0  0  0  3  0  0  0  0  0  0
  187.4510  178.7490  141.3750 C   0  0  0  0  0  3  0  0  0  0  0  0
  184.3790  178.9480  142.1300 C   0  0  0  0  0  0  0  0  0  0  0  0
  182.1200  179.5010  142.9530 C   0  0  0  0  0  1  0  0  0  0  0  0
  184.3550  178.0460  138.6770 C   0  0  0  0  0  0  0  0  0  0  0  0
  185.2210  176.5420  136.9610 C   0  0  0  0  0  0  0  0  0  0  0  0
  186.7310  178.0430  142.4810 C   0  0  2  0  0  3  0  0  0  0  0  0
  187.5080  178.2540  140.1670 C   0  0  0  0  0  0  0  0  0  0  0  0
  184.4110  179.1110  140.8350 C   0  0  0  0  0  0  0  0  0  0  0  0
  185.5860  178.9420  143.0190 C   0  0  2  0  0  3  0  0  0  0  0  0
  183.1950  177.2700  138.7580 C   0  0  0  0  0  3  0  0  0  0  0  0
  186.7200  178.3690  137.8640 C   0  0  0  0  0  2  0  0  0  0  0  0
  185.3910  177.6710  137.7960 C   0  0  0  0  0  0  0  0  0  0  0  0
  183.0450  176.1420  137.9550 C   0  0  0  0  0  3  0  0  0  0  0  0
  191.5990  177.6200  143.4130 C   0  0  0  0  0  3  0  0  0  0  0  0
  189.0380  178.5410  143.4980 C   0  0  0  0  0  2  0  0  0  0  0  0
  190.1240  177.5390  143.4960 C   0  0  0  0  0  0  0  0  0  0  0  0
  189.7150  176.3280  143.4360 C   0  0  0  0  0  0  0  0  0  0  0  0
  188.2520  176.1670  143.4210 C   0  0  0  0  0  2  0  0  0  0  0  0
  190.7380  175.4150  143.3460 O   0  0  0  0  0  0  0  0  0  0  0  0
  187.7850  177.6400  143.5290 C   0  0  2  0  0  3  0  0  0  0  0  0
  191.9800  176.1210  143.3480 C   0  0  0  0  0  3  0  0  0  0  0  0
  186.1990  176.1380  136.0440 O   0  0  0  0  0  0  0  0  0  0  0  0
  188.7750  175.9640  135.9940 O   0  0  0  0  0  1  0  0  0  0  0  0
  187.3480  174.1170  134.8390 N   0  0  0  0  0  1  0  0  0  0  0  0
  187.4400  174.9440  136.4280 P   0  0  2  0  0  0  0  0  0  0  0  0
  183.9090  174.6590  136.2230 O   0  0  0  0  0  0  0  0  0  0  0  0
  182.8570  173.7130  136.3680 C   0  0  0  0  0  2  0  0  0  0  0  0
  181.9730  173.7570  135.1360 C   0  0  0  0  0  2  0  0  0  0  0  0
  181.7420  172.3530  134.6000 C   0  0  0  0  0  2  0  0  0  0  0  0
  181.4590  171.3760  135.7360 C   0  0  0  0  0  2  0  0  0  0  0  0
  184.0850  168.6310  135.7540 C   0  0  1  0  0  3  0  0  0  0  0  0
  181.8480  168.9440  135.0710 C   0  0  0  0  0  0  0  0  0  0  0  0
  180.6840  168.7460  134.6330 O   0  0  0  0  0  0  0  0  0  0  0  0
  183.6460  170.0770  136.0520 C   0  0  0  0  0  2  0  0  0  0  0  0
  182.9000  167.9130  135.0960 C   0  0  0  0  0  2  0  0  0  0  0  0
  182.2780  170.1790  135.5970 N   0  0  0  0  0  0  0  0  0  0  0  0
  185.2710  168.6230  134.8060 C   0  0  0  0  0  2  0  0  0  0  0  0
  186.0910  169.8880  134.9710 C   0  0  0  0  0  1  0  0  0  0  0  0
  1  9  1  1  0  0  0
  1  5  1  0  0  0  0
  2 14  2  0  0  0  0
  3 13  2  0  0  0  0
  4 19  1  0  0  0  0
  5  6  2  0  0  0  0
  8  1  1  0  0  0  0
  8 15  1  0  0  0  0
 10 16  1  0  0  0  0
 10  2  1  0  0  0  0
 11  4  2  0  0  0  0
 11 18  1  0  0  0  0
 12  7  1  6  0  0  0
 12 15  1  0  0  0  0
 12 26  1  0  0  0  0
 13  7  2  0  0  0  0
 14  8  2  0  0  0  0
 15  6  1  1  0  0  0
 17  3  1  0  0  0  0
 18 17  1  0  0  0  0
 18 10  2  0  0  0  0
 19 16  2  0  0  0  0
 20 22  1  0  0  0  0
 21 26  1  0  0  0  0
 22 21  1  0  0  0  0
 23 22  2  0  0  0  0
 24 23  1  0  0  0  0
 25 27  1  0  0  0  0
 25 23  1  0  0  0  0
 26 24  1  6  0  0  0
 27 20  2  0  0  0  0
 28 31  1  0  0  0  0
 28 11  1  0  0  0  0
 29 31  1  0  0  0  0
 31 30  1  6  0  0  0
 32 33  1  0  0  0  0
 32  4  1  0  0  0  0
 34 33  1  0  0  0  0
 35 34  1  0  0  0  0
 35 36  1  0  0  0  0
 37 43  1  6  0  0  0
 37 40  1  0  0  0  0
 38 41  1  0  0  0  0
 38 42  1  0  0  0  0
 39 38  2  0  0  0  0
 41 37  1  0  0  0  0
 42 36  1  0  0  0  0
 42 40  1  0  0  0  0
 43 44  1  0  0  0  0
M  END
>  <MODEL>
6

>  <REMARK>
 VINA RESULT:      -6.6      3.163      9.970
  Name = 
  10 active torsions:
  status: ('A' for Active; 'I' for Inactive)
    1  A    between atoms: O_4  and  C_16
    2  A    between atoms: O_4  and  P_33
    3  A    between atoms: C_5  and  O_25
    4  A    between atoms: C_7  and  C_26
    5  A    between atoms: C_7  and  C_36
    6  A    between atoms: C_13  and  O_25
    7  A    between atoms: C_13  and  C_26
    8  A    between atoms: C_18  and  C_31
    9  A    between atoms: C_20  and  C_29
   10  A    between atoms: C_36  and  N_44
                            x       y       z     vdW  Elec       q    Type
                         _______ _______ _______ _____ _____    ______ ____

>  <TORSDO>
F 10

$$$$
=
 OpenBabel10232407593D

 44 49  0  0  1  0  0  0  0  0999 V2000
  196.1380  174.2010  138.4230 C   0  0  2  0  0  3  0  0  0  0  0  0
  193.7230  176.4690  136.8880 C   0  0  0  0  0  3  0  0  0  0  0  0
  191.0650  174.7930  135.4620 C   0  0  0  0  0  3  0  0  0  0  0  0
  190.2950  176.7100  139.4330 C   0  0  0  0  0  0  0  0  0  0  0  0
  196.6270  172.8660  138.2150 N   0  0  0  0  0  0  0  0  0  0  0  0
  196.2570  172.3620  137.0970 C   0  0  0  0  0  3  0  0  0  0  0  0
  193.3120  173.5610  134.9540 C   0  0  0  0  0  3  0  0  0  0  0  0
  195.3800  174.4750  137.1760 C   0  0  0  0  0  0  0  0  0  0  0  0
  197.3110  175.1590  138.5500 C   0  0  0  0  0  1  0  0  0  0  0  0
  192.5360  176.5530  137.7480 C   0  0  0  0  0  0  0  0  0  0  0  0
  190.1150  176.6520  138.0440 C   0  0  0  0  0  0  0  0  0  0  0  0
  194.0050  172.7060  135.9700 C   0  0  2  0  0  3  0  0  0  0  0  0
  192.1850  174.1660  135.2200 C   0  0  0  0  0  0  0  0  0  0  0  0
  194.5760  175.4930  137.0360 C   0  0  0  0  0  0  0  0  0  0  0  0
  195.4140  173.2830  136.2670 C   0  0  2  0  0  3  0  0  0  0  0  0
  192.6980  176.6090  139.1350 C   0  0  0  0  0  3  0  0  0  0  0  0
  191.0540  176.2650  135.7270 C   0  0  0  0  0  2  0  0  0  0  0  0
  191.2390  176.5450  137.1920 C   0  0  0  0  0  0  0  0  0  0  0  0
  191.5870  176.6840  139.9720 C   0  0  0  0  0  3  0  0  0  0  0  0
  191.1380  168.9770  134.3490 C   0  0  0  0  0  3  0  0  0  0  0  0
  192.9260  171.0320  134.3460 C   0  0  0  0  0  2  0  0  0  0  0  0
  192.2820  169.7900  134.8200 C   0  0  0  0  0  0  0  0  0  0  0  0
  192.7210  169.3730  135.9480 C   0  0  0  0  0  0  0  0  0  0  0  0
  193.8030  170.1840  136.5310 C   0  0  0  0  0  2  0  0  0  0  0  0
  192.0510  168.2680  136.4150 O   0  0  0  0  0  0  0  0  0  0  0  0
  193.9960  171.2620  135.4350 C   0  0  2  0  0  3  0  0  0  0  0  0
  191.0410  167.9140  135.4690 C   0  0  0  0  0  3  0  0  0  0  0  0
  188.8050  176.6830  137.5510 O   0  0  0  0  0  0  0  0  0  0  0  0
  186.9460  178.2620  138.4000 O   0  0  0  0  0  1  0  0  0  0  0  0
  186.8270  177.3430  135.9670 N   0  0  0  0  0  1  0  0  0  0  0  0
  188.0100  178.1710  137.0330 P   0  0  2  0  0  0  0  0  0  0  0  0
  189.1680  176.8070  140.2560 O   0  0  0  0  0  0  0  0  0  0  0  0
  189.1440  177.5770  141.4510 C   0  0  0  0  0  2  0  0  0  0  0  0
  187.7590  177.5020  142.0660 C   0  0  0  0  0  2  0  0  0  0  0  0
  187.7910  176.6800  143.3450 C   0  0  0  0  0  2  0  0  0  0  0  0
  187.5990  177.5700  144.5680 C   0  0  0  0  0  2  0  0  0  0  0  0
  190.9900  177.4510  146.2780 C   0  0  1  0  0  3  0  0  0  0  0  0
  188.7040  177.3900  146.8610 C   0  0  0  0  0  0  0  0  0  0  0  0
  187.6290  177.3640  147.5160 O   0  0  0  0  0  0  0  0  0  0  0  0
  190.1240  177.5270  145.0050 C   0  0  0  0  0  2  0  0  0  0  0  0
  190.0410  177.3430  147.4770 C   0  0  0  0  0  2  0  0  0  0  0  0
  188.7520  177.4750  145.4550 N   0  0  0  0  0  0  0  0  0  0  0  0
  191.8890  176.2270  146.2330 C   0  0  0  0  0  2  0  0  0  0  0  0
  191.8640  175.5010  147.5640 C   0  0  0  0  0  1  0  0  0  0  0  0
  1  9  1  6  0  0  0
  2 14  2  0  0  0  0
  2 10  1  0  0  0  0
  3 17  1  0  0  0  0
  4 19  1  0  0  0  0
  4 32  1  0  0  0  0
  5  1  1  0  0  0  0
  6  5  2  0  0  0  0
  7 13  2  0  0  0  0
  8  1  1  0  0  0  0
 10 16  1  0  0  0  0
 11  4  2  0  0  0  0
 12  7  1  6  0  0  0
 12 15  1  0  0  0  0
 13  3  2  0  0  0  0
 14  8  2  0  0  0  0
 15  6  1  1  0  0  0
 15  8  1  0  0  0  0
 16 19  2  0  0  0  0
 17 18  1  0  0  0  0
 18 10  2  0  0  0  0
 18 11  1  0  0  0  0
 20 22  1  0  0  0  0
 20 27  2  0  0  0  0
 21 22  1  0  0  0  0
 22 23  2  0  0  0  0
 23 25  1  0  0  0  0
 23 24  1  0  0  0  0
 26 21  1  6  0  0  0
 26 12  1  0  0  0  0
 26 24  1  0  0  0  0
 27 25  1  0  0  0  0
 28 11  1  0  0  0  0
 31 30  1  6  0  0  0
 31 28  1  0  0  0  0
 31 29  1  0  0  0  0
 32 33  1  0  0  0  0
 33 34  1  0  0  0  0
 34 35  1  0  0  0  0
 35 36  1  0  0  0  0
 36 42  1  0  0  0  0
 37 43  1  6  0  0  0
 37 41  1  0  0  0  0
 38 41  1  0  0  0  0
 38 39  2  0  0  0  0
 40 42  1  0  0  0  0
 40 37  1  0  0  0  0
 42 38  1  0  0  0  0
 43 44  1  0  0  0  0
M  END
>  <MODEL>
7

>  <REMARK>
 VINA RESULT:      -6.4      4.234      5.987
  Name = 
  10 active torsions:
  status: ('A' for Active; 'I' for Inactive)
    1  A    between atoms: O_4  and  C_16
    2  A    between atoms: O_4  and  P_33
    3  A    between atoms: C_5  and  O_25
    4  A    between atoms: C_7  and  C_26
    5  A    between atoms: C_7  and  C_36
    6  A    between atoms: C_13  and  O_25
    7  A    between atoms: C_13  and  C_26
    8  A    between atoms: C_18  and  C_31
    9  A    between atoms: C_20  and  C_29
   10  A    between atoms: C_36  and  N_44
                            x       y       z     vdW  Elec       q    Type
                         _______ _______ _______ _____ _____    ______ ____

>  <TORSDO>
F 10

$$$$
=
 OpenBabel10232407593D

 44 49  0  0  1  0  0  0  0  0999 V2000
  188.2140  174.8180  136.1530 C   0  0  2  0  0  3  0  0  0  0  0  0
  185.8850  177.6300  136.1200 C   0  0  0  0  0  3  0  0  0  0  0  0
  182.6850  176.7000  137.0200 C   0  0  0  0  0  3  0  0  0  0  0  0
  185.1000  178.7760  140.1660 C   0  0  0  0  0  0  0  0  0  0  0  0
  188.1750  173.4010  135.9230 N   0  0  0  0  0  0  0  0  0  0  0  0
  187.0750  173.0040  135.4010 C   0  0  0  0  0  3  0  0  0  0  0  0
  183.7530  174.9190  135.4330 C   0  0  0  0  0  3  0  0  0  0  0  0
  186.8960  175.2730  135.6430 C   0  0  0  0  0  0  0  0  0  0  0  0
  189.3380  175.4360  135.3380 C   0  0  0  0  0  1  0  0  0  0  0  0
  185.5990  178.0270  137.5050 C   0  0  0  0  0  0  0  0  0  0  0  0
  184.0460  178.7590  139.2410 C   0  0  0  0  0  0  0  0  0  0  0  0
  184.7590  173.9190  135.9130 C   0  0  2  0  0  3  0  0  0  0  0  0
  183.2230  175.8000  136.2400 C   0  0  0  0  0  0  0  0  0  0  0  0
  186.4150  176.4660  135.8650 C   0  0  0  0  0  0  0  0  0  0  0  0
  186.0940  174.1090  135.1450 C   0  0  2  0  0  3  0  0  0  0  0  0
  186.6380  178.0480  138.4400 C   0  0  0  0  0  3  0  0  0  0  0  0
  183.1360  178.1250  136.9670 C   0  0  0  0  0  2  0  0  0  0  0  0
  184.2870  178.3560  137.9060 C   0  0  0  0  0  0  0  0  0  0  0  0
  186.3910  178.4160  139.7600 C   0  0  0  0  0  3  0  0  0  0  0  0
  180.5530  171.4370  134.9620 C   0  0  0  0  0  3  0  0  0  0  0  0
  183.0580  172.4630  134.6530 C   0  0  0  0  0  2  0  0  0  0  0  0
  181.9370  171.7950  135.3470 C   0  0  0  0  0  0  0  0  0  0  0  0
  182.1510  171.5730  136.5890 C   0  0  0  0  0  0  0  0  0  0  0  0
  183.4790  171.9880  137.0730 C   0  0  0  0  0  2  0  0  0  0  0  0
  181.0680  171.0320  137.2380 O   0  0  0  0  0  0  0  0  0  0  0  0
  184.1210  172.5240  135.7700 C   0  0  2  0  0  3  0  0  0  0  0  0
  180.0030  170.8790  136.2970 C   0  0  0  0  0  3  0  0  0  0  0  0
  182.7730  179.1290  139.6910 O   0  0  0  0  0  0  0  0  0  0  0  0
  182.4460  176.6200  140.2070 O   0  0  0  0  0  1  0  0  0  0  0  0
  180.3620  178.1070  139.7350 N   0  0  0  0  0  1  0  0  0  0  0  0
  181.8160  178.1290  140.7860 P   0  0  2  0  0  0  0  0  0  0  0  0
  184.8370  179.1700  141.4810 O   0  0  0  0  0  0  0  0  0  0  0  0
  185.8530  179.3240  142.4630 C   0  0  0  0  0  2  0  0  0  0  0  0
  185.8150  178.1410  143.4130 C   0  0  0  0  0  2  0  0  0  0  0  0
  186.0380  178.6050  144.8440 C   0  0  0  0  0  2  0  0  0  0  0  0
  186.3890  177.4280  145.7480 C   0  0  0  0  0  2  0  0  0  0  0  0
  190.1530  177.7250  146.1630 C   0  0  1  0  0  3  0  0  0  0  0  0
  188.2230  177.5940  147.5140 C   0  0  0  0  0  0  0  0  0  0  0  0
  187.4460  177.5800  148.5040 O   0  0  0  0  0  0  0  0  0  0  0  0
  188.9020  177.5940  145.2740 C   0  0  0  0  0  2  0  0  0  0  0  0
  189.6880  177.7040  147.6230 C   0  0  0  0  0  2  0  0  0  0  0  0
  187.7790  177.5120  146.1780 N   0  0  0  0  0  0  0  0  0  0  0  0
  191.1000  176.5620  145.9170 C   0  0  0  0  0  2  0  0  0  0  0  0
  191.4200  175.8540  147.2190 C   0  0  0  0  0  1  0  0  0  0  0  0
  1  9  1  6  0  0  0
  2 10  1  0  0  0  0
  4 32  1  0  0  0  0
  5  1  1  0  0  0  0
  6  5  2  0  0  0  0
  7 13  2  0  0  0  0
  8 14  2  0  0  0  0
  8  1  1  0  0  0  0
 10 18  2  0  0  0  0
 10 16  1  0  0  0  0
 11 28  1  0  0  0  0
 11  4  2  0  0  0  0
 12  7  1  6  0  0  0
 13  3  2  0  0  0  0
 14  2  2  0  0  0  0
 15  6  1  1  0  0  0
 15  8  1  0  0  0  0
 15 12  1  0  0  0  0
 16 19  2  0  0  0  0
 17  3  1  0  0  0  0
 17 18  1  0  0  0  0
 18 11  1  0  0  0  0
 19  4  1  0  0  0  0
 20 22  1  0  0  0  0
 20 27  2  0  0  0  0
 21 22  1  0  0  0  0
 22 23  2  0  0  0  0
 23 24  1  0  0  0  0
 23 25  1  0  0  0  0
 26 21  1  6  0  0  0
 26 12  1  0  0  0  0
 26 24  1  0  0  0  0
 27 25  1  0  0  0  0
 28 31  1  0  0  0  0
 29 31  1  0  0  0  0
 31 30  1  6  0  0  0
 32 33  1  0  0  0  0
 33 34  1  0  0  0  0
 34 35  1  0  0  0  0
 35 36  1  0  0  0  0
 36 42  1  0  0  0  0
 37 43  1  1  0  0  0
 37 41  1  0  0  0  0
 38 41  1  0  0  0  0
 38 39  2  0  0  0  0
 40 37  1  0  0  0  0
 40 42  1  0  0  0  0
 42 38  1  0  0  0  0
 43 44  1  0  0  0  0
M  END
>  <MODEL>
8

>  <REMARK>
 VINA RESULT:      -6.3      1.703      2.505
  Name = 
  10 active torsions:
  status: ('A' for Active; 'I' for Inactive)
    1  A    between atoms: O_4  and  C_16
    2  A    between atoms: O_4  and  P_33
    3  A    between atoms: C_5  and  O_25
    4  A    between atoms: C_7  and  C_26
    5  A    between atoms: C_7  and  C_36
    6  A    between atoms: C_13  and  O_25
    7  A    between atoms: C_13  and  C_26
    8  A    between atoms: C_18  and  C_31
    9  A    between atoms: C_20  and  C_29
   10  A    between atoms: C_36  and  N_44
                            x       y       z     vdW  Elec       q    Type
                         _______ _______ _______ _____ _____    ______ ____

>  <TORSDO>
F 10

$$$$
=
 OpenBabel10232407593D

 44 49  0  0  1  0  0  0  0  0999 V2000
  184.9340  178.1060  143.8580 C   0  0  2  0  0  3  0  0  0  0  0  0
  184.4890  179.1510  140.3870 C   0  0  0  0  0  3  0  0  0  0  0  0
  186.7750  177.6750  138.2640 C   0  0  0  0  0  3  0  0  0  0  0  0
  182.6470  175.9430  138.2400 C   0  0  0  0  0  0  0  0  0  0  0  0
  186.0100  177.7000  144.7180 N   0  0  0  0  0  0  0  0  0  0  0  0
  187.1680  177.9070  144.2090 C   0  0  0  0  0  3  0  0  0  0  0  0
  187.9280  178.4240  140.4870 C   0  0  0  0  0  3  0  0  0  0  0  0
  185.6430  178.6510  142.6730 C   0  0  0  0  0  0  0  0  0  0  0  0
  184.1240  179.1990  144.5360 C   0  0  0  0  0  1  0  0  0  0  0  0
  183.8660  178.0540  139.6360 C   0  0  0  0  0  0  0  0  0  0  0  0
  183.6720  176.6790  137.6280 C   0  0  0  0  0  0  0  0  0  0  0  0
  187.7950  177.6460  141.7600 C   0  0  2  0  0  3  0  0  0  0  0  0
  187.3500  178.0340  139.3810 C   0  0  0  0  0  0  0  0  0  0  0  0
  185.0470  178.9240  141.5440 C   0  0  0  0  0  0  0  0  0  0  0  0
  187.1270  178.5300  142.8460 C   0  0  2  0  0  3  0  0  0  0  0  0
  182.8440  177.3090  140.2330 C   0  0  0  0  0  3  0  0  0  0  0  0
  185.5440  178.3730  137.7800 C   0  0  0  0  0  2  0  0  0  0  0  0
  184.3080  177.7250  138.3370 C   0  0  0  0  0  0  0  0  0  0  0  0
  182.2420  176.2610  139.5420 C   0  0  0  0  0  3  0  0  0  0  0  0
  190.7450  176.1220  145.4650 C   0  0  0  0  0  3  0  0  0  0  0  0
  189.1700  176.0610  143.2440 C   0  0  0  0  0  2  0  0  0  0  0  0
  190.2250  176.5600  144.1500 C   0  0  0  0  0  0  0  0  0  0  0  0
  190.7320  177.6790  143.7930 C   0  0  0  0  0  0  0  0  0  0  0  0
  190.1980  178.2300  142.5360 C   0  0  0  0  0  2  0  0  0  0  0  0
  191.6480  178.1710  144.6920 O   0  0  0  0  0  0  0  0  0  0  0  0
  189.1970  177.1220  142.1230 C   0  0  2  0  0  3  0  0  0  0  0  0
  191.7540  177.2520  145.7810 C   0  0  0  0  0  3  0  0  0  0  0  0
  184.0430  176.3270  136.3250 O   0  0  0  0  0  0  0  0  0  0  0  0
  182.1950  178.0360  135.7520 O   0  0  0  0  0  1  0  0  0  0  0  0
  182.3130  175.7950  134.4330 N   0  0  0  0  0  1  0  0  0  0  0  0
  183.4070  177.1400  134.8940 P   0  0  2  0  0  0  0  0  0  0  0  0
  182.0390  174.9080  137.5240 O   0  0  0  0  0  0  0  0  0  0  0  0
  181.6170  173.6910  138.1260 C   0  0  0  0  0  2  0  0  0  0  0  0
  180.9820  172.8050  137.0700 C   0  0  0  0  0  2  0  0  0  0  0  0
  182.0340  172.3150  136.0880 C   0  0  0  0  0  2  0  0  0  0  0  0
  183.0080  171.3580  136.7660 C   0  0  0  0  0  2  0  0  0  0  0  0
  186.3950  171.6600  135.0720 C   0  0  1  0  0  3  0  0  0  0  0  0
  185.2640  172.5370  136.9490 C   0  0  0  0  0  0  0  0  0  0  0  0
  184.9720  173.2100  137.9720 O   0  0  0  0  0  0  0  0  0  0  0  0
  184.9850  171.0470  135.1650 C   0  0  0  0  0  2  0  0  0  0  0  0
  186.5630  172.6160  136.2580 C   0  0  0  0  0  2  0  0  0  0  0  0
  184.3740  171.6300  136.3370 N   0  0  0  0  0  0  0  0  0  0  0  0
  187.4510  170.5700  135.1480 C   0  0  0  0  0  2  0  0  0  0  0  0
  186.8070  169.2000  135.0530 C   0  0  0  0  0  1  0  0  0  0  0  0
  1  9  1  1  0  0  0
  1  5  1  0  0  0  0
  2 14  2  0  0  0  0
  3 13  2  0  0  0  0
  4 19  1  0  0  0  0
  6  5  2  0  0  0  0
  8 15  1  0  0  0  0
  8  1  1  0  0  0  0
 10 16  1  0  0  0  0
 10  2  1  0  0  0  0
 11  4  2  0  0  0  0
 11 18  1  0  0  0  0
 12  7  1  6  0  0  0
 12 26  1  0  0  0  0
 12 15  1  0  0  0  0
 13  7  2  0  0  0  0
 14  8  2  0  0  0  0
 15  6  1  1  0  0  0
 17  3  1  0  0  0  0
 17 18  1  0  0  0  0
 18 10  2  0  0  0  0
 19 16  2  0  0  0  0
 20 27  2  0  0  0  0
 21 22  1  0  0  0  0
 22 20  1  0  0  0  0
 23 22  2  0  0  0  0
 23 25  1  0  0  0  0
 24 23  1  0  0  0  0
 25 27  1  0  0  0  0
 26 24  1  1  0  0  0
 26 21  1  0  0  0  0
 28 11  1  0  0  0  0
 31 30  1  6  0  0  0
 31 29  1  0  0  0  0
 31 28  1  0  0  0  0
 32 33  1  0  0  0  0
 32  4  1  0  0  0  0
 34 33  1  0  0  0  0
 35 36  1  0  0  0  0
 35 34  1  0  0  0  0
 37 43  1  1  0  0  0
 37 40  1  0  0  0  0
 37 41  1  0  0  0  0
 38 39  2  0  0  0  0
 40 42  1  0  0  0  0
 41 38  1  0  0  0  0
 42 36  1  0  0  0  0
 42 38  1  0  0  0  0
 44 43  1  0  0  0  0
M  END
>  <MODEL>
9

>  <REMARK>
 VINA RESULT:      -6.2      2.820      8.960
  Name = 
  10 active torsions:
  status: ('A' for Active; 'I' for Inactive)
    1  A    between atoms: O_4  and  C_16
    2  A    between atoms: O_4  and  P_33
    3  A    between atoms: C_5  and  O_25
    4  A    between atoms: C_7  and  C_26
    5  A    between atoms: C_7  and  C_36
    6  A    between atoms: C_13  and  O_25
    7  A    between atoms: C_13  and  C_26
    8  A    between atoms: C_18  and  C_31
    9  A    between atoms: C_20  and  C_29
   10  A    between atoms: C_36  and  N_44
                            x       y       z     vdW  Elec       q    Type
                         _______ _______ _______ _____ _____    ______ ____

>  <TORSDO>
F 10

$$$$
