=
 OpenBabel10232408123D

 32 34  0  0  1  0  0  0  0  0999 V2000
  188.3750  178.1320  141.3950 C   0  0  0  0  0  0  0  0  0  0  0  0
  190.4100  177.5600  142.5600 N   0  0  0  0  0  0  0  0  0  0  0  0
  187.9080  179.1540  137.0470 O   0  0  0  0  0  0  0  0  0  0  0  0
  188.8080  178.8130  139.1750 N   0  0  0  0  0  0  0  0  0  0  0  0
  187.9150  178.6420  140.0900 C   0  0  0  0  0  0  0  0  0  0  0  0
  189.6950  177.4530  141.4780 C   0  0  0  0  0  0  0  0  0  0  0  0
  191.1780  175.2220  137.6780 S   0  0  0  0  0  0  0  0  0  0  0  0
  190.7780  176.9790  137.9530 C   0  0  1  0  0  3  0  0  0  0  0  0
  186.5090  178.7040  139.8220 N   0  0  0  0  0  0  0  0  0  0  0  0
  185.5970  178.6250  140.9290 C   0  0  0  0  0  3  0  0  0  0  0  0
  188.5540  176.0270  137.5030 C   0  0  0  0  0  2  0  0  0  0  0  0
  188.6710  178.4950  137.8030 C   0  0  0  0  0  0  0  0  0  0  0  0
  189.3960  177.2720  137.3140 C   0  0  1  0  0  3  0  0  0  0  0  0
  190.9650  177.3680  139.3700 N   0  0  0  0  0  2  0  0  0  0  0  0
  187.4770  177.9920  142.3790 C   0  0  0  0  0  3  0  0  0  0  0  0
  186.0470  178.3170  142.1560 C   0  0  0  0  0  2  0  0  0  0  0  0
  189.4460  174.8180  137.2530 C   0  0  1  0  0  3  0  0  0  0  0  0
  190.1470  176.5900  140.3080 C   0  0  0  0  0  2  0  0  0  0  0  0
  189.3470  174.3830  135.8270 C   0  0  0  0  0  0  0  0  0  0  0  0
  190.4410  174.4990  134.9750 O   0  0  0  0  0  0  0  0  0  0  0  0
  188.2620  173.9140  135.3930 O   0  0  0  0  0  1  0  0  0  0  0  0
  191.7020  176.9040  142.7460 C   0  0  0  0  0  2  0  0  0  0  0  0
  191.6850  175.9930  143.9620 C   0  0  0  0  0  2  0  0  0  0  0  0
  191.6590  176.8050  145.2490 C   0  0  0  0  0  2  0  0  0  0  0  0
  189.3260  177.3530  146.0780 C   0  0  0  0  0  0  0  0  0  0  0  0
  189.3070  178.4250  145.4140 O   0  0  0  0  0  0  0  0  0  0  0  0
  190.4660  176.4870  146.0250 N   0  0  0  0  0  2  0  0  0  0  0  0
  188.1790  177.0340  146.9820 C   0  0  0  0  0  2  0  0  0  0  0  0
  187.6020  178.2850  147.6320 C   0  0  2  0  0  3  0  0  0  0  0  0
  187.8490  178.2600  149.0050 O   0  0  0  0  0  1  0  0  0  0  0  0
  185.7040  179.5690  146.9580 O   0  0  0  0  0  1  0  0  0  0  0  0
  186.1080  178.3010  147.3830 C   0  0  0  0  0  2  0  0  0  0  0  0
  1  6  1  0  0  0  0
  1 15  2  0  0  0  0
  2 22  1  0  0  0  0
  3 12  2  0  0  0  0
  4  5  2  0  0  0  0
  5  1  1  0  0  0  0
  6  2  2  0  0  0  0
  8  7  1  1  0  0  0
  8 14  1  0  0  0  0
  9  5  1  0  0  0  0
  9 10  2  0  0  0  0
 10 16  1  0  0  0  0
 12  4  1  0  0  0  0
 13 11  1  1  0  0  0
 13 12  1  0  0  0  0
 13  8  1  0  0  0  0
 14 18  1  0  0  0  0
 16 15  1  0  0  0  0
 17 19  1  6  0  0  0
 17 11  1  0  0  0  0
 17  7  1  0  0  0  0
 18  6  1  0  0  0  0
 20 19  2  0  0  0  0
 21 19  1  0  0  0  0
 22 23  1  0  0  0  0
 23 24  1  0  0  0  0
 24 27  1  0  0  0  0
 25 28  1  0  0  0  0
 26 25  2  0  0  0  0
 27 25  1  0  0  0  0
 28 29  1  0  0  0  0
 29 30  1  1  0  0  0
 31 32  1  0  0  0  0
 32 29  1  0  0  0  0
M  END
>  <MODEL>
1

>  <REMARK>
 VINA RESULT:      -7.6      0.000      0.000
  Name = 
  8 active torsions:
  status: ('A' for Active; 'I' for Inactive)
    1  A    between atoms: N_2  and  C_10
    2  A    between atoms: C_3  and  C_32
    3  A    between atoms: C_5  and  C_10
    4  A    between atoms: C_5  and  C_17
    5  A    between atoms: C_9  and  C_30
    6  A    between atoms: C_16  and  C_28
    7  A    between atoms: C_16  and  C_32
    8  A    between atoms: C_17  and  N_22
                            x       y       z     vdW  Elec       q    Type
                         _______ _______ _______ _____ _____    ______ ____

>  <TORSDO>
F 8

$$$$
=
 OpenBabel10232408123D

 32 34  0  0  1  0  0  0  0  0999 V2000
  186.6040  178.5400  141.5280 C   0  0  0  0  0  0  0  0  0  0  0  0
  188.8400  178.3550  140.6390 N   0  0  0  0  0  0  0  0  0  0  0  0
  182.8880  179.7980  139.3430 O   0  0  0  0  0  0  0  0  0  0  0  0
  185.1210  179.4920  139.9550 N   0  0  0  0  0  0  0  0  0  0  0  0
  185.2680  179.0400  141.1540 C   0  0  0  0  0  0  0  0  0  0  0  0
  187.5650  178.1800  140.4520 C   0  0  0  0  0  0  0  0  0  0  0  0
  185.7820  176.6900  136.4250 S   0  0  0  0  0  0  0  0  0  0  0  0
  185.5910  178.2770  137.3020 C   0  0  1  0  0  3  0  0  0  0  0  0
  184.1620  178.7980  142.0330 N   0  0  0  0  0  0  0  0  0  0  0  0
  184.4380  178.4150  143.3890 C   0  0  0  0  0  3  0  0  0  0  0  0
  183.9100  176.8780  138.4300 C   0  0  0  0  0  2  0  0  0  0  0  0
  184.0080  179.2710  139.1100 C   0  0  0  0  0  0  0  0  0  0  0  0
  184.1970  178.2960  137.9810 C   0  0  1  0  0  3  0  0  0  0  0  0
  186.7640  178.5740  138.1560 N   0  0  0  0  0  2  0  0  0  0  0  0
  186.7990  178.1110  142.7820 C   0  0  0  0  0  3  0  0  0  0  0  0
  185.6910  178.1140  143.7670 C   0  0  0  0  0  2  0  0  0  0  0  0
  184.3870  175.9350  137.3340 C   0  0  1  0  0  3  0  0  0  0  0  0
  187.0280  177.5500  139.1730 C   0  0  0  0  0  2  0  0  0  0  0  0
  183.2670  175.6140  136.3990 C   0  0  0  0  0  0  0  0  0  0  0  0
  182.1100  174.9960  136.8650 O   0  0  0  0  0  1  0  0  0  0  0  0
  183.3760  175.8990  135.1770 O   0  0  0  0  0  0  0  0  0  0  0  0
  189.8600  178.0030  139.6540 C   0  0  0  0  0  2  0  0  0  0  0  0
  190.8220  176.9640  140.2070 C   0  0  0  0  0  2  0  0  0  0  0  0
  191.6600  177.5460  141.3360 C   0  0  0  0  0  2  0  0  0  0  0  0
  191.5400  177.4330  143.8670 C   0  0  0  0  0  0  0  0  0  0  0  0
  191.8510  178.6510  143.9680 O   0  0  0  0  0  0  0  0  0  0  0  0
  191.4100  176.8230  142.5770 N   0  0  0  0  0  2  0  0  0  0  0  0
  191.3860  176.6140  145.1080 C   0  0  0  0  0  2  0  0  0  0  0  0
  190.4420  177.2670  146.1080 C   0  0  2  0  0  3  0  0  0  0  0  0
  190.5560  176.6360  147.3480 O   0  0  0  0  0  1  0  0  0  0  0  0
  188.1160  177.6050  146.5290 O   0  0  0  0  0  1  0  0  0  0  0  0
  189.0270  177.1200  145.5890 C   0  0  0  0  0  2  0  0  0  0  0  0
  1 15  2  0  0  0  0
  4  5  2  0  0  0  0
  5  1  1  0  0  0  0
  5  9  1  0  0  0  0
  6  2  2  0  0  0  0
  6  1  1  0  0  0  0
  7 17  1  0  0  0  0
  8  7  1  1  0  0  0
  8 13  1  0  0  0  0
  8 14  1  0  0  0  0
  9 10  2  0  0  0  0
 10 16  1  0  0  0  0
 12  3  2  0  0  0  0
 12  4  1  0  0  0  0
 13 11  1  1  0  0  0
 13 12  1  0  0  0  0
 14 18  1  0  0  0  0
 15 16  1  0  0  0  0
 17 19  1  6  0  0  0
 17 11  1  0  0  0  0
 18  6  1  0  0  0  0
 19 20  1  0  0  0  0
 21 19  2  0  0  0  0
 22 23  1  0  0  0  0
 22  2  1  0  0  0  0
 23 24  1  0  0  0  0
 24 27  1  0  0  0  0
 25 26  2  0  0  0  0
 25 28  1  0  0  0  0
 27 25  1  0  0  0  0
 28 29  1  0  0  0  0
 29 30  1  1  0  0  0
 32 29  1  0  0  0  0
 32 31  1  0  0  0  0
M  END
>  <MODEL>
2

>  <REMARK>
 VINA RESULT:      -7.0      3.010      4.207
  Name = 
  8 active torsions:
  status: ('A' for Active; 'I' for Inactive)
    1  A    between atoms: N_2  and  C_10
    2  A    between atoms: C_3  and  C_32
    3  A    between atoms: C_5  and  C_10
    4  A    between atoms: C_5  and  C_17
    5  A    between atoms: C_9  and  C_30
    6  A    between atoms: C_16  and  C_28
    7  A    between atoms: C_16  and  C_32
    8  A    between atoms: C_17  and  N_22
                            x       y       z     vdW  Elec       q    Type
                         _______ _______ _______ _____ _____    ______ ____

>  <TORSDO>
F 8

$$$$
=
 OpenBabel10232408123D

 32 34  0  0  1  0  0  0  0  0999 V2000
  186.5890  178.5640  141.3790 C   0  0  0  0  0  0  0  0  0  0  0  0
  188.4650  178.6480  139.8630 N   0  0  0  0  0  0  0  0  0  0  0  0
  182.2840  179.4510  140.4560 O   0  0  0  0  0  0  0  0  0  0  0  0
  184.6170  179.3810  140.3660 N   0  0  0  0  0  0  0  0  0  0  0  0
  185.1590  178.9220  141.4430 C   0  0  0  0  0  0  0  0  0  0  0  0
  187.2150  178.3370  140.0500 C   0  0  0  0  0  0  0  0  0  0  0  0
  184.4690  176.7490  136.6520 S   0  0  0  0  0  0  0  0  0  0  0  0
  184.3920  178.2840  137.6300 C   0  0  1  0  0  3  0  0  0  0  0  0
  184.3960  178.5390  142.5940 N   0  0  0  0  0  0  0  0  0  0  0  0
  185.1000  178.1580  143.7860 C   0  0  0  0  0  3  0  0  0  0  0  0
  183.2710  176.6830  139.1260 C   0  0  0  0  0  2  0  0  0  0  0  0
  183.3310  179.0570  139.8750 C   0  0  0  0  0  0  0  0  0  0  0  0
  183.2700  178.1330  138.6890 C   0  0  1  0  0  3  0  0  0  0  0  0
  185.7310  178.6910  138.1160 N   0  0  0  0  0  2  0  0  0  0  0  0
  187.1900  178.1320  142.4950 C   0  0  0  0  0  3  0  0  0  0  0  0
  186.4320  177.9900  143.7620 C   0  0  0  0  0  2  0  0  0  0  0  0
  183.4910  175.8230  137.8890 C   0  0  1  0  0  3  0  0  0  0  0  0
  186.3870  177.6790  138.9540 C   0  0  0  0  0  2  0  0  0  0  0  0
  182.1810  175.4010  137.3080 C   0  0  0  0  0  0  0  0  0  0  0  0
  181.0530  176.2060  137.4470 O   0  0  0  0  0  1  0  0  0  0  0  0
  182.0960  174.3040  136.6950 O   0  0  0  0  0  0  0  0  0  0  0  0
  189.1740  178.4330  138.6040 C   0  0  0  0  0  2  0  0  0  0  0  0
  189.8780  177.0860  138.5940 C   0  0  0  0  0  2  0  0  0  0  0  0
  191.0210  177.0630  139.5980 C   0  0  0  0  0  2  0  0  0  0  0  0
  190.9550  176.8600  142.1250 C   0  0  0  0  0  0  0  0  0  0  0  0
  191.6130  177.9270  142.2610 O   0  0  0  0  0  0  0  0  0  0  0  0
  190.6100  176.3820  140.8200 N   0  0  0  0  0  2  0  0  0  0  0  0
  190.6070  176.0580  143.3390 C   0  0  0  0  0  2  0  0  0  0  0  0
  191.1100  176.7140  144.6180 C   0  0  2  0  0  3  0  0  0  0  0  0
  191.9240  175.8210  145.3160 O   0  0  0  0  0  1  0  0  0  0  0  0
  189.5560  178.4140  145.2460 O   0  0  0  0  0  1  0  0  0  0  0  0
  189.9110  177.0810  145.4650 C   0  0  0  0  0  2  0  0  0  0  0  0
  1  5  1  0  0  0  0
  1 15  2  0  0  0  0
  2  6  2  0  0  0  0
  4  5  2  0  0  0  0
  5  9  1  0  0  0  0
  6  1  1  0  0  0  0
  7 17  1  0  0  0  0
  8  7  1  1  0  0  0
  8 14  1  0  0  0  0
  8 13  1  0  0  0  0
  9 10  2  0  0  0  0
 12  4  1  0  0  0  0
 12  3  2  0  0  0  0
 13 11  1  1  0  0  0
 13 12  1  0  0  0  0
 14 18  1  0  0  0  0
 15 16  1  0  0  0  0
 16 10  1  0  0  0  0
 17 19  1  6  0  0  0
 17 11  1  0  0  0  0
 18  6  1  0  0  0  0
 19 20  1  0  0  0  0
 21 19  2  0  0  0  0
 22  2  1  0  0  0  0
 23 22  1  0  0  0  0
 23 24  1  0  0  0  0
 24 27  1  0  0  0  0
 25 26  2  0  0  0  0
 25 28  1  0  0  0  0
 27 25  1  0  0  0  0
 28 29  1  0  0  0  0
 29 30  1  1  0  0  0
 29 32  1  0  0  0  0
 31 32  1  0  0  0  0
M  END
>  <MODEL>
3

>  <REMARK>
 VINA RESULT:      -6.5      3.354      5.195
  Name = 
  8 active torsions:
  status: ('A' for Active; 'I' for Inactive)
    1  A    between atoms: N_2  and  C_10
    2  A    between atoms: C_3  and  C_32
    3  A    between atoms: C_5  and  C_10
    4  A    between atoms: C_5  and  C_17
    5  A    between atoms: C_9  and  C_30
    6  A    between atoms: C_16  and  C_28
    7  A    between atoms: C_16  and  C_32
    8  A    between atoms: C_17  and  N_22
                            x       y       z     vdW  Elec       q    Type
                         _______ _______ _______ _____ _____    ______ ____

>  <TORSDO>
F 8

$$$$
=
 OpenBabel10232408123D

 32 34  0  0  1  0  0  0  0  0999 V2000
  187.7480  178.1410  140.8750 C   0  0  0  0  0  0  0  0  0  0  0  0
  188.3940  178.6960  138.6160 N   0  0  0  0  0  0  0  0  0  0  0  0
  184.0230  179.4040  143.0430 O   0  0  0  0  0  0  0  0  0  0  0  0
  185.8020  179.3080  141.5330 N   0  0  0  0  0  0  0  0  0  0  0  0
  186.7350  178.4920  141.8880 C   0  0  0  0  0  0  0  0  0  0  0  0
  187.4390  178.3720  139.4390 C   0  0  0  0  0  0  0  0  0  0  0  0
  182.9760  178.1300  138.1610 S   0  0  0  0  0  0  0  0  0  0  0  0
  183.8230  179.2330  139.3380 C   0  0  1  0  0  3  0  0  0  0  0  0
  186.6940  177.7540  143.1160 N   0  0  0  0  0  2  0  0  0  0  0  0
  187.8380  176.9660  143.4800 C   0  0  0  0  0  3  0  0  0  0  0  0
  183.4130  177.2430  140.7270 C   0  0  0  0  0  2  0  0  0  0  0  0
  184.4320  179.2080  141.8670 C   0  0  0  0  0  0  0  0  0  0  0  0
  183.4990  178.7540  140.7770 C   0  0  1  0  0  3  0  0  0  0  0  0
  185.2520  179.4110  138.9900 N   0  0  0  0  0  2  0  0  0  0  0  0
  188.7560  177.3340  141.2310 C   0  0  0  0  0  3  0  0  0  0  0  0
  188.8400  176.7830  142.6050 C   0  0  0  0  0  3  0  0  0  0  0  0
  182.6890  176.8590  139.4440 C   0  0  1  0  0  3  0  0  0  0  0  0
  186.0110  178.1560  138.9540 C   0  0  0  0  0  2  0  0  0  0  0  0
  181.2250  176.6980  139.7000 C   0  0  0  0  0  0  0  0  0  0  0  0
  180.5240  177.6560  140.4270 O   0  0  0  0  0  1  0  0  0  0  0  0
  180.6240  175.6820  139.2610 O   0  0  0  0  0  0  0  0  0  0  0  0
  188.1930  178.9120  137.1850 C   0  0  0  0  0  2  0  0  0  0  0  0
  189.1450  178.0590  136.3630 C   0  0  0  0  0  2  0  0  0  0  0  0
  188.9670  176.5820  136.6850 C   0  0  0  0  0  2  0  0  0  0  0  0
  191.0280  175.4250  137.6030 C   0  0  0  0  0  0  0  0  0  0  0  0
  190.6450  175.6150  138.7900 O   0  0  0  0  0  0  0  0  0  0  0  0
  190.2250  175.8680  136.5030 N   0  0  0  0  0  2  0  0  0  0  0  0
  192.3650  174.8030  137.3590 C   0  0  0  0  0  2  0  0  0  0  0  0
  193.4890  175.5890  138.0210 C   0  0  2  0  0  3  0  0  0  0  0  0
  193.7890  176.7180  137.2580 O   0  0  0  0  0  1  0  0  0  0  0  0
  195.5270  175.0940  139.1640 O   0  0  0  0  0  1  0  0  0  0  0  0
  194.7060  174.6930  138.1080 C   0  0  0  0  0  2  0  0  0  0  0  0
  1 15  2  0  0  0  0
  1  5  1  0  0  0  0
  2  6  2  0  0  0  0
  4 12  1  0  0  0  0
  4  5  2  0  0  0  0
  5  9  1  0  0  0  0
  6  1  1  0  0  0  0
  7 17  1  0  0  0  0
  8  7  1  6  0  0  0
  8 13  1  0  0  0  0
  9 10  1  0  0  0  0
 12  3  2  0  0  0  0
 13 11  1  6  0  0  0
 13 12  1  0  0  0  0
 14  8  1  0  0  0  0
 15 16  1  0  0  0  0
 16 10  2  0  0  0  0
 17 19  1  1  0  0  0
 17 11  1  0  0  0  0
 18 14  1  0  0  0  0
 18  6  1  0  0  0  0
 19 20  1  0  0  0  0
 21 19  2  0  0  0  0
 22  2  1  0  0  0  0
 23 24  1  0  0  0  0
 23 22  1  0  0  0  0
 25 26  2  0  0  0  0
 27 24  1  0  0  0  0
 27 25  1  0  0  0  0
 28 25  1  0  0  0  0
 28 29  1  0  0  0  0
 29 30  1  6  0  0  0
 29 32  1  0  0  0  0
 32 31  1  0  0  0  0
M  END
>  <MODEL>
4

>  <REMARK>
 VINA RESULT:      -6.4      3.777      7.914
  Name = 
  8 active torsions:
  status: ('A' for Active; 'I' for Inactive)
    1  A    between atoms: N_2  and  C_10
    2  A    between atoms: C_3  and  C_32
    3  A    between atoms: C_5  and  C_10
    4  A    between atoms: C_5  and  C_17
    5  A    between atoms: C_9  and  C_30
    6  A    between atoms: C_16  and  C_28
    7  A    between atoms: C_16  and  C_32
    8  A    between atoms: C_17  and  N_22
                            x       y       z     vdW  Elec       q    Type
                         _______ _______ _______ _____ _____    ______ ____

>  <TORSDO>
F 8

$$$$
=
 OpenBabel10232408123D

 32 34  0  0  1  0  0  0  0  0999 V2000
  186.8790  178.4000  142.1940 C   0  0  0  0  0  0  0  0  0  0  0  0
  189.2670  178.0510  142.1670 N   0  0  0  0  0  0  0  0  0  0  0  0
  184.3070  179.9790  138.8680 O   0  0  0  0  0  0  0  0  0  0  0  0
  186.1380  179.4880  140.2320 N   0  0  0  0  0  0  0  0  0  0  0  0
  185.8080  179.0100  141.3840 C   0  0  0  0  0  0  0  0  0  0  0  0
  188.1380  177.9800  141.5240 C   0  0  0  0  0  0  0  0  0  0  0  0
  187.8430  176.6920  137.0660 S   0  0  0  0  0  0  0  0  0  0  0  0
  187.4560  178.2760  137.8800 C   0  0  1  0  0  3  0  0  0  0  0  0
  184.4440  178.8440  141.7930 N   0  0  0  0  0  0  0  0  0  0  0  0
  184.1800  178.4210  143.1390 C   0  0  0  0  0  3  0  0  0  0  0  0
  185.3880  177.0000  138.2650 C   0  0  0  0  0  2  0  0  0  0  0  0
  185.3970  179.3680  139.0340 C   0  0  0  0  0  0  0  0  0  0  0  0
  185.9150  178.3960  138.0100 C   0  0  1  0  0  3  0  0  0  0  0  0
  188.2560  178.4680  139.1120 N   0  0  0  0  0  2  0  0  0  0  0  0
  186.5740  177.9400  143.4140 C   0  0  0  0  0  3  0  0  0  0  0  0
  185.1870  178.0170  143.9320 C   0  0  0  0  0  2  0  0  0  0  0  0
  186.1640  176.0370  137.3780 C   0  0  1  0  0  3  0  0  0  0  0  0
  188.0600  177.4120  140.1130 C   0  0  0  0  0  2  0  0  0  0  0  0
  185.4430  175.8180  136.0880 C   0  0  0  0  0  0  0  0  0  0  0  0
  184.1070  176.1870  135.9530 O   0  0  0  0  0  1  0  0  0  0  0  0
  186.0470  175.2890  135.1180 O   0  0  0  0  0  0  0  0  0  0  0  0
  190.5480  177.6330  141.6030 C   0  0  0  0  0  2  0  0  0  0  0  0
  191.5620  177.3460  142.6990 C   0  0  0  0  0  2  0  0  0  0  0  0
  191.4990  178.4070  143.7880 C   0  0  0  0  0  2  0  0  0  0  0  0
  190.7880  177.2860  145.9480 C   0  0  0  0  0  0  0  0  0  0  0  0
  191.9680  176.9050  146.1770 O   0  0  0  0  0  0  0  0  0  0  0  0
  190.4890  178.0570  144.7790 N   0  0  0  0  0  2  0  0  0  0  0  0
  189.6920  176.8560  146.8700 C   0  0  0  0  0  2  0  0  0  0  0  0
  189.0480  178.0400  147.5790 C   0  0  2  0  0  3  0  0  0  0  0  0
  189.8160  178.4010  148.6870 O   0  0  0  0  0  1  0  0  0  0  0  0
  186.7030  178.0840  147.1270 O   0  0  0  0  0  1  0  0  0  0  0  0
  187.6630  177.6250  148.0310 C   0  0  0  0  0  2  0  0  0  0  0  0
  1 15  2  0  0  0  0
  3 12  2  0  0  0  0
  4  5  2  0  0  0  0
  5  9  1  0  0  0  0
  5  1  1  0  0  0  0
  6  2  2  0  0  0  0
  6  1  1  0  0  0  0
  7 17  1  0  0  0  0
  8  7  1  1  0  0  0
  8 13  1  0  0  0  0
  8 14  1  0  0  0  0
  9 10  2  0  0  0  0
 10 16  1  0  0  0  0
 12  4  1  0  0  0  0
 13 11  1  1  0  0  0
 13 12  1  0  0  0  0
 14 18  1  0  0  0  0
 15 16  1  0  0  0  0
 17 19  1  6  0  0  0
 17 11  1  0  0  0  0
 18  6  1  0  0  0  0
 20 19  1  0  0  0  0
 21 19  2  0  0  0  0
 22  2  1  0  0  0  0
 22 23  1  0  0  0  0
 23 24  1  0  0  0  0
 24 27  1  0  0  0  0
 25 26  2  0  0  0  0
 25 28  1  0  0  0  0
 27 25  1  0  0  0  0
 28 29  1  0  0  0  0
 29 32  1  0  0  0  0
 29 30  1  1  0  0  0
 31 32  1  0  0  0  0
M  END
>  <MODEL>
5

>  <REMARK>
 VINA RESULT:      -6.1      2.243      2.859
  Name = 
  8 active torsions:
  status: ('A' for Active; 'I' for Inactive)
    1  A    between atoms: N_2  and  C_10
    2  A    between atoms: C_3  and  C_32
    3  A    between atoms: C_5  and  C_10
    4  A    between atoms: C_5  and  C_17
    5  A    between atoms: C_9  and  C_30
    6  A    between atoms: C_16  and  C_28
    7  A    between atoms: C_16  and  C_32
    8  A    between atoms: C_17  and  N_22
                            x       y       z     vdW  Elec       q    Type
                         _______ _______ _______ _____ _____    ______ ____

>  <TORSDO>
F 8

$$$$
=
 OpenBabel10232408123D

 32 34  0  0  1  0  0  0  0  0999 V2000
  182.6740  178.9840  142.2410 C   0  0  0  0  0  0  0  0  0  0  0  0
  185.0850  179.0820  142.2820 N   0  0  0  0  0  0  0  0  0  0  0  0
  179.9890  179.1970  138.6480 O   0  0  0  0  0  0  0  0  0  0  0  0
  181.8250  179.4010  140.0760 N   0  0  0  0  0  0  0  0  0  0  0  0
  181.5430  179.1690  141.3130 C   0  0  0  0  0  0  0  0  0  0  0  0
  184.0120  178.6500  141.6860 C   0  0  0  0  0  0  0  0  0  0  0  0
  184.1210  176.2710  137.6930 S   0  0  0  0  0  0  0  0  0  0  0  0
  183.4270  177.9090  138.0890 C   0  0  1  0  0  3  0  0  0  0  0  0
  180.2170  178.8620  141.7620 N   0  0  0  0  0  0  0  0  0  0  0  0
  179.9820  178.7430  143.1740 C   0  0  0  0  0  3  0  0  0  0  0  0
  181.6070  176.4110  138.7970 C   0  0  0  0  0  2  0  0  0  0  0  0
  181.1630  178.8560  138.9520 C   0  0  0  0  0  0  0  0  0  0  0  0
  181.8860  177.7730  138.1980 C   0  0  1  0  0  3  0  0  0  0  0  0
  184.1320  178.5410  139.2280 N   0  0  0  0  0  2  0  0  0  0  0  0
  182.4110  178.7910  143.5400 C   0  0  0  0  0  3  0  0  0  0  0  0
  181.0140  178.7380  144.0330 C   0  0  0  0  0  2  0  0  0  0  0  0
  182.5770  175.4180  138.1720 C   0  0  1  0  0  3  0  0  0  0  0  0
  184.0910  177.7470  140.4620 C   0  0  0  0  0  2  0  0  0  0  0  0
  181.9550  174.7600  136.9830 C   0  0  0  0  0  0  0  0  0  0  0  0
  182.7500  174.1790  135.9990 O   0  0  0  0  0  0  0  0  0  0  0  0
  180.7010  174.7390  136.8680 O   0  0  0  0  0  1  0  0  0  0  0  0
  186.4420  178.7790  141.8290 C   0  0  0  0  0  2  0  0  0  0  0  0
  187.0030  177.5650  142.5510 C   0  0  0  0  0  2  0  0  0  0  0  0
  188.4950  177.7260  142.8040 C   0  0  0  0  0  2  0  0  0  0  0  0
  189.8340  177.9680  144.9440 C   0  0  0  0  0  0  0  0  0  0  0  0
  190.4570  178.9610  144.4800 O   0  0  0  0  0  0  0  0  0  0  0  0
  188.8260  177.3160  144.1640 N   0  0  0  0  0  2  0  0  0  0  0  0
  190.2130  177.4320  146.2880 C   0  0  0  0  0  2  0  0  0  0  0  0
  191.6100  176.8270  146.2860 C   0  0  2  0  0  3  0  0  0  0  0  0
  191.8170  176.1220  145.0990 O   0  0  0  0  0  1  0  0  0  0  0  0
  192.8970  176.1290  148.1730 O   0  0  0  0  0  1  0  0  0  0  0  0
  191.7190  175.8830  147.4650 C   0  0  0  0  0  2  0  0  0  0  0  0
  1 15  2  0  0  0  0
  3 12  2  0  0  0  0
  4  5  2  0  0  0  0
  5  9  1  0  0  0  0
  5  1  1  0  0  0  0
  6  1  1  0  0  0  0
  6  2  2  0  0  0  0
  7 17  1  0  0  0  0
  8  7  1  1  0  0  0
  8 13  1  0  0  0  0
  8 14  1  0  0  0  0
  9 10  2  0  0  0  0
 10 16  1  0  0  0  0
 12  4  1  0  0  0  0
 13 11  1  1  0  0  0
 13 12  1  0  0  0  0
 14 18  1  0  0  0  0
 15 16  1  0  0  0  0
 17 19  1  6  0  0  0
 17 11  1  0  0  0  0
 18  6  1  0  0  0  0
 20 19  2  0  0  0  0
 21 19  1  0  0  0  0
 22  2  1  0  0  0  0
 22 23  1  0  0  0  0
 23 24  1  0  0  0  0
 24 27  1  0  0  0  0
 25 28  1  0  0  0  0
 26 25  2  0  0  0  0
 27 25  1  0  0  0  0
 29 30  1  6  0  0  0
 29 28  1  0  0  0  0
 29 32  1  0  0  0  0
 32 31  1  0  0  0  0
M  END
>  <MODEL>
6

>  <REMARK>
 VINA RESULT:      -6.0      4.379      6.185
  Name = 
  8 active torsions:
  status: ('A' for Active; 'I' for Inactive)
    1  A    between atoms: N_2  and  C_10
    2  A    between atoms: C_3  and  C_32
    3  A    between atoms: C_5  and  C_10
    4  A    between atoms: C_5  and  C_17
    5  A    between atoms: C_9  and  C_30
    6  A    between atoms: C_16  and  C_28
    7  A    between atoms: C_16  and  C_32
    8  A    between atoms: C_17  and  N_22
                            x       y       z     vdW  Elec       q    Type
                         _______ _______ _______ _____ _____    ______ ____

>  <TORSDO>
F 8

$$$$
=
 OpenBabel10232408123D

 32 34  0  0  1  0  0  0  0  0999 V2000
  187.7060  178.1160  140.9420 C   0  0  0  0  0  0  0  0  0  0  0  0
  188.3540  178.7610  138.7080 N   0  0  0  0  0  0  0  0  0  0  0  0
  184.0010  179.3310  143.1710 O   0  0  0  0  0  0  0  0  0  0  0  0
  185.7760  179.2780  141.6540 N   0  0  0  0  0  0  0  0  0  0  0  0
  186.6990  178.4350  141.9720 C   0  0  0  0  0  0  0  0  0  0  0  0
  187.3970  178.4130  139.5180 C   0  0  0  0  0  0  0  0  0  0  0  0
  182.9280  178.2810  138.2420 S   0  0  0  0  0  0  0  0  0  0  0  0
  183.7920  179.3220  139.4640 C   0  0  1  0  0  3  0  0  0  0  0  0
  186.6520  177.6460  143.1670 N   0  0  0  0  0  2  0  0  0  0  0  0
  187.7870  176.8290  143.4930 C   0  0  0  0  0  3  0  0  0  0  0  0
  183.3600  177.2790  140.7660 C   0  0  0  0  0  2  0  0  0  0  0  0
  184.4050  179.1800  141.9870 C   0  0  0  0  0  0  0  0  0  0  0  0
  183.4650  178.7850  140.8820 C   0  0  1  0  0  3  0  0  0  0  0  0
  185.2220  179.4980  139.1200 N   0  0  0  0  0  2  0  0  0  0  0  0
  188.7040  177.2830  141.2600 C   0  0  0  0  0  3  0  0  0  0  0  0
  188.7840  176.6720  142.6090 C   0  0  0  0  0  3  0  0  0  0  0  0
  182.6280  176.9590  139.4700 C   0  0  1  0  0  3  0  0  0  0  0  0
  185.9660  178.2360  139.0280 C   0  0  0  0  0  2  0  0  0  0  0  0
  181.1640  176.8050  139.7230 C   0  0  0  0  0  0  0  0  0  0  0  0
  180.6170  175.5500  139.9770 O   0  0  0  0  0  1  0  0  0  0  0  0
  180.4170  177.8190  139.6970 O   0  0  0  0  0  0  0  0  0  0  0  0
  188.1530  179.0410  137.2880 C   0  0  0  0  0  2  0  0  0  0  0  0
  189.1660  178.2970  136.4330 C   0  0  0  0  0  2  0  0  0  0  0  0
  189.1780  176.8130  136.7740 C   0  0  0  0  0  2  0  0  0  0  0  0
  187.6280  174.8120  136.6220 C   0  0  0  0  0  0  0  0  0  0  0  0
  188.5200  174.0460  137.0790 O   0  0  0  0  0  0  0  0  0  0  0  0
  187.8870  176.2110  136.4620 N   0  0  0  0  0  2  0  0  0  0  0  0
  186.3250  174.2290  136.1760 C   0  0  0  0  0  2  0  0  0  0  0  0
  185.3790  173.9910  137.3450 C   0  0  2  0  0  3  0  0  0  0  0  0
  185.7030  172.7900  137.9770 O   0  0  0  0  0  1  0  0  0  0  0  0
  183.4940  175.1990  136.5130 O   0  0  0  0  0  1  0  0  0  0  0  0
  183.9670  173.9180  136.8030 C   0  0  0  0  0  2  0  0  0  0  0  0
  1 15  2  0  0  0  0
  1  5  1  0  0  0  0
  2  6  2  0  0  0  0
  4  5  2  0  0  0  0
  4 12  1  0  0  0  0
  5  9  1  0  0  0  0
  6  1  1  0  0  0  0
  7 17  1  0  0  0  0
  8  7  1  6  0  0  0
  8 13  1  0  0  0  0
  9 10  1  0  0  0  0
 12  3  2  0  0  0  0
 13 11  1  6  0  0  0
 13 12  1  0  0  0  0
 14  8  1  0  0  0  0
 15 16  1  0  0  0  0
 16 10  2  0  0  0  0
 17 19  1  1  0  0  0
 17 11  1  0  0  0  0
 18 14  1  0  0  0  0
 18  6  1  0  0  0  0
 19 20  1  0  0  0  0
 21 19  2  0  0  0  0
 22  2  1  0  0  0  0
 23 24  1  0  0  0  0
 23 22  1  0  0  0  0
 25 26  2  0  0  0  0
 27 25  1  0  0  0  0
 27 24  1  0  0  0  0
 28 25  1  0  0  0  0
 28 29  1  0  0  0  0
 29 30  1  6  0  0  0
 31 32  1  0  0  0  0
 32 29  1  0  0  0  0
M  END
>  <MODEL>
7

>  <REMARK>
 VINA RESULT:      -5.9      3.702      7.882
  Name = 
  8 active torsions:
  status: ('A' for Active; 'I' for Inactive)
    1  A    between atoms: N_2  and  C_10
    2  A    between atoms: C_3  and  C_32
    3  A    between atoms: C_5  and  C_10
    4  A    between atoms: C_5  and  C_17
    5  A    between atoms: C_9  and  C_30
    6  A    between atoms: C_16  and  C_28
    7  A    between atoms: C_16  and  C_32
    8  A    between atoms: C_17  and  N_22
                            x       y       z     vdW  Elec       q    Type
                         _______ _______ _______ _____ _____    ______ ____

>  <TORSDO>
F 8

$$$$
=
 OpenBabel10232408123D

 32 34  0  0  1  0  0  0  0  0999 V2000
  190.4040  177.2310  139.2090 C   0  0  0  0  0  0  0  0  0  0  0  0
  192.3070  176.0730  138.2820 N   0  0  0  0  0  0  0  0  0  0  0  0
  187.1510  179.3730  136.9720 O   0  0  0  0  0  0  0  0  0  0  0  0
  189.1830  178.3720  137.5370 N   0  0  0  0  0  0  0  0  0  0  0  0
  189.3000  178.1190  138.7970 C   0  0  0  0  0  0  0  0  0  0  0  0
  191.0410  176.3550  138.1900 C   0  0  0  0  0  0  0  0  0  0  0  0
  188.3870  174.9460  134.6420 S   0  0  0  0  0  0  0  0  0  0  0  0
  188.8770  176.6180  135.1770 C   0  0  1  0  0  3  0  0  0  0  0  0
  188.2910  178.4660  139.7540 N   0  0  0  0  0  0  0  0  0  0  0  0
  188.5680  178.2550  141.1470 C   0  0  0  0  0  3  0  0  0  0  0  0
  186.9520  176.1710  136.6440 C   0  0  0  0  0  2  0  0  0  0  0  0
  187.9750  178.4350  136.8060 C   0  0  0  0  0  0  0  0  0  0  0  0
  187.6710  177.2750  135.8970 C   0  0  1  0  0  3  0  0  0  0  0  0
  190.1700  176.6040  135.9000 N   0  0  0  0  0  2  0  0  0  0  0  0
  190.5780  176.9910  140.5150 C   0  0  0  0  0  3  0  0  0  0  0  0
  189.6670  177.5820  141.5250 C   0  0  0  0  0  2  0  0  0  0  0  0
  186.9310  174.9390  135.7490 C   0  0  1  0  0  3  0  0  0  0  0  0
  190.1690  175.7540  137.0960 C   0  0  0  0  0  2  0  0  0  0  0  0
  185.6690  174.8970  134.9500 C   0  0  0  0  0  0  0  0  0  0  0  0
  184.8420  176.0140  134.8740 O   0  0  0  0  0  1  0  0  0  0  0  0
  185.3490  173.8390  134.3460 O   0  0  0  0  0  0  0  0  0  0  0  0
  193.0130  175.1980  137.3480 C   0  0  0  0  0  2  0  0  0  0  0  0
  193.7040  176.0010  136.2590 C   0  0  0  0  0  2  0  0  0  0  0  0
  194.8830  175.2300  135.6810 C   0  0  0  0  0  2  0  0  0  0  0  0
  196.9440  174.9640  137.1350 C   0  0  0  0  0  0  0  0  0  0  0  0
  197.5040  175.9460  136.5770 O   0  0  0  0  0  0  0  0  0  0  0  0
  195.6240  174.5650  136.7460 N   0  0  0  0  0  2  0  0  0  0  0  0
  197.7020  174.1720  138.1510 C   0  0  0  0  0  2  0  0  0  0  0  0
  198.5430  175.0630  139.0560 C   0  0  2  0  0  3  0  0  0  0  0  0
  199.8430  174.5620  139.1360 O   0  0  0  0  0  1  0  0  0  0  0  0
  196.5620  175.4140  140.3420 O   0  0  0  0  0  1  0  0  0  0  0  0
  197.9120  175.0700  140.4320 C   0  0  0  0  0  2  0  0  0  0  0  0
  1 15  2  0  0  0  0
  4  5  2  0  0  0  0
  5  1  1  0  0  0  0
  5  9  1  0  0  0  0
  6  2  2  0  0  0  0
  6  1  1  0  0  0  0
  7 17  1  0  0  0  0
  8  7  1  1  0  0  0
  8 13  1  0  0  0  0
  8 14  1  0  0  0  0
  9 10  2  0  0  0  0
 10 16  1  0  0  0  0
 12  3  2  0  0  0  0
 12  4  1  0  0  0  0
 13 11  1  1  0  0  0
 13 12  1  0  0  0  0
 14 18  1  0  0  0  0
 15 16  1  0  0  0  0
 17 19  1  6  0  0  0
 17 11  1  0  0  0  0
 18  6  1  0  0  0  0
 20 19  1  0  0  0  0
 21 19  2  0  0  0  0
 22  2  1  0  0  0  0
 23 22  1  0  0  0  0
 24 23  1  0  0  0  0
 24 27  1  0  0  0  0
 25 28  1  0  0  0  0
 26 25  2  0  0  0  0
 27 25  1  0  0  0  0
 28 29  1  0  0  0  0
 29 30  1  1  0  0  0
 29 32  1  0  0  0  0
 31 32  1  0  0  0  0
M  END
>  <MODEL>
8

>  <REMARK>
 VINA RESULT:      -5.9      4.545      7.604
  Name = 
  8 active torsions:
  status: ('A' for Active; 'I' for Inactive)
    1  A    between atoms: N_2  and  C_10
    2  A    between atoms: C_3  and  C_32
    3  A    between atoms: C_5  and  C_10
    4  A    between atoms: C_5  and  C_17
    5  A    between atoms: C_9  and  C_30
    6  A    between atoms: C_16  and  C_28
    7  A    between atoms: C_16  and  C_32
    8  A    between atoms: C_17  and  N_22
                            x       y       z     vdW  Elec       q    Type
                         _______ _______ _______ _____ _____    ______ ____

>  <TORSDO>
F 8

$$$$
=
 OpenBabel10232408123D

 32 34  0  0  1  0  0  0  0  0999 V2000
  185.1460  178.7620  141.7010 C   0  0  0  0  0  0  0  0  0  0  0  0
  186.9370  178.7340  140.0830 N   0  0  0  0  0  0  0  0  0  0  0  0
  180.7800  179.4850  140.9340 O   0  0  0  0  0  0  0  0  0  0  0  0
  183.1060  179.4450  140.7250 N   0  0  0  0  0  0  0  0  0  0  0  0
  183.7150  179.1000  141.8080 C   0  0  0  0  0  0  0  0  0  0  0  0
  185.7070  178.4210  140.3660 C   0  0  0  0  0  0  0  0  0  0  0  0
  182.8210  176.4720  137.2860 S   0  0  0  0  0  0  0  0  0  0  0  0
  182.7620  178.0920  138.1190 C   0  0  1  0  0  3  0  0  0  0  0  0
  183.0220  178.8150  143.0300 N   0  0  0  0  0  0  0  0  0  0  0  0
  183.7960  178.5600  144.2120 C   0  0  0  0  0  3  0  0  0  0  0  0
  181.7570  176.6210  139.8170 C   0  0  0  0  0  2  0  0  0  0  0  0
  181.8030  179.0550  140.3370 C   0  0  0  0  0  0  0  0  0  0  0  0
  181.7000  178.0230  139.2480 C   0  0  1  0  0  3  0  0  0  0  0  0
  184.1150  178.5650  138.4920 N   0  0  0  0  0  2  0  0  0  0  0  0
  185.8150  178.4470  142.8170 C   0  0  0  0  0  3  0  0  0  0  0  0
  185.1280  178.4130  144.1310 C   0  0  0  0  0  2  0  0  0  0  0  0
  181.9300  175.6510  138.6560 C   0  0  1  0  0  3  0  0  0  0  0  0
  184.8360  177.6490  139.3840 C   0  0  0  0  0  2  0  0  0  0  0  0
  180.6010  175.1540  138.1900 C   0  0  0  0  0  0  0  0  0  0  0  0
  180.0070  175.6860  137.0480 O   0  0  0  0  0  0  0  0  0  0  0  0
  180.0100  174.2510  138.8400 O   0  0  0  0  0  1  0  0  0  0  0  0
  187.5840  178.4130  138.8120 C   0  0  0  0  0  2  0  0  0  0  0  0
  189.0980  178.4230  138.9490 C   0  0  0  0  0  2  0  0  0  0  0  0
  189.6240  177.0290  139.2600 C   0  0  0  0  0  2  0  0  0  0  0  0
  190.2700  176.9440  141.7100 C   0  0  0  0  0  0  0  0  0  0  0  0
  189.0760  176.7240  142.0510 O   0  0  0  0  0  0  0  0  0  0  0  0
  190.6150  177.0880  140.3280 N   0  0  0  0  0  2  0  0  0  0  0  0
  191.3080  177.1300  142.7700 C   0  0  0  0  0  2  0  0  0  0  0  0
  190.7690  177.9030  143.9660 C   0  0  2  0  0  3  0  0  0  0  0  0
  190.8570  179.2740  143.7200 O   0  0  0  0  0  1  0  0  0  0  0  0
  191.6080  176.1650  145.3720 O   0  0  0  0  0  1  0  0  0  0  0  0
  191.6060  177.5470  145.1760 C   0  0  0  0  0  2  0  0  0  0  0  0
  1  5  1  0  0  0  0
  1 15  2  0  0  0  0
  2  6  2  0  0  0  0
  4  5  2  0  0  0  0
  5  9  1  0  0  0  0
  6  1  1  0  0  0  0
  7 17  1  0  0  0  0
  8  7  1  1  0  0  0
  8 14  1  0  0  0  0
  8 13  1  0  0  0  0
  9 10  2  0  0  0  0
 12  4  1  0  0  0  0
 12  3  2  0  0  0  0
 13 11  1  1  0  0  0
 13 12  1  0  0  0  0
 14 18  1  0  0  0  0
 15 16  1  0  0  0  0
 16 10  1  0  0  0  0
 17 19  1  6  0  0  0
 17 11  1  0  0  0  0
 18  6  1  0  0  0  0
 19 21  1  0  0  0  0
 20 19  2  0  0  0  0
 22 23  1  0  0  0  0
 22  2  1  0  0  0  0
 23 24  1  0  0  0  0
 24 27  1  0  0  0  0
 25 26  2  0  0  0  0
 25 28  1  0  0  0  0
 27 25  1  0  0  0  0
 28 29  1  0  0  0  0
 29 30  1  6  0  0  0
 29 32  1  0  0  0  0
 32 31  1  0  0  0  0
M  END
>  <MODEL>
9

>  <REMARK>
 VINA RESULT:      -5.7      4.095      6.351
  Name = 
  8 active torsions:
  status: ('A' for Active; 'I' for Inactive)
    1  A    between atoms: N_2  and  C_10
    2  A    between atoms: C_3  and  C_32
    3  A    between atoms: C_5  and  C_10
    4  A    between atoms: C_5  and  C_17
    5  A    between atoms: C_9  and  C_30
    6  A    between atoms: C_16  and  C_28
    7  A    between atoms: C_16  and  C_32
    8  A    between atoms: C_17  and  N_22
                            x       y       z     vdW  Elec       q    Type
                         _______ _______ _______ _____ _____    ______ ____

>  <TORSDO>
F 8

$$$$
