=
 OpenBabel10232410163D

 41 49  0  0  1  0  0  0  0  0999 V2000
  186.3700  178.5630  138.6460 N   0  0  0  0  0  0  0  0  0  0  0  0
  191.9450  176.3940  137.7430 C   0  0  0  0  0  2  0  0  0  0  0  0
  189.3050  176.6750  137.6190 C   0  0  0  0  0  0  0  0  0  0  0  0
  187.9470  175.0670  136.3430 C   0  0  0  0  0  3  0  0  0  0  0  0
  189.0200  177.8320  139.5840 N   0  0  0  0  0  2  0  0  0  0  0  0
  186.7190  175.2670  136.8240 C   0  0  0  0  0  3  0  0  0  0  0  0
  184.2820  177.8830  137.8110 N   0  0  0  0  0  0  0  0  0  0  0  0
  191.1800  175.4640  138.4830 O   0  0  0  0  0  0  0  0  0  0  0  0
  186.2100  176.5350  137.3860 C   0  0  0  0  0  0  0  0  0  0  0  0
  190.6250  176.7470  138.3080 C   0  0  1  0  0  0  0  0  0  0  0  0
  184.8400  176.7720  137.2700 C   0  0  0  0  0  3  0  0  0  0  0  0
  186.9870  177.4750  138.1090 C   0  0  0  0  0  0  0  0  0  0  0  0
  185.0390  178.7780  138.4910 C   0  0  0  0  0  0  0  0  0  0  0  0
  188.9690  176.1490  136.2470 C   0  0  2  0  0  3  0  0  0  0  0  0
  188.4270  177.2930  138.4010 C   0  0  0  0  0  0  0  0  0  0  0  0
  184.4360  179.9340  139.0580 N   0  0  0  0  0  1  0  0  0  0  0  0
  190.4470  177.5290  139.6120 C   0  0  2  0  0  3  0  0  0  0  0  0
  191.4980  177.3740  143.1400 C   0  0  0  0  0  2  0  0  0  0  0  0
  189.6040  176.6490  141.8210 C   0  0  0  0  0  2  0  0  0  0  0  0
  188.1150  176.5030  144.2570 O   0  0  0  0  0  0  0  0  0  0  0  0
  190.8010  176.7500  140.8860 C   0  0  2  0  0  3  0  0  0  0  0  0
  191.8910  177.4690  141.6790 C   0  0  0  0  0  2  0  0  0  0  0  0
  190.1130  176.9580  143.1410 N   0  0  0  0  0  0  0  0  0  0  0  0
  189.3210  176.8670  144.3290 C   0  0  0  0  0  0  0  0  0  0  0  0
  189.8970  177.1890  145.5970 N   0  0  0  0  0  2  0  0  0  0  0  0
  188.9790  178.0810  148.9570 N   0  0  0  0  0  2  0  0  0  0  0  0
  189.1340  177.1190  146.8320 C   0  0  1  0  0  3  0  0  0  0  0  0
  189.4000  178.3270  147.6380 N   0  0  1  0  0  0  0  0  0  0  0  0
  187.5810  177.8940  149.0090 C   0  0  0  0  0  3  0  0  0  0  0  0
  187.0780  177.9340  147.8290 N   0  0  0  0  0  0  0  0  0  0  0  0
  188.1420  178.2030  146.8600 C   0  0  2  0  0  3  0  0  0  0  0  0
  190.1700  175.6580  135.4560 C   0  0  1  0  0  3  0  0  0  0  0  0
  190.2030  174.1760  135.4430 C   0  0  1  0  0  3  0  0  0  0  0  0
  189.7220  174.9180  134.3470 O   0  0  0  0  0  0  0  0  0  0  0  0
  194.2010  172.7900  134.6930 C   0  0  0  0  0  0  0  0  0  0  0  0
  191.9410  172.3600  135.4510 C   0  0  0  0  0  3  0  0  0  0  0  0
  193.8560  174.1160  134.4150 C   0  0  0  0  0  3  0  0  0  0  0  0
  191.5870  173.6840  135.1590 C   0  0  0  0  0  0  0  0  0  0  0  0
  195.5860  172.3140  134.4410 C   0  0  0  0  0  1  0  0  0  0  0  0
  192.5530  174.5640  134.6520 C   0  0  0  0  0  3  0  0  0  0  0  0
  193.2450  171.9140  135.2140 C   0  0  0  0  0  3  0  0  0  0  0  0
  2  8  1  0  0  0  0
  3 10  1  0  0  0  0
  3 15  2  0  0  0  0
  4  6  2  0  0  0  0
  6  9  1  0  0  0  0
  7 13  1  0  0  0  0
  9 12  2  0  0  0  0
 10  2  1  6  0  0  0
 10  8  1  0  0  0  0
 10 17  1  0  0  0  0
 11  9  1  0  0  0  0
 11  7  2  0  0  0  0
 12 15  1  0  0  0  0
 12  1  1  0  0  0  0
 13  1  2  0  0  0  0
 13 16  1  0  0  0  0
 14  4  1  1  0  0  0
 14  3  1  0  0  0  0
 15  5  1  0  0  0  0
 17  5  1  1  0  0  0
 17 21  1  0  0  0  0
 18 23  1  0  0  0  0
 19 23  1  0  0  0  0
 20 24  2  0  0  0  0
 21 22  1  1  0  0  0
 21 19  1  0  0  0  0
 22 18  1  0  0  0  0
 23 24  1  0  0  0  0
 24 25  1  0  0  0  0
 26 29  1  0  0  0  0
 27 25  1  6  0  0  0
 27 31  1  0  0  0  0
 27 28  1  0  0  0  0
 28 26  1  1  0  0  0
 30 29  2  0  0  0  0
 31 28  1  0  0  0  0
 31 30  1  1  0  0  0
 32 34  1  6  0  0  0
 32 14  1  0  0  0  0
 33 38  1  6  0  0  0
 33 32  1  0  0  0  0
 34 33  1  0  0  0  0
 35 41  1  0  0  0  0
 37 40  1  0  0  0  0
 37 35  2  0  0  0  0
 38 36  1  0  0  0  0
 39 35  1  0  0  0  0
 40 38  2  0  0  0  0
 41 36  2  0  0  0  0
M  END
>  <MODEL>
1

>  <REMARK>
 VINA RESULT:      -8.9      0.000      0.000
  Name = 
  4 active torsions:
  status: ('A' for Active; 'I' for Inactive)
    1  A    between atoms: C_10  and  N_33
    2  A    between atoms: C_14  and  C_31
    3  A    between atoms: C_16  and  C_41
    4  A    between atoms: C_27  and  C_29
                            x       y       z     vdW  Elec       q    Type
                         _______ _______ _______ _____ _____    ______ ____

>  <TORSDO>
F 4

$$$$
=
 OpenBabel10232410163D

 41 49  0  0  1  0  0  0  0  0999 V2000
  190.8110  178.6670  143.0260 N   0  0  0  0  0  0  0  0  0  0  0  0
  187.6020  178.1270  137.9260 C   0  0  0  0  0  2  0  0  0  0  0  0
  188.2620  178.0740  140.5000 C   0  0  0  0  0  0  0  0  0  0  0  0
  186.6460  177.2730  142.1760 C   0  0  0  0  0  3  0  0  0  0  0  0
  190.5380  177.9020  140.2380 N   0  0  0  0  0  2  0  0  0  0  0  0
  187.4190  177.0070  143.2300 C   0  0  0  0  0  3  0  0  0  0  0  0
  190.2380  178.2890  145.2730 N   0  0  0  0  0  0  0  0  0  0  0  0
  187.8330  176.8510  138.4880 O   0  0  0  0  0  0  0  0  0  0  0  0
  188.6990  177.6730  143.5500 C   0  0  0  0  0  0  0  0  0  0  0  0
  188.5480  177.9290  139.0450 C   0  0  1  0  0  0  0  0  0  0  0  0
  189.0520  177.7480  144.8970 C   0  0  0  0  0  3  0  0  0  0  0  0
  189.6290  178.1510  142.5920 C   0  0  0  0  0  0  0  0  0  0  0  0
  191.1130  178.7510  144.3460 C   0  0  0  0  0  0  0  0  0  0  0  0
  186.9540  178.3540  141.1950 C   0  0  2  0  0  3  0  0  0  0  0  0
  189.4300  178.0320  141.1310 C   0  0  0  0  0  0  0  0  0  0  0  0
  192.3550  179.3080  144.7580 N   0  0  0  0  0  1  0  0  0  0  0  0
  190.0650  177.8280  138.8590 C   0  0  2  0  0  3  0  0  0  0  0  0
  191.8770  176.0070  136.2180 C   0  0  0  0  0  2  0  0  0  0  0  0
  191.9700  176.1910  138.6290 C   0  0  0  0  0  2  0  0  0  0  0  0
  194.6440  175.1920  138.4830 O   0  0  0  0  0  0  0  0  0  0  0  0
  190.5510  176.5310  138.1980 C   0  0  2  0  0  3  0  0  0  0  0  0
  190.5980  176.6790  136.6780 C   0  0  0  0  0  2  0  0  0  0  0  0
  192.6680  175.8200  137.4150 N   0  0  0  0  0  0  0  0  0  0  0  0
  194.0100  175.3250  137.4000 C   0  0  0  0  0  0  0  0  0  0  0  0
  194.6290  174.9790  136.1600 N   0  0  0  0  0  2  0  0  0  0  0  0
  197.5890  173.6920  134.5750 N   0  0  0  0  0  2  0  0  0  0  0  0
  195.9920  174.4780  136.0910 C   0  0  1  0  0  3  0  0  0  0  0  0
  196.4530  174.5120  134.6880 N   0  0  1  0  0  0  0  0  0  0  0  0
  198.6590  174.2100  135.3360 C   0  0  0  0  0  3  0  0  0  0  0  0
  198.2860  175.2560  135.9790 N   0  0  0  0  0  0  0  0  0  0  0  0
  196.8910  175.5540  135.6510 C   0  0  2  0  0  3  0  0  0  0  0  0
  185.7760  178.5470  140.2530 C   0  0  1  0  0  3  0  0  0  0  0  0
  184.5260  178.7340  141.0280 C   0  0  1  0  0  3  0  0  0  0  0  0
  185.2200  179.8220  140.4630 O   0  0  0  0  0  0  0  0  0  0  0  0
  181.1450  177.7590  138.5610 C   0  0  0  0  0  0  0  0  0  0  0  0
  182.8130  177.0970  140.1880 C   0  0  0  0  0  3  0  0  0  0  0  0
  181.6720  179.0530  138.5470 C   0  0  0  0  0  3  0  0  0  0  0  0
  183.3340  178.3990  140.1900 C   0  0  0  0  0  0  0  0  0  0  0  0
  179.9820  177.4200  137.7010 C   0  0  0  0  0  1  0  0  0  0  0  0
  182.7660  179.3720  139.3560 C   0  0  0  0  0  3  0  0  0  0  0  0
  181.7180  176.7800  139.3790 C   0  0  0  0  0  3  0  0  0  0  0  0
  1 13  2  0  0  0  0
  2  8  1  0  0  0  0
  3 15  2  0  0  0  0
  3 14  1  0  0  0  0
  4  6  2  0  0  0  0
  5 15  1  0  0  0  0
  6  9  1  0  0  0  0
  8 10  1  0  0  0  0
  9 11  1  0  0  0  0
 10  2  1  6  0  0  0
 10  3  1  0  0  0  0
 11  7  2  0  0  0  0
 12  1  1  0  0  0  0
 12  9  2  0  0  0  0
 13 16  1  0  0  0  0
 13  7  1  0  0  0  0
 14  4  1  1  0  0  0
 15 12  1  0  0  0  0
 17 10  1  0  0  0  0
 17  5  1  1  0  0  0
 18 22  1  0  0  0  0
 18 23  1  0  0  0  0
 21 22  1  6  0  0  0
 21 19  1  0  0  0  0
 21 17  1  0  0  0  0
 23 19  1  0  0  0  0
 24 23  1  0  0  0  0
 24 20  2  0  0  0  0
 25 24  1  0  0  0  0
 26 29  1  0  0  0  0
 27 25  1  6  0  0  0
 28 26  1  1  0  0  0
 28 31  1  0  0  0  0
 28 27  1  0  0  0  0
 29 30  2  0  0  0  0
 31 30  1  1  0  0  0
 31 27  1  0  0  0  0
 32 34  1  1  0  0  0
 32 33  1  0  0  0  0
 32 14  1  0  0  0  0
 33 38  1  6  0  0  0
 34 33  1  0  0  0  0
 35 41  1  0  0  0  0
 36 38  1  0  0  0  0
 37 35  2  0  0  0  0
 37 40  1  0  0  0  0
 39 35  1  0  0  0  0
 40 38  2  0  0  0  0
 41 36  2  0  0  0  0
M  END
>  <MODEL>
2

>  <REMARK>
 VINA RESULT:      -8.3      3.985      9.879
  Name = 
  4 active torsions:
  status: ('A' for Active; 'I' for Inactive)
    1  A    between atoms: C_10  and  N_33
    2  A    between atoms: C_14  and  C_31
    3  A    between atoms: C_16  and  C_41
    4  A    between atoms: C_27  and  C_29
                            x       y       z     vdW  Elec       q    Type
                         _______ _______ _______ _____ _____    ______ ____

>  <TORSDO>
F 4

$$$$
=
 OpenBabel10232410163D

 41 49  0  0  1  0  0  0  0  0999 V2000
  186.2860  177.2300  137.6300 N   0  0  0  0  0  0  0  0  0  0  0  0
  192.2630  176.3110  137.7870 C   0  0  0  0  0  2  0  0  0  0  0  0
  189.6780  175.9660  137.2740 C   0  0  0  0  0  0  0  0  0  0  0  0
  188.9110  173.9650  136.0630 C   0  0  0  0  0  3  0  0  0  0  0  0
  188.8440  177.2270  139.0040 N   0  0  0  0  0  2  0  0  0  0  0  0
  187.6090  173.9280  136.3440 C   0  0  0  0  0  3  0  0  0  0  0  0
  184.5490  176.0060  136.6260 N   0  0  0  0  0  0  0  0  0  0  0  0
  191.6020  175.3140  138.5390 O   0  0  0  0  0  0  0  0  0  0  0  0
  186.7610  175.0990  136.6520 C   0  0  0  0  0  0  0  0  0  0  0  0
  190.8250  176.4100  138.1170 C   0  0  1  0  0  0  0  0  0  0  0  0
  185.4080  175.0020  136.3230 C   0  0  0  0  0  3  0  0  0  0  0  0
  187.1960  176.2620  137.3360 C   0  0  0  0  0  0  0  0  0  0  0  0
  184.9820  177.1180  137.2710 C   0  0  0  0  0  0  0  0  0  0  0  0
  189.6850  175.2360  135.9550 C   0  0  2  0  0  3  0  0  0  0  0  0
  188.5750  176.4450  137.8390 C   0  0  0  0  0  0  0  0  0  0  0  0
  184.0650  178.1580  137.5870 N   0  0  0  0  0  1  0  0  0  0  0  0
  190.2790  177.2630  139.2640 C   0  0  2  0  0  3  0  0  0  0  0  0
  191.3150  177.7260  142.7700 C   0  0  0  0  0  2  0  0  0  0  0  0
  189.3780  176.8840  141.5900 C   0  0  0  0  0  2  0  0  0  0  0  0
  187.8810  177.3090  143.9880 O   0  0  0  0  0  0  0  0  0  0  0  0
  190.5800  176.7240  140.6700 C   0  0  2  0  0  3  0  0  0  0  0  0
  191.7150  177.5110  141.3230 C   0  0  0  0  0  2  0  0  0  0  0  0
  189.9060  177.4090  142.8330 N   0  0  0  0  0  0  0  0  0  0  0  0
  189.1090  177.6010  144.0050 C   0  0  0  0  0  0  0  0  0  0  0  0
  189.7030  178.1240  145.1950 N   0  0  0  0  0  2  0  0  0  0  0  0
  187.4320  177.2860  147.8530 N   0  0  0  0  0  2  0  0  0  0  0  0
  188.9360  178.3440  146.4090 C   0  0  1  0  0  3  0  0  0  0  0  0
  188.4640  177.0450  146.9290 N   0  0  1  0  0  0  0  0  0  0  0  0
  187.9200  177.9860  148.9770 C   0  0  0  0  0  3  0  0  0  0  0  0
  189.1610  178.2730  148.8230 N   0  0  0  0  0  0  0  0  0  0  0  0
  189.6290  177.7260  147.5480 C   0  0  2  0  0  3  0  0  0  0  0  0
  191.0730  174.9520  135.4070 C   0  0  1  0  0  3  0  0  0  0  0  0
  191.4100  173.5190  135.5820 C   0  0  1  0  0  3  0  0  0  0  0  0
  190.9740  174.0350  134.3460 O   0  0  0  0  0  0  0  0  0  0  0  0
  195.6780  173.0230  135.5190 C   0  0  0  0  0  0  0  0  0  0  0  0
  193.5820  172.9970  136.7330 C   0  0  0  0  0  3  0  0  0  0  0  0
  194.9950  173.3630  134.3480 C   0  0  0  0  0  3  0  0  0  0  0  0
  192.8920  173.3210  135.5570 C   0  0  0  0  0  0  0  0  0  0  0  0
  197.1550  172.8610  135.4980 C   0  0  0  0  0  1  0  0  0  0  0  0
  193.6060  173.5160  134.3670 C   0  0  0  0  0  3  0  0  0  0  0  0
  194.9720  172.8440  136.7120 C   0  0  0  0  0  3  0  0  0  0  0  0
  2  8  1  0  0  0  0
  3 15  2  0  0  0  0
  3 10  1  0  0  0  0
  4  6  2  0  0  0  0
  6  9  1  0  0  0  0
  7 13  1  0  0  0  0
  9 12  2  0  0  0  0
 10  2  1  6  0  0  0
 10  8  1  0  0  0  0
 10 17  1  0  0  0  0
 11  7  2  0  0  0  0
 11  9  1  0  0  0  0
 12  1  1  0  0  0  0
 12 15  1  0  0  0  0
 13 16  1  0  0  0  0
 13  1  2  0  0  0  0
 14  4  1  1  0  0  0
 14  3  1  0  0  0  0
 15  5  1  0  0  0  0
 17  5  1  6  0  0  0
 17 21  1  0  0  0  0
 18 23  1  0  0  0  0
 19 23  1  0  0  0  0
 20 24  2  0  0  0  0
 21 22  1  1  0  0  0
 21 19  1  0  0  0  0
 22 18  1  0  0  0  0
 23 24  1  0  0  0  0
 24 25  1  0  0  0  0
 26 29  1  0  0  0  0
 27 25  1  6  0  0  0
 27 28  1  0  0  0  0
 27 31  1  0  0  0  0
 28 31  1  0  0  0  0
 28 26  1  1  0  0  0
 30 29  2  0  0  0  0
 31 30  1  1  0  0  0
 32 34  1  6  0  0  0
 32 33  1  0  0  0  0
 32 14  1  0  0  0  0
 33 38  1  6  0  0  0
 34 33  1  0  0  0  0
 35 41  1  0  0  0  0
 37 40  1  0  0  0  0
 37 35  2  0  0  0  0
 38 36  1  0  0  0  0
 39 35  1  0  0  0  0
 40 38  2  0  0  0  0
 41 36  2  0  0  0  0
M  END
>  <MODEL>
3

>  <REMARK>
 VINA RESULT:      -8.3      1.090      1.457
  Name = 
  4 active torsions:
  status: ('A' for Active; 'I' for Inactive)
    1  A    between atoms: C_10  and  N_33
    2  A    between atoms: C_14  and  C_31
    3  A    between atoms: C_16  and  C_41
    4  A    between atoms: C_27  and  C_29
                            x       y       z     vdW  Elec       q    Type
                         _______ _______ _______ _____ _____    ______ ____

>  <TORSDO>
F 4

$$$$
=
 OpenBabel10232410163D

 41 49  0  0  1  0  0  0  0  0999 V2000
  187.8280  172.4350  136.4380 N   0  0  0  0  0  0  0  0  0  0  0  0
  187.6700  178.0400  138.7070 C   0  0  0  0  0  2  0  0  0  0  0  0
  187.1430  175.9290  137.1810 C   0  0  0  0  0  0  0  0  0  0  0  0
  185.5420  176.1140  135.3210 C   0  0  0  0  0  3  0  0  0  0  0  0
  189.1210  174.8050  137.5060 N   0  0  0  0  0  2  0  0  0  0  0  0
  185.8330  175.0500  134.5710 C   0  0  0  0  0  3  0  0  0  0  0  0
  186.6150  171.4260  134.6960 N   0  0  0  0  0  0  0  0  0  0  0  0
  188.2000  178.0650  137.3990 O   0  0  0  0  0  0  0  0  0  0  0  0
  186.4030  173.7790  135.0640 C   0  0  0  0  0  0  0  0  0  0  0  0
  188.0400  176.7990  137.9940 C   0  0  1  0  0  0  0  0  0  0  0  0
  186.0860  172.6250  134.3470 C   0  0  0  0  0  3  0  0  0  0  0  0
  187.3140  173.6600  136.1440 C   0  0  0  0  0  0  0  0  0  0  0  0
  187.4770  171.3260  135.7370 C   0  0  0  0  0  0  0  0  0  0  0  0
  185.6980  176.1310  136.8040 C   0  0  2  0  0  3  0  0  0  0  0  0
  187.8190  174.8160  136.9170 C   0  0  0  0  0  0  0  0  0  0  0  0
  188.0280  170.0620  136.0840 N   0  0  0  0  0  1  0  0  0  0  0  0
  189.3550  176.0510  138.2280 C   0  0  2  0  0  3  0  0  0  0  0  0
  192.9580  176.8160  138.3240 C   0  0  0  0  0  2  0  0  0  0  0  0
  191.3940  175.8400  136.7570 C   0  0  0  0  0  2  0  0  0  0  0  0
  193.6370  174.6580  135.4380 O   0  0  0  0  0  0  0  0  0  0  0  0
  190.6050  176.7560  137.6820 C   0  0  2  0  0  3  0  0  0  0  0  0
  191.5580  177.1290  138.8160 C   0  0  0  0  0  2  0  0  0  0  0  0
  192.7800  175.9900  137.1510 N   0  0  0  0  0  0  0  0  0  0  0  0
  193.8660  175.3740  136.4520 C   0  0  0  0  0  0  0  0  0  0  0  0
  195.2080  175.5700  136.9020 N   0  0  0  0  0  2  0  0  0  0  0  0
  198.5350  175.4100  135.5490 N   0  0  0  0  0  2  0  0  0  0  0  0
  196.3440  174.9610  136.2310 C   0  0  1  0  0  3  0  0  0  0  0  0
  197.5520  175.7720  136.4860 N   0  0  1  0  0  0  0  0  0  0  0  0
  198.9350  174.0690  135.7360 C   0  0  0  0  0  3  0  0  0  0  0  0
  198.2460  173.5210  136.6690 N   0  0  0  0  0  0  0  0  0  0  0  0
  197.3210  174.5080  137.2300 C   0  0  2  0  0  3  0  0  0  0  0  0
  185.0750  177.3940  137.3760 C   0  0  1  0  0  3  0  0  0  0  0  0
  183.6590  177.1470  137.7410 C   0  0  1  0  0  3  0  0  0  0  0  0
  184.6840  177.1570  138.7060 O   0  0  0  0  0  0  0  0  0  0  0  0
  181.4190  180.8100  137.9260 C   0  0  0  0  0  0  0  0  0  0  0  0
  183.1870  179.3880  138.7760 C   0  0  0  0  0  3  0  0  0  0  0  0
  181.1170  179.8520  136.9540 C   0  0  0  0  0  3  0  0  0  0  0  0
  182.8980  178.4330  137.7910 C   0  0  0  0  0  0  0  0  0  0  0  0
  180.6390  182.0720  137.9950 C   0  0  0  0  0  1  0  0  0  0  0  0
  181.8510  178.6650  136.8880 C   0  0  0  0  0  3  0  0  0  0  0  0
  182.4520  180.5760  138.8390 C   0  0  0  0  0  3  0  0  0  0  0  0
  3 10  1  0  0  0  0
  6  9  1  0  0  0  0
  6  4  2  0  0  0  0
  7 13  1  0  0  0  0
  8 10  1  0  0  0  0
  8  2  1  0  0  0  0
  9 12  2  0  0  0  0
 10 17  1  0  0  0  0
 10  2  1  1  0  0  0
 11  7  2  0  0  0  0
 11  9  1  0  0  0  0
 12  1  1  0  0  0  0
 12 15  1  0  0  0  0
 13 16  1  0  0  0  0
 13  1  2  0  0  0  0
 14  4  1  6  0  0  0
 14  3  1  0  0  0  0
 14 32  1  0  0  0  0
 15  3  2  0  0  0  0
 15  5  1  0  0  0  0
 17  5  1  6  0  0  0
 18 22  1  0  0  0  0
 19 23  1  0  0  0  0
 20 24  2  0  0  0  0
 21 19  1  6  0  0  0
 21 17  1  0  0  0  0
 21 22  1  0  0  0  0
 23 18  1  0  0  0  0
 24 25  1  0  0  0  0
 24 23  1  0  0  0  0
 26 29  1  0  0  0  0
 27 28  1  0  0  0  0
 27 25  1  1  0  0  0
 27 31  1  0  0  0  0
 28 26  1  6  0  0  0
 28 31  1  0  0  0  0
 29 30  2  0  0  0  0
 31 30  1  6  0  0  0
 32 33  1  0  0  0  0
 32 34  1  1  0  0  0
 33 38  1  1  0  0  0
 33 34  1  0  0  0  0
 35 39  1  0  0  0  0
 35 41  1  0  0  0  0
 36 41  2  0  0  0  0
 37 35  2  0  0  0  0
 38 36  1  0  0  0  0
 40 37  1  0  0  0  0
 40 38  2  0  0  0  0
M  END
>  <MODEL>
4

>  <REMARK>
 VINA RESULT:      -7.7      5.171      9.614
  Name = 
  4 active torsions:
  status: ('A' for Active; 'I' for Inactive)
    1  A    between atoms: C_10  and  N_33
    2  A    between atoms: C_14  and  C_31
    3  A    between atoms: C_16  and  C_41
    4  A    between atoms: C_27  and  C_29
                            x       y       z     vdW  Elec       q    Type
                         _______ _______ _______ _____ _____    ______ ____

>  <TORSDO>
F 4

$$$$
=
 OpenBabel10232410163D

 41 49  0  0  1  0  0  0  0  0999 V2000
  186.5580  176.4100  137.1910 N   0  0  0  0  0  0  0  0  0  0  0  0
  190.8830  176.3650  141.4190 C   0  0  0  0  0  2  0  0  0  0  0  0
  188.6700  177.0000  140.0930 C   0  0  0  0  0  0  0  0  0  0  0  0
  187.1910  178.7810  140.9300 C   0  0  0  0  0  3  0  0  0  0  0  0
  189.3420  176.3040  138.0090 N   0  0  0  0  0  2  0  0  0  0  0  0
  186.4590  179.0880  139.8590 C   0  0  0  0  0  3  0  0  0  0  0  0
  184.5670  177.6440  137.0140 N   0  0  0  0  0  0  0  0  0  0  0  0
  190.8990  177.5970  140.7270 O   0  0  0  0  0  0  0  0  0  0  0  0
  186.1210  178.1670  138.7540 C   0  0  0  0  0  0  0  0  0  0  0  0
  190.0950  176.5750  140.1860 C   0  0  1  0  0  0  0  0  0  0  0  0
  184.9240  178.4050  138.0780 C   0  0  0  0  0  3  0  0  0  0  0  0
  186.9590  177.1290  138.2740 C   0  0  0  0  0  0  0  0  0  0  0  0
  185.3730  176.6480  136.5730 C   0  0  0  0  0  0  0  0  0  0  0  0
  187.7190  177.4100  141.1880 C   0  0  2  0  0  3  0  0  0  0  0  0
  188.3010  176.8420  138.8260 C   0  0  0  0  0  0  0  0  0  0  0  0
  184.9860  175.8660  135.4500 N   0  0  0  0  0  1  0  0  0  0  0  0
  190.5470  176.0950  138.8040 C   0  0  2  0  0  3  0  0  0  0  0  0
  194.1520  176.7580  138.4240 C   0  0  0  0  0  2  0  0  0  0  0  0
  192.2990  176.1590  136.9890 C   0  0  0  0  0  2  0  0  0  0  0  0
  194.2230  175.2390  135.0870 O   0  0  0  0  0  0  0  0  0  0  0  0
  191.7250  176.8760  138.2030 C   0  0  2  0  0  3  0  0  0  0  0  0
  192.8720  176.9870  139.2050 C   0  0  0  0  0  2  0  0  0  0  0  0
  193.7360  176.1980  137.1570 N   0  0  0  0  0  0  0  0  0  0  0  0
  194.6560  175.7220  136.1690 C   0  0  0  0  0  0  0  0  0  0  0  0
  196.0620  175.7960  136.4090 N   0  0  0  0  0  2  0  0  0  0  0  0
  199.3400  175.1600  135.0750 N   0  0  0  0  0  2  0  0  0  0  0  0
  197.0370  175.3210  135.4410 C   0  0  1  0  0  3  0  0  0  0  0  0
  198.3640  175.2440  136.0840 N   0  0  1  0  0  0  0  0  0  0  0  0
  199.2050  173.9590  134.3460 C   0  0  0  0  0  3  0  0  0  0  0  0
  198.1860  173.2970  134.7570 N   0  0  0  0  0  0  0  0  0  0  0  0
  197.5590  174.0150  135.8690 C   0  0  2  0  0  3  0  0  0  0  0  0
  188.3110  177.3380  142.5870 C   0  0  1  0  0  3  0  0  0  0  0  0
  187.3030  176.8210  143.5440 C   0  0  1  0  0  3  0  0  0  0  0  0
  188.3190  175.9990  143.0180 O   0  0  0  0  0  0  0  0  0  0  0  0
  188.2770  177.9230  147.5810 C   0  0  0  0  0  0  0  0  0  0  0  0
  188.9730  177.1560  145.3920 C   0  0  0  0  0  3  0  0  0  0  0  0
  186.9520  177.9800  147.1400 C   0  0  0  0  0  3  0  0  0  0  0  0
  187.6480  177.2280  144.9400 C   0  0  0  0  0  0  0  0  0  0  0  0
  188.6110  178.2970  148.9800 C   0  0  0  0  0  1  0  0  0  0  0  0
  186.6370  177.6290  145.8240 C   0  0  0  0  0  3  0  0  0  0  0  0
  189.2860  177.5080  146.7080 C   0  0  0  0  0  3  0  0  0  0  0  0
  1 12  1  0  0  0  0
  3 10  1  0  0  0  0
  3 14  1  0  0  0  0
  5 15  1  0  0  0  0
  6  4  2  0  0  0  0
  7 11  2  0  0  0  0
  8  2  1  0  0  0  0
  9  6  1  0  0  0  0
 10  8  1  0  0  0  0
 10  2  1  1  0  0  0
 11  9  1  0  0  0  0
 12  9  2  0  0  0  0
 12 15  1  0  0  0  0
 13  7  1  0  0  0  0
 13  1  2  0  0  0  0
 14  4  1  6  0  0  0
 14 32  1  0  0  0  0
 15  3  2  0  0  0  0
 16 13  1  0  0  0  0
 17  5  1  6  0  0  0
 17 10  1  0  0  0  0
 18 22  1  0  0  0  0
 19 23  1  0  0  0  0
 20 24  2  0  0  0  0
 21 19  1  6  0  0  0
 21 17  1  0  0  0  0
 21 22  1  0  0  0  0
 23 18  1  0  0  0  0
 24 25  1  0  0  0  0
 24 23  1  0  0  0  0
 27 31  1  0  0  0  0
 27 28  1  0  0  0  0
 27 25  1  1  0  0  0
 28 26  1  6  0  0  0
 29 30  2  0  0  0  0
 29 26  1  0  0  0  0
 31 30  1  6  0  0  0
 31 28  1  0  0  0  0
 32 34  1  6  0  0  0
 32 33  1  0  0  0  0
 33 38  1  1  0  0  0
 34 33  1  0  0  0  0
 35 39  1  0  0  0  0
 36 41  1  0  0  0  0
 37 35  1  0  0  0  0
 38 36  2  0  0  0  0
 38 40  1  0  0  0  0
 40 37  2  0  0  0  0
 41 35  2  0  0  0  0
M  END
>  <MODEL>
5

>  <REMARK>
 VINA RESULT:      -7.0      3.878      9.697
  Name = 
  4 active torsions:
  status: ('A' for Active; 'I' for Inactive)
    1  A    between atoms: C_10  and  N_33
    2  A    between atoms: C_14  and  C_31
    3  A    between atoms: C_16  and  C_41
    4  A    between atoms: C_27  and  C_29
                            x       y       z     vdW  Elec       q    Type
                         _______ _______ _______ _____ _____    ______ ____

>  <TORSDO>
F 4

$$$$
=
 OpenBabel10232410163D

 41 49  0  0  1  0  0  0  0  0999 V2000
  186.4380  176.8990  136.5480 N   0  0  0  0  0  0  0  0  0  0  0  0
  191.6750  177.3390  139.5420 C   0  0  0  0  0  2  0  0  0  0  0  0
  189.6870  176.3440  138.0870 C   0  0  0  0  0  0  0  0  0  0  0  0
  189.7660  174.0090  137.3120 C   0  0  0  0  0  3  0  0  0  0  0  0
  188.0240  177.7460  138.8280 N   0  0  0  0  0  2  0  0  0  0  0  0
  188.4950  173.7570  136.9980 C   0  0  0  0  0  3  0  0  0  0  0  0
  185.5010  175.1410  135.3000 N   0  0  0  0  0  0  0  0  0  0  0  0
  190.8260  176.4140  140.1900 O   0  0  0  0  0  0  0  0  0  0  0  0
  187.5040  174.7570  136.5480 C   0  0  0  0  0  0  0  0  0  0  0  0
  190.2510  177.1980  139.1710 C   0  0  1  0  0  0  0  0  0  0  0  0
  186.4850  174.3030  135.7100 C   0  0  0  0  0  3  0  0  0  0  0  0
  187.4580  176.1070  136.9770 C   0  0  0  0  0  0  0  0  0  0  0  0
  185.4770  176.4330  135.7100 C   0  0  0  0  0  0  0  0  0  0  0  0
  190.3830  175.3610  137.1810 C   0  0  2  0  0  3  0  0  0  0  0  0
  188.4100  176.6880  137.9490 C   0  0  0  0  0  0  0  0  0  0  0  0
  184.4330  177.2960  135.2760 N   0  0  0  0  0  1  0  0  0  0  0  0
  189.1530  178.1450  139.6600 C   0  0  2  0  0  3  0  0  0  0  0  0
  189.2680  176.3510  142.8760 C   0  0  0  0  0  2  0  0  0  0  0  0
  189.9170  178.5250  142.0350 C   0  0  0  0  0  2  0  0  0  0  0  0
  191.6640  178.7430  144.2870 O   0  0  0  0  0  0  0  0  0  0  0  0
  188.7950  178.0060  141.1470 C   0  0  2  0  0  3  0  0  0  0  0  0
  188.6060  176.5380  141.5250 C   0  0  0  0  0  2  0  0  0  0  0  0
  190.0840  177.5290  143.0730 N   0  0  0  0  0  0  0  0  0  0  0  0
  190.9750  177.6910  144.1810 C   0  0  0  0  0  0  0  0  0  0  0  0
  191.0840  176.6620  145.1660 N   0  0  0  0  0  2  0  0  0  0  0  0
  191.9890  177.2370  148.5980 N   0  0  0  0  0  2  0  0  0  0  0  0
  191.9780  176.7750  146.3060 C   0  0  1  0  0  3  0  0  0  0  0  0
  191.1860  176.7510  147.5510 N   0  0  1  0  0  0  0  0  0  0  0  0
  193.0820  176.3740  148.8310 C   0  0  0  0  0  3  0  0  0  0  0  0
  193.0850  175.4140  147.9810 N   0  0  0  0  0  0  0  0  0  0  0  0
  191.9200  175.5420  147.1030 C   0  0  2  0  0  3  0  0  0  0  0  0
  191.8840  175.2680  137.3990 C   0  0  1  0  0  3  0  0  0  0  0  0
  192.5550  174.8080  136.1590 C   0  0  1  0  0  3  0  0  0  0  0  0
  192.5350  176.1650  136.5340 O   0  0  0  0  0  0  0  0  0  0  0  0
  196.3960  173.0720  136.9930 C   0  0  0  0  0  0  0  0  0  0  0  0
  195.0420  175.0080  136.4580 C   0  0  0  0  0  3  0  0  0  0  0  0
  195.2500  172.2710  136.9930 C   0  0  0  0  0  3  0  0  0  0  0  0
  193.8890  174.2110  136.4740 C   0  0  0  0  0  0  0  0  0  0  0  0
  197.7250  172.4690  137.2730 C   0  0  0  0  0  1  0  0  0  0  0  0
  194.0000  172.8380  136.7300 C   0  0  0  0  0  3  0  0  0  0  0  0
  196.2920  174.4400  136.7220 C   0  0  0  0  0  3  0  0  0  0  0  0
  1 12  1  0  0  0  0
  2  8  1  0  0  0  0
  3 10  1  0  0  0  0
  6  4  2  0  0  0  0
  7 13  1  0  0  0  0
  7 11  2  0  0  0  0
  9 12  2  0  0  0  0
  9  6  1  0  0  0  0
 10  2  1  6  0  0  0
 10 17  1  0  0  0  0
 10  8  1  0  0  0  0
 11  9  1  0  0  0  0
 12 15  1  0  0  0  0
 13  1  2  0  0  0  0
 14  4  1  1  0  0  0
 14 32  1  0  0  0  0
 14  3  1  0  0  0  0
 15  3  2  0  0  0  0
 15  5  1  0  0  0  0
 16 13  1  0  0  0  0
 17  5  1  6  0  0  0
 17 21  1  0  0  0  0
 18 23  1  0  0  0  0
 19 23  1  0  0  0  0
 21 22  1  1  0  0  0
 21 19  1  0  0  0  0
 22 18  1  0  0  0  0
 23 24  1  0  0  0  0
 24 20  2  0  0  0  0
 24 25  1  0  0  0  0
 26 29  1  0  0  0  0
 27 25  1  6  0  0  0
 27 31  1  0  0  0  0
 27 28  1  0  0  0  0
 28 26  1  1  0  0  0
 30 29  2  0  0  0  0
 31 28  1  0  0  0  0
 31 30  1  1  0  0  0
 32 34  1  6  0  0  0
 33 38  1  1  0  0  0
 33 34  1  0  0  0  0
 33 32  1  0  0  0  0
 35 39  1  0  0  0  0
 36 38  2  0  0  0  0
 36 41  1  0  0  0  0
 37 35  1  0  0  0  0
 38 40  1  0  0  0  0
 40 37  2  0  0  0  0
 41 35  2  0  0  0  0
M  END
>  <MODEL>
6

>  <REMARK>
 VINA RESULT:      -6.9      2.372      3.089
  Name = 
  4 active torsions:
  status: ('A' for Active; 'I' for Inactive)
    1  A    between atoms: C_10  and  N_33
    2  A    between atoms: C_14  and  C_31
    3  A    between atoms: C_16  and  C_41
    4  A    between atoms: C_27  and  C_29
                            x       y       z     vdW  Elec       q    Type
                         _______ _______ _______ _____ _____    ______ ____

>  <TORSDO>
F 4

$$$$
=
 OpenBabel10232410163D

 41 49  0  0  1  0  0  0  0  0999 V2000
  181.9690  174.0840  135.7050 N   0  0  0  0  0  0  0  0  0  0  0  0
  186.2590  178.0290  137.3270 C   0  0  0  0  0  2  0  0  0  0  0  0
  184.9590  175.7420  136.9460 C   0  0  0  0  0  0  0  0  0  0  0  0
  185.9450  173.6160  137.7020 C   0  0  0  0  0  3  0  0  0  0  0  0
  182.8290  176.6000  136.8720 N   0  0  0  0  0  2  0  0  0  0  0  0
  184.8960  172.7940  137.7240 C   0  0  0  0  0  3  0  0  0  0  0  0
  181.8800  171.7390  135.8390 N   0  0  0  0  0  0  0  0  0  0  0  0
  185.6970  177.4280  138.4760 O   0  0  0  0  0  0  0  0  0  0  0  0
  183.6960  172.9050  136.8690 C   0  0  0  0  0  0  0  0  0  0  0  0
  185.0380  177.1980  137.2530 C   0  0  1  0  0  0  0  0  0  0  0  0
  183.0240  171.7200  136.5670 C   0  0  0  0  0  3  0  0  0  0  0  0
  183.1290  174.1230  136.4160 C   0  0  0  0  0  0  0  0  0  0  0  0
  181.3550  172.9110  135.4040 C   0  0  0  0  0  0  0  0  0  0  0  0
  186.0720  174.7460  136.7360 C   0  0  2  0  0  3  0  0  0  0  0  0
  183.6760  175.4550  136.7570 C   0  0  0  0  0  0  0  0  0  0  0  0
  180.1510  172.9130  134.6480 N   0  0  0  0  0  1  0  0  0  0  0  0
  183.6240  177.7820  137.1900 C   0  0  2  0  0  3  0  0  0  0  0  0
  182.9210  177.6550  140.8050 C   0  0  0  0  0  2  0  0  0  0  0  0
  184.2880  178.9780  139.3100 C   0  0  0  0  0  2  0  0  0  0  0  0
  185.8400  179.7340  141.5880 O   0  0  0  0  0  0  0  0  0  0  0  0
  183.1290  178.4190  138.4970 C   0  0  2  0  0  3  0  0  0  0  0  0
  182.4560  177.3780  139.3890 C   0  0  0  0  0  2  0  0  0  0  0  0
  184.0520  178.5470  140.6720 N   0  0  0  0  0  0  0  0  0  0  0  0
  184.8630  178.9580  141.7770 C   0  0  0  0  0  0  0  0  0  0  0  0
  184.5650  178.4900  143.0940 N   0  0  0  0  0  2  0  0  0  0  0  0
  185.2280  179.1510  146.5650 N   0  0  0  0  0  2  0  0  0  0  0  0
  185.3610  178.8720  144.2480 C   0  0  1  0  0  3  0  0  0  0  0  0
  184.6630  178.4570  145.4810 N   0  0  1  0  0  0  0  0  0  0  0  0
  186.5760  178.7750  146.7520 C   0  0  0  0  0  3  0  0  0  0  0  0
  186.9420  177.9500  145.8410 N   0  0  0  0  0  0  0  0  0  0  0  0
  185.8060  177.6670  144.9610 C   0  0  2  0  0  3  0  0  0  0  0  0
  187.4670  175.3440  136.8190 C   0  0  1  0  0  3  0  0  0  0  0  0
  188.4280  174.5070  136.0600 C   0  0  1  0  0  3  0  0  0  0  0  0
  187.8970  175.6980  135.5280 O   0  0  0  0  0  0  0  0  0  0  0  0
  192.4610  175.1920  137.3770 C   0  0  0  0  0  0  0  0  0  0  0  0
  190.2320  176.0270  136.9300 C   0  0  0  0  0  3  0  0  0  0  0  0
  192.0620  173.9130  136.9770 C   0  0  0  0  0  3  0  0  0  0  0  0
  189.8240  174.7430  136.5430 C   0  0  0  0  0  0  0  0  0  0  0  0
  193.8580  175.4290  137.8240 C   0  0  0  0  0  1  0  0  0  0  0  0
  190.7480  173.6900  136.5570 C   0  0  0  0  0  3  0  0  0  0  0  0
  191.5460  176.2490  137.3500 C   0  0  0  0  0  3  0  0  0  0  0  0
  1 12  1  0  0  0  0
  2  8  1  0  0  0  0
  3 10  1  0  0  0  0
  4  6  2  0  0  0  0
  7 11  2  0  0  0  0
  9  6  1  0  0  0  0
 10  2  1  6  0  0  0
 10  8  1  0  0  0  0
 11  9  1  0  0  0  0
 12 15  1  0  0  0  0
 12  9  2  0  0  0  0
 13  1  2  0  0  0  0
 13  7  1  0  0  0  0
 14 32  1  0  0  0  0
 14  3  1  0  0  0  0
 14  4  1  1  0  0  0
 15  5  1  0  0  0  0
 15  3  2  0  0  0  0
 16 13  1  0  0  0  0
 17  5  1  1  0  0  0
 17 10  1  0  0  0  0
 17 21  1  0  0  0  0
 19 23  1  0  0  0  0
 20 24  2  0  0  0  0
 21 19  1  1  0  0  0
 21 22  1  0  0  0  0
 22 18  1  0  0  0  0
 23 18  1  0  0  0  0
 23 24  1  0  0  0  0
 24 25  1  0  0  0  0
 26 29  1  0  0  0  0
 27 25  1  6  0  0  0
 27 31  1  0  0  0  0
 27 28  1  0  0  0  0
 28 26  1  1  0  0  0
 30 29  2  0  0  0  0
 31 28  1  0  0  0  0
 31 30  1  1  0  0  0
 32 34  1  6  0  0  0
 33 38  1  1  0  0  0
 33 32  1  0  0  0  0
 34 33  1  0  0  0  0
 35 39  1  0  0  0  0
 36 41  2  0  0  0  0
 37 35  2  0  0  0  0
 38 40  2  0  0  0  0
 38 36  1  0  0  0  0
 40 37  1  0  0  0  0
 41 35  1  0  0  0  0
M  END
>  <MODEL>
7

>  <REMARK>
 VINA RESULT:      -6.8      3.206      5.482
  Name = 
  4 active torsions:
  status: ('A' for Active; 'I' for Inactive)
    1  A    between atoms: C_10  and  N_33
    2  A    between atoms: C_14  and  C_31
    3  A    between atoms: C_16  and  C_41
    4  A    between atoms: C_27  and  C_29
                            x       y       z     vdW  Elec       q    Type
                         _______ _______ _______ _____ _____    ______ ____

>  <TORSDO>
F 4

$$$$
=
 OpenBabel10232410163D

 41 49  0  0  1  0  0  0  0  0999 V2000
  184.1190  175.0050  136.5750 N   0  0  0  0  0  0  0  0  0  0  0  0
  189.8190  176.9670  136.0690 C   0  0  0  0  0  2  0  0  0  0  0  0
  187.7370  175.3660  136.4770 C   0  0  0  0  0  0  0  0  0  0  0  0
  188.0880  173.0210  137.1380 C   0  0  0  0  0  3  0  0  0  0  0  0
  186.1970  176.9840  137.0160 N   0  0  0  0  0  2  0  0  0  0  0  0
  186.9000  172.6700  137.6310 C   0  0  0  0  0  3  0  0  0  0  0  0
  183.2420  172.8790  137.0560 N   0  0  0  0  0  0  0  0  0  0  0  0
  189.5440  176.6270  137.4120 O   0  0  0  0  0  0  0  0  0  0  0  0
  185.5980  173.2430  137.2310 C   0  0  0  0  0  0  0  0  0  0  0  0
  188.4450  176.6770  136.5320 C   0  0  1  0  0  0  0  0  0  0  0  0
  184.4820  172.4130  137.3450 C   0  0  0  0  0  3  0  0  0  0  0  0
  185.3880  174.5880  136.8350 C   0  0  0  0  0  0  0  0  0  0  0  0
  183.0570  174.1650  136.6680 C   0  0  0  0  0  0  0  0  0  0  0  0
  188.2500  174.0180  136.0400 C   0  0  2  0  0  3  0  0  0  0  0  0
  186.4650  175.6010  136.7800 C   0  0  0  0  0  0  0  0  0  0  0  0
  181.7480  174.6380  136.3760 N   0  0  0  0  0  1  0  0  0  0  0  0
  187.4230  177.7630  136.8760 C   0  0  2  0  0  3  0  0  0  0  0  0
  186.9100  178.3910  140.4710 C   0  0  0  0  0  2  0  0  0  0  0  0
  188.7580  177.8220  139.0160 C   0  0  0  0  0  2  0  0  0  0  0  0
  190.1450  176.8960  141.3370 O   0  0  0  0  0  0  0  0  0  0  0  0
  187.7130  178.5360  138.1710 C   0  0  2  0  0  3  0  0  0  0  0  0
  186.4610  178.6270  139.0420 C   0  0  0  0  0  2  0  0  0  0  0  0
  188.2460  177.8450  140.3710 N   0  0  0  0  0  0  0  0  0  0  0  0
  188.9860  177.3670  141.4980 C   0  0  0  0  0  0  0  0  0  0  0  0
  188.4110  177.4240  142.8050 N   0  0  0  0  0  2  0  0  0  0  0  0
  190.8880  177.4850  145.4100 N   0  0  0  0  0  2  0  0  0  0  0  0
  189.1180  176.9450  143.9810 C   0  0  1  0  0  3  0  0  0  0  0  0
  189.9390  178.0410  144.5350 N   0  0  1  0  0  0  0  0  0  0  0  0
  190.2550  176.8890  146.5220 C   0  0  0  0  0  3  0  0  0  0  0  0
  188.9800  176.9580  146.4030 N   0  0  0  0  0  0  0  0  0  0  0  0
  188.6480  177.6720  145.1680 C   0  0  2  0  0  3  0  0  0  0  0  0
  189.6920  174.0260  135.5570 C   0  0  1  0  0  3  0  0  0  0  0  0
  190.5710  173.3750  136.5580 C   0  0  1  0  0  3  0  0  0  0  0  0
  190.1350  172.7010  135.4010 O   0  0  0  0  0  0  0  0  0  0  0  0
  194.6610  174.6150  136.1080 C   0  0  0  0  0  0  0  0  0  0  0  0
  192.7660  173.3180  135.3360 C   0  0  0  0  0  3  0  0  0  0  0  0
  193.8910  175.1090  137.1660 C   0  0  0  0  0  3  0  0  0  0  0  0
  191.9860  173.8250  136.3850 C   0  0  0  0  0  0  0  0  0  0  0  0
  196.0770  175.0370  135.9590 C   0  0  0  0  0  1  0  0  0  0  0  0
  192.5590  174.7120  137.3070 C   0  0  0  0  0  3  0  0  0  0  0  0
  194.0990  173.7170  135.1960 C   0  0  0  0  0  3  0  0  0  0  0  0
  1 13  2  0  0  0  0
  1 12  1  0  0  0  0
  2  8  1  0  0  0  0
  3 10  1  0  0  0  0
  3 15  2  0  0  0  0
  4  6  2  0  0  0  0
  7 11  2  0  0  0  0
  9 11  1  0  0  0  0
  9  6  1  0  0  0  0
 10  2  1  6  0  0  0
 10 17  1  0  0  0  0
 10  8  1  0  0  0  0
 12  9  2  0  0  0  0
 13  7  1  0  0  0  0
 14  3  1  0  0  0  0
 14  4  1  1  0  0  0
 15 12  1  0  0  0  0
 15  5  1  0  0  0  0
 16 13  1  0  0  0  0
 17  5  1  1  0  0  0
 17 21  1  0  0  0  0
 19 23  1  0  0  0  0
 20 24  2  0  0  0  0
 21 19  1  1  0  0  0
 21 22  1  0  0  0  0
 22 18  1  0  0  0  0
 23 18  1  0  0  0  0
 23 24  1  0  0  0  0
 24 25  1  0  0  0  0
 26 29  1  0  0  0  0
 27 25  1  6  0  0  0
 27 28  1  0  0  0  0
 27 31  1  0  0  0  0
 28 31  1  0  0  0  0
 28 26  1  1  0  0  0
 30 29  2  0  0  0  0
 31 30  1  1  0  0  0
 32 34  1  6  0  0  0
 32 14  1  0  0  0  0
 32 33  1  0  0  0  0
 33 38  1  6  0  0  0
 34 33  1  0  0  0  0
 35 37  1  0  0  0  0
 36 38  2  0  0  0  0
 37 40  2  0  0  0  0
 38 40  1  0  0  0  0
 39 35  1  0  0  0  0
 41 36  1  0  0  0  0
 41 35  2  0  0  0  0
M  END
>  <MODEL>
8

>  <REMARK>
 VINA RESULT:      -6.8      2.122      3.479
  Name = 
  4 active torsions:
  status: ('A' for Active; 'I' for Inactive)
    1  A    between atoms: C_10  and  N_33
    2  A    between atoms: C_14  and  C_31
    3  A    between atoms: C_16  and  C_41
    4  A    between atoms: C_27  and  C_29
                            x       y       z     vdW  Elec       q    Type
                         _______ _______ _______ _____ _____    ______ ____

>  <TORSDO>
F 4

$$$$
=
 OpenBabel10232410163D

 41 49  0  0  1  0  0  0  0  0999 V2000
  183.5910  179.3960  138.1950 N   0  0  0  0  0  0  0  0  0  0  0  0
  186.4250  174.8610  135.3670 C   0  0  0  0  0  2  0  0  0  0  0  0
  184.7250  176.1810  136.9260 C   0  0  0  0  0  0  0  0  0  0  0  0
  183.0800  174.9530  138.2840 C   0  0  0  0  0  3  0  0  0  0  0  0
  185.9930  178.0710  137.2420 N   0  0  0  0  0  2  0  0  0  0  0  0
  182.7110  175.8560  139.1930 C   0  0  0  0  0  3  0  0  0  0  0  0
  181.7590  179.4090  139.6670 N   0  0  0  0  0  0  0  0  0  0  0  0
  186.6620  174.7850  136.7570 O   0  0  0  0  0  0  0  0  0  0  0  0
  182.7160  177.3210  139.0030 C   0  0  0  0  0  0  0  0  0  0  0  0
  186.0510  175.9610  136.2810 C   0  0  1  0  0  0  0  0  0  0  0  0
  181.7830  178.0550  139.7370 C   0  0  0  0  0  3  0  0  0  0  0  0
  183.6500  178.0370  138.2120 C   0  0  0  0  0  0  0  0  0  0  0  0
  182.6520  180.0800  138.8980 C   0  0  0  0  0  0  0  0  0  0  0  0
  183.4910  175.3170  136.8970 C   0  0  2  0  0  3  0  0  0  0  0  0
  184.7580  177.3920  137.4740 C   0  0  0  0  0  0  0  0  0  0  0  0
  182.6170  181.5000  138.8430 N   0  0  0  0  0  1  0  0  0  0  0  0
  186.8970  177.2220  136.4740 C   0  0  2  0  0  3  0  0  0  0  0  0
  189.6140  178.4130  138.6600 C   0  0  0  0  0  2  0  0  0  0  0  0
  187.9430  176.6630  138.7010 C   0  0  0  0  0  2  0  0  0  0  0  0
  188.3160  176.5370  141.5320 O   0  0  0  0  0  0  0  0  0  0  0  0
  188.2090  177.0090  137.2420 C   0  0  2  0  0  3  0  0  0  0  0  0
  189.0430  178.2880  137.2600 C   0  0  0  0  0  2  0  0  0  0  0  0
  188.8630  177.4770  139.4680 N   0  0  0  0  0  0  0  0  0  0  0  0
  189.0090  177.3720  140.8870 C   0  0  0  0  0  0  0  0  0  0  0  0
  189.9400  178.2110  141.5730 N   0  0  0  0  0  2  0  0  0  0  0  0
  190.4860  176.6330  144.7570 N   0  0  0  0  0  2  0  0  0  0  0  0
  190.1210  178.1470  143.0140 C   0  0  1  0  0  3  0  0  0  0  0  0
  190.6720  176.8260  143.3770 N   0  0  1  0  0  0  0  0  0  0  0  0
  191.2360  177.5700  145.5000 C   0  0  0  0  0  3  0  0  0  0  0  0
  191.8340  178.3890  144.7140 N   0  0  0  0  0  0  0  0  0  0  0  0
  191.5510  178.0210  143.3250 C   0  0  2  0  0  3  0  0  0  0  0  0
  183.6290  174.0620  136.0510 C   0  0  1  0  0  3  0  0  0  0  0  0
  183.4380  172.8550  136.8920 C   0  0  1  0  0  3  0  0  0  0  0  0
  182.4120  173.3570  136.0670 O   0  0  0  0  0  0  0  0  0  0  0  0
  185.2850  169.4070  135.1110 C   0  0  0  0  0  0  0  0  0  0  0  0
  183.3360  170.4830  136.0650 C   0  0  0  0  0  3  0  0  0  0  0  0
  186.0260  170.5760  135.3080 C   0  0  0  0  0  3  0  0  0  0  0  0
  184.0710  171.6620  136.2490 C   0  0  0  0  0  0  0  0  0  0  0  0
  185.9270  168.2140  134.5040 C   0  0  0  0  0  1  0  0  0  0  0  0
  185.4230  171.7000  135.8800 C   0  0  0  0  0  3  0  0  0  0  0  0
  183.9410  169.3610  135.4930 C   0  0  0  0  0  3  0  0  0  0  0  0
  1 12  1  0  0  0  0
  1 13  2  0  0  0  0
  2  8  1  0  0  0  0
  3 15  2  0  0  0  0
  4  6  2  0  0  0  0
  5 15  1  0  0  0  0
  7 11  2  0  0  0  0
  9  6  1  0  0  0  0
  9 11  1  0  0  0  0
 10  2  1  6  0  0  0
 10 17  1  0  0  0  0
 10  8  1  0  0  0  0
 10  3  1  0  0  0  0
 12  9  2  0  0  0  0
 13  7  1  0  0  0  0
 14  3  1  0  0  0  0
 14  4  1  1  0  0  0
 15 12  1  0  0  0  0
 16 13  1  0  0  0  0
 17  5  1  1  0  0  0
 17 21  1  0  0  0  0
 18 23  1  0  0  0  0
 19 23  1  0  0  0  0
 21 22  1  1  0  0  0
 21 19  1  0  0  0  0
 22 18  1  0  0  0  0
 23 24  1  0  0  0  0
 24 20  2  0  0  0  0
 24 25  1  0  0  0  0
 26 29  1  0  0  0  0
 27 25  1  6  0  0  0
 27 31  1  0  0  0  0
 27 28  1  0  0  0  0
 28 26  1  1  0  0  0
 30 29  2  0  0  0  0
 31 28  1  0  0  0  0
 31 30  1  1  0  0  0
 32 34  1  6  0  0  0
 32 33  1  0  0  0  0
 32 14  1  0  0  0  0
 33 38  1  6  0  0  0
 34 33  1  0  0  0  0
 35 37  2  0  0  0  0
 35 41  1  0  0  0  0
 36 38  1  0  0  0  0
 37 40  1  0  0  0  0
 39 35  1  0  0  0  0
 40 38  2  0  0  0  0
 41 36  2  0  0  0  0
M  END
>  <MODEL>
9

>  <REMARK>
 VINA RESULT:      -6.6      3.702      5.683
  Name = 
  4 active torsions:
  status: ('A' for Active; 'I' for Inactive)
    1  A    between atoms: C_10  and  N_33
    2  A    between atoms: C_14  and  C_31
    3  A    between atoms: C_16  and  C_41
    4  A    between atoms: C_27  and  C_29
                            x       y       z     vdW  Elec       q    Type
                         _______ _______ _______ _____ _____    ______ ____

>  <TORSDO>
F 4

$$$$
