=
 OpenBabel10232409273D

 52 57  0  0  1  0  0  0  0  0999 V2000
  188.4340  177.4970  141.8430 C   0  0  0  0  0  3  0  0  0  0  0  0
  187.7120  178.2710  141.0200 C   0  0  0  0  0  0  0  0  0  0  0  0
  185.8050  179.6490  140.7180 O   0  0  0  0  0  0  0  0  0  0  0  0
  185.9070  178.5670  142.8590 C   0  0  1  0  0  3  0  0  0  0  0  0
  186.5130  177.2760  143.4170 C   0  0  0  0  0  2  0  0  0  0  0  0
  188.0370  177.2690  143.2720 C   0  0  2  0  0  3  0  0  0  0  0  0
  186.4280  178.8540  141.4710 C   0  0  0  0  0  0  0  0  0  0  0  0
  188.6300  178.3010  144.1130 N   0  0  0  0  0  2  0  0  0  0  0  0
  189.5540  177.6800  144.9780 N   0  0  0  0  0  0  0  0  0  0  0  0
  187.7530  177.3640  146.6540 N   0  0  0  0  0  1  0  0  0  0  0  0
  189.9270  176.6760  147.0640 O   0  0  0  0  0  0  0  0  0  0  0  0
  189.1150  177.2120  146.2650 C   0  0  0  0  0  0  0  0  0  0  0  0
  190.9590  177.5150  144.5890 C   0  0  0  0  0  3  0  0  0  0  0  0
  191.1560  176.1970  143.8610 C   0  0  0  0  0  1  0  0  0  0  0  0
  191.4490  178.6660  143.7230 C   0  0  0  0  0  1  0  0  0  0  0  0
  184.3880  178.4580  142.8660 C   0  0  0  0  0  2  0  0  0  0  0  0
  183.8780  177.7380  141.6230 C   0  0  0  0  0  2  0  0  0  0  0  0
  182.6390  178.4110  141.0470 C   0  0  0  0  0  2  0  0  0  0  0  0
  181.5860  177.3890  140.6470 C   0  0  0  0  0  2  0  0  0  0  0  0
  180.8620  175.9550  138.8220 N   0  0  0  0  0  2  0  0  0  0  0  0
  181.6070  177.1780  139.1450 C   0  0  2  0  0  3  0  0  0  0  0  0
  182.3320  175.9490  138.8340 C   0  0  2  0  0  3  0  0  0  0  0  0
  182.9350  175.9900  137.4090 C   0  0  1  0  0  3  0  0  0  0  0  0
  183.1610  176.8940  134.5520 C   0  0  0  0  0  2  0  0  0  0  0  0
  183.3230  177.3630  136.9820 N   0  0  0  0  0  0  0  0  0  0  0  0
  184.5050  177.2560  134.3460 O   0  0  0  0  0  0  0  0  0  0  0  0
  185.2310  176.8280  135.4750 C   0  0  0  0  0  2  0  0  0  0  0  0
  184.7540  177.6100  136.7020 C   0  0  2  0  0  3  0  0  0  0  0  0
  182.5770  177.6640  135.7520 C   0  0  0  0  0  2  0  0  0  0  0  0
  185.5620  177.3920  137.8210 O   0  0  0  0  0  1  0  0  0  0  0  0
  183.4990  173.5420  137.1120 C   0  0  1  0  0  0  0  0  0  0  0  0
  184.0310  174.9170  137.2920 C   0  0  1  0  0  3  0  0  0  0  0  0
  183.9590  174.2970  136.0230 O   0  0  0  0  0  0  0  0  0  0  0  0
  184.3890  172.3490  137.3860 C   0  0  0  0  0  1  0  0  0  0  0  0
  182.1190  173.3400  137.0380 O   0  0  0  0  0  1  0  0  0  0  0  0
  188.2110  178.4960  139.6320 C   0  0  0  0  0  2  0  0  0  0  0  0
  189.4690  177.6820  139.3770 C   0  0  0  0  0  2  0  0  0  0  0  0
  189.8970  177.8170  137.9220 C   0  0  2  0  0  3  0  0  0  0  0  0
  189.0290  178.8380  137.2060 C   0  0  0  0  0  1  0  0  0  0  0  0
  190.2990  176.3870  135.6900 O   0  0  0  0  0  0  0  0  0  0  0  0
  188.3410  175.8080  137.0410 O   0  0  0  0  0  0  0  0  0  0  0  0
  189.7770  176.2440  137.0930 S   0  0  0  0  0  0  0  0  0  0  0  0
  192.1990  175.3360  137.8890 C   0  0  0  0  0  2  0  0  0  0  0  0
  192.7870  174.1920  137.1070 C   0  0  1  0  0  3  0  0  0  0  0  0
  190.5520  173.7060  137.3210 N   0  0  0  0  0  2  0  0  0  0  0  0
  190.7330  175.0070  137.9600 C   0  0  2  0  0  3  0  0  0  0  0  0
  191.6660  173.4970  136.4880 N   0  0  0  0  0  2  0  0  0  0  0  0
  195.1250  174.5340  136.4740 N   0  0  0  0  0  2  0  0  0  0  0  0
  193.7530  174.7120  136.0430 C   0  0  2  0  0  3  0  0  0  0  0  0
  195.8020  175.7060  136.0960 N   0  0  0  0  0  2  0  0  0  0  0  0
  193.5870  176.1940  135.8690 C   0  0  0  0  0  2  0  0  0  0  0  0
  194.8800  176.7680  136.1810 N   0  0  0  0  0  2  0  0  0  0  0  0
  1  6  1  0  0  0  0
  2  7  1  0  0  0  0
  2  1  2  0  0  0  0
  3  7  2  0  0  0  0
  4 16  1  6  0  0  0
  4  5  1  0  0  0  0
  6  5  1  0  0  0  0
  6  8  1  1  0  0  0
  7  4  1  0  0  0  0
  8  9  1  0  0  0  0
  9 12  1  0  0  0  0
 12 10  1  0  0  0  0
 12 11  2  0  0  0  0
 13  9  1  0  0  0  0
 14 13  1  0  0  0  0
 15 13  1  0  0  0  0
 17 16  1  0  0  0  0
 18 17  1  0  0  0  0
 19 18  1  0  0  0  0
 20 22  1  0  0  0  0
 20 21  1  0  0  0  0
 21 19  1  1  0  0  0
 22 23  1  6  0  0  0
 22 21  1  0  0  0  0
 23 25  1  1  0  0  0
 24 29  1  0  0  0  0
 26 24  1  0  0  0  0
 26 27  1  0  0  0  0
 27 28  1  0  0  0  0
 28 25  1  0  0  0  0
 28 30  1  1  0  0  0
 29 25  1  0  0  0  0
 31 32  1  0  0  0  0
 31 34  1  1  0  0  0
 32 23  1  6  0  0  0
 33 31  1  0  0  0  0
 33 32  1  0  0  0  0
 35 31  1  0  0  0  0
 36  2  1  0  0  0  0
 37 36  1  0  0  0  0
 38 39  1  6  0  0  0
 38 37  1  0  0  0  0
 40 42  2  0  0  0  0
 41 42  2  0  0  0  0
 42 38  1  0  0  0  0
 43 46  1  0  0  0  0
 44 43  1  6  0  0  0
 45 46  1  0  0  0  0
 46 42  1  6  0  0  0
 47 44  1  0  0  0  0
 47 45  1  0  0  0  0
 49 51  1  1  0  0  0
 49 48  1  0  0  0  0
 49 44  1  0  0  0  0
 50 52  1  0  0  0  0
 50 48  1  0  0  0  0
 51 52  1  0  0  0  0
M  END
>  <MODEL>
1

>  <REMARK>
 VINA RESULT:      -7.5      0.000      0.000
  Name = 
  17 active torsions:
  status: ('A' for Active; 'I' for Inactive)
    1  A    between atoms: N_2  and  C_45
    2  A    between atoms: C_3  and  C_10
    3  A    between atoms: C_3  and  C_51
    4  A    between atoms: C_7  and  N_18
    5  A    between atoms: C_9  and  C_12
    6  A    between atoms: C_9  and  C_39
    7  A    between atoms: C_11  and  C_32
    8  A    between atoms: C_12  and  C_17
    9  A    between atoms: N_18  and  N_48
   10  A    between atoms: C_25  and  C_45
   11  A    between atoms: C_26  and  S_30
   12  A    between atoms: C_26  and  C_51
   13  A    between atoms: S_30  and  C_36
   14  A    between atoms: C_35  and  C_52
   15  A    between atoms: C_39  and  C_52
   16  A    between atoms: C_40  and  C_45
   17  A    between atoms: C_42  and  N_48
                            x       y       z     vdW  Elec       q    Type
                         _______ _______ _______ _____ _____    ______ ____

>  <TORSDO>
F 17

$$$$
=
 OpenBabel10232409273D

 52 57  0  0  1  0  0  0  0  0999 V2000
  192.8600  176.7330  138.7680 C   0  0  0  0  0  3  0  0  0  0  0  0
  191.6630  176.9070  139.3450 C   0  0  0  0  0  0  0  0  0  0  0  0
  189.3120  176.6120  139.2210 O   0  0  0  0  0  0  0  0  0  0  0  0
  190.4930  175.9510  137.2370 C   0  0  1  0  0  3  0  0  0  0  0  0
  191.7990  176.3480  136.5450 C   0  0  0  0  0  2  0  0  0  0  0  0
  193.0110  176.0590  137.4360 C   0  0  2  0  0  3  0  0  0  0  0  0
  190.4230  176.5240  138.6330 C   0  0  0  0  0  0  0  0  0  0  0  0
  193.1640  174.6220  137.6300 N   0  0  0  0  0  2  0  0  0  0  0  0
  194.3680  174.2260  137.0130 N   0  0  0  0  0  0  0  0  0  0  0  0
  195.5940  174.7250  139.1100 N   0  0  0  0  0  1  0  0  0  0  0  0
  196.6890  173.9580  137.2170 O   0  0  0  0  0  0  0  0  0  0  0  0
  195.5970  174.2830  137.7560 C   0  0  0  0  0  0  0  0  0  0  0  0
  194.3850  173.7670  135.6190 C   0  0  0  0  0  3  0  0  0  0  0  0
  193.1040  173.0200  135.2910 C   0  0  0  0  0  1  0  0  0  0  0  0
  194.5800  174.9180  134.6430 C   0  0  0  0  0  1  0  0  0  0  0  0
  189.3110  176.4120  136.3920 C   0  0  0  0  0  2  0  0  0  0  0  0
  189.4010  177.9010  136.0810 C   0  0  0  0  0  2  0  0  0  0  0  0
  188.1450  178.6470  136.5150 C   0  0  0  0  0  2  0  0  0  0  0  0
  186.8850  177.9110  136.0860 C   0  0  0  0  0  2  0  0  0  0  0  0
  185.5870  176.1640  137.1710 N   0  0  0  0  0  2  0  0  0  0  0  0
  186.0520  177.5510  137.3010 C   0  0  2  0  0  3  0  0  0  0  0  0
  184.6760  177.2850  136.8900 C   0  0  2  0  0  3  0  0  0  0  0  0
  183.6780  177.5380  138.0450 C   0  0  1  0  0  3  0  0  0  0  0  0
  183.6170  177.9990  141.0150 C   0  0  0  0  0  2  0  0  0  0  0  0
  183.8750  178.8600  138.7020 N   0  0  0  0  0  0  0  0  0  0  0  0
  182.5420  178.8700  141.2680 O   0  0  0  0  0  0  0  0  0  0  0  0
  181.8010  178.9770  140.0750 C   0  0  0  0  0  2  0  0  0  0  0  0
  182.6660  179.6550  139.0090 C   0  0  2  0  0  3  0  0  0  0  0  0
  184.5720  178.6160  139.9740 C   0  0  0  0  0  2  0  0  0  0  0  0
  181.9400  179.9840  137.8610 O   0  0  0  0  0  1  0  0  0  0  0  0
  181.9130  175.7920  137.5620 C   0  0  1  0  0  0  0  0  0  0  0  0
  182.2510  177.2390  137.5570 C   0  0  1  0  0  3  0  0  0  0  0  0
  181.5040  176.6430  138.6000 O   0  0  0  0  0  0  0  0  0  0  0  0
  180.7390  175.2910  136.7490 C   0  0  0  0  0  1  0  0  0  0  0  0
  182.8550  174.8650  138.0120 O   0  0  0  0  0  1  0  0  0  0  0  0
  191.6090  177.5290  140.7000 C   0  0  0  0  0  2  0  0  0  0  0  0
  190.9330  176.5960  141.6910 C   0  0  0  0  0  2  0  0  0  0  0  0
  191.2230  177.0440  143.1170 C   0  0  2  0  0  3  0  0  0  0  0  0
  191.5560  175.8470  143.9910 C   0  0  0  0  0  1  0  0  0  0  0  0
  188.9880  178.4560  142.6660 O   0  0  0  0  0  0  0  0  0  0  0  0
  190.2870  179.0400  144.6580 O   0  0  0  0  0  0  0  0  0  0  0  0
  189.8170  177.9050  143.7940 S   0  0  0  0  0  0  0  0  0  0  0  0
  187.3580  177.0240  144.5020 C   0  0  0  0  0  2  0  0  0  0  0  0
  186.8150  177.5090  145.8190 C   0  0  1  0  0  3  0  0  0  0  0  0
  189.0370  177.0620  146.1960 N   0  0  0  0  0  2  0  0  0  0  0  0
  188.8190  176.7950  144.7780 C   0  0  2  0  0  3  0  0  0  0  0  0
  187.9700  177.8670  146.6340 N   0  0  0  0  0  2  0  0  0  0  0  0
  184.8000  178.6900  146.5470 N   0  0  0  0  0  2  0  0  0  0  0  0
  185.9060  178.7190  145.6100 C   0  0  2  0  0  3  0  0  0  0  0  0
  183.6680  179.0890  145.8180 N   0  0  0  0  0  2  0  0  0  0  0  0
  185.2690  178.6620  144.2530 C   0  0  0  0  0  2  0  0  0  0  0  0
  183.8410  178.6360  144.4960 N   0  0  0  0  0  2  0  0  0  0  0  0
  1  2  2  0  0  0  0
  2 36  1  0  0  0  0
  4 16  1  6  0  0  0
  4  7  1  0  0  0  0
  5  4  1  0  0  0  0
  5  6  1  0  0  0  0
  6  8  1  1  0  0  0
  6  1  1  0  0  0  0
  7  3  2  0  0  0  0
  7  2  1  0  0  0  0
  9  8  1  0  0  0  0
  9 12  1  0  0  0  0
 11 12  2  0  0  0  0
 12 10  1  0  0  0  0
 13  9  1  0  0  0  0
 14 13  1  0  0  0  0
 15 13  1  0  0  0  0
 17 16  1  0  0  0  0
 17 18  1  0  0  0  0
 19 18  1  0  0  0  0
 20 21  1  0  0  0  0
 21 19  1  6  0  0  0
 22 20  1  0  0  0  0
 22 21  1  0  0  0  0
 22 23  1  1  0  0  0
 23 25  1  6  0  0  0
 24 26  1  0  0  0  0
 25 28  1  0  0  0  0
 25 29  1  0  0  0  0
 27 26  1  0  0  0  0
 28 30  1  6  0  0  0
 28 27  1  0  0  0  0
 29 24  1  0  0  0  0
 31 34  1  6  0  0  0
 31 35  1  0  0  0  0
 31 33  1  0  0  0  0
 32 31  1  0  0  0  0
 32 23  1  1  0  0  0
 32 33  1  0  0  0  0
 36 37  1  0  0  0  0
 37 38  1  0  0  0  0
 38 42  1  0  0  0  0
 38 39  1  1  0  0  0
 40 42  2  0  0  0  0
 42 41  2  0  0  0  0
 43 46  1  0  0  0  0
 44 43  1  6  0  0  0
 44 47  1  0  0  0  0
 45 47  1  0  0  0  0
 46 42  1  6  0  0  0
 46 45  1  0  0  0  0
 49 51  1  6  0  0  0
 49 44  1  0  0  0  0
 49 48  1  0  0  0  0
 50 48  1  0  0  0  0
 51 52  1  0  0  0  0
 52 50  1  0  0  0  0
M  END
>  <MODEL>
2

>  <REMARK>
 VINA RESULT:      -7.4      2.634      8.173
  Name = 
  17 active torsions:
  status: ('A' for Active; 'I' for Inactive)
    1  A    between atoms: N_2  and  C_45
    2  A    between atoms: C_3  and  C_10
    3  A    between atoms: C_3  and  C_51
    4  A    between atoms: C_7  and  N_18
    5  A    between atoms: C_9  and  C_12
    6  A    between atoms: C_9  and  C_39
    7  A    between atoms: C_11  and  C_32
    8  A    between atoms: C_12  and  C_17
    9  A    between atoms: N_18  and  N_48
   10  A    between atoms: C_25  and  C_45
   11  A    between atoms: C_26  and  S_30
   12  A    between atoms: C_26  and  C_51
   13  A    between atoms: S_30  and  C_36
   14  A    between atoms: C_35  and  C_52
   15  A    between atoms: C_39  and  C_52
   16  A    between atoms: C_40  and  C_45
   17  A    between atoms: C_42  and  N_48
                            x       y       z     vdW  Elec       q    Type
                         _______ _______ _______ _____ _____    ______ ____

>  <TORSDO>
F 17

$$$$
=
 OpenBabel10232409273D

 52 57  0  0  1  0  0  0  0  0999 V2000
  192.6660  176.5350  138.5820 C   0  0  0  0  0  3  0  0  0  0  0  0
  191.3680  176.6450  138.8970 C   0  0  0  0  0  0  0  0  0  0  0  0
  189.1270  176.0300  138.4210 O   0  0  0  0  0  0  0  0  0  0  0  0
  190.7310  175.2080  136.8350 C   0  0  1  0  0  3  0  0  0  0  0  0
  192.1030  175.6500  136.3200 C   0  0  0  0  0  2  0  0  0  0  0  0
  193.1390  175.6740  137.4470 C   0  0  2  0  0  3  0  0  0  0  0  0
  190.3340  175.9900  138.0630 C   0  0  0  0  0  0  0  0  0  0  0  0
  193.3900  174.3230  137.9320 N   0  0  0  0  0  2  0  0  0  0  0  0
  194.6840  173.9460  137.5190 N   0  0  0  0  0  0  0  0  0  0  0  0
  195.6280  175.0090  139.5510 N   0  0  0  0  0  1  0  0  0  0  0  0
  196.9850  173.9920  137.9710 O   0  0  0  0  0  0  0  0  0  0  0  0
  195.8170  174.2970  138.3320 C   0  0  0  0  0  0  0  0  0  0  0  0
  194.8920  173.2110  136.2660 C   0  0  0  0  0  3  0  0  0  0  0  0
  193.7380  172.2560  136.0140 C   0  0  0  0  0  1  0  0  0  0  0  0
  195.0620  174.1460  135.0790 C   0  0  0  0  0  1  0  0  0  0  0  0
  189.6980  175.3630  135.7250 C   0  0  0  0  0  2  0  0  0  0  0  0
  189.6700  176.7900  135.1910 C   0  0  0  0  0  2  0  0  0  0  0  0
  188.2650  177.2150  134.7850 C   0  0  0  0  0  2  0  0  0  0  0  0
  187.2060  176.3860  135.4920 C   0  0  0  0  0  2  0  0  0  0  0  0
  186.3350  178.4400  136.4590 N   0  0  0  0  0  2  0  0  0  0  0  0
  185.9620  177.2210  135.7300 C   0  0  2  0  0  3  0  0  0  0  0  0
  185.7030  177.3150  137.1650 C   0  0  2  0  0  3  0  0  0  0  0  0
  184.2050  177.5680  137.4570 C   0  0  1  0  0  3  0  0  0  0  0  0
  181.5010  178.3690  136.4170 C   0  0  0  0  0  2  0  0  0  0  0  0
  183.3030  176.6830  136.6690 N   0  0  0  0  0  0  0  0  0  0  0  0
  180.5620  177.5250  137.0360 O   0  0  0  0  0  0  0  0  0  0  0  0
  181.2380  176.8210  138.0520 C   0  0  0  0  0  2  0  0  0  0  0  0
  182.2870  175.9070  137.4140 C   0  0  2  0  0  3  0  0  0  0  0  0
  182.5860  177.5350  135.7080 C   0  0  0  0  0  2  0  0  0  0  0  0
  182.8600  175.0260  138.3350 O   0  0  0  0  0  1  0  0  0  0  0  0
  184.3400  178.8550  139.6300 C   0  0  1  0  0  0  0  0  0  0  0  0
  183.9790  177.5700  138.9780 C   0  0  1  0  0  3  0  0  0  0  0  0
  183.0090  178.5420  139.3150 O   0  0  0  0  0  0  0  0  0  0  0  0
  184.5690  178.9020  141.1250 C   0  0  0  0  0  1  0  0  0  0  0  0
  184.8060  179.9170  138.8520 O   0  0  0  0  0  1  0  0  0  0  0  0
  190.9890  177.4720  140.0800 C   0  0  0  0  0  2  0  0  0  0  0  0
  190.4730  176.5910  141.2050 C   0  0  0  0  0  2  0  0  0  0  0  0
  190.9960  177.0890  142.5450 C   0  0  2  0  0  3  0  0  0  0  0  0
  191.5140  175.9280  143.3780 C   0  0  0  0  0  1  0  0  0  0  0  0
  188.7040  178.4770  142.4570 O   0  0  0  0  0  0  0  0  0  0  0  0
  190.2970  179.0760  144.2180 O   0  0  0  0  0  0  0  0  0  0  0  0
  189.7070  177.9360  143.4380 S   0  0  0  0  0  0  0  0  0  0  0  0
  187.4000  177.0080  144.5040 C   0  0  0  0  0  2  0  0  0  0  0  0
  187.0410  177.4980  145.8820 C   0  0  1  0  0  3  0  0  0  0  0  0
  189.3040  177.1080  145.9370 N   0  0  0  0  0  2  0  0  0  0  0  0
  188.8900  176.8160  144.5670 C   0  0  2  0  0  3  0  0  0  0  0  0
  188.2920  177.8940  146.5160 N   0  0  0  0  0  2  0  0  0  0  0  0
  184.9910  178.5240  146.7360 N   0  0  0  0  0  2  0  0  0  0  0  0
  186.0820  178.6840  145.7940 C   0  0  2  0  0  3  0  0  0  0  0  0
  183.8330  178.9420  146.0590 N   0  0  0  0  0  2  0  0  0  0  0  0
  185.4280  178.7260  144.4440 C   0  0  0  0  0  2  0  0  0  0  0  0
  184.0060  178.6190  144.6980 N   0  0  0  0  0  2  0  0  0  0  0  0
  1  2  2  0  0  0  0
  2 36  1  0  0  0  0
  4 16  1  6  0  0  0
  4  7  1  0  0  0  0
  5  4  1  0  0  0  0
  5  6  1  0  0  0  0
  6  8  1  1  0  0  0
  6  1  1  0  0  0  0
  7  3  2  0  0  0  0
  7  2  1  0  0  0  0
  9  8  1  0  0  0  0
  9 12  1  0  0  0  0
 11 12  2  0  0  0  0
 12 10  1  0  0  0  0
 13  9  1  0  0  0  0
 14 13  1  0  0  0  0
 15 13  1  0  0  0  0
 17 16  1  0  0  0  0
 18 17  1  0  0  0  0
 18 19  1  0  0  0  0
 20 22  1  0  0  0  0
 21 19  1  1  0  0  0
 21 20  1  0  0  0  0
 21 22  1  0  0  0  0
 22 23  1  6  0  0  0
 23 25  1  6  0  0  0
 24 26  1  0  0  0  0
 25 28  1  0  0  0  0
 26 27  1  0  0  0  0
 28 27  1  0  0  0  0
 28 30  1  1  0  0  0
 29 24  1  0  0  0  0
 29 25  1  0  0  0  0
 31 34  1  1  0  0  0
 32 23  1  6  0  0  0
 32 33  1  0  0  0  0
 32 31  1  0  0  0  0
 33 31  1  0  0  0  0
 35 31  1  0  0  0  0
 36 37  1  0  0  0  0
 37 38  1  0  0  0  0
 38 39  1  1  0  0  0
 38 42  1  0  0  0  0
 40 42  2  0  0  0  0
 42 41  2  0  0  0  0
 43 46  1  0  0  0  0
 44 43  1  6  0  0  0
 44 47  1  0  0  0  0
 45 47  1  0  0  0  0
 46 42  1  6  0  0  0
 46 45  1  0  0  0  0
 49 51  1  6  0  0  0
 49 44  1  0  0  0  0
 49 48  1  0  0  0  0
 50 48  1  0  0  0  0
 51 52  1  0  0  0  0
 52 50  1  0  0  0  0
M  END
>  <MODEL>
3

>  <REMARK>
 VINA RESULT:      -7.3      2.617      8.232
  Name = 
  17 active torsions:
  status: ('A' for Active; 'I' for Inactive)
    1  A    between atoms: N_2  and  C_45
    2  A    between atoms: C_3  and  C_10
    3  A    between atoms: C_3  and  C_51
    4  A    between atoms: C_7  and  N_18
    5  A    between atoms: C_9  and  C_12
    6  A    between atoms: C_9  and  C_39
    7  A    between atoms: C_11  and  C_32
    8  A    between atoms: C_12  and  C_17
    9  A    between atoms: N_18  and  N_48
   10  A    between atoms: C_25  and  C_45
   11  A    between atoms: C_26  and  S_30
   12  A    between atoms: C_26  and  C_51
   13  A    between atoms: S_30  and  C_36
   14  A    between atoms: C_35  and  C_52
   15  A    between atoms: C_39  and  C_52
   16  A    between atoms: C_40  and  C_45
   17  A    between atoms: C_42  and  N_48
                            x       y       z     vdW  Elec       q    Type
                         _______ _______ _______ _____ _____    ______ ____

>  <TORSDO>
F 17

$$$$
=
 OpenBabel10232409273D

 52 57  0  0  1  0  0  0  0  0999 V2000
  187.9700  175.3540  136.6970 C   0  0  0  0  0  3  0  0  0  0  0  0
  187.2870  176.5040  136.7770 C   0  0  0  0  0  0  0  0  0  0  0  0
  187.2870  178.8040  137.3610 O   0  0  0  0  0  0  0  0  0  0  0  0
  189.3180  177.6480  137.9140 C   0  0  1  0  0  3  0  0  0  0  0  0
  189.7110  176.2100  138.2630 C   0  0  0  0  0  2  0  0  0  0  0  0
  189.4110  175.2550  137.1050 C   0  0  2  0  0  3  0  0  0  0  0  0
  187.9100  177.7080  137.3720 C   0  0  0  0  0  0  0  0  0  0  0  0
  190.2630  175.5610  135.9620 N   0  0  0  0  0  2  0  0  0  0  0  0
  191.2500  174.5590  135.8750 N   0  0  0  0  0  0  0  0  0  0  0  0
  189.5800  173.0180  134.8830 N   0  0  0  0  0  1  0  0  0  0  0  0
  191.7650  172.3520  135.2710 O   0  0  0  0  0  0  0  0  0  0  0  0
  190.9060  173.2710  135.3360 C   0  0  0  0  0  0  0  0  0  0  0  0
  192.6210  174.8070  136.3360 C   0  0  0  0  0  3  0  0  0  0  0  0
  192.9150  176.2970  136.3460 C   0  0  0  0  0  1  0  0  0  0  0  0
  192.8730  174.2190  137.7160 C   0  0  0  0  0  1  0  0  0  0  0  0
  189.4720  178.5290  139.1480 C   0  0  0  0  0  2  0  0  0  0  0  0
  188.9100  177.8460  140.3890 C   0  0  0  0  0  2  0  0  0  0  0  0
  187.4710  178.2630  140.6630 C   0  0  0  0  0  2  0  0  0  0  0  0
  187.2160  178.4410  142.1520 C   0  0  0  0  0  2  0  0  0  0  0  0
  187.4270  176.6060  143.7330 N   0  0  0  0  0  2  0  0  0  0  0  0
  188.1850  177.5920  142.9520 C   0  0  2  0  0  3  0  0  0  0  0  0
  187.9650  177.8130  144.3790 C   0  0  2  0  0  3  0  0  0  0  0  0
  189.2430  177.5220  145.2030 C   0  0  1  0  0  3  0  0  0  0  0  0
  187.3020  178.3110  147.3590 C   0  0  0  0  0  2  0  0  0  0  0  0
  188.9710  176.7270  146.4320 N   0  0  0  0  0  0  0  0  0  0  0  0
  188.0530  178.4850  148.5360 O   0  0  0  0  0  0  0  0  0  0  0  0
  189.4140  178.4510  148.1730 C   0  0  0  0  0  2  0  0  0  0  0  0
  189.7550  177.0560  147.6430 C   0  0  2  0  0  3  0  0  0  0  0  0
  187.5510  176.9100  146.7660 C   0  0  0  0  0  2  0  0  0  0  0  0
  191.1280  176.8780  147.4540 O   0  0  0  0  0  1  0  0  0  0  0  0
  191.1910  178.0140  143.6670 C   0  0  1  0  0  0  0  0  0  0  0  0
  190.3310  176.9650  144.2710 C   0  0  1  0  0  3  0  0  0  0  0  0
  191.6090  177.2800  144.7870 O   0  0  0  0  0  0  0  0  0  0  0  0
  192.0210  177.6960  142.4430 C   0  0  0  0  0  1  0  0  0  0  0  0
  190.9770  179.3550  143.9960 O   0  0  0  0  0  1  0  0  0  0  0  0
  185.8770  176.5310  136.2910 C   0  0  0  0  0  2  0  0  0  0  0  0
  185.3750  175.1220  136.0240 C   0  0  0  0  0  2  0  0  0  0  0  0
  184.4180  174.6860  137.1250 C   0  0  2  0  0  3  0  0  0  0  0  0
  184.9240  173.4220  137.7990 C   0  0  0  0  0  1  0  0  0  0  0  0
  182.3680  172.9920  136.7830 O   0  0  0  0  0  0  0  0  0  0  0  0
  182.8250  174.5630  134.9610 O   0  0  0  0  0  0  0  0  0  0  0  0
  182.7930  174.3960  136.4540 S   0  0  0  0  0  0  0  0  0  0  0  0
  182.2610  176.8950  137.3450 C   0  0  0  0  0  2  0  0  0  0  0  0
  182.2280  177.0920  138.8370 C   0  0  1  0  0  3  0  0  0  0  0  0
  181.1800  175.0830  138.4590 N   0  0  0  0  0  2  0  0  0  0  0  0
  181.6170  175.5510  137.1460 C   0  0  2  0  0  3  0  0  0  0  0  0
  181.9280  175.7900  139.4180 N   0  0  0  0  0  2  0  0  0  0  0  0
  183.4330  178.2060  140.6520 N   0  0  0  0  0  2  0  0  0  0  0  0
  183.5760  177.6090  139.3380 C   0  0  2  0  0  3  0  0  0  0  0  0
  184.2310  179.3620  140.6370 N   0  0  0  0  0  2  0  0  0  0  0  0
  184.0680  178.7190  138.4560 C   0  0  0  0  0  2  0  0  0  0  0  0
  184.2060  179.8710  139.3240 N   0  0  0  0  0  2  0  0  0  0  0  0
  1  2  2  0  0  0  0
  1  6  1  0  0  0  0
  2  7  1  0  0  0  0
  3  7  2  0  0  0  0
  4  5  1  0  0  0  0
  4 16  1  1  0  0  0
  6  8  1  6  0  0  0
  6  5  1  0  0  0  0
  7  4  1  0  0  0  0
  9  8  1  0  0  0  0
  9 13  1  0  0  0  0
 10 12  1  0  0  0  0
 11 12  2  0  0  0  0
 12  9  1  0  0  0  0
 13 14  1  0  0  0  0
 13 15  1  0  0  0  0
 16 17  1  0  0  0  0
 17 18  1  0  0  0  0
 18 19  1  0  0  0  0
 20 22  1  0  0  0  0
 21 19  1  6  0  0  0
 21 20  1  0  0  0  0
 21 22  1  0  0  0  0
 22 23  1  1  0  0  0
 23 25  1  1  0  0  0
 24 26  1  0  0  0  0
 25 29  1  0  0  0  0
 25 28  1  0  0  0  0
 27 26  1  0  0  0  0
 28 30  1  6  0  0  0
 28 27  1  0  0  0  0
 29 24  1  0  0  0  0
 31 34  1  6  0  0  0
 31 35  1  0  0  0  0
 31 32  1  0  0  0  0
 31 33  1  0  0  0  0
 32 33  1  0  0  0  0
 32 23  1  1  0  0  0
 36  2  1  0  0  0  0
 37 36  1  0  0  0  0
 37 38  1  0  0  0  0
 38 39  1  6  0  0  0
 41 42  2  0  0  0  0
 42 40  2  0  0  0  0
 42 38  1  0  0  0  0
 44 43  1  6  0  0  0
 44 49  1  0  0  0  0
 44 47  1  0  0  0  0
 45 47  1  0  0  0  0
 46 42  1  1  0  0  0
 46 43  1  0  0  0  0
 46 45  1  0  0  0  0
 49 51  1  6  0  0  0
 49 48  1  0  0  0  0
 50 48  1  0  0  0  0
 51 52  1  0  0  0  0
 52 50  1  0  0  0  0
M  END
>  <MODEL>
4

>  <REMARK>
 VINA RESULT:      -7.1      2.256      9.522
  Name = 
  17 active torsions:
  status: ('A' for Active; 'I' for Inactive)
    1  A    between atoms: N_2  and  C_45
    2  A    between atoms: C_3  and  C_10
    3  A    between atoms: C_3  and  C_51
    4  A    between atoms: C_7  and  N_18
    5  A    between atoms: C_9  and  C_12
    6  A    between atoms: C_9  and  C_39
    7  A    between atoms: C_11  and  C_32
    8  A    between atoms: C_12  and  C_17
    9  A    between atoms: N_18  and  N_48
   10  A    between atoms: C_25  and  C_45
   11  A    between atoms: C_26  and  S_30
   12  A    between atoms: C_26  and  C_51
   13  A    between atoms: S_30  and  C_36
   14  A    between atoms: C_35  and  C_52
   15  A    between atoms: C_39  and  C_52
   16  A    between atoms: C_40  and  C_45
   17  A    between atoms: C_42  and  N_48
                            x       y       z     vdW  Elec       q    Type
                         _______ _______ _______ _____ _____    ______ ____

>  <TORSDO>
F 17

$$$$
=
 OpenBabel10232409273D

 52 57  0  0  1  0  0  0  0  0999 V2000
  183.9270  177.5530  137.6340 C   0  0  0  0  0  3  0  0  0  0  0  0
  185.0320  178.0630  138.1950 C   0  0  0  0  0  0  0  0  0  0  0  0
  186.1720  178.6860  140.1800 O   0  0  0  0  0  0  0  0  0  0  0  0
  183.9100  177.9640  140.5310 C   0  0  1  0  0  3  0  0  0  0  0  0
  182.6140  177.9530  139.7160 C   0  0  0  0  0  2  0  0  0  0  0  0
  182.7570  177.0950  138.4550 C   0  0  2  0  0  3  0  0  0  0  0  0
  185.0970  178.2880  139.6570 C   0  0  0  0  0  0  0  0  0  0  0  0
  182.9310  175.6930  138.8150 N   0  0  0  0  0  2  0  0  0  0  0  0
  182.2950  174.9100  137.8310 N   0  0  0  0  0  0  0  0  0  0  0  0
  180.0880  175.5730  138.7470 N   0  0  0  0  0  1  0  0  0  0  0  0
  180.2690  174.1290  136.9430 O   0  0  0  0  0  0  0  0  0  0  0  0
  180.8590  174.8420  137.7980 C   0  0  0  0  0  0  0  0  0  0  0  0
  183.0770  174.1540  136.8460 C   0  0  0  0  0  3  0  0  0  0  0  0
  183.1460  174.9090  135.5310 C   0  0  0  0  0  1  0  0  0  0  0  0
  184.4820  173.8520  137.3460 C   0  0  0  0  0  1  0  0  0  0  0  0
  183.7790  178.9590  141.6770 C   0  0  0  0  0  2  0  0  0  0  0  0
  184.3630  178.3970  142.9680 C   0  0  0  0  0  2  0  0  0  0  0  0
  183.9750  179.2370  144.1780 C   0  0  0  0  0  2  0  0  0  0  0  0
  185.1470  179.4150  145.1310 C   0  0  0  0  0  2  0  0  0  0  0  0
  185.9140  177.2430  145.9080 N   0  0  0  0  0  2  0  0  0  0  0  0
  186.1600  178.3060  144.9250 C   0  0  2  0  0  3  0  0  0  0  0  0
  187.0150  178.1990  146.1050 C   0  0  2  0  0  3  0  0  0  0  0  0
  188.3940  177.5920  145.7550 C   0  0  1  0  0  3  0  0  0  0  0  0
  188.2310  178.1730  148.6990 C   0  0  0  0  0  2  0  0  0  0  0  0
  188.9260  176.7040  146.8250 N   0  0  0  0  0  0  0  0  0  0  0  0
  189.5540  178.2820  149.1650 O   0  0  0  0  0  0  0  0  0  0  0  0
  190.3940  178.3100  148.0350 C   0  0  0  0  0  2  0  0  0  0  0  0
  190.2990  176.9660  147.3090 C   0  0  2  0  0  3  0  0  0  0  0  0
  188.0240  176.8250  147.9810 C   0  0  0  0  0  2  0  0  0  0  0  0
  191.2540  176.8370  146.2960 O   0  0  0  0  0  1  0  0  0  0  0  0
  189.2580  177.6290  143.3770 C   0  0  1  0  0  0  0  0  0  0  0  0
  188.3360  176.9810  144.3450 C   0  0  1  0  0  3  0  0  0  0  0  0
  189.5930  176.4250  144.0130 O   0  0  0  0  0  0  0  0  0  0  0  0
  189.0430  177.4420  141.8910 C   0  0  0  0  0  1  0  0  0  0  0  0
  190.0840  178.6710  143.8040 O   0  0  0  0  0  1  0  0  0  0  0  0
  186.1740  178.4340  137.3100 C   0  0  0  0  0  2  0  0  0  0  0  0
  187.0930  177.2430  137.0930 C   0  0  0  0  0  2  0  0  0  0  0  0
  188.0020  177.4900  135.8980 C   0  0  2  0  0  3  0  0  0  0  0  0
  187.2020  177.4590  134.6070 C   0  0  0  0  0  1  0  0  0  0  0  0
  190.4230  176.7760  134.9930 O   0  0  0  0  0  0  0  0  0  0  0  0
  188.7530  174.9990  135.2150 O   0  0  0  0  0  0  0  0  0  0  0  0
  189.2890  176.2590  135.8340 S   0  0  0  0  0  0  0  0  0  0  0  0
  191.2150  176.5600  137.7110 C   0  0  0  0  0  2  0  0  0  0  0  0
  192.1660  175.4100  137.9000 C   0  0  1  0  0  3  0  0  0  0  0  0
  190.0950  174.4560  137.6210 N   0  0  0  0  0  2  0  0  0  0  0  0
  189.8870  175.8940  137.4790 C   0  0  2  0  0  3  0  0  0  0  0  0
  191.4690  174.2180  137.4340 N   0  0  0  0  0  2  0  0  0  0  0  0
  193.2730  175.1770  135.7310 N   0  0  0  0  0  2  0  0  0  0  0  0
  193.4450  175.6350  137.0950 C   0  0  2  0  0  3  0  0  0  0  0  0
  194.4720  174.5320  135.3870 N   0  0  0  0  0  2  0  0  0  0  0  0
  194.5630  174.8000  137.6490 C   0  0  0  0  0  2  0  0  0  0  0  0
  194.9800  173.9400  136.5600 N   0  0  0  0  0  2  0  0  0  0  0  0
  1  2  2  0  0  0  0
  1  6  1  0  0  0  0
  2  7  1  0  0  0  0
  4 16  1  1  0  0  0
  5  4  1  0  0  0  0
  6  8  1  1  0  0  0
  6  5  1  0  0  0  0
  7  3  2  0  0  0  0
  7  4  1  0  0  0  0
  9  8  1  0  0  0  0
 11 12  2  0  0  0  0
 12  9  1  0  0  0  0
 12 10  1  0  0  0  0
 13 15  1  0  0  0  0
 13  9  1  0  0  0  0
 14 13  1  0  0  0  0
 16 17  1  0  0  0  0
 17 18  1  0  0  0  0
 18 19  1  0  0  0  0
 20 22  1  0  0  0  0
 21 19  1  1  0  0  0
 21 20  1  0  0  0  0
 21 22  1  0  0  0  0
 22 23  1  6  0  0  0
 23 25  1  1  0  0  0
 24 26  1  0  0  0  0
 25 28  1  0  0  0  0
 25 29  1  0  0  0  0
 27 26  1  0  0  0  0
 28 30  1  6  0  0  0
 28 27  1  0  0  0  0
 29 24  1  0  0  0  0
 31 34  1  6  0  0  0
 31 35  1  0  0  0  0
 31 33  1  0  0  0  0
 31 32  1  0  0  0  0
 32 23  1  1  0  0  0
 33 32  1  0  0  0  0
 36  2  1  0  0  0  0
 37 36  1  0  0  0  0
 38 39  1  6  0  0  0
 38 37  1  0  0  0  0
 40 42  2  0  0  0  0
 41 42  2  0  0  0  0
 42 38  1  0  0  0  0
 44 43  1  6  0  0  0
 46 42  1  6  0  0  0
 46 45  1  0  0  0  0
 46 43  1  0  0  0  0
 47 45  1  0  0  0  0
 47 44  1  0  0  0  0
 48 49  1  0  0  0  0
 49 51  1  1  0  0  0
 49 44  1  0  0  0  0
 50 48  1  0  0  0  0
 50 52  1  0  0  0  0
 52 51  1  0  0  0  0
M  END
>  <MODEL>
5

>  <REMARK>
 VINA RESULT:      -7.0      1.917      7.985
  Name = 
  17 active torsions:
  status: ('A' for Active; 'I' for Inactive)
    1  A    between atoms: N_2  and  C_45
    2  A    between atoms: C_3  and  C_10
    3  A    between atoms: C_3  and  C_51
    4  A    between atoms: C_7  and  N_18
    5  A    between atoms: C_9  and  C_12
    6  A    between atoms: C_9  and  C_39
    7  A    between atoms: C_11  and  C_32
    8  A    between atoms: C_12  and  C_17
    9  A    between atoms: N_18  and  N_48
   10  A    between atoms: C_25  and  C_45
   11  A    between atoms: C_26  and  S_30
   12  A    between atoms: C_26  and  C_51
   13  A    between atoms: S_30  and  C_36
   14  A    between atoms: C_35  and  C_52
   15  A    between atoms: C_39  and  C_52
   16  A    between atoms: C_40  and  C_45
   17  A    between atoms: C_42  and  N_48
                            x       y       z     vdW  Elec       q    Type
                         _______ _______ _______ _____ _____    ______ ____

>  <TORSDO>
F 17

$$$$
=
 OpenBabel10232409273D

 52 57  0  0  1  0  0  0  0  0999 V2000
  185.6880  177.3350  136.4750 C   0  0  0  0  0  3  0  0  0  0  0  0
  186.6670  177.7130  137.3080 C   0  0  0  0  0  0  0  0  0  0  0  0
  187.2890  178.4300  139.4830 O   0  0  0  0  0  0  0  0  0  0  0  0
  184.9200  178.2170  139.1570 C   0  0  1  0  0  3  0  0  0  0  0  0
  183.9530  178.3160  137.9740 C   0  0  0  0  0  2  0  0  0  0  0  0
  184.2560  177.2500  136.9170 C   0  0  2  0  0  3  0  0  0  0  0  0
  186.3520  178.1610  138.6840 C   0  0  0  0  0  0  0  0  0  0  0  0
  183.9880  175.9200  137.4500 N   0  0  0  0  0  2  0  0  0  0  0  0
  182.7280  175.5060  136.9740 N   0  0  0  0  0  0  0  0  0  0  0  0
  183.7660  174.8720  134.8130 N   0  0  0  0  0  1  0  0  0  0  0  0
  181.4920  174.6300  135.1840 O   0  0  0  0  0  0  0  0  0  0  0  0
  182.6120  174.9830  135.6400 C   0  0  0  0  0  0  0  0  0  0  0  0
  181.5310  175.6140  137.8160 C   0  0  0  0  0  3  0  0  0  0  0  0
  181.9210  175.8040  139.2710 C   0  0  0  0  0  1  0  0  0  0  0  0
  180.6200  176.7480  137.3700 C   0  0  0  0  0  1  0  0  0  0  0  0
  184.6940  179.3960  140.0960 C   0  0  0  0  0  2  0  0  0  0  0  0
  184.6130  178.9390  141.5480 C   0  0  0  0  0  2  0  0  0  0  0  0
  185.9150  179.1930  142.2950 C   0  0  0  0  0  2  0  0  0  0  0  0
  185.9980  178.3650  143.5680 C   0  0  0  0  0  2  0  0  0  0  0  0
  187.1930  176.3070  144.0690 N   0  0  0  0  0  2  0  0  0  0  0  0
  187.3630  177.7120  143.6780 C   0  0  2  0  0  3  0  0  0  0  0  0
  187.6040  177.3110  145.0610 C   0  0  2  0  0  3  0  0  0  0  0  0
  189.1170  177.2440  145.3790 C   0  0  1  0  0  3  0  0  0  0  0  0
  187.8760  177.9260  148.0300 C   0  0  0  0  0  2  0  0  0  0  0  0
  189.4100  176.5410  146.6580 N   0  0  0  0  0  0  0  0  0  0  0  0
  188.9240  178.3310  148.8760 O   0  0  0  0  0  0  0  0  0  0  0  0
  190.0740  178.4770  148.0760 C   0  0  0  0  0  2  0  0  0  0  0  0
  190.4720  177.1070  147.5190 C   0  0  2  0  0  3  0  0  0  0  0  0
  188.1680  176.5300  147.4450 C   0  0  0  0  0  2  0  0  0  0  0  0
  191.7170  177.1300  146.8840 O   0  0  0  0  0  1  0  0  0  0  0  0
  190.7880  177.7300  143.5430 C   0  0  1  0  0  0  0  0  0  0  0  0
  189.8720  176.7270  144.1430 C   0  0  1  0  0  3  0  0  0  0  0  0
  191.2620  176.7240  144.3980 O   0  0  0  0  0  0  0  0  0  0  0  0
  191.2840  177.5450  142.1260 C   0  0  0  0  0  1  0  0  0  0  0  0
  190.9110  178.9910  144.1330 O   0  0  0  0  0  1  0  0  0  0  0  0
  188.0720  177.7090  136.8060 C   0  0  0  0  0  2  0  0  0  0  0  0
  188.8390  176.5240  137.3690 C   0  0  0  0  0  2  0  0  0  0  0  0
  189.8850  176.0510  136.3690 C   0  0  2  0  0  3  0  0  0  0  0  0
  189.2180  175.3680  135.1870 C   0  0  0  0  0  1  0  0  0  0  0  0
  190.3410  173.5950  137.3420 O   0  0  0  0  0  0  0  0  0  0  0  0
  191.4320  175.4630  138.4900 O   0  0  0  0  0  0  0  0  0  0  0  0
  191.0210  174.9220  137.1500 S   0  0  0  0  0  0  0  0  0  0  0  0
  193.4100  173.7080  136.7720 C   0  0  0  0  0  2  0  0  0  0  0  0
  194.6410  174.5170  137.0830 C   0  0  1  0  0  3  0  0  0  0  0  0
  193.2010  175.9660  136.0320 N   0  0  0  0  0  2  0  0  0  0  0  0
  192.4780  174.7020  136.1360 C   0  0  2  0  0  3  0  0  0  0  0  0
  194.2540  175.9170  136.9630 N   0  0  0  0  0  2  0  0  0  0  0  0
  195.0460  175.3960  139.3300 N   0  0  0  0  0  2  0  0  0  0  0  0
  195.1370  174.2140  138.4960 C   0  0  2  0  0  3  0  0  0  0  0  0
  196.2210  175.4150  140.1000 N   0  0  0  0  0  2  0  0  0  0  0  0
  196.5960  173.8650  138.4710 C   0  0  0  0  0  2  0  0  0  0  0  0
  197.2440  174.8480  139.3150 N   0  0  0  0  0  2  0  0  0  0  0  0
  1  6  1  0  0  0  0
  1  2  2  0  0  0  0
  2  7  1  0  0  0  0
  4 16  1  1  0  0  0
  5  4  1  0  0  0  0
  6  8  1  1  0  0  0
  6  5  1  0  0  0  0
  7  4  1  0  0  0  0
  7  3  2  0  0  0  0
  9  8  1  0  0  0  0
  9 13  1  0  0  0  0
 10 12  1  0  0  0  0
 11 12  2  0  0  0  0
 12  9  1  0  0  0  0
 13 14  1  0  0  0  0
 15 13  1  0  0  0  0
 16 17  1  0  0  0  0
 17 18  1  0  0  0  0
 18 19  1  0  0  0  0
 20 22  1  0  0  0  0
 21 19  1  1  0  0  0
 21 20  1  0  0  0  0
 21 22  1  0  0  0  0
 22 23  1  6  0  0  0
 23 25  1  1  0  0  0
 24 26  1  0  0  0  0
 25 29  1  0  0  0  0
 25 28  1  0  0  0  0
 27 26  1  0  0  0  0
 28 30  1  6  0  0  0
 28 27  1  0  0  0  0
 29 24  1  0  0  0  0
 31 34  1  6  0  0  0
 31 35  1  0  0  0  0
 31 32  1  0  0  0  0
 31 33  1  0  0  0  0
 32 33  1  0  0  0  0
 32 23  1  1  0  0  0
 36  2  1  0  0  0  0
 36 37  1  0  0  0  0
 38 39  1  6  0  0  0
 38 42  1  0  0  0  0
 38 37  1  0  0  0  0
 42 40  2  0  0  0  0
 42 41  2  0  0  0  0
 44 43  1  1  0  0  0
 44 49  1  0  0  0  0
 45 46  1  0  0  0  0
 45 47  1  0  0  0  0
 46 43  1  0  0  0  0
 46 42  1  1  0  0  0
 47 44  1  0  0  0  0
 48 50  1  0  0  0  0
 49 51  1  6  0  0  0
 49 48  1  0  0  0  0
 51 52  1  0  0  0  0
 52 50  1  0  0  0  0
M  END
>  <MODEL>
6

>  <REMARK>
 VINA RESULT:      -7.0      2.191      8.323
  Name = 
  17 active torsions:
  status: ('A' for Active; 'I' for Inactive)
    1  A    between atoms: N_2  and  C_45
    2  A    between atoms: C_3  and  C_10
    3  A    between atoms: C_3  and  C_51
    4  A    between atoms: C_7  and  N_18
    5  A    between atoms: C_9  and  C_12
    6  A    between atoms: C_9  and  C_39
    7  A    between atoms: C_11  and  C_32
    8  A    between atoms: C_12  and  C_17
    9  A    between atoms: N_18  and  N_48
   10  A    between atoms: C_25  and  C_45
   11  A    between atoms: C_26  and  S_30
   12  A    between atoms: C_26  and  C_51
   13  A    between atoms: S_30  and  C_36
   14  A    between atoms: C_35  and  C_52
   15  A    between atoms: C_39  and  C_52
   16  A    between atoms: C_40  and  C_45
   17  A    between atoms: C_42  and  N_48
                            x       y       z     vdW  Elec       q    Type
                         _______ _______ _______ _____ _____    ______ ____

>  <TORSDO>
F 17

$$$$
=
 OpenBabel10232409273D

 52 57  0  0  1  0  0  0  0  0999 V2000
  187.5980  178.0380  144.5330 C   0  0  0  0  0  3  0  0  0  0  0  0
  187.4300  177.7260  143.2400 C   0  0  0  0  0  0  0  0  0  0  0  0
  188.4210  177.0650  141.1880 O   0  0  0  0  0  0  0  0  0  0  0  0
  189.9980  177.5190  142.9410 C   0  0  1  0  0  3  0  0  0  0  0  0
  190.0400  178.4060  144.1880 C   0  0  0  0  0  2  0  0  0  0  0  0
  188.9480  178.0140  145.1870 C   0  0  2  0  0  3  0  0  0  0  0  0
  188.5990  177.4410  142.3780 C   0  0  0  0  0  0  0  0  0  0  0  0
  189.2080  176.6840  145.7230 N   0  0  0  0  0  2  0  0  0  0  0  0
  189.9220  176.8320  146.9290 N   0  0  0  0  0  0  0  0  0  0  0  0
  191.9980  176.1250  145.7710 N   0  0  0  0  0  1  0  0  0  0  0  0
  191.9850  176.6450  148.0300 O   0  0  0  0  0  0  0  0  0  0  0  0
  191.3300  176.5440  146.9580 C   0  0  0  0  0  0  0  0  0  0  0  0
  189.2470  177.2640  148.1580 C   0  0  0  0  0  3  0  0  0  0  0  0
  189.4240  178.7580  148.3620 C   0  0  0  0  0  1  0  0  0  0  0  0
  187.7670  176.9130  148.1480 C   0  0  0  0  0  1  0  0  0  0  0  0
  190.9810  178.0510  141.9060 C   0  0  0  0  0  2  0  0  0  0  0  0
  191.5650  176.9210  141.0650 C   0  0  0  0  0  2  0  0  0  0  0  0
  191.3700  177.1660  139.5750 C   0  0  0  0  0  2  0  0  0  0  0  0
  192.2040  176.2070  138.7400 C   0  0  0  0  0  2  0  0  0  0  0  0
  191.7610  176.1200  136.3500 N   0  0  0  0  0  2  0  0  0  0  0  0
  191.3490  175.5820  137.6530 C   0  0  2  0  0  3  0  0  0  0  0  0
  190.5440  176.6170  137.0090 C   0  0  2  0  0  3  0  0  0  0  0  0
  189.2540  176.0300  136.3890 C   0  0  1  0  0  3  0  0  0  0  0  0
  188.8530  178.7080  137.6930 C   0  0  0  0  0  2  0  0  0  0  0  0
  188.3150  177.0780  135.9020 N   0  0  0  0  0  0  0  0  0  0  0  0
  187.5120  178.7570  138.1150 O   0  0  0  0  0  0  0  0  0  0  0  0
  186.9800  177.4610  137.9680 C   0  0  0  0  0  2  0  0  0  0  0  0
  186.9540  177.0960  136.4820 C   0  0  2  0  0  3  0  0  0  0  0  0
  188.9310  178.3820  136.1890 C   0  0  0  0  0  2  0  0  0  0  0  0
  186.2540  175.9120  136.2340 O   0  0  0  0  0  1  0  0  0  0  0  0
  189.1220  173.5940  135.7210 C   0  0  1  0  0  0  0  0  0  0  0  0
  189.6320  174.9430  135.3690 C   0  0  1  0  0  3  0  0  0  0  0  0
  188.4600  174.4050  134.7870 O   0  0  0  0  0  0  0  0  0  0  0  0
  189.7260  172.3670  135.0740 C   0  0  0  0  0  1  0  0  0  0  0  0
  188.3540  173.4260  136.8770 O   0  0  0  0  0  1  0  0  0  0  0  0
  186.0460  177.7130  142.6840 C   0  0  0  0  0  2  0  0  0  0  0  0
  185.8140  178.9220  141.7940 C   0  0  0  0  0  2  0  0  0  0  0  0
  184.3250  179.2210  141.6890 C   0  0  2  0  0  3  0  0  0  0  0  0
  183.5360  178.3210  142.6250 C   0  0  0  0  0  1  0  0  0  0  0  0
  184.0430  177.5680  139.5970 O   0  0  0  0  0  0  0  0  0  0  0  0
  184.4940  179.9230  139.0980 O   0  0  0  0  0  0  0  0  0  0  0  0
  183.7620  178.9850  140.0150 S   0  0  0  0  0  0  0  0  0  0  0  0
  181.2860  178.0740  139.4130 C   0  0  0  0  0  2  0  0  0  0  0  0
  180.7110  178.4930  138.0860 C   0  0  1  0  0  3  0  0  0  0  0  0
  181.7620  180.3590  138.9180 N   0  0  0  0  0  2  0  0  0  0  0  0
  182.0070  179.3030  139.8960 C   0  0  2  0  0  3  0  0  0  0  0  0
  181.3870  179.7310  137.7170 N   0  0  0  0  0  2  0  0  0  0  0  0
  181.6870  176.3010  137.6070 N   0  0  0  0  0  2  0  0  0  0  0  0
  180.9530  177.4120  137.0340 C   0  0  2  0  0  3  0  0  0  0  0  0
  182.6250  175.9170  136.6340 N   0  0  0  0  0  2  0  0  0  0  0  0
  181.8350  177.9400  135.9400 C   0  0  0  0  0  2  0  0  0  0  0  0
  183.0010  177.0800  135.9340 N   0  0  0  0  0  2  0  0  0  0  0  0
  1  6  1  0  0  0  0
  2  1  2  0  0  0  0
  3  7  2  0  0  0  0
  4 16  1  6  0  0  0
  4  5  1  0  0  0  0
  5  6  1  0  0  0  0
  6  8  1  6  0  0  0
  7  4  1  0  0  0  0
  7  2  1  0  0  0  0
  8  9  1  0  0  0  0
  9 12  1  0  0  0  0
  9 13  1  0  0  0  0
 10 12  1  0  0  0  0
 12 11  2  0  0  0  0
 13 14  1  0  0  0  0
 15 13  1  0  0  0  0
 17 16  1  0  0  0  0
 18 17  1  0  0  0  0
 19 18  1  0  0  0  0
 20 22  1  0  0  0  0
 20 21  1  0  0  0  0
 21 19  1  1  0  0  0
 22 23  1  6  0  0  0
 22 21  1  0  0  0  0
 23 25  1  6  0  0  0
 24 26  1  0  0  0  0
 25 29  1  0  0  0  0
 25 28  1  0  0  0  0
 27 26  1  0  0  0  0
 28 30  1  1  0  0  0
 28 27  1  0  0  0  0
 29 24  1  0  0  0  0
 31 34  1  6  0  0  0
 31 35  1  0  0  0  0
 32 31  1  0  0  0  0
 32 23  1  1  0  0  0
 33 32  1  0  0  0  0
 33 31  1  0  0  0  0
 36  2  1  0  0  0  0
 37 36  1  0  0  0  0
 38 37  1  0  0  0  0
 38 39  1  1  0  0  0
 40 42  2  0  0  0  0
 41 42  2  0  0  0  0
 42 38  1  0  0  0  0
 43 46  1  0  0  0  0
 44 43  1  1  0  0  0
 45 46  1  0  0  0  0
 46 42  1  6  0  0  0
 47 44  1  0  0  0  0
 47 45  1  0  0  0  0
 49 51  1  6  0  0  0
 49 48  1  0  0  0  0
 49 44  1  0  0  0  0
 50 48  1  0  0  0  0
 52 51  1  0  0  0  0
 52 50  1  0  0  0  0
M  END
>  <MODEL>
7

>  <REMARK>
 VINA RESULT:      -6.9      2.548      7.492
  Name = 
  17 active torsions:
  status: ('A' for Active; 'I' for Inactive)
    1  A    between atoms: N_2  and  C_45
    2  A    between atoms: C_3  and  C_10
    3  A    between atoms: C_3  and  C_51
    4  A    between atoms: C_7  and  N_18
    5  A    between atoms: C_9  and  C_12
    6  A    between atoms: C_9  and  C_39
    7  A    between atoms: C_11  and  C_32
    8  A    between atoms: C_12  and  C_17
    9  A    between atoms: N_18  and  N_48
   10  A    between atoms: C_25  and  C_45
   11  A    between atoms: C_26  and  S_30
   12  A    between atoms: C_26  and  C_51
   13  A    between atoms: S_30  and  C_36
   14  A    between atoms: C_35  and  C_52
   15  A    between atoms: C_39  and  C_52
   16  A    between atoms: C_40  and  C_45
   17  A    between atoms: C_42  and  N_48
                            x       y       z     vdW  Elec       q    Type
                         _______ _______ _______ _____ _____    ______ ____

>  <TORSDO>
F 17

$$$$
=
 OpenBabel10232409273D

 52 57  0  0  1  0  0  0  0  0999 V2000
  187.7940  176.5480  136.4940 C   0  0  0  0  0  3  0  0  0  0  0  0
  188.3540  177.3450  137.4150 C   0  0  0  0  0  0  0  0  0  0  0  0
  188.0940  178.5940  139.4160 O   0  0  0  0  0  0  0  0  0  0  0  0
  186.0580  177.6270  138.5880 C   0  0  1  0  0  3  0  0  0  0  0  0
  185.5050  177.2180  137.2200 C   0  0  0  0  0  2  0  0  0  0  0  0
  186.3580  176.1200  136.5800 C   0  0  2  0  0  3  0  0  0  0  0  0
  187.5370  177.9180  138.5090 C   0  0  0  0  0  0  0  0  0  0  0  0
  186.2610  174.8890  137.3550 N   0  0  0  0  0  2  0  0  0  0  0  0
  186.1010  173.8180  136.4530 N   0  0  0  0  0  0  0  0  0  0  0  0
  188.4890  173.2230  136.7540 N   0  0  0  0  0  1  0  0  0  0  0  0
  187.1130  172.0310  135.3200 O   0  0  0  0  0  0  0  0  0  0  0  0
  187.2260  172.9790  136.1420 C   0  0  0  0  0  0  0  0  0  0  0  0
  184.8050  173.5550  135.8170 C   0  0  0  0  0  3  0  0  0  0  0  0
  183.7440  173.2820  136.8690 C   0  0  0  0  0  1  0  0  0  0  0  0
  184.3650  174.7040  134.9230 C   0  0  0  0  0  1  0  0  0  0  0  0
  185.2850  178.8330  139.1070 C   0  0  0  0  0  2  0  0  0  0  0  0
  184.7330  178.5770  140.5050 C   0  0  0  0  0  2  0  0  0  0  0  0
  185.6350  179.1560  141.5860 C   0  0  0  0  0  2  0  0  0  0  0  0
  185.3790  178.5030  142.9350 C   0  0  0  0  0  2  0  0  0  0  0  0
  186.2380  176.9290  144.5770 N   0  0  0  0  0  2  0  0  0  0  0  0
  186.5410  177.6020  143.3080 C   0  0  2  0  0  3  0  0  0  0  0  0
  187.1530  178.0800  144.5450 C   0  0  2  0  0  3  0  0  0  0  0  0
  188.6380  177.6580  144.6450 C   0  0  1  0  0  3  0  0  0  0  0  0
  190.4290  175.6190  143.3510 C   0  0  0  0  0  2  0  0  0  0  0  0
  189.3880  177.8710  143.3770 N   0  0  0  0  0  0  0  0  0  0  0  0
  191.7240  176.1670  143.3380 O   0  0  0  0  0  0  0  0  0  0  0  0
  191.6950  177.3270  144.1380 C   0  0  0  0  0  2  0  0  0  0  0  0
  190.7790  178.3630  143.4830 C   0  0  2  0  0  3  0  0  0  0  0  0
  189.4330  176.5810  142.6730 C   0  0  0  0  0  2  0  0  0  0  0  0
  190.8560  179.6130  144.1040 O   0  0  0  0  0  1  0  0  0  0  0  0
  188.8140  177.6420  147.1680 C   0  0  1  0  0  0  0  0  0  0  0  0
  189.2590  178.2840  145.9050 C   0  0  1  0  0  3  0  0  0  0  0  0
  190.0460  177.3210  146.5780 O   0  0  0  0  0  0  0  0  0  0  0  0
  188.9920  178.3680  148.4840 C   0  0  0  0  0  1  0  0  0  0  0  0
  187.9350  176.5580  147.1190 O   0  0  0  0  0  1  0  0  0  0  0  0
  189.8040  177.6710  137.2890 C   0  0  0  0  0  2  0  0  0  0  0  0
  190.6540  176.4330  137.5260 C   0  0  0  0  0  2  0  0  0  0  0  0
  191.7080  176.3030  136.4360 C   0  0  2  0  0  3  0  0  0  0  0  0
  191.1610  175.5140  135.2590 C   0  0  0  0  0  1  0  0  0  0  0  0
  192.7580  174.1920  137.7150 O   0  0  0  0  0  0  0  0  0  0  0  0
  193.8160  176.3660  138.1070 O   0  0  0  0  0  0  0  0  0  0  0  0
  193.1620  175.4920  137.0750 S   0  0  0  0  0  0  0  0  0  0  0  0
  195.2470  174.0440  136.1400 C   0  0  0  0  0  2  0  0  0  0  0  0
  196.6050  174.6920  136.1950 C   0  0  1  0  0  3  0  0  0  0  0  0
  195.1570  176.3490  135.5340 N   0  0  0  0  0  2  0  0  0  0  0  0
  194.3260  175.1700  135.7570 C   0  0  2  0  0  3  0  0  0  0  0  0
  196.3730  176.1310  136.2060 N   0  0  0  0  0  2  0  0  0  0  0  0
  197.8830  175.4110  138.1530 N   0  0  0  0  0  2  0  0  0  0  0  0
  197.3550  174.2560  137.4520 C   0  0  2  0  0  3  0  0  0  0  0  0
  199.1700  175.0440  138.5830 N   0  0  0  0  0  2  0  0  0  0  0  0
  198.5590  173.4390  137.0830 C   0  0  0  0  0  2  0  0  0  0  0  0
  199.6950  174.1590  137.6210 N   0  0  0  0  0  2  0  0  0  0  0  0
  1  6  1  0  0  0  0
  1  2  2  0  0  0  0
  2  7  1  0  0  0  0
  4 16  1  6  0  0  0
  5  4  1  0  0  0  0
  6  5  1  0  0  0  0
  6  8  1  1  0  0  0
  7  4  1  0  0  0  0
  7  3  2  0  0  0  0
  9  8  1  0  0  0  0
 11 12  2  0  0  0  0
 12  9  1  0  0  0  0
 12 10  1  0  0  0  0
 13  9  1  0  0  0  0
 13 14  1  0  0  0  0
 15 13  1  0  0  0  0
 16 17  1  0  0  0  0
 17 18  1  0  0  0  0
 18 19  1  0  0  0  0
 21 19  1  1  0  0  0
 21 22  1  0  0  0  0
 21 20  1  0  0  0  0
 22 20  1  0  0  0  0
 22 23  1  6  0  0  0
 23 25  1  6  0  0  0
 25 28  1  0  0  0  0
 26 24  1  0  0  0  0
 26 27  1  0  0  0  0
 28 30  1  1  0  0  0
 28 27  1  0  0  0  0
 29 24  1  0  0  0  0
 29 25  1  0  0  0  0
 31 34  1  1  0  0  0
 32 23  1  6  0  0  0
 32 33  1  0  0  0  0
 32 31  1  0  0  0  0
 33 31  1  0  0  0  0
 35 31  1  0  0  0  0
 36  2  1  0  0  0  0
 36 37  1  0  0  0  0
 38 39  1  6  0  0  0
 38 42  1  0  0  0  0
 38 37  1  0  0  0  0
 42 40  2  0  0  0  0
 42 41  2  0  0  0  0
 44 43  1  1  0  0  0
 44 47  1  0  0  0  0
 44 49  1  0  0  0  0
 45 46  1  0  0  0  0
 45 47  1  0  0  0  0
 46 43  1  0  0  0  0
 46 42  1  1  0  0  0
 48 50  1  0  0  0  0
 49 51  1  6  0  0  0
 49 48  1  0  0  0  0
 51 52  1  0  0  0  0
 52 50  1  0  0  0  0
M  END
>  <MODEL>
8

>  <REMARK>
 VINA RESULT:      -6.9      2.556      7.847
  Name = 
  17 active torsions:
  status: ('A' for Active; 'I' for Inactive)
    1  A    between atoms: N_2  and  C_45
    2  A    between atoms: C_3  and  C_10
    3  A    between atoms: C_3  and  C_51
    4  A    between atoms: C_7  and  N_18
    5  A    between atoms: C_9  and  C_12
    6  A    between atoms: C_9  and  C_39
    7  A    between atoms: C_11  and  C_32
    8  A    between atoms: C_12  and  C_17
    9  A    between atoms: N_18  and  N_48
   10  A    between atoms: C_25  and  C_45
   11  A    between atoms: C_26  and  S_30
   12  A    between atoms: C_26  and  C_51
   13  A    between atoms: S_30  and  C_36
   14  A    between atoms: C_35  and  C_52
   15  A    between atoms: C_39  and  C_52
   16  A    between atoms: C_40  and  C_45
   17  A    between atoms: C_42  and  N_48
                            x       y       z     vdW  Elec       q    Type
                         _______ _______ _______ _____ _____    ______ ____

>  <TORSDO>
F 17

$$$$
=
 OpenBabel10232409273D

 52 57  0  0  1  0  0  0  0  0999 V2000
  188.5390  177.4860  141.7320 C   0  0  0  0  0  3  0  0  0  0  0  0
  187.7620  178.2210  140.9250 C   0  0  0  0  0  0  0  0  0  0  0  0
  185.7990  179.5300  140.6730 O   0  0  0  0  0  0  0  0  0  0  0  0
  186.0160  178.4880  142.8250 C   0  0  1  0  0  3  0  0  0  0  0  0
  186.6860  177.2280  143.3800 C   0  0  0  0  0  2  0  0  0  0  0  0
  188.2030  177.2690  143.1790 C   0  0  2  0  0  3  0  0  0  0  0  0
  186.4760  178.7700  141.4140 C   0  0  0  0  0  0  0  0  0  0  0  0
  188.7910  178.3340  143.9810 N   0  0  0  0  0  2  0  0  0  0  0  0
  189.6560  177.7420  144.9230 N   0  0  0  0  0  0  0  0  0  0  0  0
  187.7950  177.6530  146.5590 N   0  0  0  0  0  1  0  0  0  0  0  0
  189.9180  176.8950  147.0950 O   0  0  0  0  0  0  0  0  0  0  0  0
  189.1570  177.4030  146.2280 C   0  0  0  0  0  0  0  0  0  0  0  0
  191.0620  177.4780  144.5950 C   0  0  0  0  0  3  0  0  0  0  0  0
  191.2040  176.1200  143.9290 C   0  0  0  0  0  1  0  0  0  0  0  0
  191.6510  178.5580  143.7010 C   0  0  0  0  0  1  0  0  0  0  0  0
  184.5020  178.3290  142.8900 C   0  0  0  0  0  2  0  0  0  0  0  0
  183.9090  178.1070  141.5040 C   0  0  0  0  0  2  0  0  0  0  0  0
  182.4120  178.3840  141.4780 C   0  0  0  0  0  2  0  0  0  0  0  0
  181.9710  178.9390  140.1320 C   0  0  0  0  0  2  0  0  0  0  0  0
  182.7130  179.1760  137.8290 N   0  0  0  0  0  2  0  0  0  0  0  0
  182.7910  178.3180  139.0180 C   0  0  2  0  0  3  0  0  0  0  0  0
  181.9120  177.9460  137.9130 C   0  0  2  0  0  3  0  0  0  0  0  0
  182.5100  176.7920  137.0730 C   0  0  1  0  0  3  0  0  0  0  0  0
  179.9820  175.8460  138.3960 C   0  0  0  0  0  2  0  0  0  0  0  0
  181.4700  175.9540  136.4140 N   0  0  0  0  0  0  0  0  0  0  0  0
  180.0370  174.4410  138.4180 O   0  0  0  0  0  0  0  0  0  0  0  0
  181.3400  174.0670  138.0330 C   0  0  0  0  0  2  0  0  0  0  0  0
  181.5710  174.4880  136.5790 C   0  0  2  0  0  3  0  0  0  0  0  0
  180.1680  176.3680  136.9570 C   0  0  0  0  0  2  0  0  0  0  0  0
  182.7620  173.9740  136.0570 O   0  0  0  0  0  1  0  0  0  0  0  0
  184.9480  176.7710  136.3980 C   0  0  1  0  0  0  0  0  0  0  0  0
  183.6040  177.3520  136.1490 C   0  0  1  0  0  3  0  0  0  0  0  0
  184.1350  176.3130  135.3510 O   0  0  0  0  0  0  0  0  0  0  0  0
  186.1820  177.4790  135.8840 C   0  0  0  0  0  1  0  0  0  0  0  0
  185.1040  175.7910  137.3810 O   0  0  0  0  0  1  0  0  0  0  0  0
  188.2020  178.4400  139.5170 C   0  0  0  0  0  2  0  0  0  0  0  0
  188.6680  177.1350  138.8920 C   0  0  0  0  0  2  0  0  0  0  0  0
  189.9330  177.3630  138.0780 C   0  0  2  0  0  3  0  0  0  0  0  0
  189.6390  177.2360  136.5930 C   0  0  0  0  0  1  0  0  0  0  0  0
  190.7640  174.8140  138.1000 O   0  0  0  0  0  0  0  0  0  0  0  0
  191.3600  176.1920  140.0340 O   0  0  0  0  0  0  0  0  0  0  0  0
  191.1890  176.1870  138.5420 S   0  0  0  0  0  0  0  0  0  0  0  0
  193.1110  175.5720  136.7390 C   0  0  0  0  0  2  0  0  0  0  0  0
  194.3740  174.9530  137.2760 C   0  0  1  0  0  3  0  0  0  0  0  0
  193.8100  176.5990  138.7760 N   0  0  0  0  0  2  0  0  0  0  0  0
  192.7480  176.6020  137.7730 C   0  0  2  0  0  3  0  0  0  0  0  0
  194.4730  175.3640  138.6710 N   0  0  0  0  0  2  0  0  0  0  0  0
  195.6230  172.8930  136.8530 N   0  0  0  0  0  2  0  0  0  0  0  0
  194.3130  173.4310  137.1640 C   0  0  2  0  0  3  0  0  0  0  0  0
  195.4060  171.8770  135.9070 N   0  0  0  0  0  2  0  0  0  0  0  0
  193.4410  173.0280  136.0110 C   0  0  0  0  0  2  0  0  0  0  0  0
  194.2960  172.2600  135.1290 N   0  0  0  0  0  2  0  0  0  0  0  0
  1  6  1  0  0  0  0
  2  7  1  0  0  0  0
  2  1  2  0  0  0  0
  3  7  2  0  0  0  0
  4 16  1  6  0  0  0
  4  5  1  0  0  0  0
  6  5  1  0  0  0  0
  6  8  1  1  0  0  0
  7  4  1  0  0  0  0
  8  9  1  0  0  0  0
  9 12  1  0  0  0  0
 12 10  1  0  0  0  0
 12 11  2  0  0  0  0
 13  9  1  0  0  0  0
 14 13  1  0  0  0  0
 15 13  1  0  0  0  0
 17 16  1  0  0  0  0
 18 17  1  0  0  0  0
 19 18  1  0  0  0  0
 20 22  1  0  0  0  0
 20 21  1  0  0  0  0
 21 19  1  1  0  0  0
 22 23  1  6  0  0  0
 22 21  1  0  0  0  0
 23 25  1  6  0  0  0
 24 26  1  0  0  0  0
 25 28  1  0  0  0  0
 25 29  1  0  0  0  0
 27 26  1  0  0  0  0
 28 30  1  1  0  0  0
 28 27  1  0  0  0  0
 29 24  1  0  0  0  0
 31 34  1  6  0  0  0
 31 35  1  0  0  0  0
 32 31  1  0  0  0  0
 32 23  1  1  0  0  0
 33 32  1  0  0  0  0
 33 31  1  0  0  0  0
 36  2  1  0  0  0  0
 37 36  1  0  0  0  0
 38 39  1  6  0  0  0
 38 42  1  0  0  0  0
 38 37  1  0  0  0  0
 40 42  2  0  0  0  0
 42 41  2  0  0  0  0
 43 46  1  0  0  0  0
 44 43  1  1  0  0  0
 44 47  1  0  0  0  0
 46 42  1  1  0  0  0
 46 45  1  0  0  0  0
 47 45  1  0  0  0  0
 48 49  1  0  0  0  0
 49 51  1  6  0  0  0
 49 44  1  0  0  0  0
 50 48  1  0  0  0  0
 52 50  1  0  0  0  0
 52 51  1  0  0  0  0
M  END
>  <MODEL>
9

>  <REMARK>
 VINA RESULT:      -6.9      1.676      2.752
  Name = 
  17 active torsions:
  status: ('A' for Active; 'I' for Inactive)
    1  A    between atoms: N_2  and  C_45
    2  A    between atoms: C_3  and  C_10
    3  A    between atoms: C_3  and  C_51
    4  A    between atoms: C_7  and  N_18
    5  A    between atoms: C_9  and  C_12
    6  A    between atoms: C_9  and  C_39
    7  A    between atoms: C_11  and  C_32
    8  A    between atoms: C_12  and  C_17
    9  A    between atoms: N_18  and  N_48
   10  A    between atoms: C_25  and  C_45
   11  A    between atoms: C_26  and  S_30
   12  A    between atoms: C_26  and  C_51
   13  A    between atoms: S_30  and  C_36
   14  A    between atoms: C_35  and  C_52
   15  A    between atoms: C_39  and  C_52
   16  A    between atoms: C_40  and  C_45
   17  A    between atoms: C_42  and  N_48
                            x       y       z     vdW  Elec       q    Type
                         _______ _______ _______ _____ _____    ______ ____

>  <TORSDO>
F 17

$$$$
