=
 OpenBabel10232410513D

 49 54  0  0  1  0  0  0  0  0999 V2000
  189.0530  177.7860  140.5240 C   0  0  2  0  0  3  0  0  0  0  0  0
  190.5080  177.5550  140.1090 C   0  0  0  0  0  2  0  0  0  0  0  0
  189.6110  176.3800  138.0940 C   0  0  0  0  0  3  0  0  0  0  0  0
  190.6530  176.6720  138.8910 C   0  0  0  0  0  0  0  0  0  0  0  0
  188.1920  178.0470  139.2940 C   0  0  0  0  0  2  0  0  0  0  0  0
  188.1940  176.7990  138.4090 C   0  0  1  0  0  3  0  0  0  0  0  0
  184.7090  176.4500  135.8710 C   0  0  2  0  0  3  0  0  0  0  0  0
  186.1670  177.9130  137.3180 C   0  0  0  0  0  2  0  0  0  0  0  0
  186.0240  175.8380  135.3570 C   0  0  0  0  0  2  0  0  0  0  0  0
  187.0560  175.6620  136.4670 C   0  0  0  0  0  2  0  0  0  0  0  0
  187.4060  177.0130  137.1110 C   0  0  2  0  0  3  0  0  0  0  0  0
  184.8540  177.1410  137.2300 C   0  0  0  0  0  2  0  0  0  0  0  0
  183.6140  175.3940  135.9730 C   0  0  0  0  0  2  0  0  0  0  0  0
  184.1070  173.8410  137.7360 O   0  0  0  0  0  1  0  0  0  0  0  0
  183.3520  174.9710  137.4200 C   0  0  2  0  0  3  0  0  0  0  0  0
  181.8740  174.6850  137.6710 C   0  0  1  0  0  3  0  0  0  0  0  0
  181.0230  175.9130  137.3990 C   0  0  0  0  0  1  0  0  0  0  0  0
  181.4350  173.6200  136.8850 O   0  0  0  0  0  1  0  0  0  0  0  0
  188.9870  178.8850  141.3800 O   0  0  0  0  0  0  0  0  0  0  0  0
  190.4940  178.6090  143.0950 O   0  0  0  0  0  1  0  0  0  0  0  0
  189.1950  178.3640  142.6580 C   0  0  2  0  0  3  0  0  0  0  0  0
  186.8350  177.7650  144.4670 C   0  0  0  0  0  0  0  0  0  0  0  0
  187.4880  176.5990  143.7370 C   0  0  2  0  0  3  0  0  0  0  0  0
  187.2290  178.0880  145.7080 C   0  0  0  0  0  3  0  0  0  0  0  0
  188.8910  176.1990  144.2360 C   0  0  1  0  0  3  0  0  0  0  0  0
  188.3190  177.3420  146.3970 C   0  0  0  0  0  2  0  0  0  0  0  0
  188.7260  176.8950  142.8700 C   0  0  2  0  0  3  0  0  0  0  0  0
  189.4210  177.0460  145.4000 C   0  0  0  0  0  2  0  0  0  0  0  0
  183.2360  178.5370  141.9120 N   0  0  0  0  0  0  0  0  0  0  0  0
  183.5450  179.7460  144.1180 C   0  0  0  0  0  2  0  0  0  0  0  0
  181.5730  178.5600  143.5560 O   0  0  0  0  0  0  0  0  0  0  0  0
  184.6150  178.6520  141.5340 C   0  0  0  0  0  3  0  0  0  0  0  0
  185.6690  178.4510  143.8420 C   0  0  0  0  0  0  0  0  0  0  0  0
  182.7290  178.9110  143.1990 C   0  0  0  0  0  0  0  0  0  0  0  0
  184.7040  178.9610  144.6210 C   0  0  0  0  0  3  0  0  0  0  0  0
  185.6640  178.6070  142.3680 C   0  0  0  0  0  3  0  0  0  0  0  0
  182.8290  177.0060  140.2040 O   0  0  0  0  0  1  0  0  0  0  0  0
  182.3060  178.1070  140.8820 C   0  0  0  0  0  2  0  0  0  0  0  0
  192.0290  176.2480  138.4830 C   0  0  0  0  0  2  0  0  0  0  0  0
  194.0390  174.6810  136.3550 C   0  0  2  0  0  3  0  0  0  0  0  0
  193.4010  176.0430  136.4150 C   0  0  0  0  0  2  0  0  0  0  0  0
  193.1100  173.7360  136.9630 N   0  0  0  0  0  2  0  0  0  0  0  0
  191.8400  174.3430  136.9720 N   0  0  0  0  0  2  0  0  0  0  0  0
  192.0500  175.7820  137.0290 C   0  0  1  0  0  3  0  0  0  0  0  0
  195.3380  174.6890  137.0930 C   0  0  0  0  0  0  0  0  0  0  0  0
  195.4110  173.9830  138.5740 S   0  0  0  0  0  0  0  0  0  0  0  0
  196.5190  175.1780  136.4520 N   0  0  0  0  0  2  0  0  0  0  0  0
  198.6590  174.4510  136.7940 C   0  0  0  0  0  1  0  0  0  0  0  0
  197.6890  175.4600  137.1690 N   0  0  0  0  0  2  0  0  0  0  0  0
  1 19  1  1  0  0  0
  2  1  1  0  0  0  0
  3  4  2  0  0  0  0
  4  2  1  0  0  0  0
  5  1  1  0  0  0  0
  6  3  1  6  0  0  0
  6  5  1  0  0  0  0
  7 13  1  1  0  0  0
  7 12  1  0  0  0  0
  9  7  1  0  0  0  0
  9 10  1  0  0  0  0
 11 10  1  1  0  0  0
 11  8  1  0  0  0  0
 11  6  1  0  0  0  0
 12  8  1  0  0  0  0
 13 15  1  0  0  0  0
 15 16  1  0  0  0  0
 15 14  1  6  0  0  0
 16 17  1  6  0  0  0
 18 16  1  0  0  0  0
 19 21  1  0  0  0  0
 21 20  1  6  0  0  0
 22 24  2  0  0  0  0
 23 25  1  0  0  0  0
 23 22  1  1  0  0  0
 24 26  1  0  0  0  0
 25 28  1  1  0  0  0
 27 21  1  1  0  0  0
 27 23  1  0  0  0  0
 27 25  1  0  0  0  0
 28 26  1  0  0  0  0
 29 34  1  0  0  0  0
 30 35  1  0  0  0  0
 32 29  1  0  0  0  0
 32 36  2  0  0  0  0
 33 22  1  0  0  0  0
 33 35  2  0  0  0  0
 34 31  2  0  0  0  0
 34 30  1  0  0  0  0
 36 33  1  0  0  0  0
 37 38  1  0  0  0  0
 38 29  1  0  0  0  0
 39  4  1  0  0  0  0
 40 41  1  0  0  0  0
 40 42  1  0  0  0  0
 40 45  1  1  0  0  0
 41 44  1  0  0  0  0
 42 43  1  0  0  0  0
 43 44  1  0  0  0  0
 44 39  1  1  0  0  0
 45 46  2  0  0  0  0
 47 45  1  0  0  0  0
 47 49  1  0  0  0  0
 48 49  1  0  0  0  0
M  END
>  <MODEL>
1

>  <REMARK>
 VINA RESULT:      -8.5      0.000      0.000
  Name = 
  14 active torsions:
  status: ('A' for Active; 'I' for Inactive)
    1  A    between atoms: C_1  and  O_22
    2  A    between atoms: C_3  and  C_9
    3  A    between atoms: C_4  and  C_47
    4  A    between atoms: C_5  and  C_28
    5  A    between atoms: C_8  and  C_18
    6  A    between atoms: C_9  and  N_48
    7  A    between atoms: N_12  and  C_42
    8  A    between atoms: C_15  and  C_25
    9  A    between atoms: C_18  and  C_47
   10  A    between atoms: O_22  and  C_38
   11  A    between atoms: C_25  and  C_45
   12  A    between atoms: C_34  and  C_49
   13  A    between atoms: C_37  and  C_38
   14  A    between atoms: N_41  and  N_48
                            x       y       z     vdW  Elec       q    Type
                         _______ _______ _______ _____ _____    ______ ____

>  <TORSDO>
F 14

$$$$
=
 OpenBabel10232410513D

 49 54  0  0  1  0  0  0  0  0999 V2000
  188.5900  177.9570  140.1890 C   0  0  2  0  0  3  0  0  0  0  0  0
  189.8990  177.8220  139.4090 C   0  0  0  0  0  2  0  0  0  0  0  0
  188.5530  176.7630  137.5880 C   0  0  0  0  0  3  0  0  0  0  0  0
  189.7550  177.0400  138.1230 C   0  0  0  0  0  0  0  0  0  0  0  0
  187.4420  178.2720  139.2370 C   0  0  0  0  0  2  0  0  0  0  0  0
  187.2520  177.0960  138.2780 C   0  0  1  0  0  3  0  0  0  0  0  0
  183.5190  176.2850  136.2490 C   0  0  2  0  0  3  0  0  0  0  0  0
  184.7980  177.7060  137.8920 C   0  0  0  0  0  2  0  0  0  0  0  0
  184.7980  176.3190  135.3940 C   0  0  0  0  0  2  0  0  0  0  0  0
  186.0650  176.2100  136.2370 C   0  0  0  0  0  2  0  0  0  0  0  0
  186.1580  177.3720  137.2400 C   0  0  2  0  0  3  0  0  0  0  0  0
  183.7730  176.5890  137.7280 C   0  0  0  0  0  2  0  0  0  0  0  0
  182.8200  174.9350  136.1390 C   0  0  0  0  0  2  0  0  0  0  0  0
  183.4310  172.9590  134.9190 O   0  0  0  0  0  1  0  0  0  0  0  0
  183.8130  173.7810  135.9800 C   0  0  2  0  0  3  0  0  0  0  0  0
  183.9300  172.9500  137.2540 C   0  0  1  0  0  3  0  0  0  0  0  0
  183.4150  171.5380  137.0390 C   0  0  0  0  0  1  0  0  0  0  0  0
  185.2510  172.9100  137.7000 O   0  0  0  0  0  1  0  0  0  0  0  0
  188.7150  178.9850  141.1230 O   0  0  0  0  0  0  0  0  0  0  0  0
  190.4230  178.5390  142.5960 O   0  0  0  0  0  1  0  0  0  0  0  0
  189.0730  178.3540  142.3150 C   0  0  2  0  0  3  0  0  0  0  0  0
  186.8240  177.6660  144.2310 C   0  0  0  0  0  0  0  0  0  0  0  0
  187.4110  176.5420  143.3880 C   0  0  2  0  0  3  0  0  0  0  0  0
  187.3010  177.9040  145.4610 C   0  0  0  0  0  3  0  0  0  0  0  0
  188.8360  176.0950  143.7680 C   0  0  1  0  0  3  0  0  0  0  0  0
  188.4210  177.1030  146.0310 C   0  0  0  0  0  2  0  0  0  0  0  0
  188.5960  176.8780  142.4630 C   0  0  2  0  0  3  0  0  0  0  0  0
  189.4520  176.8590  144.9480 C   0  0  0  0  0  2  0  0  0  0  0  0
  183.0540  178.6220  142.0050 N   0  0  0  0  0  0  0  0  0  0  0  0
  183.5730  179.7400  144.2200 C   0  0  0  0  0  2  0  0  0  0  0  0
  181.5300  178.6260  143.7790 O   0  0  0  0  0  0  0  0  0  0  0  0
  184.4010  178.7170  141.5210 C   0  0  0  0  0  3  0  0  0  0  0  0
  185.6310  178.4030  143.7270 C   0  0  0  0  0  0  0  0  0  0  0  0
  182.6630  178.9610  143.3420 C   0  0  0  0  0  0  0  0  0  0  0  0
  184.7470  178.9090  144.5990 C   0  0  0  0  0  3  0  0  0  0  0  0
  185.5120  178.6150  142.2640 C   0  0  0  0  0  3  0  0  0  0  0  0
  181.6950  179.3660  140.2660 O   0  0  0  0  0  1  0  0  0  0  0  0
  182.0330  178.2550  141.0390 C   0  0  0  0  0  2  0  0  0  0  0  0
  190.9940  176.7080  137.3530 C   0  0  0  0  0  2  0  0  0  0  0  0
  193.7500  174.8780  137.0820 C   0  0  2  0  0  3  0  0  0  0  0  0
  192.3830  174.6660  137.6730 C   0  0  0  0  0  2  0  0  0  0  0  0
  194.0920  176.2830  137.2620 N   0  0  0  0  0  2  0  0  0  0  0  0
  193.2510  176.7940  138.2700 N   0  0  0  0  0  2  0  0  0  0  0  0
  192.0230  176.0140  138.2410 C   0  0  1  0  0  3  0  0  0  0  0  0
  193.7440  174.5210  135.6300 C   0  0  0  0  0  0  0  0  0  0  0  0
  193.1900  175.6240  134.5470 S   0  0  0  0  0  0  0  0  0  0  0  0
  194.3420  173.2970  135.1940 N   0  0  0  0  0  2  0  0  0  0  0  0
  192.7240  171.6950  135.3910 C   0  0  0  0  0  1  0  0  0  0  0  0
  194.0590  172.0730  135.8130 N   0  0  0  0  0  2  0  0  0  0  0  0
  1 19  1  1  0  0  0
  2  1  1  0  0  0  0
  3  4  2  0  0  0  0
  4  2  1  0  0  0  0
  5  1  1  0  0  0  0
  6  3  1  6  0  0  0
  6  5  1  0  0  0  0
  7 13  1  1  0  0  0
  7 12  1  0  0  0  0
  9 10  1  0  0  0  0
  9  7  1  0  0  0  0
 11 10  1  6  0  0  0
 11  8  1  0  0  0  0
 11  6  1  0  0  0  0
 12  8  1  0  0  0  0
 15 14  1  6  0  0  0
 15 13  1  0  0  0  0
 15 16  1  0  0  0  0
 16 17  1  6  0  0  0
 16 18  1  0  0  0  0
 19 21  1  0  0  0  0
 21 20  1  6  0  0  0
 22 24  2  0  0  0  0
 23 25  1  0  0  0  0
 23 22  1  1  0  0  0
 24 26  1  0  0  0  0
 25 28  1  1  0  0  0
 27 21  1  1  0  0  0
 27 23  1  0  0  0  0
 27 25  1  0  0  0  0
 28 26  1  0  0  0  0
 29 34  1  0  0  0  0
 30 35  1  0  0  0  0
 32 29  1  0  0  0  0
 32 36  2  0  0  0  0
 33 22  1  0  0  0  0
 33 35  2  0  0  0  0
 34 31  2  0  0  0  0
 34 30  1  0  0  0  0
 36 33  1  0  0  0  0
 37 38  1  0  0  0  0
 38 29  1  0  0  0  0
 39  4  1  0  0  0  0
 40 45  1  6  0  0  0
 40 42  1  0  0  0  0
 40 41  1  0  0  0  0
 41 44  1  0  0  0  0
 42 43  1  0  0  0  0
 44 39  1  6  0  0  0
 44 43  1  0  0  0  0
 46 45  2  0  0  0  0
 47 45  1  0  0  0  0
 47 49  1  0  0  0  0
 48 49  1  0  0  0  0
M  END
>  <MODEL>
2

>  <REMARK>
 VINA RESULT:      -8.4      1.635      2.135
  Name = 
  14 active torsions:
  status: ('A' for Active; 'I' for Inactive)
    1  A    between atoms: C_1  and  O_22
    2  A    between atoms: C_3  and  C_9
    3  A    between atoms: C_4  and  C_47
    4  A    between atoms: C_5  and  C_28
    5  A    between atoms: C_8  and  C_18
    6  A    between atoms: C_9  and  N_48
    7  A    between atoms: N_12  and  C_42
    8  A    between atoms: C_15  and  C_25
    9  A    between atoms: C_18  and  C_47
   10  A    between atoms: O_22  and  C_38
   11  A    between atoms: C_25  and  C_45
   12  A    between atoms: C_34  and  C_49
   13  A    between atoms: C_37  and  C_38
   14  A    between atoms: N_41  and  N_48
                            x       y       z     vdW  Elec       q    Type
                         _______ _______ _______ _____ _____    ______ ____

>  <TORSDO>
F 14

$$$$
=
 OpenBabel10232410513D

 49 54  0  0  1  0  0  0  0  0999 V2000
  187.1640  177.9150  139.1470 C   0  0  2  0  0  3  0  0  0  0  0  0
  187.5260  178.0130  140.6300 C   0  0  0  0  0  2  0  0  0  0  0  0
  189.6690  176.8640  140.0510 C   0  0  0  0  0  3  0  0  0  0  0  0
  188.8010  177.2860  140.9880 C   0  0  0  0  0  0  0  0  0  0  0  0
  188.4100  178.1070  138.2900 C   0  0  0  0  0  2  0  0  0  0  0  0
  189.3900  176.9660  138.5710 C   0  0  1  0  0  3  0  0  0  0  0  0
  192.8690  175.5090  136.4530 C   0  0  2  0  0  3  0  0  0  0  0  0
  190.6010  176.6070  136.3470 C   0  0  0  0  0  2  0  0  0  0  0  0
  193.1100  176.3830  137.6970 C   0  0  0  0  0  2  0  0  0  0  0  0
  191.8690  176.5000  138.5750 C   0  0  0  0  0  2  0  0  0  0  0  0
  190.7030  177.1320  137.7970 C   0  0  2  0  0  3  0  0  0  0  0  0
  191.3850  175.3160  136.1290 C   0  0  0  0  0  2  0  0  0  0  0  0
  193.5190  174.1390  136.6080 C   0  0  0  0  0  2  0  0  0  0  0  0
  195.8840  173.9840  136.2240 O   0  0  0  0  0  1  0  0  0  0  0  0
  194.9250  174.2300  137.2070 C   0  0  2  0  0  3  0  0  0  0  0  0
  195.1150  173.2540  138.3640 C   0  0  1  0  0  3  0  0  0  0  0  0
  195.7850  171.9730  137.8970 C   0  0  0  0  0  1  0  0  0  0  0  0
  195.8650  173.8360  139.3860 O   0  0  0  0  0  1  0  0  0  0  0  0
  186.2290  178.9000  138.8340 O   0  0  0  0  0  0  0  0  0  0  0  0
  185.2070  177.2610  137.5860 O   0  0  0  0  0  1  0  0  0  0  0  0
  185.0400  178.2110  138.5910 C   0  0  2  0  0  3  0  0  0  0  0  0
  182.8960  178.2440  140.7360 C   0  0  0  0  0  0  0  0  0  0  0  0
  182.7160  179.1620  139.5350 C   0  0  2  0  0  3  0  0  0  0  0  0
  182.3520  177.0180  140.7330 C   0  0  0  0  0  3  0  0  0  0  0  0
  182.3840  178.4630  138.2020 C   0  0  1  0  0  3  0  0  0  0  0  0
  181.5820  176.5110  139.5630 C   0  0  0  0  0  2  0  0  0  0  0  0
  183.7730  179.0980  138.4150 C   0  0  2  0  0  3  0  0  0  0  0  0
  182.2860  176.9340  138.2890 C   0  0  0  0  0  2  0  0  0  0  0  0
  184.3750  178.5830  144.9520 N   0  0  0  0  0  0  0  0  0  0  0  0
  185.6170  179.7020  143.0470 C   0  0  0  0  0  2  0  0  0  0  0  0
  186.6650  178.2560  144.6020 O   0  0  0  0  0  0  0  0  0  0  0  0
  183.0780  178.9330  144.4520 C   0  0  0  0  0  3  0  0  0  0  0  0
  183.5630  178.7720  141.9590 C   0  0  0  0  0  0  0  0  0  0  0  0
  185.5930  178.8020  144.2280 C   0  0  0  0  0  0  0  0  0  0  0  0
  184.8680  179.0820  141.9210 C   0  0  0  0  0  3  0  0  0  0  0  0
  182.7270  179.0070  143.1600 C   0  0  0  0  0  3  0  0  0  0  0  0
  185.1430  178.9660  147.1170 O   0  0  0  0  0  1  0  0  0  0  0  0
  184.4410  178.0710  146.3100 C   0  0  0  0  0  2  0  0  0  0  0  0
  189.1750  177.1790  142.4330 C   0  0  0  0  0  2  0  0  0  0  0  0
  191.3460  177.7060  144.8890 C   0  0  2  0  0  3  0  0  0  0  0  0
  190.3110  178.5400  144.1830 C   0  0  0  0  0  2  0  0  0  0  0  0
  191.9020  176.7790  143.9130 N   0  0  0  0  0  2  0  0  0  0  0  0
  191.6030  177.2860  142.6340 N   0  0  0  0  0  2  0  0  0  0  0  0
  190.3780  178.0630  142.7550 C   0  0  1  0  0  3  0  0  0  0  0  0
  190.7180  176.9600  146.0220 C   0  0  0  0  0  0  0  0  0  0  0  0
  191.6890  176.1790  147.0900 S   0  0  0  0  0  0  0  0  0  0  0  0
  189.3070  177.0530  146.2420 N   0  0  0  0  0  2  0  0  0  0  0  0
  188.8060  178.2180  148.1440 C   0  0  0  0  0  1  0  0  0  0  0  0
  188.7460  176.9120  147.5170 N   0  0  0  0  0  2  0  0  0  0  0  0
  1 19  1  6  0  0  0
  1  2  1  0  0  0  0
  2  4  1  0  0  0  0
  3  4  2  0  0  0  0
  4 39  1  0  0  0  0
  5  1  1  0  0  0  0
  6  5  1  1  0  0  0
  6  3  1  0  0  0  0
  7 13  1  1  0  0  0
  7  9  1  0  0  0  0
  9 10  1  0  0  0  0
 11  8  1  6  0  0  0
 11  6  1  0  0  0  0
 11 10  1  0  0  0  0
 12  8  1  0  0  0  0
 12  7  1  0  0  0  0
 13 15  1  0  0  0  0
 15 14  1  6  0  0  0
 15 16  1  0  0  0  0
 16 17  1  6  0  0  0
 16 18  1  0  0  0  0
 21 20  1  6  0  0  0
 21 19  1  0  0  0  0
 22 33  1  0  0  0  0
 23 22  1  1  0  0  0
 24 22  2  0  0  0  0
 25 28  1  1  0  0  0
 25 27  1  0  0  0  0
 25 23  1  0  0  0  0
 26 24  1  0  0  0  0
 27 21  1  1  0  0  0
 27 23  1  0  0  0  0
 28 26  1  0  0  0  0
 29 38  1  0  0  0  0
 30 34  1  0  0  0  0
 32 29  1  0  0  0  0
 33 36  1  0  0  0  0
 34 31  2  0  0  0  0
 34 29  1  0  0  0  0
 35 33  2  0  0  0  0
 35 30  1  0  0  0  0
 36 32  2  0  0  0  0
 38 37  1  0  0  0  0
 40 45  1  1  0  0  0
 41 40  1  0  0  0  0
 42 40  1  0  0  0  0
 43 44  1  0  0  0  0
 43 42  1  0  0  0  0
 44 39  1  1  0  0  0
 44 41  1  0  0  0  0
 45 47  1  0  0  0  0
 45 46  2  0  0  0  0
 47 49  1  0  0  0  0
 49 48  1  0  0  0  0
M  END
>  <MODEL>
3

>  <REMARK>
 VINA RESULT:      -8.2      3.593      7.972
  Name = 
  14 active torsions:
  status: ('A' for Active; 'I' for Inactive)
    1  A    between atoms: C_1  and  O_22
    2  A    between atoms: C_3  and  C_9
    3  A    between atoms: C_4  and  C_47
    4  A    between atoms: C_5  and  C_28
    5  A    between atoms: C_8  and  C_18
    6  A    between atoms: C_9  and  N_48
    7  A    between atoms: N_12  and  C_42
    8  A    between atoms: C_15  and  C_25
    9  A    between atoms: C_18  and  C_47
   10  A    between atoms: O_22  and  C_38
   11  A    between atoms: C_25  and  C_45
   12  A    between atoms: C_34  and  C_49
   13  A    between atoms: C_37  and  C_38
   14  A    between atoms: N_41  and  N_48
                            x       y       z     vdW  Elec       q    Type
                         _______ _______ _______ _____ _____    ______ ____

>  <TORSDO>
F 14

$$$$
=
 OpenBabel10232410513D

 49 54  0  0  1  0  0  0  0  0999 V2000
  187.4450  177.7680  138.6280 C   0  0  2  0  0  3  0  0  0  0  0  0
  188.4520  178.3210  139.6380 C   0  0  0  0  0  2  0  0  0  0  0  0
  189.9540  176.4340  138.9790 C   0  0  0  0  0  3  0  0  0  0  0  0
  189.6620  177.4350  139.8280 C   0  0  0  0  0  0  0  0  0  0  0  0
  188.1740  177.2130  137.4100 C   0  0  0  0  0  2  0  0  0  0  0  0
  189.0420  176.0300  137.8440 C   0  0  1  0  0  3  0  0  0  0  0  0
  192.6770  174.6070  135.9820 C   0  0  2  0  0  3  0  0  0  0  0  0
  190.4320  174.0600  136.9900 C   0  0  0  0  0  2  0  0  0  0  0  0
  191.9670  175.8050  135.3270 C   0  0  0  0  0  2  0  0  0  0  0  0
  190.9560  176.4640  136.2610 C   0  0  0  0  0  2  0  0  0  0  0  0
  189.8660  175.4640  136.6820 C   0  0  2  0  0  3  0  0  0  0  0  0
  191.9410  174.0660  137.2110 C   0  0  0  0  0  2  0  0  0  0  0  0
  194.1040  174.9660  136.3830 C   0  0  0  0  0  2  0  0  0  0  0  0
  194.7880  175.4500  138.6330 O   0  0  0  0  0  1  0  0  0  0  0  0
  194.4740  174.4080  137.7600 C   0  0  2  0  0  3  0  0  0  0  0  0
  195.6470  173.4340  137.6820 C   0  0  1  0  0  3  0  0  0  0  0  0
  195.1650  171.9940  137.6650 C   0  0  0  0  0  1  0  0  0  0  0  0
  196.4270  173.6870  136.5550 O   0  0  0  0  0  1  0  0  0  0  0  0
  186.5840  178.7900  138.2290 O   0  0  0  0  0  0  0  0  0  0  0  0
  185.0130  177.2820  137.4920 O   0  0  0  0  0  1  0  0  0  0  0  0
  185.2990  178.2800  138.4190 C   0  0  2  0  0  3  0  0  0  0  0  0
  183.5340  178.2830  140.8850 C   0  0  0  0  0  0  0  0  0  0  0  0
  183.3170  179.3810  139.8520 C   0  0  2  0  0  3  0  0  0  0  0  0
  182.8140  177.1530  140.8260 C   0  0  0  0  0  3  0  0  0  0  0  0
  182.6850  178.9320  138.5210 C   0  0  1  0  0  3  0  0  0  0  0  0
  181.8080  176.9260  139.7500 C   0  0  0  0  0  2  0  0  0  0  0  0
  184.1700  179.3420  138.5700 C   0  0  2  0  0  3  0  0  0  0  0  0
  182.3690  177.4330  138.4370 C   0  0  0  0  0  2  0  0  0  0  0  0
  185.1460  178.5080  145.0600 N   0  0  0  0  0  0  0  0  0  0  0  0
  186.7040  178.2380  143.0800 C   0  0  0  0  0  2  0  0  0  0  0  0
  186.7460  176.8060  144.9650 O   0  0  0  0  0  0  0  0  0  0  0  0
  184.3000  179.4590  144.3990 C   0  0  0  0  0  3  0  0  0  0  0  0
  184.4510  178.5370  142.0320 C   0  0  0  0  0  0  0  0  0  0  0  0
  186.2050  177.7970  144.4080 C   0  0  0  0  0  0  0  0  0  0  0  0
  185.6720  177.9820  142.0390 C   0  0  0  0  0  3  0  0  0  0  0  0
  183.9950  179.4650  143.0940 C   0  0  0  0  0  3  0  0  0  0  0  0
  185.5180  179.4390  147.1620 O   0  0  0  0  0  1  0  0  0  0  0  0
  184.9630  178.3490  146.4920 C   0  0  0  0  0  2  0  0  0  0  0  0
  190.6400  177.7920  140.9030 C   0  0  0  0  0  2  0  0  0  0  0  0
  190.7210  176.7730  144.0610 C   0  0  2  0  0  3  0  0  0  0  0  0
  191.7470  176.9750  142.9790 C   0  0  0  0  0  2  0  0  0  0  0  0
  189.4890  176.3330  143.4200 N   0  0  0  0  0  2  0  0  0  0  0  0
  189.8300  175.8540  142.1400 N   0  0  0  0  0  2  0  0  0  0  0  0
  191.0290  176.5630  141.7200 C   0  0  1  0  0  3  0  0  0  0  0  0
  190.4990  178.0510  144.8050 C   0  0  0  0  0  0  0  0  0  0  0  0
  191.2350  179.4170  144.2680 S   0  0  0  0  0  0  0  0  0  0  0  0
  189.5500  178.0970  145.8740 N   0  0  0  0  0  2  0  0  0  0  0  0
  189.1590  177.8270  148.1100 C   0  0  0  0  0  1  0  0  0  0  0  0
  189.5340  177.1350  146.8920 N   0  0  0  0  0  2  0  0  0  0  0  0
  1 19  1  6  0  0  0
  1  2  1  0  0  0  0
  2  4  1  0  0  0  0
  3  4  2  0  0  0  0
  4 39  1  0  0  0  0
  5  1  1  0  0  0  0
  6  5  1  6  0  0  0
  6  3  1  0  0  0  0
  7 13  1  1  0  0  0
  7 12  1  0  0  0  0
  8 12  1  0  0  0  0
  9  7  1  0  0  0  0
  9 10  1  0  0  0  0
 11 10  1  1  0  0  0
 11  8  1  0  0  0  0
 11  6  1  0  0  0  0
 13 15  1  0  0  0  0
 15 14  1  1  0  0  0
 16 17  1  6  0  0  0
 16 15  1  0  0  0  0
 18 16  1  0  0  0  0
 19 21  1  0  0  0  0
 21 20  1  6  0  0  0
 22 33  1  0  0  0  0
 23 22  1  1  0  0  0
 24 22  2  0  0  0  0
 25 28  1  1  0  0  0
 25 27  1  0  0  0  0
 25 23  1  0  0  0  0
 26 24  1  0  0  0  0
 27 21  1  1  0  0  0
 27 23  1  0  0  0  0
 28 26  1  0  0  0  0
 29 38  1  0  0  0  0
 30 34  1  0  0  0  0
 32 29  1  0  0  0  0
 33 35  2  0  0  0  0
 33 36  1  0  0  0  0
 34 31  2  0  0  0  0
 34 29  1  0  0  0  0
 35 30  1  0  0  0  0
 36 32  2  0  0  0  0
 38 37  1  0  0  0  0
 40 45  1  6  0  0  0
 41 40  1  0  0  0  0
 42 40  1  0  0  0  0
 43 42  1  0  0  0  0
 44 39  1  1  0  0  0
 44 43  1  0  0  0  0
 44 41  1  0  0  0  0
 45 47  1  0  0  0  0
 46 45  2  0  0  0  0
 47 49  1  0  0  0  0
 49 48  1  0  0  0  0
M  END
>  <MODEL>
4

>  <REMARK>
 VINA RESULT:      -8.1      3.552      7.714
  Name = 
  14 active torsions:
  status: ('A' for Active; 'I' for Inactive)
    1  A    between atoms: C_1  and  O_22
    2  A    between atoms: C_3  and  C_9
    3  A    between atoms: C_4  and  C_47
    4  A    between atoms: C_5  and  C_28
    5  A    between atoms: C_8  and  C_18
    6  A    between atoms: C_9  and  N_48
    7  A    between atoms: N_12  and  C_42
    8  A    between atoms: C_15  and  C_25
    9  A    between atoms: C_18  and  C_47
   10  A    between atoms: O_22  and  C_38
   11  A    between atoms: C_25  and  C_45
   12  A    between atoms: C_34  and  C_49
   13  A    between atoms: C_37  and  C_38
   14  A    between atoms: N_41  and  N_48
                            x       y       z     vdW  Elec       q    Type
                         _______ _______ _______ _____ _____    ______ ____

>  <TORSDO>
F 14

$$$$
=
 OpenBabel10232410513D

 49 54  0  0  1  0  0  0  0  0999 V2000
  187.3320  177.1360  137.8800 C   0  0  2  0  0  3  0  0  0  0  0  0
  187.5160  177.8570  139.2170 C   0  0  0  0  0  2  0  0  0  0  0  0
  189.8070  176.8580  139.2910 C   0  0  0  0  0  3  0  0  0  0  0  0
  188.8060  177.4990  139.9200 C   0  0  0  0  0  0  0  0  0  0  0  0
  188.6420  177.1330  137.1010 C   0  0  0  0  0  2  0  0  0  0  0  0
  189.6850  176.3310  137.8810 C   0  0  1  0  0  3  0  0  0  0  0  0
  193.6710  174.8370  137.1130 C   0  0  2  0  0  3  0  0  0  0  0  0
  191.2900  175.0910  136.3230 C   0  0  0  0  0  2  0  0  0  0  0  0
  193.5410  176.2870  137.6150 C   0  0  0  0  0  2  0  0  0  0  0  0
  192.1720  176.5710  138.2240 C   0  0  0  0  0  2  0  0  0  0  0  0
  191.0550  176.3470  137.1920 C   0  0  2  0  0  3  0  0  0  0  0  0
  192.3210  174.1400  136.9240 C   0  0  0  0  0  2  0  0  0  0  0  0
  194.5250  174.0020  138.0600 C   0  0  0  0  0  2  0  0  0  0  0  0
  196.8230  173.6490  137.4580 O   0  0  0  0  0  1  0  0  0  0  0  0
  195.9660  174.5130  138.1420 C   0  0  2  0  0  3  0  0  0  0  0  0
  196.4360  174.6630  139.5860 C   0  0  1  0  0  3  0  0  0  0  0  0
  197.9020  175.0520  139.6490 C   0  0  0  0  0  1  0  0  0  0  0  0
  195.6650  175.6080  140.2620 O   0  0  0  0  0  1  0  0  0  0  0  0
  186.3500  177.7890  137.1370 O   0  0  0  0  0  0  0  0  0  0  0  0
  185.6540  175.6580  136.6260 O   0  0  0  0  0  1  0  0  0  0  0  0
  185.2690  176.9070  137.1050 C   0  0  2  0  0  3  0  0  0  0  0  0
  182.6750  176.9610  138.6760 C   0  0  0  0  0  0  0  0  0  0  0  0
  182.6680  177.5460  137.2690 C   0  0  2  0  0  3  0  0  0  0  0  0
  182.3350  175.6780  138.8720 C   0  0  0  0  0  3  0  0  0  0  0  0
  182.7880  176.5250  136.1200 C   0  0  1  0  0  3  0  0  0  0  0  0
  181.9670  174.7870  137.7360 C   0  0  0  0  0  2  0  0  0  0  0  0
  183.9700  177.4600  136.4480 C   0  0  2  0  0  3  0  0  0  0  0  0
  182.8980  175.0630  136.5730 C   0  0  0  0  0  2  0  0  0  0  0  0
  182.4560  178.7780  142.7650 N   0  0  0  0  0  0  0  0  0  0  0  0
  184.5670  178.9620  141.3750 C   0  0  0  0  0  2  0  0  0  0  0  0
  184.5480  178.1470  143.5990 O   0  0  0  0  0  0  0  0  0  0  0  0
  181.5780  179.0170  141.6560 C   0  0  0  0  0  3  0  0  0  0  0  0
  182.9280  177.8620  139.8350 C   0  0  0  0  0  0  0  0  0  0  0  0
  183.8710  178.5950  142.6360 C   0  0  0  0  0  0  0  0  0  0  0  0
  184.1800  178.0200  140.2900 C   0  0  0  0  0  3  0  0  0  0  0  0
  181.7800  178.6140  140.3940 C   0  0  0  0  0  3  0  0  0  0  0  0
  180.5160  178.4920  144.0220 O   0  0  0  0  0  1  0  0  0  0  0  0
  181.8670  178.8290  144.0930 C   0  0  0  0  0  2  0  0  0  0  0  0
  189.0260  178.0200  141.3050 C   0  0  0  0  0  2  0  0  0  0  0  0
  189.4450  176.8070  144.3680 C   0  0  2  0  0  3  0  0  0  0  0  0
  189.2290  176.2090  143.0040 C   0  0  0  0  0  2  0  0  0  0  0  0
  188.7060  178.0620  144.4170 N   0  0  0  0  0  2  0  0  0  0  0  0
  187.7510  178.0280  143.3840 N   0  0  0  0  0  2  0  0  0  0  0  0
  188.2830  177.1710  142.3340 C   0  0  1  0  0  3  0  0  0  0  0  0
  190.9030  177.0470  144.5980 C   0  0  0  0  0  0  0  0  0  0  0  0
  191.5870  178.4100  143.9900 S   0  0  0  0  0  0  0  0  0  0  0  0
  191.6420  176.1720  145.4550 N   0  0  0  0  0  2  0  0  0  0  0  0
  190.7560  176.7550  147.4800 C   0  0  0  0  0  1  0  0  0  0  0  0
  191.9950  176.5370  146.7600 N   0  0  0  0  0  2  0  0  0  0  0  0
  1 19  1  6  0  0  0
  1  2  1  0  0  0  0
  2  4  1  0  0  0  0
  3  4  2  0  0  0  0
  4 39  1  0  0  0  0
  5  1  1  0  0  0  0
  6  5  1  6  0  0  0
  6  3  1  0  0  0  0
  7  9  1  0  0  0  0
  7 13  1  1  0  0  0
  8 12  1  0  0  0  0
  9 10  1  0  0  0  0
 11  8  1  1  0  0  0
 11  6  1  0  0  0  0
 11 10  1  0  0  0  0
 12  7  1  0  0  0  0
 13 15  1  0  0  0  0
 15 14  1  6  0  0  0
 15 16  1  0  0  0  0
 16 17  1  6  0  0  0
 16 18  1  0  0  0  0
 21 20  1  6  0  0  0
 21 19  1  0  0  0  0
 22 24  2  0  0  0  0
 22 33  1  0  0  0  0
 23 22  1  1  0  0  0
 25 27  1  0  0  0  0
 25 28  1  1  0  0  0
 25 23  1  0  0  0  0
 26 24  1  0  0  0  0
 27 21  1  1  0  0  0
 27 23  1  0  0  0  0
 28 26  1  0  0  0  0
 29 38  1  0  0  0  0
 30 34  1  0  0  0  0
 32 29  1  0  0  0  0
 33 35  2  0  0  0  0
 33 36  1  0  0  0  0
 34 29  1  0  0  0  0
 34 31  2  0  0  0  0
 35 30  1  0  0  0  0
 36 32  2  0  0  0  0
 37 38  1  0  0  0  0
 40 42  1  0  0  0  0
 40 45  1  6  0  0  0
 41 40  1  0  0  0  0
 43 42  1  0  0  0  0
 44 39  1  6  0  0  0
 44 41  1  0  0  0  0
 44 43  1  0  0  0  0
 45 47  1  0  0  0  0
 46 45  2  0  0  0  0
 47 49  1  0  0  0  0
 49 48  1  0  0  0  0
M  END
>  <MODEL>
5

>  <REMARK>
 VINA RESULT:      -7.8      3.552      8.229
  Name = 
  14 active torsions:
  status: ('A' for Active; 'I' for Inactive)
    1  A    between atoms: C_1  and  O_22
    2  A    between atoms: C_3  and  C_9
    3  A    between atoms: C_4  and  C_47
    4  A    between atoms: C_5  and  C_28
    5  A    between atoms: C_8  and  C_18
    6  A    between atoms: C_9  and  N_48
    7  A    between atoms: N_12  and  C_42
    8  A    between atoms: C_15  and  C_25
    9  A    between atoms: C_18  and  C_47
   10  A    between atoms: O_22  and  C_38
   11  A    between atoms: C_25  and  C_45
   12  A    between atoms: C_34  and  C_49
   13  A    between atoms: C_37  and  C_38
   14  A    between atoms: N_41  and  N_48
                            x       y       z     vdW  Elec       q    Type
                         _______ _______ _______ _____ _____    ______ ____

>  <TORSDO>
F 14

$$$$
=
 OpenBabel10232410513D

 49 54  0  0  1  0  0  0  0  0999 V2000
  189.1180  177.3930  138.8140 C   0  0  2  0  0  3  0  0  0  0  0  0
  190.3500  176.8110  138.1180 C   0  0  0  0  0  2  0  0  0  0  0  0
  191.5880  177.2220  140.2510 C   0  0  0  0  0  3  0  0  0  0  0  0
  191.6140  176.9220  138.9400 C   0  0  0  0  0  0  0  0  0  0  0  0
  189.1030  176.9840  140.2820 C   0  0  0  0  0  2  0  0  0  0  0  0
  190.3200  177.5920  140.9820 C   0  0  1  0  0  3  0  0  0  0  0  0
  188.8300  177.2050  145.0250 C   0  0  2  0  0  3  0  0  0  0  0  0
  189.3550  176.0990  142.8200 C   0  0  0  0  0  2  0  0  0  0  0  0
  190.1480  177.9750  144.8250 C   0  0  0  0  0  2  0  0  0  0  0  0
  190.3650  178.3910  143.3740 C   0  0  0  0  0  2  0  0  0  0  0  0
  190.4130  177.1620  142.4510 C   0  0  2  0  0  3  0  0  0  0  0  0
  188.2520  176.6490  143.7200 C   0  0  0  0  0  2  0  0  0  0  0  0
  187.7770  178.0830  145.6920 C   0  0  0  0  0  2  0  0  0  0  0  0
  186.0370  178.4100  144.0690 O   0  0  0  0  0  1  0  0  0  0  0  0
  186.3580  177.7260  145.2430 C   0  0  2  0  0  3  0  0  0  0  0  0
  185.3230  178.0430  146.3190 C   0  0  1  0  0  3  0  0  0  0  0  0
  185.9510  178.7920  147.4810 C   0  0  0  0  0  1  0  0  0  0  0  0
  184.2690  178.7870  145.7890 O   0  0  0  0  0  1  0  0  0  0  0  0
  187.9670  176.9160  138.1870 O   0  0  0  0  0  0  0  0  0  0  0  0
  186.2630  178.4100  138.5790 O   0  0  0  0  0  1  0  0  0  0  0  0
  187.3050  178.0550  137.7260 C   0  0  2  0  0  3  0  0  0  0  0  0
  184.9690  176.3620  136.7900 C   0  0  0  0  0  0  0  0  0  0  0  0
  185.6810  177.2270  135.7580 C   0  0  2  0  0  3  0  0  0  0  0  0
  185.3420  175.0860  136.9700 C   0  0  0  0  0  3  0  0  0  0  0  0
  187.0990  176.7690  135.3650 C   0  0  1  0  0  3  0  0  0  0  0  0
  186.4630  174.4850  136.1950 C   0  0  0  0  0  2  0  0  0  0  0  0
  186.9070  178.0370  136.2210 C   0  0  2  0  0  3  0  0  0  0  0  0
  187.5830  175.5010  136.0810 C   0  0  0  0  0  2  0  0  0  0  0  0
  182.3510  178.1030  139.9820 N   0  0  0  0  0  0  0  0  0  0  0  0
  181.8630  178.5240  137.5310 C   0  0  0  0  0  2  0  0  0  0  0  0
  182.0580  180.2600  139.1300 O   0  0  0  0  0  0  0  0  0  0  0  0
  182.6880  176.7220  139.7870 C   0  0  0  0  0  3  0  0  0  0  0  0
  183.7740  176.9070  137.4930 C   0  0  0  0  0  0  0  0  0  0  0  0
  182.1030  179.0210  138.9100 C   0  0  0  0  0  0  0  0  0  0  0  0
  183.1190  177.9550  136.9720 C   0  0  0  0  0  3  0  0  0  0  0  0
  183.3090  176.2090  138.7150 C   0  0  0  0  0  3  0  0  0  0  0  0
  183.3970  178.7860  141.9480 O   0  0  0  0  0  1  0  0  0  0  0  0
  182.1590  178.5450  141.3530 C   0  0  0  0  0  2  0  0  0  0  0  0
  192.9100  176.5310  138.3030 C   0  0  0  0  0  2  0  0  0  0  0  0
  194.6400  174.6870  136.1520 C   0  0  2  0  0  3  0  0  0  0  0  0
  193.7130  175.8670  136.0410 C   0  0  0  0  0  2  0  0  0  0  0  0
  194.1710  173.8640  137.2600 N   0  0  0  0  0  2  0  0  0  0  0  0
  192.8340  174.2250  137.5140 N   0  0  0  0  0  2  0  0  0  0  0  0
  192.6770  175.6130  137.1050 C   0  0  1  0  0  3  0  0  0  0  0  0
  196.0380  175.1530  136.4000 C   0  0  0  0  0  0  0  0  0  0  0  0
  196.8350  175.9380  135.1980 S   0  0  0  0  0  0  0  0  0  0  0  0
  196.6070  175.0380  137.7070 N   0  0  0  0  0  2  0  0  0  0  0  0
  198.6110  173.9380  137.7110 C   0  0  0  0  0  1  0  0  0  0  0  0
  197.9760  175.2220  137.9380 N   0  0  0  0  0  2  0  0  0  0  0  0
  1 19  1  6  0  0  0
  1  5  1  0  0  0  0
  2  1  1  0  0  0  0
  2  4  1  0  0  0  0
  4  3  2  0  0  0  0
  5  6  1  0  0  0  0
  6  3  1  6  0  0  0
  6 11  1  0  0  0  0
  7 13  1  6  0  0  0
  8 12  1  0  0  0  0
  9  7  1  0  0  0  0
 10  9  1  0  0  0  0
 11  8  1  1  0  0  0
 11 10  1  0  0  0  0
 12  7  1  0  0  0  0
 15 14  1  6  0  0  0
 15 13  1  0  0  0  0
 15 16  1  0  0  0  0
 16 17  1  1  0  0  0
 18 16  1  0  0  0  0
 21 19  1  0  0  0  0
 21 20  1  1  0  0  0
 22 24  2  0  0  0  0
 22 33  1  0  0  0  0
 23 27  1  0  0  0  0
 23 22  1  1  0  0  0
 25 23  1  0  0  0  0
 25 28  1  1  0  0  0
 25 27  1  0  0  0  0
 26 24  1  0  0  0  0
 27 21  1  1  0  0  0
 28 26  1  0  0  0  0
 29 38  1  0  0  0  0
 30 34  1  0  0  0  0
 32 29  1  0  0  0  0
 33 36  1  0  0  0  0
 34 31  2  0  0  0  0
 34 29  1  0  0  0  0
 35 33  2  0  0  0  0
 35 30  1  0  0  0  0
 36 32  2  0  0  0  0
 38 37  1  0  0  0  0
 39  4  1  0  0  0  0
 40 45  1  1  0  0  0
 40 42  1  0  0  0  0
 41 40  1  0  0  0  0
 41 44  1  0  0  0  0
 42 43  1  0  0  0  0
 44 43  1  0  0  0  0
 44 39  1  1  0  0  0
 45 47  1  0  0  0  0
 46 45  2  0  0  0  0
 47 49  1  0  0  0  0
 48 49  1  0  0  0  0
M  END
>  <MODEL>
6

>  <REMARK>
 VINA RESULT:      -7.7      2.166      6.335
  Name = 
  14 active torsions:
  status: ('A' for Active; 'I' for Inactive)
    1  A    between atoms: C_1  and  O_22
    2  A    between atoms: C_3  and  C_9
    3  A    between atoms: C_4  and  C_47
    4  A    between atoms: C_5  and  C_28
    5  A    between atoms: C_8  and  C_18
    6  A    between atoms: C_9  and  N_48
    7  A    between atoms: N_12  and  C_42
    8  A    between atoms: C_15  and  C_25
    9  A    between atoms: C_18  and  C_47
   10  A    between atoms: O_22  and  C_38
   11  A    between atoms: C_25  and  C_45
   12  A    between atoms: C_34  and  C_49
   13  A    between atoms: C_37  and  C_38
   14  A    between atoms: N_41  and  N_48
                            x       y       z     vdW  Elec       q    Type
                         _______ _______ _______ _____ _____    ______ ____

>  <TORSDO>
F 14

$$$$
=
 OpenBabel10232410513D

 49 54  0  0  1  0  0  0  0  0999 V2000
  188.7660  176.8310  138.3110 C   0  0  2  0  0  3  0  0  0  0  0  0
  187.6330  177.8420  138.4970 C   0  0  0  0  0  2  0  0  0  0  0  0
  188.0090  177.6150  140.9580 C   0  0  0  0  0  3  0  0  0  0  0  0
  187.2400  178.0460  139.9420 C   0  0  0  0  0  0  0  0  0  0  0  0
  189.8460  177.0540  139.3630 C   0  0  0  0  0  2  0  0  0  0  0  0
  189.2550  176.7870  140.7490 C   0  0  1  0  0  3  0  0  0  0  0  0
  190.4030  177.6740  144.8240 C   0  0  2  0  0  3  0  0  0  0  0  0
  190.2410  175.9770  142.9650 C   0  0  0  0  0  2  0  0  0  0  0  0
  190.8460  178.6630  143.7310 C   0  0  0  0  0  2  0  0  0  0  0  0
  190.0680  178.4810  142.4320 C   0  0  0  0  0  2  0  0  0  0  0  0
  190.2660  177.0640  141.8680 C   0  0  2  0  0  3  0  0  0  0  0  0
  189.6300  176.4720  144.2740 C   0  0  0  0  0  2  0  0  0  0  0  0
  189.5470  178.3650  145.8780 C   0  0  0  0  0  2  0  0  0  0  0  0
  187.2440  177.8170  146.2820 O   0  0  0  0  0  1  0  0  0  0  0  0
  188.5530  177.4050  146.5370 C   0  0  2  0  0  3  0  0  0  0  0  0
  188.7730  177.3030  148.0440 C   0  0  1  0  0  3  0  0  0  0  0  0
  189.6840  178.4110  148.5420 C   0  0  0  0  0  1  0  0  0  0  0  0
  187.5570  177.3450  148.7260 O   0  0  0  0  0  1  0  0  0  0  0  0
  189.3170  176.9860  137.0390 O   0  0  0  0  0  0  0  0  0  0  0  0
  187.7570  176.1460  135.5740 O   0  0  0  0  0  1  0  0  0  0  0  0
  188.8980  175.8650  136.3210 C   0  0  2  0  0  3  0  0  0  0  0  0
  191.0880  173.7810  136.0860 C   0  0  0  0  0  0  0  0  0  0  0  0
  189.9520  173.5130  137.0630 C   0  0  2  0  0  3  0  0  0  0  0  0
  191.0200  173.3140  134.8300 C   0  0  0  0  0  3  0  0  0  0  0  0
  188.5850  173.1890  136.4280 C   0  0  1  0  0  3  0  0  0  0  0  0
  189.8380  172.5460  134.3490 C   0  0  0  0  0  2  0  0  0  0  0  0
  188.8070  174.5410  137.1350 C   0  0  2  0  0  3  0  0  0  0  0  0
  188.5780  173.1880  134.8930 C   0  0  0  0  0  2  0  0  0  0  0  0
  195.3720  175.0480  136.4380 N   0  0  0  0  0  0  0  0  0  0  0  0
  193.5020  176.5480  137.2630 C   0  0  0  0  0  2  0  0  0  0  0  0
  195.1870  177.2820  135.7690 O   0  0  0  0  0  0  0  0  0  0  0  0
  194.7730  173.8470  136.9430 C   0  0  0  0  0  3  0  0  0  0  0  0
  192.3270  174.4470  136.5790 C   0  0  0  0  0  0  0  0  0  0  0  0
  194.7200  176.3250  136.4410 C   0  0  0  0  0  0  0  0  0  0  0  0
  192.3600  175.7820  136.6960 C   0  0  0  0  0  3  0  0  0  0  0  0
  193.4590  173.5860  136.9950 C   0  0  0  0  0  3  0  0  0  0  0  0
  197.6000  175.4170  137.0060 O   0  0  0  0  0  1  0  0  0  0  0  0
  196.7530  174.9600  135.9970 C   0  0  0  0  0  2  0  0  0  0  0  0
  186.0420  178.8920  140.2390 C   0  0  0  0  0  2  0  0  0  0  0  0
  182.7420  178.8750  139.8800 C   0  0  2  0  0  3  0  0  0  0  0  0
  183.8490  177.8930  139.6080 C   0  0  0  0  0  2  0  0  0  0  0  0
  183.2710  180.2110  139.6330 N   0  0  0  0  0  2  0  0  0  0  0  0
  184.4260  180.0650  138.8410 N   0  0  0  0  0  2  0  0  0  0  0  0
  184.9910  178.7580  139.1400 C   0  0  1  0  0  3  0  0  0  0  0  0
  182.2770  178.7480  141.2950 C   0  0  0  0  0  0  0  0  0  0  0  0
  180.6720  178.8720  141.6150 S   0  0  0  0  0  0  0  0  0  0  0  0
  183.2060  178.3830  142.3190 N   0  0  0  0  0  2  0  0  0  0  0  0
  184.7710  178.6470  143.9650 C   0  0  0  0  0  1  0  0  0  0  0  0
  183.7410  179.3280  143.2050 N   0  0  0  0  0  2  0  0  0  0  0  0
  1 19  1  6  0  0  0
  1  2  1  0  0  0  0
  1  5  1  0  0  0  0
  2  4  1  0  0  0  0
  4 39  1  0  0  0  0
  4  3  2  0  0  0  0
  6  5  1  6  0  0  0
  6  3  1  0  0  0  0
  6 11  1  0  0  0  0
  7 13  1  1  0  0  0
  8 12  1  0  0  0  0
  9  7  1  0  0  0  0
 10  9  1  0  0  0  0
 11 10  1  1  0  0  0
 11  8  1  0  0  0  0
 12  7  1  0  0  0  0
 13 15  1  0  0  0  0
 15 14  1  1  0  0  0
 15 16  1  0  0  0  0
 16 17  1  1  0  0  0
 16 18  1  0  0  0  0
 21 20  1  1  0  0  0
 21 19  1  0  0  0  0
 22 33  1  0  0  0  0
 23 22  1  6  0  0  0
 23 27  1  0  0  0  0
 24 22  2  0  0  0  0
 25 28  1  6  0  0  0
 25 23  1  0  0  0  0
 25 27  1  0  0  0  0
 26 24  1  0  0  0  0
 26 28  1  0  0  0  0
 27 21  1  6  0  0  0
 29 34  1  0  0  0  0
 29 32  1  0  0  0  0
 31 34  2  0  0  0  0
 32 36  2  0  0  0  0
 33 35  2  0  0  0  0
 33 36  1  0  0  0  0
 34 30  1  0  0  0  0
 35 30  1  0  0  0  0
 38 29  1  0  0  0  0
 38 37  1  0  0  0  0
 40 45  1  1  0  0  0
 41 40  1  0  0  0  0
 42 40  1  0  0  0  0
 43 44  1  0  0  0  0
 43 42  1  0  0  0  0
 44 41  1  0  0  0  0
 44 39  1  1  0  0  0
 45 46  2  0  0  0  0
 45 47  1  0  0  0  0
 47 49  1  0  0  0  0
 49 48  1  0  0  0  0
M  END
>  <MODEL>
7

>  <REMARK>
 VINA RESULT:      -7.4      3.757     10.900
  Name = 
  14 active torsions:
  status: ('A' for Active; 'I' for Inactive)
    1  A    between atoms: C_1  and  O_22
    2  A    between atoms: C_3  and  C_9
    3  A    between atoms: C_4  and  C_47
    4  A    between atoms: C_5  and  C_28
    5  A    between atoms: C_8  and  C_18
    6  A    between atoms: C_9  and  N_48
    7  A    between atoms: N_12  and  C_42
    8  A    between atoms: C_15  and  C_25
    9  A    between atoms: C_18  and  C_47
   10  A    between atoms: O_22  and  C_38
   11  A    between atoms: C_25  and  C_45
   12  A    between atoms: C_34  and  C_49
   13  A    between atoms: C_37  and  C_38
   14  A    between atoms: N_41  and  N_48
                            x       y       z     vdW  Elec       q    Type
                         _______ _______ _______ _____ _____    ______ ____

>  <TORSDO>
F 14

$$$$
=
 OpenBabel10232410513D

 49 54  0  0  1  0  0  0  0  0999 V2000
  189.0970  177.2400  138.6950 C   0  0  2  0  0  3  0  0  0  0  0  0
  187.7860  177.5770  137.9810 C   0  0  0  0  0  2  0  0  0  0  0  0
  188.9080  176.8670  135.8630 C   0  0  0  0  0  3  0  0  0  0  0  0
  187.8780  177.4770  136.4750 C   0  0  0  0  0  0  0  0  0  0  0  0
  189.7420  176.0160  138.0560 C   0  0  0  0  0  2  0  0  0  0  0  0
  190.1130  176.3440  136.6090 C   0  0  1  0  0  3  0  0  0  0  0  0
  193.1670  173.3860  135.8140 C   0  0  2  0  0  3  0  0  0  0  0  0
  190.9180  173.9260  136.8180 C   0  0  0  0  0  2  0  0  0  0  0  0
  192.7400  174.2960  134.6480 C   0  0  0  0  0  2  0  0  0  0  0  0
  191.9800  175.5310  135.1220 C   0  0  0  0  0  2  0  0  0  0  0  0
  190.7020  175.1320  135.8780 C   0  0  2  0  0  3  0  0  0  0  0  0
  192.3910  173.6570  137.1060 C   0  0  0  0  0  2  0  0  0  0  0  0
  194.6580  173.5220  136.1000 C   0  0  0  0  0  2  0  0  0  0  0  0
  195.4250  175.6300  136.9580 O   0  0  0  0  0  1  0  0  0  0  0  0
  194.9340  174.3800  137.3380 C   0  0  2  0  0  3  0  0  0  0  0  0
  195.9220  173.7080  138.2870 C   0  0  1  0  0  3  0  0  0  0  0  0
  196.1510  174.5530  139.5290 C   0  0  0  0  0  1  0  0  0  0  0  0
  195.4740  172.4390  138.6530 O   0  0  0  0  0  1  0  0  0  0  0  0
  188.8350  176.9800  140.0400 O   0  0  0  0  0  0  0  0  0  0  0  0
  190.9800  177.7810  139.8260 O   0  0  0  0  0  1  0  0  0  0  0  0
  190.0130  177.3120  140.7110 C   0  0  2  0  0  3  0  0  0  0  0  0
  189.4610  177.6010  143.6790 C   0  0  0  0  0  0  0  0  0  0  0  0
  190.2040  176.3570  143.2100 C   0  0  2  0  0  3  0  0  0  0  0  0
  190.1460  178.6830  144.0790 C   0  0  0  0  0  3  0  0  0  0  0  0
  191.6500  176.5840  142.7260 C   0  0  1  0  0  3  0  0  0  0  0  0
  191.6350  178.7130  144.0570 C   0  0  0  0  0  2  0  0  0  0  0  0
  190.5410  176.2420  141.7110 C   0  0  2  0  0  3  0  0  0  0  0  0
  192.1230  178.0420  142.7890 C   0  0  0  0  0  2  0  0  0  0  0  0
  185.3200  178.2810  145.2480 N   0  0  0  0  0  0  0  0  0  0  0  0
  185.7200  177.8580  142.7810 C   0  0  0  0  0  2  0  0  0  0  0  0
  184.4940  179.7140  143.5940 O   0  0  0  0  0  0  0  0  0  0  0  0
  186.2640  177.2920  145.6790 C   0  0  0  0  0  3  0  0  0  0  0  0
  187.9780  177.5510  143.8160 C   0  0  0  0  0  0  0  0  0  0  0  0
  185.1510  178.6790  143.8810 C   0  0  0  0  0  0  0  0  0  0  0  0
  187.2050  177.9500  142.7960 C   0  0  0  0  0  3  0  0  0  0  0  0
  187.4150  176.9840  145.0640 C   0  0  0  0  0  3  0  0  0  0  0  0
  183.1930  179.1250  145.6840 O   0  0  0  0  0  1  0  0  0  0  0  0
  184.4280  178.8240  146.2580 C   0  0  0  0  0  2  0  0  0  0  0  0
  186.7080  177.9320  135.6620 C   0  0  0  0  0  2  0  0  0  0  0  0
  183.9110  176.2590  136.2940 C   0  0  2  0  0  3  0  0  0  0  0  0
  185.3760  175.9150  136.2640 C   0  0  0  0  0  2  0  0  0  0  0  0
  183.6760  177.2660  135.2680 N   0  0  0  0  0  2  0  0  0  0  0  0
  184.7640  177.2170  134.3750 N   0  0  0  0  0  2  0  0  0  0  0  0
  185.9160  176.7410  135.1260 C   0  0  1  0  0  3  0  0  0  0  0  0
  183.5340  176.7840  137.6420 C   0  0  0  0  0  0  0  0  0  0  0  0
  182.7900  175.7770  138.7050 S   0  0  0  0  0  0  0  0  0  0  0  0
  183.9460  178.0960  138.0360 N   0  0  0  0  0  2  0  0  0  0  0  0
  183.3660  179.0100  140.0490 C   0  0  0  0  0  1  0  0  0  0  0  0
  184.4390  178.3630  139.3200 N   0  0  0  0  0  2  0  0  0  0  0  0
  1 19  1  1  0  0  0
  2  1  1  0  0  0  0
  3  4  2  0  0  0  0
  4  2  1  0  0  0  0
  5  1  1  0  0  0  0
  6  3  1  6  0  0  0
  6  5  1  0  0  0  0
  7 13  1  1  0  0  0
  7 12  1  0  0  0  0
  8 12  1  0  0  0  0
  9 10  1  0  0  0  0
  9  7  1  0  0  0  0
 11 10  1  1  0  0  0
 11  6  1  0  0  0  0
 11  8  1  0  0  0  0
 13 15  1  0  0  0  0
 15 14  1  6  0  0  0
 15 16  1  0  0  0  0
 16 18  1  0  0  0  0
 16 17  1  1  0  0  0
 19 21  1  0  0  0  0
 21 20  1  6  0  0  0
 22 33  1  0  0  0  0
 22 24  2  0  0  0  0
 23 22  1  6  0  0  0
 25 28  1  6  0  0  0
 25 23  1  0  0  0  0
 26 24  1  0  0  0  0
 27 21  1  6  0  0  0
 27 25  1  0  0  0  0
 27 23  1  0  0  0  0
 28 26  1  0  0  0  0
 29 32  1  0  0  0  0
 29 38  1  0  0  0  0
 30 35  1  0  0  0  0
 30 34  1  0  0  0  0
 31 34  2  0  0  0  0
 33 36  1  0  0  0  0
 34 29  1  0  0  0  0
 35 33  2  0  0  0  0
 36 32  2  0  0  0  0
 37 38  1  0  0  0  0
 39  4  1  0  0  0  0
 40 45  1  1  0  0  0
 41 40  1  0  0  0  0
 42 40  1  0  0  0  0
 43 44  1  0  0  0  0
 43 42  1  0  0  0  0
 44 39  1  1  0  0  0
 44 41  1  0  0  0  0
 45 47  1  0  0  0  0
 45 46  2  0  0  0  0
 47 49  1  0  0  0  0
 49 48  1  0  0  0  0
M  END
>  <MODEL>
8

>  <REMARK>
 VINA RESULT:      -7.3      4.295      7.781
  Name = 
  14 active torsions:
  status: ('A' for Active; 'I' for Inactive)
    1  A    between atoms: C_1  and  O_22
    2  A    between atoms: C_3  and  C_9
    3  A    between atoms: C_4  and  C_47
    4  A    between atoms: C_5  and  C_28
    5  A    between atoms: C_8  and  C_18
    6  A    between atoms: C_9  and  N_48
    7  A    between atoms: N_12  and  C_42
    8  A    between atoms: C_15  and  C_25
    9  A    between atoms: C_18  and  C_47
   10  A    between atoms: O_22  and  C_38
   11  A    between atoms: C_25  and  C_45
   12  A    between atoms: C_34  and  C_49
   13  A    between atoms: C_37  and  C_38
   14  A    between atoms: N_41  and  N_48
                            x       y       z     vdW  Elec       q    Type
                         _______ _______ _______ _____ _____    ______ ____

>  <TORSDO>
F 14

$$$$
=
 OpenBabel10232410513D

 49 54  0  0  1  0  0  0  0  0999 V2000
  189.3810  177.5320  138.5630 C   0  0  2  0  0  3  0  0  0  0  0  0
  190.6050  176.8060  138.0020 C   0  0  0  0  0  2  0  0  0  0  0  0
  191.7240  177.2730  140.1880 C   0  0  0  0  0  3  0  0  0  0  0  0
  191.8140  176.8770  138.9060 C   0  0  0  0  0  0  0  0  0  0  0  0
  189.2310  177.2340  140.0510 C   0  0  0  0  0  2  0  0  0  0  0  0
  190.4440  177.7950  140.7960 C   0  0  1  0  0  3  0  0  0  0  0  0
  188.4420  176.9130  144.5280 C   0  0  2  0  0  3  0  0  0  0  0  0
  189.7960  176.0740  142.5730 C   0  0  0  0  0  2  0  0  0  0  0  0
  189.3600  178.1480  144.4900 C   0  0  0  0  0  2  0  0  0  0  0  0
  189.6830  178.5890  143.0660 C   0  0  0  0  0  2  0  0  0  0  0  0
  190.3990  177.4680  142.2940 C   0  0  2  0  0  3  0  0  0  0  0  0
  188.4080  176.1450  143.2040 C   0  0  0  0  0  2  0  0  0  0  0  0
  187.0170  177.2990  144.9070 C   0  0  0  0  0  2  0  0  0  0  0  0
  187.2090  177.7780  147.2510 O   0  0  0  0  0  1  0  0  0  0  0  0
  186.9780  178.3640  146.0060 C   0  0  2  0  0  3  0  0  0  0  0  0
  185.6470  179.1090  146.0300 C   0  0  1  0  0  3  0  0  0  0  0  0
  184.9220  178.9830  144.7020 C   0  0  0  0  0  1  0  0  0  0  0  0
  184.8340  178.6380  147.0610 O   0  0  0  0  0  1  0  0  0  0  0  0
  188.2400  177.1020  137.8860 O   0  0  0  0  0  0  0  0  0  0  0  0
  186.5380  178.3860  138.7470 O   0  0  0  0  0  1  0  0  0  0  0  0
  187.4640  178.2490  137.7160 C   0  0  2  0  0  3  0  0  0  0  0  0
  186.9740  175.8500  135.9270 C   0  0  0  0  0  0  0  0  0  0  0  0
  186.5500  177.2200  135.4140 C   0  0  2  0  0  3  0  0  0  0  0  0
  188.1860  175.3630  135.6220 C   0  0  0  0  0  3  0  0  0  0  0  0
  187.6970  178.1750  135.0310 C   0  0  1  0  0  3  0  0  0  0  0  0
  189.1540  176.1420  134.8010 C   0  0  0  0  0  2  0  0  0  0  0  0
  186.8570  178.4460  136.2950 C   0  0  2  0  0  3  0  0  0  0  0  0
  189.1040  177.5950  135.2280 C   0  0  0  0  0  2  0  0  0  0  0  0
  183.1860  173.6830  136.9450 N   0  0  0  0  0  0  0  0  0  0  0  0
  185.4260  172.8450  137.7830 C   0  0  0  0  0  2  0  0  0  0  0  0
  183.8860  171.4750  136.6170 O   0  0  0  0  0  0  0  0  0  0  0  0
  183.4930  175.0630  137.1850 C   0  0  0  0  0  3  0  0  0  0  0  0
  185.9810  175.0080  136.6520 C   0  0  0  0  0  0  0  0  0  0  0  0
  184.1390  172.6210  137.0760 C   0  0  0  0  0  0  0  0  0  0  0  0
  186.2960  173.7470  136.9810 C   0  0  0  0  0  3  0  0  0  0  0  0
  184.6980  175.6350  137.0510 C   0  0  0  0  0  3  0  0  0  0  0  0
  180.9980  173.6850  137.7420 O   0  0  0  0  0  1  0  0  0  0  0  0
  181.8010  173.3590  136.6500 C   0  0  0  0  0  2  0  0  0  0  0  0
  193.1140  176.3390  138.3960 C   0  0  0  0  0  2  0  0  0  0  0  0
  194.8640  174.5640  136.2030 C   0  0  2  0  0  3  0  0  0  0  0  0
  193.8430  175.6670  136.1120 C   0  0  0  0  0  2  0  0  0  0  0  0
  194.5200  173.7450  137.3580 N   0  0  0  0  0  2  0  0  0  0  0  0
  193.1740  174.0110  137.6760 N   0  0  0  0  0  2  0  0  0  0  0  0
  192.8890  175.3690  137.2390 C   0  0  1  0  0  3  0  0  0  0  0  0
  196.2330  175.1430  136.3590 C   0  0  0  0  0  0  0  0  0  0  0  0
  196.8250  176.1080  135.1700 S   0  0  0  0  0  0  0  0  0  0  0  0
  196.9450  174.9680  137.5870 N   0  0  0  0  0  2  0  0  0  0  0  0
  199.1240  174.2790  137.6200 C   0  0  0  0  0  1  0  0  0  0  0  0
  197.7550  173.8490  137.8210 N   0  0  0  0  0  2  0  0  0  0  0  0
  1 19  1  6  0  0  0
  1  5  1  0  0  0  0
  2  1  1  0  0  0  0
  2  4  1  0  0  0  0
  3  6  1  0  0  0  0
  4  3  2  0  0  0  0
  6  5  1  6  0  0  0
  6 11  1  0  0  0  0
  7 13  1  6  0  0  0
  8 12  1  0  0  0  0
  9  7  1  0  0  0  0
 10  9  1  0  0  0  0
 11  8  1  6  0  0  0
 11 10  1  0  0  0  0
 12  7  1  0  0  0  0
 13 15  1  0  0  0  0
 15 16  1  0  0  0  0
 15 14  1  1  0  0  0
 16 17  1  6  0  0  0
 16 18  1  0  0  0  0
 21 19  1  0  0  0  0
 21 20  1  1  0  0  0
 22 33  1  0  0  0  0
 23 22  1  1  0  0  0
 23 27  1  0  0  0  0
 24 22  2  0  0  0  0
 25 28  1  1  0  0  0
 25 23  1  0  0  0  0
 25 27  1  0  0  0  0
 26 28  1  0  0  0  0
 26 24  1  0  0  0  0
 27 21  1  1  0  0  0
 29 34  1  0  0  0  0
 29 32  1  0  0  0  0
 31 34  2  0  0  0  0
 33 35  2  0  0  0  0
 33 36  1  0  0  0  0
 34 30  1  0  0  0  0
 35 30  1  0  0  0  0
 36 32  2  0  0  0  0
 38 29  1  0  0  0  0
 38 37  1  0  0  0  0
 39  4  1  0  0  0  0
 40 45  1  1  0  0  0
 40 42  1  0  0  0  0
 41 40  1  0  0  0  0
 41 44  1  0  0  0  0
 42 43  1  0  0  0  0
 44 43  1  0  0  0  0
 44 39  1  1  0  0  0
 45 47  1  0  0  0  0
 46 45  2  0  0  0  0
 47 49  1  0  0  0  0
 48 49  1  0  0  0  0
M  END
>  <MODEL>
9

>  <REMARK>
 VINA RESULT:      -7.3      2.277      6.994
  Name = 
  14 active torsions:
  status: ('A' for Active; 'I' for Inactive)
    1  A    between atoms: C_1  and  O_22
    2  A    between atoms: C_3  and  C_9
    3  A    between atoms: C_4  and  C_47
    4  A    between atoms: C_5  and  C_28
    5  A    between atoms: C_8  and  C_18
    6  A    between atoms: C_9  and  N_48
    7  A    between atoms: N_12  and  C_42
    8  A    between atoms: C_15  and  C_25
    9  A    between atoms: C_18  and  C_47
   10  A    between atoms: O_22  and  C_38
   11  A    between atoms: C_25  and  C_45
   12  A    between atoms: C_34  and  C_49
   13  A    between atoms: C_37  and  C_38
   14  A    between atoms: N_41  and  N_48
                            x       y       z     vdW  Elec       q    Type
                         _______ _______ _______ _____ _____    ______ ____

>  <TORSDO>
F 14

$$$$
