=
 OpenBabel10232410053D

 49 54  0  0  1  0  0  0  0  0999 V2000
  189.8520  176.2880  137.4680 C   0  0  0  0  0  0  0  0  0  0  0  0
  189.6780  174.9710  137.0150 C   0  0  0  0  0  3  0  0  0  0  0  0
  187.3280  175.3890  136.5970 C   0  0  0  0  0  0  0  0  0  0  0  0
  187.4900  176.7030  137.0470 C   0  0  0  0  0  3  0  0  0  0  0  0
  188.4300  174.5190  136.5890 C   0  0  0  0  0  3  0  0  0  0  0  0
  188.7410  177.1700  137.4840 C   0  0  0  0  0  0  0  0  0  0  0  0
  188.7920  178.8050  139.4480 N   0  0  0  0  0  2  0  0  0  0  0  0
  188.8450  178.5410  138.0390 C   0  0  0  0  0  0  0  0  0  0  0  0
  189.0090  179.5150  137.2560 O   0  0  0  0  0  0  0  0  0  0  0  0
  188.2870  177.8770  140.4510 C   0  0  0  0  0  2  0  0  0  0  0  0
  189.4410  177.2980  141.2600 C   0  0  0  0  0  2  0  0  0  0  0  0
  188.0520  177.5500  144.5980 C   0  0  0  0  0  0  0  0  0  0  0  0
  189.7210  177.3910  146.3520 C   0  0  0  0  0  3  0  0  0  0  0  0
  191.3670  177.1740  143.6900 O   0  0  0  0  0  0  0  0  0  0  0  0
  187.3530  177.6560  146.8930 C   0  0  0  0  0  3  0  0  0  0  0  0
  190.1220  177.3150  143.7960 C   0  0  0  0  0  0  0  0  0  0  0  0
  189.1350  177.3960  142.7140 C   0  0  0  0  0  0  0  0  0  0  0  0
  187.9300  177.5320  143.1740 N   0  0  0  0  0  0  0  0  0  0  0  0
  187.0170  177.6740  145.5240 C   0  0  0  0  0  3  0  0  0  0  0  0
  189.3560  177.4180  145.0080 C   0  0  0  0  0  0  0  0  0  0  0  0
  188.6950  177.5120  147.3040 C   0  0  0  0  0  3  0  0  0  0  0  0
  185.9770  174.9140  136.1630 C   0  0  2  0  0  3  0  0  0  0  0  0
  185.3900  175.8730  135.3290 O   0  0  0  0  0  1  0  0  0  0  0  0
  185.0980  174.6090  137.3860 C   0  0  2  0  0  3  0  0  0  0  0  0
  184.0020  172.3120  137.0100 C   0  0  0  0  0  2  0  0  0  0  0  0
  185.4300  172.2430  136.4890 C   0  0  0  0  0  2  0  0  0  0  0  0
  185.1030  173.0940  137.7060 C   0  0  0  0  0  3  0  0  0  0  0  0
  183.3030  175.9060  138.4330 N   0  0  0  0  0  0  0  0  0  0  0  0
  183.7620  175.3200  137.3780 C   0  0  0  0  0  3  0  0  0  0  0  0
  180.9350  175.5280  138.8440 C   0  0  0  0  0  1  0  0  0  0  0  0
  182.0050  176.5350  138.4230 C   0  0  1  0  0  3  0  0  0  0  0  0
  183.8480  179.2010  139.3120 C   0  0  0  0  0  0  0  0  0  0  0  0
  184.7170  180.0610  139.0100 O   0  0  0  0  0  0  0  0  0  0  0  0
  182.7660  177.5310  140.4650 C   0  0  0  0  0  3  0  0  0  0  0  0
  183.9120  178.4260  140.4820 N   0  0  0  0  0  0  0  0  0  0  0  0
  182.6650  178.8790  138.5000 C   0  0  1  0  0  3  0  0  0  0  0  0
  182.0040  177.7750  139.2200 N   0  0  0  0  0  0  0  0  0  0  0  0
  180.9650  180.0810  137.0470 C   0  0  0  0  0  1  0  0  0  0  0  0
  181.7190  180.0750  138.3610 C   0  0  0  0  0  2  0  0  0  0  0  0
  191.1590  176.7590  137.8380 N   0  0  0  0  0  2  0  0  0  0  0  0
  193.1340  176.1650  135.9790 S   0  0  0  0  0  0  0  0  0  0  0  0
  194.4370  175.1950  136.4140 C   0  0  0  0  0  0  0  0  0  0  0  0
  195.5260  174.8160  135.4720 C   0  0  0  0  0  1  0  0  0  0  0  0
  192.4090  176.1520  137.4980 C   0  0  0  0  0  0  0  0  0  0  0  0
  193.1590  175.3740  138.3710 C   0  0  0  0  0  3  0  0  0  0  0  0
  194.3080  174.8370  137.7690 C   0  0  0  0  0  0  0  0  0  0  0  0
  195.2480  174.0220  138.5020 N   0  0  0  0  0  0  0  0  0  0  0  0
  196.1480  174.5750  139.5010 C   0  0  0  0  0  1  0  0  0  0  0  0
  195.3340  172.5880  138.2490 C   0  0  0  0  0  1  0  0  0  0  0  0
  1  6  1  0  0  0  0
  1 40  1  0  0  0  0
  2  1  2  0  0  0  0
  3  4  1  0  0  0  0
  4  6  2  0  0  0  0
  5  3  2  0  0  0  0
  5  2  1  0  0  0  0
  6  8  1  0  0  0  0
  7 10  1  0  0  0  0
  8  7  1  0  0  0  0
  9  8  2  0  0  0  0
 10 11  1  0  0  0  0
 11 17  1  0  0  0  0
 12 20  2  0  0  0  0
 12 19  1  0  0  0  0
 13 21  2  0  0  0  0
 14 16  2  0  0  0  0
 15 21  1  0  0  0  0
 16 20  1  0  0  0  0
 17 18  2  0  0  0  0
 17 16  1  0  0  0  0
 18 12  1  0  0  0  0
 19 15  2  0  0  0  0
 20 13  1  0  0  0  0
 22 23  1  6  0  0  0
 22  3  1  0  0  0  0
 22 24  1  0  0  0  0
 24 29  1  6  0  0  0
 24 27  1  0  0  0  0
 25 27  1  0  0  0  0
 26 25  1  0  0  0  0
 26 27  1  0  0  0  0
 29 28  2  0  0  0  0
 31 28  1  0  0  0  0
 31 30  1  1  0  0  0
 31 37  1  0  0  0  0
 32 35  1  0  0  0  0
 33 32  2  0  0  0  0
 34 35  2  0  0  0  0
 36 39  1  1  0  0  0
 36 37  1  0  0  0  0
 36 32  1  0  0  0  0
 37 34  1  0  0  0  0
 38 39  1  0  0  0  0
 41 42  1  0  0  0  0
 41 44  1  0  0  0  0
 42 46  2  0  0  0  0
 43 42  1  0  0  0  0
 44 40  1  0  0  0  0
 44 45  2  0  0  0  0
 46 45  1  0  0  0  0
 46 47  1  0  0  0  0
 47 48  1  0  0  0  0
 49 47  1  0  0  0  0
M  END
>  <MODEL>
1

>  <REMARK>
 VINA RESULT:      -8.5      0.000      0.000
  Name = 
  14 active torsions:
  status: ('A' for Active; 'I' for Inactive)
    1  A    between atoms: N_1  and  C_26
    2  A    between atoms: C_3  and  C_20
    3  A    between atoms: N_5  and  C_41
    4  A    between atoms: C_7  and  C_12
    5  A    between atoms: C_7  and  C_29
    6  A    between atoms: C_8  and  N_11
    7  A    between atoms: N_11  and  C_28
    8  A    between atoms: C_12  and  N_38
    9  A    between atoms: C_15  and  C_20
   10  A    between atoms: C_15  and  C_22
   11  A    between atoms: C_20  and  C_45
   12  A    between atoms: C_26  and  N_44
   13  A    between atoms: C_35  and  C_40
   14  A    between atoms: C_46  and  C_47
                            x       y       z     vdW  Elec       q    Type
                         _______ _______ _______ _____ _____    ______ ____

>  <TORSDO>
F 14

$$$$
=
 OpenBabel10232410053D

 49 54  0  0  1  0  0  0  0  0999 V2000
  190.0410  176.2650  137.3070 C   0  0  0  0  0  0  0  0  0  0  0  0
  189.9130  174.9550  136.8170 C   0  0  0  0  0  3  0  0  0  0  0  0
  187.5400  175.2860  136.4560 C   0  0  0  0  0  0  0  0  0  0  0  0
  187.6550  176.5910  136.9430 C   0  0  0  0  0  3  0  0  0  0  0  0
  188.6770  174.4630  136.4010 C   0  0  0  0  0  3  0  0  0  0  0  0
  188.8940  177.0980  137.3700 C   0  0  0  0  0  0  0  0  0  0  0  0
  189.0240  178.6710  139.3800 N   0  0  0  0  0  2  0  0  0  0  0  0
  188.9530  178.4550  137.9650 C   0  0  0  0  0  0  0  0  0  0  0  0
  188.9630  179.4620  137.2070 O   0  0  0  0  0  0  0  0  0  0  0  0
  188.6950  177.6760  140.3930 C   0  0  0  0  0  2  0  0  0  0  0  0
  188.0330  178.3430  141.5910 C   0  0  0  0  0  2  0  0  0  0  0  0
  190.2510  177.3330  144.2730 C   0  0  0  0  0  0  0  0  0  0  0  0
  189.1310  177.0900  146.4120 C   0  0  0  0  0  3  0  0  0  0  0  0
  186.8440  177.9110  144.4250 O   0  0  0  0  0  0  0  0  0  0  0  0
  191.5350  176.7050  146.2030 C   0  0  0  0  0  3  0  0  0  0  0  0
  188.0600  177.7480  144.1480 C   0  0  0  0  0  0  0  0  0  0  0  0
  188.7120  177.9150  142.8450 C   0  0  0  0  0  0  0  0  0  0  0  0
  189.9850  177.6770  142.9110 N   0  0  0  0  0  0  0  0  0  0  0  0
  191.4870  177.0000  144.8260 C   0  0  0  0  0  3  0  0  0  0  0  0
  189.1170  177.3700  145.0480 C   0  0  0  0  0  0  0  0  0  0  0  0
  190.3650  176.7530  146.9910 C   0  0  0  0  0  3  0  0  0  0  0  0
  186.2020  174.7670  136.0320 C   0  0  2  0  0  3  0  0  0  0  0  0
  185.6230  175.6560  135.1190 O   0  0  0  0  0  1  0  0  0  0  0  0
  185.3020  174.5450  137.2570 C   0  0  2  0  0  3  0  0  0  0  0  0
  183.9100  172.3900  137.0620 C   0  0  0  0  0  2  0  0  0  0  0  0
  185.2320  172.1630  136.3460 C   0  0  0  0  0  2  0  0  0  0  0  0
  185.1800  173.0380  137.5890 C   0  0  0  0  0  3  0  0  0  0  0  0
  183.8270  176.3090  138.1020 N   0  0  0  0  0  0  0  0  0  0  0  0
  184.0300  175.3660  137.2450 C   0  0  0  0  0  3  0  0  0  0  0  0
  181.4210  176.1040  138.4000 C   0  0  0  0  0  1  0  0  0  0  0  0
  182.5870  177.0470  138.1100 C   0  0  1  0  0  3  0  0  0  0  0  0
  181.2130  178.4630  140.8300 C   0  0  0  0  0  0  0  0  0  0  0  0
  180.6600  178.3290  141.9550 O   0  0  0  0  0  0  0  0  0  0  0  0
  181.5730  179.1460  138.6640 C   0  0  0  0  0  3  0  0  0  0  0  0
  180.6860  179.2720  139.8100 N   0  0  0  0  0  0  0  0  0  0  0  0
  182.4620  177.8030  140.4230 C   0  0  1  0  0  3  0  0  0  0  0  0
  182.6590  178.2060  139.0190 N   0  0  0  0  0  0  0  0  0  0  0  0
  184.6720  179.0520  140.5100 C   0  0  0  0  0  1  0  0  0  0  0  0
  183.6520  178.2400  141.2820 C   0  0  0  0  0  2  0  0  0  0  0  0
  191.3340  176.7790  137.6670 N   0  0  0  0  0  2  0  0  0  0  0  0
  193.4290  176.2580  135.9210 S   0  0  0  0  0  0  0  0  0  0  0  0
  194.6890  175.2490  136.3920 C   0  0  0  0  0  0  0  0  0  0  0  0
  195.8370  174.9060  135.5080 C   0  0  0  0  0  1  0  0  0  0  0  0
  192.5990  176.1740  137.3820 C   0  0  0  0  0  0  0  0  0  0  0  0
  193.2780  175.3420  138.2630 C   0  0  0  0  0  3  0  0  0  0  0  0
  194.4620  174.8220  137.7140 C   0  0  0  0  0  0  0  0  0  0  0  0
  195.3400  173.9570  138.4650 N   0  0  0  0  0  0  0  0  0  0  0  0
  195.3280  172.5110  138.3160 C   0  0  0  0  0  1  0  0  0  0  0  0
  196.2810  174.5190  139.4280 C   0  0  0  0  0  1  0  0  0  0  0  0
  1  6  1  0  0  0  0
  1 40  1  0  0  0  0
  2  1  2  0  0  0  0
  3  4  1  0  0  0  0
  4  6  2  0  0  0  0
  5  3  2  0  0  0  0
  5  2  1  0  0  0  0
  6  8  1  0  0  0  0
  7 10  1  0  0  0  0
  8  7  1  0  0  0  0
  9  8  2  0  0  0  0
 10 11  1  0  0  0  0
 11 17  1  0  0  0  0
 12 19  2  0  0  0  0
 12 20  1  0  0  0  0
 13 21  1  0  0  0  0
 15 21  2  0  0  0  0
 16 14  2  0  0  0  0
 16 20  1  0  0  0  0
 17 18  2  0  0  0  0
 17 16  1  0  0  0  0
 18 12  1  0  0  0  0
 19 15  1  0  0  0  0
 20 13  2  0  0  0  0
 22 23  1  6  0  0  0
 22  3  1  0  0  0  0
 22 24  1  0  0  0  0
 24 29  1  6  0  0  0
 24 27  1  0  0  0  0
 25 27  1  0  0  0  0
 26 25  1  0  0  0  0
 26 27  1  0  0  0  0
 28 31  1  0  0  0  0
 29 28  2  0  0  0  0
 31 30  1  1  0  0  0
 31 37  1  0  0  0  0
 32 33  2  0  0  0  0
 34 37  1  0  0  0  0
 34 35  2  0  0  0  0
 35 32  1  0  0  0  0
 36 32  1  0  0  0  0
 36 39  1  1  0  0  0
 37 36  1  0  0  0  0
 38 39  1  0  0  0  0
 41 42  1  0  0  0  0
 41 44  1  0  0  0  0
 42 46  2  0  0  0  0
 43 42  1  0  0  0  0
 44 40  1  0  0  0  0
 44 45  2  0  0  0  0
 46 45  1  0  0  0  0
 46 47  1  0  0  0  0
 47 49  1  0  0  0  0
 48 47  1  0  0  0  0
M  END
>  <MODEL>
2

>  <REMARK>
 VINA RESULT:      -8.1      1.295      2.039
  Name = 
  14 active torsions:
  status: ('A' for Active; 'I' for Inactive)
    1  A    between atoms: N_1  and  C_26
    2  A    between atoms: C_3  and  C_20
    3  A    between atoms: N_5  and  C_41
    4  A    between atoms: C_7  and  C_12
    5  A    between atoms: C_7  and  C_29
    6  A    between atoms: C_8  and  N_11
    7  A    between atoms: N_11  and  C_28
    8  A    between atoms: C_12  and  N_38
    9  A    between atoms: C_15  and  C_20
   10  A    between atoms: C_15  and  C_22
   11  A    between atoms: C_20  and  C_45
   12  A    between atoms: C_26  and  N_44
   13  A    between atoms: C_35  and  C_40
   14  A    between atoms: C_46  and  C_47
                            x       y       z     vdW  Elec       q    Type
                         _______ _______ _______ _____ _____    ______ ____

>  <TORSDO>
F 14

$$$$
=
 OpenBabel10232410053D

 49 54  0  0  1  0  0  0  0  0999 V2000
  182.4940  175.9660  138.1930 C   0  0  0  0  0  0  0  0  0  0  0  0
  182.4790  175.8450  139.5920 C   0  0  0  0  0  3  0  0  0  0  0  0
  183.4660  178.0460  139.8260 C   0  0  0  0  0  0  0  0  0  0  0  0
  183.4860  178.1770  138.4340 C   0  0  0  0  0  3  0  0  0  0  0  0
  182.9650  176.8680  140.4040 C   0  0  0  0  0  3  0  0  0  0  0  0
  183.0040  177.1510  137.6030 C   0  0  0  0  0  0  0  0  0  0  0  0
  184.2530  176.7810  135.4040 N   0  0  0  0  0  2  0  0  0  0  0  0
  183.1300  177.2940  136.1320 C   0  0  0  0  0  0  0  0  0  0  0  0
  182.2120  177.8670  135.4860 O   0  0  0  0  0  0  0  0  0  0  0  0
  185.5280  176.4000  135.9980 C   0  0  0  0  0  2  0  0  0  0  0  0
  186.3850  177.6360  136.2420 C   0  0  0  0  0  2  0  0  0  0  0  0
  189.6140  176.2550  137.1380 C   0  0  0  0  0  0  0  0  0  0  0  0
  190.5880  177.2810  139.1090 C   0  0  0  0  0  3  0  0  0  0  0  0
  187.8310  178.7370  138.7570 O   0  0  0  0  0  0  0  0  0  0  0  0
  191.7710  175.5200  137.8950 C   0  0  0  0  0  3  0  0  0  0  0  0
  188.3000  177.8270  138.0270 C   0  0  0  0  0  0  0  0  0  0  0  0
  187.6910  177.2340  136.8320 C   0  0  0  0  0  0  0  0  0  0  0  0
  188.4500  176.3210  136.3100 N   0  0  0  0  0  0  0  0  0  0  0  0
  190.7140  175.4170  136.9680 C   0  0  0  0  0  3  0  0  0  0  0  0
  189.5600  177.1490  138.1790 C   0  0  0  0  0  0  0  0  0  0  0  0
  191.7090  176.4480  138.9570 C   0  0  0  0  0  3  0  0  0  0  0  0
  184.0100  179.1460  140.6830 C   0  0  2  0  0  3  0  0  0  0  0  0
  184.8830  179.9380  139.9280 O   0  0  0  0  0  1  0  0  0  0  0  0
  184.7000  178.5640  141.9260 C   0  0  2  0  0  3  0  0  0  0  0  0
  182.8910  179.1350  143.6630 C   0  0  0  0  0  2  0  0  0  0  0  0
  184.0450  178.4610  144.3890 C   0  0  0  0  0  2  0  0  0  0  0  0
  184.3190  179.3620  143.1960 C   0  0  0  0  0  3  0  0  0  0  0  0
  186.8460  177.6070  142.6200 N   0  0  0  0  0  0  0  0  0  0  0  0
  186.1620  178.2300  141.7200 C   0  0  0  0  0  3  0  0  0  0  0  0
  188.9910  178.6470  142.1340 C   0  0  0  0  0  1  0  0  0  0  0  0
  188.2520  177.3430  142.4300 C   0  0  1  0  0  3  0  0  0  0  0  0
  190.8350  177.1520  144.5710 C   0  0  0  0  0  0  0  0  0  0  0  0
  191.7080  177.7390  145.2640 O   0  0  0  0  0  0  0  0  0  0  0  0
  189.8910  175.7090  143.0490 C   0  0  0  0  0  3  0  0  0  0  0  0
  191.1370  176.1010  143.6890 N   0  0  0  0  0  0  0  0  0  0  0  0
  189.4010  177.4750  144.5740 C   0  0  1  0  0  3  0  0  0  0  0  0
  188.8110  176.5810  143.5610 N   0  0  0  0  0  0  0  0  0  0  0  0
  187.3250  177.7200  146.0170 C   0  0  0  0  0  1  0  0  0  0  0  0
  188.7590  177.2370  145.9440 C   0  0  0  0  0  2  0  0  0  0  0  0
  181.9250  174.9320  137.3720 N   0  0  0  0  0  2  0  0  0  0  0  0
  181.8190  172.2350  136.7190 S   0  0  0  0  0  0  0  0  0  0  0  0
  183.2330  171.3940  136.3740 C   0  0  0  0  0  0  0  0  0  0  0  0
  183.2620  169.9450  136.0350 C   0  0  0  0  0  1  0  0  0  0  0  0
  182.5690  173.7220  136.9610 C   0  0  0  0  0  0  0  0  0  0  0  0
  183.9420  173.5890  136.7960 C   0  0  0  0  0  3  0  0  0  0  0  0
  184.3230  172.2800  136.4570 C   0  0  0  0  0  0  0  0  0  0  0  0
  185.6990  171.9230  136.2080 N   0  0  0  0  0  0  0  0  0  0  0  0
  186.0850  170.9590  135.1910 C   0  0  0  0  0  1  0  0  0  0  0  0
  186.7710  172.5240  136.9960 C   0  0  0  0  0  1  0  0  0  0  0  0
  1  2  1  0  0  0  0
  2  5  2  0  0  0  0
  3  5  1  0  0  0  0
  3 22  1  0  0  0  0
  4  3  2  0  0  0  0
  6  1  2  0  0  0  0
  6  4  1  0  0  0  0
  7 10  1  0  0  0  0
  7  8  1  0  0  0  0
  8  6  1  0  0  0  0
  9  8  2  0  0  0  0
 10 11  1  0  0  0  0
 11 17  1  0  0  0  0
 12 20  1  0  0  0  0
 15 21  2  0  0  0  0
 16 20  1  0  0  0  0
 16 14  2  0  0  0  0
 17 16  1  0  0  0  0
 18 17  2  0  0  0  0
 18 12  1  0  0  0  0
 19 12  2  0  0  0  0
 19 15  1  0  0  0  0
 20 13  2  0  0  0  0
 21 13  1  0  0  0  0
 22 23  1  6  0  0  0
 22 24  1  0  0  0  0
 24 29  1  6  0  0  0
 24 27  1  0  0  0  0
 25 26  1  0  0  0  0
 27 25  1  0  0  0  0
 27 26  1  0  0  0  0
 29 28  2  0  0  0  0
 31 30  1  1  0  0  0
 31 28  1  0  0  0  0
 31 37  1  0  0  0  0
 32 36  1  0  0  0  0
 32 33  2  0  0  0  0
 34 37  1  0  0  0  0
 34 35  2  0  0  0  0
 35 32  1  0  0  0  0
 36 39  1  1  0  0  0
 37 36  1  0  0  0  0
 39 38  1  0  0  0  0
 40  1  1  0  0  0  0
 41 44  1  0  0  0  0
 42 46  2  0  0  0  0
 42 41  1  0  0  0  0
 43 42  1  0  0  0  0
 44 40  1  0  0  0  0
 45 44  2  0  0  0  0
 46 45  1  0  0  0  0
 47 46  1  0  0  0  0
 47 49  1  0  0  0  0
 48 47  1  0  0  0  0
M  END
>  <MODEL>
3

>  <REMARK>
 VINA RESULT:      -8.0      2.923      8.433
  Name = 
  14 active torsions:
  status: ('A' for Active; 'I' for Inactive)
    1  A    between atoms: N_1  and  C_26
    2  A    between atoms: C_3  and  C_20
    3  A    between atoms: N_5  and  C_41
    4  A    between atoms: C_7  and  C_12
    5  A    between atoms: C_7  and  C_29
    6  A    between atoms: C_8  and  N_11
    7  A    between atoms: N_11  and  C_28
    8  A    between atoms: C_12  and  N_38
    9  A    between atoms: C_15  and  C_20
   10  A    between atoms: C_15  and  C_22
   11  A    between atoms: C_20  and  C_45
   12  A    between atoms: C_26  and  N_44
   13  A    between atoms: C_35  and  C_40
   14  A    between atoms: C_46  and  C_47
                            x       y       z     vdW  Elec       q    Type
                         _______ _______ _______ _____ _____    ______ ____

>  <TORSDO>
F 14

$$$$
=
 OpenBabel10232410053D

 49 54  0  0  1  0  0  0  0  0999 V2000
  186.1520  178.0580  138.2810 C   0  0  0  0  0  0  0  0  0  0  0  0
  185.0600  177.3440  137.7610 C   0  0  0  0  0  3  0  0  0  0  0  0
  186.5090  176.2110  136.1840 C   0  0  0  0  0  0  0  0  0  0  0  0
  187.6040  176.9170  136.6930 C   0  0  0  0  0  3  0  0  0  0  0  0
  185.2300  176.4340  136.7180 C   0  0  0  0  0  3  0  0  0  0  0  0
  187.4450  177.8410  137.7400 C   0  0  0  0  0  0  0  0  0  0  0  0
  189.4160  178.2540  139.3150 N   0  0  0  0  0  2  0  0  0  0  0  0
  188.6160  178.6330  138.1870 C   0  0  0  0  0  0  0  0  0  0  0  0
  188.9430  179.6680  137.5460 O   0  0  0  0  0  0  0  0  0  0  0  0
  189.0080  177.3090  140.3460 C   0  0  0  0  0  2  0  0  0  0  0  0
  190.0880  177.1950  141.4130 C   0  0  0  0  0  2  0  0  0  0  0  0
  188.0080  177.4860  144.3670 C   0  0  0  0  0  0  0  0  0  0  0  0
  189.2550  177.3340  146.4430 C   0  0  0  0  0  3  0  0  0  0  0  0
  191.4390  177.0830  144.2040 O   0  0  0  0  0  0  0  0  0  0  0  0
  186.8280  177.6170  146.4540 C   0  0  0  0  0  3  0  0  0  0  0  0
  190.2020  177.2310  144.0360 C   0  0  0  0  0  0  0  0  0  0  0  0
  189.4750  177.3080  142.7650 C   0  0  0  0  0  0  0  0  0  0  0  0
  188.1990  177.4550  142.9500 N   0  0  0  0  0  0  0  0  0  0  0  0
  186.7980  177.6240  145.0450 C   0  0  0  0  0  3  0  0  0  0  0  0
  189.1910  177.3510  145.0520 C   0  0  0  0  0  0  0  0  0  0  0  0
  188.0470  177.4700  147.1480 C   0  0  0  0  0  3  0  0  0  0  0  0
  186.7070  175.2530  135.0510 C   0  0  2  0  0  3  0  0  0  0  0  0
  185.4650  174.7550  134.6370 O   0  0  0  0  0  1  0  0  0  0  0  0
  187.6620  174.1230  135.4660 C   0  0  2  0  0  3  0  0  0  0  0  0
  186.3670  172.8460  137.2850 C   0  0  0  0  0  2  0  0  0  0  0  0
  187.8000  172.3340  137.2790 C   0  0  0  0  0  2  0  0  0  0  0  0
  187.5110  173.7950  136.9710 C   0  0  0  0  0  3  0  0  0  0  0  0
  190.0750  174.4840  135.6920 N   0  0  0  0  0  0  0  0  0  0  0  0
  189.0650  174.2700  134.9170 C   0  0  0  0  0  3  0  0  0  0  0  0
  191.4520  175.9750  134.3500 C   0  0  0  0  0  1  0  0  0  0  0  0
  191.3980  174.6730  135.1490 C   0  0  1  0  0  3  0  0  0  0  0  0
  194.5750  175.4410  135.9280 C   0  0  0  0  0  0  0  0  0  0  0  0
  195.5460  176.2400  135.8390 O   0  0  0  0  0  0  0  0  0  0  0  0
  193.3640  173.4880  135.8330 C   0  0  0  0  0  3  0  0  0  0  0  0
  194.6880  174.0670  135.6590 N   0  0  0  0  0  0  0  0  0  0  0  0
  193.2070  175.8190  136.3100 C   0  0  1  0  0  3  0  0  0  0  0  0
  192.4280  174.5730  136.1990 N   0  0  0  0  0  0  0  0  0  0  0  0
  191.8320  176.0520  138.4330 C   0  0  0  0  0  1  0  0  0  0  0  0
  193.1390  176.3730  137.7370 C   0  0  0  0  0  2  0  0  0  0  0  0
  185.9710  178.9400  139.4020 N   0  0  0  0  0  2  0  0  0  0  0  0
  185.1140  178.9870  142.0430 S   0  0  0  0  0  0  0  0  0  0  0  0
  183.4940  178.7250  142.4090 C   0  0  0  0  0  0  0  0  0  0  0  0
  182.9600  178.7150  143.7990 C   0  0  0  0  0  1  0  0  0  0  0  0
  184.9230  178.8750  140.3740 C   0  0  0  0  0  0  0  0  0  0  0  0
  183.5940  178.6120  140.0690 C   0  0  0  0  0  3  0  0  0  0  0  0
  182.7810  178.5330  141.2110 C   0  0  0  0  0  0  0  0  0  0  0  0
  181.3590  178.2970  141.1250 N   0  0  0  0  0  0  0  0  0  0  0  0
  180.3950  179.0310  141.9280 C   0  0  0  0  0  1  0  0  0  0  0  0
  180.8340  177.2830  140.2160 C   0  0  0  0  0  1  0  0  0  0  0  0
  1 40  1  0  0  0  0
  2  1  1  0  0  0  0
  3  4  2  0  0  0  0
  3  5  1  0  0  0  0
  4  6  1  0  0  0  0
  5  2  2  0  0  0  0
  6  8  1  0  0  0  0
  6  1  2  0  0  0  0
  7 10  1  0  0  0  0
  8  7  1  0  0  0  0
  9  8  2  0  0  0  0
 10 11  1  0  0  0  0
 11 17  1  0  0  0  0
 12 19  2  0  0  0  0
 12 20  1  0  0  0  0
 13 21  1  0  0  0  0
 15 21  2  0  0  0  0
 16 14  2  0  0  0  0
 16 20  1  0  0  0  0
 17 18  2  0  0  0  0
 17 16  1  0  0  0  0
 18 12  1  0  0  0  0
 19 15  1  0  0  0  0
 20 13  2  0  0  0  0
 22 23  1  1  0  0  0
 22 24  1  0  0  0  0
 22  3  1  0  0  0  0
 24 29  1  1  0  0  0
 24 27  1  0  0  0  0
 26 25  1  0  0  0  0
 27 26  1  0  0  0  0
 27 25  1  0  0  0  0
 29 28  2  0  0  0  0
 31 30  1  1  0  0  0
 31 28  1  0  0  0  0
 31 37  1  0  0  0  0
 32 36  1  0  0  0  0
 33 32  2  0  0  0  0
 34 37  1  0  0  0  0
 35 34  2  0  0  0  0
 35 32  1  0  0  0  0
 36 39  1  1  0  0  0
 37 36  1  0  0  0  0
 39 38  1  0  0  0  0
 40 44  1  0  0  0  0
 41 42  1  0  0  0  0
 42 43  1  0  0  0  0
 44 41  1  0  0  0  0
 45 44  2  0  0  0  0
 45 46  1  0  0  0  0
 46 42  2  0  0  0  0
 47 46  1  0  0  0  0
 47 48  1  0  0  0  0
 49 47  1  0  0  0  0
M  END
>  <MODEL>
4

>  <REMARK>
 VINA RESULT:      -8.0      2.498      8.039
  Name = 
  14 active torsions:
  status: ('A' for Active; 'I' for Inactive)
    1  A    between atoms: N_1  and  C_26
    2  A    between atoms: C_3  and  C_20
    3  A    between atoms: N_5  and  C_41
    4  A    between atoms: C_7  and  C_12
    5  A    between atoms: C_7  and  C_29
    6  A    between atoms: C_8  and  N_11
    7  A    between atoms: N_11  and  C_28
    8  A    between atoms: C_12  and  N_38
    9  A    between atoms: C_15  and  C_20
   10  A    between atoms: C_15  and  C_22
   11  A    between atoms: C_20  and  C_45
   12  A    between atoms: C_26  and  N_44
   13  A    between atoms: C_35  and  C_40
   14  A    between atoms: C_46  and  C_47
                            x       y       z     vdW  Elec       q    Type
                         _______ _______ _______ _____ _____    ______ ____

>  <TORSDO>
F 14

$$$$
=
 OpenBabel10232410053D

 49 54  0  0  1  0  0  0  0  0999 V2000
  182.0700  176.8350  138.9850 C   0  0  0  0  0  0  0  0  0  0  0  0
  182.2770  176.5860  140.3520 C   0  0  0  0  0  3  0  0  0  0  0  0
  183.9760  178.3110  140.4430 C   0  0  0  0  0  0  0  0  0  0  0  0
  183.7790  178.5670  139.0820 C   0  0  0  0  0  3  0  0  0  0  0  0
  183.2240  177.3090  141.0760 C   0  0  0  0  0  3  0  0  0  0  0  0
  182.8310  177.8430  138.3390 C   0  0  0  0  0  0  0  0  0  0  0  0
  183.5860  177.4490  135.9290 N   0  0  0  0  0  2  0  0  0  0  0  0
  182.7210  178.0830  136.8800 C   0  0  0  0  0  0  0  0  0  0  0  0
  181.8230  178.8550  136.4470 O   0  0  0  0  0  0  0  0  0  0  0  0
  184.8550  176.8100  136.2540 C   0  0  0  0  0  2  0  0  0  0  0  0
  186.0150  177.6450  135.7270 C   0  0  0  0  0  2  0  0  0  0  0  0
  188.6310  177.7840  138.2320 C   0  0  0  0  0  0  0  0  0  0  0  0
  190.2280  175.9660  138.0600 C   0  0  0  0  0  3  0  0  0  0  0  0
  188.2200  175.4620  135.7020 O   0  0  0  0  0  0  0  0  0  0  0  0
  190.4330  177.6550  139.8150 C   0  0  0  0  0  3  0  0  0  0  0  0
  188.1840  176.4040  136.5340 C   0  0  0  0  0  0  0  0  0  0  0  0
  187.1960  177.4850  136.6190 C   0  0  0  0  0  0  0  0  0  0  0  0
  187.4490  178.2900  137.6050 N   0  0  0  0  0  0  0  0  0  0  0  0
  189.2820  178.3190  139.3430 C   0  0  0  0  0  3  0  0  0  0  0  0
  189.0990  176.6490  137.6160 C   0  0  0  0  0  0  0  0  0  0  0  0
  190.9000  176.4850  139.1800 C   0  0  0  0  0  3  0  0  0  0  0  0
  185.0110  179.0820  141.2000 C   0  0  2  0  0  3  0  0  0  0  0  0
  186.2280  179.0360  140.5100 O   0  0  0  0  0  1  0  0  0  0  0  0
  185.1480  178.5340  142.6290 C   0  0  2  0  0  3  0  0  0  0  0  0
  183.6250  178.7510  144.6920 C   0  0  0  0  0  2  0  0  0  0  0  0
  184.9990  179.2890  145.0620 C   0  0  0  0  0  2  0  0  0  0  0  0
  184.4630  179.4740  143.6510 C   0  0  0  0  0  3  0  0  0  0  0  0
  186.7080  177.0150  143.7520 N   0  0  0  0  0  0  0  0  0  0  0  0
  186.5320  178.0230  142.9650 C   0  0  0  0  0  3  0  0  0  0  0  0
  188.8190  176.2220  142.8380 C   0  0  0  0  0  1  0  0  0  0  0  0
  188.0360  176.5740  144.1020 C   0  0  1  0  0  3  0  0  0  0  0  0
  190.0520  176.9090  146.7700 C   0  0  0  0  0  0  0  0  0  0  0  0
  191.0170  176.4760  147.4550 O   0  0  0  0  0  0  0  0  0  0  0  0
  187.9480  177.6660  146.2330 C   0  0  0  0  0  3  0  0  0  0  0  0
  188.8080  177.2450  147.3290 N   0  0  0  0  0  0  0  0  0  0  0  0
  190.0790  177.1150  145.3150 C   0  0  1  0  0  3  0  0  0  0  0  0
  188.7140  177.5520  144.9720 N   0  0  0  0  0  0  0  0  0  0  0  0
  190.6510  179.0070  143.7210 C   0  0  0  0  0  1  0  0  0  0  0  0
  191.1050  178.1740  144.9020 C   0  0  0  0  0  2  0  0  0  0  0  0
  181.0410  176.1300  138.2700 N   0  0  0  0  0  2  0  0  0  0  0  0
  179.9850  173.6210  137.7210 S   0  0  0  0  0  0  0  0  0  0  0  0
  180.9170  172.4690  136.9260 C   0  0  0  0  0  0  0  0  0  0  0  0
  180.4310  171.0970  136.6130 C   0  0  0  0  0  1  0  0  0  0  0  0
  181.1540  174.8320  137.6790 C   0  0  0  0  0  0  0  0  0  0  0  0
  182.3030  174.3570  137.0600 C   0  0  0  0  0  3  0  0  0  0  0  0
  182.1750  173.0270  136.6270 C   0  0  0  0  0  0  0  0  0  0  0  0
  183.2380  172.3420  135.9310 N   0  0  0  0  0  0  0  0  0  0  0  0
  184.1840  171.4720  136.6120 C   0  0  0  0  0  1  0  0  0  0  0  0
  183.4080  172.5130  134.4920 C   0  0  0  0  0  1  0  0  0  0  0  0
  1  2  1  0  0  0  0
  2  5  2  0  0  0  0
  3  5  1  0  0  0  0
  3 22  1  0  0  0  0
  4  3  2  0  0  0  0
  6  1  2  0  0  0  0
  6  4  1  0  0  0  0
  7 10  1  0  0  0  0
  7  8  1  0  0  0  0
  8  6  1  0  0  0  0
  9  8  2  0  0  0  0
 11 10  1  0  0  0  0
 11 17  1  0  0  0  0
 12 19  1  0  0  0  0
 13 21  2  0  0  0  0
 14 16  2  0  0  0  0
 16 17  1  0  0  0  0
 16 20  1  0  0  0  0
 17 18  2  0  0  0  0
 18 12  1  0  0  0  0
 19 15  2  0  0  0  0
 20 13  1  0  0  0  0
 20 12  2  0  0  0  0
 21 15  1  0  0  0  0
 22 23  1  6  0  0  0
 22 24  1  0  0  0  0
 24 29  1  1  0  0  0
 24 27  1  0  0  0  0
 25 26  1  0  0  0  0
 27 25  1  0  0  0  0
 27 26  1  0  0  0  0
 28 31  1  0  0  0  0
 29 28  2  0  0  0  0
 31 30  1  6  0  0  0
 31 37  1  0  0  0  0
 32 35  1  0  0  0  0
 32 33  2  0  0  0  0
 34 35  2  0  0  0  0
 36 39  1  1  0  0  0
 36 32  1  0  0  0  0
 37 36  1  0  0  0  0
 37 34  1  0  0  0  0
 38 39  1  0  0  0  0
 40  1  1  0  0  0  0
 42 41  1  0  0  0  0
 43 42  1  0  0  0  0
 44 41  1  0  0  0  0
 44 40  1  0  0  0  0
 45 44  2  0  0  0  0
 46 42  2  0  0  0  0
 46 45  1  0  0  0  0
 47 48  1  0  0  0  0
 47 46  1  0  0  0  0
 49 47  1  0  0  0  0
M  END
>  <MODEL>
5

>  <REMARK>
 VINA RESULT:      -8.0      3.440      9.143
  Name = 
  14 active torsions:
  status: ('A' for Active; 'I' for Inactive)
    1  A    between atoms: N_1  and  C_26
    2  A    between atoms: C_3  and  C_20
    3  A    between atoms: N_5  and  C_41
    4  A    between atoms: C_7  and  C_12
    5  A    between atoms: C_7  and  C_29
    6  A    between atoms: C_8  and  N_11
    7  A    between atoms: N_11  and  C_28
    8  A    between atoms: C_12  and  N_38
    9  A    between atoms: C_15  and  C_20
   10  A    between atoms: C_15  and  C_22
   11  A    between atoms: C_20  and  C_45
   12  A    between atoms: C_26  and  N_44
   13  A    between atoms: C_35  and  C_40
   14  A    between atoms: C_46  and  C_47
                            x       y       z     vdW  Elec       q    Type
                         _______ _______ _______ _____ _____    ______ ____

>  <TORSDO>
F 14

$$$$
=
 OpenBabel10232410053D

 49 54  0  0  1  0  0  0  0  0999 V2000
  182.6250  176.0640  138.0000 C   0  0  0  0  0  0  0  0  0  0  0  0
  182.5170  175.8320  139.3810 C   0  0  0  0  0  3  0  0  0  0  0  0
  183.3330  178.0630  139.8540 C   0  0  0  0  0  0  0  0  0  0  0  0
  183.4440  178.3060  138.4820 C   0  0  0  0  0  3  0  0  0  0  0  0
  182.8740  176.8150  140.3020 C   0  0  0  0  0  3  0  0  0  0  0  0
  183.0940  177.3220  137.5410 C   0  0  0  0  0  0  0  0  0  0  0  0
  184.5210  177.2090  135.4240 N   0  0  0  0  0  2  0  0  0  0  0  0
  183.3150  177.5900  136.1000 C   0  0  0  0  0  0  0  0  0  0  0  0
  182.4090  178.1530  135.4290 O   0  0  0  0  0  0  0  0  0  0  0  0
  185.7740  176.8640  136.0850 C   0  0  0  0  0  2  0  0  0  0  0  0
  186.7270  178.0520  136.0600 C   0  0  0  0  0  2  0  0  0  0  0  0
  189.2740  177.4620  138.5700 C   0  0  0  0  0  0  0  0  0  0  0  0
  191.3370  176.5690  137.6580 C   0  0  0  0  0  3  0  0  0  0  0  0
  189.4850  176.9570  135.1550 O   0  0  0  0  0  0  0  0  0  0  0  0
  191.0900  176.9590  140.0580 C   0  0  0  0  0  3  0  0  0  0  0  0
  189.1980  177.2170  136.3520 C   0  0  0  0  0  0  0  0  0  0  0  0
  187.9340  177.7460  136.8750 C   0  0  0  0  0  0  0  0  0  0  0  0
  187.9710  177.8890  138.1640 N   0  0  0  0  0  0  0  0  0  0  0  0
  189.7750  177.4320  139.8700 C   0  0  0  0  0  3  0  0  0  0  0  0
  190.0380  177.0470  137.5070 C   0  0  0  0  0  0  0  0  0  0  0  0
  191.8640  176.5280  138.9600 C   0  0  0  0  0  3  0  0  0  0  0  0
  183.7390  179.1230  140.8300 C   0  0  2  0  0  3  0  0  0  0  0  0
  185.1110  179.3720  140.7080 O   0  0  0  0  0  1  0  0  0  0  0  0
  183.3620  178.7050  142.2610 C   0  0  2  0  0  3  0  0  0  0  0  0
  181.1170  178.0270  143.3170 C   0  0  0  0  0  2  0  0  0  0  0  0
  181.6550  179.2260  144.0830 C   0  0  0  0  0  2  0  0  0  0  0  0
  181.9030  179.1040  142.5880 C   0  0  0  0  0  3  0  0  0  0  0  0
  185.1070  178.0830  143.8640 N   0  0  0  0  0  0  0  0  0  0  0  0
  184.4230  179.0170  143.2940 C   0  0  0  0  0  3  0  0  0  0  0  0
  185.3670  178.7340  146.1940 C   0  0  0  0  0  1  0  0  0  0  0  0
  186.0780  178.3940  144.8850 C   0  0  1  0  0  3  0  0  0  0  0  0
  189.3590  177.7000  144.6610 C   0  0  0  0  0  0  0  0  0  0  0  0
  190.5530  178.0690  144.8170 O   0  0  0  0  0  0  0  0  0  0  0  0
  187.4630  176.8760  143.6540 C   0  0  0  0  0  3  0  0  0  0  0  0
  188.8810  177.1370  143.4650 N   0  0  0  0  0  0  0  0  0  0  0  0
  188.3050  177.8080  145.6810 C   0  0  1  0  0  3  0  0  0  0  0  0
  187.0840  177.3240  145.0110 N   0  0  0  0  0  0  0  0  0  0  0  0
  189.0220  177.7960  148.1170 C   0  0  0  0  0  1  0  0  0  0  0  0
  188.6130  176.9620  146.9200 C   0  0  0  0  0  2  0  0  0  0  0  0
  182.1880  175.0660  137.0620 N   0  0  0  0  0  2  0  0  0  0  0  0
  182.2180  172.3090  136.7310 S   0  0  0  0  0  0  0  0  0  0  0  0
  183.6500  171.5220  136.3340 C   0  0  0  0  0  0  0  0  0  0  0  0
  183.7530  170.0480  136.1580 C   0  0  0  0  0  1  0  0  0  0  0  0
  182.8770  173.8580  136.7240 C   0  0  0  0  0  0  0  0  0  0  0  0
  184.2320  173.7920  136.4300 C   0  0  0  0  0  3  0  0  0  0  0  0
  184.6750  172.4790  136.2020 C   0  0  0  0  0  0  0  0  0  0  0  0
  186.0430  172.1810  135.8510 N   0  0  0  0  0  0  0  0  0  0  0  0
  186.4240  171.7050  134.5310 C   0  0  0  0  0  1  0  0  0  0  0  0
  187.1080  172.3410  136.8350 C   0  0  0  0  0  1  0  0  0  0  0  0
  1  2  1  0  0  0  0
  2  5  2  0  0  0  0
  3  5  1  0  0  0  0
  3 22  1  0  0  0  0
  4  3  2  0  0  0  0
  6  1  2  0  0  0  0
  6  4  1  0  0  0  0
  7 10  1  0  0  0  0
  7  8  1  0  0  0  0
  8  6  1  0  0  0  0
  9  8  2  0  0  0  0
 11 10  1  0  0  0  0
 11 17  1  0  0  0  0
 12 19  1  0  0  0  0
 13 21  2  0  0  0  0
 14 16  2  0  0  0  0
 16 17  1  0  0  0  0
 16 20  1  0  0  0  0
 17 18  2  0  0  0  0
 18 12  1  0  0  0  0
 19 15  2  0  0  0  0
 20 13  1  0  0  0  0
 20 12  2  0  0  0  0
 21 15  1  0  0  0  0
 22 23  1  1  0  0  0
 22 24  1  0  0  0  0
 24 27  1  0  0  0  0
 24 29  1  1  0  0  0
 25 26  1  0  0  0  0
 27 25  1  0  0  0  0
 27 26  1  0  0  0  0
 28 31  1  0  0  0  0
 29 28  2  0  0  0  0
 31 37  1  0  0  0  0
 31 30  1  1  0  0  0
 32 33  2  0  0  0  0
 32 36  1  0  0  0  0
 34 37  1  0  0  0  0
 35 34  2  0  0  0  0
 35 32  1  0  0  0  0
 36 39  1  1  0  0  0
 37 36  1  0  0  0  0
 39 38  1  0  0  0  0
 40  1  1  0  0  0  0
 42 41  1  0  0  0  0
 43 42  1  0  0  0  0
 44 41  1  0  0  0  0
 44 40  1  0  0  0  0
 45 44  2  0  0  0  0
 46 42  2  0  0  0  0
 46 45  1  0  0  0  0
 47 46  1  0  0  0  0
 47 49  1  0  0  0  0
 48 47  1  0  0  0  0
M  END
>  <MODEL>
6

>  <REMARK>
 VINA RESULT:      -7.6      3.060      8.287
  Name = 
  14 active torsions:
  status: ('A' for Active; 'I' for Inactive)
    1  A    between atoms: N_1  and  C_26
    2  A    between atoms: C_3  and  C_20
    3  A    between atoms: N_5  and  C_41
    4  A    between atoms: C_7  and  C_12
    5  A    between atoms: C_7  and  C_29
    6  A    between atoms: C_8  and  N_11
    7  A    between atoms: N_11  and  C_28
    8  A    between atoms: C_12  and  N_38
    9  A    between atoms: C_15  and  C_20
   10  A    between atoms: C_15  and  C_22
   11  A    between atoms: C_20  and  C_45
   12  A    between atoms: C_26  and  N_44
   13  A    between atoms: C_35  and  C_40
   14  A    between atoms: C_46  and  C_47
                            x       y       z     vdW  Elec       q    Type
                         _______ _______ _______ _____ _____    ______ ____

>  <TORSDO>
F 14

$$$$
=
 OpenBabel10232410053D

 49 54  0  0  1  0  0  0  0  0999 V2000
  183.8320  176.5740  137.7640 C   0  0  0  0  0  0  0  0  0  0  0  0
  183.0200  176.5450  138.9090 C   0  0  0  0  0  3  0  0  0  0  0  0
  184.3680  178.2680  139.9510 C   0  0  0  0  0  0  0  0  0  0  0  0
  185.1840  178.3050  138.8160 C   0  0  0  0  0  3  0  0  0  0  0  0
  183.2850  177.3760  139.9970 C   0  0  0  0  0  3  0  0  0  0  0  0
  184.9320  177.4700  137.7150 C   0  0  0  0  0  0  0  0  0  0  0  0
  187.2120  176.9650  136.6760 N   0  0  0  0  0  2  0  0  0  0  0  0
  185.8760  177.4760  136.5720 C   0  0  0  0  0  0  0  0  0  0  0  0
  185.4950  177.9250  135.4570 O   0  0  0  0  0  0  0  0  0  0  0  0
  187.9170  176.7240  137.9280 C   0  0  0  0  0  2  0  0  0  0  0  0
  189.1130  177.6590  138.0480 C   0  0  0  0  0  2  0  0  0  0  0  0
  191.8600  175.9130  136.4530 C   0  0  0  0  0  0  0  0  0  0  0  0
  193.7420  175.5200  137.9330 C   0  0  0  0  0  3  0  0  0  0  0  0
  191.6300  176.9840  139.7330 O   0  0  0  0  0  0  0  0  0  0  0  0
  193.8100  174.8020  135.5980 C   0  0  0  0  0  3  0  0  0  0  0  0
  191.5030  176.6790  138.5200 C   0  0  0  0  0  0  0  0  0  0  0  0
  190.3540  176.9420  137.6460 C   0  0  0  0  0  0  0  0  0  0  0  0
  190.5560  176.5000  136.4430 N   0  0  0  0  0  0  0  0  0  0  0  0
  192.5130  175.3100  135.3790 C   0  0  0  0  0  3  0  0  0  0  0  0
  192.4610  176.0060  137.6850 C   0  0  0  0  0  0  0  0  0  0  0  0
  194.4210  174.9090  136.8650 C   0  0  0  0  0  3  0  0  0  0  0  0
  184.6790  179.1520  141.1170 C   0  0  2  0  0  3  0  0  0  0  0  0
  186.0220  179.5440  141.0640 O   0  0  0  0  0  1  0  0  0  0  0  0
  184.3480  178.4360  142.4360 C   0  0  2  0  0  3  0  0  0  0  0  0
  182.1630  179.0860  143.6270 C   0  0  0  0  0  2  0  0  0  0  0  0
  183.1760  178.6860  144.6880 C   0  0  0  0  0  2  0  0  0  0  0  0
  183.6370  179.3930  143.4230 C   0  0  0  0  0  3  0  0  0  0  0  0
  186.2220  177.9880  143.9490 N   0  0  0  0  0  0  0  0  0  0  0  0
  185.4770  177.5840  142.9750 C   0  0  0  0  0  3  0  0  0  0  0  0
  187.9720  176.4530  143.2420 C   0  0  0  0  0  1  0  0  0  0  0  0
  187.3270  177.1870  144.4160 C   0  0  1  0  0  3  0  0  0  0  0  0
  190.0700  177.0390  146.3530 C   0  0  0  0  0  0  0  0  0  0  0  0
  191.1800  176.5030  146.6140 O   0  0  0  0  0  0  0  0  0  0  0  0
  187.9320  177.8380  146.6410 C   0  0  0  0  0  3  0  0  0  0  0  0
  189.0670  177.2300  147.3190 N   0  0  0  0  0  0  0  0  0  0  0  0
  189.6610  177.5280  145.0280 C   0  0  1  0  0  3  0  0  0  0  0  0
  188.2740  177.9920  145.2100 N   0  0  0  0  0  0  0  0  0  0  0  0
  191.4940  178.2480  143.4250 C   0  0  0  0  0  1  0  0  0  0  0  0
  190.5530  178.6710  144.5350 C   0  0  0  0  0  2  0  0  0  0  0  0
  183.5050  175.7620  136.6240 N   0  0  0  0  0  2  0  0  0  0  0  0
  182.8630  173.0600  136.6270 S   0  0  0  0  0  0  0  0  0  0  0  0
  184.0470  171.9110  136.3050 C   0  0  0  0  0  0  0  0  0  0  0  0
  183.7880  170.4450  136.3050 C   0  0  0  0  0  1  0  0  0  0  0  0
  183.8700  174.3930  136.4230 C   0  0  0  0  0  0  0  0  0  0  0  0
  185.1570  173.9690  136.1170 C   0  0  0  0  0  3  0  0  0  0  0  0
  185.2630  172.5700  136.0410 C   0  0  0  0  0  0  0  0  0  0  0  0
  186.5030  171.9130  135.7060 N   0  0  0  0  0  0  0  0  0  0  0  0
  186.6970  171.2010  134.4530 C   0  0  0  0  0  1  0  0  0  0  0  0
  187.6240  171.9330  136.6400 C   0  0  0  0  0  1  0  0  0  0  0  0
  1  2  1  0  0  0  0
  2  5  2  0  0  0  0
  3  5  1  0  0  0  0
  3 22  1  0  0  0  0
  4  3  2  0  0  0  0
  6  1  2  0  0  0  0
  6  4  1  0  0  0  0
  7 10  1  0  0  0  0
  8  7  1  0  0  0  0
  8  6  1  0  0  0  0
  9  8  2  0  0  0  0
 10 11  1  0  0  0  0
 12 20  1  0  0  0  0
 15 21  2  0  0  0  0
 16 14  2  0  0  0  0
 17 11  1  0  0  0  0
 17 16  1  0  0  0  0
 18 12  1  0  0  0  0
 18 17  2  0  0  0  0
 19 15  1  0  0  0  0
 19 12  2  0  0  0  0
 20 13  2  0  0  0  0
 20 16  1  0  0  0  0
 21 13  1  0  0  0  0
 22 23  1  1  0  0  0
 22 24  1  0  0  0  0
 24 29  1  1  0  0  0
 24 27  1  0  0  0  0
 25 26  1  0  0  0  0
 27 25  1  0  0  0  0
 27 26  1  0  0  0  0
 28 31  1  0  0  0  0
 29 28  2  0  0  0  0
 31 30  1  6  0  0  0
 31 37  1  0  0  0  0
 32 33  2  0  0  0  0
 32 35  1  0  0  0  0
 34 35  2  0  0  0  0
 36 39  1  1  0  0  0
 36 37  1  0  0  0  0
 36 32  1  0  0  0  0
 37 34  1  0  0  0  0
 38 39  1  0  0  0  0
 40  1  1  0  0  0  0
 42 43  1  0  0  0  0
 42 41  1  0  0  0  0
 44 40  1  0  0  0  0
 44 41  1  0  0  0  0
 45 44  2  0  0  0  0
 46 45  1  0  0  0  0
 46 42  2  0  0  0  0
 47 46  1  0  0  0  0
 47 49  1  0  0  0  0
 48 47  1  0  0  0  0
M  END
>  <MODEL>
7

>  <REMARK>
 VINA RESULT:      -7.6      2.700      8.409
  Name = 
  14 active torsions:
  status: ('A' for Active; 'I' for Inactive)
    1  A    between atoms: N_1  and  C_26
    2  A    between atoms: C_3  and  C_20
    3  A    between atoms: N_5  and  C_41
    4  A    between atoms: C_7  and  C_12
    5  A    between atoms: C_7  and  C_29
    6  A    between atoms: C_8  and  N_11
    7  A    between atoms: N_11  and  C_28
    8  A    between atoms: C_12  and  N_38
    9  A    between atoms: C_15  and  C_20
   10  A    between atoms: C_15  and  C_22
   11  A    between atoms: C_20  and  C_45
   12  A    between atoms: C_26  and  N_44
   13  A    between atoms: C_35  and  C_40
   14  A    between atoms: C_46  and  C_47
                            x       y       z     vdW  Elec       q    Type
                         _______ _______ _______ _____ _____    ______ ____

>  <TORSDO>
F 14

$$$$
=
 OpenBabel10232410053D

 49 54  0  0  1  0  0  0  0  0999 V2000
  184.3850  177.6610  137.8810 C   0  0  0  0  0  0  0  0  0  0  0  0
  183.4090  177.5710  138.8860 C   0  0  0  0  0  3  0  0  0  0  0  0
  184.8840  178.6690  140.4640 C   0  0  0  0  0  0  0  0  0  0  0  0
  185.8640  178.7630  139.4710 C   0  0  0  0  0  3  0  0  0  0  0  0
  183.6530  178.0620  140.1680 C   0  0  0  0  0  3  0  0  0  0  0  0
  185.6330  178.2680  138.1760 C   0  0  0  0  0  0  0  0  0  0  0  0
  187.4330  177.1260  136.7670 N   0  0  0  0  0  2  0  0  0  0  0  0
  186.7320  178.3060  137.1820 C   0  0  0  0  0  0  0  0  0  0  0  0
  187.0570  179.4060  136.6600 O   0  0  0  0  0  0  0  0  0  0  0  0
  187.4260  175.8570  137.4830 C   0  0  0  0  0  2  0  0  0  0  0  0
  187.8960  174.7330  136.5680 C   0  0  0  0  0  2  0  0  0  0  0  0
  191.4410  174.8340  137.3120 C   0  0  0  0  0  0  0  0  0  0  0  0
  192.6850  172.9970  136.3310 C   0  0  0  0  0  3  0  0  0  0  0  0
  189.7290  172.5230  135.3910 O   0  0  0  0  0  0  0  0  0  0  0  0
  193.8050  174.6790  137.7040 C   0  0  0  0  0  3  0  0  0  0  0  0
  190.1480  173.4640  136.1120 C   0  0  0  0  0  0  0  0  0  0  0  0
  189.3680  174.5570  136.7020 C   0  0  0  0  0  0  0  0  0  0  0  0
  190.1130  175.3560  137.4010 N   0  0  0  0  0  0  0  0  0  0  0  0
  192.5870  175.3580  137.9080 C   0  0  0  0  0  3  0  0  0  0  0  0
  191.5000  173.6950  136.5470 C   0  0  0  0  0  0  0  0  0  0  0  0
  193.8530  173.5050  136.9240 C   0  0  0  0  0  3  0  0  0  0  0  0
  185.1700  179.1830  141.8400 C   0  0  2  0  0  3  0  0  0  0  0  0
  186.3650  179.9120  141.8280 O   0  0  0  0  0  1  0  0  0  0  0  0
  185.2220  178.0220  142.8450 C   0  0  2  0  0  3  0  0  0  0  0  0
  184.5660  179.7940  144.5910 C   0  0  0  0  0  2  0  0  0  0  0  0
  183.3040  179.3660  143.8570 C   0  0  0  0  0  2  0  0  0  0  0  0
  184.4120  178.3580  144.1210 C   0  0  0  0  0  3  0  0  0  0  0  0
  187.0790  177.1740  144.1990 N   0  0  0  0  0  0  0  0  0  0  0  0
  186.6000  177.4240  143.0270 C   0  0  0  0  0  3  0  0  0  0  0  0
  188.9670  176.2160  143.0010 C   0  0  0  0  0  1  0  0  0  0  0  0
  188.4150  176.6530  144.3570 C   0  0  1  0  0  3  0  0  0  0  0  0
  190.9710  176.9130  146.5240 C   0  0  0  0  0  0  0  0  0  0  0  0
  192.0560  176.4570  146.9720 O   0  0  0  0  0  0  0  0  0  0  0  0
  188.8110  177.7010  146.4740 C   0  0  0  0  0  3  0  0  0  0  0  0
  189.8830  177.2490  147.3470 N   0  0  0  0  0  0  0  0  0  0  0  0
  190.6810  177.1490  145.1020 C   0  0  1  0  0  3  0  0  0  0  0  0
  189.2800  177.6070  145.0750 N   0  0  0  0  0  0  0  0  0  0  0  0
  190.8570  179.2780  143.7280 C   0  0  0  0  0  1  0  0  0  0  0  0
  191.6070  178.2070  144.4930 C   0  0  0  0  0  2  0  0  0  0  0  0
  184.0920  177.2130  136.5460 N   0  0  0  0  0  2  0  0  0  0  0  0
  181.7640  175.9050  135.7870 S   0  0  0  0  0  0  0  0  0  0  0  0
  181.7540  174.2330  135.6100 C   0  0  0  0  0  0  0  0  0  0  0  0
  180.5440  173.4570  135.2240 C   0  0  0  0  0  1  0  0  0  0  0  0
  183.3950  176.0170  136.1850 C   0  0  0  0  0  0  0  0  0  0  0  0
  183.9630  174.7500  136.2060 C   0  0  0  0  0  3  0  0  0  0  0  0
  183.0450  173.7390  135.8760 C   0  0  0  0  0  0  0  0  0  0  0  0
  183.4280  172.3490  135.8070 N   0  0  0  0  0  0  0  0  0  0  0  0
  183.4150  171.4760  136.9700 C   0  0  0  0  0  1  0  0  0  0  0  0
  183.8620  171.7650  134.5420 C   0  0  0  0  0  1  0  0  0  0  0  0
  1  6  2  0  0  0  0
  1  2  1  0  0  0  0
  2  5  2  0  0  0  0
  3 22  1  0  0  0  0
  4  3  2  0  0  0  0
  5  3  1  0  0  0  0
  6  4  1  0  0  0  0
  7  8  1  0  0  0  0
  7 10  1  0  0  0  0
  8  6  1  0  0  0  0
  9  8  2  0  0  0  0
 11 17  1  0  0  0  0
 11 10  1  0  0  0  0
 12 18  1  0  0  0  0
 12 19  1  0  0  0  0
 13 20  1  0  0  0  0
 13 21  2  0  0  0  0
 14 16  2  0  0  0  0
 15 19  2  0  0  0  0
 16 20  1  0  0  0  0
 16 17  1  0  0  0  0
 17 18  2  0  0  0  0
 20 12  2  0  0  0  0
 21 15  1  0  0  0  0
 22 23  1  6  0  0  0
 22 24  1  0  0  0  0
 24 29  1  1  0  0  0
 24 27  1  0  0  0  0
 26 27  1  0  0  0  0
 26 25  1  0  0  0  0
 27 25  1  0  0  0  0
 28 31  1  0  0  0  0
 29 28  2  0  0  0  0
 31 30  1  6  0  0  0
 31 37  1  0  0  0  0
 32 33  2  0  0  0  0
 32 35  1  0  0  0  0
 34 35  2  0  0  0  0
 36 39  1  1  0  0  0
 36 32  1  0  0  0  0
 37 36  1  0  0  0  0
 37 34  1  0  0  0  0
 38 39  1  0  0  0  0
 40  1  1  0  0  0  0
 41 44  1  0  0  0  0
 42 41  1  0  0  0  0
 42 46  2  0  0  0  0
 43 42  1  0  0  0  0
 44 45  2  0  0  0  0
 44 40  1  0  0  0  0
 46 45  1  0  0  0  0
 47 46  1  0  0  0  0
 47 48  1  0  0  0  0
 49 47  1  0  0  0  0
M  END
>  <MODEL>
8

>  <REMARK>
 VINA RESULT:      -7.6      2.918      9.143
  Name = 
  14 active torsions:
  status: ('A' for Active; 'I' for Inactive)
    1  A    between atoms: N_1  and  C_26
    2  A    between atoms: C_3  and  C_20
    3  A    between atoms: N_5  and  C_41
    4  A    between atoms: C_7  and  C_12
    5  A    between atoms: C_7  and  C_29
    6  A    between atoms: C_8  and  N_11
    7  A    between atoms: N_11  and  C_28
    8  A    between atoms: C_12  and  N_38
    9  A    between atoms: C_15  and  C_20
   10  A    between atoms: C_15  and  C_22
   11  A    between atoms: C_20  and  C_45
   12  A    between atoms: C_26  and  N_44
   13  A    between atoms: C_35  and  C_40
   14  A    between atoms: C_46  and  C_47
                            x       y       z     vdW  Elec       q    Type
                         _______ _______ _______ _____ _____    ______ ____

>  <TORSDO>
F 14

$$$$
=
 OpenBabel10232410053D

 49 54  0  0  1  0  0  0  0  0999 V2000
  188.8180  177.0520  136.2310 C   0  0  0  0  0  0  0  0  0  0  0  0
  189.3490  175.9930  135.4770 C   0  0  0  0  0  3  0  0  0  0  0  0
  191.3730  176.0150  136.8090 C   0  0  0  0  0  0  0  0  0  0  0  0
  190.8540  177.0700  137.5660 C   0  0  0  0  0  3  0  0  0  0  0  0
  190.6150  175.4810  135.7540 C   0  0  0  0  0  3  0  0  0  0  0  0
  189.5810  177.5990  137.2940 C   0  0  0  0  0  0  0  0  0  0  0  0
  188.8140  178.7130  139.4630 N   0  0  0  0  0  2  0  0  0  0  0  0
  189.1110  178.7770  138.0620 C   0  0  0  0  0  0  0  0  0  0  0  0
  188.9840  179.8860  137.4770 O   0  0  0  0  0  0  0  0  0  0  0  0
  188.5860  177.4820  140.2110 C   0  0  0  0  0  2  0  0  0  0  0  0
  189.6880  177.2810  141.2420 C   0  0  0  0  0  2  0  0  0  0  0  0
  187.7160  177.5810  144.2680 C   0  0  0  0  0  0  0  0  0  0  0  0
  189.0480  177.5360  146.2960 C   0  0  0  0  0  3  0  0  0  0  0  0
  191.1510  177.3030  143.9780 O   0  0  0  0  0  0  0  0  0  0  0  0
  186.6140  177.7290  146.3970 C   0  0  0  0  0  3  0  0  0  0  0  0
  189.9040  177.3990  143.8560 C   0  0  0  0  0  0  0  0  0  0  0  0
  189.1240  177.4110  142.6140 C   0  0  0  0  0  0  0  0  0  0  0  0
  187.8520  177.5150  142.8460 N   0  0  0  0  0  0  0  0  0  0  0  0
  186.5290  177.6930  144.9900 C   0  0  0  0  0  3  0  0  0  0  0  0
  188.9300  177.5100  144.9080 C   0  0  0  0  0  0  0  0  0  0  0  0
  187.8650  177.6480  147.0450 C   0  0  0  0  0  3  0  0  0  0  0  0
  192.7420  175.4900  137.1070 C   0  0  2  0  0  3  0  0  0  0  0  0
  193.6240  176.5620  137.2920 O   0  0  0  0  0  1  0  0  0  0  0  0
  193.2140  174.5550  135.9830 C   0  0  2  0  0  3  0  0  0  0  0  0
  191.9580  172.3140  135.8350 C   0  0  0  0  0  2  0  0  0  0  0  0
  193.3560  172.1090  135.2710 C   0  0  0  0  0  2  0  0  0  0  0  0
  193.1340  173.0740  136.4260 C   0  0  0  0  0  3  0  0  0  0  0  0
  195.6210  174.4630  135.5350 N   0  0  0  0  0  0  0  0  0  0  0  0
  194.4790  175.0120  135.2890 C   0  0  0  0  0  3  0  0  0  0  0  0
  197.0300  176.4240  135.2360 C   0  0  0  0  0  1  0  0  0  0  0  0
  196.8250  174.9460  134.9050 C   0  0  1  0  0  3  0  0  0  0  0  0
  199.3290  174.4860  137.0980 C   0  0  0  0  0  0  0  0  0  0  0  0
  199.7510  174.5500  138.2830 O   0  0  0  0  0  0  0  0  0  0  0  0
  199.2140  174.7990  134.8220 C   0  0  0  0  0  3  0  0  0  0  0  0
  200.0230  175.0380  136.0080 N   0  0  0  0  0  0  0  0  0  0  0  0
  198.0710  173.8460  136.6860 C   0  0  1  0  0  3  0  0  0  0  0  0
  197.9820  174.0940  135.2360 N   0  0  0  0  0  0  0  0  0  0  0  0
  197.5760  171.5150  135.8080 C   0  0  0  0  0  1  0  0  0  0  0  0
  198.0670  172.3430  136.9790 C   0  0  0  0  0  2  0  0  0  0  0  0
  187.4830  177.5220  135.9770 N   0  0  0  0  0  2  0  0  0  0  0  0
  185.3960  175.8000  136.6000 S   0  0  0  0  0  0  0  0  0  0  0  0
  184.2210  176.2640  137.7100 C   0  0  0  0  0  0  0  0  0  0  0  0
  183.0620  175.4070  138.0820 C   0  0  0  0  0  1  0  0  0  0  0  0
  186.3120  177.2060  136.7360 C   0  0  0  0  0  0  0  0  0  0  0  0
  185.7110  178.0750  137.6370 C   0  0  0  0  0  3  0  0  0  0  0  0
  184.5350  177.5480  138.1960 C   0  0  0  0  0  0  0  0  0  0  0  0
  183.7640  178.2700  139.1790 N   0  0  0  0  0  0  0  0  0  0  0  0
  183.5510  177.7680  140.5280 C   0  0  0  0  0  1  0  0  0  0  0  0
  183.1500  179.5500  138.8410 C   0  0  0  0  0  1  0  0  0  0  0  0
  1  6  1  0  0  0  0
  2  5  1  0  0  0  0
  2  1  2  0  0  0  0
  3 22  1  0  0  0  0
  3  4  1  0  0  0  0
  5  3  2  0  0  0  0
  6  4  2  0  0  0  0
  6  8  1  0  0  0  0
  7 10  1  0  0  0  0
  8  7  1  0  0  0  0
  9  8  2  0  0  0  0
 10 11  1  0  0  0  0
 11 17  1  0  0  0  0
 12 20  2  0  0  0  0
 12 19  1  0  0  0  0
 13 21  2  0  0  0  0
 15 21  1  0  0  0  0
 16 14  2  0  0  0  0
 16 20  1  0  0  0  0
 17 18  2  0  0  0  0
 17 16  1  0  0  0  0
 18 12  1  0  0  0  0
 19 15  2  0  0  0  0
 20 13  1  0  0  0  0
 22 23  1  6  0  0  0
 24 29  1  1  0  0  0
 24 27  1  0  0  0  0
 24 22  1  0  0  0  0
 25 27  1  0  0  0  0
 26 25  1  0  0  0  0
 26 27  1  0  0  0  0
 29 28  2  0  0  0  0
 31 37  1  0  0  0  0
 31 30  1  1  0  0  0
 31 28  1  0  0  0  0
 32 33  2  0  0  0  0
 34 37  1  0  0  0  0
 34 35  2  0  0  0  0
 35 32  1  0  0  0  0
 36 39  1  6  0  0  0
 36 32  1  0  0  0  0
 37 36  1  0  0  0  0
 38 39  1  0  0  0  0
 40  1  1  0  0  0  0
 40 44  1  0  0  0  0
 41 44  1  0  0  0  0
 41 42  1  0  0  0  0
 42 43  1  0  0  0  0
 42 46  2  0  0  0  0
 44 45  2  0  0  0  0
 45 46  1  0  0  0  0
 46 47  1  0  0  0  0
 47 48  1  0  0  0  0
 49 47  1  0  0  0  0
M  END
>  <MODEL>
9

>  <REMARK>
 VINA RESULT:      -7.4      2.875      9.734
  Name = 
  14 active torsions:
  status: ('A' for Active; 'I' for Inactive)
    1  A    between atoms: N_1  and  C_26
    2  A    between atoms: C_3  and  C_20
    3  A    between atoms: N_5  and  C_41
    4  A    between atoms: C_7  and  C_12
    5  A    between atoms: C_7  and  C_29
    6  A    between atoms: C_8  and  N_11
    7  A    between atoms: N_11  and  C_28
    8  A    between atoms: C_12  and  N_38
    9  A    between atoms: C_15  and  C_20
   10  A    between atoms: C_15  and  C_22
   11  A    between atoms: C_20  and  C_45
   12  A    between atoms: C_26  and  N_44
   13  A    between atoms: C_35  and  C_40
   14  A    between atoms: C_46  and  C_47
                            x       y       z     vdW  Elec       q    Type
                         _______ _______ _______ _____ _____    ______ ____

>  <TORSDO>
F 14

$$$$
