=
 OpenBabel10232412083D

 39 43  0  0  1  0  0  0  0  0999 V2000
  189.2090  177.9780  140.9860 C   0  0  1  0  0  3  0  0  0  0  0  0
  189.4030  176.8120  143.1390 N   0  0  0  0  0  2  0  0  0  0  0  0
  187.6860  177.9940  140.9780 C   0  0  0  0  0  2  0  0  0  0  0  0
  189.7360  176.7480  141.7220 C   0  0  0  0  0  2  0  0  0  0  0  0
  188.0770  176.2300  143.2900 C   0  0  0  0  0  2  0  0  0  0  0  0
  186.9900  177.3120  143.3410 C   0  0  2  0  0  3  0  0  0  0  0  0
  187.1650  178.4600  142.3340 C   0  0  2  0  0  3  0  0  0  0  0  0
  187.2470  178.1210  146.9330 N   0  0  0  0  0  0  0  0  0  0  0  0
  187.6030  177.4380  145.7420 C   0  0  0  0  0  3  0  0  0  0  0  0
  185.7960  178.8540  145.1760 C   0  0  1  0  0  3  0  0  0  0  0  0
  186.1510  178.9570  146.6160 C   0  0  0  0  0  0  0  0  0  0  0  0
  185.5650  179.6890  147.4570 O   0  0  0  0  0  0  0  0  0  0  0  0
  186.8260  177.8380  144.7360 C   0  0  0  0  0  0  0  0  0  0  0  0
  184.3930  178.2860  145.0390 C   0  0  0  0  0  1  0  0  0  0  0  0
  187.6370  177.7700  148.1820 O   0  0  0  0  0  0  0  0  0  0  0  0
  189.0270  177.9140  148.1850 C   0  0  0  0  0  1  0  0  0  0  0  0
  189.7100  177.9780  139.5510 C   0  0  0  0  0  2  0  0  0  0  0  0
  191.3580  176.2980  137.1630 C   0  0  0  0  0  0  0  0  0  0  0  0
  192.3730  176.2110  136.4240 O   0  0  0  0  0  0  0  0  0  0  0  0
  190.1240  176.5790  139.1180 C   0  0  1  0  0  3  0  0  0  0  0  0
  189.1840  176.0530  138.0210 C   0  0  0  0  0  2  0  0  0  0  0  0
  189.9740  176.0150  136.7120 C   0  0  1  0  0  3  0  0  0  0  0  0
  191.4500  176.6310  138.5310 N   0  0  0  0  0  2  0  0  0  0  0  0
  189.4120  177.0730  135.7500 C   0  0  1  0  0  3  0  0  0  0  0  0
  189.7250  176.8110  134.4110 O   0  0  0  0  0  1  0  0  0  0  0  0
  187.6370  178.7100  136.5260 C   0  0  0  0  0  1  0  0  0  0  0  0
  187.9200  177.3360  135.9450 C   0  0  0  0  0  2  0  0  0  0  0  0
  185.8980  179.1550  142.1610 N   0  0  0  0  0  2  0  0  0  0  0  0
  183.6810  178.6870  139.3460 C   0  0  0  0  0  3  0  0  0  0  0  0
  184.6720  179.3500  139.9240 C   0  0  0  0  0  3  0  0  0  0  0  0
  184.9170  178.7280  141.2140 C   0  0  0  0  0  0  0  0  0  0  0  0
  183.2120  177.5730  140.2340 C   0  0  1  0  0  3  0  0  0  0  0  0
  184.0990  177.7160  141.4270 C   0  0  0  0  0  3  0  0  0  0  0  0
  181.7750  177.7540  140.6140 C   0  0  0  0  0  0  0  0  0  0  0  0
  181.4470  178.6350  141.6880 N   0  0  0  0  0  2  0  0  0  0  0  0
  180.8640  177.1470  139.9860 O   0  0  0  0  0  0  0  0  0  0  0  0
  179.9830  178.6980  143.6130 C   0  0  0  0  0  2  0  0  0  0  0  0
  180.0730  178.8550  142.1090 C   0  0  0  0  0  3  0  0  0  0  0  0
  180.0170  180.0800  142.9980 C   0  0  0  0  0  2  0  0  0  0  0  0
  1 17  1  6  0  0  0
  1  4  1  0  0  0  0
  2  5  1  0  0  0  0
  3  1  1  0  0  0  0
  3  7  1  0  0  0  0
  4  2  1  0  0  0  0
  5  6  1  0  0  0  0
  6 13  1  1  0  0  0
  7 28  1  6  0  0  0
  7  6  1  0  0  0  0
  8 15  1  0  0  0  0
  9  8  1  0  0  0  0
 10 14  1  1  0  0  0
 10 11  1  0  0  0  0
 11  8  1  0  0  0  0
 11 12  2  0  0  0  0
 13 10  1  0  0  0  0
 13  9  2  0  0  0  0
 15 16  1  0  0  0  0
 18 23  1  0  0  0  0
 19 18  2  0  0  0  0
 20 17  1  6  0  0  0
 21 20  1  0  0  0  0
 22 24  1  6  0  0  0
 22 18  1  0  0  0  0
 22 21  1  0  0  0  0
 23 20  1  0  0  0  0
 24 25  1  6  0  0  0
 24 27  1  0  0  0  0
 27 26  1  0  0  0  0
 29 30  2  0  0  0  0
 29 32  1  0  0  0  0
 30 31  1  0  0  0  0
 31 33  2  0  0  0  0
 31 28  1  0  0  0  0
 32 34  1  1  0  0  0
 32 33  1  0  0  0  0
 34 35  1  0  0  0  0
 35 38  1  0  0  0  0
 36 34  2  0  0  0  0
 38 39  1  0  0  0  0
 38 37  1  0  0  0  0
 39 37  1  0  0  0  0
M  END
>  <MODEL>
1

>  <REMARK>
 VINA RESULT:      -8.2      0.000      0.000
  Name = 
  10 active torsions:
  status: ('A' for Active; 'I' for Inactive)
    1  A    between atoms: N_1  and  O_6
    2  A    between atoms: C_2  and  C_24
    3  A    between atoms: C_5  and  C_23
    4  A    between atoms: C_7  and  N_33
    5  A    between atoms: C_12  and  C_27
    6  A    between atoms: C_12  and  C_37
    7  A    between atoms: C_13  and  C_24
    8  A    between atoms: C_19  and  N_32
    9  A    between atoms: C_28  and  C_36
   10  A    between atoms: C_30  and  N_32
                            x       y       z     vdW  Elec       q    Type
                         _______ _______ _______ _____ _____    ______ ____

>  <TORSDO>
F 10

$$$$
=
 OpenBabel10232412083D

 39 43  0  0  1  0  0  0  0  0999 V2000
  189.3940  177.8160  141.0430 C   0  0  1  0  0  3  0  0  0  0  0  0
  189.4470  176.6430  143.2000 N   0  0  0  0  0  2  0  0  0  0  0  0
  187.8750  177.9150  140.9800 C   0  0  0  0  0  2  0  0  0  0  0  0
  189.8260  176.5600  141.7960 C   0  0  0  0  0  2  0  0  0  0  0  0
  188.0860  176.1340  143.3020 C   0  0  0  0  0  2  0  0  0  0  0  0
  187.0590  177.2730  143.3160 C   0  0  2  0  0  3  0  0  0  0  0  0
  187.3320  178.4100  142.3170 C   0  0  2  0  0  3  0  0  0  0  0  0
  187.2570  178.1010  146.9070 N   0  0  0  0  0  0  0  0  0  0  0  0
  187.6290  177.4090  145.7270 C   0  0  0  0  0  3  0  0  0  0  0  0
  185.8430  178.8350  145.1200 C   0  0  1  0  0  3  0  0  0  0  0  0
  186.1730  178.9430  146.5660 C   0  0  0  0  0  0  0  0  0  0  0  0
  185.5780  179.6840  147.3920 O   0  0  0  0  0  0  0  0  0  0  0  0
  186.8740  177.8080  144.7050 C   0  0  0  0  0  0  0  0  0  0  0  0
  184.4380  178.2760  144.9610 C   0  0  0  0  0  1  0  0  0  0  0  0
  187.6220  177.7540  148.1650 O   0  0  0  0  0  0  0  0  0  0  0  0
  188.9400  178.1960  148.2980 C   0  0  0  0  0  1  0  0  0  0  0  0
  189.9450  177.7880  139.6270 C   0  0  0  0  0  2  0  0  0  0  0  0
  192.1830  176.3590  137.5790 C   0  0  0  0  0  0  0  0  0  0  0  0
  193.2810  176.4440  136.9700 O   0  0  0  0  0  0  0  0  0  0  0  0
  190.6790  176.4830  139.3530 C   0  0  1  0  0  3  0  0  0  0  0  0
  190.0080  175.7190  138.2000 C   0  0  0  0  0  2  0  0  0  0  0  0
  190.9500  175.7750  136.9960 C   0  0  1  0  0  3  0  0  0  0  0  0
  192.0320  176.7750  138.9190 N   0  0  0  0  0  2  0  0  0  0  0  0
  190.3180  176.6430  135.8980 C   0  0  1  0  0  3  0  0  0  0  0  0
  190.5090  176.1200  134.6140 O   0  0  0  0  0  1  0  0  0  0  0  0
  188.6220  178.4630  136.3910 C   0  0  0  0  0  1  0  0  0  0  0  0
  188.8520  176.9790  136.1620 C   0  0  0  0  0  2  0  0  0  0  0  0
  186.1120  179.1720  142.0990 N   0  0  0  0  0  2  0  0  0  0  0  0
  183.2680  177.7200  140.4080 C   0  0  0  0  0  3  0  0  0  0  0  0
  183.9670  177.9050  141.5180 C   0  0  0  0  0  3  0  0  0  0  0  0
  185.1000  178.7490  141.1820 C   0  0  0  0  0  0  0  0  0  0  0  0
  183.9090  178.4420  139.2620 C   0  0  1  0  0  3  0  0  0  0  0  0
  185.1040  179.0700  139.9030 C   0  0  0  0  0  3  0  0  0  0  0  0
  184.3230  177.4880  138.1850 C   0  0  0  0  0  0  0  0  0  0  0  0
  183.6100  176.2600  138.0350 N   0  0  0  0  0  2  0  0  0  0  0  0
  185.2810  177.7680  137.4140 O   0  0  0  0  0  0  0  0  0  0  0  0
  184.3300  173.9790  137.6760 C   0  0  0  0  0  2  0  0  0  0  0  0
  183.9610  175.2880  137.0120 C   0  0  0  0  0  3  0  0  0  0  0  0
  182.9640  174.1480  137.0490 C   0  0  0  0  0  2  0  0  0  0  0  0
  1 17  1  6  0  0  0
  1  4  1  0  0  0  0
  2  5  1  0  0  0  0
  3  1  1  0  0  0  0
  3  7  1  0  0  0  0
  4  2  1  0  0  0  0
  5  6  1  0  0  0  0
  6 13  1  1  0  0  0
  7 28  1  6  0  0  0
  7  6  1  0  0  0  0
  8 15  1  0  0  0  0
  9  8  1  0  0  0  0
 10 14  1  1  0  0  0
 10 11  1  0  0  0  0
 11  8  1  0  0  0  0
 11 12  2  0  0  0  0
 13 10  1  0  0  0  0
 13  9  2  0  0  0  0
 15 16  1  0  0  0  0
 18 23  1  0  0  0  0
 19 18  2  0  0  0  0
 20 17  1  6  0  0  0
 21 20  1  0  0  0  0
 22 24  1  6  0  0  0
 22 18  1  0  0  0  0
 22 21  1  0  0  0  0
 23 20  1  0  0  0  0
 24 25  1  6  0  0  0
 24 27  1  0  0  0  0
 27 26  1  0  0  0  0
 29 30  2  0  0  0  0
 31 30  1  0  0  0  0
 31 28  1  0  0  0  0
 32 34  1  6  0  0  0
 32 33  1  0  0  0  0
 32 29  1  0  0  0  0
 33 31  2  0  0  0  0
 35 34  1  0  0  0  0
 36 34  2  0  0  0  0
 38 39  1  0  0  0  0
 38 37  1  0  0  0  0
 38 35  1  0  0  0  0
 39 37  1  0  0  0  0
M  END
>  <MODEL>
2

>  <REMARK>
 VINA RESULT:      -8.2      1.762      2.757
  Name = 
  10 active torsions:
  status: ('A' for Active; 'I' for Inactive)
    1  A    between atoms: N_1  and  O_6
    2  A    between atoms: C_2  and  C_24
    3  A    between atoms: C_5  and  C_23
    4  A    between atoms: C_7  and  N_33
    5  A    between atoms: C_12  and  C_27
    6  A    between atoms: C_12  and  C_37
    7  A    between atoms: C_13  and  C_24
    8  A    between atoms: C_19  and  N_32
    9  A    between atoms: C_28  and  C_36
   10  A    between atoms: C_30  and  N_32
                            x       y       z     vdW  Elec       q    Type
                         _______ _______ _______ _____ _____    ______ ____

>  <TORSDO>
F 10

$$$$
=
 OpenBabel10232412083D

 39 43  0  0  1  0  0  0  0  0999 V2000
  188.4100  177.7210  141.7120 C   0  0  1  0  0  3  0  0  0  0  0  0
  190.4080  176.3870  141.2000 N   0  0  0  0  0  2  0  0  0  0  0  0
  188.5540  178.6470  140.5110 C   0  0  0  0  0  2  0  0  0  0  0  0
  189.7760  177.2410  142.1960 C   0  0  0  0  0  2  0  0  0  0  0  0
  191.1310  177.2620  140.2870 C   0  0  0  0  0  2  0  0  0  0  0  0
  190.3170  177.5500  139.0200 C   0  0  2  0  0  3  0  0  0  0  0  0
  188.8230  177.8270  139.2530 C   0  0  2  0  0  3  0  0  0  0  0  0
  190.1150  174.5590  136.8670 N   0  0  0  0  0  0  0  0  0  0  0  0
  189.7200  175.3970  137.9400 C   0  0  0  0  0  3  0  0  0  0  0  0
  191.5970  176.4380  136.9460 C   0  0  1  0  0  3  0  0  0  0  0  0
  191.2520  175.1570  136.2750 C   0  0  0  0  0  0  0  0  0  0  0  0
  191.8780  174.6560  135.3040 O   0  0  0  0  0  0  0  0  0  0  0  0
  190.5130  176.4660  138.0020 C   0  0  0  0  0  0  0  0  0  0  0  0
  192.9680  176.3190  137.5920 C   0  0  0  0  0  1  0  0  0  0  0  0
  189.7120  173.2780  136.6850 O   0  0  0  0  0  0  0  0  0  0  0  0
  188.3170  173.3250  136.7350 C   0  0  0  0  0  1  0  0  0  0  0  0
  187.6960  178.4670  142.8260 C   0  0  0  0  0  2  0  0  0  0  0  0
  185.4760  178.3540  145.3360 C   0  0  0  0  0  0  0  0  0  0  0  0
  184.6180  178.9570  146.0330 O   0  0  0  0  0  0  0  0  0  0  0  0
  186.5790  177.6220  143.4210 C   0  0  1  0  0  3  0  0  0  0  0  0
  187.0960  176.8100  144.6200 C   0  0  0  0  0  2  0  0  0  0  0  0
  186.4730  177.4020  145.8850 C   0  0  1  0  0  3  0  0  0  0  0  0
  185.5380  178.4920  143.9340 N   0  0  0  0  0  2  0  0  0  0  0  0
  187.5700  178.0750  146.7230 C   0  0  1  0  0  3  0  0  0  0  0  0
  187.4040  177.8740  148.0980 O   0  0  0  0  0  1  0  0  0  0  0  0
  189.8160  177.0850  147.3620 C   0  0  0  0  0  1  0  0  0  0  0  0
  188.9830  177.7240  146.2640 C   0  0  0  0  0  2  0  0  0  0  0  0
  188.2660  178.5090  138.0940 N   0  0  0  0  0  2  0  0  0  0  0  0
  184.9110  177.5640  137.1430 C   0  0  0  0  0  3  0  0  0  0  0  0
  185.7480  178.0640  138.0400 C   0  0  0  0  0  3  0  0  0  0  0  0
  187.0730  178.0620  137.4460 C   0  0  0  0  0  0  0  0  0  0  0  0
  185.6480  177.2000  135.8880 C   0  0  1  0  0  3  0  0  0  0  0  0
  187.0560  177.5710  136.2220 C   0  0  0  0  0  3  0  0  0  0  0  0
  185.5360  175.7350  135.6030 C   0  0  0  0  0  0  0  0  0  0  0  0
  184.8490  174.8960  136.5320 N   0  0  0  0  0  2  0  0  0  0  0  0
  186.0320  175.2470  134.5490 O   0  0  0  0  0  0  0  0  0  0  0  0
  184.7550  172.7540  137.6520 C   0  0  0  0  0  2  0  0  0  0  0  0
  184.7060  173.4660  136.3160 C   0  0  0  0  0  3  0  0  0  0  0  0
  183.4250  172.9910  136.9700 C   0  0  0  0  0  2  0  0  0  0  0  0
  1  4  1  0  0  0  0
  1 17  1  1  0  0  0
  2  4  1  0  0  0  0
  3  1  1  0  0  0  0
  5  2  1  0  0  0  0
  6 13  1  6  0  0  0
  6  7  1  0  0  0  0
  6  5  1  0  0  0  0
  7 28  1  6  0  0  0
  7  3  1  0  0  0  0
  8  9  1  0  0  0  0
  9 13  2  0  0  0  0
 10 14  1  1  0  0  0
 10 13  1  0  0  0  0
 11  8  1  0  0  0  0
 11 10  1  0  0  0  0
 12 11  2  0  0  0  0
 15 16  1  0  0  0  0
 15  8  1  0  0  0  0
 18 22  1  0  0  0  0
 18 19  2  0  0  0  0
 20 17  1  1  0  0  0
 20 23  1  0  0  0  0
 20 21  1  0  0  0  0
 21 22  1  0  0  0  0
 22 24  1  1  0  0  0
 23 18  1  0  0  0  0
 24 25  1  1  0  0  0
 27 24  1  0  0  0  0
 27 26  1  0  0  0  0
 29 30  2  0  0  0  0
 31 30  1  0  0  0  0
 31 28  1  0  0  0  0
 32 34  1  1  0  0  0
 32 33  1  0  0  0  0
 32 29  1  0  0  0  0
 33 31  2  0  0  0  0
 34 35  1  0  0  0  0
 36 34  2  0  0  0  0
 38 35  1  0  0  0  0
 38 39  1  0  0  0  0
 38 37  1  0  0  0  0
 39 37  1  0  0  0  0
M  END
>  <MODEL>
3

>  <REMARK>
 VINA RESULT:      -8.1      2.895      8.561
  Name = 
  10 active torsions:
  status: ('A' for Active; 'I' for Inactive)
    1  A    between atoms: N_1  and  O_6
    2  A    between atoms: C_2  and  C_24
    3  A    between atoms: C_5  and  C_23
    4  A    between atoms: C_7  and  N_33
    5  A    between atoms: C_12  and  C_27
    6  A    between atoms: C_12  and  C_37
    7  A    between atoms: C_13  and  C_24
    8  A    between atoms: C_19  and  N_32
    9  A    between atoms: C_28  and  C_36
   10  A    between atoms: C_30  and  N_32
                            x       y       z     vdW  Elec       q    Type
                         _______ _______ _______ _____ _____    ______ ____

>  <TORSDO>
F 10

$$$$
=
 OpenBabel10232412083D

 39 43  0  0  1  0  0  0  0  0999 V2000
  188.4220  177.6410  141.6060 C   0  0  1  0  0  3  0  0  0  0  0  0
  190.4430  176.4530  140.8700 N   0  0  0  0  0  2  0  0  0  0  0  0
  188.3060  178.4990  140.3530 C   0  0  0  0  0  2  0  0  0  0  0  0
  189.8830  177.3110  141.9060 C   0  0  0  0  0  2  0  0  0  0  0  0
  190.9430  177.3290  139.8190 C   0  0  0  0  0  2  0  0  0  0  0  0
  189.9330  177.4670  138.6740 C   0  0  2  0  0  3  0  0  0  0  0  0
  188.4680  177.6290  139.1110 C   0  0  2  0  0  3  0  0  0  0  0  0
  189.6660  174.3680  136.6870 N   0  0  0  0  0  0  0  0  0  0  0  0
  189.3350  175.2420  137.7530 C   0  0  0  0  0  3  0  0  0  0  0  0
  191.0660  176.3060  136.5420 C   0  0  1  0  0  3  0  0  0  0  0  0
  190.7170  174.9810  135.9650 C   0  0  0  0  0  0  0  0  0  0  0  0
  191.2730  174.4580  134.9630 O   0  0  0  0  0  0  0  0  0  0  0  0
  190.0830  176.3430  137.6920 C   0  0  0  0  0  0  0  0  0  0  0  0
  192.4940  176.2730  137.0620 C   0  0  0  0  0  1  0  0  0  0  0  0
  189.3040  173.0650  136.6020 O   0  0  0  0  0  0  0  0  0  0  0  0
  188.0690  173.0710  135.9510 C   0  0  0  0  0  1  0  0  0  0  0  0
  187.8080  178.3910  142.7760 C   0  0  0  0  0  2  0  0  0  0  0  0
  185.5510  178.4380  145.2550 C   0  0  0  0  0  0  0  0  0  0  0  0
  184.7180  179.0980  145.9310 O   0  0  0  0  0  0  0  0  0  0  0  0
  186.6370  177.6170  143.3660 C   0  0  1  0  0  3  0  0  0  0  0  0
  187.0920  176.7960  144.5840 C   0  0  0  0  0  2  0  0  0  0  0  0
  186.4850  177.4400  145.8310 C   0  0  1  0  0  3  0  0  0  0  0  0
  185.6390  178.5520  143.8520 N   0  0  0  0  0  2  0  0  0  0  0  0
  187.6060  178.0630  146.6760 C   0  0  1  0  0  3  0  0  0  0  0  0
  187.3990  177.9110  148.0520 O   0  0  0  0  0  1  0  0  0  0  0  0
  189.7740  176.9580  147.3930 C   0  0  0  0  0  1  0  0  0  0  0  0
  189.0030  177.6090  146.2570 C   0  0  0  0  0  2  0  0  0  0  0  0
  187.6900  178.1870  138.0150 N   0  0  0  0  0  2  0  0  0  0  0  0
  184.1090  177.7410  137.8350 C   0  0  0  0  0  3  0  0  0  0  0  0
  185.1570  178.4060  138.2980 C   0  0  0  0  0  3  0  0  0  0  0  0
  186.3470  177.7800  137.7480 C   0  0  0  0  0  0  0  0  0  0  0  0
  184.5550  176.6240  136.9400 C   0  0  1  0  0  3  0  0  0  0  0  0
  186.0430  176.7570  136.9740 C   0  0  0  0  0  3  0  0  0  0  0  0
  184.1260  175.2950  137.4800 C   0  0  0  0  0  0  0  0  0  0  0  0
  184.6560  174.1050  136.8980 N   0  0  0  0  0  2  0  0  0  0  0  0
  183.3160  175.2270  138.4450 O   0  0  0  0  0  0  0  0  0  0  0  0
  183.1400  172.2570  136.5280 C   0  0  0  0  0  2  0  0  0  0  0  0
  184.2810  172.7830  137.3730 C   0  0  0  0  0  3  0  0  0  0  0  0
  184.5500  171.7680  136.2820 C   0  0  0  0  0  2  0  0  0  0  0  0
  1  4  1  0  0  0  0
  1 17  1  1  0  0  0
  2  4  1  0  0  0  0
  3  1  1  0  0  0  0
  5  2  1  0  0  0  0
  6 13  1  6  0  0  0
  6  7  1  0  0  0  0
  6  5  1  0  0  0  0
  7 28  1  6  0  0  0
  7  3  1  0  0  0  0
  8  9  1  0  0  0  0
 10 14  1  1  0  0  0
 10 13  1  0  0  0  0
 11 10  1  0  0  0  0
 11  8  1  0  0  0  0
 12 11  2  0  0  0  0
 13  9  2  0  0  0  0
 15  8  1  0  0  0  0
 16 15  1  0  0  0  0
 18 22  1  0  0  0  0
 18 19  2  0  0  0  0
 20 17  1  1  0  0  0
 20 23  1  0  0  0  0
 20 21  1  0  0  0  0
 21 22  1  0  0  0  0
 22 24  1  1  0  0  0
 23 18  1  0  0  0  0
 24 25  1  1  0  0  0
 27 24  1  0  0  0  0
 27 26  1  0  0  0  0
 29 30  2  0  0  0  0
 31 28  1  0  0  0  0
 31 30  1  0  0  0  0
 32 33  1  0  0  0  0
 32 34  1  1  0  0  0
 32 29  1  0  0  0  0
 33 31  2  0  0  0  0
 34 36  2  0  0  0  0
 35 38  1  0  0  0  0
 35 34  1  0  0  0  0
 37 38  1  0  0  0  0
 39 37  1  0  0  0  0
 39 38  1  0  0  0  0
M  END
>  <MODEL>
4

>  <REMARK>
 VINA RESULT:      -8.1      2.885      8.508
  Name = 
  10 active torsions:
  status: ('A' for Active; 'I' for Inactive)
    1  A    between atoms: N_1  and  O_6
    2  A    between atoms: C_2  and  C_24
    3  A    between atoms: C_5  and  C_23
    4  A    between atoms: C_7  and  N_33
    5  A    between atoms: C_12  and  C_27
    6  A    between atoms: C_12  and  C_37
    7  A    between atoms: C_13  and  C_24
    8  A    between atoms: C_19  and  N_32
    9  A    between atoms: C_28  and  C_36
   10  A    between atoms: C_30  and  N_32
                            x       y       z     vdW  Elec       q    Type
                         _______ _______ _______ _____ _____    ______ ____

>  <TORSDO>
F 10

$$$$
=
 OpenBabel10232412083D

 39 43  0  0  1  0  0  0  0  0999 V2000
  188.4300  177.7600  141.3310 C   0  0  1  0  0  3  0  0  0  0  0  0
  190.4820  176.4330  141.0820 N   0  0  0  0  0  2  0  0  0  0  0  0
  188.6820  178.6310  140.1080 C   0  0  0  0  0  2  0  0  0  0  0  0
  189.7460  177.3240  141.9700 C   0  0  0  0  0  2  0  0  0  0  0  0
  191.2830  177.2760  140.2040 C   0  0  0  0  0  2  0  0  0  0  0  0
  190.5950  177.4930  138.8510 C   0  0  2  0  0  3  0  0  0  0  0  0
  189.0830  177.7580  138.9230 C   0  0  2  0  0  3  0  0  0  0  0  0
  190.6060  174.4350  136.7840 N   0  0  0  0  0  0  0  0  0  0  0  0
  190.0840  175.3260  137.7560 C   0  0  0  0  0  3  0  0  0  0  0  0
  192.1350  176.2600  137.0390 C   0  0  1  0  0  3  0  0  0  0  0  0
  191.8450  174.9690  136.3600 C   0  0  0  0  0  0  0  0  0  0  0  0
  192.5930  174.4110  135.5150 O   0  0  0  0  0  0  0  0  0  0  0  0
  190.9020  176.3660  137.9090 C   0  0  0  0  0  0  0  0  0  0  0  0
  193.3820  176.1150  137.8950 C   0  0  0  0  0  1  0  0  0  0  0  0
  190.1820  173.1640  136.5800 O   0  0  0  0  0  0  0  0  0  0  0  0
  188.7990  173.2060  136.7690 C   0  0  0  0  0  1  0  0  0  0  0  0
  187.6010  178.5460  142.3340 C   0  0  0  0  0  2  0  0  0  0  0  0
  185.5390  178.3240  144.9680 C   0  0  0  0  0  0  0  0  0  0  0  0
  184.7180  178.8930  145.7340 O   0  0  0  0  0  0  0  0  0  0  0  0
  186.5320  177.6670  142.9670 C   0  0  1  0  0  3  0  0  0  0  0  0
  187.1300  176.8250  144.1050 C   0  0  0  0  0  2  0  0  0  0  0  0
  186.5780  177.3680  145.4240 C   0  0  1  0  0  3  0  0  0  0  0  0
  185.5140  178.5070  143.5690 N   0  0  0  0  0  2  0  0  0  0  0  0
  187.7160  178.0280  146.2160 C   0  0  1  0  0  3  0  0  0  0  0  0
  187.4830  178.0390  147.5960 O   0  0  0  0  0  1  0  0  0  0  0  0
  189.8200  176.9150  147.0930 C   0  0  0  0  0  1  0  0  0  0  0  0
  189.0950  177.4650  145.8770 C   0  0  0  0  0  2  0  0  0  0  0  0
  188.6360  178.3770  137.6840 N   0  0  0  0  0  2  0  0  0  0  0  0
  186.0540  177.6510  135.2620 C   0  0  0  0  0  3  0  0  0  0  0  0
  187.1070  178.3650  135.6330 C   0  0  0  0  0  3  0  0  0  0  0  0
  187.5380  177.8640  136.9270 C   0  0  0  0  0  0  0  0  0  0  0  0
  185.7280  176.6230  136.3040 C   0  0  1  0  0  3  0  0  0  0  0  0
  186.7720  176.8750  137.3440 C   0  0  0  0  0  3  0  0  0  0  0  0
  184.3570  176.8380  136.8640 C   0  0  0  0  0  0  0  0  0  0  0  0
  184.2190  177.2900  138.2110 N   0  0  0  0  0  2  0  0  0  0  0  0
  183.3350  176.6330  136.1530 O   0  0  0  0  0  0  0  0  0  0  0  0
  182.5090  176.2830  139.5940 C   0  0  0  0  0  2  0  0  0  0  0  0
  182.9170  177.5160  138.8160 C   0  0  0  0  0  3  0  0  0  0  0  0
  183.0590  177.4880  140.3240 C   0  0  0  0  0  2  0  0  0  0  0  0
  1  4  1  0  0  0  0
  1 17  1  1  0  0  0
  2  4  1  0  0  0  0
  3  1  1  0  0  0  0
  5  2  1  0  0  0  0
  6 13  1  6  0  0  0
  6  7  1  0  0  0  0
  6  5  1  0  0  0  0
  7 28  1  6  0  0  0
  7  3  1  0  0  0  0
  8  9  1  0  0  0  0
  9 13  2  0  0  0  0
 10 14  1  1  0  0  0
 10 13  1  0  0  0  0
 11  8  1  0  0  0  0
 11 10  1  0  0  0  0
 12 11  2  0  0  0  0
 15 16  1  0  0  0  0
 15  8  1  0  0  0  0
 18 22  1  0  0  0  0
 18 19  2  0  0  0  0
 20 17  1  1  0  0  0
 20 23  1  0  0  0  0
 20 21  1  0  0  0  0
 21 22  1  0  0  0  0
 22 24  1  6  0  0  0
 23 18  1  0  0  0  0
 24 25  1  1  0  0  0
 27 24  1  0  0  0  0
 27 26  1  0  0  0  0
 29 30  2  0  0  0  0
 29 32  1  0  0  0  0
 30 31  1  0  0  0  0
 31 33  2  0  0  0  0
 31 28  1  0  0  0  0
 32 34  1  1  0  0  0
 32 33  1  0  0  0  0
 34 35  1  0  0  0  0
 35 38  1  0  0  0  0
 36 34  2  0  0  0  0
 37 39  1  0  0  0  0
 38 37  1  0  0  0  0
 38 39  1  0  0  0  0
M  END
>  <MODEL>
5

>  <REMARK>
 VINA RESULT:      -7.9      2.263      8.121
  Name = 
  10 active torsions:
  status: ('A' for Active; 'I' for Inactive)
    1  A    between atoms: N_1  and  O_6
    2  A    between atoms: C_2  and  C_24
    3  A    between atoms: C_5  and  C_23
    4  A    between atoms: C_7  and  N_33
    5  A    between atoms: C_12  and  C_27
    6  A    between atoms: C_12  and  C_37
    7  A    between atoms: C_13  and  C_24
    8  A    between atoms: C_19  and  N_32
    9  A    between atoms: C_28  and  C_36
   10  A    between atoms: C_30  and  N_32
                            x       y       z     vdW  Elec       q    Type
                         _______ _______ _______ _____ _____    ______ ____

>  <TORSDO>
F 10

$$$$
=
 OpenBabel10232412083D

 39 43  0  0  1  0  0  0  0  0999 V2000
  188.7980  177.5540  141.4870 C   0  0  1  0  0  3  0  0  0  0  0  0
  189.6310  176.5140  139.4230 N   0  0  0  0  0  2  0  0  0  0  0  0
  188.0420  178.6720  140.7800 C   0  0  0  0  0  2  0  0  0  0  0  0
  190.0250  177.1330  140.6810 C   0  0  0  0  0  2  0  0  0  0  0  0
  189.4670  177.5890  138.4540 C   0  0  0  0  0  2  0  0  0  0  0  0
  187.9970  178.0020  138.3130 C   0  0  2  0  0  3  0  0  0  0  0  0
  187.2160  178.0950  139.6340 C   0  0  2  0  0  3  0  0  0  0  0  0
  186.6080  175.2180  136.3280 N   0  0  0  0  0  0  0  0  0  0  0  0
  187.4110  175.7940  137.3440 C   0  0  0  0  0  3  0  0  0  0  0  0
  186.3710  177.5980  136.2230 C   0  0  1  0  0  3  0  0  0  0  0  0
  185.9950  176.2860  135.6330 C   0  0  0  0  0  0  0  0  0  0  0  0
  185.2310  176.1290  134.6440 O   0  0  0  0  0  0  0  0  0  0  0  0
  187.2880  177.1200  137.3280 C   0  0  0  0  0  0  0  0  0  0  0  0
  187.1470  178.4110  135.2000 C   0  0  0  0  0  1  0  0  0  0  0  0
  186.7000  173.9390  135.8880 O   0  0  0  0  0  0  0  0  0  0  0  0
  186.3180  173.1510  136.9760 C   0  0  0  0  0  1  0  0  0  0  0  0
  189.2220  178.0390  142.8630 C   0  0  0  0  0  2  0  0  0  0  0  0
  191.6070  176.1070  144.2100 C   0  0  0  0  0  0  0  0  0  0  0  0
  192.0650  174.9500  144.4000 O   0  0  0  0  0  0  0  0  0  0  0  0
  190.7280  177.9200  143.0440 C   0  0  1  0  0  3  0  0  0  0  0  0
  191.1440  178.3990  144.4440 C   0  0  0  0  0  2  0  0  0  0  0  0
  191.5800  177.1700  145.2440 C   0  0  1  0  0  3  0  0  0  0  0  0
  191.1140  176.5240  142.9560 N   0  0  0  0  0  2  0  0  0  0  0  0
  190.5640  176.9100  146.3670 C   0  0  1  0  0  3  0  0  0  0  0  0
  191.1520  176.8850  147.6370 O   0  0  0  0  0  1  0  0  0  0  0  0
  188.5060  177.7700  147.5750 C   0  0  0  0  0  1  0  0  0  0  0  0
  189.3570  177.8440  146.3190 C   0  0  0  0  0  2  0  0  0  0  0  0
  186.0200  178.9000  139.4380 N   0  0  0  0  0  2  0  0  0  0  0  0
  182.6630  178.7870  140.7720 C   0  0  0  0  0  3  0  0  0  0  0  0
  183.5040  179.1640  139.8200 C   0  0  0  0  0  3  0  0  0  0  0  0
  184.8240  178.6870  140.1930 C   0  0  0  0  0  0  0  0  0  0  0  0
  183.3920  178.0270  141.8400 C   0  0  1  0  0  3  0  0  0  0  0  0
  184.8000  178.0400  141.3410 C   0  0  0  0  0  3  0  0  0  0  0  0
  183.2890  178.7210  143.1620 C   0  0  0  0  0  0  0  0  0  0  0  0
  184.2370  178.4130  144.1840 N   0  0  0  0  0  2  0  0  0  0  0  0
  182.3830  179.5760  143.3690 O   0  0  0  0  0  0  0  0  0  0  0  0
  184.8670  178.1500  146.5040 C   0  0  0  0  0  2  0  0  0  0  0  0
  184.1930  179.0500  145.4900 C   0  0  0  0  0  3  0  0  0  0  0  0
  185.6070  179.3460  145.9460 C   0  0  0  0  0  2  0  0  0  0  0  0
  1 17  1  1  0  0  0
  2  4  1  0  0  0  0
  3  1  1  0  0  0  0
  4  1  1  0  0  0  0
  5  2  1  0  0  0  0
  6 13  1  6  0  0  0
  6  5  1  0  0  0  0
  6  7  1  0  0  0  0
  7 28  1  6  0  0  0
  7  3  1  0  0  0  0
  8  9  1  0  0  0  0
 10 14  1  6  0  0  0
 10 13  1  0  0  0  0
 11 10  1  0  0  0  0
 11  8  1  0  0  0  0
 12 11  2  0  0  0  0
 13  9  2  0  0  0  0
 15  8  1  0  0  0  0
 15 16  1  0  0  0  0
 18 19  2  0  0  0  0
 18 22  1  0  0  0  0
 20 17  1  1  0  0  0
 20 21  1  0  0  0  0
 21 22  1  0  0  0  0
 22 24  1  1  0  0  0
 23 20  1  0  0  0  0
 23 18  1  0  0  0  0
 24 25  1  1  0  0  0
 27 24  1  0  0  0  0
 27 26  1  0  0  0  0
 28 31  1  0  0  0  0
 29 32  1  0  0  0  0
 30 31  1  0  0  0  0
 30 29  2  0  0  0  0
 31 33  2  0  0  0  0
 32 34  1  1  0  0  0
 33 32  1  0  0  0  0
 34 36  2  0  0  0  0
 34 35  1  0  0  0  0
 35 38  1  0  0  0  0
 38 39  1  0  0  0  0
 38 37  1  0  0  0  0
 39 37  1  0  0  0  0
M  END
>  <MODEL>
6

>  <REMARK>
 VINA RESULT:      -7.8      2.678      7.370
  Name = 
  10 active torsions:
  status: ('A' for Active; 'I' for Inactive)
    1  A    between atoms: N_1  and  O_6
    2  A    between atoms: C_2  and  C_24
    3  A    between atoms: C_5  and  C_23
    4  A    between atoms: C_7  and  N_33
    5  A    between atoms: C_12  and  C_27
    6  A    between atoms: C_12  and  C_37
    7  A    between atoms: C_13  and  C_24
    8  A    between atoms: C_19  and  N_32
    9  A    between atoms: C_28  and  C_36
   10  A    between atoms: C_30  and  N_32
                            x       y       z     vdW  Elec       q    Type
                         _______ _______ _______ _____ _____    ______ ____

>  <TORSDO>
F 10

$$$$
=
 OpenBabel10232412083D

 39 43  0  0  1  0  0  0  0  0999 V2000
  184.8410  179.0950  142.0290 C   0  0  1  0  0  3  0  0  0  0  0  0
  182.4480  178.7890  141.5640 N   0  0  0  0  0  2  0  0  0  0  0  0
  185.3080  178.5940  140.6690 C   0  0  0  0  0  2  0  0  0  0  0  0
  183.5430  178.4060  142.4450 C   0  0  0  0  0  2  0  0  0  0  0  0
  182.4740  177.8710  140.4320 C   0  0  0  0  0  2  0  0  0  0  0  0
  183.2000  178.4840  139.2280 C   0  0  2  0  0  3  0  0  0  0  0  0
  184.4880  179.2520  139.5640 C   0  0  2  0  0  3  0  0  0  0  0  0
  181.0720  181.1400  137.8000 N   0  0  0  0  0  0  0  0  0  0  0  0
  181.9420  180.5720  138.7640 C   0  0  0  0  0  3  0  0  0  0  0  0
  181.5820  178.8980  137.1340 C   0  0  1  0  0  3  0  0  0  0  0  0
  180.8290  180.1430  136.8270 C   0  0  0  0  0  0  0  0  0  0  0  0
  180.0700  180.3050  135.8360 O   0  0  0  0  0  0  0  0  0  0  0  0
  182.2640  179.3280  138.4140 C   0  0  0  0  0  0  0  0  0  0  0  0
  180.6040  177.7660  137.4030 C   0  0  0  0  0  1  0  0  0  0  0  0
  180.3430  182.2690  137.9730 O   0  0  0  0  0  0  0  0  0  0  0  0
  181.1090  183.2890  137.4030 C   0  0  0  0  0  1  0  0  0  0  0  0
  185.9270  178.8200  143.0550 C   0  0  0  0  0  2  0  0  0  0  0  0
  185.9990  178.8460  146.4070 C   0  0  0  0  0  0  0  0  0  0  0  0
  185.9780  179.5170  147.4720 O   0  0  0  0  0  0  0  0  0  0  0  0
  185.3530  178.1330  144.2860 C   0  0  1  0  0  3  0  0  0  0  0  0
  186.3570  177.1170  144.8560 C   0  0  0  0  0  2  0  0  0  0  0  0
  186.8810  177.6740  146.1800 C   0  0  1  0  0  3  0  0  0  0  0  0
  185.1330  179.1190  145.3280 N   0  0  0  0  0  2  0  0  0  0  0  0
  188.3640  178.0420  146.0240 C   0  0  1  0  0  3  0  0  0  0  0  0
  189.1060  177.8160  147.1890 O   0  0  0  0  0  1  0  0  0  0  0  0
  190.0790  178.2940  144.1730 C   0  0  0  0  0  1  0  0  0  0  0  0
  189.0200  177.4050  144.8000 C   0  0  0  0  0  2  0  0  0  0  0  0
  185.3010  179.3910  138.3640 N   0  0  0  0  0  2  0  0  0  0  0  0
  186.3140  176.2180  136.9610 C   0  0  0  0  0  3  0  0  0  0  0  0
  185.3770  176.9840  137.5010 C   0  0  0  0  0  3  0  0  0  0  0  0
  185.9740  178.2810  137.7670 C   0  0  0  0  0  0  0  0  0  0  0  0
  187.6000  176.9790  136.8370 C   0  0  1  0  0  3  0  0  0  0  0  0
  187.2420  178.3130  137.4070 C   0  0  0  0  0  3  0  0  0  0  0  0
  188.6880  176.3330  137.6360 C   0  0  0  0  0  0  0  0  0  0  0  0
  189.3840  177.1060  138.6140 N   0  0  0  0  0  2  0  0  0  0  0  0
  188.9810  175.1180  137.4570 O   0  0  0  0  0  0  0  0  0  0  0  0
  191.0910  177.6420  140.2420 C   0  0  0  0  0  2  0  0  0  0  0  0
  190.4520  176.5400  139.4230 C   0  0  0  0  0  3  0  0  0  0  0  0
  190.1010  176.6980  140.8880 C   0  0  0  0  0  2  0  0  0  0  0  0
  1  4  1  0  0  0  0
  1 17  1  1  0  0  0
  2  4  1  0  0  0  0
  3  1  1  0  0  0  0
  5  2  1  0  0  0  0
  6 13  1  1  0  0  0
  6  7  1  0  0  0  0
  6  5  1  0  0  0  0
  7 28  1  6  0  0  0
  7  3  1  0  0  0  0
  8 15  1  0  0  0  0
  8  9  1  0  0  0  0
 10 14  1  1  0  0  0
 10 13  1  0  0  0  0
 11 10  1  0  0  0  0
 11  8  1  0  0  0  0
 12 11  2  0  0  0  0
 13  9  2  0  0  0  0
 16 15  1  0  0  0  0
 18 19  2  0  0  0  0
 20 17  1  6  0  0  0
 20 21  1  0  0  0  0
 20 23  1  0  0  0  0
 21 22  1  0  0  0  0
 22 24  1  6  0  0  0
 22 18  1  0  0  0  0
 23 18  1  0  0  0  0
 24 25  1  1  0  0  0
 26 27  1  0  0  0  0
 27 24  1  0  0  0  0
 29 30  2  0  0  0  0
 30 31  1  0  0  0  0
 31 28  1  0  0  0  0
 32 29  1  0  0  0  0
 32 33  1  0  0  0  0
 32 34  1  1  0  0  0
 33 31  2  0  0  0  0
 34 35  1  0  0  0  0
 35 38  1  0  0  0  0
 36 34  2  0  0  0  0
 37 39  1  0  0  0  0
 38 37  1  0  0  0  0
 38 39  1  0  0  0  0
M  END
>  <MODEL>
7

>  <REMARK>
 VINA RESULT:      -7.8      2.532      8.873
  Name = 
  10 active torsions:
  status: ('A' for Active; 'I' for Inactive)
    1  A    between atoms: N_1  and  O_6
    2  A    between atoms: C_2  and  C_24
    3  A    between atoms: C_5  and  C_23
    4  A    between atoms: C_7  and  N_33
    5  A    between atoms: C_12  and  C_27
    6  A    between atoms: C_12  and  C_37
    7  A    between atoms: C_13  and  C_24
    8  A    between atoms: C_19  and  N_32
    9  A    between atoms: C_28  and  C_36
   10  A    between atoms: C_30  and  N_32
                            x       y       z     vdW  Elec       q    Type
                         _______ _______ _______ _____ _____    ______ ____

>  <TORSDO>
F 10

$$$$
=
 OpenBabel10232412083D

 39 43  0  0  1  0  0  0  0  0999 V2000
  189.3900  176.2630  142.6370 C   0  0  1  0  0  3  0  0  0  0  0  0
  190.5210  176.1950  140.4580 N   0  0  0  0  0  2  0  0  0  0  0  0
  188.6840  177.5890  142.3820 C   0  0  0  0  0  2  0  0  0  0  0  0
  190.7260  176.2080  141.9000 C   0  0  0  0  0  2  0  0  0  0  0  0
  190.4370  177.5850  140.0290 C   0  0  0  0  0  2  0  0  0  0  0  0
  188.9800  178.0420  139.8840 C   0  0  2  0  0  3  0  0  0  0  0  0
  188.0350  177.5730  141.0020 C   0  0  2  0  0  3  0  0  0  0  0  0
  187.8050  176.3700  136.8100 N   0  0  0  0  0  0  0  0  0  0  0  0
  188.3900  176.4200  138.1010 C   0  0  0  0  0  3  0  0  0  0  0  0
  187.8990  178.6570  137.5120 C   0  0  1  0  0  3  0  0  0  0  0  0
  187.5250  177.7040  136.4340 C   0  0  0  0  0  0  0  0  0  0  0  0
  187.0220  178.0260  135.3250 O   0  0  0  0  0  0  0  0  0  0  0  0
  188.4400  177.6800  138.5320 C   0  0  0  0  0  0  0  0  0  0  0  0
  189.0020  179.5770  137.0160 C   0  0  0  0  0  1  0  0  0  0  0  0
  187.8470  175.3050  135.9730 O   0  0  0  0  0  0  0  0  0  0  0  0
  189.0910  175.3840  135.3440 C   0  0  0  0  0  1  0  0  0  0  0  0
  189.6140  176.1050  144.1320 C   0  0  0  0  0  2  0  0  0  0  0  0
  191.2420  177.1260  146.8800 C   0  0  0  0  0  0  0  0  0  0  0  0
  191.9720  176.8310  147.8610 O   0  0  0  0  0  0  0  0  0  0  0  0
  190.5200  177.2040  144.6670 C   0  0  1  0  0  3  0  0  0  0  0  0
  189.7080  178.2260  145.4800 C   0  0  0  0  0  2  0  0  0  0  0  0
  190.0890  178.0580  146.9510 C   0  0  1  0  0  3  0  0  0  0  0  0
  191.4870  176.6280  145.5830 N   0  0  0  0  0  2  0  0  0  0  0  0
  188.8880  177.4920  147.7240 C   0  0  1  0  0  3  0  0  0  0  0  0
  188.7060  178.1050  148.9690 O   0  0  0  0  0  1  0  0  0  0  0  0
  186.5400  178.4120  147.4540 C   0  0  0  0  0  1  0  0  0  0  0  0
  187.5990  177.4700  146.9070 C   0  0  0  0  0  2  0  0  0  0  0  0
  186.8400  178.4040  141.0110 N   0  0  0  0  0  0  0  0  0  0  0  0
  185.1340  178.0880  144.1810 C   0  0  0  0  0  3  0  0  0  0  0  0
  186.0690  177.6750  143.3390 C   0  0  0  0  0  3  0  0  0  0  0  0
  186.0060  178.5280  142.1650 C   0  0  0  0  0  0  0  0  0  0  0  0
  184.3910  179.2560  143.6020 C   0  0  1  0  0  3  0  0  0  0  0  0
  185.0580  179.4370  142.2770 C   0  0  0  0  0  2  0  0  0  0  0  0
  182.9380  178.9400  143.4290 C   0  0  0  0  0  0  0  0  0  0  0  0
  182.4060  178.8190  142.1100 N   0  0  0  0  0  2  0  0  0  0  0  0
  182.1950  178.7710  144.4350 O   0  0  0  0  0  0  0  0  0  0  0  0
  180.2300  179.8110  141.7490 C   0  0  0  0  0  2  0  0  0  0  0  0
  181.0050  178.5160  141.8720 C   0  0  0  0  0  3  0  0  0  0  0  0
  180.6100  179.0380  140.5060 C   0  0  0  0  0  2  0  0  0  0  0  0
  1 17  1  1  0  0  0
  2  4  1  0  0  0  0
  3  1  1  0  0  0  0
  4  1  1  0  0  0  0
  5  2  1  0  0  0  0
  6 13  1  6  0  0  0
  6  5  1  0  0  0  0
  6  7  1  0  0  0  0
  7 28  1  1  0  0  0
  7  3  1  0  0  0  0
  8  9  1  0  0  0  0
  9 13  2  0  0  0  0
 10 14  1  6  0  0  0
 10 13  1  0  0  0  0
 11  8  1  0  0  0  0
 11 10  1  0  0  0  0
 12 11  2  0  0  0  0
 15  8  1  0  0  0  0
 16 15  1  0  0  0  0
 18 22  1  0  0  0  0
 18 19  2  0  0  0  0
 20 17  1  1  0  0  0
 20 21  1  0  0  0  0
 20 23  1  0  0  0  0
 21 22  1  0  0  0  0
 22 24  1  1  0  0  0
 23 18  1  0  0  0  0
 24 25  1  1  0  0  0
 27 26  1  0  0  0  0
 27 24  1  0  0  0  0
 28 31  2  0  0  0  0
 30 29  2  0  0  0  0
 31 33  1  0  0  0  0
 31 30  1  0  0  0  0
 32 34  1  6  0  0  0
 32 29  1  0  0  0  0
 33 32  1  0  0  0  0
 34 36  2  0  0  0  0
 35 34  1  0  0  0  0
 37 38  1  0  0  0  0
 38 35  1  0  0  0  0
 39 37  1  0  0  0  0
 39 38  1  0  0  0  0
M  END
>  <MODEL>
8

>  <REMARK>
 VINA RESULT:      -7.8      2.192      7.541
  Name = 
  10 active torsions:
  status: ('A' for Active; 'I' for Inactive)
    1  A    between atoms: N_1  and  O_6
    2  A    between atoms: C_2  and  C_24
    3  A    between atoms: C_5  and  C_23
    4  A    between atoms: C_7  and  N_33
    5  A    between atoms: C_12  and  C_27
    6  A    between atoms: C_12  and  C_37
    7  A    between atoms: C_13  and  C_24
    8  A    between atoms: C_19  and  N_32
    9  A    between atoms: C_28  and  C_36
   10  A    between atoms: C_30  and  N_32
                            x       y       z     vdW  Elec       q    Type
                         _______ _______ _______ _____ _____    ______ ____

>  <TORSDO>
F 10

$$$$
=
 OpenBabel10232412083D

 39 43  0  0  1  0  0  0  0  0999 V2000
  187.8900  177.9740  139.6150 C   0  0  1  0  0  3  0  0  0  0  0  0
  186.1240  177.2250  138.0810 N   0  0  0  0  0  2  0  0  0  0  0  0
  187.1060  179.1650  140.1520 C   0  0  0  0  0  2  0  0  0  0  0  0
  187.5050  177.6790  138.1670 C   0  0  0  0  0  2  0  0  0  0  0  0
  185.2920  178.4160  137.9710 C   0  0  0  0  0  2  0  0  0  0  0  0
  184.7100  178.8230  139.3300 C   0  0  2  0  0  3  0  0  0  0  0  0
  185.6880  178.7320  140.5120 C   0  0  2  0  0  3  0  0  0  0  0  0
  182.0090  176.3320  139.6800 N   0  0  0  0  0  0  0  0  0  0  0  0
  183.2780  176.7980  139.2530 C   0  0  0  0  0  3  0  0  0  0  0  0
  182.2330  178.6260  140.3290 C   0  0  1  0  0  3  0  0  0  0  0  0
  181.3600  177.4220  140.3060 C   0  0  0  0  0  0  0  0  0  0  0  0
  180.1950  177.3630  140.7800 O   0  0  0  0  0  0  0  0  0  0  0  0
  183.4450  178.0690  139.6160 C   0  0  0  0  0  0  0  0  0  0  0  0
  181.5920  179.7320  139.5060 C   0  0  0  0  0  1  0  0  0  0  0  0
  181.4070  175.1960  139.2510 O   0  0  0  0  0  0  0  0  0  0  0  0
  181.1230  175.4210  137.9020 C   0  0  0  0  0  1  0  0  0  0  0  0
  189.3760  178.2810  139.7060 C   0  0  0  0  0  2  0  0  0  0  0  0
  189.9520  176.1610  142.2380 C   0  0  0  0  0  0  0  0  0  0  0  0
  189.4840  175.4590  143.1730 O   0  0  0  0  0  0  0  0  0  0  0  0
  190.1660  177.0390  140.0920 C   0  0  1  0  0  3  0  0  0  0  0  0
  191.4150  177.4240  140.9020 C   0  0  0  0  0  2  0  0  0  0  0  0
  191.1920  176.9680  142.3450 C   0  0  1  0  0  3  0  0  0  0  0  0
  189.3560  176.2040  140.9600 N   0  0  0  0  0  2  0  0  0  0  0  0
  191.0470  178.2010  143.2490 C   0  0  1  0  0  3  0  0  0  0  0  0
  189.7140  178.4870  143.5680 O   0  0  0  0  0  1  0  0  0  0  0  0
  191.6060  176.9660  145.3920 C   0  0  0  0  0  1  0  0  0  0  0  0
  191.9300  178.1470  144.4930 C   0  0  0  0  0  2  0  0  0  0  0  0
  185.1940  179.5400  141.6180 N   0  0  0  0  0  2  0  0  0  0  0  0
  183.8830  178.4940  144.8190 C   0  0  0  0  0  3  0  0  0  0  0  0
  183.7140  179.1130  143.6600 C   0  0  0  0  0  3  0  0  0  0  0  0
  184.9560  178.9920  142.9160 C   0  0  0  0  0  0  0  0  0  0  0  0
  185.2660  177.9210  144.9050 C   0  0  1  0  0  3  0  0  0  0  0  0
  185.8660  178.3240  143.5970 C   0  0  0  0  0  3  0  0  0  0  0  0
  186.0280  178.5190  146.0470 C   0  0  0  0  0  0  0  0  0  0  0  0
  187.2350  177.8920  146.4810 N   0  0  0  0  0  2  0  0  0  0  0  0
  185.6160  179.5690  146.6120 O   0  0  0  0  0  0  0  0  0  0  0  0
  187.9590  177.4510  148.7470 C   0  0  0  0  0  2  0  0  0  0  0  0
  188.0210  178.4190  147.5840 C   0  0  0  0  0  3  0  0  0  0  0  0
  189.1820  177.4840  147.8570 C   0  0  0  0  0  2  0  0  0  0  0  0
  1 17  1  6  0  0  0
  1  3  1  0  0  0  0
  2  4  1  0  0  0  0
  3  7  1  0  0  0  0
  4  1  1  0  0  0  0
  5  2  1  0  0  0  0
  5  6  1  0  0  0  0
  6 13  1  1  0  0  0
  6  7  1  0  0  0  0
  7 28  1  1  0  0  0
  8 11  1  0  0  0  0
  9 13  2  0  0  0  0
  9  8  1  0  0  0  0
 10 14  1  6  0  0  0
 11 10  1  0  0  0  0
 11 12  2  0  0  0  0
 13 10  1  0  0  0  0
 15  8  1  0  0  0  0
 16 15  1  0  0  0  0
 18 22  1  0  0  0  0
 18 19  2  0  0  0  0
 20 17  1  1  0  0  0
 20 21  1  0  0  0  0
 20 23  1  0  0  0  0
 21 22  1  0  0  0  0
 22 24  1  1  0  0  0
 23 18  1  0  0  0  0
 24 25  1  1  0  0  0
 24 27  1  0  0  0  0
 27 26  1  0  0  0  0
 28 31  1  0  0  0  0
 29 32  1  0  0  0  0
 30 29  2  0  0  0  0
 31 33  2  0  0  0  0
 31 30  1  0  0  0  0
 32 34  1  1  0  0  0
 33 32  1  0  0  0  0
 34 35  1  0  0  0  0
 34 36  2  0  0  0  0
 35 38  1  0  0  0  0
 38 39  1  0  0  0  0
 38 37  1  0  0  0  0
 39 37  1  0  0  0  0
M  END
>  <MODEL>
9

>  <REMARK>
 VINA RESULT:      -7.7      2.697      6.926
  Name = 
  10 active torsions:
  status: ('A' for Active; 'I' for Inactive)
    1  A    between atoms: N_1  and  O_6
    2  A    between atoms: C_2  and  C_24
    3  A    between atoms: C_5  and  C_23
    4  A    between atoms: C_7  and  N_33
    5  A    between atoms: C_12  and  C_27
    6  A    between atoms: C_12  and  C_37
    7  A    between atoms: C_13  and  C_24
    8  A    between atoms: C_19  and  N_32
    9  A    between atoms: C_28  and  C_36
   10  A    between atoms: C_30  and  N_32
                            x       y       z     vdW  Elec       q    Type
                         _______ _______ _______ _____ _____    ______ ____

>  <TORSDO>
F 10

$$$$
