=
 OpenBabel10232409053D

 28 30  0  0  1  0  0  0  0  0999 V2000
  187.2780  177.7700  142.5410 C   0  0  2  0  0  3  0  0  0  0  0  0
  185.2210  179.0110  143.5340 C   0  0  0  0  0  0  0  0  0  0  0  0
  185.8730  178.3110  142.3920 C   0  0  0  0  0  0  0  0  0  0  0  0
  186.7620  177.7110  145.0170 C   0  0  0  0  0  2  0  0  0  0  0  0
  185.2480  178.0760  141.2280 C   0  0  0  0  0  3  0  0  0  0  0  0
  185.7670  178.8640  144.9300 C   0  0  2  0  0  3  0  0  0  0  0  0
  184.2570  179.7990  143.3350 O   0  0  0  0  0  0  0  0  0  0  0  0
  187.8460  177.8920  143.9640 C   0  0  1  0  0  3  0  0  0  0  0  0
  184.6570  178.6470  145.9100 C   0  0  0  0  0  3  0  0  0  0  0  0
  184.8850  178.0560  147.0820 C   0  0  0  0  0  2  0  0  0  0  0  0
  183.0080  177.2180  140.6220 C   0  0  0  0  0  1  0  0  0  0  0  0
  183.8370  178.4590  140.9050 C   0  0  2  0  0  3  0  0  0  0  0  0
  182.6100  179.6860  139.1010 O   0  0  0  0  0  0  0  0  0  0  0  0
  184.8880  179.8510  139.2870 O   0  0  0  0  0  1  0  0  0  0  0  0
  183.8120  179.3680  139.7240 C   0  0  0  0  0  0  0  0  0  0  0  0
  188.2110  178.4700  141.5570 C   0  0  0  0  0  2  0  0  0  0  0  0
  190.3640  176.0350  139.6810 O   0  0  0  0  0  1  0  0  0  0  0  0
  189.4640  178.2890  139.4110 C   0  0  0  0  0  2  0  0  0  0  0  0
  188.5370  177.5560  140.3840 C   0  0  1  0  0  3  0  0  0  0  0  0
  190.8620  177.6850  141.3300 O   0  0  0  0  0  1  0  0  0  0  0  0
  190.0140  177.2220  140.3200 C   0  0  0  0  0  0  0  0  0  0  0  0
  188.8870  176.8970  144.1680 N   0  0  0  0  0  2  0  0  0  0  0  0
  190.9110  178.0110  144.4650 O   0  0  0  0  0  0  0  0  0  0  0  0
  191.1110  176.7440  145.0400 C   0  0  2  0  0  3  0  0  0  0  0  0
  189.8150  177.4470  145.1410 C   0  0  2  0  0  3  0  0  0  0  0  0
  192.2120  175.7420  147.0350 C   0  0  0  0  0  3  0  0  0  0  0  0
  191.8440  176.8930  146.2820 N   0  0  0  0  0  2  0  0  0  0  0  0
  192.8450  175.8730  148.1130 O   0  0  0  0  0  0  0  0  0  0  0  0
  1 16  1  6  0  0  0
  1  8  1  0  0  0  0
  2  6  1  0  0  0  0
  3  1  1  0  0  0  0
  3  2  1  0  0  0  0
  5  3  2  0  0  0  0
  6  4  1  0  0  0  0
  6  9  1  1  0  0  0
  7  2  2  0  0  0  0
  8 22  1  1  0  0  0
  8  4  1  0  0  0  0
  9 10  2  0  0  0  0
 12 11  1  6  0  0  0
 12  5  1  0  0  0  0
 13 15  2  0  0  0  0
 14 15  1  0  0  0  0
 15 12  1  0  0  0  0
 17 21  1  0  0  0  0
 18 21  1  0  0  0  0
 18 19  1  0  0  0  0
 19 16  1  1  0  0  0
 21 19  1  0  0  0  0
 21 20  1  0  0  0  0
 23 24  1  0  0  0  0
 23 25  1  0  0  0  0
 24 25  1  0  0  0  0
 24 27  1  1  0  0  0
 25 22  1  6  0  0  0
 26 28  2  0  0  0  0
 27 26  1  0  0  0  0
M  END
>  <MODEL>
1

>  <REMARK>
 VINA RESULT:      -7.9      0.000      0.000
  Name = 
  8 active torsions:
  status: ('A' for Active; 'I' for Inactive)
    1  A    between atoms: C_1  and  C_19
    2  A    between atoms: C_2  and  C_3
    3  A    between atoms: C_2  and  C_17
    4  A    between atoms: C_11  and  N_24
    5  A    between atoms: C_14  and  C_16
    6  A    between atoms: C_16  and  C_20
    7  A    between atoms: N_22  and  C_26
    8  A    between atoms: N_22  and  C_27
                            x       y       z     vdW  Elec       q    Type
                         _______ _______ _______ _____ _____    ______ ____

>  <TORSDO>
F 8

$$$$
=
 OpenBabel10232409053D

 28 30  0  0  1  0  0  0  0  0999 V2000
  188.3670  177.2690  144.6300 C   0  0  2  0  0  3  0  0  0  0  0  0
  190.6780  177.4820  143.4580 C   0  0  0  0  0  0  0  0  0  0  0  0
  189.8690  177.0920  144.6470 C   0  0  0  0  0  0  0  0  0  0  0  0
  188.5980  177.1290  142.1140 C   0  0  0  0  0  2  0  0  0  0  0  0
  190.4050  176.5260  145.7400 C   0  0  0  0  0  3  0  0  0  0  0  0
  190.0160  177.6880  142.1210 C   0  0  2  0  0  3  0  0  0  0  0  0
  191.9100  177.7250  143.5740 O   0  0  0  0  0  0  0  0  0  0  0  0
  187.8080  177.7240  143.2710 C   0  0  1  0  0  3  0  0  0  0  0  0
  190.8170  177.0440  141.0320 C   0  0  0  0  0  3  0  0  0  0  0  0
  190.2760  176.7990  139.8400 C   0  0  0  0  0  2  0  0  0  0  0  0
  192.1480  174.8030  145.4010 C   0  0  0  0  0  1  0  0  0  0  0  0
  191.8530  176.1960  145.9280 C   0  0  2  0  0  3  0  0  0  0  0  0
  193.1280  175.3940  147.9270 O   0  0  0  0  0  0  0  0  0  0  0  0
  191.6820  177.1630  148.0960 O   0  0  0  0  0  1  0  0  0  0  0  0
  192.2130  176.2810  147.3720 C   0  0  0  0  0  0  0  0  0  0  0  0
  187.9470  178.2570  145.7130 C   0  0  0  0  0  2  0  0  0  0  0  0
  184.4280  178.0890  147.0080 O   0  0  0  0  0  1  0  0  0  0  0  0
  186.6840  178.5060  147.8450 C   0  0  0  0  0  2  0  0  0  0  0  0
  186.8330  177.6740  146.5700 C   0  0  1  0  0  3  0  0  0  0  0  0
  185.7080  179.8610  146.0530 O   0  0  0  0  0  1  0  0  0  0  0  0
  185.6780  178.6410  146.7330 C   0  0  0  0  0  0  0  0  0  0  0  0
  186.4130  177.3340  143.1550 N   0  0  0  0  0  2  0  0  0  0  0  0
  184.2980  178.2280  142.7620 O   0  0  0  0  0  0  0  0  0  0  0  0
  184.9260  178.2270  141.5040 C   0  0  2  0  0  3  0  0  0  0  0  0
  185.6740  178.5160  142.7450 C   0  0  2  0  0  3  0  0  0  0  0  0
  184.2320  179.4470  139.4490 C   0  0  0  0  0  3  0  0  0  0  0  0
  184.6240  179.4670  140.8170 N   0  0  0  0  0  2  0  0  0  0  0  0
  183.9730  180.5240  138.8540 O   0  0  0  0  0  0  0  0  0  0  0  0
  1  3  1  0  0  0  0
  1 16  1  1  0  0  0
  2  7  2  0  0  0  0
  2  3  1  0  0  0  0
  3  5  2  0  0  0  0
  4  6  1  0  0  0  0
  4  8  1  0  0  0  0
  5 12  1  0  0  0  0
  6  9  1  6  0  0  0
  6  2  1  0  0  0  0
  8 22  1  6  0  0  0
  8  1  1  0  0  0  0
 10  9  2  0  0  0  0
 12 11  1  1  0  0  0
 12 15  1  0  0  0  0
 15 13  2  0  0  0  0
 15 14  1  0  0  0  0
 19 16  1  6  0  0  0
 19 21  1  0  0  0  0
 19 18  1  0  0  0  0
 20 21  1  0  0  0  0
 21 17  1  0  0  0  0
 21 18  1  0  0  0  0
 24 27  1  6  0  0  0
 24 25  1  0  0  0  0
 24 23  1  0  0  0  0
 25 23  1  0  0  0  0
 25 22  1  1  0  0  0
 26 27  1  0  0  0  0
 28 26  2  0  0  0  0
M  END
>  <MODEL>
2

>  <REMARK>
 VINA RESULT:      -7.8      1.997      8.303
  Name = 
  8 active torsions:
  status: ('A' for Active; 'I' for Inactive)
    1  A    between atoms: C_1  and  C_19
    2  A    between atoms: C_2  and  C_3
    3  A    between atoms: C_2  and  C_17
    4  A    between atoms: C_11  and  N_24
    5  A    between atoms: C_14  and  C_16
    6  A    between atoms: C_16  and  C_20
    7  A    between atoms: N_22  and  C_26
    8  A    between atoms: N_22  and  C_27
                            x       y       z     vdW  Elec       q    Type
                         _______ _______ _______ _____ _____    ______ ____

>  <TORSDO>
F 8

$$$$
=
 OpenBabel10232409053D

 28 30  0  0  1  0  0  0  0  0999 V2000
  187.4960  178.4930  141.3850 C   0  0  2  0  0  3  0  0  0  0  0  0
  187.3430  177.5410  143.8000 C   0  0  0  0  0  0  0  0  0  0  0  0
  188.1690  178.0100  142.6520 C   0  0  0  0  0  0  0  0  0  0  0  0
  185.5150  178.9810  142.8810 C   0  0  0  0  0  2  0  0  0  0  0  0
  189.5070  178.0850  142.6990 C   0  0  0  0  0  3  0  0  0  0  0  0
  185.8790  177.8830  143.8760 C   0  0  2  0  0  3  0  0  0  0  0  0
  187.8390  176.7830  144.6770 O   0  0  0  0  0  0  0  0  0  0  0  0
  185.9640  178.5740  141.4850 C   0  0  1  0  0  3  0  0  0  0  0  0
  185.5100  178.3160  145.2610 C   0  0  0  0  0  3  0  0  0  0  0  0
  184.3210  178.8610  145.5130 C   0  0  0  0  0  2  0  0  0  0  0  0
  191.4880  178.7330  144.0330 C   0  0  0  0  0  1  0  0  0  0  0  0
  190.3580  177.7300  143.8780 C   0  0  2  0  0  3  0  0  0  0  0  0
  190.4470  175.5210  142.7050 O   0  0  0  0  0  0  0  0  0  0  0  0
  191.8170  175.9520  144.4900 O   0  0  0  0  0  1  0  0  0  0  0  0
  190.9150  176.3570  143.7120 C   0  0  0  0  0  0  0  0  0  0  0  0
  187.8850  177.5940  140.2160 C   0  0  0  0  0  2  0  0  0  0  0  0
  189.0270  179.7090  137.3340 O   0  0  0  0  0  1  0  0  0  0  0  0
  189.2100  177.4030  138.1150 C   0  0  0  0  0  2  0  0  0  0  0  0
  188.9390  178.2670  139.3490 C   0  0  1  0  0  3  0  0  0  0  0  0
  187.0340  178.4560  137.7190 O   0  0  0  0  0  1  0  0  0  0  0  0
  188.3900  178.6590  137.9910 C   0  0  0  0  0  0  0  0  0  0  0  0
  185.4560  179.5330  140.5170 N   0  0  0  0  0  2  0  0  0  0  0  0
  183.9920  178.3520  139.1420 O   0  0  0  0  0  0  0  0  0  0  0  0
  183.6590  179.7030  138.9440 C   0  0  2  0  0  3  0  0  0  0  0  0
  184.0660  179.1900  140.2680 C   0  0  2  0  0  3  0  0  0  0  0  0
  181.6290  181.0800  138.5270 C   0  0  0  0  0  3  0  0  0  0  0  0
  182.2160  179.8380  138.8960 N   0  0  0  0  0  2  0  0  0  0  0  0
  180.3770  181.1960  138.4880 O   0  0  0  0  0  0  0  0  0  0  0  0
  1 16  1  6  0  0  0
  1  8  1  0  0  0  0
  1  3  1  0  0  0  0
  2  6  1  0  0  0  0
  2  7  2  0  0  0  0
  3  5  2  0  0  0  0
  3  2  1  0  0  0  0
  4  6  1  0  0  0  0
  5 12  1  0  0  0  0
  6  9  1  1  0  0  0
  8 22  1  6  0  0  0
  8  4  1  0  0  0  0
  9 10  2  0  0  0  0
 12 11  1  6  0  0  0
 13 15  2  0  0  0  0
 15 12  1  0  0  0  0
 15 14  1  0  0  0  0
 17 21  1  0  0  0  0
 18 19  1  0  0  0  0
 19 16  1  1  0  0  0
 20 21  1  0  0  0  0
 21 18  1  0  0  0  0
 21 19  1  0  0  0  0
 23 25  1  0  0  0  0
 24 27  1  1  0  0  0
 24 23  1  0  0  0  0
 24 25  1  0  0  0  0
 25 22  1  6  0  0  0
 26 27  1  0  0  0  0
 28 26  2  0  0  0  0
M  END
>  <MODEL>
3

>  <REMARK>
 VINA RESULT:      -7.6      2.755      7.218
  Name = 
  8 active torsions:
  status: ('A' for Active; 'I' for Inactive)
    1  A    between atoms: C_1  and  C_19
    2  A    between atoms: C_2  and  C_3
    3  A    between atoms: C_2  and  C_17
    4  A    between atoms: C_11  and  N_24
    5  A    between atoms: C_14  and  C_16
    6  A    between atoms: C_16  and  C_20
    7  A    between atoms: N_22  and  C_26
    8  A    between atoms: N_22  and  C_27
                            x       y       z     vdW  Elec       q    Type
                         _______ _______ _______ _____ _____    ______ ____

>  <TORSDO>
F 8

$$$$
=
 OpenBabel10232409053D

 28 30  0  0  1  0  0  0  0  0999 V2000
  188.9630  177.2920  140.9370 C   0  0  2  0  0  3  0  0  0  0  0  0
  189.6320  178.0700  143.3260 C   0  0  0  0  0  0  0  0  0  0  0  0
  188.5750  177.7250  142.3340 C   0  0  0  0  0  0  0  0  0  0  0  0
  191.1540  176.5950  141.9950 C   0  0  0  0  0  2  0  0  0  0  0  0
  187.2670  177.7220  142.6330 C   0  0  0  0  0  3  0  0  0  0  0  0
  191.0580  177.6420  143.1000 C   0  0  2  0  0  3  0  0  0  0  0  0
  189.3620  178.7930  144.3230 O   0  0  0  0  0  0  0  0  0  0  0  0
  190.4780  177.1190  140.7360 C   0  0  1  0  0  3  0  0  0  0  0  0
  191.6510  177.0970  144.3620 C   0  0  0  0  0  3  0  0  0  0  0  0
  191.7650  175.7840  144.5530 C   0  0  0  0  0  2  0  0  0  0  0  0
  186.8060  176.8490  144.9020 C   0  0  0  0  0  1  0  0  0  0  0  0
  186.6800  178.0430  143.9720 C   0  0  2  0  0  3  0  0  0  0  0  0
  184.5440  178.0950  142.6690 O   0  0  0  0  0  0  0  0  0  0  0  0
  184.6670  179.0480  144.7490 O   0  0  0  0  0  1  0  0  0  0  0  0
  185.2460  178.4230  143.8230 C   0  0  0  0  0  0  0  0  0  0  0  0
  188.4230  178.2880  139.9160 C   0  0  0  0  0  2  0  0  0  0  0  0
  188.4520  177.7460  136.2020 O   0  0  0  0  0  1  0  0  0  0  0  0
  186.8740  178.3480  137.9650 C   0  0  0  0  0  2  0  0  0  0  0  0
  188.0120  177.5740  138.6360 C   0  0  1  0  0  3  0  0  0  0  0  0
  188.9000  179.6610  137.5520 O   0  0  0  0  0  1  0  0  0  0  0  0
  188.2700  178.4220  137.4060 C   0  0  0  0  0  0  0  0  0  0  0  0
  190.7290  176.2020  139.6360 N   0  0  0  0  0  2  0  0  0  0  0  0
  191.3540  176.5560  137.4200 O   0  0  0  0  0  0  0  0  0  0  0  0
  192.4140  175.8210  137.9780 C   0  0  2  0  0  3  0  0  0  0  0  0
  191.6870  176.8460  138.7550 C   0  0  2  0  0  3  0  0  0  0  0  0
  194.2830  175.8420  136.3360 C   0  0  0  0  0  3  0  0  0  0  0  0
  193.6730  176.3650  137.5100 N   0  0  0  0  0  2  0  0  0  0  0  0
  195.3770  176.3140  135.9320 O   0  0  0  0  0  0  0  0  0  0  0  0
  1 16  1  6  0  0  0
  1  3  1  0  0  0  0
  2  7  2  0  0  0  0
  3  5  2  0  0  0  0
  3  2  1  0  0  0  0
  4  6  1  0  0  0  0
  5 12  1  0  0  0  0
  6  2  1  0  0  0  0
  6  9  1  1  0  0  0
  8 22  1  6  0  0  0
  8  1  1  0  0  0  0
  8  4  1  0  0  0  0
  9 10  2  0  0  0  0
 12 11  1  1  0  0  0
 13 15  2  0  0  0  0
 15 12  1  0  0  0  0
 15 14  1  0  0  0  0
 17 21  1  0  0  0  0
 18 19  1  0  0  0  0
 19 16  1  1  0  0  0
 21 20  1  0  0  0  0
 21 18  1  0  0  0  0
 21 19  1  0  0  0  0
 23 24  1  0  0  0  0
 23 25  1  0  0  0  0
 24 27  1  6  0  0  0
 24 25  1  0  0  0  0
 25 22  1  1  0  0  0
 26 27  1  0  0  0  0
 28 26  2  0  0  0  0
M  END
>  <MODEL>
4

>  <REMARK>
 VINA RESULT:      -6.7      3.147      5.907
  Name = 
  8 active torsions:
  status: ('A' for Active; 'I' for Inactive)
    1  A    between atoms: C_1  and  C_19
    2  A    between atoms: C_2  and  C_3
    3  A    between atoms: C_2  and  C_17
    4  A    between atoms: C_11  and  N_24
    5  A    between atoms: C_14  and  C_16
    6  A    between atoms: C_16  and  C_20
    7  A    between atoms: N_22  and  C_26
    8  A    between atoms: N_22  and  C_27
                            x       y       z     vdW  Elec       q    Type
                         _______ _______ _______ _____ _____    ______ ____

>  <TORSDO>
F 8

$$$$
=
 OpenBabel10232409053D

 28 30  0  0  1  0  0  0  0  0999 V2000
  189.2660  177.7600  141.1030 C   0  0  2  0  0  3  0  0  0  0  0  0
  189.7670  176.6030  138.8280 C   0  0  0  0  0  0  0  0  0  0  0  0
  188.8850  177.4600  139.6690 C   0  0  0  0  0  0  0  0  0  0  0  0
  191.6350  177.2990  140.3410 C   0  0  0  0  0  2  0  0  0  0  0  0
  187.7730  178.0440  139.1980 C   0  0  0  0  0  3  0  0  0  0  0  0
  191.1920  176.3410  139.2400 C   0  0  2  0  0  3  0  0  0  0  0  0
  189.3090  176.0190  137.8090 O   0  0  0  0  0  0  0  0  0  0  0  0
  190.6530  177.2300  141.5020 C   0  0  1  0  0  3  0  0  0  0  0  0
  192.1110  176.4660  138.0650 C   0  0  0  0  0  3  0  0  0  0  0  0
  193.3340  175.9380  138.0930 C   0  0  0  0  0  2  0  0  0  0  0  0
  187.9060  179.0000  136.9200 C   0  0  0  0  0  1  0  0  0  0  0  0
  187.2620  177.9390  137.7950 C   0  0  2  0  0  3  0  0  0  0  0  0
  184.9920  177.3010  136.9540 O   0  0  0  0  0  0  0  0  0  0  0  0
  185.2360  178.9600  138.5150 O   0  0  0  0  0  1  0  0  0  0  0  0
  185.7790  178.0970  137.7780 C   0  0  0  0  0  0  0  0  0  0  0  0
  188.2110  177.1950  142.0490 C   0  0  0  0  0  2  0  0  0  0  0  0
  186.6130  178.7650  145.0600 O   0  0  0  0  0  1  0  0  0  0  0  0
  185.9940  178.0330  142.8140 C   0  0  0  0  0  2  0  0  0  0  0  0
  187.4970  178.3180  142.7870 C   0  0  1  0  0  3  0  0  0  0  0  0
  186.9880  176.4930  144.4380 O   0  0  0  0  0  1  0  0  0  0  0  0
  186.8240  177.8250  144.0530 C   0  0  0  0  0  0  0  0  0  0  0  0
  191.1740  178.0020  142.6200 N   0  0  0  0  0  2  0  0  0  0  0  0
  190.4910  176.4740  144.2410 O   0  0  0  0  0  0  0  0  0  0  0  0
  191.1510  177.4870  144.9580 C   0  0  2  0  0  3  0  0  0  0  0  0
  191.6150  177.0500  143.6240 C   0  0  2  0  0  3  0  0  0  0  0  0
  191.4070  176.5010  147.2280 C   0  0  0  0  0  3  0  0  0  0  0  0
  191.9800  176.8840  145.9830 N   0  0  0  0  0  2  0  0  0  0  0  0
  192.1270  175.9800  148.1180 O   0  0  0  0  0  0  0  0  0  0  0  0
  1  8  1  0  0  0  0
  1 16  1  1  0  0  0
  2  6  1  0  0  0  0
  2  3  1  0  0  0  0
  3  1  1  0  0  0  0
  4  8  1  0  0  0  0
  5  3  2  0  0  0  0
  6  9  1  6  0  0  0
  6  4  1  0  0  0  0
  7  2  2  0  0  0  0
  8 22  1  1  0  0  0
  9 10  2  0  0  0  0
 12 11  1  6  0  0  0
 12  5  1  0  0  0  0
 13 15  2  0  0  0  0
 15 12  1  0  0  0  0
 15 14  1  0  0  0  0
 18 21  1  0  0  0  0
 19 16  1  6  0  0  0
 19 18  1  0  0  0  0
 19 21  1  0  0  0  0
 21 20  1  0  0  0  0
 21 17  1  0  0  0  0
 23 24  1  0  0  0  0
 24 27  1  1  0  0  0
 25 22  1  6  0  0  0
 25 23  1  0  0  0  0
 25 24  1  0  0  0  0
 26 28  2  0  0  0  0
 27 26  1  0  0  0  0
M  END
>  <MODEL>
5

>  <REMARK>
 VINA RESULT:      -6.6      2.178      5.353
  Name = 
  8 active torsions:
  status: ('A' for Active; 'I' for Inactive)
    1  A    between atoms: C_1  and  C_19
    2  A    between atoms: C_2  and  C_3
    3  A    between atoms: C_2  and  C_17
    4  A    between atoms: C_11  and  N_24
    5  A    between atoms: C_14  and  C_16
    6  A    between atoms: C_16  and  C_20
    7  A    between atoms: N_22  and  C_26
    8  A    between atoms: N_22  and  C_27
                            x       y       z     vdW  Elec       q    Type
                         _______ _______ _______ _____ _____    ______ ____

>  <TORSDO>
F 8

$$$$
=
 OpenBabel10232409053D

 28 30  0  0  1  0  0  0  0  0999 V2000
  187.8390  177.9970  143.2310 C   0  0  2  0  0  3  0  0  0  0  0  0
  185.5570  178.0390  144.4770 C   0  0  0  0  0  0  0  0  0  0  0  0
  187.0440  177.9540  144.5180 C   0  0  0  0  0  0  0  0  0  0  0  0
  185.8330  179.2190  142.2880 C   0  0  0  0  0  2  0  0  0  0  0  0
  187.7400  177.8970  145.6630 C   0  0  0  0  0  3  0  0  0  0  0  0
  184.8560  178.5400  143.2420 C   0  0  2  0  0  3  0  0  0  0  0  0
  184.8660  177.6150  145.4420 O   0  0  0  0  0  0  0  0  0  0  0  0
  186.9860  178.2740  141.9810 C   0  0  1  0  0  3  0  0  0  0  0  0
  183.7630  179.4960  143.6080 C   0  0  0  0  0  3  0  0  0  0  0  0
  182.4830  179.1520  143.4800 C   0  0  0  0  0  2  0  0  0  0  0  0
  186.6850  179.3220  147.3890 C   0  0  0  0  0  1  0  0  0  0  0  0
  187.1540  177.9200  147.0400 C   0  0  2  0  0  3  0  0  0  0  0  0
  188.2310  178.0390  149.2970 O   0  0  0  0  0  1  0  0  0  0  0  0
  188.9660  176.5390  147.7270 O   0  0  0  0  0  0  0  0  0  0  0  0
  188.1650  177.4590  148.0340 C   0  0  0  0  0  0  0  0  0  0  0  0
  188.6040  176.6910  143.0480 C   0  0  0  0  0  2  0  0  0  0  0  0
  191.9810  177.7880  144.2640 O   0  0  0  0  0  1  0  0  0  0  0  0
  190.9100  175.7960  143.3430 C   0  0  0  0  0  2  0  0  0  0  0  0
  189.8030  176.6360  143.9840 C   0  0  1  0  0  3  0  0  0  0  0  0
  190.9140  177.9270  142.1350 O   0  0  0  0  0  1  0  0  0  0  0  0
  191.0250  177.2970  143.3770 C   0  0  0  0  0  0  0  0  0  0  0  0
  187.8160  178.8500  140.9350 N   0  0  0  0  0  2  0  0  0  0  0  0
  188.8650  177.2970  139.5510 O   0  0  0  0  0  0  0  0  0  0  0  0
  188.6420  178.4160  138.7300 C   0  0  2  0  0  3  0  0  0  0  0  0
  187.6690  178.0040  139.7630 C   0  0  2  0  0  3  0  0  0  0  0  0
  189.1340  177.6700  136.4070 C   0  0  0  0  0  3  0  0  0  0  0  0
  188.1880  177.9710  137.4270 N   0  0  0  0  0  2  0  0  0  0  0  0
  188.7390  177.2860  135.2770 O   0  0  0  0  0  0  0  0  0  0  0  0
  1 16  1  6  0  0  0
  1  3  1  0  0  0  0
  2  3  1  0  0  0  0
  2  7  2  0  0  0  0
  3  5  2  0  0  0  0
  4  6  1  0  0  0  0
  5 12  1  0  0  0  0
  6  9  1  1  0  0  0
  6  2  1  0  0  0  0
  8 22  1  6  0  0  0
  8  4  1  0  0  0  0
  8  1  1  0  0  0  0
 10  9  2  0  0  0  0
 12 11  1  1  0  0  0
 12 15  1  0  0  0  0
 14 15  2  0  0  0  0
 15 13  1  0  0  0  0
 18 21  1  0  0  0  0
 18 19  1  0  0  0  0
 19 16  1  6  0  0  0
 20 21  1  0  0  0  0
 21 19  1  0  0  0  0
 21 17  1  0  0  0  0
 23 25  1  0  0  0  0
 24 27  1  6  0  0  0
 24 23  1  0  0  0  0
 24 25  1  0  0  0  0
 25 22  1  1  0  0  0
 26 27  1  0  0  0  0
 28 26  2  0  0  0  0
M  END
>  <MODEL>
6

>  <REMARK>
 VINA RESULT:      -6.6      2.907      6.391
  Name = 
  8 active torsions:
  status: ('A' for Active; 'I' for Inactive)
    1  A    between atoms: C_1  and  C_19
    2  A    between atoms: C_2  and  C_3
    3  A    between atoms: C_2  and  C_17
    4  A    between atoms: C_11  and  N_24
    5  A    between atoms: C_14  and  C_16
    6  A    between atoms: C_16  and  C_20
    7  A    between atoms: N_22  and  C_26
    8  A    between atoms: N_22  and  C_27
                            x       y       z     vdW  Elec       q    Type
                         _______ _______ _______ _____ _____    ______ ____

>  <TORSDO>
F 8

$$$$
=
 OpenBabel10232409053D

 28 30  0  0  1  0  0  0  0  0999 V2000
  187.0430  178.6150  144.4270 C   0  0  2  0  0  3  0  0  0  0  0  0
  188.5420  177.1580  145.9730 C   0  0  0  0  0  0  0  0  0  0  0  0
  188.3740  177.9620  144.7300 C   0  0  0  0  0  0  0  0  0  0  0  0
  186.6730  178.5210  146.9280 C   0  0  0  0  0  2  0  0  0  0  0  0
  189.3770  178.1920  143.8700 C   0  0  0  0  0  3  0  0  0  0  0  0
  187.5570  177.2910  147.1050 C   0  0  2  0  0  3  0  0  0  0  0  0
  189.4600  176.2990  146.0610 O   0  0  0  0  0  0  0  0  0  0  0  0
  186.0110  178.4810  145.5580 C   0  0  1  0  0  3  0  0  0  0  0  0
  188.2710  177.3680  148.4190 C   0  0  0  0  0  3  0  0  0  0  0  0
  189.0400  178.4130  148.7180 C   0  0  0  0  0  2  0  0  0  0  0  0
  191.7440  178.8780  144.0960 C   0  0  0  0  0  1  0  0  0  0  0  0
  190.7840  177.7040  144.0220 C   0  0  2  0  0  3  0  0  0  0  0  0
  190.5280  175.5870  142.7100 O   0  0  0  0  0  1  0  0  0  0  0  0
  192.0180  177.1980  142.0510 O   0  0  0  0  0  0  0  0  0  0  0  0
  191.1460  176.8220  142.8750 C   0  0  0  0  0  0  0  0  0  0  0  0
  186.4650  178.0430  143.1360 C   0  0  0  0  0  2  0  0  0  0  0  0
  185.0540  179.8640  140.1740 O   0  0  0  0  0  1  0  0  0  0  0  0
  186.9370  178.4080  140.7180 C   0  0  0  0  0  2  0  0  0  0  0  0
  186.5070  179.0800  142.0230 C   0  0  1  0  0  3  0  0  0  0  0  0
  184.6200  177.7060  141.0920 O   0  0  0  0  0  1  0  0  0  0  0  0
  185.4950  178.7830  140.9350 C   0  0  0  0  0  0  0  0  0  0  0  0
  185.0320  179.5520  145.4640 N   0  0  0  0  0  2  0  0  0  0  0  0
  183.8910  177.9950  144.1610 O   0  0  0  0  0  0  0  0  0  0  0  0
  183.3250  179.2340  143.8160 C   0  0  2  0  0  3  0  0  0  0  0  0
  183.7460  178.9310  145.1990 C   0  0  2  0  0  3  0  0  0  0  0  0
  181.2290  179.4510  142.4920 C   0  0  0  0  0  3  0  0  0  0  0  0
  181.8880  179.0890  143.7000 N   0  0  0  0  0  2  0  0  0  0  0  0
  179.9820  179.3260  142.3940 O   0  0  0  0  0  0  0  0  0  0  0  0
  1 16  1  6  0  0  0
  1  3  1  0  0  0  0
  1  8  1  0  0  0  0
  2  7  2  0  0  0  0
  2  6  1  0  0  0  0
  3  2  1  0  0  0  0
  4  6  1  0  0  0  0
  5 12  1  0  0  0  0
  5  3  2  0  0  0  0
  6  9  1  1  0  0  0
  8 22  1  1  0  0  0
  8  4  1  0  0  0  0
  9 10  2  0  0  0  0
 12 11  1  6  0  0  0
 13 15  1  0  0  0  0
 14 15  2  0  0  0  0
 15 12  1  0  0  0  0
 17 21  1  0  0  0  0
 18 21  1  0  0  0  0
 18 19  1  0  0  0  0
 19 16  1  1  0  0  0
 21 20  1  0  0  0  0
 21 19  1  0  0  0  0
 23 25  1  0  0  0  0
 24 27  1  1  0  0  0
 24 23  1  0  0  0  0
 24 25  1  0  0  0  0
 25 22  1  6  0  0  0
 26 27  1  0  0  0  0
 28 26  2  0  0  0  0
M  END
>  <MODEL>
7

>  <REMARK>
 VINA RESULT:      -6.5      2.680      6.896
  Name = 
  8 active torsions:
  status: ('A' for Active; 'I' for Inactive)
    1  A    between atoms: C_1  and  C_19
    2  A    between atoms: C_2  and  C_3
    3  A    between atoms: C_2  and  C_17
    4  A    between atoms: C_11  and  N_24
    5  A    between atoms: C_14  and  C_16
    6  A    between atoms: C_16  and  C_20
    7  A    between atoms: N_22  and  C_26
    8  A    between atoms: N_22  and  C_27
                            x       y       z     vdW  Elec       q    Type
                         _______ _______ _______ _____ _____    ______ ____

>  <TORSDO>
F 8

$$$$
=
 OpenBabel10232409053D

 28 30  0  0  1  0  0  0  0  0999 V2000
  189.7760  176.6500  139.5720 C   0  0  2  0  0  3  0  0  0  0  0  0
  187.6760  178.1620  139.3200 C   0  0  0  0  0  0  0  0  0  0  0  0
  188.5400  177.0640  138.8040 C   0  0  0  0  0  0  0  0  0  0  0  0
  188.5780  177.6060  141.5860 C   0  0  0  0  0  2  0  0  0  0  0  0
  188.2460  176.3640  137.6970 C   0  0  0  0  0  3  0  0  0  0  0  0
  187.7860  178.6080  140.7540 C   0  0  2  0  0  3  0  0  0  0  0  0
  186.9030  178.7870  138.5440 O   0  0  0  0  0  0  0  0  0  0  0  0
  189.9290  177.3530  140.9320 C   0  0  1  0  0  3  0  0  0  0  0  0
  186.4270  178.7970  141.3530 C   0  0  0  0  0  3  0  0  0  0  0  0
  186.1090  178.2340  142.5170 C   0  0  0  0  0  2  0  0  0  0  0  0
  186.2570  175.2640  136.7200 C   0  0  0  0  0  1  0  0  0  0  0  0
  187.0370  176.5620  136.8370 C   0  0  2  0  0  3  0  0  0  0  0  0
  186.6720  177.9670  134.7980 O   0  0  0  0  0  0  0  0  0  0  0  0
  188.4940  176.5860  134.9560 O   0  0  0  0  0  1  0  0  0  0  0  0
  187.4440  177.0350  135.4840 C   0  0  0  0  0  0  0  0  0  0  0  0
  191.0210  176.8970  138.7260 C   0  0  0  0  0  2  0  0  0  0  0  0
  193.7570  174.5360  137.7120 O   0  0  0  0  0  1  0  0  0  0  0  0
  191.9150  175.7730  136.6910 C   0  0  0  0  0  2  0  0  0  0  0  0
  191.5580  175.5870  138.1670 C   0  0  1  0  0  3  0  0  0  0  0  0
  193.6840  176.9090  137.9480 O   0  0  0  0  0  1  0  0  0  0  0  0
  193.0040  175.7080  137.7290 C   0  0  0  0  0  0  0  0  0  0  0  0
  190.7500  176.5430  141.8170 N   0  0  0  0  0  2  0  0  0  0  0  0
  191.9780  177.6790  143.4380 O   0  0  0  0  0  0  0  0  0  0  0  0
  191.6240  176.4610  144.0440 C   0  0  2  0  0  3  0  0  0  0  0  0
  190.7060  177.1670  143.1270 C   0  0  2  0  0  3  0  0  0  0  0  0
  191.9800  176.1460  146.4870 C   0  0  0  0  0  3  0  0  0  0  0  0
  191.2280  176.7070  145.4170 N   0  0  0  0  0  2  0  0  0  0  0  0
  191.6330  176.3580  147.6770 O   0  0  0  0  0  0  0  0  0  0  0  0
  1 16  1  6  0  0  0
  1  8  1  0  0  0  0
  2  6  1  0  0  0  0
  3  2  1  0  0  0  0
  3  1  1  0  0  0  0
  5  3  2  0  0  0  0
  6  9  1  1  0  0  0
  6  4  1  0  0  0  0
  7  2  2  0  0  0  0
  8  4  1  0  0  0  0
  8 22  1  1  0  0  0
  9 10  2  0  0  0  0
 12 11  1  6  0  0  0
 12  5  1  0  0  0  0
 13 15  2  0  0  0  0
 14 15  1  0  0  0  0
 15 12  1  0  0  0  0
 17 21  1  0  0  0  0
 18 21  1  0  0  0  0
 18 19  1  0  0  0  0
 19 16  1  1  0  0  0
 21 20  1  0  0  0  0
 21 19  1  0  0  0  0
 23 24  1  0  0  0  0
 24 27  1  1  0  0  0
 25 22  1  6  0  0  0
 25 23  1  0  0  0  0
 25 24  1  0  0  0  0
 26 28  2  0  0  0  0
 27 26  1  0  0  0  0
M  END
>  <MODEL>
8

>  <REMARK>
 VINA RESULT:      -6.5      2.928      4.328
  Name = 
  8 active torsions:
  status: ('A' for Active; 'I' for Inactive)
    1  A    between atoms: C_1  and  C_19
    2  A    between atoms: C_2  and  C_3
    3  A    between atoms: C_2  and  C_17
    4  A    between atoms: C_11  and  N_24
    5  A    between atoms: C_14  and  C_16
    6  A    between atoms: C_16  and  C_20
    7  A    between atoms: N_22  and  C_26
    8  A    between atoms: N_22  and  C_27
                            x       y       z     vdW  Elec       q    Type
                         _______ _______ _______ _____ _____    ______ ____

>  <TORSDO>
F 8

$$$$
=
 OpenBabel10232409053D

 28 30  0  0  1  0  0  0  0  0999 V2000
  187.9050  177.5280  142.8680 C   0  0  2  0  0  3  0  0  0  0  0  0
  189.5320  178.2650  144.7580 C   0  0  0  0  0  0  0  0  0  0  0  0
  188.1570  177.9020  144.3120 C   0  0  0  0  0  0  0  0  0  0  0  0
  190.3550  176.8980  142.8300 C   0  0  0  0  0  2  0  0  0  0  0  0
  187.1130  177.8330  145.1520 C   0  0  0  0  0  3  0  0  0  0  0  0
  190.7250  177.9070  143.9120 C   0  0  2  0  0  3  0  0  0  0  0  0
  189.7060  178.9470  145.8030 O   0  0  0  0  0  0  0  0  0  0  0  0
  189.1820  177.4280  142.0180 C   0  0  1  0  0  3  0  0  0  0  0  0
  191.8260  177.3530  144.7620 C   0  0  0  0  0  3  0  0  0  0  0  0
  191.5930  176.3620  145.6220 C   0  0  0  0  0  2  0  0  0  0  0  0
  187.3250  176.7820  147.3820 C   0  0  0  0  0  1  0  0  0  0  0  0
  187.1630  178.0890  146.6260 C   0  0  2  0  0  3  0  0  0  0  0  0
  184.6690  178.2600  146.7480 O   0  0  0  0  0  0  0  0  0  0  0  0
  185.9990  179.8460  147.7320 O   0  0  0  0  0  1  0  0  0  0  0  0
  185.9180  178.7810  147.0670 C   0  0  0  0  0  0  0  0  0  0  0  0
  186.9440  178.5280  142.2320 C   0  0  0  0  0  2  0  0  0  0  0  0
  183.5110  177.9400  140.8330 O   0  0  0  0  0  1  0  0  0  0  0  0
  184.5740  179.1620  142.6620 C   0  0  0  0  0  2  0  0  0  0  0  0
  185.5140  178.0110  142.2930 C   0  0  1  0  0  3  0  0  0  0  0  0
  185.2030  179.5430  140.3250 O   0  0  0  0  0  1  0  0  0  0  0  0
  184.6330  178.6580  141.2440 C   0  0  0  0  0  0  0  0  0  0  0  0
  188.9510  176.5540  140.8790 N   0  0  0  0  0  2  0  0  0  0  0  0
  188.2020  177.8790  139.1150 O   0  0  0  0  0  0  0  0  0  0  0  0
  188.6830  176.7070  138.5050 C   0  0  2  0  0  3  0  0  0  0  0  0
  189.3430  177.2920  139.6910 C   0  0  2  0  0  3  0  0  0  0  0  0
  188.7550  177.6500  136.2030 C   0  0  0  0  0  3  0  0  0  0  0  0
  189.4260  177.0600  137.3110 N   0  0  0  0  0  2  0  0  0  0  0  0
  189.4010  177.9540  135.1670 O   0  0  0  0  0  0  0  0  0  0  0  0
  1 16  1  6  0  0  0
  1  3  1  0  0  0  0
  2  7  2  0  0  0  0
  3  2  1  0  0  0  0
  3  5  2  0  0  0  0
  4  6  1  0  0  0  0
  5 12  1  0  0  0  0
  6  2  1  0  0  0  0
  6  9  1  1  0  0  0
  8 22  1  6  0  0  0
  8  4  1  0  0  0  0
  8  1  1  0  0  0  0
  9 10  2  0  0  0  0
 12 15  1  0  0  0  0
 12 11  1  1  0  0  0
 13 15  2  0  0  0  0
 15 14  1  0  0  0  0
 17 21  1  0  0  0  0
 19 16  1  6  0  0  0
 19 18  1  0  0  0  0
 20 21  1  0  0  0  0
 21 19  1  0  0  0  0
 21 18  1  0  0  0  0
 23 25  1  0  0  0  0
 24 27  1  6  0  0  0
 24 23  1  0  0  0  0
 24 25  1  0  0  0  0
 25 22  1  1  0  0  0
 26 27  1  0  0  0  0
 28 26  2  0  0  0  0
M  END
>  <MODEL>
9

>  <REMARK>
 VINA RESULT:      -6.4      2.566      6.666
  Name = 
  8 active torsions:
  status: ('A' for Active; 'I' for Inactive)
    1  A    between atoms: C_1  and  C_19
    2  A    between atoms: C_2  and  C_3
    3  A    between atoms: C_2  and  C_17
    4  A    between atoms: C_11  and  N_24
    5  A    between atoms: C_14  and  C_16
    6  A    between atoms: C_16  and  C_20
    7  A    between atoms: N_22  and  C_26
    8  A    between atoms: N_22  and  C_27
                            x       y       z     vdW  Elec       q    Type
                         _______ _______ _______ _____ _____    ______ ____

>  <TORSDO>
F 8

$$$$
