=
 OpenBabel10232412283D

 55 62  0  0  1  0  0  0  0  0999 V2000
  188.1380  177.5360  144.0910 C   0  0  2  0  0  3  0  0  0  0  0  0
  189.1440  177.3530  145.2170 C   0  0  0  0  0  2  0  0  0  0  0  0
  190.3770  178.2050  144.9760 C   0  0  0  0  0  2  0  0  0  0  0  0
  191.6160  177.4710  145.4490 C   0  0  1  0  0  3  0  0  0  0  0  0
  191.8030  175.4290  143.9190 O   0  0  0  0  0  0  0  0  0  0  0  0
  191.2580  176.4750  146.3170 O   0  0  0  0  0  0  0  0  0  0  0  0
  191.6310  176.2130  144.8900 C   0  0  0  0  0  0  0  0  0  0  0  0
  186.7620  177.1110  144.5640 C   0  0  0  0  0  2  0  0  0  0  0  0
  185.9890  178.6280  146.1910 O   0  0  0  0  0  0  0  0  0  0  0  0
  185.9820  178.2990  145.0140 C   0  0  0  0  0  0  0  0  0  0  0  0
  183.8120  178.2010  142.6710 C   0  0  2  0  0  3  0  0  0  0  0  0
  183.4130  178.9190  144.2920 S   0  0  0  0  0  0  0  0  0  0  0  0
  185.2500  178.4390  142.6970 N   0  0  0  0  0  2  0  0  0  0  0  0
  185.1980  179.0810  144.0020 C   0  0  2  0  0  3  0  0  0  0  0  0
  183.1550  179.0340  141.5710 C   0  0  0  0  0  2  0  0  0  0  0  0
  183.3410  177.1400  136.8700 C   0  0  0  0  0  0  0  0  0  0  0  0
  183.2910  177.9570  139.2700 C   0  0  0  0  0  0  0  0  0  0  0  0
  181.2790  178.1900  137.7880 C   0  0  0  0  0  2  0  0  0  0  0  0
  182.8150  177.1810  135.7210 O   0  0  0  0  0  0  0  0  0  0  0  0
  181.0640  178.7400  140.1870 C   0  0  0  0  0  2  0  0  0  0  0  0
  184.5460  177.8960  139.3800 O   0  0  0  0  0  0  0  0  0  0  0  0
  182.6510  177.7250  137.9930 N   0  0  0  0  0  0  0  0  0  0  0  0
  180.4360  177.9750  139.0350 C   0  0  0  0  0  2  0  0  0  0  0  0
  182.4520  178.1860  140.5060 C   0  0  2  0  0  3  0  0  0  0  0  0
  185.6790  176.8920  136.0050 C   0  0  2  0  0  3  0  0  0  0  0  0
  184.6440  176.4190  137.0410 C   0  0  2  0  0  3  0  0  0  0  0  0
  185.7320  174.1470  137.2690 C   0  0  0  0  0  2  0  0  0  0  0  0
  186.9970  174.9110  136.8550 C   0  0  0  0  0  2  0  0  0  0  0  0
  184.4310  174.9070  136.9820 C   0  0  0  0  0  2  0  0  0  0  0  0
  186.7310  175.8280  135.6660 C   0  0  0  0  0  2  0  0  0  0  0  0
  186.3100  178.0490  136.4690 O   0  0  0  0  0  1  0  0  0  0  0  0
  188.5140  176.7350  142.9340 N   0  0  0  0  0  2  0  0  0  0  0  0
  188.1090  177.9230  140.9280 C   0  0  0  0  0  3  0  0  0  0  0  0
  188.4870  178.6570  139.6850 C   0  0  0  0  0  2  0  0  0  0  0  0
  190.2470  177.0680  138.8920 C   0  0  0  0  0  0  0  0  0  0  0  0
  190.9830  177.1420  140.1800 C   0  0  0  0  0  3  0  0  0  0  0  0
  188.9920  177.3060  141.7130 C   0  0  0  0  0  0  0  0  0  0  0  0
  189.1080  177.7410  138.6850 C   0  0  0  0  0  3  0  0  0  0  0  0
  190.4430  177.2500  141.3990 C   0  0  0  0  0  3  0  0  0  0  0  0
  190.2660  176.3070  136.5020 C   0  0  0  0  0  3  0  0  0  0  0  0
  190.8260  175.5460  135.4740 C   0  0  0  0  0  3  0  0  0  0  0  0
  191.8920  174.7430  135.7250 N   0  0  0  0  0  0  0  0  0  0  0  0
  191.9120  175.4070  138.0180 C   0  0  0  0  0  3  0  0  0  0  0  0
  192.4440  174.6530  136.9710 C   0  0  0  0  0  0  0  0  0  0  0  0
  190.8100  176.2460  137.7940 C   0  0  0  0  0  0  0  0  0  0  0  0
  194.7870  174.5480  137.7480 C   0  0  2  0  0  3  0  0  0  0  0  0
  193.6170  173.7590  137.2590 C   0  0  2  0  0  3  0  0  0  0  0  0
  194.7700  173.9960  136.2850 C   0  0  2  0  0  0  0  0  0  0  0  0
  195.2830  172.6700  136.1730 O   0  0  0  0  0  0  0  0  0  0  0  0
  195.4080  173.6830  138.8470 C   0  0  0  0  0  1  0  0  0  0  0  0
  196.1730  173.6560  135.7910 C   0  0  2  0  0  3  0  0  0  0  0  0
  197.3520  173.7120  136.7580 C   0  0  0  0  0  2  0  0  0  0  0  0
  198.1830  174.9140  136.4750 C   0  0  0  0  0  0  0  0  0  0  0  0
  197.6340  175.9830  136.1040 O   0  0  0  0  0  0  0  0  0  0  0  0
  199.5600  174.8650  136.6590 O   0  0  0  0  0  1  0  0  0  0  0  0
  1  8  1  1  0  0  0
  1  2  1  0  0  0  0
  3  2  1  0  0  0  0
  4  3  1  6  0  0  0
  4  6  1  0  0  0  0
  5  7  2  0  0  0  0
  7  4  1  0  0  0  0
  7  6  1  0  0  0  0
  8 10  1  0  0  0  0
 10  9  2  0  0  0  0
 11 15  1  6  0  0  0
 11 13  1  0  0  0  0
 11 12  1  0  0  0  0
 13 14  1  0  0  0  0
 14 12  1  0  0  0  0
 14 10  1  1  0  0  0
 16 22  1  0  0  0  0
 17 21  2  0  0  0  0
 17 24  1  0  0  0  0
 18 22  1  0  0  0  0
 18 23  1  0  0  0  0
 19 16  2  0  0  0  0
 20 24  1  0  0  0  0
 22 17  1  0  0  0  0
 23 20  1  0  0  0  0
 24 15  1  1  0  0  0
 25 31  1  1  0  0  0
 25 26  1  0  0  0  0
 26 16  1  6  0  0  0
 28 27  1  0  0  0  0
 29 26  1  0  0  0  0
 29 27  1  0  0  0  0
 30 25  1  0  0  0  0
 30 28  1  0  0  0  0
 32  1  1  0  0  0  0
 33 37  2  0  0  0  0
 34 33  1  0  0  0  0
 35 36  1  0  0  0  0
 36 39  2  0  0  0  0
 37 32  1  0  0  0  0
 38 35  2  0  0  0  0
 38 34  1  0  0  0  0
 39 37  1  0  0  0  0
 40 45  1  0  0  0  0
 41 42  1  0  0  0  0
 41 40  2  0  0  0  0
 42 44  2  0  0  0  0
 44 43  1  0  0  0  0
 45 43  2  0  0  0  0
 45 35  1  0  0  0  0
 46 50  1  1  0  0  0
 47 44  1  6  0  0  0
 47 46  1  0  0  0  0
 48 49  1  1  0  0  0
 48 47  1  0  0  0  0
 48 46  1  0  0  0  0
 51 49  1  0  0  0  0
 51 48  1  0  0  0  0
 51 52  1  1  0  0  0
 53 55  1  0  0  0  0
 53 52  1  0  0  0  0
 54 53  2  0  0  0  0
M  END
>  <MODEL>
1

>  <REMARK>
 VINA RESULT:      -8.4      0.000      0.000
  Name = 
  15 active torsions:
  status: ('A' for Active; 'I' for Inactive)
    1  A    between atoms: C_2  and  C_27
    2  A    between atoms: C_2  and  C_55
    3  A    between atoms: C_6  and  C_20
    4  A    between atoms: C_10  and  C_14
    5  A    between atoms: C_12  and  C_55
    6  A    between atoms: C_13  and  C_15
    7  A    between atoms: C_14  and  C_54
    8  A    between atoms: C_20  and  C_53
    9  A    between atoms: C_23  and  C_27
   10  A    between atoms: C_23  and  C_34
   11  A    between atoms: C_27  and  N_50
   12  A    between atoms: C_30  and  C_45
   13  A    between atoms: C_33  and  C_46
   14  A    between atoms: C_34  and  C_49
   15  A    between atoms: C_37  and  N_50
                            x       y       z     vdW  Elec       q    Type
                         _______ _______ _______ _____ _____    ______ ____

>  <TORSDO>
F 15

$$$$
=
 OpenBabel10232412283D

 55 62  0  0  1  0  0  0  0  0999 V2000
  187.6510  177.7060  145.6440 C   0  0  2  0  0  3  0  0  0  0  0  0
  188.2220  177.1790  146.9510 C   0  0  0  0  0  2  0  0  0  0  0  0
  189.6520  177.6490  147.1390 C   0  0  0  0  0  2  0  0  0  0  0  0
  190.6170  176.5980  146.6280 C   0  0  1  0  0  3  0  0  0  0  0  0
  192.4640  176.4760  148.3940 O   0  0  0  0  0  0  0  0  0  0  0  0
  191.6440  177.2020  145.9560 O   0  0  0  0  0  0  0  0  0  0  0  0
  191.7860  176.6750  147.3510 C   0  0  0  0  0  0  0  0  0  0  0  0
  186.1410  177.5740  145.6590 C   0  0  0  0  0  2  0  0  0  0  0  0
  185.6030  179.5140  146.8810 O   0  0  0  0  0  0  0  0  0  0  0  0
  185.5080  178.9150  145.8200 C   0  0  0  0  0  0  0  0  0  0  0  0
  184.0700  178.3840  143.0170 C   0  0  2  0  0  3  0  0  0  0  0  0
  183.1080  178.7860  144.5070 S   0  0  0  0  0  0  0  0  0  0  0  0
  185.3110  179.0470  143.3980 N   0  0  0  0  0  2  0  0  0  0  0  0
  184.7640  179.5130  144.6640 C   0  0  2  0  0  3  0  0  0  0  0  0
  183.4460  179.0780  141.8080 C   0  0  0  0  0  2  0  0  0  0  0  0
  184.1330  177.3610  137.0850 C   0  0  0  0  0  0  0  0  0  0  0  0
  183.8620  178.1040  139.4940 C   0  0  0  0  0  0  0  0  0  0  0  0
  181.8680  177.8660  137.9890 C   0  0  0  0  0  2  0  0  0  0  0  0
  183.6240  177.2930  135.9300 O   0  0  0  0  0  0  0  0  0  0  0  0
  181.5030  178.3090  140.3910 C   0  0  0  0  0  2  0  0  0  0  0  0
  185.0930  178.3470  139.6210 O   0  0  0  0  0  0  0  0  0  0  0  0
  183.3100  177.7440  138.2060 N   0  0  0  0  0  0  0  0  0  0  0  0
  181.0910  177.4330  139.2210 C   0  0  0  0  0  2  0  0  0  0  0  0
  182.9800  178.1020  140.7220 C   0  0  2  0  0  3  0  0  0  0  0  0
  186.4970  177.8970  136.4520 C   0  0  2  0  0  3  0  0  0  0  0  0
  185.5700  176.9760  137.2640 C   0  0  2  0  0  3  0  0  0  0  0  0
  187.2170  175.0570  137.1940 C   0  0  0  0  0  2  0  0  0  0  0  0
  188.2500  176.1850  137.0670 C   0  0  0  0  0  2  0  0  0  0  0  0
  185.7780  175.5040  136.9080 C   0  0  0  0  0  2  0  0  0  0  0  0
  187.8150  177.2280  136.0420 C   0  0  0  0  0  2  0  0  0  0  0  0
  186.7640  179.0570  137.1840 O   0  0  0  0  0  1  0  0  0  0  0  0
  188.1840  176.9570  144.5150 N   0  0  0  0  0  2  0  0  0  0  0  0
  187.7290  177.6060  142.2850 C   0  0  0  0  0  3  0  0  0  0  0  0
  187.9850  178.3170  140.9990 C   0  0  0  0  0  2  0  0  0  0  0  0
  190.4090  177.7380  140.7880 C   0  0  0  0  0  0  0  0  0  0  0  0
  190.7200  178.2800  142.1350 C   0  0  0  0  0  3  0  0  0  0  0  0
  188.5990  177.5780  143.2940 C   0  0  0  0  0  0  0  0  0  0  0  0
  189.1660  177.7410  140.2900 C   0  0  0  0  0  3  0  0  0  0  0  0
  189.9370  178.2170  143.2180 C   0  0  0  0  0  3  0  0  0  0  0  0
  192.8530  177.3920  140.3440 C   0  0  0  0  0  3  0  0  0  0  0  0
  193.8830  176.8620  139.5640 C   0  0  0  0  0  3  0  0  0  0  0  0
  193.5930  176.1730  138.4300 N   0  0  0  0  0  0  0  0  0  0  0  0
  191.2530  176.4890  138.7810 C   0  0  0  0  0  3  0  0  0  0  0  0
  192.3050  175.9790  138.0200 C   0  0  0  0  0  0  0  0  0  0  0  0
  191.5170  177.2060  139.9580 C   0  0  0  0  0  0  0  0  0  0  0  0
  191.6250  173.8050  137.0600 C   0  0  2  0  0  3  0  0  0  0  0  0
  191.9760  175.2260  136.7620 C   0  0  2  0  0  3  0  0  0  0  0  0
  193.0190  174.1560  136.4450 C   0  0  2  0  0  0  0  0  0  0  0  0
  193.0120  174.2100  135.0190 O   0  0  0  0  0  0  0  0  0  0  0  0
  190.4690  173.4820  136.1110 C   0  0  0  0  0  1  0  0  0  0  0  0
  193.5350  173.0410  135.5390 C   0  0  2  0  0  3  0  0  0  0  0  0
  192.6330  171.8580  135.2030 C   0  0  0  0  0  2  0  0  0  0  0  0
  193.2510  170.5940  135.6860 C   0  0  0  0  0  0  0  0  0  0  0  0
  193.9850  170.6050  136.7080 O   0  0  0  0  0  1  0  0  0  0  0  0
  192.9870  169.3970  135.0310 O   0  0  0  0  0  0  0  0  0  0  0  0
  1  8  1  1  0  0  0
  1  2  1  0  0  0  0
  2  3  1  0  0  0  0
  4  3  1  1  0  0  0
  4  7  1  0  0  0  0
  6  4  1  0  0  0  0
  6  7  1  0  0  0  0
  7  5  2  0  0  0  0
  8 10  1  0  0  0  0
 10  9  2  0  0  0  0
 11 15  1  6  0  0  0
 11 13  1  0  0  0  0
 11 12  1  0  0  0  0
 12 14  1  0  0  0  0
 13 14  1  0  0  0  0
 14 10  1  1  0  0  0
 16 22  1  0  0  0  0
 17 21  2  0  0  0  0
 17 24  1  0  0  0  0
 18 22  1  0  0  0  0
 18 23  1  0  0  0  0
 19 16  2  0  0  0  0
 20 24  1  0  0  0  0
 22 17  1  0  0  0  0
 23 20  1  0  0  0  0
 24 15  1  1  0  0  0
 25 31  1  1  0  0  0
 25 26  1  0  0  0  0
 26 16  1  6  0  0  0
 28 27  1  0  0  0  0
 29 27  1  0  0  0  0
 29 26  1  0  0  0  0
 30 25  1  0  0  0  0
 30 28  1  0  0  0  0
 32  1  1  0  0  0  0
 33 37  2  0  0  0  0
 34 33  1  0  0  0  0
 35 36  1  0  0  0  0
 36 39  2  0  0  0  0
 37 32  1  0  0  0  0
 38 35  2  0  0  0  0
 38 34  1  0  0  0  0
 39 37  1  0  0  0  0
 41 40  2  0  0  0  0
 42 41  1  0  0  0  0
 43 45  2  0  0  0  0
 44 42  2  0  0  0  0
 44 43  1  0  0  0  0
 45 40  1  0  0  0  0
 45 35  1  0  0  0  0
 46 50  1  6  0  0  0
 47 46  1  0  0  0  0
 47 44  1  1  0  0  0
 48 49  1  6  0  0  0
 48 47  1  0  0  0  0
 48 46  1  0  0  0  0
 49 51  1  0  0  0  0
 51 52  1  6  0  0  0
 51 48  1  0  0  0  0
 52 53  1  0  0  0  0
 53 54  1  0  0  0  0
 55 53  2  0  0  0  0
M  END
>  <MODEL>
2

>  <REMARK>
 VINA RESULT:      -8.3      2.030      2.794
  Name = 
  15 active torsions:
  status: ('A' for Active; 'I' for Inactive)
    1  A    between atoms: C_2  and  C_27
    2  A    between atoms: C_2  and  C_55
    3  A    between atoms: C_6  and  C_20
    4  A    between atoms: C_10  and  C_14
    5  A    between atoms: C_12  and  C_55
    6  A    between atoms: C_13  and  C_15
    7  A    between atoms: C_14  and  C_54
    8  A    between atoms: C_20  and  C_53
    9  A    between atoms: C_23  and  C_27
   10  A    between atoms: C_23  and  C_34
   11  A    between atoms: C_27  and  N_50
   12  A    between atoms: C_30  and  C_45
   13  A    between atoms: C_33  and  C_46
   14  A    between atoms: C_34  and  C_49
   15  A    between atoms: C_37  and  N_50
                            x       y       z     vdW  Elec       q    Type
                         _______ _______ _______ _____ _____    ______ ____

>  <TORSDO>
F 15

$$$$
=
 OpenBabel10232412283D

 55 62  0  0  1  0  0  0  0  0999 V2000
  188.1010  177.3790  143.7330 C   0  0  2  0  0  3  0  0  0  0  0  0
  189.1810  176.8620  144.6710 C   0  0  0  0  0  2  0  0  0  0  0  0
  189.3430  177.7880  145.8630 C   0  0  0  0  0  2  0  0  0  0  0  0
  189.3470  176.9840  147.1480 C   0  0  1  0  0  3  0  0  0  0  0  0
  188.0010  178.3870  148.8130 O   0  0  0  0  0  0  0  0  0  0  0  0
  190.3490  177.4290  147.9670 O   0  0  0  0  0  0  0  0  0  0  0  0
  188.9090  177.7870  148.1780 C   0  0  0  0  0  0  0  0  0  0  0  0
  186.7350  177.0640  144.3090 C   0  0  0  0  0  2  0  0  0  0  0  0
  186.0590  178.7460  145.8130 O   0  0  0  0  0  0  0  0  0  0  0  0
  186.0230  178.3260  144.6650 C   0  0  0  0  0  0  0  0  0  0  0  0
  183.7470  178.1920  142.4280 C   0  0  2  0  0  3  0  0  0  0  0  0
  183.4980  179.1240  143.9690 S   0  0  0  0  0  0  0  0  0  0  0  0
  185.2000  178.2810  142.3760 N   0  0  0  0  0  2  0  0  0  0  0  0
  185.2740  179.0660  143.5980 C   0  0  2  0  0  3  0  0  0  0  0  0
  183.1240  178.9600  141.2640 C   0  0  0  0  0  2  0  0  0  0  0  0
  183.8060  177.0910  136.5990 C   0  0  0  0  0  0  0  0  0  0  0  0
  183.5170  177.9010  138.9840 C   0  0  0  0  0  0  0  0  0  0  0  0
  181.5970  177.9430  137.3680 C   0  0  0  0  0  2  0  0  0  0  0  0
  183.3570  177.0830  135.4160 O   0  0  0  0  0  0  0  0  0  0  0  0
  181.1690  178.4700  139.7430 C   0  0  0  0  0  2  0  0  0  0  0  0
  184.7620  177.9590  139.1790 O   0  0  0  0  0  0  0  0  0  0  0  0
  182.9890  177.6090  137.6680 N   0  0  0  0  0  0  0  0  0  0  0  0
  180.6950  177.6490  138.5570 C   0  0  0  0  0  2  0  0  0  0  0  0
  182.5780  178.0490  140.1590 C   0  0  2  0  0  3  0  0  0  0  0  0
  186.2180  177.0950  135.9220 C   0  0  2  0  0  3  0  0  0  0  0  0
  185.1570  176.4970  136.8610 C   0  0  2  0  0  3  0  0  0  0  0  0
  186.4430  174.3370  137.1370 C   0  0  0  0  0  2  0  0  0  0  0  0
  187.6550  175.2310  136.8400 C   0  0  0  0  0  2  0  0  0  0  0  0
  185.1000  174.9740  136.7590 C   0  0  0  0  0  2  0  0  0  0  0  0
  187.3940  176.1480  135.6500 C   0  0  0  0  0  2  0  0  0  0  0  0
  186.6930  178.2960  136.4550 O   0  0  0  0  0  1  0  0  0  0  0  0
  188.2230  176.7560  142.4220 N   0  0  0  0  0  2  0  0  0  0  0  0
  188.2040  177.9670  140.3890 C   0  0  0  0  0  3  0  0  0  0  0  0
  188.8060  178.7340  139.2600 C   0  0  0  0  0  2  0  0  0  0  0  0
  190.7450  177.2140  138.8330 C   0  0  0  0  0  0  0  0  0  0  0  0
  191.1950  177.2880  140.2470 C   0  0  0  0  0  3  0  0  0  0  0  0
  188.9250  177.3630  141.3330 C   0  0  0  0  0  0  0  0  0  0  0  0
  189.6520  177.8560  138.4010 C   0  0  0  0  0  3  0  0  0  0  0  0
  190.4100  177.3580  141.3280 C   0  0  0  0  0  3  0  0  0  0  0  0
  191.0980  176.2240  136.5560 C   0  0  0  0  0  3  0  0  0  0  0  0
  191.8820  175.5040  135.6530 C   0  0  0  0  0  3  0  0  0  0  0  0
  193.0810  175.0000  136.0440 N   0  0  0  0  0  0  0  0  0  0  0  0
  192.7950  175.8950  138.2380 C   0  0  0  0  0  3  0  0  0  0  0  0
  193.5520  175.1740  137.3140 C   0  0  0  0  0  0  0  0  0  0  0  0
  191.5520  176.4290  137.8670 C   0  0  0  0  0  0  0  0  0  0  0  0
  195.5900  173.9600  136.6200 C   0  0  2  0  0  3  0  0  0  0  0  0
  194.8720  174.6100  137.7570 C   0  0  2  0  0  3  0  0  0  0  0  0
  194.8900  173.0840  137.7090 C   0  0  2  0  0  0  0  0  0  0  0  0
  195.7220  172.8040  138.8330 O   0  0  0  0  0  0  0  0  0  0  0  0
  197.0590  174.3360  136.8190 C   0  0  0  0  0  1  0  0  0  0  0  0
  195.6210  171.7630  137.9300 C   0  0  2  0  0  3  0  0  0  0  0  0
  196.9640  171.5160  137.2490 C   0  0  0  0  0  2  0  0  0  0  0  0
  196.8190  170.4680  136.2030 C   0  0  0  0  0  0  0  0  0  0  0  0
  196.9400  169.2540  136.5100 O   0  0  0  0  0  1  0  0  0  0  0  0
  196.5100  170.8290  134.8970 O   0  0  0  0  0  0  0  0  0  0  0  0
  1  8  1  1  0  0  0
  1  2  1  0  0  0  0
  2  3  1  0  0  0  0
  4  3  1  6  0  0  0
  4  6  1  0  0  0  0
  4  7  1  0  0  0  0
  6  7  1  0  0  0  0
  7  5  2  0  0  0  0
  8 10  1  0  0  0  0
 10  9  2  0  0  0  0
 11 15  1  6  0  0  0
 11 12  1  0  0  0  0
 13 11  1  0  0  0  0
 13 14  1  0  0  0  0
 14 12  1  0  0  0  0
 14 10  1  1  0  0  0
 16 22  1  0  0  0  0
 17 21  2  0  0  0  0
 17 24  1  0  0  0  0
 18 22  1  0  0  0  0
 18 23  1  0  0  0  0
 19 16  2  0  0  0  0
 20 24  1  0  0  0  0
 22 17  1  0  0  0  0
 23 20  1  0  0  0  0
 24 15  1  1  0  0  0
 25 31  1  1  0  0  0
 25 26  1  0  0  0  0
 26 16  1  6  0  0  0
 28 27  1  0  0  0  0
 29 26  1  0  0  0  0
 29 27  1  0  0  0  0
 30 25  1  0  0  0  0
 30 28  1  0  0  0  0
 32  1  1  0  0  0  0
 33 37  2  0  0  0  0
 34 33  1  0  0  0  0
 35 36  1  0  0  0  0
 36 39  2  0  0  0  0
 37 32  1  0  0  0  0
 38 35  2  0  0  0  0
 38 34  1  0  0  0  0
 39 37  1  0  0  0  0
 40 45  1  0  0  0  0
 41 42  1  0  0  0  0
 41 40  2  0  0  0  0
 42 44  2  0  0  0  0
 44 43  1  0  0  0  0
 45 43  2  0  0  0  0
 45 35  1  0  0  0  0
 46 50  1  1  0  0  0
 46 48  1  0  0  0  0
 46 47  1  0  0  0  0
 47 44  1  6  0  0  0
 48 47  1  0  0  0  0
 48 51  1  0  0  0  0
 48 49  1  1  0  0  0
 51 52  1  6  0  0  0
 51 49  1  0  0  0  0
 53 54  1  0  0  0  0
 53 52  1  0  0  0  0
 55 53  2  0  0  0  0
M  END
>  <MODEL>
3

>  <REMARK>
 VINA RESULT:      -8.0      1.452      2.047
  Name = 
  15 active torsions:
  status: ('A' for Active; 'I' for Inactive)
    1  A    between atoms: C_2  and  C_27
    2  A    between atoms: C_2  and  C_55
    3  A    between atoms: C_6  and  C_20
    4  A    between atoms: C_10  and  C_14
    5  A    between atoms: C_12  and  C_55
    6  A    between atoms: C_13  and  C_15
    7  A    between atoms: C_14  and  C_54
    8  A    between atoms: C_20  and  C_53
    9  A    between atoms: C_23  and  C_27
   10  A    between atoms: C_23  and  C_34
   11  A    between atoms: C_27  and  N_50
   12  A    between atoms: C_30  and  C_45
   13  A    between atoms: C_33  and  C_46
   14  A    between atoms: C_34  and  C_49
   15  A    between atoms: C_37  and  N_50
                            x       y       z     vdW  Elec       q    Type
                         _______ _______ _______ _____ _____    ______ ____

>  <TORSDO>
F 15

$$$$
=
 OpenBabel10232412283D

 55 62  0  0  1  0  0  0  0  0999 V2000
  190.7830  175.3430  137.1620 C   0  0  2  0  0  3  0  0  0  0  0  0
  191.9610  174.9550  136.2820 C   0  0  0  0  0  2  0  0  0  0  0  0
  192.7730  173.8490  136.9320 C   0  0  0  0  0  2  0  0  0  0  0  0
  194.2490  174.0650  136.6670 C   0  0  1  0  0  3  0  0  0  0  0  0
  195.1750  175.0620  138.8340 O   0  0  0  0  0  0  0  0  0  0  0  0
  194.4630  175.3580  136.2750 O   0  0  0  0  0  0  0  0  0  0  0  0
  194.7680  174.8680  137.6570 C   0  0  0  0  0  0  0  0  0  0  0  0
  191.2920  175.9520  138.4530 C   0  0  0  0  0  2  0  0  0  0  0  0
  189.1390  176.9010  138.5440 O   0  0  0  0  0  0  0  0  0  0  0  0
  190.2420  176.8170  139.0640 C   0  0  0  0  0  0  0  0  0  0  0  0
  191.3910  176.6690  142.0410 C   0  0  2  0  0  3  0  0  0  0  0  0
  192.3300  177.4760  140.7100 S   0  0  0  0  0  0  0  0  0  0  0  0
  190.0570  176.8660  141.4900 N   0  0  0  0  0  2  0  0  0  0  0  0
  190.5590  177.5710  140.3210 C   0  0  2  0  0  3  0  0  0  0  0  0
  191.5560  177.4670  143.3340 C   0  0  0  0  0  2  0  0  0  0  0  0
  188.2360  178.0280  147.1260 C   0  0  0  0  0  0  0  0  0  0  0  0
  189.7930  177.6770  145.1570 C   0  0  0  0  0  0  0  0  0  0  0  0
  190.4610  176.9650  147.4680 C   0  0  0  0  0  2  0  0  0  0  0  0
  188.1080  178.0960  148.3830 O   0  0  0  0  0  0  0  0  0  0  0  0
  191.8980  176.3300  145.5620 C   0  0  0  0  0  2  0  0  0  0  0  0
  189.1340  178.4600  144.4190 O   0  0  0  0  0  0  0  0  0  0  0  0
  189.4670  177.5370  146.5590 N   0  0  0  0  0  0  0  0  0  0  0  0
  191.2050  175.8140  146.8110 C   0  0  0  0  0  2  0  0  0  0  0  0
  190.8710  176.8150  144.5410 C   0  0  2  0  0  3  0  0  0  0  0  0
  185.8340  178.7410  147.1150 C   0  0  2  0  0  3  0  0  0  0  0  0
  187.0690  178.4020  146.2620 C   0  0  2  0  0  3  0  0  0  0  0  0
  185.6610  177.7030  144.2810 C   0  0  0  0  0  2  0  0  0  0  0  0
  184.6470  178.6850  144.8850 C   0  0  0  0  0  2  0  0  0  0  0  0
  186.7750  177.2940  145.2510 C   0  0  0  0  0  2  0  0  0  0  0  0
  184.5060  178.4870  146.3910 C   0  0  0  0  0  2  0  0  0  0  0  0
  185.9000  180.0750  147.5240 O   0  0  0  0  0  1  0  0  0  0  0  0
  189.9710  174.1740  137.4740 N   0  0  0  0  0  2  0  0  0  0  0  0
  188.6980  174.3680  135.4880 C   0  0  0  0  0  3  0  0  0  0  0  0
  187.7030  173.9320  134.4660 C   0  0  0  0  0  2  0  0  0  0  0  0
  185.9140  173.1940  136.0490 C   0  0  0  0  0  0  0  0  0  0  0  0
  186.8410  172.2860  136.7730 C   0  0  0  0  0  3  0  0  0  0  0  0
  188.9100  173.7150  136.6310 C   0  0  0  0  0  0  0  0  0  0  0  0
  186.3170  173.9480  135.0200 C   0  0  0  0  0  3  0  0  0  0  0  0
  188.1380  172.5080  137.0200 C   0  0  0  0  0  3  0  0  0  0  0  0
  183.6760  172.1020  136.3460 C   0  0  0  0  0  3  0  0  0  0  0  0
  182.3450  172.1540  136.7640 C   0  0  0  0  0  3  0  0  0  0  0  0
  181.8380  173.3040  137.2800 N   0  0  0  0  0  0  0  0  0  0  0  0
  183.9350  174.4090  137.0000 C   0  0  0  0  0  3  0  0  0  0  0  0
  182.5990  174.4310  137.4030 C   0  0  0  0  0  0  0  0  0  0  0  0
  184.4900  173.2370  136.4630 C   0  0  0  0  0  0  0  0  0  0  0  0
  182.9790  176.8510  137.7330 C   0  0  2  0  0  3  0  0  0  0  0  0
  182.0430  175.7100  137.9620 C   0  0  2  0  0  3  0  0  0  0  0  0
  182.8530  176.2140  139.1550 C   0  0  2  0  0  0  0  0  0  0  0  0
  181.8130  176.7890  139.9430 O   0  0  0  0  0  0  0  0  0  0  0  0
  182.0740  178.0320  137.3790 C   0  0  0  0  0  1  0  0  0  0  0  0
  183.0790  177.2430  140.2590 C   0  0  2  0  0  3  0  0  0  0  0  0
  183.2190  178.7200  139.9020 C   0  0  0  0  0  2  0  0  0  0  0  0
  184.6470  179.1290  139.9840 C   0  0  0  0  0  0  0  0  0  0  0  0
  185.3510  179.1630  138.9410 O   0  0  0  0  0  0  0  0  0  0  0  0
  185.1910  179.5110  141.2040 O   0  0  0  0  0  1  0  0  0  0  0  0
  1  2  1  6  0  0  0
  1 32  1  0  0  0  0
  1  8  1  0  0  0  0
  2  3  1  0  0  0  0
  4  3  1  1  0  0  0
  4  7  1  0  0  0  0
  6  4  1  0  0  0  0
  6  7  1  0  0  0  0
  7  5  2  0  0  0  0
  8 10  1  0  0  0  0
  9 10  2  0  0  0  0
 11 15  1  1  0  0  0
 12 11  1  0  0  0  0
 13 11  1  0  0  0  0
 14 10  1  6  0  0  0
 14 12  1  0  0  0  0
 14 13  1  0  0  0  0
 16 19  2  0  0  0  0
 17 22  1  0  0  0  0
 20 23  1  0  0  0  0
 21 17  2  0  0  0  0
 22 16  1  0  0  0  0
 22 18  1  0  0  0  0
 23 18  1  0  0  0  0
 24 15  1  6  0  0  0
 24 17  1  0  0  0  0
 24 20  1  0  0  0  0
 25 31  1  6  0  0  0
 26 25  1  0  0  0  0
 26 16  1  1  0  0  0
 27 28  1  0  0  0  0
 27 29  1  0  0  0  0
 28 30  1  0  0  0  0
 29 26  1  0  0  0  0
 30 25  1  0  0  0  0
 33 37  2  0  0  0  0
 34 38  1  0  0  0  0
 34 33  1  0  0  0  0
 35 45  1  0  0  0  0
 35 36  1  0  0  0  0
 36 39  2  0  0  0  0
 37 39  1  0  0  0  0
 37 32  1  0  0  0  0
 38 35  2  0  0  0  0
 40 45  2  0  0  0  0
 40 41  1  0  0  0  0
 41 42  2  0  0  0  0
 42 44  1  0  0  0  0
 43 44  2  0  0  0  0
 45 43  1  0  0  0  0
 46 50  1  1  0  0  0
 46 47  1  0  0  0  0
 46 48  1  0  0  0  0
 47 44  1  6  0  0  0
 47 48  1  0  0  0  0
 48 49  1  6  0  0  0
 48 51  1  0  0  0  0
 49 51  1  0  0  0  0
 51 52  1  6  0  0  0
 52 53  1  0  0  0  0
 53 55  1  0  0  0  0
 54 53  2  0  0  0  0
M  END
>  <MODEL>
4

>  <REMARK>
 VINA RESULT:      -7.9      2.607     10.125
  Name = 
  15 active torsions:
  status: ('A' for Active; 'I' for Inactive)
    1  A    between atoms: C_2  and  C_27
    2  A    between atoms: C_2  and  C_55
    3  A    between atoms: C_6  and  C_20
    4  A    between atoms: C_10  and  C_14
    5  A    between atoms: C_12  and  C_55
    6  A    between atoms: C_13  and  C_15
    7  A    between atoms: C_14  and  C_54
    8  A    between atoms: C_20  and  C_53
    9  A    between atoms: C_23  and  C_27
   10  A    between atoms: C_23  and  C_34
   11  A    between atoms: C_27  and  N_50
   12  A    between atoms: C_30  and  C_45
   13  A    between atoms: C_33  and  C_46
   14  A    between atoms: C_34  and  C_49
   15  A    between atoms: C_37  and  N_50
                            x       y       z     vdW  Elec       q    Type
                         _______ _______ _______ _____ _____    ______ ____

>  <TORSDO>
F 15

$$$$
=
 OpenBabel10232412283D

 55 62  0  0  1  0  0  0  0  0999 V2000
  190.1620  177.7000  144.4740 C   0  0  2  0  0  3  0  0  0  0  0  0
  191.1920  176.7260  145.0250 C   0  0  0  0  0  2  0  0  0  0  0  0
  191.4520  176.9970  146.4960 C   0  0  0  0  0  2  0  0  0  0  0  0
  191.6320  175.6900  147.2410 C   0  0  1  0  0  3  0  0  0  0  0  0
  193.3170  176.2110  149.0960 O   0  0  0  0  0  0  0  0  0  0  0  0
  192.7360  175.0370  146.7650 O   0  0  0  0  0  0  0  0  0  0  0  0
  192.7350  175.7910  148.0600 C   0  0  0  0  0  0  0  0  0  0  0  0
  189.1920  178.0880  145.5710 C   0  0  0  0  0  2  0  0  0  0  0  0
  187.5150  176.4600  145.2850 O   0  0  0  0  0  0  0  0  0  0  0  0
  187.8120  177.6430  145.2200 C   0  0  0  0  0  0  0  0  0  0  0  0
  184.7160  178.3510  144.8790 C   0  0  2  0  0  3  0  0  0  0  0  0
  185.7220  179.1330  146.1750 S   0  0  0  0  0  0  0  0  0  0  0  0
  185.7910  178.0720  143.9350 N   0  0  0  0  0  2  0  0  0  0  0  0
  186.8030  178.6680  144.7940 C   0  0  2  0  0  3  0  0  0  0  0  0
  183.7490  179.3800  144.2950 C   0  0  0  0  0  2  0  0  0  0  0  0
  181.2210  178.3580  140.0190 C   0  0  0  0  0  0  0  0  0  0  0  0
  182.5320  178.7320  142.1570 C   0  0  0  0  0  0  0  0  0  0  0  0
  180.0840  179.2700  142.0380 C   0  0  0  0  0  2  0  0  0  0  0  0
  180.1790  178.6160  139.3520 O   0  0  0  0  0  0  0  0  0  0  0  0
  181.2260  179.3850  144.2250 C   0  0  0  0  0  2  0  0  0  0  0  0
  183.6420  178.6260  141.5660 O   0  0  0  0  0  0  0  0  0  0  0  0
  181.2960  178.7470  141.4060 N   0  0  0  0  0  0  0  0  0  0  0  0
  180.0040  178.8530  143.4970 C   0  0  0  0  0  2  0  0  0  0  0  0
  182.5000  178.7530  143.6680 C   0  0  2  0  0  3  0  0  0  0  0  0
  182.8380  178.3210  138.1060 C   0  0  2  0  0  3  0  0  0  0  0  0
  182.3270  177.5910  139.3600 C   0  0  2  0  0  3  0  0  0  0  0  0
  183.0270  175.3270  138.4760 C   0  0  0  0  0  2  0  0  0  0  0  0
  184.0670  176.1500  137.7050 C   0  0  0  0  0  2  0  0  0  0  0  0
  181.8760  176.1650  139.0450 C   0  0  0  0  0  2  0  0  0  0  0  0
  183.4370  177.3780  137.0550 C   0  0  0  0  0  2  0  0  0  0  0  0
  183.7840  179.2800  138.4740 O   0  0  0  0  0  1  0  0  0  0  0  0
  189.4230  177.0930  143.3750 N   0  0  0  0  0  2  0  0  0  0  0  0
  188.5460  177.8250  141.3020 C   0  0  0  0  0  3  0  0  0  0  0  0
  188.6180  178.3400  139.9040 C   0  0  0  0  0  2  0  0  0  0  0  0
  190.4220  176.8120  139.0890 C   0  0  0  0  0  0  0  0  0  0  0  0
  191.3400  177.2070  140.1880 C   0  0  0  0  0  3  0  0  0  0  0  0
  189.6180  177.4630  142.0070 C   0  0  0  0  0  0  0  0  0  0  0  0
  189.1860  177.3150  138.9800 C   0  0  0  0  0  3  0  0  0  0  0  0
  190.9940  177.4940  141.4480 C   0  0  0  0  0  3  0  0  0  0  0  0
  190.0200  174.9560  137.4510 C   0  0  0  0  0  3  0  0  0  0  0  0
  190.4880  174.0790  136.4700 C   0  0  0  0  0  3  0  0  0  0  0  0
  191.7980  174.0930  136.1140 N   0  0  0  0  0  0  0  0  0  0  0  0
  192.2520  175.8420  137.6730 C   0  0  0  0  0  3  0  0  0  0  0  0
  192.6900  174.9490  136.6940 C   0  0  0  0  0  0  0  0  0  0  0  0
  190.9050  175.8550  138.0640 C   0  0  0  0  0  0  0  0  0  0  0  0
  194.7100  173.5810  136.2970 C   0  0  2  0  0  3  0  0  0  0  0  0
  194.1430  174.9620  136.3130 C   0  0  2  0  0  3  0  0  0  0  0  0
  195.0450  174.5520  137.4750 C   0  0  2  0  0  0  0  0  0  0  0  0
  196.1780  175.3800  137.2220 O   0  0  0  0  0  0  0  0  0  0  0  0
  195.6420  173.5550  135.0850 C   0  0  0  0  0  1  0  0  0  0  0  0
  196.4400  174.2980  138.0390 C   0  0  2  0  0  3  0  0  0  0  0  0
  197.3740  173.3150  137.3400 C   0  0  0  0  0  2  0  0  0  0  0  0
  198.6860  173.9650  137.0700 C   0  0  0  0  0  0  0  0  0  0  0  0
  199.1250  174.0260  135.8930 O   0  0  0  0  0  0  0  0  0  0  0  0
  199.4050  174.5370  138.1130 O   0  0  0  0  0  1  0  0  0  0  0  0
  1  2  1  1  0  0  0
  1  8  1  0  0  0  0
  2  3  1  0  0  0  0
  4  3  1  6  0  0  0
  4  7  1  0  0  0  0
  6  4  1  0  0  0  0
  6  7  1  0  0  0  0
  7  5  2  0  0  0  0
 10  9  2  0  0  0  0
 10  8  1  0  0  0  0
 11 15  1  6  0  0  0
 11 12  1  0  0  0  0
 13 14  1  0  0  0  0
 13 11  1  0  0  0  0
 14 10  1  1  0  0  0
 14 12  1  0  0  0  0
 16 22  1  0  0  0  0
 17 24  1  0  0  0  0
 18 23  1  0  0  0  0
 19 16  2  0  0  0  0
 21 17  2  0  0  0  0
 22 18  1  0  0  0  0
 22 17  1  0  0  0  0
 23 20  1  0  0  0  0
 24 20  1  0  0  0  0
 24 15  1  6  0  0  0
 25 31  1  1  0  0  0
 25 26  1  0  0  0  0
 26 16  1  6  0  0  0
 27 29  1  0  0  0  0
 28 27  1  0  0  0  0
 29 26  1  0  0  0  0
 30 28  1  0  0  0  0
 30 25  1  0  0  0  0
 32  1  1  0  0  0  0
 33 37  2  0  0  0  0
 34 33  1  0  0  0  0
 35 36  1  0  0  0  0
 36 39  2  0  0  0  0
 37 32  1  0  0  0  0
 38 35  2  0  0  0  0
 38 34  1  0  0  0  0
 39 37  1  0  0  0  0
 40 45  1  0  0  0  0
 41 40  2  0  0  0  0
 42 41  1  0  0  0  0
 42 44  2  0  0  0  0
 43 45  2  0  0  0  0
 44 43  1  0  0  0  0
 45 35  1  0  0  0  0
 46 50  1  6  0  0  0
 46 47  1  0  0  0  0
 46 48  1  0  0  0  0
 47 44  1  1  0  0  0
 47 48  1  0  0  0  0
 48 49  1  6  0  0  0
 48 51  1  0  0  0  0
 49 51  1  0  0  0  0
 51 52  1  6  0  0  0
 53 52  1  0  0  0  0
 53 55  1  0  0  0  0
 54 53  2  0  0  0  0
M  END
>  <MODEL>
5

>  <REMARK>
 VINA RESULT:      -7.3      1.776      2.678
  Name = 
  15 active torsions:
  status: ('A' for Active; 'I' for Inactive)
    1  A    between atoms: C_2  and  C_27
    2  A    between atoms: C_2  and  C_55
    3  A    between atoms: C_6  and  C_20
    4  A    between atoms: C_10  and  C_14
    5  A    between atoms: C_12  and  C_55
    6  A    between atoms: C_13  and  C_15
    7  A    between atoms: C_14  and  C_54
    8  A    between atoms: C_20  and  C_53
    9  A    between atoms: C_23  and  C_27
   10  A    between atoms: C_23  and  C_34
   11  A    between atoms: C_27  and  N_50
   12  A    between atoms: C_30  and  C_45
   13  A    between atoms: C_33  and  C_46
   14  A    between atoms: C_34  and  C_49
   15  A    between atoms: C_37  and  N_50
                            x       y       z     vdW  Elec       q    Type
                         _______ _______ _______ _____ _____    ______ ____

>  <TORSDO>
F 15

$$$$
=
 OpenBabel10232412283D

 55 62  0  0  1  0  0  0  0  0999 V2000
  184.2380  178.8510  139.4870 C   0  0  2  0  0  3  0  0  0  0  0  0
  183.4050  179.9660  138.8730 C   0  0  0  0  0  2  0  0  0  0  0  0
  182.2360  179.3940  138.0920 C   0  0  0  0  0  2  0  0  0  0  0  0
  181.1160  180.4110  138.0130 C   0  0  1  0  0  3  0  0  0  0  0  0
  182.2650  182.6850  138.2450 O   0  0  0  0  0  0  0  0  0  0  0  0
  180.7220  180.7610  139.2760 O   0  0  0  0  0  0  0  0  0  0  0  0
  181.5930  181.6350  138.4260 C   0  0  0  0  0  0  0  0  0  0  0  0
  184.5220  179.1710  140.9410 C   0  0  0  0  0  2  0  0  0  0  0  0
  182.2320  178.9110  141.4230 O   0  0  0  0  0  0  0  0  0  0  0  0
  183.3820  178.7340  141.7970 C   0  0  0  0  0  0  0  0  0  0  0  0
  185.0920  178.8030  144.4940 C   0  0  2  0  0  3  0  0  0  0  0  0
  183.3170  179.1940  144.4960 S   0  0  0  0  0  0  0  0  0  0  0  0
  185.1030  177.9380  143.3220 N   0  0  0  0  0  2  0  0  0  0  0  0
  183.6700  178.0740  143.1120 C   0  0  2  0  0  3  0  0  0  0  0  0
  185.4370  178.0040  145.7500 C   0  0  0  0  0  2  0  0  0  0  0  0
  190.3920  176.9220  145.7560 C   0  0  0  0  0  0  0  0  0  0  0  0
  187.9430  177.5740  145.6650 C   0  0  0  0  0  0  0  0  0  0  0  0
  189.1210  177.3000  147.8640 C   0  0  0  0  0  2  0  0  0  0  0  0
  191.3450  176.4620  146.4480 O   0  0  0  0  0  0  0  0  0  0  0  0
  186.8280  178.2160  147.8460 C   0  0  0  0  0  2  0  0  0  0  0  0
  187.8400  177.2490  144.4510 O   0  0  0  0  0  0  0  0  0  0  0  0
  189.1580  177.2980  146.4010 N   0  0  0  0  0  0  0  0  0  0  0  0
  188.2320  178.4160  148.3880 C   0  0  0  0  0  2  0  0  0  0  0  0
  186.8180  178.3390  146.3230 C   0  0  2  0  0  3  0  0  0  0  0  0
  191.5510  176.0620  143.7090 C   0  0  2  0  0  3  0  0  0  0  0  0
  190.6000  177.1250  144.2860 C   0  0  2  0  0  3  0  0  0  0  0  0
  191.2060  178.8100  142.5000 C   0  0  0  0  0  2  0  0  0  0  0  0
  191.5070  177.5540  141.6710 C   0  0  0  0  0  2  0  0  0  0  0  0
  191.0960  178.5430  144.0050 C   0  0  0  0  0  2  0  0  0  0  0  0
  192.3190  176.5390  142.4700 C   0  0  0  0  0  2  0  0  0  0  0  0
  190.8300  174.9050  143.4020 O   0  0  0  0  0  1  0  0  0  0  0  0
  185.5000  178.7060  138.7740 N   0  0  0  0  0  2  0  0  0  0  0  0
  184.7170  176.9460  137.3990 C   0  0  0  0  0  3  0  0  0  0  0  0
  184.6920  176.0820  136.1830 C   0  0  0  0  0  2  0  0  0  0  0  0
  187.1560  175.6920  136.0120 C   0  0  0  0  0  0  0  0  0  0  0  0
  187.4490  177.1480  136.0130 C   0  0  0  0  0  3  0  0  0  0  0  0
  185.6540  177.8660  137.6260 C   0  0  0  0  0  0  0  0  0  0  0  0
  185.9070  175.2190  136.1090 C   0  0  0  0  0  3  0  0  0  0  0  0
  186.7980  178.0900  136.7060 C   0  0  0  0  0  3  0  0  0  0  0  0
  188.0420  173.3580  135.7760 C   0  0  0  0  0  3  0  0  0  0  0  0
  189.1120  172.4760  135.6140 C   0  0  0  0  0  3  0  0  0  0  0  0
  190.3820  172.9510  135.5500 N   0  0  0  0  0  0  0  0  0  0  0  0
  189.6060  175.1940  135.7970 C   0  0  0  0  0  3  0  0  0  0  0  0
  190.6540  174.2860  135.6420 C   0  0  0  0  0  0  0  0  0  0  0  0
  188.2810  174.7370  135.8670 C   0  0  0  0  0  0  0  0  0  0  0  0
  193.0500  173.7640  135.9480 C   0  0  2  0  0  3  0  0  0  0  0  0
  192.0570  174.8190  135.5820 C   0  0  2  0  0  3  0  0  0  0  0  0
  192.7000  174.8980  136.9650 C   0  0  2  0  0  0  0  0  0  0  0  0
  193.4990  176.0690  136.8060 O   0  0  0  0  0  0  0  0  0  0  0  0
  194.2210  173.9810  134.9870 C   0  0  0  0  0  1  0  0  0  0  0  0
  193.8910  175.2530  137.8500 C   0  0  2  0  0  3  0  0  0  0  0  0
  195.2590  174.6410  137.5620 C   0  0  0  0  0  2  0  0  0  0  0  0
  195.7090  173.8320  138.7280 C   0  0  0  0  0  0  0  0  0  0  0  0
  196.3870  174.3710  139.6410 O   0  0  0  0  0  1  0  0  0  0  0  0
  195.3470  172.4940  138.8250 O   0  0  0  0  0  0  0  0  0  0  0  0
  1  2  1  6  0  0  0
  1  8  1  0  0  0  0
  3  2  1  0  0  0  0
  4  3  1  1  0  0  0
  4  7  1  0  0  0  0
  4  6  1  0  0  0  0
  5  7  2  0  0  0  0
  7  6  1  0  0  0  0
  8 10  1  0  0  0  0
  9 10  2  0  0  0  0
 11 12  1  0  0  0  0
 11 15  1  1  0  0  0
 13 11  1  0  0  0  0
 14 10  1  6  0  0  0
 14 13  1  0  0  0  0
 14 12  1  0  0  0  0
 16 22  1  0  0  0  0
 16 19  2  0  0  0  0
 17 24  1  0  0  0  0
 17 22  1  0  0  0  0
 18 23  1  0  0  0  0
 20 23  1  0  0  0  0
 21 17  2  0  0  0  0
 22 18  1  0  0  0  0
 24 15  1  6  0  0  0
 24 20  1  0  0  0  0
 25 31  1  6  0  0  0
 25 26  1  0  0  0  0
 26 16  1  1  0  0  0
 27 29  1  0  0  0  0
 28 30  1  0  0  0  0
 28 27  1  0  0  0  0
 29 26  1  0  0  0  0
 30 25  1  0  0  0  0
 32  1  1  0  0  0  0
 33 37  2  0  0  0  0
 34 33  1  0  0  0  0
 35 36  1  0  0  0  0
 35 38  2  0  0  0  0
 36 39  2  0  0  0  0
 37 32  1  0  0  0  0
 38 34  1  0  0  0  0
 39 37  1  0  0  0  0
 40 45  1  0  0  0  0
 41 40  2  0  0  0  0
 42 41  1  0  0  0  0
 42 44  2  0  0  0  0
 43 45  2  0  0  0  0
 44 43  1  0  0  0  0
 45 35  1  0  0  0  0
 46 50  1  6  0  0  0
 46 48  1  0  0  0  0
 47 44  1  1  0  0  0
 47 46  1  0  0  0  0
 47 48  1  0  0  0  0
 48 49  1  6  0  0  0
 48 51  1  0  0  0  0
 49 51  1  0  0  0  0
 51 52  1  6  0  0  0
 52 53  1  0  0  0  0
 53 55  2  0  0  0  0
 53 54  1  0  0  0  0
M  END
>  <MODEL>
6

>  <REMARK>
 VINA RESULT:      -6.9      2.323      7.408
  Name = 
  15 active torsions:
  status: ('A' for Active; 'I' for Inactive)
    1  A    between atoms: C_2  and  C_27
    2  A    between atoms: C_2  and  C_55
    3  A    between atoms: C_6  and  C_20
    4  A    between atoms: C_10  and  C_14
    5  A    between atoms: C_12  and  C_55
    6  A    between atoms: C_13  and  C_15
    7  A    between atoms: C_14  and  C_54
    8  A    between atoms: C_20  and  C_53
    9  A    between atoms: C_23  and  C_27
   10  A    between atoms: C_23  and  C_34
   11  A    between atoms: C_27  and  N_50
   12  A    between atoms: C_30  and  C_45
   13  A    between atoms: C_33  and  C_46
   14  A    between atoms: C_34  and  C_49
   15  A    between atoms: C_37  and  N_50
                            x       y       z     vdW  Elec       q    Type
                         _______ _______ _______ _____ _____    ______ ____

>  <TORSDO>
F 15

$$$$
=
 OpenBabel10232412283D

 55 62  0  0  1  0  0  0  0  0999 V2000
  187.9800  177.5020  138.1600 C   0  0  2  0  0  3  0  0  0  0  0  0
  187.1930  176.2550  137.7890 C   0  0  0  0  0  2  0  0  0  0  0  0
  187.1570  176.0740  136.2820 C   0  0  0  0  0  2  0  0  0  0  0  0
  186.0260  175.1410  135.8980 C   0  0  1  0  0  3  0  0  0  0  0  0
  184.0650  176.6780  135.3140 O   0  0  0  0  0  0  0  0  0  0  0  0
  185.2150  174.9310  136.9790 O   0  0  0  0  0  0  0  0  0  0  0  0
  184.8500  175.8560  135.8590 C   0  0  0  0  0  0  0  0  0  0  0  0
  188.5920  177.3260  139.5350 C   0  0  0  0  0  2  0  0  0  0  0  0
  190.6080  177.1420  138.3310 O   0  0  0  0  0  0  0  0  0  0  0  0
  190.0540  177.0560  139.4170 C   0  0  0  0  0  0  0  0  0  0  0  0
  190.8010  177.8190  142.4280 C   0  0  2  0  0  3  0  0  0  0  0  0
  189.7190  176.4060  142.0570 S   0  0  0  0  0  0  0  0  0  0  0  0
  191.5460  177.8330  141.1760 N   0  0  0  0  0  2  0  0  0  0  0  0
  190.8280  176.6830  140.6470 C   0  0  2  0  0  3  0  0  0  0  0  0
  191.7230  177.4610  143.5920 C   0  0  0  0  0  2  0  0  0  0  0  0
  188.2650  177.9980  147.2640 C   0  0  0  0  0  0  0  0  0  0  0  0
  189.8940  177.6610  145.3500 C   0  0  0  0  0  0  0  0  0  0  0  0
  190.4710  176.9210  147.6770 C   0  0  0  0  0  2  0  0  0  0  0  0
  188.0910  178.0530  148.5150 O   0  0  0  0  0  0  0  0  0  0  0  0
  191.9770  176.3000  145.8200 C   0  0  0  0  0  2  0  0  0  0  0  0
  189.2660  178.4540  144.5960 O   0  0  0  0  0  0  0  0  0  0  0  0
  189.5150  177.5070  146.7380 N   0  0  0  0  0  0  0  0  0  0  0  0
  191.2350  175.7730  147.0360 C   0  0  0  0  0  2  0  0  0  0  0  0
  190.9910  176.8000  144.7650 C   0  0  2  0  0  3  0  0  0  0  0  0
  185.8900  178.7880  147.1720 C   0  0  2  0  0  3  0  0  0  0  0  0
  187.1340  178.3860  146.3610 C   0  0  2  0  0  3  0  0  0  0  0  0
  185.7520  177.6810  144.3630 C   0  0  0  0  0  2  0  0  0  0  0  0
  184.7570  178.7110  144.9140 C   0  0  0  0  0  2  0  0  0  0  0  0
  186.8290  177.2620  145.3710 C   0  0  0  0  0  2  0  0  0  0  0  0
  184.5720  178.5570  146.4210 C   0  0  0  0  0  2  0  0  0  0  0  0
  185.9900  180.1300  147.5480 O   0  0  0  0  0  1  0  0  0  0  0  0
  187.1090  178.6700  138.1710 N   0  0  0  0  0  2  0  0  0  0  0  0
  185.8760  178.6070  140.1900 C   0  0  0  0  0  3  0  0  0  0  0  0
  184.6570  178.7380  141.0410 C   0  0  0  0  0  2  0  0  0  0  0  0
  183.0810  177.5080  139.5390 C   0  0  0  0  0  0  0  0  0  0  0  0
  183.4050  178.3800  138.3810 C   0  0  0  0  0  3  0  0  0  0  0  0
  185.8560  178.7010  138.8610 C   0  0  0  0  0  0  0  0  0  0  0  0
  183.6670  177.6650  140.7330 C   0  0  0  0  0  3  0  0  0  0  0  0
  184.6030  178.9000  138.0890 C   0  0  0  0  0  3  0  0  0  0  0  0
  181.0460  176.2770  140.3340 C   0  0  0  0  0  3  0  0  0  0  0  0
  180.0700  175.2950  140.1480 C   0  0  0  0  0  3  0  0  0  0  0  0
  180.0990  174.5080  139.0410 N   0  0  0  0  0  0  0  0  0  0  0  0
  182.0520  175.6220  138.2420 C   0  0  0  0  0  3  0  0  0  0  0  0
  181.0680  174.6450  138.0890 C   0  0  0  0  0  0  0  0  0  0  0  0
  182.0520  176.4530  139.3730 C   0  0  0  0  0  0  0  0  0  0  0  0
  181.1100  172.3250  137.2390 C   0  0  2  0  0  3  0  0  0  0  0  0
  181.1120  173.7720  136.8670 C   0  0  2  0  0  3  0  0  0  0  0  0
  182.4300  173.0080  136.7560 C   0  0  2  0  0  0  0  0  0  0  0  0
  182.5930  172.9890  135.3390 O   0  0  0  0  0  0  0  0  0  0  0  0
  180.2110  171.6570  136.1970 C   0  0  0  0  0  1  0  0  0  0  0  0
  183.3320  172.0320  136.0060 C   0  0  2  0  0  3  0  0  0  0  0  0
  182.8220  170.6340  135.6690 C   0  0  0  0  0  2  0  0  0  0  0  0
  183.9450  169.6590  135.7130 C   0  0  0  0  0  0  0  0  0  0  0  0
  183.7100  168.4390  135.9110 O   0  0  0  0  0  1  0  0  0  0  0  0
  185.2480  170.0910  135.4960 O   0  0  0  0  0  0  0  0  0  0  0  0
  1  2  1  1  0  0  0
  1 32  1  0  0  0  0
  1  8  1  0  0  0  0
  3  2  1  0  0  0  0
  4  3  1  1  0  0  0
  4  6  1  0  0  0  0
  5  7  2  0  0  0  0
  7  4  1  0  0  0  0
  7  6  1  0  0  0  0
  9 10  2  0  0  0  0
 10  8  1  0  0  0  0
 11 15  1  1  0  0  0
 12 11  1  0  0  0  0
 13 11  1  0  0  0  0
 14 10  1  6  0  0  0
 14 13  1  0  0  0  0
 14 12  1  0  0  0  0
 16 19  2  0  0  0  0
 17 22  1  0  0  0  0
 20 23  1  0  0  0  0
 21 17  2  0  0  0  0
 22 16  1  0  0  0  0
 22 18  1  0  0  0  0
 23 18  1  0  0  0  0
 24 15  1  6  0  0  0
 24 17  1  0  0  0  0
 24 20  1  0  0  0  0
 25 31  1  6  0  0  0
 26 25  1  0  0  0  0
 26 16  1  1  0  0  0
 27 28  1  0  0  0  0
 27 29  1  0  0  0  0
 28 30  1  0  0  0  0
 29 26  1  0  0  0  0
 30 25  1  0  0  0  0
 32 37  1  0  0  0  0
 33 34  1  0  0  0  0
 35 38  2  0  0  0  0
 36 35  1  0  0  0  0
 37 33  2  0  0  0  0
 38 34  1  0  0  0  0
 39 36  2  0  0  0  0
 39 37  1  0  0  0  0
 41 40  1  0  0  0  0
 42 41  2  0  0  0  0
 43 45  1  0  0  0  0
 44 43  2  0  0  0  0
 44 42  1  0  0  0  0
 45 35  1  0  0  0  0
 45 40  2  0  0  0  0
 46 50  1  6  0  0  0
 47 46  1  0  0  0  0
 47 44  1  1  0  0  0
 48 49  1  6  0  0  0
 48 47  1  0  0  0  0
 48 46  1  0  0  0  0
 49 51  1  0  0  0  0
 51 52  1  6  0  0  0
 51 48  1  0  0  0  0
 52 53  1  0  0  0  0
 53 54  1  0  0  0  0
 55 53  2  0  0  0  0
M  END
>  <MODEL>
7

>  <REMARK>
 VINA RESULT:      -6.8      3.906     10.456
  Name = 
  15 active torsions:
  status: ('A' for Active; 'I' for Inactive)
    1  A    between atoms: C_2  and  C_27
    2  A    between atoms: C_2  and  C_55
    3  A    between atoms: C_6  and  C_20
    4  A    between atoms: C_10  and  C_14
    5  A    between atoms: C_12  and  C_55
    6  A    between atoms: C_13  and  C_15
    7  A    between atoms: C_14  and  C_54
    8  A    between atoms: C_20  and  C_53
    9  A    between atoms: C_23  and  C_27
   10  A    between atoms: C_23  and  C_34
   11  A    between atoms: C_27  and  N_50
   12  A    between atoms: C_30  and  C_45
   13  A    between atoms: C_33  and  C_46
   14  A    between atoms: C_34  and  C_49
   15  A    between atoms: C_37  and  N_50
                            x       y       z     vdW  Elec       q    Type
                         _______ _______ _______ _____ _____    ______ ____

>  <TORSDO>
F 15

$$$$
=
 OpenBabel10232412283D

 55 62  0  0  1  0  0  0  0  0999 V2000
  185.0780  179.5540  142.5920 C   0  0  2  0  0  3  0  0  0  0  0  0
  184.6430  179.9090  144.0060 C   0  0  0  0  0  2  0  0  0  0  0  0
  184.8080  178.7170  144.9310 C   0  0  0  0  0  2  0  0  0  0  0  0
  185.5030  179.1430  146.2090 C   0  0  1  0  0  3  0  0  0  0  0  0
  187.3970  177.4520  146.5300 O   0  0  0  0  0  0  0  0  0  0  0  0
  185.0150  178.4200  147.2630 O   0  0  0  0  0  0  0  0  0  0  0  0
  186.3380  178.1290  146.6230 C   0  0  0  0  0  0  0  0  0  0  0  0
  184.5390  178.1860  142.2230 C   0  0  0  0  0  2  0  0  0  0  0  0
  182.2550  178.7540  142.1480 O   0  0  0  0  0  0  0  0  0  0  0  0
  183.2210  178.3200  141.5380 C   0  0  0  0  0  0  0  0  0  0  0  0
  181.4560  176.8560  139.3140 C   0  0  2  0  0  3  0  0  0  0  0  0
  181.6400  178.6650  139.3280 S   0  0  0  0  0  0  0  0  0  0  0  0
  182.7100  176.5240  139.9770 N   0  0  0  0  0  2  0  0  0  0  0  0
  183.1050  177.9190  140.0980 C   0  0  2  0  0  3  0  0  0  0  0  0
  181.4680  176.3560  137.8700 C   0  0  0  0  0  2  0  0  0  0  0  0
  185.2750  174.0020  135.4850 C   0  0  0  0  0  0  0  0  0  0  0  0
  183.4590  175.1940  136.7930 C   0  0  0  0  0  0  0  0  0  0  0  0
  183.0370  172.9460  135.7600 C   0  0  0  0  0  2  0  0  0  0  0  0
  185.5650  173.0990  134.6490 O   0  0  0  0  0  0  0  0  0  0  0  0
  181.3260  173.9110  137.2570 C   0  0  0  0  0  2  0  0  0  0  0  0
  184.0770  176.2930  136.7640 O   0  0  0  0  0  0  0  0  0  0  0  0
  183.9480  174.0540  136.0470 N   0  0  0  0  0  0  0  0  0  0  0  0
  182.1300  172.6610  136.9460 C   0  0  0  0  0  2  0  0  0  0  0  0
  182.2490  175.0500  137.6870 C   0  0  2  0  0  3  0  0  0  0  0  0
  186.9870  175.6570  134.7080 C   0  0  2  0  0  3  0  0  0  0  0  0
  186.3480  174.9550  135.9190 C   0  0  2  0  0  3  0  0  0  0  0  0
  188.4340  175.2130  137.3250 C   0  0  0  0  0  2  0  0  0  0  0  0
  188.6720  176.4330  136.4240 C   0  0  0  0  0  2  0  0  0  0  0  0
  187.3890  174.2350  136.7750 C   0  0  0  0  0  2  0  0  0  0  0  0
  188.4360  176.0960  134.9550 C   0  0  0  0  0  2  0  0  0  0  0  0
  186.2140  176.7630  134.3460 O   0  0  0  0  0  1  0  0  0  0  0  0
  186.5320  179.5370  142.4950 N   0  0  0  0  0  2  0  0  0  0  0  0
  187.7000  177.5910  143.1660 C   0  0  0  0  0  3  0  0  0  0  0  0
  188.3870  176.2830  142.9630 C   0  0  0  0  0  2  0  0  0  0  0  0
  189.7620  176.9440  140.9810 C   0  0  0  0  0  0  0  0  0  0  0  0
  188.5680  177.4020  140.2270 C   0  0  0  0  0  3  0  0  0  0  0  0
  187.2760  178.3610  142.1640 C   0  0  0  0  0  0  0  0  0  0  0  0
  189.6730  176.4570  142.2260 C   0  0  0  0  0  3  0  0  0  0  0  0
  187.4900  178.0100  140.7370 C   0  0  0  0  0  3  0  0  0  0  0  0
  192.1690  177.6460  140.9380 C   0  0  0  0  0  3  0  0  0  0  0  0
  193.4180  177.6660  140.3130 C   0  0  0  0  0  3  0  0  0  0  0  0
  193.5850  177.0650  139.1070 N   0  0  0  0  0  0  0  0  0  0  0  0
  191.2960  176.3890  139.0750 C   0  0  0  0  0  3  0  0  0  0  0  0
  192.5540  176.4320  138.4730 C   0  0  0  0  0  0  0  0  0  0  0  0
  191.0890  176.9990  140.3210 C   0  0  0  0  0  0  0  0  0  0  0  0
  192.3330  174.3340  137.1850 C   0  0  2  0  0  3  0  0  0  0  0  0
  192.7280  175.7740  137.1330 C   0  0  2  0  0  3  0  0  0  0  0  0
  193.8450  174.7320  137.1470 C   0  0  2  0  0  0  0  0  0  0  0  0
  194.3560  174.8910  135.8260 O   0  0  0  0  0  0  0  0  0  0  0  0
  191.6120  174.0800  135.8600 C   0  0  0  0  0  1  0  0  0  0  0  0
  194.6870  173.6890  136.4200 C   0  0  2  0  0  3  0  0  0  0  0  0
  194.0040  172.5310  135.6970 C   0  0  0  0  0  2  0  0  0  0  0  0
  194.2500  171.2590  136.4280 C   0  0  0  0  0  0  0  0  0  0  0  0
  194.9510  171.2620  137.4730 O   0  0  0  0  0  1  0  0  0  0  0  0
  193.6740  170.0770  135.9790 O   0  0  0  0  0  0  0  0  0  0  0  0
  1  8  1  1  0  0  0
  1  2  1  0  0  0  0
  2  3  1  0  0  0  0
  4  3  1  6  0  0  0
  4  7  1  0  0  0  0
  4  6  1  0  0  0  0
  5  7  2  0  0  0  0
  7  6  1  0  0  0  0
 10  9  2  0  0  0  0
 10  8  1  0  0  0  0
 11 15  1  6  0  0  0
 11 12  1  0  0  0  0
 11 13  1  0  0  0  0
 12 14  1  0  0  0  0
 13 14  1  0  0  0  0
 14 10  1  1  0  0  0
 16 22  1  0  0  0  0
 17 24  1  0  0  0  0
 18 22  1  0  0  0  0
 18 23  1  0  0  0  0
 19 16  2  0  0  0  0
 20 24  1  0  0  0  0
 21 17  2  0  0  0  0
 22 17  1  0  0  0  0
 23 20  1  0  0  0  0
 24 15  1  6  0  0  0
 25 31  1  1  0  0  0
 25 30  1  0  0  0  0
 25 26  1  0  0  0  0
 26 16  1  6  0  0  0
 26 29  1  0  0  0  0
 28 27  1  0  0  0  0
 29 27  1  0  0  0  0
 30 28  1  0  0  0  0
 32  1  1  0  0  0  0
 34 33  1  0  0  0  0
 35 38  2  0  0  0  0
 36 39  2  0  0  0  0
 36 35  1  0  0  0  0
 37 32  1  0  0  0  0
 37 33  2  0  0  0  0
 38 34  1  0  0  0  0
 39 37  1  0  0  0  0
 41 40  2  0  0  0  0
 42 41  1  0  0  0  0
 43 45  2  0  0  0  0
 44 43  1  0  0  0  0
 44 42  2  0  0  0  0
 45 40  1  0  0  0  0
 45 35  1  0  0  0  0
 46 50  1  6  0  0  0
 47 48  1  0  0  0  0
 47 46  1  0  0  0  0
 47 44  1  1  0  0  0
 48 49  1  6  0  0  0
 48 46  1  0  0  0  0
 49 51  1  0  0  0  0
 51 52  1  6  0  0  0
 51 48  1  0  0  0  0
 52 53  1  0  0  0  0
 53 54  1  0  0  0  0
 55 53  2  0  0  0  0
M  END
>  <MODEL>
8

>  <REMARK>
 VINA RESULT:      -6.6      2.369      4.235
  Name = 
  15 active torsions:
  status: ('A' for Active; 'I' for Inactive)
    1  A    between atoms: C_2  and  C_27
    2  A    between atoms: C_2  and  C_55
    3  A    between atoms: C_6  and  C_20
    4  A    between atoms: C_10  and  C_14
    5  A    between atoms: C_12  and  C_55
    6  A    between atoms: C_13  and  C_15
    7  A    between atoms: C_14  and  C_54
    8  A    between atoms: C_20  and  C_53
    9  A    between atoms: C_23  and  C_27
   10  A    between atoms: C_23  and  C_34
   11  A    between atoms: C_27  and  N_50
   12  A    between atoms: C_30  and  C_45
   13  A    between atoms: C_33  and  C_46
   14  A    between atoms: C_34  and  C_49
   15  A    between atoms: C_37  and  N_50
                            x       y       z     vdW  Elec       q    Type
                         _______ _______ _______ _____ _____    ______ ____

>  <TORSDO>
F 15

$$$$
=
 OpenBabel10232412283D

 55 62  0  0  1  0  0  0  0  0999 V2000
  190.8270  176.8010  140.0980 C   0  0  2  0  0  3  0  0  0  0  0  0
  191.4820  175.9570  139.0150 C   0  0  0  0  0  2  0  0  0  0  0  0
  192.6080  176.7250  138.3470 C   0  0  0  0  0  2  0  0  0  0  0  0
  193.5530  175.7640  137.6550 C   0  0  1  0  0  3  0  0  0  0  0  0
  194.5200  177.0830  135.6870 O   0  0  0  0  0  0  0  0  0  0  0  0
  192.9110  175.1580  136.6100 O   0  0  0  0  0  0  0  0  0  0  0  0
  193.8890  176.2770  136.4220 C   0  0  0  0  0  0  0  0  0  0  0  0
  190.1490  178.0010  139.4670 C   0  0  0  0  0  2  0  0  0  0  0  0
  188.2430  177.7980  140.8350 O   0  0  0  0  0  0  0  0  0  0  0  0
  188.6780  177.9430  139.7020 C   0  0  0  0  0  0  0  0  0  0  0  0
  188.2070  177.3570  136.5970 C   0  0  2  0  0  3  0  0  0  0  0  0
  187.2980  176.4390  137.8750 S   0  0  0  0  0  0  0  0  0  0  0  0
  188.4520  178.5730  137.3620 N   0  0  0  0  0  2  0  0  0  0  0  0
  187.7480  178.0700  138.5320 C   0  0  2  0  0  3  0  0  0  0  0  0
  187.2760  177.6470  135.4200 C   0  0  0  0  0  2  0  0  0  0  0  0
  183.5130  174.2750  135.8490 C   0  0  0  0  0  0  0  0  0  0  0  0
  185.3170  176.0270  135.5310 C   0  0  0  0  0  0  0  0  0  0  0  0
  185.8600  173.5810  135.3950 C   0  0  0  0  0  2  0  0  0  0  0  0
  183.2350  173.0670  136.0990 O   0  0  0  0  0  0  0  0  0  0  0  0
  187.6020  175.2240  134.7890 C   0  0  0  0  0  2  0  0  0  0  0  0
  184.5940  176.9450  136.0060 O   0  0  0  0  0  0  0  0  0  0  0  0
  184.8750  174.6500  135.5620 N   0  0  0  0  0  0  0  0  0  0  0  0
  186.8990  173.9520  134.3490 C   0  0  0  0  0  2  0  0  0  0  0  0
  186.6150  176.3890  134.8460 C   0  0  2  0  0  3  0  0  0  0  0  0
  181.4640  175.1320  137.0090 C   0  0  2  0  0  3  0  0  0  0  0  0
  182.3970  175.2740  135.7930 C   0  0  2  0  0  3  0  0  0  0  0  0
  180.5620  176.2420  134.3460 C   0  0  0  0  0  2  0  0  0  0  0  0
  179.9940  176.7100  135.6920 C   0  0  0  0  0  2  0  0  0  0  0  0
  181.6350  175.1530  134.4750 C   0  0  0  0  0  2  0  0  0  0  0  0
  180.0280  175.5940  136.7320 C   0  0  0  0  0  2  0  0  0  0  0  0
  181.9900  175.8460  138.0890 O   0  0  0  0  0  1  0  0  0  0  0  0
  191.8220  177.2630  141.0570 N   0  0  0  0  0  2  0  0  0  0  0  0
  191.7450  176.0900  143.1100 C   0  0  0  0  0  3  0  0  0  0  0  0
  191.6600  175.9540  144.5940 C   0  0  0  0  0  2  0  0  0  0  0  0
  189.7960  177.5800  144.9610 C   0  0  0  0  0  0  0  0  0  0  0  0
  190.5190  178.6650  144.2480 C   0  0  0  0  0  3  0  0  0  0  0  0
  191.6060  177.2500  142.4710 C   0  0  0  0  0  0  0  0  0  0  0  0
  190.3120  176.3520  145.0960 C   0  0  0  0  0  3  0  0  0  0  0  0
  191.3050  178.5230  143.1740 C   0  0  0  0  0  3  0  0  0  0  0  0
  188.2580  177.6750  146.9400 C   0  0  0  0  0  3  0  0  0  0  0  0
  187.0180  177.9880  147.5010 C   0  0  0  0  0  3  0  0  0  0  0  0
  186.0240  178.4850  146.7200 N   0  0  0  0  0  0  0  0  0  0  0  0
  187.4300  178.3960  144.7930 C   0  0  0  0  0  3  0  0  0  0  0  0
  186.1990  178.6920  145.3820 C   0  0  0  0  0  0  0  0  0  0  0  0
  188.4780  177.8810  145.5700 C   0  0  0  0  0  0  0  0  0  0  0  0
  184.0570  178.1960  144.2540 C   0  0  2  0  0  3  0  0  0  0  0  0
  185.1020  179.2320  144.5100 C   0  0  2  0  0  3  0  0  0  0  0  0
  185.0820  178.5680  143.1340 C   0  0  2  0  0  0  0  0  0  0  0  0
  184.6660  179.6690  142.3280 O   0  0  0  0  0  0  0  0  0  0  0  0
  182.7310  178.9570  144.3120 C   0  0  0  0  0  1  0  0  0  0  0  0
  184.4740  178.4330  141.7420 C   0  0  2  0  0  3  0  0  0  0  0  0
  182.9840  178.1410  141.5890 C   0  0  0  0  0  2  0  0  0  0  0  0
  182.4130  178.9720  140.4950 C   0  0  0  0  0  0  0  0  0  0  0  0
  181.2620  179.4660  140.6180 O   0  0  0  0  0  1  0  0  0  0  0  0
  183.1650  179.2350  139.3570 O   0  0  0  0  0  0  0  0  0  0  0  0
  1  2  1  6  0  0  0
  1 32  1  0  0  0  0
  3  2  1  0  0  0  0
  4  3  1  1  0  0  0
  5  7  2  0  0  0  0
  6  4  1  0  0  0  0
  7  6  1  0  0  0  0
  7  4  1  0  0  0  0
  8 10  1  0  0  0  0
  8  1  1  0  0  0  0
 10  9  2  0  0  0  0
 11 15  1  6  0  0  0
 11 13  1  0  0  0  0
 11 12  1  0  0  0  0
 12 14  1  0  0  0  0
 13 14  1  0  0  0  0
 14 10  1  1  0  0  0
 16 19  2  0  0  0  0
 17 22  1  0  0  0  0
 17 21  2  0  0  0  0
 18 22  1  0  0  0  0
 20 24  1  0  0  0  0
 22 16  1  0  0  0  0
 23 20  1  0  0  0  0
 23 18  1  0  0  0  0
 24 15  1  1  0  0  0
 24 17  1  0  0  0  0
 25 31  1  1  0  0  0
 26 16  1  1  0  0  0
 26 25  1  0  0  0  0
 27 29  1  0  0  0  0
 27 28  1  0  0  0  0
 28 30  1  0  0  0  0
 29 26  1  0  0  0  0
 30 25  1  0  0  0  0
 32 37  1  0  0  0  0
 33 34  1  0  0  0  0
 34 38  1  0  0  0  0
 35 38  2  0  0  0  0
 35 45  1  0  0  0  0
 36 35  1  0  0  0  0
 37 33  2  0  0  0  0
 37 39  1  0  0  0  0
 39 36  2  0  0  0  0
 40 41  1  0  0  0  0
 42 41  2  0  0  0  0
 43 44  2  0  0  0  0
 43 45  1  0  0  0  0
 44 42  1  0  0  0  0
 45 40  2  0  0  0  0
 46 50  1  6  0  0  0
 46 47  1  0  0  0  0
 47 44  1  1  0  0  0
 48 49  1  6  0  0  0
 48 46  1  0  0  0  0
 48 47  1  0  0  0  0
 51 52  1  1  0  0  0
 51 49  1  0  0  0  0
 51 48  1  0  0  0  0
 53 54  1  0  0  0  0
 53 52  1  0  0  0  0
 55 53  2  0  0  0  0
M  END
>  <MODEL>
9

>  <REMARK>
 VINA RESULT:      -6.6      2.885      9.040
  Name = 
  15 active torsions:
  status: ('A' for Active; 'I' for Inactive)
    1  A    between atoms: C_2  and  C_27
    2  A    between atoms: C_2  and  C_55
    3  A    between atoms: C_6  and  C_20
    4  A    between atoms: C_10  and  C_14
    5  A    between atoms: C_12  and  C_55
    6  A    between atoms: C_13  and  C_15
    7  A    between atoms: C_14  and  C_54
    8  A    between atoms: C_20  and  C_53
    9  A    between atoms: C_23  and  C_27
   10  A    between atoms: C_23  and  C_34
   11  A    between atoms: C_27  and  N_50
   12  A    between atoms: C_30  and  C_45
   13  A    between atoms: C_33  and  C_46
   14  A    between atoms: C_34  and  C_49
   15  A    between atoms: C_37  and  N_50
                            x       y       z     vdW  Elec       q    Type
                         _______ _______ _______ _____ _____    ______ ____

>  <TORSDO>
F 15

$$$$
