=
 OpenBabel10232407523D

 61 66  0  0  1  0  0  0  0  0999 V2000
  185.8830  178.7270  143.8660 C   0  0  1  0  0  3  0  0  0  0  0  0
  185.2270  179.8630  144.6520 C   0  0  0  0  0  1  0  0  0  0  0  0
  187.9690  177.0980  144.1890 C   0  0  2  0  0  3  0  0  0  0  0  0
  186.7250  176.4440  144.2570 O   0  0  0  0  0  0  0  0  0  0  0  0
  186.7490  177.7770  144.7320 C   0  0  2  0  0  0  0  0  0  0  0  0
  188.6560  179.0390  146.4150 O   0  0  0  0  0  1  0  0  0  0  0  0
  187.5590  178.5590  147.1440 C   0  0  2  0  0  3  0  0  0  0  0  0
  188.6010  176.4830  146.4400 O   0  0  0  0  0  1  0  0  0  0  0  0
  187.5230  177.0260  147.1600 C   0  0  2  0  0  3  0  0  0  0  0  0
  186.5600  177.8070  146.2690 C   0  0  2  0  0  0  0  0  0  0  0  0
  185.1490  177.8570  146.8170 C   0  0  0  0  0  1  0  0  0  0  0  0
  188.2810  177.4340  142.7360 C   0  0  0  0  0  2  0  0  0  0  0  0
  189.2700  176.5100  142.1890 N   0  0  0  0  0  0  0  0  0  0  0  0
  190.1450  176.1630  143.2950 C   0  0  0  0  0  2  0  0  0  0  0  0
  191.4460  176.9370  143.1790 C   0  0  0  0  0  2  0  0  0  0  0  0
  191.2990  179.2890  143.9900 C   0  0  0  0  0  1  0  0  0  0  0  0
  191.6190  177.8510  144.3700 C   0  0  0  0  0  2  0  0  0  0  0  0
  190.0840  177.2550  141.2310 C   0  0  0  0  0  2  0  0  0  0  0  0
  189.4520  177.1490  139.8520 C   0  0  0  0  0  2  0  0  0  0  0  0
  190.5230  177.3390  138.7920 C   0  0  0  0  0  2  0  0  0  0  0  0
  191.1250  175.9910  138.4530 C   0  0  0  0  0  2  0  0  0  0  0  0
  192.2420  176.1660  137.4460 C   0  0  0  0  0  2  0  0  0  0  0  0
  193.4080  175.5760  137.9430 O   0  0  0  0  0  0  0  0  0  0  0  0
  194.1420  175.2030  136.8130 C   0  0  2  0  0  3  0  0  0  0  0  0
  193.3830  174.3090  136.0490 O   0  0  0  0  0  0  0  0  0  0  0  0
  193.6950  173.0490  136.5570 C   0  0  0  0  0  1  0  0  0  0  0  0
  195.4540  174.5450  137.2360 C   0  0  2  0  0  3  0  0  0  0  0  0
  195.7940  174.9500  138.5240 O   0  0  0  0  0  1  0  0  0  0  0  0
  197.1380  176.1770  136.3340 O   0  0  0  0  0  1  0  0  0  0  0  0
  196.9950  174.0390  135.4720 O   0  0  0  0  0  0  0  0  0  0  0  0
  196.5690  174.9000  136.3000 C   0  0  0  0  0  0  0  0  0  0  0  0
  184.9160  177.9730  143.1450 O   0  0  0  0  0  0  0  0  0  0  0  0
  182.7660  178.7190  143.5620 O   0  0  0  0  0  0  0  0  0  0  0  0
  183.6900  178.5000  142.7320 C   0  0  0  0  0  0  0  0  0  0  0  0
  184.6070  179.0190  139.0320 C   0  0  2  0  0  3  0  0  0  0  0  0
  182.4120  177.9610  140.6860 C   0  0  0  0  0  2  0  0  0  0  0  0
  185.7520  179.6220  141.0540 O   0  0  0  0  0  1  0  0  0  0  0  0
  183.4890  178.8600  141.2990 C   0  0  2  0  0  3  0  0  0  0  0  0
  182.2170  178.2950  139.2100 C   0  0  2  0  0  3  0  0  0  0  0  0
  184.8130  178.7310  140.5270 C   0  0  1  0  0  3  0  0  0  0  0  0
  181.2410  177.4580  138.6700 O   0  0  0  0  0  1  0  0  0  0  0  0
  183.5290  178.1020  138.4560 C   0  0  0  0  0  2  0  0  0  0  0  0
  185.8510  178.8160  138.3040 N   0  0  0  0  0  0  0  0  0  0  0  0
  188.1740  173.8900  135.2970 C   0  0  0  0  0  2  0  0  0  0  0  0
  186.7470  175.2750  136.3590 C   0  0  1  0  0  3  0  0  0  0  0  0
  186.1120  177.7170  137.6600 C   0  0  0  0  0  0  0  0  0  0  0  0
  185.2130  176.6340  137.7070 O   0  0  0  0  0  0  0  0  0  0  0  0
  185.3180  175.4640  136.8860 C   0  0  2  0  0  3  0  0  0  0  0  0
  188.4720  176.3990  134.8810 C   0  0  1  0  0  3  0  0  0  0  0  0
  186.8220  174.2970  135.3550 O   0  0  0  0  0  0  0  0  0  0  0  0
  187.2330  176.6010  135.7810 C   0  0  2  0  0  3  0  0  0  0  0  0
  189.3860  177.4490  134.9920 O   0  0  0  0  0  1  0  0  0  0  0  0
  187.4050  177.6020  136.9130 C   0  0  0  0  0  2  0  0  0  0  0  0
  189.1720  175.0560  135.1120 C   0  0  0  0  0  2  0  0  0  0  0  0
  184.8710  172.1570  136.2750 C   0  0  0  0  0  2  0  0  0  0  0  0
  183.3760  171.9770  136.5010 C   0  0  2  0  0  3  0  0  0  0  0  0
  183.2490  174.1630  137.7180 C   0  0  0  0  0  2  0  0  0  0  0  0
  185.4940  172.9340  137.4350 C   0  0  0  0  0  2  0  0  0  0  0  0
  182.6840  171.0310  135.1660 Cl  0  0  0  0  0  0  0  0  0  0  0  0
  182.6970  173.3370  136.5600 C   0  0  0  0  0  2  0  0  0  0  0  0
  184.7770  174.2680  137.6800 C   0  0  1  0  0  3  0  0  0  0  0  0
  1  2  1  1  0  0  0
  3 12  1  6  0  0  0
  3  4  1  0  0  0  0
  3  5  1  0  0  0  0
  4  5  1  0  0  0  0
  5  1  1  6  0  0  0
  5 10  1  0  0  0  0
  7  6  1  6  0  0  0
  7  9  1  0  0  0  0
  9  8  1  6  0  0  0
 10 11  1  1  0  0  0
 10  7  1  0  0  0  0
 10  9  1  0  0  0  0
 13 12  1  0  0  0  0
 13 14  1  0  0  0  0
 15 14  1  0  0  0  0
 15 17  1  0  0  0  0
 16 17  1  0  0  0  0
 18 13  1  0  0  0  0
 19 18  1  0  0  0  0
 20 19  1  0  0  0  0
 21 20  1  0  0  0  0
 22 23  1  0  0  0  0
 22 21  1  0  0  0  0
 24 25  1  1  0  0  0
 24 27  1  0  0  0  0
 24 23  1  0  0  0  0
 25 26  1  0  0  0  0
 27 28  1  1  0  0  0
 30 31  2  0  0  0  0
 31 29  1  0  0  0  0
 31 27  1  0  0  0  0
 32  1  1  0  0  0  0
 34 32  1  0  0  0  0
 34 33  2  0  0  0  0
 35 43  1  6  0  0  0
 35 40  1  0  0  0  0
 36 38  1  0  0  0  0
 38 34  1  1  0  0  0
 39 41  1  6  0  0  0
 39 36  1  0  0  0  0
 40 37  1  1  0  0  0
 40 38  1  0  0  0  0
 42 35  1  0  0  0  0
 42 39  1  0  0  0  0
 44 50  1  0  0  0  0
 45 50  1  6  0  0  0
 45 48  1  0  0  0  0
 46 47  1  0  0  0  0
 46 43  2  0  0  0  0
 48 61  1  0  0  0  0
 48 47  1  1  0  0  0
 49 52  1  1  0  0  0
 49 54  1  0  0  0  0
 49 51  1  0  0  0  0
 51 45  1  0  0  0  0
 51 53  1  1  0  0  0
 53 46  1  0  0  0  0
 54 44  1  0  0  0  0
 55 56  1  0  0  0  0
 55 58  1  0  0  0  0
 56 59  1  6  0  0  0
 56 60  1  0  0  0  0
 60 57  1  0  0  0  0
 61 58  1  6  0  0  0
 61 57  1  0  0  0  0
M  END
>  <MODEL>
1

>  <REMARK>
 VINA RESULT:      -6.7      0.000      0.000
  Name = 
  22 active torsions:
  status: ('A' for Active; 'I' for Inactive)
    1  A    between atoms: C_3  and  N_7
    2  A    between atoms: C_3  and  C_16
    3  A    between atoms: C_4  and  N_7
    4  A    between atoms: C_4  and  C_61
    5  A    between atoms: N_5  and  C_15
    6  A    between atoms: N_7  and  C_25
    7  A    between atoms: C_9  and  C_10
    8  A    between atoms: C_9  and  C_18
    9  A    between atoms: C_10  and  C_16
   10  A    between atoms: C_11  and  C_32
   11  A    between atoms: C_11  and  C_42
   12  A    between atoms: C_18  and  O_22
   13  A    between atoms: C_19  and  C_57
   14  A    between atoms: C_20  and  C_25
   15  A    between atoms: O_22  and  C_42
   16  A    between atoms: O_26  and  C_45
   17  A    between atoms: O_26  and  C_60
   18  A    between atoms: C_33  and  C_55
   19  A    between atoms: C_36  and  C_61
   20  A    between atoms: C_37  and  C_60
   21  A    between atoms: C_42  and  O_47
   22  A    between atoms: C_45  and  C_57
                            x       y       z     vdW  Elec       q    Type
                         _______ _______ _______ _____ _____    ______ ____

>  <TORSDO>
F 22

$$$$
=
 OpenBabel10232407523D

 61 66  0  0  1  0  0  0  0  0999 V2000
  189.4090  176.4070  142.8310 C   0  0  1  0  0  3  0  0  0  0  0  0
  189.9680  175.0010  143.0530 C   0  0  0  0  0  1  0  0  0  0  0  0
  188.7340  178.0710  144.8020 C   0  0  2  0  0  3  0  0  0  0  0  0
  189.2850  178.7170  143.6800 O   0  0  0  0  0  0  0  0  0  0  0  0
  189.7760  177.4180  143.9480 C   0  0  2  0  0  0  0  0  0  0  0  0
  191.2210  179.8610  143.8970 O   0  0  0  0  0  1  0  0  0  0  0  0
  191.9780  178.8230  144.4580 C   0  0  2  0  0  3  0  0  0  0  0  0
  191.8450  178.1100  142.1420 O   0  0  0  0  0  1  0  0  0  0  0  0
  192.3520  177.7710  143.4080 C   0  0  2  0  0  3  0  0  0  0  0  0
  191.2490  177.4830  144.4230 C   0  0  2  0  0  0  0  0  0  0  0  0
  191.6870  176.5490  145.5310 C   0  0  0  0  0  1  0  0  0  0  0  0
  187.3050  177.6470  144.4850 C   0  0  0  0  0  2  0  0  0  0  0  0
  186.3500  178.3730  145.3170 N   0  0  0  0  0  0  0  0  0  0  0  0
  186.3740  177.7200  146.6140 C   0  0  0  0  0  2  0  0  0  0  0  0
  186.8130  178.7110  147.6770 C   0  0  0  0  0  2  0  0  0  0  0  0
  188.4610  176.8600  147.9420 C   0  0  0  0  0  1  0  0  0  0  0  0
  187.8230  178.0720  148.6030 C   0  0  0  0  0  2  0  0  0  0  0  0
  185.0200  178.1450  144.7580 C   0  0  0  0  0  2  0  0  0  0  0  0
  184.8310  179.0370  143.5410 C   0  0  0  0  0  2  0  0  0  0  0  0
  184.1730  178.2380  142.4290 C   0  0  0  0  0  2  0  0  0  0  0  0
  184.4970  178.8850  141.0990 C   0  0  0  0  0  2  0  0  0  0  0  0
  183.6010  178.3170  140.0190 C   0  0  0  0  0  2  0  0  0  0  0  0
  184.3630  178.0590  138.8750 O   0  0  0  0  0  0  0  0  0  0  0  0
  183.4590  178.1120  137.8110 C   0  0  2  0  0  3  0  0  0  0  0  0
  182.2820  178.7350  138.2430 O   0  0  0  0  0  0  0  0  0  0  0  0
  181.4030  178.6250  137.1660 C   0  0  0  0  0  1  0  0  0  0  0  0
  183.1520  176.7010  137.3150 C   0  0  2  0  0  3  0  0  0  0  0  0
  183.3470  175.7840  138.3440 O   0  0  0  0  0  1  0  0  0  0  0  0
  183.9290  175.0580  135.5790 O   0  0  0  0  0  0  0  0  0  0  0  0
  184.8570  177.1700  135.6970 O   0  0  0  0  0  1  0  0  0  0  0  0
  184.0250  176.3290  136.1550 C   0  0  0  0  0  0  0  0  0  0  0  0
  189.8000  176.9250  141.5660 O   0  0  0  0  0  0  0  0  0  0  0  0
  187.6760  177.5490  140.8940 O   0  0  0  0  0  0  0  0  0  0  0  0
  188.8860  177.3520  140.5990 C   0  0  0  0  0  0  0  0  0  0  0  0
  189.9420  176.5930  136.9780 C   0  0  2  0  0  3  0  0  0  0  0  0
  188.3610  178.5540  138.5040 C   0  0  0  0  0  2  0  0  0  0  0  0
  190.5090  175.5320  139.0560 O   0  0  0  0  0  1  0  0  0  0  0  0
  189.3580  177.6330  139.2120 C   0  0  2  0  0  3  0  0  0  0  0  0
  188.8130  178.8260  137.0720 C   0  0  2  0  0  3  0  0  0  0  0  0
  189.5350  176.3180  138.4340 C   0  0  1  0  0  3  0  0  0  0  0  0
  187.8870  179.6570  136.4430 O   0  0  0  0  0  1  0  0  0  0  0  0
  188.9240  177.5120  136.3050 C   0  0  0  0  0  2  0  0  0  0  0  0
  190.0280  175.3440  136.2350 N   0  0  0  0  0  0  0  0  0  0  0  0
  194.8110  171.5860  134.9270 C   0  0  0  0  0  2  0  0  0  0  0  0
  193.5560  173.2140  135.8530 C   0  0  1  0  0  3  0  0  0  0  0  0
  191.1290  174.6570  136.1510 C   0  0  0  0  0  0  0  0  0  0  0  0
  192.3190  175.1450  136.7250 O   0  0  0  0  0  0  0  0  0  0  0  0
  193.5250  174.3800  136.8500 C   0  0  2  0  0  3  0  0  0  0  0  0
  192.3260  171.0750  135.2770 C   0  0  1  0  0  3  0  0  0  0  0  0
  194.5910  172.3070  136.1230 O   0  0  0  0  0  0  0  0  0  0  0  0
  192.2260  172.4700  135.9310 C   0  0  2  0  0  3  0  0  0  0  0  0
  191.1540  170.7170  134.6060 O   0  0  0  0  0  1  0  0  0  0  0  0
  191.1230  173.3670  135.3900 C   0  0  0  0  0  2  0  0  0  0  0  0
  193.5370  170.9290  134.3490 C   0  0  0  0  0  2  0  0  0  0  0  0
  195.9470  174.9610  134.5480 C   0  0  0  0  0  2  0  0  0  0  0  0
  197.2250  174.7270  135.3420 C   0  0  2  0  0  3  0  0  0  0  0  0
  195.9680  174.9030  137.5020 C   0  0  0  0  0  2  0  0  0  0  0  0
  194.9980  175.8750  135.3240 C   0  0  0  0  0  2  0  0  0  0  0  0
  198.3300  173.7040  134.4000 Cl  0  0  0  0  0  0  0  0  0  0  0  0
  196.8930  174.0330  136.6550 C   0  0  0  0  0  2  0  0  0  0  0  0
  194.7170  175.3390  136.7340 C   0  0  1  0  0  3  0  0  0  0  0  0
  1  2  1  1  0  0  0
  3 12  1  6  0  0  0
  4  5  1  0  0  0  0
  4  3  1  0  0  0  0
  5  1  1  6  0  0  0
  5 10  1  0  0  0  0
  5  3  1  0  0  0  0
  7  6  1  6  0  0  0
  9  8  1  6  0  0  0
  9 10  1  0  0  0  0
  9  7  1  0  0  0  0
 10  7  1  0  0  0  0
 10 11  1  1  0  0  0
 12 13  1  0  0  0  0
 13 14  1  0  0  0  0
 14 15  1  0  0  0  0
 15 17  1  0  0  0  0
 16 17  1  0  0  0  0
 18 13  1  0  0  0  0
 19 18  1  0  0  0  0
 20 19  1  0  0  0  0
 21 20  1  0  0  0  0
 22 21  1  0  0  0  0
 23 22  1  0  0  0  0
 24 25  1  1  0  0  0
 24 23  1  0  0  0  0
 26 25  1  0  0  0  0
 27 24  1  0  0  0  0
 27 28  1  1  0  0  0
 29 31  2  0  0  0  0
 30 31  1  0  0  0  0
 31 27  1  0  0  0  0
 32  1  1  0  0  0  0
 34 33  2  0  0  0  0
 34 32  1  0  0  0  0
 35 43  1  6  0  0  0
 35 40  1  0  0  0  0
 36 38  1  0  0  0  0
 38 34  1  1  0  0  0
 39 41  1  6  0  0  0
 39 36  1  0  0  0  0
 40 37  1  1  0  0  0
 40 38  1  0  0  0  0
 42 35  1  0  0  0  0
 42 39  1  0  0  0  0
 44 50  1  0  0  0  0
 45 51  1  0  0  0  0
 45 50  1  1  0  0  0
 45 48  1  0  0  0  0
 46 43  2  0  0  0  0
 46 47  1  0  0  0  0
 48 47  1  6  0  0  0
 49 52  1  6  0  0  0
 49 51  1  0  0  0  0
 51 53  1  6  0  0  0
 53 46  1  0  0  0  0
 54 44  1  0  0  0  0
 54 49  1  0  0  0  0
 55 58  1  0  0  0  0
 55 56  1  0  0  0  0
 56 59  1  6  0  0  0
 56 60  1  0  0  0  0
 60 57  1  0  0  0  0
 61 58  1  6  0  0  0
 61 48  1  0  0  0  0
 61 57  1  0  0  0  0
M  END
>  <MODEL>
2

>  <REMARK>
 VINA RESULT:      -6.3      3.189      8.298
  Name = 
  22 active torsions:
  status: ('A' for Active; 'I' for Inactive)
    1  A    between atoms: C_3  and  N_7
    2  A    between atoms: C_3  and  C_16
    3  A    between atoms: C_4  and  N_7
    4  A    between atoms: C_4  and  C_61
    5  A    between atoms: N_5  and  C_15
    6  A    between atoms: N_7  and  C_25
    7  A    between atoms: C_9  and  C_10
    8  A    between atoms: C_9  and  C_18
    9  A    between atoms: C_10  and  C_16
   10  A    between atoms: C_11  and  C_32
   11  A    between atoms: C_11  and  C_42
   12  A    between atoms: C_18  and  O_22
   13  A    between atoms: C_19  and  C_57
   14  A    between atoms: C_20  and  C_25
   15  A    between atoms: O_22  and  C_42
   16  A    between atoms: O_26  and  C_45
   17  A    between atoms: O_26  and  C_60
   18  A    between atoms: C_33  and  C_55
   19  A    between atoms: C_36  and  C_61
   20  A    between atoms: C_37  and  C_60
   21  A    between atoms: C_42  and  O_47
   22  A    between atoms: C_45  and  C_57
                            x       y       z     vdW  Elec       q    Type
                         _______ _______ _______ _____ _____    ______ ____

>  <TORSDO>
F 22

$$$$
=
 OpenBabel10232407523D

 61 66  0  0  1  0  0  0  0  0999 V2000
  183.8010  178.8980  138.8270 C   0  0  1  0  0  3  0  0  0  0  0  0
  183.4310  180.3620  138.5840 C   0  0  0  0  0  1  0  0  0  0  0  0
  183.4190  178.0460  141.3240 C   0  0  2  0  0  3  0  0  0  0  0  0
  183.5390  177.0060  140.3840 O   0  0  0  0  0  0  0  0  0  0  0  0
  182.9430  178.2000  139.9130 C   0  0  2  0  0  0  0  0  0  0  0  0
  181.0600  180.2930  140.2780 O   0  0  0  0  0  1  0  0  0  0  0  0
  180.4580  179.1390  139.7560 C   0  0  2  0  0  3  0  0  0  0  0  0
  181.0340  178.3980  141.9940 O   0  0  0  0  0  1  0  0  0  0  0  0
  180.4420  178.0010  140.7840 C   0  0  2  0  0  3  0  0  0  0  0  0
  181.4380  177.9760  139.6260 C   0  0  2  0  0  0  0  0  0  0  0  0
  181.0520  177.0070  138.5290 C   0  0  0  0  0  1  0  0  0  0  0  0
  184.7960  178.6430  141.5910 C   0  0  0  0  0  2  0  0  0  0  0  0
  185.3190  178.1900  142.8770 N   0  0  0  0  0  0  0  0  0  0  0  0
  184.9060  179.1870  143.8490 C   0  0  0  0  0  2  0  0  0  0  0  0
  183.9190  178.5720  144.8240 C   0  0  0  0  0  2  0  0  0  0  0  0
  185.9770  178.6860  146.2260 C   0  0  0  0  0  1  0  0  0  0  0  0
  184.4560  178.6540  146.2350 C   0  0  0  0  0  2  0  0  0  0  0  0
  186.7770  178.2540  142.8050 C   0  0  0  0  0  2  0  0  0  0  0  0
  187.3480  176.8630  143.0310 C   0  0  0  0  0  2  0  0  0  0  0  0
  188.2920  176.8940  144.2210 C   0  0  0  0  0  2  0  0  0  0  0  0
  189.2480  178.0580  144.0600 C   0  0  0  0  0  2  0  0  0  0  0  0
  190.6750  177.5740  144.2050 C   0  0  0  0  0  2  0  0  0  0  0  0
  190.6940  176.4210  144.9950 O   0  0  0  0  0  0  0  0  0  0  0  0
  191.7230  176.6250  145.9190 C   0  0  2  0  0  3  0  0  0  0  0  0
  192.1990  175.3820  146.3540 O   0  0  0  0  0  0  0  0  0  0  0  0
  192.2030  174.5810  145.2130 C   0  0  0  0  0  1  0  0  0  0  0  0
  191.2050  177.4310  147.1090 C   0  0  2  0  0  3  0  0  0  0  0  0
  192.0760  177.3000  148.1860 O   0  0  0  0  0  1  0  0  0  0  0  0
  188.9330  177.8770  148.0840 O   0  0  0  0  0  1  0  0  0  0  0  0
  189.5080  175.7580  147.3670 O   0  0  0  0  0  0  0  0  0  0  0  0
  189.8390  176.9720  147.5230 C   0  0  0  0  0  0  0  0  0  0  0  0
  183.7540  178.1470  137.6200 O   0  0  0  0  0  0  0  0  0  0  0  0
  186.0280  177.9970  137.2210 O   0  0  0  0  0  0  0  0  0  0  0  0
  184.8730  177.5160  137.0690 C   0  0  0  0  0  0  0  0  0  0  0  0
  185.9260  174.3360  135.1750 C   0  0  2  0  0  3  0  0  0  0  0  0
  184.0200  175.2030  137.2470 C   0  0  0  0  0  2  0  0  0  0  0  0
  186.6350  176.6200  134.9670 O   0  0  0  0  0  1  0  0  0  0  0  0
  184.7050  176.2270  136.3380 C   0  0  2  0  0  3  0  0  0  0  0  0
  183.8700  173.8670  136.5250 C   0  0  2  0  0  3  0  0  0  0  0  0
  186.0700  175.7050  135.8590 C   0  0  1  0  0  3  0  0  0  0  0  0
  183.2550  172.9480  137.3740 O   0  0  0  0  0  1  0  0  0  0  0  0
  185.2420  173.3430  136.1130 C   0  0  0  0  0  2  0  0  0  0  0  0
  187.2340  173.8210  134.7980 N   0  0  0  0  0  0  0  0  0  0  0  0
  192.9040  174.6450  137.2230 C   0  0  0  0  0  2  0  0  0  0  0  0
  190.6640  174.6420  136.9630 C   0  0  1  0  0  3  0  0  0  0  0  0
  188.3030  174.0480  135.5030 C   0  0  0  0  0  0  0  0  0  0  0  0
  188.2440  174.8780  136.6390 O   0  0  0  0  0  0  0  0  0  0  0  0
  189.3150  175.0330  137.5800 C   0  0  2  0  0  3  0  0  0  0  0  0
  191.8860  172.6480  135.9850 C   0  0  1  0  0  3  0  0  0  0  0  0
  191.6810  174.5360  137.9240 O   0  0  0  0  0  0  0  0  0  0  0  0
  190.5110  173.2910  136.2690 C   0  0  2  0  0  3  0  0  0  0  0  0
  191.9080  171.9560  134.7720 O   0  0  0  0  0  1  0  0  0  0  0  0
  189.6050  173.4550  135.0580 C   0  0  0  0  0  2  0  0  0  0  0  0
  193.0440  173.6480  136.0500 C   0  0  0  0  0  2  0  0  0  0  0  0
  191.6130  177.3200  138.5770 C   0  0  0  0  0  2  0  0  0  0  0  0
  191.2090  177.5900  140.0190 C   0  0  2  0  0  3  0  0  0  0  0  0
  188.9580  176.5600  139.6300 C   0  0  0  0  0  2  0  0  0  0  0  0
  190.3920  177.3920  137.6600 C   0  0  0  0  0  2  0  0  0  0  0  0
  192.6500  177.5480  141.0580 Cl  0  0  0  0  0  0  0  0  0  0  0  0
  190.2230  176.5280  140.4850 C   0  0  0  0  0  2  0  0  0  0  0  0
  189.2660  176.4630  138.1330 C   0  0  1  0  0  3  0  0  0  0  0  0
  1  2  1  6  0  0  0
  3 12  1  6  0  0  0
  4  3  1  0  0  0  0
  5  1  1  6  0  0  0
  5  4  1  0  0  0  0
  5  3  1  0  0  0  0
  7  6  1  1  0  0  0
  7  9  1  0  0  0  0
  9  8  1  1  0  0  0
 10 11  1  6  0  0  0
 10  7  1  0  0  0  0
 10  5  1  0  0  0  0
 10  9  1  0  0  0  0
 12 13  1  0  0  0  0
 13 14  1  0  0  0  0
 14 15  1  0  0  0  0
 15 17  1  0  0  0  0
 16 17  1  0  0  0  0
 18 13  1  0  0  0  0
 18 19  1  0  0  0  0
 19 20  1  0  0  0  0
 21 22  1  0  0  0  0
 21 20  1  0  0  0  0
 22 23  1  0  0  0  0
 24 23  1  6  0  0  0
 24 25  1  0  0  0  0
 24 27  1  0  0  0  0
 26 25  1  0  0  0  0
 27 31  1  0  0  0  0
 27 28  1  1  0  0  0
 30 31  2  0  0  0  0
 31 29  1  0  0  0  0
 32  1  1  0  0  0  0
 34 33  2  0  0  0  0
 34 32  1  0  0  0  0
 35 43  1  1  0  0  0
 35 40  1  0  0  0  0
 35 42  1  0  0  0  0
 38 34  1  1  0  0  0
 38 36  1  0  0  0  0
 39 36  1  0  0  0  0
 39 41  1  1  0  0  0
 40 37  1  6  0  0  0
 40 38  1  0  0  0  0
 42 39  1  0  0  0  0
 43 46  2  0  0  0  0
 44 50  1  0  0  0  0
 45 48  1  0  0  0  0
 45 50  1  1  0  0  0
 46 47  1  0  0  0  0
 48 47  1  6  0  0  0
 48 61  1  0  0  0  0
 49 52  1  6  0  0  0
 49 54  1  0  0  0  0
 49 51  1  0  0  0  0
 51 53  1  6  0  0  0
 51 45  1  0  0  0  0
 53 46  1  0  0  0  0
 54 44  1  0  0  0  0
 55 56  1  0  0  0  0
 56 60  1  0  0  0  0
 56 59  1  1  0  0  0
 57 60  1  0  0  0  0
 58 55  1  0  0  0  0
 61 58  1  1  0  0  0
 61 57  1  0  0  0  0
M  END
>  <MODEL>
3

>  <REMARK>
 VINA RESULT:      -6.2      2.818      7.521
  Name = 
  22 active torsions:
  status: ('A' for Active; 'I' for Inactive)
    1  A    between atoms: C_3  and  N_7
    2  A    between atoms: C_3  and  C_16
    3  A    between atoms: C_4  and  N_7
    4  A    between atoms: C_4  and  C_61
    5  A    between atoms: N_5  and  C_15
    6  A    between atoms: N_7  and  C_25
    7  A    between atoms: C_9  and  C_10
    8  A    between atoms: C_9  and  C_18
    9  A    between atoms: C_10  and  C_16
   10  A    between atoms: C_11  and  C_32
   11  A    between atoms: C_11  and  C_42
   12  A    between atoms: C_18  and  O_22
   13  A    between atoms: C_19  and  C_57
   14  A    between atoms: C_20  and  C_25
   15  A    between atoms: O_22  and  C_42
   16  A    between atoms: O_26  and  C_45
   17  A    between atoms: O_26  and  C_60
   18  A    between atoms: C_33  and  C_55
   19  A    between atoms: C_36  and  C_61
   20  A    between atoms: C_37  and  C_60
   21  A    between atoms: C_42  and  O_47
   22  A    between atoms: C_45  and  C_57
                            x       y       z     vdW  Elec       q    Type
                         _______ _______ _______ _____ _____    ______ ____

>  <TORSDO>
F 22

$$$$
=
 OpenBabel10232407523D

 61 66  0  0  1  0  0  0  0  0999 V2000
  191.8670  175.1340  136.1480 C   0  0  1  0  0  3  0  0  0  0  0  0
  191.4100  174.5740  134.8000 C   0  0  0  0  0  1  0  0  0  0  0  0
  194.0660  175.7660  137.5170 C   0  0  2  0  0  3  0  0  0  0  0  0
  194.0240  176.3230  136.2250 O   0  0  0  0  0  0  0  0  0  0  0  0
  193.3990  175.0630  136.3760 C   0  0  2  0  0  0  0  0  0  0  0  0
  192.5810  172.3450  136.4520 O   0  0  0  0  0  1  0  0  0  0  0  0
  193.6970  172.5270  135.6230 C   0  0  2  0  0  3  0  0  0  0  0  0
  194.6560  172.9680  137.8080 O   0  0  0  0  0  1  0  0  0  0  0  0
  194.9430  172.9020  136.4350 C   0  0  2  0  0  3  0  0  0  0  0  0
  194.2010  173.9680  135.6310 C   0  0  2  0  0  0  0  0  0  0  0  0
  194.9090  174.3460  134.3470 C   0  0  0  0  0  1  0  0  0  0  0  0
  193.1120  176.5340  138.4250 C   0  0  0  0  0  2  0  0  0  0  0  0
  193.7790  176.9350  139.6600 N   0  0  0  0  0  0  0  0  0  0  0  0
  194.4890  175.7580  140.1290 C   0  0  0  0  0  2  0  0  0  0  0  0
  195.8540  176.1630  140.6590 C   0  0  0  0  0  2  0  0  0  0  0  0
  198.2580  175.5250  140.8120 C   0  0  0  0  0  1  0  0  0  0  0  0
  196.9010  175.1590  140.2320 C   0  0  0  0  0  2  0  0  0  0  0  0
  192.7400  177.2170  140.6480 C   0  0  0  0  0  2  0  0  0  0  0  0
  191.4030  177.3580  139.9390 C   0  0  0  0  0  2  0  0  0  0  0  0
  190.2840  176.9900  140.8970 C   0  0  0  0  0  2  0  0  0  0  0  0
  190.8770  176.7110  142.2620 C   0  0  0  0  0  2  0  0  0  0  0  0
  190.6440  177.8950  143.1770 C   0  0  0  0  0  2  0  0  0  0  0  0
  189.2910  178.2460  143.1420 O   0  0  0  0  0  0  0  0  0  0  0  0
  188.8820  178.2620  144.4790 C   0  0  2  0  0  3  0  0  0  0  0  0
  189.9890  178.0140  145.2980 O   0  0  0  0  0  0  0  0  0  0  0  0
  189.4840  177.2810  146.3710 C   0  0  0  0  0  1  0  0  0  0  0  0
  187.8120  177.1970  144.7090 C   0  0  2  0  0  3  0  0  0  0  0  0
  187.9020  176.2140  143.7280 O   0  0  0  0  0  1  0  0  0  0  0  0
  185.8130  178.0720  143.4630 O   0  0  0  0  0  0  0  0  0  0  0  0
  185.8370  178.0430  145.7720 O   0  0  0  0  0  1  0  0  0  0  0  0
  186.4360  177.7910  144.6830 C   0  0  0  0  0  0  0  0  0  0  0  0
  191.4150  176.4700  136.3310 O   0  0  0  0  0  0  0  0  0  0  0  0
  190.6390  177.3700  134.3460 O   0  0  0  0  0  0  0  0  0  0  0  0
  190.4170  177.0530  135.5460 C   0  0  0  0  0  0  0  0  0  0  0  0
  186.9490  176.0810  136.9000 C   0  0  2  0  0  3  0  0  0  0  0  0
  189.1610  177.9370  137.4830 C   0  0  0  0  0  2  0  0  0  0  0  0
  188.1670  175.3420  134.9680 O   0  0  0  0  0  1  0  0  0  0  0  0
  189.0540  177.2530  136.1180 C   0  0  2  0  0  3  0  0  0  0  0  0
  187.7760  178.1190  138.0960 C   0  0  2  0  0  3  0  0  0  0  0  0
  188.3240  175.9040  136.2380 C   0  0  1  0  0  3  0  0  0  0  0  0
  187.8980  178.7330  139.3430 O   0  0  0  0  0  1  0  0  0  0  0  0
  187.0970  176.7630  138.2590 C   0  0  0  0  0  2  0  0  0  0  0  0
  186.3060  174.7880  137.0780 N   0  0  0  0  0  0  0  0  0  0  0  0
  180.3230  173.0880  137.2490 C   0  0  0  0  0  2  0  0  0  0  0  0
  182.1990  174.3000  136.9360 C   0  0  1  0  0  3  0  0  0  0  0  0
  185.0180  174.6310  136.9930 C   0  0  0  0  0  0  0  0  0  0  0  0
  184.1770  175.7430  136.7950 O   0  0  0  0  0  0  0  0  0  0  0  0
  182.7770  175.6520  136.5000 C   0  0  2  0  0  3  0  0  0  0  0  0
  182.4030  171.8190  136.4610 C   0  0  1  0  0  3  0  0  0  0  0  0
  180.9070  174.0830  136.4320 O   0  0  0  0  0  0  0  0  0  0  0  0
  183.1120  173.1900  136.4220 C   0  0  2  0  0  3  0  0  0  0  0  0
  183.2730  170.7800  136.8010 O   0  0  0  0  0  1  0  0  0  0  0  0
  184.4400  173.2600  137.1600 C   0  0  0  0  0  2  0  0  0  0  0  0
  181.1720  171.8020  137.3730 C   0  0  0  0  0  2  0  0  0  0  0  0
  183.7320  178.2760  138.4250 C   0  0  0  0  0  2  0  0  0  0  0  0
  182.8450  178.1280  139.6530 C   0  0  2  0  0  3  0  0  0  0  0  0
  181.3160  176.5740  138.4180 C   0  0  0  0  0  2  0  0  0  0  0  0
  182.8970  178.1610  137.1490 C   0  0  0  0  0  2  0  0  0  0  0  0
  183.8290  178.3130  141.1210 Cl  0  0  0  0  0  0  0  0  0  0  0  0
  182.1940  176.7520  139.6540 C   0  0  0  0  0  2  0  0  0  0  0  0
  182.0740  176.8670  137.1200 C   0  0  1  0  0  3  0  0  0  0  0  0
  1  2  1  6  0  0  0
  1 32  1  0  0  0  0
  3 12  1  1  0  0  0
  4  5  1  0  0  0  0
  4  3  1  0  0  0  0
  5  1  1  6  0  0  0
  5  3  1  0  0  0  0
  7 10  1  0  0  0  0
  7  9  1  0  0  0  0
  7  6  1  1  0  0  0
  9  8  1  1  0  0  0
 10 11  1  6  0  0  0
 10  5  1  0  0  0  0
 10  9  1  0  0  0  0
 12 13  1  0  0  0  0
 13 14  1  0  0  0  0
 13 18  1  0  0  0  0
 14 15  1  0  0  0  0
 17 15  1  0  0  0  0
 17 16  1  0  0  0  0
 19 18  1  0  0  0  0
 19 20  1  0  0  0  0
 20 21  1  0  0  0  0
 21 22  1  0  0  0  0
 23 22  1  0  0  0  0
 24 23  1  6  0  0  0
 24 27  1  0  0  0  0
 24 25  1  0  0  0  0
 25 26  1  0  0  0  0
 27 28  1  6  0  0  0
 29 31  2  0  0  0  0
 31 27  1  0  0  0  0
 31 30  1  0  0  0  0
 33 34  2  0  0  0  0
 34 32  1  0  0  0  0
 35 43  1  1  0  0  0
 35 42  1  0  0  0  0
 36 39  1  0  0  0  0
 38 34  1  1  0  0  0
 38 40  1  0  0  0  0
 38 36  1  0  0  0  0
 39 42  1  0  0  0  0
 39 41  1  1  0  0  0
 40 37  1  6  0  0  0
 40 35  1  0  0  0  0
 44 54  1  0  0  0  0
 45 50  1  6  0  0  0
 46 43  2  0  0  0  0
 46 53  1  0  0  0  0
 47 46  1  0  0  0  0
 48 47  1  1  0  0  0
 48 45  1  0  0  0  0
 48 61  1  0  0  0  0
 49 52  1  1  0  0  0
 49 54  1  0  0  0  0
 50 44  1  0  0  0  0
 51 49  1  0  0  0  0
 51 45  1  0  0  0  0
 51 53  1  1  0  0  0
 55 56  1  0  0  0  0
 56 60  1  0  0  0  0
 56 59  1  1  0  0  0
 57 60  1  0  0  0  0
 58 55  1  0  0  0  0
 61 58  1  1  0  0  0
 61 57  1  0  0  0  0
M  END
>  <MODEL>
4

>  <REMARK>
 VINA RESULT:      -5.7      2.538      8.707
  Name = 
  22 active torsions:
  status: ('A' for Active; 'I' for Inactive)
    1  A    between atoms: C_3  and  N_7
    2  A    between atoms: C_3  and  C_16
    3  A    between atoms: C_4  and  N_7
    4  A    between atoms: C_4  and  C_61
    5  A    between atoms: N_5  and  C_15
    6  A    between atoms: N_7  and  C_25
    7  A    between atoms: C_9  and  C_10
    8  A    between atoms: C_9  and  C_18
    9  A    between atoms: C_10  and  C_16
   10  A    between atoms: C_11  and  C_32
   11  A    between atoms: C_11  and  C_42
   12  A    between atoms: C_18  and  O_22
   13  A    between atoms: C_19  and  C_57
   14  A    between atoms: C_20  and  C_25
   15  A    between atoms: O_22  and  C_42
   16  A    between atoms: O_26  and  C_45
   17  A    between atoms: O_26  and  C_60
   18  A    between atoms: C_33  and  C_55
   19  A    between atoms: C_36  and  C_61
   20  A    between atoms: C_37  and  C_60
   21  A    between atoms: C_42  and  O_47
   22  A    between atoms: C_45  and  C_57
                            x       y       z     vdW  Elec       q    Type
                         _______ _______ _______ _____ _____    ______ ____

>  <TORSDO>
F 22

$$$$
=
 OpenBabel10232407523D

 61 66  0  0  1  0  0  0  0  0999 V2000
  191.8570  174.5230  136.7000 C   0  0  1  0  0  3  0  0  0  0  0  0
  192.1550  173.0350  136.5130 C   0  0  0  0  0  1  0  0  0  0  0  0
  192.9450  176.1880  138.4750 C   0  0  2  0  0  3  0  0  0  0  0  0
  192.8190  176.7390  137.1870 O   0  0  0  0  0  0  0  0  0  0  0  0
  193.0540  175.3450  137.2420 C   0  0  2  0  0  0  0  0  0  0  0  0
  194.7050  177.3660  136.1250 O   0  0  0  0  0  1  0  0  0  0  0  0
  195.3680  176.1330  136.1890 C   0  0  2  0  0  3  0  0  0  0  0  0
  193.6840  175.6750  134.5020 O   0  0  0  0  0  1  0  0  0  0  0  0
  194.7560  175.1160  135.2170 C   0  0  2  0  0  3  0  0  0  0  0  0
  194.4710  175.0140  136.7130 C   0  0  2  0  0  0  0  0  0  0  0  0
  195.2520  173.9100  137.3950 C   0  0  0  0  0  1  0  0  0  0  0  0
  191.5750  176.1520  139.1420 C   0  0  0  0  0  2  0  0  0  0  0  0
  191.2680  177.4340  139.7700 N   0  0  0  0  0  0  0  0  0  0  0  0
  192.2390  177.5980  140.8370 C   0  0  0  0  0  2  0  0  0  0  0  0
  191.6160  177.1890  142.1600 C   0  0  0  0  0  2  0  0  0  0  0  0
  190.8190  178.0510  144.3590 C   0  0  0  0  0  1  0  0  0  0  0  0
  191.7060  178.3250  143.1540 C   0  0  0  0  0  2  0  0  0  0  0  0
  189.9610  177.3070  140.4100 C   0  0  0  0  0  2  0  0  0  0  0  0
  189.1720  178.5890  140.1920 C   0  0  0  0  0  2  0  0  0  0  0  0
  187.7400  178.3830  140.6530 C   0  0  0  0  0  2  0  0  0  0  0  0
  187.7400  178.0800  142.1370 C   0  0  0  0  0  2  0  0  0  0  0  0
  186.3160  177.9680  142.6390 C   0  0  0  0  0  2  0  0  0  0  0  0
  186.2940  177.1850  143.7970 O   0  0  0  0  0  0  0  0  0  0  0  0
  185.7560  178.0090  144.7890 C   0  0  2  0  0  3  0  0  0  0  0  0
  185.0960  179.0840  144.1810 O   0  0  0  0  0  0  0  0  0  0  0  0
  183.7640  178.9510  144.5680 C   0  0  0  0  0  1  0  0  0  0  0  0
  186.8690  178.5260  145.6980 C   0  0  2  0  0  3  0  0  0  0  0  0
  187.9720  177.6800  145.6270 O   0  0  0  0  0  1  0  0  0  0  0  0
  185.6060  179.6810  147.5390 O   0  0  0  0  0  0  0  0  0  0  0  0
  186.7580  177.7230  147.9540 O   0  0  0  0  0  1  0  0  0  0  0  0
  186.4110  178.6160  147.1230 C   0  0  0  0  0  0  0  0  0  0  0  0
  191.3780  175.1090  135.4960 O   0  0  0  0  0  0  0  0  0  0  0  0
  189.7530  176.2900  134.3480 O   0  0  0  0  0  0  0  0  0  0  0  0
  190.0750  175.5930  135.3470 C   0  0  0  0  0  0  0  0  0  0  0  0
  187.0180  176.0750  137.6340 C   0  0  2  0  0  3  0  0  0  0  0  0
  188.2010  174.0590  135.8420 C   0  0  0  0  0  2  0  0  0  0  0  0
  188.9190  177.4760  137.2030 O   0  0  0  0  0  1  0  0  0  0  0  0
  189.0370  175.2330  136.3570 C   0  0  2  0  0  3  0  0  0  0  0  0
  187.1130  173.6990  136.8490 C   0  0  2  0  0  3  0  0  0  0  0  0
  188.1440  176.4490  136.6580 C   0  0  1  0  0  3  0  0  0  0  0  0
  186.3570  172.6360  136.3550 O   0  0  0  0  0  1  0  0  0  0  0  0
  186.2060  174.9030  137.0850 C   0  0  0  0  0  2  0  0  0  0  0  0
  186.1370  177.2140  137.8470 N   0  0  0  0  0  0  0  0  0  0  0  0
  180.3400  178.4240  135.9400 C   0  0  0  0  0  2  0  0  0  0  0  0
  182.2600  177.3370  136.4060 C   0  0  1  0  0  3  0  0  0  0  0  0
  184.9070  177.2320  137.4270 C   0  0  0  0  0  0  0  0  0  0  0  0
  184.3950  176.1600  136.6720 O   0  0  0  0  0  0  0  0  0  0  0  0
  183.0120  176.0020  136.3320 C   0  0  2  0  0  3  0  0  0  0  0  0
  181.5900  179.1380  138.0580 C   0  0  1  0  0  3  0  0  0  0  0  0
  180.8690  177.1730  136.3310 O   0  0  0  0  0  0  0  0  0  0  0  0
  182.5980  178.0150  137.7310 C   0  0  2  0  0  3  0  0  0  0  0  0
  182.1960  180.2300  138.6830 O   0  0  0  0  0  1  0  0  0  0  0  0
  184.0600  178.4340  137.7150 C   0  0  0  0  0  2  0  0  0  0  0  0
  180.7850  179.6000  136.8390 C   0  0  0  0  0  2  0  0  0  0  0  0
  180.9970  173.6630  134.9260 C   0  0  0  0  0  2  0  0  0  0  0  0
  181.9790  172.5650  134.5430 C   0  0  2  0  0  3  0  0  0  0  0  0
  183.9090  174.1450  134.7780 C   0  0  0  0  0  2  0  0  0  0  0  0
  181.5100  175.0240  134.4550 C   0  0  0  0  0  2  0  0  0  0  0  0
  181.3390  170.9890  135.0580 Cl  0  0  0  0  0  0  0  0  0  0  0  0
  183.3180  172.8110  135.2240 C   0  0  0  0  0  2  0  0  0  0  0  0
  182.9290  175.3070  134.9660 C   0  0  1  0  0  3  0  0  0  0  0  0
  1  2  1  6  0  0  0
  3 12  1  1  0  0  0
  4  5  1  0  0  0  0
  4  3  1  0  0  0  0
  5  1  1  6  0  0  0
  5  3  1  0  0  0  0
  7  6  1  6  0  0  0
  7 10  1  0  0  0  0
  9  8  1  6  0  0  0
  9  7  1  0  0  0  0
  9 10  1  0  0  0  0
 10  5  1  0  0  0  0
 10 11  1  1  0  0  0
 12 13  1  0  0  0  0
 13 18  1  0  0  0  0
 13 14  1  0  0  0  0
 14 15  1  0  0  0  0
 15 17  1  0  0  0  0
 17 16  1  0  0  0  0
 19 18  1  0  0  0  0
 19 20  1  0  0  0  0
 20 21  1  0  0  0  0
 21 22  1  0  0  0  0
 22 23  1  0  0  0  0
 24 23  1  6  0  0  0
 24 27  1  0  0  0  0
 25 26  1  0  0  0  0
 25 24  1  0  0  0  0
 27 28  1  1  0  0  0
 27 31  1  0  0  0  0
 31 29  2  0  0  0  0
 31 30  1  0  0  0  0
 32  1  1  0  0  0  0
 33 34  2  0  0  0  0
 34 32  1  0  0  0  0
 35 43  1  6  0  0  0
 36 38  1  0  0  0  0
 36 39  1  0  0  0  0
 38 34  1  6  0  0  0
 38 40  1  0  0  0  0
 39 41  1  6  0  0  0
 39 42  1  0  0  0  0
 40 37  1  1  0  0  0
 40 35  1  0  0  0  0
 42 35  1  0  0  0  0
 44 50  1  0  0  0  0
 44 54  1  0  0  0  0
 45 50  1  1  0  0  0
 45 51  1  0  0  0  0
 46 53  1  0  0  0  0
 46 43  2  0  0  0  0
 47 46  1  0  0  0  0
 48 45  1  0  0  0  0
 48 47  1  6  0  0  0
 49 52  1  6  0  0  0
 51 53  1  6  0  0  0
 51 49  1  0  0  0  0
 54 49  1  0  0  0  0
 56 55  1  0  0  0  0
 56 59  1  1  0  0  0
 56 60  1  0  0  0  0
 57 61  1  0  0  0  0
 57 60  1  0  0  0  0
 58 55  1  0  0  0  0
 61 58  1  1  0  0  0
 61 48  1  0  0  0  0
M  END
>  <MODEL>
5

>  <REMARK>
 VINA RESULT:      -5.7      1.872      8.681
  Name = 
  22 active torsions:
  status: ('A' for Active; 'I' for Inactive)
    1  A    between atoms: C_3  and  N_7
    2  A    between atoms: C_3  and  C_16
    3  A    between atoms: C_4  and  N_7
    4  A    between atoms: C_4  and  C_61
    5  A    between atoms: N_5  and  C_15
    6  A    between atoms: N_7  and  C_25
    7  A    between atoms: C_9  and  C_10
    8  A    between atoms: C_9  and  C_18
    9  A    between atoms: C_10  and  C_16
   10  A    between atoms: C_11  and  C_32
   11  A    between atoms: C_11  and  C_42
   12  A    between atoms: C_18  and  O_22
   13  A    between atoms: C_19  and  C_57
   14  A    between atoms: C_20  and  C_25
   15  A    between atoms: O_22  and  C_42
   16  A    between atoms: O_26  and  C_45
   17  A    between atoms: O_26  and  C_60
   18  A    between atoms: C_33  and  C_55
   19  A    between atoms: C_36  and  C_61
   20  A    between atoms: C_37  and  C_60
   21  A    between atoms: C_42  and  O_47
   22  A    between atoms: C_45  and  C_57
                            x       y       z     vdW  Elec       q    Type
                         _______ _______ _______ _____ _____    ______ ____

>  <TORSDO>
F 22

$$$$
=
 OpenBabel10232407523D

 61 66  0  0  1  0  0  0  0  0999 V2000
  189.4710  177.9540  141.2960 C   0  0  1  0  0  3  0  0  0  0  0  0
  188.3500  178.9450  140.9800 C   0  0  0  0  0  1  0  0  0  0  0  0
  188.0520  177.1300  143.3980 C   0  0  2  0  0  3  0  0  0  0  0  0
  188.9020  178.2160  143.6790 O   0  0  0  0  0  0  0  0  0  0  0  0
  189.3650  177.3060  142.7000 C   0  0  2  0  0  0  0  0  0  0  0  0
  191.1330  178.4450  144.6070 O   0  0  0  0  0  1  0  0  0  0  0  0
  191.4720  177.1170  144.3160 C   0  0  2  0  0  3  0  0  0  0  0  0
  192.0050  178.2100  142.2150 O   0  0  0  0  0  1  0  0  0  0  0  0
  191.9940  176.9720  142.8810 C   0  0  2  0  0  3  0  0  0  0  0  0
  190.5820  176.5100  143.2340 C   0  0  2  0  0  0  0  0  0  0  0  0
  190.4590  175.0060  143.3530 C   0  0  0  0  0  1  0  0  0  0  0  0
  186.8480  177.6270  142.6050 C   0  0  0  0  0  2  0  0  0  0  0  0
  186.0510  178.5570  143.3990 N   0  0  0  0  0  0  0  0  0  0  0  0
  185.2330  177.7350  144.2730 C   0  0  0  0  0  2  0  0  0  0  0  0
  185.9110  177.5960  145.6250 C   0  0  0  0  0  2  0  0  0  0  0  0
  186.7460  178.8290  147.6240 C   0  0  0  0  0  1  0  0  0  0  0  0
  185.9550  178.9330  146.3290 C   0  0  0  0  0  2  0  0  0  0  0  0
  185.1350  179.2390  142.4880 C   0  0  0  0  0  2  0  0  0  0  0  0
  184.3450  178.2010  141.7060 C   0  0  0  0  0  2  0  0  0  0  0  0
  183.2070  178.8840  140.9690 C   0  0  0  0  0  2  0  0  0  0  0  0
  182.0770  177.8940  140.7820 C   0  0  0  0  0  2  0  0  0  0  0  0
  182.0940  177.3570  139.3660 C   0  0  0  0  0  2  0  0  0  0  0  0
  183.2980  177.7130  138.7510 O   0  0  0  0  0  0  0  0  0  0  0  0
  183.5720  176.6790  137.8520 C   0  0  2  0  0  3  0  0  0  0  0  0
  183.4480  175.4530  138.5160 O   0  0  0  0  0  0  0  0  0  0  0  0
  183.0260  174.5560  137.5360 C   0  0  0  0  0  1  0  0  0  0  0  0
  184.9880  176.8310  137.2980 C   0  0  2  0  0  3  0  0  0  0  0  0
  185.6820  177.7930  138.0260 O   0  0  0  0  0  1  0  0  0  0  0  0
  183.7960  177.0930  135.1010 O   0  0  0  0  0  0  0  0  0  0  0  0
  186.0160  177.6950  135.3130 O   0  0  0  0  0  1  0  0  0  0  0  0
  184.9660  177.2320  135.8530 C   0  0  0  0  0  0  0  0  0  0  0  0
  189.5570  176.9400  140.3030 O   0  0  0  0  0  0  0  0  0  0  0  0
  188.7070  178.0770  138.4760 O   0  0  0  0  0  0  0  0  0  0  0  0
  189.4950  177.2050  138.9320 C   0  0  0  0  0  0  0  0  0  0  0  0
  192.7170  175.4640  137.7520 C   0  0  2  0  0  3  0  0  0  0  0  0
  189.7930  175.1500  137.5920 C   0  0  0  0  0  2  0  0  0  0  0  0
  192.3650  177.5130  138.9540 O   0  0  0  0  0  1  0  0  0  0  0  0
  190.4140  176.4880  138.0010 C   0  0  2  0  0  3  0  0  0  0  0  0
  190.7350  174.3880  136.6640 C   0  0  2  0  0  3  0  0  0  0  0  0
  191.7840  176.2740  138.6660 C   0  0  1  0  0  3  0  0  0  0  0  0
  190.1560  173.1690  136.3140 O   0  0  0  0  0  1  0  0  0  0  0  0
  192.0660  174.1370  137.3680 C   0  0  0  0  0  2  0  0  0  0  0  0
  193.9810  175.2030  138.4260 N   0  0  0  0  0  0  0  0  0  0  0  0
  199.4210  172.9800  136.3850 C   0  0  0  0  0  2  0  0  0  0  0  0
  197.3370  173.8400  136.4260 C   0  0  1  0  0  3  0  0  0  0  0  0
  195.0440  174.8130  137.7880 C   0  0  0  0  0  0  0  0  0  0  0  0
  194.9910  174.5530  136.4050 O   0  0  0  0  0  0  0  0  0  0  0  0
  196.1410  174.3080  135.5860 C   0  0  2  0  0  3  0  0  0  0  0  0
  198.8870  174.6310  138.2680 C   0  0  1  0  0  3  0  0  0  0  0  0
  198.5360  173.8400  135.6960 O   0  0  0  0  0  0  0  0  0  0  0  0
  197.4950  174.7810  137.6170 C   0  0  2  0  0  3  0  0  0  0  0  0
  198.8400  174.7630  139.6580 O   0  0  0  0  0  1  0  0  0  0  0  0
  196.3120  174.5950  138.5550 C   0  0  0  0  0  2  0  0  0  0  0  0
  199.5980  173.3300  137.8810 C   0  0  0  0  0  2  0  0  0  0  0  0
  193.8100  171.8710  135.2250 C   0  0  0  0  0  2  0  0  0  0  0  0
  194.6550  170.6460  134.9060 C   0  0  2  0  0  3  0  0  0  0  0  0
  196.6240  172.0920  134.3510 C   0  0  0  0  0  2  0  0  0  0  0  0
  194.2350  173.0520  134.3530 C   0  0  0  0  0  2  0  0  0  0  0  0
  194.1110  169.2750  135.8970 Cl  0  0  0  0  0  0  0  0  0  0  0  0
  196.1180  170.9370  135.2100 C   0  0  0  0  0  2  0  0  0  0  0  0
  195.7380  173.3360  134.4690 C   0  0  1  0  0  3  0  0  0  0  0  0
  1  2  1  6  0  0  0
  3 12  1  6  0  0  0
  3  4  1  0  0  0  0
  5  1  1  6  0  0  0
  5 10  1  0  0  0  0
  5  3  1  0  0  0  0
  5  4  1  0  0  0  0
  7  6  1  6  0  0  0
  9  8  1  6  0  0  0
  9 10  1  0  0  0  0
  9  7  1  0  0  0  0
 10 11  1  1  0  0  0
 10  7  1  0  0  0  0
 12 13  1  0  0  0  0
 13 14  1  0  0  0  0
 14 15  1  0  0  0  0
 15 17  1  0  0  0  0
 17 16  1  0  0  0  0
 18 13  1  0  0  0  0
 19 18  1  0  0  0  0
 20 19  1  0  0  0  0
 21 20  1  0  0  0  0
 22 21  1  0  0  0  0
 23 22  1  0  0  0  0
 24 25  1  1  0  0  0
 24 23  1  0  0  0  0
 26 25  1  0  0  0  0
 27 24  1  0  0  0  0
 27 28  1  1  0  0  0
 29 31  2  0  0  0  0
 30 31  1  0  0  0  0
 31 27  1  0  0  0  0
 32  1  1  0  0  0  0
 33 34  2  0  0  0  0
 34 32  1  0  0  0  0
 35 43  1  1  0  0  0
 35 40  1  0  0  0  0
 36 38  1  0  0  0  0
 38 40  1  0  0  0  0
 38 34  1  1  0  0  0
 39 41  1  1  0  0  0
 39 42  1  0  0  0  0
 39 36  1  0  0  0  0
 40 37  1  6  0  0  0
 42 35  1  0  0  0  0
 44 54  1  0  0  0  0
 45 50  1  6  0  0  0
 45 51  1  0  0  0  0
 46 43  2  0  0  0  0
 46 53  1  0  0  0  0
 47 46  1  0  0  0  0
 48 47  1  1  0  0  0
 48 45  1  0  0  0  0
 49 52  1  1  0  0  0
 50 44  1  0  0  0  0
 51 49  1  0  0  0  0
 51 53  1  1  0  0  0
 54 49  1  0  0  0  0
 56 60  1  0  0  0  0
 56 55  1  0  0  0  0
 56 59  1  1  0  0  0
 57 60  1  0  0  0  0
 58 61  1  0  0  0  0
 58 55  1  0  0  0  0
 61 57  1  1  0  0  0
 61 48  1  0  0  0  0
M  END
>  <MODEL>
6

>  <REMARK>
 VINA RESULT:      -5.4      2.775      8.946
  Name = 
  22 active torsions:
  status: ('A' for Active; 'I' for Inactive)
    1  A    between atoms: C_3  and  N_7
    2  A    between atoms: C_3  and  C_16
    3  A    between atoms: C_4  and  N_7
    4  A    between atoms: C_4  and  C_61
    5  A    between atoms: N_5  and  C_15
    6  A    between atoms: N_7  and  C_25
    7  A    between atoms: C_9  and  C_10
    8  A    between atoms: C_9  and  C_18
    9  A    between atoms: C_10  and  C_16
   10  A    between atoms: C_11  and  C_32
   11  A    between atoms: C_11  and  C_42
   12  A    between atoms: C_18  and  O_22
   13  A    between atoms: C_19  and  C_57
   14  A    between atoms: C_20  and  C_25
   15  A    between atoms: O_22  and  C_42
   16  A    between atoms: O_26  and  C_45
   17  A    between atoms: O_26  and  C_60
   18  A    between atoms: C_33  and  C_55
   19  A    between atoms: C_36  and  C_61
   20  A    between atoms: C_37  and  C_60
   21  A    between atoms: C_42  and  O_47
   22  A    between atoms: C_45  and  C_57
                            x       y       z     vdW  Elec       q    Type
                         _______ _______ _______ _____ _____    ______ ____

>  <TORSDO>
F 22

$$$$
=
 OpenBabel10232407523D

 61 66  0  0  1  0  0  0  0  0999 V2000
  191.8580  175.0170  136.9460 C   0  0  1  0  0  3  0  0  0  0  0  0
  192.0760  173.5280  136.6750 C   0  0  0  0  0  1  0  0  0  0  0  0
  192.7460  176.3620  139.0700 C   0  0  2  0  0  3  0  0  0  0  0  0
  192.8280  177.0870  137.8660 O   0  0  0  0  0  0  0  0  0  0  0  0
  192.9970  175.6860  137.7570 C   0  0  2  0  0  0  0  0  0  0  0  0
  194.2220  173.3000  138.6880 O   0  0  0  0  0  1  0  0  0  0  0  0
  195.0700  174.0190  137.8340 C   0  0  2  0  0  3  0  0  0  0  0  0
  194.9860  175.4900  139.7630 O   0  0  0  0  0  1  0  0  0  0  0  0
  195.5290  175.3340  138.4770 C   0  0  2  0  0  3  0  0  0  0  0  0
  194.4610  175.3450  137.3860 C   0  0  2  0  0  0  0  0  0  0  0  0
  194.9860  175.8040  136.0420 C   0  0  0  0  0  1  0  0  0  0  0  0
  191.2940  176.3190  139.5310 C   0  0  0  0  0  2  0  0  0  0  0  0
  191.0480  177.3150  140.5700 N   0  0  0  0  0  0  0  0  0  0  0  0
  192.1680  177.2160  141.4890 C   0  0  0  0  0  2  0  0  0  0  0  0
  191.7030  176.5930  142.7940 C   0  0  0  0  0  2  0  0  0  0  0  0
  191.6430  178.9590  143.5760 C   0  0  0  0  0  1  0  0  0  0  0  0
  191.9880  177.5250  143.9500 C   0  0  0  0  0  2  0  0  0  0  0  0
  189.8610  176.8940  141.3090 C   0  0  0  0  0  2  0  0  0  0  0  0
  188.9170  178.0780  141.4520 C   0  0  0  0  0  2  0  0  0  0  0  0
  187.7710  177.6980  142.3740 C   0  0  0  0  0  2  0  0  0  0  0  0
  188.1980  176.5280  143.2340 C   0  0  0  0  0  2  0  0  0  0  0  0
  188.8840  177.0330  144.4860 C   0  0  0  0  0  2  0  0  0  0  0  0
  187.9570  177.7220  145.2740 O   0  0  0  0  0  0  0  0  0  0  0  0
  188.5620  177.8490  146.5280 C   0  0  2  0  0  3  0  0  0  0  0  0
  189.3230  176.7030  146.7860 O   0  0  0  0  0  0  0  0  0  0  0  0
  190.6120  177.1750  147.0280 C   0  0  0  0  0  1  0  0  0  0  0  0
  187.4950  178.0220  147.6070 C   0  0  2  0  0  3  0  0  0  0  0  0
  187.2600  176.8050  148.2410 O   0  0  0  0  0  1  0  0  0  0  0  0
  185.9140  179.8950  147.0540 O   0  0  0  0  0  1  0  0  0  0  0  0
  185.3870  177.7140  146.5100 O   0  0  0  0  0  0  0  0  0  0  0  0
  186.2100  178.5290  147.0260 C   0  0  0  0  0  0  0  0  0  0  0  0
  191.6430  175.7350  135.7370 O   0  0  0  0  0  0  0  0  0  0  0  0
  190.2610  176.9630  134.3460 O   0  0  0  0  0  0  0  0  0  0  0  0
  190.3830  176.1810  135.3270 C   0  0  0  0  0  0  0  0  0  0  0  0
  186.9940  176.3630  137.1400 C   0  0  2  0  0  3  0  0  0  0  0  0
  188.3720  174.7640  135.0860 C   0  0  0  0  0  2  0  0  0  0  0  0
  189.0140  177.6330  137.4110 O   0  0  0  0  0  1  0  0  0  0  0  0
  189.1630  175.6800  136.0230 C   0  0  2  0  0  3  0  0  0  0  0  0
  187.1020  174.2690  135.7720 C   0  0  2  0  0  3  0  0  0  0  0  0
  188.2960  176.8610  136.4930 C   0  0  1  0  0  3  0  0  0  0  0  0
  186.3930  173.4470  134.8970 O   0  0  0  0  0  1  0  0  0  0  0  0
  186.2330  175.4570  136.1750 C   0  0  0  0  0  2  0  0  0  0  0  0
  186.1510  177.4910  137.5080 N   0  0  0  0  0  0  0  0  0  0  0  0
  179.9850  178.3090  137.3900 C   0  0  0  0  0  2  0  0  0  0  0  0
  182.0190  177.3390  137.3370 C   0  0  1  0  0  3  0  0  0  0  0  0
  184.8530  177.4270  137.4910 C   0  0  0  0  0  0  0  0  0  0  0  0
  184.2030  176.2630  137.0370 O   0  0  0  0  0  0  0  0  0  0  0  0
  182.7940  176.0270  137.1600 C   0  0  2  0  0  3  0  0  0  0  0  0
  181.7750  179.2880  138.9380 C   0  0  1  0  0  3  0  0  0  0  0  0
  180.6850  177.1250  137.7140 O   0  0  0  0  0  0  0  0  0  0  0  0
  182.7030  178.1670  138.4210 C   0  0  2  0  0  3  0  0  0  0  0  0
  182.4730  180.4600  139.2370 O   0  0  0  0  0  1  0  0  0  0  0  0
  184.0610  178.6260  137.9120 C   0  0  0  0  0  2  0  0  0  0  0  0
  180.6090  179.5900  137.9920 C   0  0  0  0  0  2  0  0  0  0  0  0
  180.1610  173.9980  136.4850 C   0  0  0  0  0  2  0  0  0  0  0  0
  180.8380  172.6750  136.1540 C   0  0  2  0  0  3  0  0  0  0  0  0
  183.0390  173.8270  135.8310 C   0  0  0  0  0  2  0  0  0  0  0  0
  180.8270  175.1410  135.7190 C   0  0  0  0  0  2  0  0  0  0  0  0
  180.0170  171.3560  137.0180 Cl  0  0  0  0  0  0  0  0  0  0  0  0
  182.2980  172.7220  136.5800 C   0  0  0  0  0  2  0  0  0  0  0  0
  182.3420  175.1850  135.9600 C   0  0  1  0  0  3  0  0  0  0  0  0
  1  2  1  6  0  0  0
  3 12  1  6  0  0  0
  4  3  1  0  0  0  0
  5  1  1  6  0  0  0
  5  4  1  0  0  0  0
  5  3  1  0  0  0  0
  7  9  1  0  0  0  0
  7  6  1  1  0  0  0
  9  8  1  1  0  0  0
 10 11  1  6  0  0  0
 10  5  1  0  0  0  0
 10  7  1  0  0  0  0
 10  9  1  0  0  0  0
 12 13  1  0  0  0  0
 13 18  1  0  0  0  0
 13 14  1  0  0  0  0
 14 15  1  0  0  0  0
 15 17  1  0  0  0  0
 16 17  1  0  0  0  0
 18 19  1  0  0  0  0
 19 20  1  0  0  0  0
 20 21  1  0  0  0  0
 21 22  1  0  0  0  0
 22 23  1  0  0  0  0
 24 23  1  6  0  0  0
 24 25  1  0  0  0  0
 24 27  1  0  0  0  0
 25 26  1  0  0  0  0
 27 28  1  6  0  0  0
 30 31  2  0  0  0  0
 31 29  1  0  0  0  0
 31 27  1  0  0  0  0
 32  1  1  0  0  0  0
 33 34  2  0  0  0  0
 34 32  1  0  0  0  0
 35 43  1  6  0  0  0
 36 39  1  0  0  0  0
 36 38  1  0  0  0  0
 38 34  1  6  0  0  0
 38 40  1  0  0  0  0
 39 41  1  6  0  0  0
 39 42  1  0  0  0  0
 40 35  1  0  0  0  0
 40 37  1  1  0  0  0
 42 35  1  0  0  0  0
 44 50  1  0  0  0  0
 44 54  1  0  0  0  0
 45 50  1  1  0  0  0
 45 51  1  0  0  0  0
 46 43  2  0  0  0  0
 46 53  1  0  0  0  0
 47 46  1  0  0  0  0
 48 47  1  6  0  0  0
 48 45  1  0  0  0  0
 49 52  1  6  0  0  0
 51 53  1  6  0  0  0
 51 49  1  0  0  0  0
 54 49  1  0  0  0  0
 56 55  1  0  0  0  0
 56 60  1  0  0  0  0
 56 59  1  1  0  0  0
 57 61  1  0  0  0  0
 57 60  1  0  0  0  0
 58 55  1  0  0  0  0
 61 58  1  1  0  0  0
 61 48  1  0  0  0  0
M  END
>  <MODEL>
7

>  <REMARK>
 VINA RESULT:      -5.1      2.002      8.470
  Name = 
  22 active torsions:
  status: ('A' for Active; 'I' for Inactive)
    1  A    between atoms: C_3  and  N_7
    2  A    between atoms: C_3  and  C_16
    3  A    between atoms: C_4  and  N_7
    4  A    between atoms: C_4  and  C_61
    5  A    between atoms: N_5  and  C_15
    6  A    between atoms: N_7  and  C_25
    7  A    between atoms: C_9  and  C_10
    8  A    between atoms: C_9  and  C_18
    9  A    between atoms: C_10  and  C_16
   10  A    between atoms: C_11  and  C_32
   11  A    between atoms: C_11  and  C_42
   12  A    between atoms: C_18  and  O_22
   13  A    between atoms: C_19  and  C_57
   14  A    between atoms: C_20  and  C_25
   15  A    between atoms: O_22  and  C_42
   16  A    between atoms: O_26  and  C_45
   17  A    between atoms: O_26  and  C_60
   18  A    between atoms: C_33  and  C_55
   19  A    between atoms: C_36  and  C_61
   20  A    between atoms: C_37  and  C_60
   21  A    between atoms: C_42  and  O_47
   22  A    between atoms: C_45  and  C_57
                            x       y       z     vdW  Elec       q    Type
                         _______ _______ _______ _____ _____    ______ ____

>  <TORSDO>
F 22

$$$$
=
 OpenBabel10232407523D

 61 66  0  0  1  0  0  0  0  0999 V2000
  187.1600  178.6920  141.4380 C   0  0  1  0  0  3  0  0  0  0  0  0
  185.7660  179.1470  141.0050 C   0  0  0  0  0  1  0  0  0  0  0  0
  188.4810  177.5960  143.4790 C   0  0  2  0  0  3  0  0  0  0  0  0
  187.7290  176.6720  142.7290 O   0  0  0  0  0  0  0  0  0  0  0  0
  187.1940  177.9790  142.8140 C   0  0  2  0  0  0  0  0  0  0  0  0
  187.1630  179.1640  145.3940 O   0  0  0  0  0  1  0  0  0  0  0  0
  185.8950  178.6940  145.0240 C   0  0  2  0  0  3  0  0  0  0  0  0
  187.1120  176.6110  145.2920 O   0  0  0  0  0  1  0  0  0  0  0  0
  185.8620  177.1620  144.9620 C   0  0  2  0  0  3  0  0  0  0  0  0
  185.9070  177.9820  143.6740 C   0  0  2  0  0  0  0  0  0  0  0  0
  184.5710  178.0520  142.9660 C   0  0  0  0  0  1  0  0  0  0  0  0
  189.7310  177.9790  142.6950 C   0  0  0  0  0  2  0  0  0  0  0  0
  190.5420  176.8010  142.4020 N   0  0  0  0  0  0  0  0  0  0  0  0
  191.1890  176.4420  143.6520 C   0  0  0  0  0  2  0  0  0  0  0  0
  191.6980  177.6960  144.3410 C   0  0  0  0  0  2  0  0  0  0  0  0
  191.6260  176.1720  146.3120 C   0  0  0  0  0  1  0  0  0  0  0  0
  191.4630  177.6070  145.8320 C   0  0  0  0  0  2  0  0  0  0  0  0
  191.6020  177.2150  141.4860 C   0  0  0  0  0  2  0  0  0  0  0  0
  191.3060  176.6640  140.1000 C   0  0  0  0  0  2  0  0  0  0  0  0
  192.1400  177.4110  139.0740 C   0  0  0  0  0  2  0  0  0  0  0  0
  192.3940  176.5010  137.8890 C   0  0  0  0  0  2  0  0  0  0  0  0
  193.7550  175.8520  138.0230 C   0  0  0  0  0  2  0  0  0  0  0  0
  193.6330  174.4760  137.8070 O   0  0  0  0  0  0  0  0  0  0  0  0
  194.9430  174.0080  137.6670 C   0  0  2  0  0  3  0  0  0  0  0  0
  195.8250  174.9520  138.2070 O   0  0  0  0  0  0  0  0  0  0  0  0
  196.4740  174.2850  139.2440 C   0  0  0  0  0  1  0  0  0  0  0  0
  195.2610  173.7800  136.1910 C   0  0  2  0  0  3  0  0  0  0  0  0
  194.4580  172.7630  135.6840 O   0  0  0  0  0  1  0  0  0  0  0  0
  197.1460  172.1210  136.3050 O   0  0  0  0  0  1  0  0  0  0  0  0
  197.5170  174.2720  135.5490 O   0  0  0  0  0  0  0  0  0  0  0  0
  196.7010  173.4100  135.9950 C   0  0  0  0  0  0  0  0  0  0  0  0
  187.7620  177.8630  140.4520 O   0  0  0  0  0  0  0  0  0  0  0  0
  189.0000  179.1860  139.0120 O   0  0  0  0  0  0  0  0  0  0  0  0
  188.1000  178.3180  139.1740 C   0  0  0  0  0  0  0  0  0  0  0  0
  187.2080  175.6520  136.5470 C   0  0  2  0  0  3  0  0  0  0  0  0
  185.9100  177.7190  138.1950 C   0  0  0  0  0  2  0  0  0  0  0  0
  189.3200  176.3520  137.4490 O   0  0  0  0  0  1  0  0  0  0  0  0
  187.4260  177.7280  137.9810 C   0  0  2  0  0  3  0  0  0  0  0  0
  185.2080  177.0890  136.9960 C   0  0  2  0  0  3  0  0  0  0  0  0
  187.9500  176.3050  137.7230 C   0  0  1  0  0  3  0  0  0  0  0  0
  183.8310  177.0810  137.2170 O   0  0  0  0  0  1  0  0  0  0  0  0
  185.7020  175.6590  136.7980 C   0  0  0  0  0  2  0  0  0  0  0  0
  187.6600  174.2800  136.3660 N   0  0  0  0  0  0  0  0  0  0  0  0
  184.6260  169.0370  134.9460 C   0  0  0  0  0  2  0  0  0  0  0  0
  185.1080  171.2190  135.2520 C   0  0  1  0  0  3  0  0  0  0  0  0
  186.8630  173.3290  135.9770 C   0  0  0  0  0  0  0  0  0  0  0  0
  185.4920  173.5820  135.7840 O   0  0  0  0  0  0  0  0  0  0  0  0
  184.5790  172.6570  135.1790 C   0  0  2  0  0  3  0  0  0  0  0  0
  187.0240  169.7750  134.4360 C   0  0  1  0  0  3  0  0  0  0  0  0
  184.3690  170.3360  134.4500 O   0  0  0  0  0  0  0  0  0  0  0  0
  186.5580  171.2070  134.7770 C   0  0  2  0  0  3  0  0  0  0  0  0
  188.3590  169.5540  134.7840 O   0  0  0  0  0  1  0  0  0  0  0  0
  187.4170  171.9500  135.7880 C   0  0  0  0  0  2  0  0  0  0  0  0
  186.1290  168.6890  135.0410 C   0  0  0  0  0  2  0  0  0  0  0  0
  182.2190  170.6180  136.5140 C   0  0  0  0  0  2  0  0  0  0  0  0
  180.9950  170.9250  135.6630 C   0  0  2  0  0  3  0  0  0  0  0  0
  182.0500  173.0370  134.8240 C   0  0  0  0  0  2  0  0  0  0  0  0
  182.8750  171.9150  136.9900 C   0  0  0  0  0  2  0  0  0  0  0  0
  180.2230  169.4050  135.1630 Cl  0  0  0  0  0  0  0  0  0  0  0  0
  181.4110  171.7090  134.4270 C   0  0  0  0  0  2  0  0  0  0  0  0
  183.1990  172.8540  135.8200 C   0  0  1  0  0  3  0  0  0  0  0  0
  1  2  1  6  0  0  0
  3 12  1  6  0  0  0
  4  5  1  0  0  0  0
  4  3  1  0  0  0  0
  5  1  1  6  0  0  0
  5  3  1  0  0  0  0
  5 10  1  0  0  0  0
  7  6  1  1  0  0  0
  9  7  1  0  0  0  0
  9  8  1  1  0  0  0
 10 11  1  6  0  0  0
 10  9  1  0  0  0  0
 10  7  1  0  0  0  0
 13 12  1  0  0  0  0
 13 14  1  0  0  0  0
 14 15  1  0  0  0  0
 15 17  1  0  0  0  0
 17 16  1  0  0  0  0
 18 13  1  0  0  0  0
 19 18  1  0  0  0  0
 20 19  1  0  0  0  0
 21 22  1  0  0  0  0
 21 20  1  0  0  0  0
 23 22  1  0  0  0  0
 24 23  1  6  0  0  0
 24 25  1  0  0  0  0
 25 26  1  0  0  0  0
 27 28  1  1  0  0  0
 27 24  1  0  0  0  0
 30 31  2  0  0  0  0
 31 27  1  0  0  0  0
 31 29  1  0  0  0  0
 32  1  1  0  0  0  0
 33 34  2  0  0  0  0
 34 32  1  0  0  0  0
 35 43  1  1  0  0  0
 35 42  1  0  0  0  0
 35 40  1  0  0  0  0
 38 36  1  0  0  0  0
 38 34  1  1  0  0  0
 39 41  1  1  0  0  0
 39 36  1  0  0  0  0
 40 37  1  6  0  0  0
 40 38  1  0  0  0  0
 42 39  1  0  0  0  0
 44 54  1  0  0  0  0
 45 50  1  6  0  0  0
 46 43  2  0  0  0  0
 47 46  1  0  0  0  0
 48 45  1  0  0  0  0
 48 47  1  1  0  0  0
 48 61  1  0  0  0  0
 49 51  1  0  0  0  0
 49 52  1  1  0  0  0
 49 54  1  0  0  0  0
 50 44  1  0  0  0  0
 51 45  1  0  0  0  0
 51 53  1  1  0  0  0
 53 46  1  0  0  0  0
 55 58  1  0  0  0  0
 56 59  1  6  0  0  0
 56 55  1  0  0  0  0
 60 57  1  0  0  0  0
 60 56  1  0  0  0  0
 61 57  1  6  0  0  0
 61 58  1  0  0  0  0
M  END
>  <MODEL>
8

>  <REMARK>
 VINA RESULT:      -4.3      2.115      3.828
  Name = 
  22 active torsions:
  status: ('A' for Active; 'I' for Inactive)
    1  A    between atoms: C_3  and  N_7
    2  A    between atoms: C_3  and  C_16
    3  A    between atoms: C_4  and  N_7
    4  A    between atoms: C_4  and  C_61
    5  A    between atoms: N_5  and  C_15
    6  A    between atoms: N_7  and  C_25
    7  A    between atoms: C_9  and  C_10
    8  A    between atoms: C_9  and  C_18
    9  A    between atoms: C_10  and  C_16
   10  A    between atoms: C_11  and  C_32
   11  A    between atoms: C_11  and  C_42
   12  A    between atoms: C_18  and  O_22
   13  A    between atoms: C_19  and  C_57
   14  A    between atoms: C_20  and  C_25
   15  A    between atoms: O_22  and  C_42
   16  A    between atoms: O_26  and  C_45
   17  A    between atoms: O_26  and  C_60
   18  A    between atoms: C_33  and  C_55
   19  A    between atoms: C_36  and  C_61
   20  A    between atoms: C_37  and  C_60
   21  A    between atoms: C_42  and  O_47
   22  A    between atoms: C_45  and  C_57
                            x       y       z     vdW  Elec       q    Type
                         _______ _______ _______ _____ _____    ______ ____

>  <TORSDO>
F 22

$$$$
=
 OpenBabel10232407523D

 61 66  0  0  1  0  0  0  0  0999 V2000
  180.7380  177.5590  140.3190 C   0  0  1  0  0  3  0  0  0  0  0  0
  181.3250  177.1010  141.6550 C   0  0  0  0  0  1  0  0  0  0  0  0
  182.9230  179.0310  139.9110 C   0  0  2  0  0  3  0  0  0  0  0  0
  181.9350  179.6830  140.6720 O   0  0  0  0  0  0  0  0  0  0  0  0
  181.4630  178.7770  139.6930 C   0  0  2  0  0  0  0  0  0  0  0  0
  182.4550  181.2730  138.7720 O   0  0  0  0  0  1  0  0  0  0  0  0
  181.3560  180.8410  138.0160 C   0  0  2  0  0  3  0  0  0  0  0  0
  180.3020  181.3190  140.1490 O   0  0  0  0  0  1  0  0  0  0  0  0
  180.0630  180.8670  138.8410 C   0  0  2  0  0  3  0  0  0  0  0  0
  180.7580  179.5400  138.5450 C   0  0  2  0  0  0  0  0  0  0  0  0
  180.0670  178.7340  137.4650 C   0  0  0  0  0  1  0  0  0  0  0  0
  183.6190  177.9890  140.7790 C   0  0  0  0  0  2  0  0  0  0  0  0
  184.5680  178.6220  141.6910 N   0  0  0  0  0  0  0  0  0  0  0  0
  185.8190  177.9050  141.5240 C   0  0  0  0  0  2  0  0  0  0  0  0
  186.6380  178.5580  140.4240 C   0  0  0  0  0  2  0  0  0  0  0  0
  189.0390  177.9180  140.2210 C   0  0  0  0  0  1  0  0  0  0  0  0
  188.0420  178.8360  140.9120 C   0  0  0  0  0  2  0  0  0  0  0  0
  184.1110  178.3550  143.0530 C   0  0  0  0  0  2  0  0  0  0  0  0
  185.1550  178.8600  144.0360 C   0  0  0  0  0  2  0  0  0  0  0  0
  186.0360  177.7030  144.4730 C   0  0  0  0  0  2  0  0  0  0  0  0
  186.2690  177.7980  145.9670 C   0  0  0  0  0  2  0  0  0  0  0  0
  187.7550  177.8460  146.2540 C   0  0  0  0  0  2  0  0  0  0  0  0
  188.4590  177.4780  145.1030 O   0  0  0  0  0  0  0  0  0  0  0  0
  189.6990  177.0240  145.5600 C   0  0  2  0  0  3  0  0  0  0  0  0
  189.9690  177.6080  146.8030 O   0  0  0  0  0  0  0  0  0  0  0  0
  190.7540  176.6730  147.4760 C   0  0  0  0  0  1  0  0  0  0  0  0
  190.7920  177.3950  144.5590 C   0  0  2  0  0  3  0  0  0  0  0  0
  190.3800  178.4770  143.7870 O   0  0  0  0  0  1  0  0  0  0  0  0
  192.0290  175.2650  144.0630 O   0  0  0  0  0  1  0  0  0  0  0  0
  190.5650  176.1610  142.5180 O   0  0  0  0  0  0  0  0  0  0  0  0
  191.1180  176.2440  143.6560 C   0  0  0  0  0  0  0  0  0  0  0  0
  180.6950  176.4900  139.3810 O   0  0  0  0  0  0  0  0  0  0  0  0
  182.5530  175.1950  139.8550 O   0  0  0  0  0  0  0  0  0  0  0  0
  181.8270  175.7660  138.9970 C   0  0  0  0  0  0  0  0  0  0  0  0
  183.0870  174.0550  135.7890 C   0  0  2  0  0  3  0  0  0  0  0  0
  180.8710  175.7580  136.7170 C   0  0  0  0  0  2  0  0  0  0  0  0
  184.0270  174.1900  137.9940 O   0  0  0  0  0  1  0  0  0  0  0  0
  182.1490  175.6180  137.5480 C   0  0  2  0  0  3  0  0  0  0  0  0
  181.1780  175.5770  135.2340 C   0  0  2  0  0  3  0  0  0  0  0  0
  182.8220  174.2590  137.2890 C   0  0  1  0  0  3  0  0  0  0  0  0
  180.0000  175.6980  134.4980 O   0  0  0  0  0  1  0  0  0  0  0  0
  181.7900  174.2000  134.9950 C   0  0  0  0  0  2  0  0  0  0  0  0
  183.6520  172.7350  135.5520 N   0  0  0  0  0  0  0  0  0  0  0  0
  189.4590  170.8200  134.4010 C   0  0  0  0  0  2  0  0  0  0  0  0
  187.7030  172.1080  134.9910 C   0  0  1  0  0  3  0  0  0  0  0  0
  184.9290  172.5360  135.4160 C   0  0  0  0  0  0  0  0  0  0  0  0
  185.8240  173.6240  135.4190 O   0  0  0  0  0  0  0  0  0  0  0  0
  187.2510  173.4930  135.4680 C   0  0  2  0  0  3  0  0  0  0  0  0
  187.5140  169.6530  135.5900 C   0  0  1  0  0  3  0  0  0  0  0  0
  189.0570  171.8620  135.2680 O   0  0  0  0  0  0  0  0  0  0  0  0
  186.8630  171.0490  135.6990 C   0  0  2  0  0  3  0  0  0  0  0  0
  186.5680  168.6350  135.4490 O   0  0  0  0  0  1  0  0  0  0  0  0
  185.4280  171.1400  135.2040 C   0  0  0  0  0  2  0  0  0  0  0  0
  188.5640  169.5610  134.4780 C   0  0  0  0  0  2  0  0  0  0  0  0
  190.0140  175.4320  135.7980 C   0  0  0  0  0  2  0  0  0  0  0  0
  189.4280  176.8340  135.8890 C   0  0  2  0  0  3  0  0  0  0  0  0
  187.2390  176.0280  134.9760 C   0  0  0  0  0  2  0  0  0  0  0  0
  189.4000  174.6740  134.6210 C   0  0  0  0  0  2  0  0  0  0  0  0
  190.1910  177.7110  137.2330 Cl  0  0  0  0  0  0  0  0  0  0  0  0
  187.9280  176.7500  136.1310 C   0  0  0  0  0  2  0  0  0  0  0  0
  187.8670  174.6610  134.6870 C   0  0  1  0  0  3  0  0  0  0  0  0
  1  2  1  1  0  0  0
  3  4  1  0  0  0  0
  3 12  1  1  0  0  0
  5  3  1  0  0  0  0
  5  1  1  1  0  0  0
  5  4  1  0  0  0  0
  7 10  1  0  0  0  0
  7  6  1  1  0  0  0
  7  9  1  0  0  0  0
  9  8  1  1  0  0  0
 10 11  1  6  0  0  0
 10  9  1  0  0  0  0
 10  5  1  0  0  0  0
 12 13  1  0  0  0  0
 13 18  1  0  0  0  0
 14 13  1  0  0  0  0
 15 17  1  0  0  0  0
 15 14  1  0  0  0  0
 16 17  1  0  0  0  0
 18 19  1  0  0  0  0
 19 20  1  0  0  0  0
 20 21  1  0  0  0  0
 21 22  1  0  0  0  0
 23 22  1  0  0  0  0
 24 23  1  6  0  0  0
 24 25  1  0  0  0  0
 25 26  1  0  0  0  0
 27 28  1  6  0  0  0
 27 24  1  0  0  0  0
 30 31  2  0  0  0  0
 31 29  1  0  0  0  0
 31 27  1  0  0  0  0
 32  1  1  0  0  0  0
 34 32  1  0  0  0  0
 34 33  2  0  0  0  0
 35 43  1  1  0  0  0
 35 40  1  0  0  0  0
 36 38  1  0  0  0  0
 38 34  1  1  0  0  0
 39 41  1  6  0  0  0
 39 36  1  0  0  0  0
 40 38  1  0  0  0  0
 40 37  1  1  0  0  0
 42 39  1  0  0  0  0
 42 35  1  0  0  0  0
 44 54  1  0  0  0  0
 44 50  1  0  0  0  0
 45 50  1  1  0  0  0
 45 48  1  0  0  0  0
 45 51  1  0  0  0  0
 46 47  1  0  0  0  0
 46 43  2  0  0  0  0
 48 47  1  6  0  0  0
 49 52  1  6  0  0  0
 49 51  1  0  0  0  0
 51 53  1  6  0  0  0
 53 46  1  0  0  0  0
 54 49  1  0  0  0  0
 55 56  1  0  0  0  0
 56 60  1  0  0  0  0
 56 59  1  1  0  0  0
 57 60  1  0  0  0  0
 58 55  1  0  0  0  0
 61 58  1  1  0  0  0
 61 57  1  0  0  0  0
 61 48  1  0  0  0  0
M  END
>  <MODEL>
9

>  <REMARK>
 VINA RESULT:      -4.0      3.382      7.364
  Name = 
  22 active torsions:
  status: ('A' for Active; 'I' for Inactive)
    1  A    between atoms: C_3  and  N_7
    2  A    between atoms: C_3  and  C_16
    3  A    between atoms: C_4  and  N_7
    4  A    between atoms: C_4  and  C_61
    5  A    between atoms: N_5  and  C_15
    6  A    between atoms: N_7  and  C_25
    7  A    between atoms: C_9  and  C_10
    8  A    between atoms: C_9  and  C_18
    9  A    between atoms: C_10  and  C_16
   10  A    between atoms: C_11  and  C_32
   11  A    between atoms: C_11  and  C_42
   12  A    between atoms: C_18  and  O_22
   13  A    between atoms: C_19  and  C_57
   14  A    between atoms: C_20  and  C_25
   15  A    between atoms: O_22  and  C_42
   16  A    between atoms: O_26  and  C_45
   17  A    between atoms: O_26  and  C_60
   18  A    between atoms: C_33  and  C_55
   19  A    between atoms: C_36  and  C_61
   20  A    between atoms: C_37  and  C_60
   21  A    between atoms: C_42  and  O_47
   22  A    between atoms: C_45  and  C_57
                            x       y       z     vdW  Elec       q    Type
                         _______ _______ _______ _____ _____    ______ ____

>  <TORSDO>
F 22

$$$$
