=
 OpenBabel10232412423D

 37 38  0  0  1  0  0  0  0  0999 V2000
  190.9980  176.4830  138.7060 C   0  0  0  0  0  0  0  0  0  0  0  0
  188.8740  177.4050  137.8000 C   0  0  2  0  0  3  0  0  0  0  0  0
  189.5200  176.2240  138.5050 C   0  0  2  0  0  3  0  0  0  0  0  0
  191.4530  177.1410  139.7850 C   0  0  0  0  0  3  0  0  0  0  0  0
  189.2960  178.2480  140.0960 C   0  0  2  0  0  3  0  0  0  0  0  0
  188.5770  177.1750  139.2670 C   0  0  1  0  0  3  0  0  0  0  0  0
  187.4990  176.8290  136.8320 Cl  0  0  0  0  0  0  0  0  0  0  0  0
  190.5150  177.6700  140.8240 C   0  0  1  0  0  3  0  0  0  0  0  0
  190.8550  173.7840  137.5410 O   0  0  0  0  0  1  0  0  0  0  0  0
  191.9530  175.9660  137.7130 C   0  0  0  0  0  0  0  0  0  0  0  0
  192.9450  176.6780  137.3850 O   0  0  0  0  0  0  0  0  0  0  0  0
  191.8040  174.6690  137.1230 N   0  0  0  0  0  2  0  0  0  0  0  0
  188.3230  178.9250  141.0530 C   0  0  0  0  0  2  0  0  0  0  0  0
  186.8920  178.4770  140.7830 C   0  0  0  0  0  2  0  0  0  0  0  0
  186.0440  178.6120  142.0080 C   0  0  0  0  0  3  0  0  0  0  0  0
  184.7390  178.5910  141.9290 C   0  0  0  0  0  0  0  0  0  0  0  0
  183.4410  178.5430  141.8310 C   0  0  0  0  0  3  0  0  0  0  0  0
  182.5750  178.9670  142.9720 C   0  0  0  0  0  2  0  0  0  0  0  0
  181.1070  178.8870  142.5860 C   0  0  0  0  0  2  0  0  0  0  0  0
  180.2650  178.4030  143.7620 C   0  0  0  0  0  1  0  0  0  0  0  0
  190.1230  176.6260  141.6950 O   0  0  0  0  0  0  0  0  0  0  0  0
  190.4980  176.8450  143.0560 C   0  0  1  0  0  0  0  0  0  0  0  0
  191.4680  175.7840  143.6270 C   0  0  0  0  0  1  0  0  0  0  0  0
  191.2290  178.1920  143.0440 C   0  0  0  0  0  2  0  0  0  0  0  0
  191.8230  178.4980  144.2770 O   0  0  0  0  0  1  0  0  0  0  0  0
  189.2220  176.9550  143.9320 C   0  0  1  0  0  3  0  0  0  0  0  0
  188.0980  176.0790  143.4000 C   0  0  0  0  0  1  0  0  0  0  0  0
  189.4720  176.5920  145.4020 C   0  0  0  0  0  2  0  0  0  0  0  0
  188.9680  177.6510  146.3930 C   0  0  2  0  0  3  0  0  0  0  0  0
  189.7980  177.6820  147.6400 C   0  0  0  0  0  0  0  0  0  0  0  0
  191.0170  177.0200  147.6660 O   0  0  0  0  0  0  0  0  0  0  0  0
  189.3740  178.2440  148.6890 O   0  0  0  0  0  1  0  0  0  0  0  0
  187.4820  177.5020  146.7020 C   0  0  0  0  0  2  0  0  0  0  0  0
  185.6250  179.1350  146.2230 C   0  0  0  0  0  0  0  0  0  0  0  0
  185.4560  179.3630  147.4540 O   0  0  0  0  0  1  0  0  0  0  0  0
  184.7670  179.7030  145.2900 O   0  0  0  0  0  0  0  0  0  0  0  0
  186.6940  178.3050  145.7790 N   0  0  0  0  0  2  0  0  0  0  0  0
  1  4  2  0  0  0  0
  2  7  1  6  0  0  0
  2  3  1  0  0  0  0
  2  6  1  0  0  0  0
  3  1  1  1  0  0  0
  3  6  1  0  0  0  0
  4  8  1  0  0  0  0
  5  8  1  0  0  0  0
  5 13  1  1  0  0  0
  6  5  1  0  0  0  0
  8 21  1  0  0  0  0
 10  1  1  0  0  0  0
 11 10  2  0  0  0  0
 12  9  1  0  0  0  0
 12 10  1  0  0  0  0
 14 13  1  0  0  0  0
 14 15  1  0  0  0  0
 16 15  2  0  0  0  0
 17 16  2  0  0  0  0
 17 18  1  0  0  0  0
 19 18  1  0  0  0  0
 19 20  1  0  0  0  0
 21 22  1  0  0  0  0
 22 23  1  0  0  0  0
 22 26  1  0  0  0  0
 24 22  1  0  0  0  0
 24 25  1  0  0  0  0
 26 28  1  0  0  0  0
 27 26  1  0  0  0  0
 28 29  1  0  0  0  0
 29 33  1  0  0  0  0
 29 30  1  0  0  0  0
 30 31  2  0  0  0  0
 30 32  1  0  0  0  0
 34 35  1  0  0  0  0
 36 34  2  0  0  0  0
 37 34  1  0  0  0  0
 37 33  1  0  0  0  0
M  END
>  <MODEL>
1

>  <REMARK>
 VINA RESULT:      -7.5      0.000      0.000
  Name = 
  15 active torsions:
  status: ('A' for Active; 'I' for Inactive)
    1  A    between atoms: C_1  and  C_10
    2  A    between atoms: C_3  and  C_16
    3  A    between atoms: C_6  and  C_8
    4  A    between atoms: C_8  and  C_20
    5  A    between atoms: C_8  and  O_34
    6  A    between atoms: C_13  and  C_23
    7  A    between atoms: C_13  and  C_24
    8  A    between atoms: C_13  and  C_37
    9  A    between atoms: C_15  and  C_26
   10  A    between atoms: C_16  and  C_26
   11  A    between atoms: C_19  and  C_29
   12  A    between atoms: C_20  and  C_23
   13  A    between atoms: C_25  and  O_34
   14  A    between atoms: N_27  and  C_37
   15  A    between atoms: C_29  and  C_30
                            x       y       z     vdW  Elec       q    Type
                         _______ _______ _______ _____ _____    ______ ____

>  <TORSDO>
F 15

$$$$
=
 OpenBabel10232412423D

 37 38  0  0  1  0  0  0  0  0999 V2000
  186.5560  178.5490  141.8980 C   0  0  0  0  0  0  0  0  0  0  0  0
  187.5010  177.7450  144.0530 C   0  0  2  0  0  3  0  0  0  0  0  0
  186.7480  177.3440  142.7950 C   0  0  2  0  0  3  0  0  0  0  0  0
  187.4890  178.9110  141.0030 C   0  0  0  0  0  3  0  0  0  0  0  0
  189.2420  177.7890  142.2840 C   0  0  2  0  0  3  0  0  0  0  0  0
  188.2120  176.9110  143.0070 C   0  0  1  0  0  3  0  0  0  0  0  0
  187.0020  176.6920  145.3950 Cl  0  0  0  0  0  0  0  0  0  0  0  0
  188.7740  178.1550  140.8710 C   0  0  1  0  0  3  0  0  0  0  0  0
  184.9790  179.3960  139.5610 O   0  0  0  0  0  1  0  0  0  0  0  0
  185.2990  179.3100  141.9880 C   0  0  0  0  0  0  0  0  0  0  0  0
  184.8960  179.7000  143.1210 O   0  0  0  0  0  0  0  0  0  0  0  0
  184.5300  179.6410  140.8260 N   0  0  0  0  0  2  0  0  0  0  0  0
  190.6090  177.1150  142.2790 C   0  0  0  0  0  2  0  0  0  0  0  0
  191.6830  178.0590  142.8050 C   0  0  0  0  0  2  0  0  0  0  0  0
  191.4670  178.3710  144.2520 C   0  0  0  0  0  3  0  0  0  0  0  0
  191.5350  177.4330  145.1590 C   0  0  0  0  0  0  0  0  0  0  0  0
  191.6320  176.4860  146.0510 C   0  0  0  0  0  3  0  0  0  0  0  0
  191.1360  176.6990  147.4430 C   0  0  0  0  0  2  0  0  0  0  0  0
  189.6180  176.7630  147.4660 C   0  0  0  0  0  2  0  0  0  0  0  0
  189.1420  178.0510  148.1290 C   0  0  0  0  0  1  0  0  0  0  0  0
  188.5670  176.9860  140.0990 O   0  0  0  0  0  0  0  0  0  0  0  0
  188.7410  177.1900  138.6960 C   0  0  1  0  0  0  0  0  0  0  0  0
  187.4190  177.2790  137.8980 C   0  0  0  0  0  1  0  0  0  0  0  0
  189.4490  178.5450  138.5860 C   0  0  0  0  0  2  0  0  0  0  0  0
  188.8330  179.4060  137.6650 O   0  0  0  0  0  1  0  0  0  0  0  0
  189.6580  176.0770  138.1230 C   0  0  1  0  0  3  0  0  0  0  0  0
  188.9290  175.2190  137.1000 C   0  0  0  0  0  1  0  0  0  0  0  0
  190.9370  176.6290  137.4790 C   0  0  0  0  0  2  0  0  0  0  0  0
  192.1320  175.6680  137.5590 C   0  0  2  0  0  3  0  0  0  0  0  0
  193.2180  176.2080  138.4400 C   0  0  0  0  0  0  0  0  0  0  0  0
  194.4980  175.6790  138.3480 O   0  0  0  0  0  0  0  0  0  0  0  0
  192.9710  177.0890  139.3100 O   0  0  0  0  0  1  0  0  0  0  0  0
  192.6580  175.2730  136.1840 C   0  0  0  0  0  2  0  0  0  0  0  0
  192.9150  172.7690  136.0800 C   0  0  0  0  0  0  0  0  0  0  0  0
  193.9360  172.8050  136.8230 O   0  0  0  0  0  1  0  0  0  0  0  0
  192.5110  171.5660  135.5170 O   0  0  0  0  0  0  0  0  0  0  0  0
  192.1670  173.9520  135.8180 N   0  0  0  0  0  2  0  0  0  0  0  0
  1 10  1  0  0  0  0
  2  7  1  1  0  0  0
  3  1  1  6  0  0  0
  3  6  1  0  0  0  0
  3  2  1  0  0  0  0
  4  1  2  0  0  0  0
  5 13  1  6  0  0  0
  5  6  1  0  0  0  0
  6  2  1  0  0  0  0
  8  4  1  0  0  0  0
  8  5  1  0  0  0  0
  9 12  1  0  0  0  0
 10 11  2  0  0  0  0
 12 10  1  0  0  0  0
 13 14  1  0  0  0  0
 14 15  1  0  0  0  0
 15 16  2  0  0  0  0
 16 17  2  0  0  0  0
 17 18  1  0  0  0  0
 18 19  1  0  0  0  0
 19 20  1  0  0  0  0
 21  8  1  0  0  0  0
 22 21  1  0  0  0  0
 23 22  1  0  0  0  0
 24 22  1  0  0  0  0
 25 24  1  0  0  0  0
 26 22  1  0  0  0  0
 27 26  1  0  0  0  0
 28 29  1  0  0  0  0
 28 26  1  0  0  0  0
 29 30  1  0  0  0  0
 30 32  1  0  0  0  0
 31 30  2  0  0  0  0
 33 29  1  0  0  0  0
 34 35  1  0  0  0  0
 36 34  2  0  0  0  0
 37 34  1  0  0  0  0
 37 33  1  0  0  0  0
M  END
>  <MODEL>
2

>  <REMARK>
 VINA RESULT:      -7.2      3.290      8.548
  Name = 
  15 active torsions:
  status: ('A' for Active; 'I' for Inactive)
    1  A    between atoms: C_1  and  C_10
    2  A    between atoms: C_3  and  C_16
    3  A    between atoms: C_6  and  C_8
    4  A    between atoms: C_8  and  C_20
    5  A    between atoms: C_8  and  O_34
    6  A    between atoms: C_13  and  C_23
    7  A    between atoms: C_13  and  C_24
    8  A    between atoms: C_13  and  C_37
    9  A    between atoms: C_15  and  C_26
   10  A    between atoms: C_16  and  C_26
   11  A    between atoms: C_19  and  C_29
   12  A    between atoms: C_20  and  C_23
   13  A    between atoms: C_25  and  O_34
   14  A    between atoms: N_27  and  C_37
   15  A    between atoms: C_29  and  C_30
                            x       y       z     vdW  Elec       q    Type
                         _______ _______ _______ _____ _____    ______ ____

>  <TORSDO>
F 15

$$$$
=
 OpenBabel10232412423D

 37 38  0  0  1  0  0  0  0  0999 V2000
  191.4540  176.5580  138.9810 C   0  0  0  0  0  0  0  0  0  0  0  0
  189.4960  176.8240  137.4730 C   0  0  2  0  0  3  0  0  0  0  0  0
  190.1580  175.9330  138.5100 C   0  0  2  0  0  3  0  0  0  0  0  0
  191.4790  177.4420  139.9920 C   0  0  0  0  0  3  0  0  0  0  0  0
  189.1410  178.0390  139.6080 C   0  0  2  0  0  3  0  0  0  0  0  0
  188.8840  176.7280  138.8540 C   0  0  1  0  0  3  0  0  0  0  0  0
  188.5560  175.8180  136.3490 Cl  0  0  0  0  0  0  0  0  0  0  0  0
  190.2210  177.8680  140.6820 C   0  0  1  0  0  3  0  0  0  0  0  0
  191.8540  173.9730  137.6330 O   0  0  0  0  0  1  0  0  0  0  0  0
  192.7150  176.1550  138.3380 C   0  0  0  0  0  0  0  0  0  0  0  0
  193.7210  176.9160  138.4230 O   0  0  0  0  0  0  0  0  0  0  0  0
  192.8420  174.9140  137.6330 N   0  0  0  0  0  2  0  0  0  0  0  0
  187.8410  178.5890  140.1830 C   0  0  0  0  0  2  0  0  0  0  0  0
  186.6470  178.1590  139.3390 C   0  0  0  0  0  2  0  0  0  0  0  0
  185.3740  178.7430  139.8680 C   0  0  0  0  0  3  0  0  0  0  0  0
  185.0590  178.6350  141.1320 C   0  0  0  0  0  0  0  0  0  0  0  0
  184.7750  178.5360  142.4000 C   0  0  0  0  0  3  0  0  0  0  0  0
  183.4000  178.8380  142.8980 C   0  0  0  0  0  2  0  0  0  0  0  0
  183.3830  178.8980  144.4170 C   0  0  0  0  0  2  0  0  0  0  0  0
  184.8040  178.8730  144.9730 C   0  0  0  0  0  1  0  0  0  0  0  0
  189.8310  176.8850  141.6230 O   0  0  0  0  0  0  0  0  0  0  0  0
  189.6320  177.4020  142.9400 C   0  0  1  0  0  0  0  0  0  0  0  0
  190.0200  178.8890  143.1050 C   0  0  0  0  0  1  0  0  0  0  0  0
  188.1220  177.2800  143.1780 C   0  0  0  0  0  2  0  0  0  0  0  0
  187.7360  175.9860  143.5590 O   0  0  0  0  0  1  0  0  0  0  0  0
  190.3920  176.5160  143.9630 C   0  0  1  0  0  3  0  0  0  0  0  0
  191.2680  175.4840  143.2690 C   0  0  0  0  0  1  0  0  0  0  0  0
  191.2630  177.3300  144.9280 C   0  0  0  0  0  2  0  0  0  0  0  0
  190.8500  177.1870  146.4000 C   0  0  2  0  0  3  0  0  0  0  0  0
  191.8470  176.3830  147.1790 C   0  0  0  0  0  0  0  0  0  0  0  0
  192.3470  176.8860  148.3720 O   0  0  0  0  0  1  0  0  0  0  0  0
  192.2900  175.2880  146.7320 O   0  0  0  0  0  0  0  0  0  0  0  0
  189.4340  176.6470  146.5620 C   0  0  0  0  0  2  0  0  0  0  0  0
  187.8430  178.1400  147.8200 C   0  0  0  0  0  0  0  0  0  0  0  0
  188.2370  177.6870  148.9320 O   0  0  0  0  0  1  0  0  0  0  0  0
  186.7840  179.0370  147.7750 O   0  0  0  0  0  0  0  0  0  0  0  0
  188.4790  177.7460  146.6090 N   0  0  0  0  0  2  0  0  0  0  0  0
  1  4  2  0  0  0  0
  2  7  1  6  0  0  0
  2  3  1  0  0  0  0
  2  6  1  0  0  0  0
  3  6  1  0  0  0  0
  3  1  1  1  0  0  0
  4  8  1  0  0  0  0
  5 13  1  1  0  0  0
  5  8  1  0  0  0  0
  6  5  1  0  0  0  0
  8 21  1  0  0  0  0
 10 11  2  0  0  0  0
 10  1  1  0  0  0  0
 12  9  1  0  0  0  0
 12 10  1  0  0  0  0
 14 15  1  0  0  0  0
 14 13  1  0  0  0  0
 15 16  2  0  0  0  0
 16 17  2  0  0  0  0
 17 18  1  0  0  0  0
 18 19  1  0  0  0  0
 19 20  1  0  0  0  0
 21 22  1  0  0  0  0
 22 23  1  0  0  0  0
 22 24  1  0  0  0  0
 22 26  1  0  0  0  0
 24 25  1  0  0  0  0
 26 28  1  0  0  0  0
 27 26  1  0  0  0  0
 28 29  1  0  0  0  0
 29 33  1  0  0  0  0
 29 30  1  0  0  0  0
 30 31  1  0  0  0  0
 32 30  2  0  0  0  0
 33 37  1  0  0  0  0
 34 35  1  0  0  0  0
 36 34  2  0  0  0  0
 37 34  1  0  0  0  0
M  END
>  <MODEL>
3

>  <REMARK>
 VINA RESULT:      -7.2      1.487      2.266
  Name = 
  15 active torsions:
  status: ('A' for Active; 'I' for Inactive)
    1  A    between atoms: C_1  and  C_10
    2  A    between atoms: C_3  and  C_16
    3  A    between atoms: C_6  and  C_8
    4  A    between atoms: C_8  and  C_20
    5  A    between atoms: C_8  and  O_34
    6  A    between atoms: C_13  and  C_23
    7  A    between atoms: C_13  and  C_24
    8  A    between atoms: C_13  and  C_37
    9  A    between atoms: C_15  and  C_26
   10  A    between atoms: C_16  and  C_26
   11  A    between atoms: C_19  and  C_29
   12  A    between atoms: C_20  and  C_23
   13  A    between atoms: C_25  and  O_34
   14  A    between atoms: N_27  and  C_37
   15  A    between atoms: C_29  and  C_30
                            x       y       z     vdW  Elec       q    Type
                         _______ _______ _______ _____ _____    ______ ____

>  <TORSDO>
F 15

$$$$
=
 OpenBabel10232412423D

 37 38  0  0  1  0  0  0  0  0999 V2000
  190.4580  176.8740  146.4590 C   0  0  0  0  0  0  0  0  0  0  0  0
  188.5260  177.3090  147.9620 C   0  0  2  0  0  3  0  0  0  0  0  0
  189.6270  177.9460  147.1320 C   0  0  2  0  0  3  0  0  0  0  0  0
  190.1080  176.3620  145.2680 C   0  0  0  0  0  3  0  0  0  0  0  0
  187.7690  176.9730  145.6230 C   0  0  2  0  0  3  0  0  0  0  0  0
  188.1570  178.0180  146.6770 C   0  0  1  0  0  3  0  0  0  0  0  0
  188.1450  178.3650  149.3400 Cl  0  0  0  0  0  0  0  0  0  0  0  0
  188.8660  176.8100  144.5650 C   0  0  1  0  0  3  0  0  0  0  0  0
  192.1650  174.7160  145.4140 O   0  0  0  0  0  1  0  0  0  0  0  0
  191.6950  176.4170  147.1130 C   0  0  0  0  0  0  0  0  0  0  0  0
  192.0210  176.9140  148.2280 O   0  0  0  0  0  0  0  0  0  0  0  0
  192.5310  175.4090  146.5310 N   0  0  0  0  0  2  0  0  0  0  0  0
  186.4190  177.3150  145.0030 C   0  0  0  0  0  2  0  0  0  0  0  0
  185.9350  178.6820  145.4700 C   0  0  0  0  0  2  0  0  0  0  0  0
  184.4410  178.7320  145.5360 C   0  0  0  0  0  3  0  0  0  0  0  0
  183.7210  178.7920  144.4460 C   0  0  0  0  0  0  0  0  0  0  0  0
  183.0220  178.8280  143.3470 C   0  0  0  0  0  3  0  0  0  0  0  0
  181.5690  179.1750  143.3800 C   0  0  0  0  0  2  0  0  0  0  0  0
  180.9370  178.9520  142.0160 C   0  0  0  0  0  2  0  0  0  0  0  0
  182.0030  178.6320  140.9730 C   0  0  0  0  0  1  0  0  0  0  0  0
  189.1040  178.0390  143.9030 O   0  0  0  0  0  0  0  0  0  0  0  0
  189.2950  177.9030  142.4940 C   0  0  1  0  0  0  0  0  0  0  0  0
  188.9210  176.5110  141.9340 C   0  0  0  0  0  1  0  0  0  0  0  0
  188.3430  178.9310  141.8740 C   0  0  0  0  0  2  0  0  0  0  0  0
  187.0270  178.4580  141.7690 O   0  0  0  0  0  1  0  0  0  0  0  0
  190.7600  178.2680  142.1350 C   0  0  1  0  0  3  0  0  0  0  0  0
  191.5460  178.7050  143.3610 C   0  0  0  0  0  1  0  0  0  0  0  0
  191.5130  177.1180  141.4530 C   0  0  0  0  0  2  0  0  0  0  0  0
  191.8680  177.3980  139.9860 C   0  0  2  0  0  3  0  0  0  0  0  0
  190.8340  176.8460  139.0510 C   0  0  0  0  0  0  0  0  0  0  0  0
  190.0670  177.7170  138.2910 O   0  0  0  0  0  0  0  0  0  0  0  0
  190.6040  175.6050  138.9970 O   0  0  0  0  0  1  0  0  0  0  0  0
  193.2720  176.9260  139.6240 C   0  0  0  0  0  2  0  0  0  0  0  0
  193.7620  175.7860  137.4320 C   0  0  0  0  0  0  0  0  0  0  0  0
  193.6810  174.6430  137.9650 O   0  0  0  0  0  1  0  0  0  0  0  0
  194.1450  175.9040  136.1020 O   0  0  0  0  0  0  0  0  0  0  0  0
  193.4560  176.9580  138.1800 N   0  0  0  0  0  2  0  0  0  0  0  0
  1 10  1  0  0  0  0
  2  7  1  1  0  0  0
  3  1  1  6  0  0  0
  3  2  1  0  0  0  0
  4  1  2  0  0  0  0
  5 13  1  6  0  0  0
  5  6  1  0  0  0  0
  6  3  1  0  0  0  0
  6  2  1  0  0  0  0
  8  4  1  0  0  0  0
  8  5  1  0  0  0  0
  9 12  1  0  0  0  0
 10 11  2  0  0  0  0
 12 10  1  0  0  0  0
 13 14  1  0  0  0  0
 14 15  1  0  0  0  0
 16 15  2  0  0  0  0
 17 18  1  0  0  0  0
 17 16  2  0  0  0  0
 19 18  1  0  0  0  0
 20 19  1  0  0  0  0
 21  8  1  0  0  0  0
 22 21  1  0  0  0  0
 23 22  1  0  0  0  0
 24 22  1  0  0  0  0
 25 24  1  0  0  0  0
 26 22  1  0  0  0  0
 26 27  1  0  0  0  0
 28 26  1  0  0  0  0
 29 28  1  0  0  0  0
 30 29  1  0  0  0  0
 31 30  2  0  0  0  0
 32 30  1  0  0  0  0
 33 29  1  0  0  0  0
 34 35  1  0  0  0  0
 34 37  1  0  0  0  0
 36 34  2  0  0  0  0
 37 33  1  0  0  0  0
M  END
>  <MODEL>
4

>  <REMARK>
 VINA RESULT:      -7.1      3.083      7.566
  Name = 
  15 active torsions:
  status: ('A' for Active; 'I' for Inactive)
    1  A    between atoms: C_1  and  C_10
    2  A    between atoms: C_3  and  C_16
    3  A    between atoms: C_6  and  C_8
    4  A    between atoms: C_8  and  C_20
    5  A    between atoms: C_8  and  O_34
    6  A    between atoms: C_13  and  C_23
    7  A    between atoms: C_13  and  C_24
    8  A    between atoms: C_13  and  C_37
    9  A    between atoms: C_15  and  C_26
   10  A    between atoms: C_16  and  C_26
   11  A    between atoms: C_19  and  C_29
   12  A    between atoms: C_20  and  C_23
   13  A    between atoms: C_25  and  O_34
   14  A    between atoms: N_27  and  C_37
   15  A    between atoms: C_29  and  C_30
                            x       y       z     vdW  Elec       q    Type
                         _______ _______ _______ _____ _____    ______ ____

>  <TORSDO>
F 15

$$$$
=
 OpenBabel10232412423D

 37 38  0  0  1  0  0  0  0  0999 V2000
  186.8270  178.5310  141.6840 C   0  0  0  0  0  0  0  0  0  0  0  0
  187.5230  177.7200  143.9290 C   0  0  2  0  0  3  0  0  0  0  0  0
  186.8900  177.3310  142.6040 C   0  0  2  0  0  3  0  0  0  0  0  0
  187.8560  178.8580  140.8870 C   0  0  0  0  0  3  0  0  0  0  0  0
  189.4350  177.6960  142.3460 C   0  0  2  0  0  3  0  0  0  0  0  0
  188.3110  176.8570  142.9670 C   0  0  1  0  0  3  0  0  0  0  0  0
  186.8590  176.6950  145.2200 Cl  0  0  0  0  0  0  0  0  0  0  0  0
  189.1240  178.0630  140.8910 C   0  0  1  0  0  3  0  0  0  0  0  0
  185.3060  179.0710  139.2230 O   0  0  0  0  0  1  0  0  0  0  0  0
  185.5910  179.3310  141.6410 C   0  0  0  0  0  0  0  0  0  0  0  0
  185.1840  179.8910  142.6990 O   0  0  0  0  0  0  0  0  0  0  0  0
  184.8470  179.5090  140.4300 N   0  0  0  0  0  2  0  0  0  0  0  0
  190.7740  176.9830  142.4860 C   0  0  0  0  0  2  0  0  0  0  0  0
  190.8890  176.2980  143.8420 C   0  0  0  0  0  2  0  0  0  0  0  0
  190.9770  177.3030  144.9480 C   0  0  0  0  0  3  0  0  0  0  0  0
  190.3670  177.1050  146.0870 C   0  0  0  0  0  0  0  0  0  0  0  0
  189.7710  176.8770  147.2230 C   0  0  0  0  0  3  0  0  0  0  0  0
  189.5930  177.9720  148.2220 C   0  0  0  0  0  2  0  0  0  0  0  0
  188.1920  177.9350  148.8110 C   0  0  0  0  0  2  0  0  0  0  0  0
  187.2080  178.6700  147.9070 C   0  0  0  0  0  1  0  0  0  0  0  0
  188.9620  176.8940  140.1100 O   0  0  0  0  0  0  0  0  0  0  0  0
  189.3050  177.0730  138.7340 C   0  0  1  0  0  0  0  0  0  0  0  0
  189.7610  178.5060  138.3750 C   0  0  0  0  0  1  0  0  0  0  0  0
  190.4920  176.1300  138.5060 C   0  0  0  0  0  2  0  0  0  0  0  0
  191.6040  176.7820  137.9530 O   0  0  0  0  0  1  0  0  0  0  0  0
  188.1130  176.6320  137.8440 C   0  0  1  0  0  3  0  0  0  0  0  0
  187.5270  177.8030  137.0700 C   0  0  0  0  0  1  0  0  0  0  0  0
  188.4870  175.5250  136.8500 C   0  0  0  0  0  2  0  0  0  0  0  0
  187.6480  174.2480  137.0030 C   0  0  2  0  0  3  0  0  0  0  0  0
  188.4930  173.0140  136.9080 C   0  0  0  0  0  0  0  0  0  0  0  0
  189.8460  173.0890  137.2090 O   0  0  0  0  0  1  0  0  0  0  0  0
  188.0080  171.9250  136.4940 O   0  0  0  0  0  0  0  0  0  0  0  0
  186.4680  174.2050  136.0390 C   0  0  0  0  0  2  0  0  0  0  0  0
  184.4460  174.0110  137.5280 C   0  0  0  0  0  0  0  0  0  0  0  0
  184.8130  172.8750  137.9430 O   0  0  0  0  0  1  0  0  0  0  0  0
  183.2180  174.5270  137.9210 O   0  0  0  0  0  0  0  0  0  0  0  0
  185.2840  174.7740  136.6670 N   0  0  0  0  0  2  0  0  0  0  0  0
  2  7  1  1  0  0  0
  3  1  1  6  0  0  0
  3  6  1  0  0  0  0
  3  2  1  0  0  0  0
  4  8  1  0  0  0  0
  4  1  2  0  0  0  0
  5 13  1  6  0  0  0
  5  6  1  0  0  0  0
  6  2  1  0  0  0  0
  8  5  1  0  0  0  0
  9 12  1  0  0  0  0
 10  1  1  0  0  0  0
 10 11  2  0  0  0  0
 12 10  1  0  0  0  0
 13 14  1  0  0  0  0
 14 15  1  0  0  0  0
 15 16  2  0  0  0  0
 16 17  2  0  0  0  0
 17 18  1  0  0  0  0
 18 19  1  0  0  0  0
 20 19  1  0  0  0  0
 21  8  1  0  0  0  0
 22 21  1  0  0  0  0
 23 22  1  0  0  0  0
 24 22  1  0  0  0  0
 25 24  1  0  0  0  0
 26 22  1  0  0  0  0
 27 26  1  0  0  0  0
 28 29  1  0  0  0  0
 28 26  1  0  0  0  0
 30 29  1  0  0  0  0
 30 31  1  0  0  0  0
 32 30  2  0  0  0  0
 33 37  1  0  0  0  0
 33 29  1  0  0  0  0
 34 36  2  0  0  0  0
 34 35  1  0  0  0  0
 37 34  1  0  0  0  0
M  END
>  <MODEL>
5

>  <REMARK>
 VINA RESULT:      -7.0      3.429      7.943
  Name = 
  15 active torsions:
  status: ('A' for Active; 'I' for Inactive)
    1  A    between atoms: C_1  and  C_10
    2  A    between atoms: C_3  and  C_16
    3  A    between atoms: C_6  and  C_8
    4  A    between atoms: C_8  and  C_20
    5  A    between atoms: C_8  and  O_34
    6  A    between atoms: C_13  and  C_23
    7  A    between atoms: C_13  and  C_24
    8  A    between atoms: C_13  and  C_37
    9  A    between atoms: C_15  and  C_26
   10  A    between atoms: C_16  and  C_26
   11  A    between atoms: C_19  and  C_29
   12  A    between atoms: C_20  and  C_23
   13  A    between atoms: C_25  and  O_34
   14  A    between atoms: N_27  and  C_37
   15  A    between atoms: C_29  and  C_30
                            x       y       z     vdW  Elec       q    Type
                         _______ _______ _______ _____ _____    ______ ____

>  <TORSDO>
F 15

$$$$
=
 OpenBabel10232412423D

 37 38  0  0  1  0  0  0  0  0999 V2000
  186.4400  178.5170  142.0060 C   0  0  0  0  0  0  0  0  0  0  0  0
  187.4870  177.6580  144.0920 C   0  0  2  0  0  3  0  0  0  0  0  0
  186.6980  177.2860  142.8480 C   0  0  2  0  0  3  0  0  0  0  0  0
  187.3290  178.9390  141.0930 C   0  0  0  0  0  3  0  0  0  0  0  0
  189.1580  177.8170  142.2630 C   0  0  2  0  0  3  0  0  0  0  0  0
  188.1790  176.8850  142.9890 C   0  0  1  0  0  3  0  0  0  0  0  0
  187.0670  176.5420  145.4090 Cl  0  0  0  0  0  0  0  0  0  0  0  0
  188.6270  178.2240  140.8840 C   0  0  1  0  0  3  0  0  0  0  0  0
  184.7510  179.4020  139.7640 O   0  0  0  0  0  1  0  0  0  0  0  0
  185.1690  179.2400  142.1720 C   0  0  0  0  0  0  0  0  0  0  0  0
  184.8000  179.5780  143.3330 O   0  0  0  0  0  0  0  0  0  0  0  0
  184.3460  179.5900  141.0530 N   0  0  0  0  0  2  0  0  0  0  0  0
  190.5410  177.1820  142.1830 C   0  0  0  0  0  2  0  0  0  0  0  0
  191.5890  178.0740  142.8370 C   0  0  0  0  0  2  0  0  0  0  0  0
  191.2700  178.3130  144.2790 C   0  0  0  0  0  3  0  0  0  0  0  0
  191.4730  177.3840  145.1760 C   0  0  0  0  0  0  0  0  0  0  0  0
  191.7060  176.4530  146.0580 C   0  0  0  0  0  3  0  0  0  0  0  0
  191.1320  176.5460  147.4330 C   0  0  0  0  0  2  0  0  0  0  0  0
  189.6220  176.7060  147.3710 C   0  0  0  0  0  2  0  0  0  0  0  0
  189.1950  178.0380  147.9820 C   0  0  0  0  0  1  0  0  0  0  0  0
  188.4220  177.0800  140.0750 O   0  0  0  0  0  0  0  0  0  0  0  0
  188.3520  177.3720  138.6790 C   0  0  1  0  0  0  0  0  0  0  0  0
  187.0060  177.9840  138.2240 C   0  0  0  0  0  1  0  0  0  0  0  0
  189.4470  178.4200  138.4470 C   0  0  0  0  0  2  0  0  0  0  0  0
  188.9920  179.5270  137.7160 O   0  0  0  0  0  1  0  0  0  0  0  0
  188.6790  176.0910  137.8670 C   0  0  1  0  0  3  0  0  0  0  0  0
  188.3770  176.2710  136.3870 C   0  0  0  0  0  1  0  0  0  0  0  0
  190.1390  175.6430  138.0190 C   0  0  0  0  0  2  0  0  0  0  0  0
  190.8020  175.2410  136.6940 C   0  0  2  0  0  3  0  0  0  0  0  0
  190.8450  173.7520  136.5250 C   0  0  0  0  0  0  0  0  0  0  0  0
  192.0630  173.0920  136.6000 O   0  0  0  0  0  1  0  0  0  0  0  0
  189.8000  173.0990  136.2490 O   0  0  0  0  0  0  0  0  0  0  0  0
  192.1770  175.8740  136.5110 C   0  0  0  0  0  2  0  0  0  0  0  0
  193.6810  176.3080  138.4850 C   0  0  0  0  0  0  0  0  0  0  0  0
  194.5330  175.4760  138.0670 O   0  0  0  0  0  0  0  0  0  0  0  0
  193.8570  176.9190  139.7200 O   0  0  0  0  0  1  0  0  0  0  0  0
  192.5400  176.6360  137.6980 N   0  0  0  0  0  2  0  0  0  0  0  0
  1 10  1  0  0  0  0
  2  7  1  1  0  0  0
  3  1  1  6  0  0  0
  3  6  1  0  0  0  0
  3  2  1  0  0  0  0
  4  1  2  0  0  0  0
  5 13  1  6  0  0  0
  5  6  1  0  0  0  0
  6  2  1  0  0  0  0
  8  4  1  0  0  0  0
  8  5  1  0  0  0  0
  9 12  1  0  0  0  0
 10 11  2  0  0  0  0
 12 10  1  0  0  0  0
 13 14  1  0  0  0  0
 14 15  1  0  0  0  0
 15 16  2  0  0  0  0
 16 17  2  0  0  0  0
 17 18  1  0  0  0  0
 19 18  1  0  0  0  0
 19 20  1  0  0  0  0
 21  8  1  0  0  0  0
 22 21  1  0  0  0  0
 23 22  1  0  0  0  0
 24 22  1  0  0  0  0
 25 24  1  0  0  0  0
 26 28  1  0  0  0  0
 26 22  1  0  0  0  0
 27 26  1  0  0  0  0
 29 28  1  0  0  0  0
 30 31  1  0  0  0  0
 30 29  1  0  0  0  0
 32 30  2  0  0  0  0
 33 29  1  0  0  0  0
 33 37  1  0  0  0  0
 34 36  1  0  0  0  0
 35 34  2  0  0  0  0
 37 34  1  0  0  0  0
M  END
>  <MODEL>
6

>  <REMARK>
 VINA RESULT:      -6.9      3.240      8.431
  Name = 
  15 active torsions:
  status: ('A' for Active; 'I' for Inactive)
    1  A    between atoms: C_1  and  C_10
    2  A    between atoms: C_3  and  C_16
    3  A    between atoms: C_6  and  C_8
    4  A    between atoms: C_8  and  C_20
    5  A    between atoms: C_8  and  O_34
    6  A    between atoms: C_13  and  C_23
    7  A    between atoms: C_13  and  C_24
    8  A    between atoms: C_13  and  C_37
    9  A    between atoms: C_15  and  C_26
   10  A    between atoms: C_16  and  C_26
   11  A    between atoms: C_19  and  C_29
   12  A    between atoms: C_20  and  C_23
   13  A    between atoms: C_25  and  O_34
   14  A    between atoms: N_27  and  C_37
   15  A    between atoms: C_29  and  C_30
                            x       y       z     vdW  Elec       q    Type
                         _______ _______ _______ _____ _____    ______ ____

>  <TORSDO>
F 15

$$$$
=
 OpenBabel10232412423D

 37 38  0  0  1  0  0  0  0  0999 V2000
  186.6580  178.4690  141.7850 C   0  0  0  0  0  0  0  0  0  0  0  0
  187.5540  177.7800  143.9990 C   0  0  2  0  0  3  0  0  0  0  0  0
  186.8380  177.3120  142.7440 C   0  0  2  0  0  3  0  0  0  0  0  0
  187.6100  178.7980  140.8980 C   0  0  0  0  0  3  0  0  0  0  0  0
  189.3390  177.7570  142.2750 C   0  0  2  0  0  3  0  0  0  0  0  0
  188.2990  176.9040  143.0140 C   0  0  1  0  0  3  0  0  0  0  0  0
  187.0310  176.7880  145.3780 Cl  0  0  0  0  0  0  0  0  0  0  0  0
  188.9050  178.0500  140.8350 C   0  0  1  0  0  3  0  0  0  0  0  0
  185.1820  179.2690  139.3670 O   0  0  0  0  0  1  0  0  0  0  0  0
  185.3920  179.2210  141.8060 C   0  0  0  0  0  0  0  0  0  0  0  0
  184.9340  179.6230  142.9140 O   0  0  0  0  0  0  0  0  0  0  0  0
  184.6740  179.5290  140.6050 N   0  0  0  0  0  2  0  0  0  0  0  0
  190.7120  177.0980  142.3380 C   0  0  0  0  0  2  0  0  0  0  0  0
  191.7460  178.0470  142.9310 C   0  0  0  0  0  2  0  0  0  0  0  0
  191.4020  178.4040  144.3430 C   0  0  0  0  0  3  0  0  0  0  0  0
  191.2560  177.4790  145.2540 C   0  0  0  0  0  0  0  0  0  0  0  0
  191.1390  176.5420  146.1530 C   0  0  0  0  0  3  0  0  0  0  0  0
  190.5140  176.8320  147.4780 C   0  0  0  0  0  2  0  0  0  0  0  0
  189.5300  177.9850  147.3630 C   0  0  0  0  0  2  0  0  0  0  0  0
  188.6000  178.0230  148.5720 C   0  0  0  0  0  1  0  0  0  0  0  0
  188.7290  176.8430  140.1150 O   0  0  0  0  0  0  0  0  0  0  0  0
  189.0890  176.9420  138.7360 C   0  0  1  0  0  0  0  0  0  0  0  0
  190.2030  177.9730  138.4420 C   0  0  0  0  0  1  0  0  0  0  0  0
  189.6270  175.5520  138.3770 C   0  0  0  0  0  2  0  0  0  0  0  0
  191.0250  175.4750  138.4580 O   0  0  0  0  0  1  0  0  0  0  0  0
  187.8210  177.2420  137.8920 C   0  0  1  0  0  3  0  0  0  0  0  0
  187.9740  178.5210  137.0850 C   0  0  0  0  0  1  0  0  0  0  0  0
  187.4550  176.0990  136.9360 C   0  0  0  0  0  2  0  0  0  0  0  0
  186.1930  175.3280  137.3500 C   0  0  2  0  0  3  0  0  0  0  0  0
  186.2400  173.9020  136.8920 C   0  0  0  0  0  0  0  0  0  0  0  0
  186.3460  173.6230  135.5370 O   0  0  0  0  0  0  0  0  0  0  0  0
  186.1150  172.9510  137.7140 O   0  0  0  0  0  1  0  0  0  0  0  0
  184.9110  176.0260  136.9090 C   0  0  0  0  0  2  0  0  0  0  0  0
  182.9280  175.3930  138.3260 C   0  0  0  0  0  0  0  0  0  0  0  0
  182.7840  174.3030  137.7050 O   0  0  0  0  0  0  0  0  0  0  0  0
  182.0020  175.7680  139.2910 O   0  0  0  0  0  1  0  0  0  0  0  0
  184.0380  176.2420  138.0530 N   0  0  0  0  0  2  0  0  0  0  0  0
  1 10  1  0  0  0  0
  2  7  1  1  0  0  0
  3  1  1  6  0  0  0
  3  6  1  0  0  0  0
  3  2  1  0  0  0  0
  4  1  2  0  0  0  0
  5 13  1  6  0  0  0
  5  6  1  0  0  0  0
  6  2  1  0  0  0  0
  8  4  1  0  0  0  0
  8  5  1  0  0  0  0
  9 12  1  0  0  0  0
 10 11  2  0  0  0  0
 12 10  1  0  0  0  0
 13 14  1  0  0  0  0
 14 15  1  0  0  0  0
 15 16  2  0  0  0  0
 16 17  2  0  0  0  0
 17 18  1  0  0  0  0
 19 18  1  0  0  0  0
 19 20  1  0  0  0  0
 21  8  1  0  0  0  0
 22 21  1  0  0  0  0
 23 22  1  0  0  0  0
 24 25  1  0  0  0  0
 24 22  1  0  0  0  0
 26 22  1  0  0  0  0
 27 26  1  0  0  0  0
 28 29  1  0  0  0  0
 28 26  1  0  0  0  0
 30 29  1  0  0  0  0
 30 32  1  0  0  0  0
 31 30  2  0  0  0  0
 33 29  1  0  0  0  0
 33 37  1  0  0  0  0
 34 36  1  0  0  0  0
 35 34  2  0  0  0  0
 37 34  1  0  0  0  0
M  END
>  <MODEL>
7

>  <REMARK>
 VINA RESULT:      -6.8      3.677      7.954
  Name = 
  15 active torsions:
  status: ('A' for Active; 'I' for Inactive)
    1  A    between atoms: C_1  and  C_10
    2  A    between atoms: C_3  and  C_16
    3  A    between atoms: C_6  and  C_8
    4  A    between atoms: C_8  and  C_20
    5  A    between atoms: C_8  and  O_34
    6  A    between atoms: C_13  and  C_23
    7  A    between atoms: C_13  and  C_24
    8  A    between atoms: C_13  and  C_37
    9  A    between atoms: C_15  and  C_26
   10  A    between atoms: C_16  and  C_26
   11  A    between atoms: C_19  and  C_29
   12  A    between atoms: C_20  and  C_23
   13  A    between atoms: C_25  and  O_34
   14  A    between atoms: N_27  and  C_37
   15  A    between atoms: C_29  and  C_30
                            x       y       z     vdW  Elec       q    Type
                         _______ _______ _______ _____ _____    ______ ____

>  <TORSDO>
F 15

$$$$
=
 OpenBabel10232412423D

 37 38  0  0  1  0  0  0  0  0999 V2000
  191.6150  175.7540  138.1730 C   0  0  0  0  0  0  0  0  0  0  0  0
  190.0480  176.2790  136.3150 C   0  0  2  0  0  3  0  0  0  0  0  0
  190.3190  175.3620  137.4960 C   0  0  2  0  0  3  0  0  0  0  0  0
  191.6490  176.6950  139.1300 C   0  0  0  0  0  3  0  0  0  0  0  0
  189.5910  177.7110  138.2900 C   0  0  2  0  0  3  0  0  0  0  0  0
  189.1990  176.4190  137.5610 C   0  0  1  0  0  3  0  0  0  0  0  0
  189.1280  175.3900  135.0810 Cl  0  0  0  0  0  0  0  0  0  0  0  0
  190.4080  177.4170  139.5530 C   0  0  1  0  0  3  0  0  0  0  0  0
  194.0090  177.1120  137.1300 O   0  0  0  0  0  1  0  0  0  0  0  0
  192.8550  175.0570  137.7940 C   0  0  0  0  0  0  0  0  0  0  0  0
  192.8890  173.7940  137.8400 O   0  0  0  0  0  0  0  0  0  0  0  0
  194.0190  175.7670  137.3560 N   0  0  0  0  0  2  0  0  0  0  0  0
  188.3550  178.5520  138.5870 C   0  0  0  0  0  2  0  0  0  0  0  0
  187.3220  178.4150  137.4760 C   0  0  0  0  0  2  0  0  0  0  0  0
  186.0350  177.8600  138.0020 C   0  0  0  0  0  3  0  0  0  0  0  0
  185.1420  178.6400  138.5510 C   0  0  0  0  0  0  0  0  0  0  0  0
  184.2540  179.4380  139.0740 C   0  0  0  0  0  3  0  0  0  0  0  0
  183.1110  178.8910  139.8650 C   0  0  0  0  0  2  0  0  0  0  0  0
  183.6090  177.9160  140.9180 C   0  0  0  0  0  2  0  0  0  0  0  0
  183.8840  178.6370  142.2340 C   0  0  0  0  0  1  0  0  0  0  0  0
  189.6630  176.6110  140.4480 O   0  0  0  0  0  0  0  0  0  0  0  0
  189.9680  176.8520  141.8230 C   0  0  1  0  0  0  0  0  0  0  0  0
  190.4750  175.6090  142.5890 C   0  0  0  0  0  1  0  0  0  0  0  0
  191.1030  177.8820  141.7920 C   0  0  0  0  0  2  0  0  0  0  0  0
  192.1390  177.5740  142.6860 O   0  0  0  0  0  1  0  0  0  0  0  0
  188.7280  177.4670  142.5260 C   0  0  1  0  0  3  0  0  0  0  0  0
  187.6400  177.8310  141.5280 C   0  0  0  0  0  1  0  0  0  0  0  0
  188.1260  176.5410  143.5910 C   0  0  0  0  0  2  0  0  0  0  0  0
  188.2530  177.0840  145.0220 C   0  0  2  0  0  3  0  0  0  0  0  0
  186.9770  177.7180  145.4900 C   0  0  0  0  0  0  0  0  0  0  0  0
  186.8920  178.2020  146.7870 O   0  0  0  0  0  1  0  0  0  0  0  0
  185.9590  177.7550  144.7440 O   0  0  0  0  0  0  0  0  0  0  0  0
  189.4470  178.0170  145.1900 C   0  0  0  0  0  2  0  0  0  0  0  0
  190.7910  177.1520  147.1370 C   0  0  0  0  0  0  0  0  0  0  0  0
  189.8880  177.4830  147.9560 O   0  0  0  0  0  1  0  0  0  0  0  0
  191.9960  176.6430  147.6030 O   0  0  0  0  0  0  0  0  0  0  0  0
  190.5830  177.2870  145.7350 N   0  0  0  0  0  2  0  0  0  0  0  0
  1  4  2  0  0  0  0
  2  7  1  6  0  0  0
  2  3  1  0  0  0  0
  2  6  1  0  0  0  0
  3  6  1  0  0  0  0
  3  1  1  1  0  0  0
  4  8  1  0  0  0  0
  5 13  1  1  0  0  0
  5  8  1  0  0  0  0
  6  5  1  0  0  0  0
  8 21  1  0  0  0  0
  9 12  1  0  0  0  0
 10 11  2  0  0  0  0
 10  1  1  0  0  0  0
 12 10  1  0  0  0  0
 14 15  1  0  0  0  0
 14 13  1  0  0  0  0
 15 16  2  0  0  0  0
 16 17  2  0  0  0  0
 17 18  1  0  0  0  0
 18 19  1  0  0  0  0
 19 20  1  0  0  0  0
 21 22  1  0  0  0  0
 22 26  1  0  0  0  0
 22 23  1  0  0  0  0
 24 22  1  0  0  0  0
 24 25  1  0  0  0  0
 26 28  1  0  0  0  0
 27 26  1  0  0  0  0
 28 29  1  0  0  0  0
 29 33  1  0  0  0  0
 29 30  1  0  0  0  0
 30 31  1  0  0  0  0
 32 30  2  0  0  0  0
 33 37  1  0  0  0  0
 34 36  2  0  0  0  0
 34 35  1  0  0  0  0
 37 34  1  0  0  0  0
M  END
>  <MODEL>
8

>  <REMARK>
 VINA RESULT:      -6.7      1.792      3.227
  Name = 
  15 active torsions:
  status: ('A' for Active; 'I' for Inactive)
    1  A    between atoms: C_1  and  C_10
    2  A    between atoms: C_3  and  C_16
    3  A    between atoms: C_6  and  C_8
    4  A    between atoms: C_8  and  C_20
    5  A    between atoms: C_8  and  O_34
    6  A    between atoms: C_13  and  C_23
    7  A    between atoms: C_13  and  C_24
    8  A    between atoms: C_13  and  C_37
    9  A    between atoms: C_15  and  C_26
   10  A    between atoms: C_16  and  C_26
   11  A    between atoms: C_19  and  C_29
   12  A    between atoms: C_20  and  C_23
   13  A    between atoms: C_25  and  O_34
   14  A    between atoms: N_27  and  C_37
   15  A    between atoms: C_29  and  C_30
                            x       y       z     vdW  Elec       q    Type
                         _______ _______ _______ _____ _____    ______ ____

>  <TORSDO>
F 15

$$$$
=
 OpenBabel10232412423D

 37 38  0  0  1  0  0  0  0  0999 V2000
  190.6740  176.5780  146.1440 C   0  0  0  0  0  0  0  0  0  0  0  0
  188.7870  177.2260  147.6280 C   0  0  2  0  0  3  0  0  0  0  0  0
  189.9560  177.7360  146.8040 C   0  0  2  0  0  3  0  0  0  0  0  0
  190.2810  176.0980  144.9540 C   0  0  0  0  0  3  0  0  0  0  0  0
  188.0180  176.9570  145.2840 C   0  0  2  0  0  3  0  0  0  0  0  0
  188.5060  177.9620  146.3360 C   0  0  1  0  0  3  0  0  0  0  0  0
  188.5090  178.3250  148.9960 Cl  0  0  0  0  0  0  0  0  0  0  0  0
  189.0990  176.6710  144.2370 C   0  0  1  0  0  3  0  0  0  0  0  0
  191.8800  177.6730  148.5960 O   0  0  0  0  0  1  0  0  0  0  0  0
  191.8500  175.9960  146.8120 C   0  0  0  0  0  0  0  0  0  0  0  0
  192.4380  175.0130  146.2750 O   0  0  0  0  0  0  0  0  0  0  0  0
  192.3600  176.5230  148.0420 N   0  0  0  0  0  2  0  0  0  0  0  0
  186.7170  177.4360  144.6500 C   0  0  0  0  0  2  0  0  0  0  0  0
  186.2010  178.6900  145.3460 C   0  0  0  0  0  2  0  0  0  0  0  0
  184.7380  178.5810  145.6390 C   0  0  0  0  0  3  0  0  0  0  0  0
  183.8500  178.7150  144.6900 C   0  0  0  0  0  0  0  0  0  0  0  0
  182.9810  178.8270  143.7240 C   0  0  0  0  0  3  0  0  0  0  0  0
  181.5310  179.0200  144.0240 C   0  0  0  0  0  2  0  0  0  0  0  0
  180.7380  179.1820  142.7380 C   0  0  0  0  0  2  0  0  0  0  0  0
  181.5700  178.7540  141.5330 C   0  0  0  0  0  1  0  0  0  0  0  0
  189.4720  177.8630  143.5710 O   0  0  0  0  0  0  0  0  0  0  0  0
  189.3710  177.7800  142.1480 C   0  0  1  0  0  0  0  0  0  0  0  0
  188.6020  176.5390  141.6380 C   0  0  0  0  0  1  0  0  0  0  0  0
  188.5750  179.0260  141.7440 C   0  0  0  0  0  2  0  0  0  0  0  0
  187.2910  178.7190  141.2680 O   0  0  0  0  0  1  0  0  0  0  0  0
  190.7910  177.8460  141.5250 C   0  0  1  0  0  3  0  0  0  0  0  0
  191.8530  178.1240  142.5770 C   0  0  0  0  0  1  0  0  0  0  0  0
  191.1710  176.5660  140.7690 C   0  0  0  0  0  2  0  0  0  0  0  0
  191.0800  176.7020  139.2420 C   0  0  2  0  0  3  0  0  0  0  0  0
  192.4350  176.6730  138.6020 C   0  0  0  0  0  0  0  0  0  0  0  0
  192.5530  176.3020  137.2700 O   0  0  0  0  0  0  0  0  0  0  0  0
  193.4770  176.9150  139.2740 O   0  0  0  0  0  1  0  0  0  0  0  0
  190.2720  177.9200  138.8100 C   0  0  0  0  0  2  0  0  0  0  0  0
  188.1720  178.4040  137.5070 C   0  0  0  0  0  0  0  0  0  0  0  0
  188.5980  179.5440  137.1690 O   0  0  0  0  0  1  0  0  0  0  0  0
  186.8820  178.0200  137.1670 O   0  0  0  0  0  0  0  0  0  0  0  0
  189.0050  177.5030  138.2280 N   0  0  0  0  0  2  0  0  0  0  0  0
  1 10  1  0  0  0  0
  2  7  1  1  0  0  0
  3  1  1  6  0  0  0
  3  2  1  0  0  0  0
  4  1  2  0  0  0  0
  5 13  1  6  0  0  0
  5  6  1  0  0  0  0
  6  3  1  0  0  0  0
  6  2  1  0  0  0  0
  8  4  1  0  0  0  0
  8  5  1  0  0  0  0
 10 12  1  0  0  0  0
 11 10  2  0  0  0  0
 12  9  1  0  0  0  0
 13 14  1  0  0  0  0
 14 15  1  0  0  0  0
 16 15  2  0  0  0  0
 17 18  1  0  0  0  0
 17 16  2  0  0  0  0
 19 18  1  0  0  0  0
 20 19  1  0  0  0  0
 21  8  1  0  0  0  0
 22 21  1  0  0  0  0
 23 22  1  0  0  0  0
 24 22  1  0  0  0  0
 25 24  1  0  0  0  0
 26 22  1  0  0  0  0
 26 27  1  0  0  0  0
 28 26  1  0  0  0  0
 29 28  1  0  0  0  0
 30 29  1  0  0  0  0
 30 32  1  0  0  0  0
 31 30  2  0  0  0  0
 33 29  1  0  0  0  0
 34 37  1  0  0  0  0
 35 34  1  0  0  0  0
 36 34  2  0  0  0  0
 37 33  1  0  0  0  0
M  END
>  <MODEL>
9

>  <REMARK>
 VINA RESULT:      -6.7      3.071      7.134
  Name = 
  15 active torsions:
  status: ('A' for Active; 'I' for Inactive)
    1  A    between atoms: C_1  and  C_10
    2  A    between atoms: C_3  and  C_16
    3  A    between atoms: C_6  and  C_8
    4  A    between atoms: C_8  and  C_20
    5  A    between atoms: C_8  and  O_34
    6  A    between atoms: C_13  and  C_23
    7  A    between atoms: C_13  and  C_24
    8  A    between atoms: C_13  and  C_37
    9  A    between atoms: C_15  and  C_26
   10  A    between atoms: C_16  and  C_26
   11  A    between atoms: C_19  and  C_29
   12  A    between atoms: C_20  and  C_23
   13  A    between atoms: C_25  and  O_34
   14  A    between atoms: N_27  and  C_37
   15  A    between atoms: C_29  and  C_30
                            x       y       z     vdW  Elec       q    Type
                         _______ _______ _______ _____ _____    ______ ____

>  <TORSDO>
F 15

$$$$
