=
 OpenBabel10232410383D

 50 55  0  0  1  0  0  0  0  0999 V2000
  185.4980  178.4700  141.1340 C   0  0  0  0  0  0  0  0  0  0  0  0
  189.1190  178.0540  140.3650 O   0  0  0  0  0  1  0  0  0  0  0  0
  182.7640  178.8430  140.6870 C   0  0  0  0  0  3  0  0  0  0  0  0
  184.8170  178.4730  145.9990 C   0  0  0  0  0  1  0  0  0  0  0  0
  183.2590  178.7530  141.9930 C   0  0  0  0  0  0  0  0  0  0  0  0
  184.2990  178.5730  144.6030 C   0  0  0  0  0  0  0  0  0  0  0  0
  185.1620  178.4520  143.5020 C   0  0  0  0  0  0  0  0  0  0  0  0
  187.7470  178.2370  140.2260 C   0  0  0  0  0  0  0  0  0  0  0  0
  186.8860  178.2840  141.3490 C   0  0  0  0  0  0  0  0  0  0  0  0
  187.3380  178.1680  142.6910 C   0  0  0  0  0  0  0  0  0  0  0  0
  185.8730  178.5350  138.7670 N   0  0  0  0  0  0  0  0  0  0  0  0
  187.2110  178.3850  138.9430 C   0  0  0  0  0  0  0  0  0  0  0  0
  183.1690  178.7920  138.3650 N   0  0  0  0  0  0  0  0  0  0  0  0
  184.6470  178.5510  142.1910 C   0  0  0  0  0  0  0  0  0  0  0  0
  186.4640  178.2570  143.6890 O   0  0  0  0  0  0  0  0  0  0  0  0
  185.0040  178.5800  139.8130 C   0  0  0  0  0  0  0  0  0  0  0  0
  182.4020  178.8710  143.1080 C   0  0  0  0  0  0  0  0  0  0  0  0
  183.6260  178.7410  139.5840 C   0  0  0  0  0  0  0  0  0  0  0  0
  182.9350  178.7860  144.4030 C   0  0  0  0  0  3  0  0  0  0  0  0
  181.5000  180.2650  137.6150 O   0  0  0  0  0  0  0  0  0  0  0  0
  180.8580  178.5760  134.6410 C   0  0  0  0  0  1  0  0  0  0  0  0
  181.7600  178.9360  138.0040 C   0  0  1  0  0  3  0  0  0  0  0  0
  180.9130  180.1950  136.3330 C   0  0  0  0  0  2  0  0  0  0  0  0
  181.4200  178.0450  136.8360 C   0  0  0  0  0  2  0  0  0  0  0  0
  180.5170  178.8250  136.0330 N   0  0  0  0  0  0  0  0  0  0  0  0
  180.6690  180.4960  143.0110 O   0  0  0  0  0  1  0  0  0  0  0  0
  180.9290  179.1270  142.9270 C   0  0  2  0  0  3  0  0  0  0  0  0
  180.1050  178.3830  143.9600 C   0  0  0  0  0  1  0  0  0  0  0  0
  188.7760  177.9470  143.0450 C   0  0  0  0  0  2  0  0  0  0  0  0
  188.9680  176.5850  143.6780 C   0  0  0  0  0  2  0  0  0  0  0  0
  190.0750  175.8400  142.9540 C   0  0  0  0  0  2  0  0  0  0  0  0
  191.3890  176.0070  143.6960 C   0  0  0  0  0  2  0  0  0  0  0  0
  191.2090  176.8540  144.8670 N   0  0  0  0  0  2  0  0  0  0  0  0
  192.2020  175.0100  145.6240 O   0  0  0  0  0  1  0  0  0  0  0  0
  192.0060  176.3230  145.8970 N   0  0  0  0  0  0  0  0  0  0  0  0
  191.2780  176.4110  147.1700 C   0  0  1  0  0  3  0  0  0  0  0  0
  192.0510  177.0490  148.1450 O   0  0  0  0  0  1  0  0  0  0  0  0
  189.8730  177.0280  147.0540 C   0  0  0  0  0  2  0  0  0  0  0  0
  189.5630  178.0290  148.1600 C   0  0  0  0  0  2  0  0  0  0  0  0
  188.1030  178.0080  148.4780 C   0  0  0  0  0  0  0  0  0  0  0  0
  187.5930  176.9880  149.0160 O   0  0  0  0  0  1  0  0  0  0  0  0
  187.3010  179.1020  148.1840 O   0  0  0  0  0  0  0  0  0  0  0  0
  188.1100  178.3810  137.7540 C   0  0  0  0  0  2  0  0  0  0  0  0
  188.5340  176.4980  136.1480 C   0  0  0  0  0  0  0  0  0  0  0  0
  191.1280  174.3490  137.2470 C   0  0  0  0  0  1  0  0  0  0  0  0
  189.8730  176.3590  136.6210 N   0  0  0  0  0  0  0  0  0  0  0  0
  190.9800  176.7020  137.5600 C   0  0  0  0  0  2  0  0  0  0  0  0
  191.2250  175.7260  136.6150 C   0  0  1  0  0  3  0  0  0  0  0  0
  188.1380  175.7940  135.1800 O   0  0  0  0  0  0  0  0  0  0  0  0
  187.6370  177.4210  136.7690 N   0  0  0  0  0  2  0  0  0  0  0  0
  1  9  1  0  0  0  0
  1 14  2  0  0  0  0
  3  5  2  0  0  0  0
  5 14  1  0  0  0  0
  5 17  1  0  0  0  0
  6  4  1  0  0  0  0
  7 15  1  0  0  0  0
  7  6  2  0  0  0  0
  8  2  1  0  0  0  0
  8  9  1  0  0  0  0
  9 10  2  0  0  0  0
 10 29  1  0  0  0  0
 10 15  1  0  0  0  0
 11 12  1  0  0  0  0
 11 16  2  0  0  0  0
 12  8  2  0  0  0  0
 13 18  2  0  0  0  0
 14  7  1  0  0  0  0
 16  1  1  0  0  0  0
 17 19  2  0  0  0  0
 18 16  1  0  0  0  0
 18  3  1  0  0  0  0
 19  6  1  0  0  0  0
 20 22  1  0  0  0  0
 21 25  1  0  0  0  0
 22 13  1  6  0  0  0
 23 20  1  0  0  0  0
 24 22  1  0  0  0  0
 25 23  1  0  0  0  0
 25 24  1  0  0  0  0
 27 26  1  0  0  0  0
 27 17  1  0  0  0  0
 27 28  1  1  0  0  0
 29 30  1  0  0  0  0
 31 30  1  0  0  0  0
 31 32  1  0  0  0  0
 32 33  1  0  0  0  0
 33 35  1  0  0  0  0
 34 35  1  0  0  0  0
 35 36  1  0  0  0  0
 36 37  1  1  0  0  0
 38 36  1  0  0  0  0
 38 39  1  0  0  0  0
 39 40  1  0  0  0  0
 40 41  1  0  0  0  0
 42 40  2  0  0  0  0
 43 12  1  0  0  0  0
 44 46  1  0  0  0  0
 44 50  1  0  0  0  0
 46 47  1  0  0  0  0
 48 46  1  0  0  0  0
 48 45  1  1  0  0  0
 48 47  1  0  0  0  0
 49 44  2  0  0  0  0
 50 43  1  0  0  0  0
M  END
>  <MODEL>
1

>  <REMARK>
 VINA RESULT:      -9.3      0.000      0.000
  Name = 
  14 active torsions:
  status: ('A' for Active; 'I' for Inactive)
    1  A    between atoms: C_16  and  C_17
    2  A    between atoms: C_16  and  C_24
    3  A    between atoms: C_17  and  C_49
    4  A    between atoms: C_18  and  C_31
    5  A    between atoms: C_18  and  C_34
    6  A    between atoms: N_19  and  C_23
    7  A    between atoms: N_19  and  N_37
    8  A    between atoms: C_23  and  C_49
    9  A    between atoms: C_25  and  C_46
   10  A    between atoms: C_26  and  C_29
   11  A    between atoms: C_26  and  N_47
   12  A    between atoms: C_28  and  C_34
   13  A    between atoms: C_28  and  N_37
   14  A    between atoms: N_30  and  C_32
                            x       y       z     vdW  Elec       q    Type
                         _______ _______ _______ _____ _____    ______ ____

>  <TORSDO>
F 14

$$$$
=
 OpenBabel10232410383D

 50 55  0  0  1  0  0  0  0  0999 V2000
  186.8970  178.3290  141.9950 C   0  0  0  0  0  0  0  0  0  0  0  0
  187.3810  178.2690  138.3020 O   0  0  0  0  0  1  0  0  0  0  0  0
  187.5380  178.1730  144.7110 C   0  0  0  0  0  3  0  0  0  0  0  0
  182.1540  179.0680  143.0430 C   0  0  0  0  0  1  0  0  0  0  0  0
  186.2150  178.3930  144.3110 C   0  0  0  0  0  0  0  0  0  0  0  0
  183.5670  178.8280  143.4600 C   0  0  0  0  0  0  0  0  0  0  0  0
  184.5910  178.7080  142.5070 C   0  0  1  0  0  3  0  0  0  0  0  0
  187.6190  178.2080  139.6720 C   0  0  0  0  0  0  0  0  0  0  0  0
  186.5820  178.4030  140.6150 C   0  0  0  0  0  0  0  0  0  0  0  0
  185.2320  178.6580  140.2580 C   0  0  0  0  0  0  0  0  0  0  0  0
  189.1910  177.9000  141.4500 N   0  0  0  0  0  0  0  0  0  0  0  0
  188.9160  177.9370  140.1210 C   0  0  0  0  0  0  0  0  0  0  0  0
  189.8000  177.8610  144.1270 N   0  0  0  0  0  2  0  0  0  0  0  0
  185.9190  178.4810  142.9280 C   0  0  0  0  0  0  0  0  0  0  0  0
  184.3130  178.7960  141.2100 O   0  0  0  0  0  0  0  0  0  0  0  0
  188.2310  178.0870  142.3950 C   0  0  0  0  0  0  0  0  0  0  0  0
  185.1770  178.5170  145.2590 C   0  0  0  0  0  0  0  0  0  0  0  0
  188.5620  178.0340  143.7610 C   0  0  0  0  0  0  0  0  0  0  0  0
  183.8600  178.7260  144.8200 C   0  0  0  0  0  3  0  0  0  0  0  0
  189.4060  176.9980  146.2760 O   0  0  0  0  0  0  0  0  0  0  0  0
  192.3650  175.1770  146.4660 C   0  0  0  0  0  1  0  0  0  0  0  0
  190.2660  177.8100  145.5110 C   0  0  1  0  0  3  0  0  0  0  0  0
  190.2220  176.0230  146.8900 C   0  0  0  0  0  2  0  0  0  0  0  0
  191.6450  177.2060  145.5830 C   0  0  0  0  0  2  0  0  0  0  0  0
  191.6260  176.3930  146.7690 N   0  0  0  0  0  0  0  0  0  0  0  0
  184.2720  178.1110  147.4190 O   0  0  0  0  0  1  0  0  0  0  0  0
  185.4560  178.3870  146.7330 C   0  0  2  0  0  3  0  0  0  0  0  0
  186.0920  179.6450  147.2900 C   0  0  0  0  0  1  0  0  0  0  0  0
  184.7800  178.7800  138.8350 C   0  0  0  0  0  2  0  0  0  0  0  0
  183.2790  178.9740  138.7650 C   0  0  0  0  0  2  0  0  0  0  0  0
  182.6760  177.9380  137.8330 C   0  0  0  0  0  2  0  0  0  0  0  0
  182.4280  176.6420  138.5830 C   0  0  0  0  0  2  0  0  0  0  0  0
  183.3990  175.6300  138.1910 N   0  0  0  0  0  2  0  0  0  0  0  0
  182.6740  173.9900  136.8700 O   0  0  0  0  0  1  0  0  0  0  0  0
  183.1180  175.2710  136.8610 N   0  0  0  0  0  0  0  0  0  0  0  0
  184.3570  175.3090  136.0730 C   0  0  1  0  0  3  0  0  0  0  0  0
  184.3260  176.3510  135.1410 O   0  0  0  0  0  1  0  0  0  0  0  0
  185.6430  175.3310  136.9190 C   0  0  0  0  0  2  0  0  0  0  0  0
  186.6890  174.3280  136.4480 C   0  0  0  0  0  2  0  0  0  0  0  0
  186.6500  173.1040  137.3040 C   0  0  0  0  0  0  0  0  0  0  0  0
  185.6770  172.9140  138.0820 O   0  0  0  0  0  1  0  0  0  0  0  0
  187.6790  172.1740  137.2510 O   0  0  0  0  0  0  0  0  0  0  0  0
  190.0080  177.6870  139.1390 C   0  0  0  0  0  2  0  0  0  0  0  0
  190.1020  175.5440  137.8320 C   0  0  0  0  0  0  0  0  0  0  0  0
  190.9010  176.0800  134.4230 C   0  0  0  0  0  1  0  0  0  0  0  0
  189.8240  176.2400  136.6180 N   0  0  0  0  0  0  0  0  0  0  0  0
  189.6140  177.4930  135.8370 C   0  0  0  0  0  2  0  0  0  0  0  0
  189.5840  176.2990  135.1460 C   0  0  1  0  0  3  0  0  0  0  0  0
  190.1910  174.2870  137.8250 O   0  0  0  0  0  0  0  0  0  0  0  0
  190.2910  176.2630  139.0530 N   0  0  0  0  0  2  0  0  0  0  0  0
  1 16  1  0  0  0  0
  1 14  2  0  0  0  0
  2  8  1  0  0  0  0
  4  6  1  0  0  0  0
  5  3  1  0  0  0  0
  5 17  2  0  0  0  0
  6 19  2  0  0  0  0
  7 15  1  6  0  0  0
  7 14  1  0  0  0  0
  7  6  1  0  0  0  0
  8 12  2  0  0  0  0
  8  9  1  0  0  0  0
  9  1  1  0  0  0  0
 10  9  2  0  0  0  0
 10 15  1  0  0  0  0
 11 16  2  0  0  0  0
 12 11  1  0  0  0  0
 14  5  1  0  0  0  0
 16 18  1  0  0  0  0
 17 27  1  0  0  0  0
 18 13  1  0  0  0  0
 18  3  2  0  0  0  0
 19 17  1  0  0  0  0
 20 23  1  0  0  0  0
 21 25  1  0  0  0  0
 22 13  1  6  0  0  0
 22 24  1  0  0  0  0
 22 20  1  0  0  0  0
 24 25  1  0  0  0  0
 25 23  1  0  0  0  0
 27 28  1  1  0  0  0
 27 26  1  0  0  0  0
 29 10  1  0  0  0  0
 30 29  1  0  0  0  0
 31 32  1  0  0  0  0
 31 30  1  0  0  0  0
 33 32  1  0  0  0  0
 35 34  1  0  0  0  0
 35 33  1  0  0  0  0
 36 37  1  1  0  0  0
 36 35  1  0  0  0  0
 36 38  1  0  0  0  0
 39 38  1  0  0  0  0
 39 40  1  0  0  0  0
 40 41  1  0  0  0  0
 42 40  2  0  0  0  0
 43 12  1  0  0  0  0
 44 50  1  0  0  0  0
 46 44  1  0  0  0  0
 47 46  1  0  0  0  0
 48 45  1  6  0  0  0
 48 47  1  0  0  0  0
 48 46  1  0  0  0  0
 49 44  2  0  0  0  0
 50 43  1  0  0  0  0
M  END
>  <MODEL>
2

>  <REMARK>
 VINA RESULT:      -8.4      2.466      8.412
  Name = 
  14 active torsions:
  status: ('A' for Active; 'I' for Inactive)
    1  A    between atoms: C_16  and  C_17
    2  A    between atoms: C_16  and  C_24
    3  A    between atoms: C_17  and  C_49
    4  A    between atoms: C_18  and  C_31
    5  A    between atoms: C_18  and  C_34
    6  A    between atoms: N_19  and  C_23
    7  A    between atoms: N_19  and  N_37
    8  A    between atoms: C_23  and  C_49
    9  A    between atoms: C_25  and  C_46
   10  A    between atoms: C_26  and  C_29
   11  A    between atoms: C_26  and  N_47
   12  A    between atoms: C_28  and  C_34
   13  A    between atoms: C_28  and  N_37
   14  A    between atoms: N_30  and  C_32
                            x       y       z     vdW  Elec       q    Type
                         _______ _______ _______ _____ _____    ______ ____

>  <TORSDO>
F 14

$$$$
=
 OpenBabel10232410383D

 50 55  0  0  1  0  0  0  0  0999 V2000
  188.1040  177.5200  138.7150 C   0  0  0  0  0  0  0  0  0  0  0  0
  184.5490  178.5790  138.3780 O   0  0  0  0  0  1  0  0  0  0  0  0
  190.5730  177.0260  139.9290 C   0  0  0  0  0  3  0  0  0  0  0  0
  189.8400  176.0940  134.3460 C   0  0  0  0  0  1  0  0  0  0  0  0
  190.4010  176.7940  138.5580 C   0  0  0  0  0  0  0  0  0  0  0  0
  190.0140  176.3480  135.8060 C   0  0  0  0  0  0  0  0  0  0  0  0
  188.9450  176.8070  136.5930 C   0  0  1  0  0  3  0  0  0  0  0  0
  185.8060  178.3060  138.9070 C   0  0  0  0  0  0  0  0  0  0  0  0
  186.8490  177.7770  138.1100 C   0  0  0  0  0  0  0  0  0  0  0  0
  186.7140  177.4980  136.7240 C   0  0  0  0  0  0  0  0  0  0  0  0
  187.2480  178.2890  140.8180 N   0  0  0  0  0  0  0  0  0  0  0  0
  186.0420  178.5710  140.2600 C   0  0  0  0  0  0  0  0  0  0  0  0
  189.6540  177.6890  141.9960 N   0  0  0  0  0  2  0  0  0  0  0  0
  189.1360  177.0410  137.9720 C   0  0  0  0  0  0  0  0  0  0  0  0
  187.7560  177.0320  136.0410 O   0  0  0  0  0  0  0  0  0  0  0  0
  188.2780  177.7740  140.0950 C   0  0  0  0  0  0  0  0  0  0  0  0
  191.4680  176.3320  137.7580 C   0  0  0  0  0  0  0  0  0  0  0  0
  189.5110  177.5020  140.7140 C   0  0  0  0  0  0  0  0  0  0  0  0
  191.2620  176.1210  136.3860 C   0  0  0  0  0  3  0  0  0  0  0  0
  191.4080  178.6320  143.2410 O   0  0  0  0  0  0  0  0  0  0  0  0
  190.6350  177.0040  146.2170 C   0  0  0  0  0  1  0  0  0  0  0  0
  190.8770  177.4230  142.7510 C   0  0  1  0  0  3  0  0  0  0  0  0
  191.5570  178.4640  144.6350 C   0  0  0  0  0  2  0  0  0  0  0  0
  190.5840  176.5400  143.9370 C   0  0  0  0  0  2  0  0  0  0  0  0
  191.4150  177.0580  144.9900 N   0  0  0  0  0  0  0  0  0  0  0  0
  193.5710  177.2870  138.3210 O   0  0  0  0  0  1  0  0  0  0  0  0
  192.8340  176.1020  138.3480 C   0  0  2  0  0  3  0  0  0  0  0  0
  193.5830  175.0130  137.6040 C   0  0  0  0  0  1  0  0  0  0  0  0
  185.4330  177.7070  135.9770 C   0  0  0  0  0  2  0  0  0  0  0  0
  185.2990  176.7000  134.8530 C   0  0  0  0  0  2  0  0  0  0  0  0
  183.8360  176.3370  134.6680 C   0  0  0  0  0  2  0  0  0  0  0  0
  183.2780  175.7490  135.9510 C   0  0  0  0  0  2  0  0  0  0  0  0
  183.5060  174.3110  135.9960 N   0  0  0  0  0  2  0  0  0  0  0  0
  183.8780  175.0950  138.0460 O   0  0  0  0  0  1  0  0  0  0  0  0
  183.6770  173.9530  137.3450 N   0  0  0  0  0  0  0  0  0  0  0  0
  184.8830  173.1260  137.4810 C   0  0  1  0  0  3  0  0  0  0  0  0
  184.8520  172.0470  136.5920 O   0  0  0  0  0  1  0  0  0  0  0  0
  186.2030  173.9120  137.3880 C   0  0  0  0  0  2  0  0  0  0  0  0
  187.0090  173.5870  136.1370 C   0  0  0  0  0  2  0  0  0  0  0  0
  188.2020  172.7630  136.4940 C   0  0  0  0  0  0  0  0  0  0  0  0
  188.3060  171.5860  136.0550 O   0  0  0  0  0  0  0  0  0  0  0  0
  189.2000  173.2820  137.3090 O   0  0  0  0  0  1  0  0  0  0  0  0
  184.9670  179.1690  141.1020 C   0  0  0  0  0  2  0  0  0  0  0  0
  184.1590  178.9670  143.4710 C   0  0  0  0  0  0  0  0  0  0  0  0
  180.7940  177.8750  143.6570 C   0  0  0  0  0  1  0  0  0  0  0  0
  182.8050  179.1370  143.0530 N   0  0  0  0  0  0  0  0  0  0  0  0
  181.7610  179.2770  141.9970 C   0  0  0  0  0  2  0  0  0  0  0  0
  181.3390  179.2490  143.3110 C   0  0  1  0  0  3  0  0  0  0  0  0
  184.4270  178.8810  144.6990 O   0  0  0  0  0  0  0  0  0  0  0  0
  185.2110  178.8830  142.5070 N   0  0  0  0  0  2  0  0  0  0  0  0
  1 16  1  0  0  0  0
  2  8  1  0  0  0  0
  3 18  2  0  0  0  0
  4  6  1  0  0  0  0
  5  3  1  0  0  0  0
  6 19  2  0  0  0  0
  7  6  1  6  0  0  0
  7 14  1  0  0  0  0
  8 12  2  0  0  0  0
  9  1  1  0  0  0  0
  9  8  1  0  0  0  0
 10  9  2  0  0  0  0
 12 11  1  0  0  0  0
 12 43  1  0  0  0  0
 14  5  1  0  0  0  0
 14  1  2  0  0  0  0
 15  7  1  0  0  0  0
 15 10  1  0  0  0  0
 16 18  1  0  0  0  0
 16 11  2  0  0  0  0
 17 27  1  0  0  0  0
 17  5  2  0  0  0  0
 18 13  1  0  0  0  0
 19 17  1  0  0  0  0
 20 23  1  0  0  0  0
 22 13  1  1  0  0  0
 22 20  1  0  0  0  0
 22 24  1  0  0  0  0
 23 25  1  0  0  0  0
 24 25  1  0  0  0  0
 25 21  1  0  0  0  0
 26 27  1  0  0  0  0
 27 28  1  6  0  0  0
 29 10  1  0  0  0  0
 30 29  1  0  0  0  0
 31 30  1  0  0  0  0
 31 32  1  0  0  0  0
 32 33  1  0  0  0  0
 33 35  1  0  0  0  0
 35 36  1  0  0  0  0
 35 34  1  0  0  0  0
 36 37  1  6  0  0  0
 38 36  1  0  0  0  0
 39 40  1  0  0  0  0
 39 38  1  0  0  0  0
 40 42  1  0  0  0  0
 41 40  2  0  0  0  0
 43 50  1  0  0  0  0
 44 49  2  0  0  0  0
 46 48  1  0  0  0  0
 46 44  1  0  0  0  0
 47 46  1  0  0  0  0
 47 48  1  0  0  0  0
 48 45  1  6  0  0  0
 50 44  1  0  0  0  0
M  END
>  <MODEL>
3

>  <REMARK>
 VINA RESULT:      -7.8      2.888     10.391
  Name = 
  14 active torsions:
  status: ('A' for Active; 'I' for Inactive)
    1  A    between atoms: C_16  and  C_17
    2  A    between atoms: C_16  and  C_24
    3  A    between atoms: C_17  and  C_49
    4  A    between atoms: C_18  and  C_31
    5  A    between atoms: C_18  and  C_34
    6  A    between atoms: N_19  and  C_23
    7  A    between atoms: N_19  and  N_37
    8  A    between atoms: C_23  and  C_49
    9  A    between atoms: C_25  and  C_46
   10  A    between atoms: C_26  and  C_29
   11  A    between atoms: C_26  and  N_47
   12  A    between atoms: C_28  and  C_34
   13  A    between atoms: C_28  and  N_37
   14  A    between atoms: N_30  and  C_32
                            x       y       z     vdW  Elec       q    Type
                         _______ _______ _______ _____ _____    ______ ____

>  <TORSDO>
F 14

$$$$
=
 OpenBabel10232410383D

 50 55  0  0  1  0  0  0  0  0999 V2000
  187.3010  177.9510  140.7220 C   0  0  0  0  0  0  0  0  0  0  0  0
  189.8320  177.3180  138.0640 O   0  0  0  0  0  1  0  0  0  0  0  0
  184.8660  178.6880  141.8820 C   0  0  0  0  0  3  0  0  0  0  0  0
  189.2680  177.0780  145.1390 C   0  0  0  0  0  1  0  0  0  0  0  0
  185.9410  178.2940  142.6880 C   0  0  0  0  0  0  0  0  0  0  0  0
  188.1290  177.5010  144.2710 C   0  0  0  0  0  0  0  0  0  0  0  0
  188.2510  177.5080  142.8730 C   0  0  0  0  0  0  0  0  0  0  0  0
  188.6540  177.6660  138.7170 C   0  0  0  0  0  0  0  0  0  0  0  0
  188.5310  177.5840  140.1240 C   0  0  0  0  0  0  0  0  0  0  0  0
  189.5830  177.1620  140.9810 C   0  0  0  0  0  0  0  0  0  0  0  0
  186.3930  178.4360  138.5580 N   0  0  0  0  0  0  0  0  0  0  0  0
  187.5680  178.1170  137.9580 C   0  0  0  0  0  0  0  0  0  0  0  0
  183.9840  179.0480  139.7260 N   0  0  0  0  0  0  0  0  0  0  0  0
  187.1590  177.9130  142.0740 C   0  0  0  0  0  0  0  0  0  0  0  0
  189.3930  177.1450  142.2980 O   0  0  0  0  0  0  0  0  0  0  0  0
  186.2240  178.3680  139.9060 C   0  0  0  0  0  0  0  0  0  0  0  0
  185.8300  178.2810  144.0950 C   0  0  0  0  0  0  0  0  0  0  0  0
  184.9900  178.7130  140.4840 C   0  0  0  0  0  0  0  0  0  0  0  0
  186.9320  177.8910  144.8720 C   0  0  0  0  0  3  0  0  0  0  0  0
  181.9550  180.1120  139.2090 O   0  0  0  0  0  0  0  0  0  0  0  0
  179.9860  177.2560  139.4870 C   0  0  0  0  0  1  0  0  0  0  0  0
  182.6530  179.4060  140.2090 C   0  0  1  0  0  3  0  0  0  0  0  0
  180.7380  179.4240  139.0130 C   0  0  0  0  0  2  0  0  0  0  0  0
  181.8560  178.1670  140.5310 C   0  0  0  0  0  2  0  0  0  0  0  0
  180.5200  178.4670  140.0910 N   0  0  0  0  0  0  0  0  0  0  0  0
  184.3120  180.0650  144.4980 O   0  0  0  0  0  1  0  0  0  0  0  0
  184.5610  178.7200  144.7750 C   0  0  2  0  0  3  0  0  0  0  0  0
  184.6330  178.5080  146.2750 C   0  0  0  0  0  1  0  0  0  0  0  0
  190.9210  176.7280  140.4670 C   0  0  0  0  0  2  0  0  0  0  0  0
  192.0180  177.6150  141.0170 C   0  0  0  0  0  2  0  0  0  0  0  0
  193.2390  177.5300  140.1180 C   0  0  0  0  0  2  0  0  0  0  0  0
  193.0020  176.5190  139.0110 C   0  0  0  0  0  2  0  0  0  0  0  0
  193.7400  176.8910  137.8120 N   0  0  0  0  0  2  0  0  0  0  0  0
  192.6990  175.0570  137.0990 O   0  0  0  0  0  1  0  0  0  0  0  0
  193.0910  176.2960  136.7160 N   0  0  0  0  0  0  0  0  0  0  0  0
  194.0440  176.1420  135.6100 C   0  0  1  0  0  3  0  0  0  0  0  0
  195.0340  177.1290  135.6610 O   0  0  0  0  0  1  0  0  0  0  0  0
  194.6440  174.7310  135.4840 C   0  0  0  0  0  2  0  0  0  0  0  0
  196.1650  174.7120  135.5830 C   0  0  0  0  0  2  0  0  0  0  0  0
  196.5860  174.6910  137.0150 C   0  0  0  0  0  0  0  0  0  0  0  0
  195.9750  173.9570  137.8380 O   0  0  0  0  0  1  0  0  0  0  0  0
  197.6460  175.4750  137.4510 O   0  0  0  0  0  0  0  0  0  0  0  0
  187.6970  178.2510  136.4790 C   0  0  0  0  0  2  0  0  0  0  0  0
  186.2960  176.6380  135.1590 C   0  0  0  0  0  0  0  0  0  0  0  0
  187.0940  173.2610  135.8760 C   0  0  0  0  0  1  0  0  0  0  0  0
  187.2980  175.6280  135.2760 N   0  0  0  0  0  0  0  0  0  0  0  0
  188.5880  175.1100  135.8170 C   0  0  0  0  0  2  0  0  0  0  0  0
  187.8460  174.2640  135.0180 C   0  0  1  0  0  3  0  0  0  0  0  0
  185.2670  176.4180  134.4640 O   0  0  0  0  0  0  0  0  0  0  0  0
  186.4460  177.8900  135.8310 N   0  0  0  0  0  2  0  0  0  0  0  0
  1 14  2  0  0  0  0
  2  8  1  0  0  0  0
  3  5  2  0  0  0  0
  5 17  1  0  0  0  0
  6 19  1  0  0  0  0
  6  4  1  0  0  0  0
  7  6  2  0  0  0  0
  8  9  1  0  0  0  0
  9  1  1  0  0  0  0
  9 10  2  0  0  0  0
 10 15  1  0  0  0  0
 11 16  2  0  0  0  0
 12 11  1  0  0  0  0
 12  8  2  0  0  0  0
 13 18  2  0  0  0  0
 14  5  1  0  0  0  0
 14  7  1  0  0  0  0
 15  7  1  0  0  0  0
 16 18  1  0  0  0  0
 16  1  1  0  0  0  0
 17 27  1  0  0  0  0
 17 19  2  0  0  0  0
 18  3  1  0  0  0  0
 20 22  1  0  0  0  0
 21 25  1  0  0  0  0
 22 13  1  6  0  0  0
 22 24  1  0  0  0  0
 23 20  1  0  0  0  0
 23 25  1  0  0  0  0
 25 24  1  0  0  0  0
 26 27  1  0  0  0  0
 27 28  1  1  0  0  0
 29 10  1  0  0  0  0
 29 30  1  0  0  0  0
 31 30  1  0  0  0  0
 32 31  1  0  0  0  0
 33 32  1  0  0  0  0
 35 34  1  0  0  0  0
 35 33  1  0  0  0  0
 36 37  1  1  0  0  0
 36 35  1  0  0  0  0
 38 39  1  0  0  0  0
 38 36  1  0  0  0  0
 39 40  1  0  0  0  0
 40 42  2  0  0  0  0
 40 41  1  0  0  0  0
 43 12  1  0  0  0  0
 44 46  1  0  0  0  0
 44 50  1  0  0  0  0
 46 47  1  0  0  0  0
 48 46  1  0  0  0  0
 48 47  1  0  0  0  0
 48 45  1  1  0  0  0
 49 44  2  0  0  0  0
 50 43  1  0  0  0  0
M  END
>  <MODEL>
4

>  <REMARK>
 VINA RESULT:      -7.8      3.141      6.291
  Name = 
  14 active torsions:
  status: ('A' for Active; 'I' for Inactive)
    1  A    between atoms: C_16  and  C_17
    2  A    between atoms: C_16  and  C_24
    3  A    between atoms: C_17  and  C_49
    4  A    between atoms: C_18  and  C_31
    5  A    between atoms: C_18  and  C_34
    6  A    between atoms: N_19  and  C_23
    7  A    between atoms: N_19  and  N_37
    8  A    between atoms: C_23  and  C_49
    9  A    between atoms: C_25  and  C_46
   10  A    between atoms: C_26  and  C_29
   11  A    between atoms: C_26  and  N_47
   12  A    between atoms: C_28  and  C_34
   13  A    between atoms: C_28  and  N_37
   14  A    between atoms: N_30  and  C_32
                            x       y       z     vdW  Elec       q    Type
                         _______ _______ _______ _____ _____    ______ ____

>  <TORSDO>
F 14

$$$$
=
 OpenBabel10232410383D

 50 55  0  0  1  0  0  0  0  0999 V2000
  185.2830  178.5690  140.8720 C   0  0  0  0  0  0  0  0  0  0  0  0
  188.8630  178.3070  139.8790 O   0  0  0  0  0  1  0  0  0  0  0  0
  182.5090  178.7740  140.5950 C   0  0  0  0  0  3  0  0  0  0  0  0
  184.9220  178.7840  145.7670 C   0  0  0  0  0  1  0  0  0  0  0  0
  183.0930  178.7770  141.8680 C   0  0  0  0  0  0  0  0  0  0  0  0
  184.3100  178.7850  144.4060 C   0  0  0  0  0  0  0  0  0  0  0  0
  185.1040  178.6540  143.2560 C   0  0  0  0  0  0  0  0  0  0  0  0
  187.4770  178.4100  139.8250 C   0  0  0  0  0  0  0  0  0  0  0  0
  186.6900  178.4680  141.0000 C   0  0  0  0  0  0  0  0  0  0  0  0
  187.2340  178.4450  142.3120 C   0  0  0  0  0  0  0  0  0  0  0  0
  185.4970  178.5330  138.4850 N   0  0  0  0  0  0  0  0  0  0  0  0
  186.8500  178.4640  138.5750 C   0  0  0  0  0  0  0  0  0  0  0  0
  182.7620  178.6260  138.2560 N   0  0  0  0  0  0  0  0  0  0  0  0
  184.5000  178.6590  141.9800 C   0  0  0  0  0  0  0  0  0  0  0  0
  186.4240  178.5380  143.3630 O   0  0  0  0  0  0  0  0  0  0  0  0
  184.6980  178.5860  139.5840 C   0  0  0  0  0  0  0  0  0  0  0  0
  182.3040  178.9060  143.0310 C   0  0  0  0  0  0  0  0  0  0  0  0
  183.3010  178.6620  139.4420 C   0  0  0  0  0  0  0  0  0  0  0  0
  182.9260  178.9160  144.2900 C   0  0  0  0  0  3  0  0  0  0  0  0
  180.8190  179.9430  138.3360 O   0  0  0  0  0  0  0  0  0  0  0  0
  180.2580  179.9420  134.9020 C   0  0  0  0  0  1  0  0  0  0  0  0
  181.3280  178.6770  137.9860 C   0  0  1  0  0  3  0  0  0  0  0  0
  180.1620  180.4380  137.1900 C   0  0  0  0  0  2  0  0  0  0  0  0
  181.0590  178.4700  136.5170 C   0  0  0  0  0  2  0  0  0  0  0  0
  179.9820  179.3720  136.2120 N   0  0  0  0  0  0  0  0  0  0  0  0
  180.4820  180.4310  142.9650 O   0  0  0  0  0  1  0  0  0  0  0  0
  180.8110  179.0740  142.9390 C   0  0  2  0  0  3  0  0  0  0  0  0
  180.1010  178.3510  144.0670 C   0  0  0  0  0  1  0  0  0  0  0  0
  188.7030  178.3190  142.5770 C   0  0  0  0  0  2  0  0  0  0  0  0
  189.0000  177.0510  143.3500 C   0  0  0  0  0  2  0  0  0  0  0  0
  190.3120  176.4580  142.8700 C   0  0  0  0  0  2  0  0  0  0  0  0
  190.3600  176.4580  141.3520 C   0  0  0  0  0  2  0  0  0  0  0  0
  191.6620  176.9080  140.8820 N   0  0  0  0  0  2  0  0  0  0  0  0
  191.0140  175.7830  139.0730 O   0  0  0  0  0  1  0  0  0  0  0  0
  191.6190  176.9270  139.4760 N   0  0  0  0  0  0  0  0  0  0  0  0
  192.9890  176.9190  138.9470 C   0  0  1  0  0  3  0  0  0  0  0  0
  193.9260  177.0220  139.9800 O   0  0  0  0  0  1  0  0  0  0  0  0
  193.2960  175.7410  138.0050 C   0  0  0  0  0  2  0  0  0  0  0  0
  193.5670  176.1730  136.5690 C   0  0  0  0  0  2  0  0  0  0  0  0
  194.7460  175.4350  136.0240 C   0  0  0  0  0  0  0  0  0  0  0  0
  195.9120  175.8540  136.2580 O   0  0  0  0  0  1  0  0  0  0  0  0
  194.5690  174.2910  135.2590 O   0  0  0  0  0  0  0  0  0  0  0  0
  187.6680  178.4470  137.3300 C   0  0  0  0  0  2  0  0  0  0  0  0
  186.6370  177.1380  135.4510 C   0  0  0  0  0  0  0  0  0  0  0  0
  186.0490  173.7560  136.3290 C   0  0  0  0  0  1  0  0  0  0  0  0
  187.1510  175.9170  135.9820 N   0  0  0  0  0  0  0  0  0  0  0  0
  187.8530  175.1330  137.0400 C   0  0  0  0  0  2  0  0  0  0  0  0
  187.3530  174.4380  135.9570 C   0  0  1  0  0  3  0  0  0  0  0  0
  186.0220  177.1300  134.3500 O   0  0  0  0  0  0  0  0  0  0  0  0
  186.8050  178.3660  136.1620 N   0  0  0  0  0  2  0  0  0  0  0  0
  1  9  1  0  0  0  0
  1 14  2  0  0  0  0
  3  5  2  0  0  0  0
  5 14  1  0  0  0  0
  5 17  1  0  0  0  0
  6  4  1  0  0  0  0
  7 15  1  0  0  0  0
  7  6  2  0  0  0  0
  8  2  1  0  0  0  0
  8  9  1  0  0  0  0
  9 10  2  0  0  0  0
 10 29  1  0  0  0  0
 10 15  1  0  0  0  0
 11 12  1  0  0  0  0
 11 16  2  0  0  0  0
 12  8  2  0  0  0  0
 13 18  2  0  0  0  0
 14  7  1  0  0  0  0
 16  1  1  0  0  0  0
 17 19  2  0  0  0  0
 18 16  1  0  0  0  0
 18  3  1  0  0  0  0
 19  6  1  0  0  0  0
 21 25  1  0  0  0  0
 22 13  1  6  0  0  0
 22 20  1  0  0  0  0
 23 20  1  0  0  0  0
 24 22  1  0  0  0  0
 25 24  1  0  0  0  0
 25 23  1  0  0  0  0
 27 26  1  0  0  0  0
 27 17  1  0  0  0  0
 27 28  1  1  0  0  0
 29 30  1  0  0  0  0
 31 30  1  0  0  0  0
 32 31  1  0  0  0  0
 33 32  1  0  0  0  0
 34 35  1  0  0  0  0
 35 33  1  0  0  0  0
 36 35  1  0  0  0  0
 36 37  1  1  0  0  0
 38 36  1  0  0  0  0
 39 38  1  0  0  0  0
 40 41  1  0  0  0  0
 40 39  1  0  0  0  0
 42 40  2  0  0  0  0
 43 12  1  0  0  0  0
 44 46  1  0  0  0  0
 44 50  1  0  0  0  0
 46 47  1  0  0  0  0
 48 46  1  0  0  0  0
 48 45  1  1  0  0  0
 48 47  1  0  0  0  0
 49 44  2  0  0  0  0
 50 43  1  0  0  0  0
M  END
>  <MODEL>
5

>  <REMARK>
 VINA RESULT:      -7.6      2.551      5.040
  Name = 
  14 active torsions:
  status: ('A' for Active; 'I' for Inactive)
    1  A    between atoms: C_16  and  C_17
    2  A    between atoms: C_16  and  C_24
    3  A    between atoms: C_17  and  C_49
    4  A    between atoms: C_18  and  C_31
    5  A    between atoms: C_18  and  C_34
    6  A    between atoms: N_19  and  C_23
    7  A    between atoms: N_19  and  N_37
    8  A    between atoms: C_23  and  C_49
    9  A    between atoms: C_25  and  C_46
   10  A    between atoms: C_26  and  C_29
   11  A    between atoms: C_26  and  N_47
   12  A    between atoms: C_28  and  C_34
   13  A    between atoms: C_28  and  N_37
   14  A    between atoms: N_30  and  C_32
                            x       y       z     vdW  Elec       q    Type
                         _______ _______ _______ _____ _____    ______ ____

>  <TORSDO>
F 14

$$$$
=
 OpenBabel10232410383D

 50 55  0  0  1  0  0  0  0  0999 V2000
  186.7510  178.0490  139.3780 C   0  0  0  0  0  0  0  0  0  0  0  0
  183.4420  179.2030  140.6410 O   0  0  0  0  0  1  0  0  0  0  0  0
  188.6670  177.0940  137.5810 C   0  0  0  0  0  3  0  0  0  0  0  0
  190.0190  178.0280  143.0460 C   0  0  0  0  0  1  0  0  0  0  0  0
  189.0070  177.3210  138.9200 C   0  0  0  0  0  0  0  0  0  0  0  0
  189.6460  177.7850  141.6220 C   0  0  0  0  0  0  0  0  0  0  0  0
  188.3480  178.0570  141.1590 C   0  0  0  0  0  0  0  0  0  0  0  0
  184.4520  178.7300  139.8090 C   0  0  0  0  0  0  0  0  0  0  0  0
  185.7710  178.5300  140.2810 C   0  0  0  0  0  0  0  0  0  0  0  0
  186.1710  178.7750  141.6230 C   0  0  0  0  0  0  0  0  0  0  0  0
  185.1150  178.0040  137.6270 N   0  0  0  0  0  0  0  0  0  0  0  0
  184.1480  178.4380  138.4750 C   0  0  0  0  0  0  0  0  0  0  0  0
  187.0510  177.1700  135.8670 N   0  0  0  0  0  0  0  0  0  0  0  0
  188.0200  177.8170  139.8070 C   0  0  0  0  0  0  0  0  0  0  0  0
  187.4250  178.5280  141.9910 O   0  0  0  0  0  0  0  0  0  0  0  0
  186.3980  177.8030  138.0310 C   0  0  0  0  0  0  0  0  0  0  0  0
  190.3080  177.0520  139.3970 C   0  0  0  0  0  0  0  0  0  0  0  0
  187.3660  177.3470  137.1190 C   0  0  0  0  0  0  0  0  0  0  0  0
  190.6100  177.2820  140.7490 C   0  0  0  0  0  3  0  0  0  0  0  0
  189.2390  177.3040  135.0250 O   0  0  0  0  0  0  0  0  0  0  0  0
  189.9910  173.9370  135.4750 C   0  0  0  0  0  1  0  0  0  0  0  0
  187.9720  176.7210  134.8250 C   0  0  1  0  0  3  0  0  0  0  0  0
  190.1630  176.2380  135.0730 C   0  0  0  0  0  2  0  0  0  0  0  0
  188.1460  175.2250  134.8820 C   0  0  0  0  0  2  0  0  0  0  0  0
  189.5390  175.0090  134.6010 N   0  0  0  0  0  0  0  0  0  0  0  0
  191.2820  175.0920  138.4710 O   0  0  0  0  0  1  0  0  0  0  0  0
  191.3640  176.4850  138.4860 C   0  0  2  0  0  3  0  0  0  0  0  0
  192.7540  176.9140  138.9150 C   0  0  0  0  0  1  0  0  0  0  0  0
  185.2330  179.3040  142.6630 C   0  0  0  0  0  2  0  0  0  0  0  0
  184.8060  178.2010  143.6090 C   0  0  0  0  0  2  0  0  0  0  0  0
  184.4790  178.7940  144.9680 C   0  0  0  0  0  2  0  0  0  0  0  0
  185.7600  179.1140  145.7190 C   0  0  0  0  0  2  0  0  0  0  0  0
  186.5280  177.9000  145.9590 N   0  0  0  0  0  2  0  0  0  0  0  0
  186.4690  179.0560  147.8610 O   0  0  0  0  0  1  0  0  0  0  0  0
  187.0220  177.9680  147.2740 N   0  0  0  0  0  0  0  0  0  0  0  0
  188.4760  178.1700  147.2370 C   0  0  1  0  0  3  0  0  0  0  0  0
  188.9810  178.4110  148.5190 O   0  0  0  0  0  1  0  0  0  0  0  0
  189.2520  177.0540  146.5140 C   0  0  0  0  0  2  0  0  0  0  0  0
  190.1770  176.2690  147.4360 C   0  0  0  0  0  2  0  0  0  0  0  0
  191.6030  176.5400  147.0850 C   0  0  0  0  0  0  0  0  0  0  0  0
  192.5220  176.1610  147.8600 O   0  0  0  0  0  1  0  0  0  0  0  0
  191.9260  177.2100  145.9130 O   0  0  0  0  0  0  0  0  0  0  0  0
  182.7540  178.6020  137.9750 C   0  0  0  0  0  2  0  0  0  0  0  0
  181.3790  176.5030  138.0850 C   0  0  0  0  0  0  0  0  0  0  0  0
  182.8210  173.8500  136.2330 C   0  0  0  0  0  1  0  0  0  0  0  0
  181.9260  176.0460  136.8490 N   0  0  0  0  0  0  0  0  0  0  0  0
  182.8760  176.1670  135.7040 C   0  0  0  0  0  2  0  0  0  0  0  0
  182.0520  175.0600  135.7350 C   0  0  1  0  0  3  0  0  0  0  0  0
  180.4740  175.8340  138.6520 O   0  0  0  0  0  0  0  0  0  0  0  0
  181.8550  177.7080  138.6880 N   0  0  0  0  0  2  0  0  0  0  0  0
  1 14  2  0  0  0  0
  1  9  1  0  0  0  0
  3  5  2  0  0  0  0
  5 17  1  0  0  0  0
  5 14  1  0  0  0  0
  6  4  1  0  0  0  0
  7  6  2  0  0  0  0
  7 15  1  0  0  0  0
  8  9  1  0  0  0  0
  8  2  1  0  0  0  0
  9 10  2  0  0  0  0
 10 15  1  0  0  0  0
 10 29  1  0  0  0  0
 11 16  2  0  0  0  0
 11 12  1  0  0  0  0
 12  8  2  0  0  0  0
 13 18  2  0  0  0  0
 14  7  1  0  0  0  0
 16  1  1  0  0  0  0
 17 19  2  0  0  0  0
 18  3  1  0  0  0  0
 18 16  1  0  0  0  0
 19  6  1  0  0  0  0
 20 23  1  0  0  0  0
 22 24  1  0  0  0  0
 22 20  1  0  0  0  0
 22 13  1  1  0  0  0
 25 24  1  0  0  0  0
 25 23  1  0  0  0  0
 25 21  1  0  0  0  0
 26 27  1  0  0  0  0
 27 28  1  1  0  0  0
 27 17  1  0  0  0  0
 29 30  1  0  0  0  0
 30 31  1  0  0  0  0
 31 32  1  0  0  0  0
 32 33  1  0  0  0  0
 33 35  1  0  0  0  0
 35 34  1  0  0  0  0
 36 35  1  0  0  0  0
 36 37  1  1  0  0  0
 38 36  1  0  0  0  0
 38 39  1  0  0  0  0
 40 39  1  0  0  0  0
 40 41  1  0  0  0  0
 42 40  2  0  0  0  0
 43 12  1  0  0  0  0
 43 50  1  0  0  0  0
 44 49  2  0  0  0  0
 44 50  1  0  0  0  0
 46 44  1  0  0  0  0
 47 48  1  0  0  0  0
 47 46  1  0  0  0  0
 48 45  1  1  0  0  0
 48 46  1  0  0  0  0
M  END
>  <MODEL>
6

>  <REMARK>
 VINA RESULT:      -7.4      2.242      6.732
  Name = 
  14 active torsions:
  status: ('A' for Active; 'I' for Inactive)
    1  A    between atoms: C_16  and  C_17
    2  A    between atoms: C_16  and  C_24
    3  A    between atoms: C_17  and  C_49
    4  A    between atoms: C_18  and  C_31
    5  A    between atoms: C_18  and  C_34
    6  A    between atoms: N_19  and  C_23
    7  A    between atoms: N_19  and  N_37
    8  A    between atoms: C_23  and  C_49
    9  A    between atoms: C_25  and  C_46
   10  A    between atoms: C_26  and  C_29
   11  A    between atoms: C_26  and  N_47
   12  A    between atoms: C_28  and  C_34
   13  A    between atoms: C_28  and  N_37
   14  A    between atoms: N_30  and  C_32
                            x       y       z     vdW  Elec       q    Type
                         _______ _______ _______ _____ _____    ______ ____

>  <TORSDO>
F 14

$$$$
=
 OpenBabel10232410383D

 50 55  0  0  1  0  0  0  0  0999 V2000
  189.0070  177.6820  140.1910 C   0  0  0  0  0  0  0  0  0  0  0  0
  188.9400  178.4480  143.8360 O   0  0  0  0  0  1  0  0  0  0  0  0
  190.0350  176.9270  137.7040 C   0  0  0  0  0  3  0  0  0  0  0  0
  184.5830  178.5300  138.2290 C   0  0  0  0  0  1  0  0  0  0  0  0
  188.6960  177.3180  137.8240 C   0  0  0  0  0  0  0  0  0  0  0  0
  186.0120  178.1190  138.1110 C   0  0  0  0  0  0  0  0  0  0  0  0
  186.8480  178.0760  139.2380 C   0  0  0  0  0  0  0  0  0  0  0  0
  189.3750  178.0840  142.5660 C   0  0  0  0  0  0  0  0  0  0  0  0
  188.4970  178.0660  141.4560 C   0  0  0  0  0  0  0  0  0  0  0  0
  187.1250  178.4260  141.5350 C   0  0  0  0  0  0  0  0  0  0  0  0
  191.1700  177.3450  141.1650 N   0  0  0  0  0  0  0  0  0  0  0  0
  190.7180  177.7350  142.3850 C   0  0  0  0  0  0  0  0  0  0  0  0
  192.1160  176.5060  138.7280 N   0  0  0  0  0  0  0  0  0  0  0  0
  188.1970  177.6840  139.0990 C   0  0  0  0  0  0  0  0  0  0  0  0
  186.3770  178.4140  140.4350 O   0  0  0  0  0  0  0  0  0  0  0  0
  190.3640  177.3060  140.0710 C   0  0  0  0  0  0  0  0  0  0  0  0
  187.8460  177.3640  136.6990 C   0  0  0  0  0  0  0  0  0  0  0  0
  190.8780  176.9000  138.8260 C   0  0  0  0  0  0  0  0  0  0  0  0
  186.5120  177.7720  136.8550 C   0  0  0  0  0  3  0  0  0  0  0  0
  194.1370  176.3110  137.5460 O   0  0  0  0  0  0  0  0  0  0  0  0
  194.1440  172.8330  137.4460 C   0  0  0  0  0  1  0  0  0  0  0  0
  192.7540  176.0440  137.4970 C   0  0  1  0  0  3  0  0  0  0  0  0
  194.7860  175.0810  137.3040 C   0  0  0  0  0  2  0  0  0  0  0  0
  192.5830  174.5550  137.3400 C   0  0  0  0  0  2  0  0  0  0  0  0
  193.8350  174.0990  136.8000 N   0  0  0  0  0  0  0  0  0  0  0  0
  187.5340  177.5830  134.3520 O   0  0  0  0  0  1  0  0  0  0  0  0
  188.3610  177.0210  135.3260 C   0  0  2  0  0  3  0  0  0  0  0  0
  188.4460  175.5200  135.1250 C   0  0  0  0  0  1  0  0  0  0  0  0
  186.4650  178.8280  142.8170 C   0  0  0  0  0  2  0  0  0  0  0  0
  185.0220  178.3680  142.8440 C   0  0  0  0  0  2  0  0  0  0  0  0
  184.4830  178.4680  144.2600 C   0  0  0  0  0  2  0  0  0  0  0  0
  183.2300  179.3250  144.2810 C   0  0  0  0  0  2  0  0  0  0  0  0
  182.5040  179.2000  143.0250 N   0  0  0  0  0  2  0  0  0  0  0  0
  180.6920  178.4400  144.0720 O   0  0  0  0  0  1  0  0  0  0  0  0
  181.1470  179.4530  143.2960 N   0  0  0  0  0  0  0  0  0  0  0  0
  180.3870  179.4300  142.0390 C   0  0  1  0  0  3  0  0  0  0  0  0
  179.9880  180.7190  141.6720 O   0  0  0  0  0  1  0  0  0  0  0  0
  181.0940  178.6950  140.8860 C   0  0  0  0  0  2  0  0  0  0  0  0
  180.2300  177.6190  140.2400 C   0  0  0  0  0  2  0  0  0  0  0  0
  181.0860  176.4980  139.7490 C   0  0  0  0  0  0  0  0  0  0  0  0
  182.3330  176.5350  139.9320 O   0  0  0  0  0  1  0  0  0  0  0  0
  180.5210  175.4150  139.0890 O   0  0  0  0  0  0  0  0  0  0  0  0
  191.6640  177.7910  143.5340 C   0  0  0  0  0  2  0  0  0  0  0  0
  191.6050  176.0810  145.3740 C   0  0  0  0  0  0  0  0  0  0  0  0
  188.8140  176.5040  147.5140 C   0  0  0  0  0  1  0  0  0  0  0  0
  190.8300  176.9530  146.1960 N   0  0  0  0  0  0  0  0  0  0  0  0
  190.0590  178.2100  146.4230 C   0  0  0  0  0  2  0  0  0  0  0  0
  190.1070  177.2960  147.4560 C   0  0  1  0  0  3  0  0  0  0  0  0
  191.9960  174.9750  145.8320 O   0  0  0  0  0  0  0  0  0  0  0  0
  191.9310  176.4500  144.0320 N   0  0  0  0  0  2  0  0  0  0  0  0
  1  9  1  0  0  0  0
  3  5  2  0  0  0  0
  3 18  1  0  0  0  0
  5 14  1  0  0  0  0
  6  4  1  0  0  0  0
  6  7  2  0  0  0  0
  7 15  1  0  0  0  0
  8  2  1  0  0  0  0
  9 10  2  0  0  0  0
  9  8  1  0  0  0  0
 10 29  1  0  0  0  0
 11 12  1  0  0  0  0
 12  8  2  0  0  0  0
 12 43  1  0  0  0  0
 13 18  2  0  0  0  0
 14  7  1  0  0  0  0
 14  1  2  0  0  0  0
 15 10  1  0  0  0  0
 16  1  1  0  0  0  0
 16 11  2  0  0  0  0
 17 19  2  0  0  0  0
 17  5  1  0  0  0  0
 18 16  1  0  0  0  0
 19  6  1  0  0  0  0
 22 20  1  0  0  0  0
 22 13  1  1  0  0  0
 23 20  1  0  0  0  0
 24 22  1  0  0  0  0
 25 23  1  0  0  0  0
 25 24  1  0  0  0  0
 25 21  1  0  0  0  0
 26 27  1  0  0  0  0
 27 28  1  6  0  0  0
 27 17  1  0  0  0  0
 29 30  1  0  0  0  0
 30 31  1  0  0  0  0
 31 32  1  0  0  0  0
 33 35  1  0  0  0  0
 33 32  1  0  0  0  0
 35 34  1  0  0  0  0
 36 37  1  6  0  0  0
 36 35  1  0  0  0  0
 38 36  1  0  0  0  0
 39 38  1  0  0  0  0
 40 41  1  0  0  0  0
 40 39  1  0  0  0  0
 42 40  2  0  0  0  0
 43 50  1  0  0  0  0
 44 49  2  0  0  0  0
 44 46  1  0  0  0  0
 46 47  1  0  0  0  0
 46 48  1  0  0  0  0
 47 48  1  0  0  0  0
 48 45  1  6  0  0  0
 50 44  1  0  0  0  0
M  END
>  <MODEL>
7

>  <REMARK>
 VINA RESULT:      -7.3      2.719      9.421
  Name = 
  14 active torsions:
  status: ('A' for Active; 'I' for Inactive)
    1  A    between atoms: C_16  and  C_17
    2  A    between atoms: C_16  and  C_24
    3  A    between atoms: C_17  and  C_49
    4  A    between atoms: C_18  and  C_31
    5  A    between atoms: C_18  and  C_34
    6  A    between atoms: N_19  and  C_23
    7  A    between atoms: N_19  and  N_37
    8  A    between atoms: C_23  and  C_49
    9  A    between atoms: C_25  and  C_46
   10  A    between atoms: C_26  and  C_29
   11  A    between atoms: C_26  and  N_47
   12  A    between atoms: C_28  and  C_34
   13  A    between atoms: C_28  and  N_37
   14  A    between atoms: N_30  and  C_32
                            x       y       z     vdW  Elec       q    Type
                         _______ _______ _______ _____ _____    ______ ____

>  <TORSDO>
F 14

$$$$
=
 OpenBabel10232410383D

 50 55  0  0  1  0  0  0  0  0999 V2000
  189.1540  177.4760  139.2280 C   0  0  0  0  0  0  0  0  0  0  0  0
  192.3350  177.2720  141.1540 O   0  0  0  0  0  1  0  0  0  0  0  0
  186.4540  177.9710  138.6970 C   0  0  0  0  0  3  0  0  0  0  0  0
  189.8500  175.7670  134.6740 C   0  0  0  0  0  1  0  0  0  0  0  0
  187.2810  177.4300  137.7050 C   0  0  0  0  0  0  0  0  0  0  0  0
  188.9760  176.3390  135.7400 C   0  0  0  0  0  0  0  0  0  0  0  0
  189.4950  176.6620  137.0040 C   0  0  1  0  0  3  0  0  0  0  0  0
  191.0050  177.4920  140.8110 C   0  0  0  0  0  0  0  0  0  0  0  0
  190.5200  177.2250  139.5090 C   0  0  0  0  0  0  0  0  0  0  0  0
  191.3260  176.7050  138.4610 C   0  0  0  0  0  0  0  0  0  0  0  0
  188.8300  178.2370  141.4770 N   0  0  0  0  0  0  0  0  0  0  0  0
  190.1280  177.9820  141.7840 C   0  0  0  0  0  0  0  0  0  0  0  0
  186.2110  178.8120  140.8860 N   0  0  0  0  0  2  0  0  0  0  0  0
  188.6480  177.2010  137.9960 C   0  0  0  0  0  0  0  0  0  0  0  0
  190.7800  176.4510  137.2740 O   0  0  0  0  0  0  0  0  0  0  0  0
  188.3180  178.0030  140.2390 C   0  0  0  0  0  0  0  0  0  0  0  0
  186.7700  177.1030  136.4300 C   0  0  0  0  0  0  0  0  0  0  0  0
  186.9660  178.2780  139.9670 C   0  0  0  0  0  0  0  0  0  0  0  0
  187.6260  176.5520  135.4630 C   0  0  0  0  0  3  0  0  0  0  0  0
  184.5760  179.6000  139.3960 O   0  0  0  0  0  0  0  0  0  0  0  0
  182.6220  176.7210  139.4710 C   0  0  0  0  0  1  0  0  0  0  0  0
  184.8030  179.1600  140.7150 C   0  0  1  0  0  3  0  0  0  0  0  0
  183.5310  178.8000  138.8850 C   0  0  0  0  0  2  0  0  0  0  0  0
  183.9270  177.9560  140.9500 C   0  0  0  0  0  2  0  0  0  0  0  0
  182.8850  178.0640  139.9650 N   0  0  0  0  0  0  0  0  0  0  0  0
  184.5680  176.2230  136.5970 O   0  0  0  0  0  1  0  0  0  0  0  0
  185.3130  177.2980  136.1070 C   0  0  2  0  0  3  0  0  0  0  0  0
  185.0900  177.4390  134.6140 C   0  0  0  0  0  1  0  0  0  0  0  0
  192.7860  176.4200  138.6280 C   0  0  0  0  0  2  0  0  0  0  0  0
  193.2490  175.3880  137.6200 C   0  0  0  0  0  2  0  0  0  0  0  0
  194.0040  176.0760  136.4980 C   0  0  0  0  0  2  0  0  0  0  0  0
  194.5160  175.0470  135.5060 C   0  0  0  0  0  2  0  0  0  0  0  0
  195.7860  175.4750  134.9360 N   0  0  0  0  0  2  0  0  0  0  0  0
  197.2280  176.9080  135.8440 O   0  0  0  0  0  1  0  0  0  0  0  0
  196.6780  175.6800  136.0040 N   0  0  0  0  0  0  0  0  0  0  0  0
  197.7620  174.6910  135.9300 C   0  0  1  0  0  3  0  0  0  0  0  0
  198.9700  175.2990  135.5730 O   0  0  0  0  0  1  0  0  0  0  0  0
  197.9060  173.8160  137.1870 C   0  0  0  0  0  2  0  0  0  0  0  0
  197.0420  174.2860  138.3500 C   0  0  0  0  0  2  0  0  0  0  0  0
  197.8720  175.0460  139.3330 C   0  0  0  0  0  0  0  0  0  0  0  0
  199.1180  175.1390  139.1620 O   0  0  0  0  0  0  0  0  0  0  0  0
  197.2830  175.6510  140.4350 O   0  0  0  0  0  1  0  0  0  0  0  0
  190.6150  178.2260  143.1710 C   0  0  0  0  0  2  0  0  0  0  0  0
  189.3980  177.6960  145.3040 C   0  0  0  0  0  0  0  0  0  0  0  0
  191.6100  176.9140  147.9580 C   0  0  0  0  0  1  0  0  0  0  0  0
  190.5000  176.9220  145.7730 N   0  0  0  0  0  0  0  0  0  0  0  0
  191.8960  176.4090  145.6520 C   0  0  0  0  0  2  0  0  0  0  0  0
  191.1840  176.0560  146.7800 C   0  0  1  0  0  3  0  0  0  0  0  0
  188.3390  177.7500  145.9840 O   0  0  0  0  0  0  0  0  0  0  0  0
  189.4890  178.4170  144.0730 N   0  0  0  0  0  2  0  0  0  0  0  0
  1  9  1  0  0  0  0
  1 16  1  0  0  0  0
  3 18  2  0  0  0  0
  4  6  1  0  0  0  0
  5 14  1  0  0  0  0
  5  3  1  0  0  0  0
  7  6  1  1  0  0  0
  7 15  1  0  0  0  0
  7 14  1  0  0  0  0
  8  2  1  0  0  0  0
  8 12  2  0  0  0  0
  9  8  1  0  0  0  0
 10 29  1  0  0  0  0
 10  9  2  0  0  0  0
 11 12  1  0  0  0  0
 12 43  1  0  0  0  0
 14  1  2  0  0  0  0
 15 10  1  0  0  0  0
 16 11  2  0  0  0  0
 17  5  2  0  0  0  0
 18 16  1  0  0  0  0
 18 13  1  0  0  0  0
 19  6  2  0  0  0  0
 19 17  1  0  0  0  0
 20 22  1  0  0  0  0
 21 25  1  0  0  0  0
 22 13  1  6  0  0  0
 22 24  1  0  0  0  0
 23 20  1  0  0  0  0
 23 25  1  0  0  0  0
 25 24  1  0  0  0  0
 27 28  1  6  0  0  0
 27 17  1  0  0  0  0
 27 26  1  0  0  0  0
 30 29  1  0  0  0  0
 31 30  1  0  0  0  0
 32 31  1  0  0  0  0
 33 32  1  0  0  0  0
 33 35  1  0  0  0  0
 34 35  1  0  0  0  0
 36 37  1  1  0  0  0
 36 35  1  0  0  0  0
 36 38  1  0  0  0  0
 38 39  1  0  0  0  0
 39 40  1  0  0  0  0
 40 42  1  0  0  0  0
 41 40  2  0  0  0  0
 43 50  1  0  0  0  0
 44 46  1  0  0  0  0
 44 49  2  0  0  0  0
 46 48  1  0  0  0  0
 47 46  1  0  0  0  0
 47 48  1  0  0  0  0
 48 45  1  1  0  0  0
 50 44  1  0  0  0  0
M  END
>  <MODEL>
8

>  <REMARK>
 VINA RESULT:      -7.3      4.028      8.698
  Name = 
  14 active torsions:
  status: ('A' for Active; 'I' for Inactive)
    1  A    between atoms: C_16  and  C_17
    2  A    between atoms: C_16  and  C_24
    3  A    between atoms: C_17  and  C_49
    4  A    between atoms: C_18  and  C_31
    5  A    between atoms: C_18  and  C_34
    6  A    between atoms: N_19  and  C_23
    7  A    between atoms: N_19  and  N_37
    8  A    between atoms: C_23  and  C_49
    9  A    between atoms: C_25  and  C_46
   10  A    between atoms: C_26  and  C_29
   11  A    between atoms: C_26  and  N_47
   12  A    between atoms: C_28  and  C_34
   13  A    between atoms: C_28  and  N_37
   14  A    between atoms: N_30  and  C_32
                            x       y       z     vdW  Elec       q    Type
                         _______ _______ _______ _____ _____    ______ ____

>  <TORSDO>
F 14

$$$$
=
 OpenBabel10232410383D

 50 55  0  0  1  0  0  0  0  0999 V2000
  186.8230  178.1810  139.7310 C   0  0  0  0  0  0  0  0  0  0  0  0
  183.6430  179.3210  141.3000 O   0  0  0  0  0  1  0  0  0  0  0  0
  188.5930  177.3480  137.7340 C   0  0  0  0  0  3  0  0  0  0  0  0
  190.2850  177.6470  143.1760 C   0  0  0  0  0  1  0  0  0  0  0  0
  189.0160  177.4190  139.0670 C   0  0  0  0  0  0  0  0  0  0  0  0
  189.8230  177.5700  141.7590 C   0  0  0  0  0  0  0  0  0  0  0  0
  188.5150  177.9390  141.4040 C   0  0  0  0  0  0  0  0  0  0  0  0
  184.5840  178.9000  140.3650 C   0  0  0  0  0  0  0  0  0  0  0  0
  185.9170  178.6010  140.7350 C   0  0  0  0  0  0  0  0  0  0  0  0
  186.4010  178.6870  142.0680 C   0  0  0  0  0  0  0  0  0  0  0  0
  185.0940  178.3840  138.0840 N   0  0  0  0  0  0  0  0  0  0  0  0
  184.1950  178.7630  139.0290 C   0  0  0  0  0  0  0  0  0  0  0  0
  186.8900  177.6660  136.1360 N   0  0  0  0  0  0  0  0  0  0  0  0
  188.1030  177.8560  140.0570 C   0  0  0  0  0  0  0  0  0  0  0  0
  187.6610  178.3550  142.3340 O   0  0  0  0  0  0  0  0  0  0  0  0
  186.3860  178.0920  138.3890 C   0  0  0  0  0  0  0  0  0  0  0  0
  190.3280  177.0520  139.4350 C   0  0  0  0  0  0  0  0  0  0  0  0
  187.2820  177.6990  137.3780 C   0  0  0  0  0  0  0  0  0  0  0  0
  190.7140  177.1250  140.7830 C   0  0  0  0  0  3  0  0  0  0  0  0
  189.0430  177.7700  135.2030 O   0  0  0  0  0  0  0  0  0  0  0  0
  189.5850  174.3320  135.2000 C   0  0  0  0  0  1  0  0  0  0  0  0
  187.7320  177.2950  135.0010 C   0  0  1  0  0  3  0  0  0  0  0  0
  189.8940  176.6510  135.0730 C   0  0  0  0  0  2  0  0  0  0  0  0
  187.8060  175.7960  134.8650 C   0  0  0  0  0  2  0  0  0  0  0  0
  189.1680  175.5310  134.4870 N   0  0  0  0  0  0  0  0  0  0  0  0
  191.1980  175.1570  138.2930 O   0  0  0  0  0  1  0  0  0  0  0  0
  191.3070  176.5440  138.4100 C   0  0  2  0  0  3  0  0  0  0  0  0
  192.7310  176.9210  138.7680 C   0  0  0  0  0  1  0  0  0  0  0  0
  185.5460  179.1390  143.2120 C   0  0  0  0  0  2  0  0  0  0  0  0
  185.9720  178.4610  144.4980 C   0  0  0  0  0  2  0  0  0  0  0  0
  184.8250  178.4910  145.4920 C   0  0  0  0  0  2  0  0  0  0  0  0
  185.3590  178.3780  146.9090 C   0  0  0  0  0  2  0  0  0  0  0  0
  186.7260  178.8760  146.9810 N   0  0  0  0  0  2  0  0  0  0  0  0
  187.1160  177.9950  148.9880 O   0  0  0  0  0  1  0  0  0  0  0  0
  187.4840  177.9250  147.6860 N   0  0  0  0  0  0  0  0  0  0  0  0
  188.9070  178.2790  147.6040 C   0  0  1  0  0  3  0  0  0  0  0  0
  189.5060  178.2420  148.8680 O   0  0  0  0  0  1  0  0  0  0  0  0
  189.7030  177.4690  146.5660 C   0  0  0  0  0  2  0  0  0  0  0  0
  190.1900  176.1260  147.0950 C   0  0  0  0  0  2  0  0  0  0  0  0
  191.6810  176.1170  147.1810 C   0  0  0  0  0  0  0  0  0  0  0  0
  192.3500  175.3780  146.4100 O   0  0  0  0  0  0  0  0  0  0  0  0
  192.3390  176.9170  148.1060 O   0  0  0  0  0  1  0  0  0  0  0  0
  182.7840  179.0320  138.6320 C   0  0  0  0  0  2  0  0  0  0  0  0
  181.4860  178.8320  136.4910 C   0  0  0  0  0  0  0  0  0  0  0  0
  180.7380  181.9890  135.0690 C   0  0  0  0  0  1  0  0  0  0  0  0
  180.9440  180.1400  136.6640 N   0  0  0  0  0  0  0  0  0  0  0  0
  180.8590  181.4460  137.3810 C   0  0  0  0  0  2  0  0  0  0  0  0
  180.0860  181.2890  136.2480 C   0  0  1  0  0  3  0  0  0  0  0  0
  181.1040  178.1220  135.5220 O   0  0  0  0  0  0  0  0  0  0  0  0
  182.4640  178.3240  137.4020 N   0  0  0  0  0  2  0  0  0  0  0  0
  1 14  2  0  0  0  0
  1  9  1  0  0  0  0
  3  5  2  0  0  0  0
  5 17  1  0  0  0  0
  5 14  1  0  0  0  0
  6  4  1  0  0  0  0
  7  6  2  0  0  0  0
  7 15  1  0  0  0  0
  8  9  1  0  0  0  0
  8  2  1  0  0  0  0
  9 10  2  0  0  0  0
 10 15  1  0  0  0  0
 10 29  1  0  0  0  0
 11 16  2  0  0  0  0
 11 12  1  0  0  0  0
 12  8  2  0  0  0  0
 13 18  2  0  0  0  0
 14  7  1  0  0  0  0
 16  1  1  0  0  0  0
 17 19  2  0  0  0  0
 18  3  1  0  0  0  0
 18 16  1  0  0  0  0
 19  6  1  0  0  0  0
 22 20  1  0  0  0  0
 22 13  1  1  0  0  0
 23 20  1  0  0  0  0
 24 22  1  0  0  0  0
 25 24  1  0  0  0  0
 25 23  1  0  0  0  0
 25 21  1  0  0  0  0
 26 27  1  0  0  0  0
 27 28  1  1  0  0  0
 27 17  1  0  0  0  0
 29 30  1  0  0  0  0
 30 31  1  0  0  0  0
 31 32  1  0  0  0  0
 32 33  1  0  0  0  0
 33 35  1  0  0  0  0
 35 34  1  0  0  0  0
 36 35  1  0  0  0  0
 36 37  1  1  0  0  0
 38 39  1  0  0  0  0
 38 36  1  0  0  0  0
 39 40  1  0  0  0  0
 40 42  1  0  0  0  0
 41 40  2  0  0  0  0
 43 12  1  0  0  0  0
 44 46  1  0  0  0  0
 44 50  1  0  0  0  0
 46 47  1  0  0  0  0
 48 45  1  6  0  0  0
 48 46  1  0  0  0  0
 48 47  1  0  0  0  0
 49 44  2  0  0  0  0
 50 43  1  0  0  0  0
M  END
>  <MODEL>
9

>  <REMARK>
 VINA RESULT:      -7.2      2.082      6.966
  Name = 
  14 active torsions:
  status: ('A' for Active; 'I' for Inactive)
    1  A    between atoms: C_16  and  C_17
    2  A    between atoms: C_16  and  C_24
    3  A    between atoms: C_17  and  C_49
    4  A    between atoms: C_18  and  C_31
    5  A    between atoms: C_18  and  C_34
    6  A    between atoms: N_19  and  C_23
    7  A    between atoms: N_19  and  N_37
    8  A    between atoms: C_23  and  C_49
    9  A    between atoms: C_25  and  C_46
   10  A    between atoms: C_26  and  C_29
   11  A    between atoms: C_26  and  N_47
   12  A    between atoms: C_28  and  C_34
   13  A    between atoms: C_28  and  N_37
   14  A    between atoms: N_30  and  C_32
                            x       y       z     vdW  Elec       q    Type
                         _______ _______ _______ _____ _____    ______ ____

>  <TORSDO>
F 14

$$$$
